Info: SIMULATION PARAMETERS:
Info: TIMESTEP               2
Info: NUMBER OF STEPS        0
Info: STEPS PER CYCLE        10
Info: PERIODIC CELL BASIS 1  36.281 0 0
Info: PERIODIC CELL BASIS 2  0 34.1 0
Info: PERIODIC CELL BASIS 3  0 0 36.199
Info: PERIODIC CELL CENTER   0 0 0
Info: WRAPPING WATERS AROUND PERIODIC BOUNDARIES ON OUTPUT.
Info: WRAPPING ALL CLUSTERS AROUND PERIODIC BOUNDARIES ON OUTPUT.
Info: FIRST LDB TIMESTEP     50
Info: LAST LDB TIMESTEP     -1
Info: HOM BACKGROUND SCALING 1
Info: PME BACKGROUND SCALING 1
Info: MIN ATOMS PER PATCH    40
Info: EMPTY PATCH LOAD       40 ATOMS
Info: INITIAL TEMPERATURE    300
Info: CENTER OF MASS MOVING INITIALLY? NO
Info: DIELECTRIC             1
Info: EXCLUDE                SCALED ONE-FOUR
Info: 1-4 ELECTROSTATICS SCALED BY 0.833333
Info: MODIFIED 1-4 VDW PARAMETERS WILL BE USED
Info: DCD FILENAME           mobley_1855337_equil.dcd
Info: DCD FREQUENCY          100000
Info: DCD FIRST STEP         100000
Info: DCD FILE WILL CONTAIN UNIT CELL DATA
Info: XST FILENAME           mobley_1855337_equil.xst
Info: XST FREQUENCY          100000
Info: NO VELOCITY DCD OUTPUT
Info: NO FORCE DCD OUTPUT
Info: OUTPUT FILENAME        mobley_1855337_equil
Info: BINARY OUTPUT FILES WILL BE USED
Info: RESTART FILENAME       mobley_1855337_equil.restart
Info: RESTART FREQUENCY      100000
Info: BINARY RESTART FILES WILL BE USED
Info: CUTOFF                 9
Info: PAIRLIST DISTANCE      11
Info: PAIRLIST SHRINK RATE   0.01
Info: PAIRLIST GROW RATE     0.01
Info: PAIRLIST TRIGGER       0.3
Info: PAIRLISTS PER CYCLE    2
Info: PAIRLISTS ENABLED
Info: MARGIN                 8
Info: HYDROGEN GROUP CUTOFF  2.5
Info: PATCH DIMENSION        21.5
Info: ENERGY OUTPUT STEPS    100000
Info: ENERGY EVALUATION STEPS    100000
Info: OUTPUT ENERGY PRECISION 4
Info: CROSSTERM ENERGY INCLUDED IN DIHEDRAL
Info: TIMING OUTPUT STEPS    1000000
Info: PRESSURE OUTPUT STEPS  100000
Info: FIXED ATOMS ACTIVE
Info: LANGEVIN DYNAMICS ACTIVE
Info: LANGEVIN TEMPERATURE   30
Info: LANGEVIN USING BBK INTEGRATOR
Info: LANGEVIN DAMPING COEFFICIENT IS 1 INVERSE PS
Info: LANGEVIN DYNAMICS APPLIED TO HYDROGENS
Info: LANGEVIN PISTON PRESSURE CONTROL ACTIVE
Info:        TARGET PRESSURE IS 1.01325 BAR
Info:     OSCILLATION PERIOD IS 50 FS
Info:             DECAY TIME IS 25 FS
Info:     PISTON TEMPERATURE IS 300 K
Info:       PRESSURE CONTROL IS GROUP-BASED
Info:    INITIAL STRAIN RATE IS 0 0 0
Info:       CELL FLUCTUATION IS ISOTROPIC
Info: PARTICLE MESH EWALD (PME) ACTIVE
Info: PME TOLERANCE               1e-06
Info: PME EWALD COEFFICIENT       0.348832
Info: PME INTERPOLATION ORDER     4
Info: PME GRID DIMENSIONS         40 36 40
Info: PME MAXIMUM GRID SPACING    1
Info: FULL ELECTROSTATIC EVALUATION FREQUENCY      2
Info: USING VERLET I (r-RESPA) MTS SCHEME.
Info: C1 SPLITTING OF LONG RANGE ELECTROSTATICS
Info: PLACING ATOMS IN PATCHES BY HYDROGEN GROUPS
Info: RIGID BONDS TO HYDROGEN : ALL
Info:         ERROR TOLERANCE : 1e-08
Info:          MAX ITERATIONS : 100
Info: RIGID WATER USING SETTLE ALGORITHM
Info: RANDOM NUMBER SEED     1742017178
Info: USE HYDROGEN BONDS?    NO
Info: Using AMBER format force field!
Info: AMBER PARM FILE        mobley_1855337.prmtop
Info: COORDINATE PDB         mobley_1855337.pdb
Info: Exclusions will be read from PARM file!
Info: SCNB (VDW SCALING)     2
Info: USING ARITHMETIC MEAN TO COMBINE L-J SIGMA PARAMETERS
Info: BINARY COORDINATES     mobley_1855337_min.coor
Info: SUMMARY OF PARAMETERS:
Info: 5 BONDS
Info: 3 ANGLES
Info:   3 HARMONIC
Info:   0 COSINE-BASED
Info: 2 DIHEDRAL
Info: 0 IMPROPER
Info: 0 CROSSTERM
Info: 0 VDW
Info: 15 VDW_PAIRS
Info: 0 NBTHOLE_PAIRS
Info: STRUCTURE SUMMARY:
Info: 2982 ATOMS
Info: 2982 BONDS
Info: 18 ANGLES
Info: 30 DIHEDRALS
Info: 0 IMPROPERS
Info: 0 CROSSTERMS
Info: 3021 EXCLUSIONS
Info: 12 FIXED ATOMS
Info: 2972 RIGID BONDS
Info: 2 RIGID BONDS BETWEEN FIXED ATOMS
Info: 5940 DEGREES OF FREEDOM
Info: 1000 HYDROGEN GROUPS
Info: 3 ATOMS IN LARGEST HYDROGEN GROUP
Info: 1000 MIGRATION GROUPS
Info: 3 ATOMS IN LARGEST MIGRATION GROUP
Info: 10 HYDROGEN GROUPS WITH ALL ATOMS FIXED
Info: TOTAL MASS = 18051.7 amu
Info: TOTAL CHARGE = 0.000199986 e
Info: MASS DENSITY = 0.669341 g/cm^3
Info: ATOM DENSITY = 0.0665852 atoms/A^3
Info: ADDED 0 IMPLICIT EXCLUSIONS
Info: NONBONDED TABLE R-SQUARED SPACING: 0.0625
Info: NONBONDED TABLE SIZE: 705 POINTS
Info: REMOVING COM VELOCITY 0.0655605 0.037707 0.0148437
TCL: Running for 100000 steps
ETITLE: TS BOND ANGLE DIHED IMPRP ELECT VDW BOUNDARY MISC KINETIC TOTAL TEMP POTENTIAL TOTAL3 TEMPAVG PRESSURE GPRESSURE VOLUME PRESSAVG GPRESSAVG
ENERGY: 0 0.0000 0.0000 0.0000 0.0000 -13806.7912 2398.9462 0.0000 0.0000 1833.6289 -9574.2161 310.6815 -11407.8450 -9573.8724 310.6815 284.9104 321.2467 44784.7548 284.9104 321.2467
ENERGY: 100000 0.0000 0.0000 0.0000 0.0000 -14385.2372 2567.6655 0.0000 0.0000 172.6336 -11644.9381 29.2502 -11817.5717 -11644.4278 30.8860 821.0797 912.4782 29098.9371 4.0767 4.0419
TCL: Running 100000 steps at 60 kelvin.
TCL: Setting parameter langevinTemp to 60
TCL: Running for 100000 steps
ETITLE: TS BOND ANGLE DIHED IMPRP ELECT VDW BOUNDARY MISC KINETIC TOTAL TEMP POTENTIAL TOTAL3 TEMPAVG PRESSURE GPRESSURE VOLUME PRESSAVG GPRESSAVG
ENERGY: 100000 0.0000 0.0000 0.0000 0.0000 -14385.2372 2567.6655 0.0000 0.0000 172.5447 -11645.0270 29.2352 -11817.5717 -11644.6898 29.2352 856.5148 912.5277 29098.9371 856.5148 912.5277
ENERGY: 200000 0.0000 0.0000 0.0000 0.0000 -14126.1821 2330.1366 0.0000 0.0000 355.7028 -11440.3427 60.2686 -11796.0455 -11439.0743 59.9327 -988.9860 -945.9415 29258.2166 5.3726 5.3237
TCL: Running 100000 steps at 90 kelvin.
TCL: Setting parameter langevinTemp to 90
TCL: Running for 100000 steps
ETITLE: TS BOND ANGLE DIHED IMPRP ELECT VDW BOUNDARY MISC KINETIC TOTAL TEMP POTENTIAL TOTAL3 TEMPAVG PRESSURE GPRESSURE VOLUME PRESSAVG GPRESSAVG
ENERGY: 200000 0.0000 0.0000 0.0000 0.0000 -14126.1821 2330.1366 0.0000 0.0000 355.5257 -11440.5198 60.2386 -11796.0455 -11439.5814 60.2386 -993.8577 -945.7767 29258.2166 -993.8577 -945.7767
ENERGY: 300000 0.0000 0.0000 0.0000 0.0000 -14069.0772 2340.0989 0.0000 0.0000 541.2354 -11187.7429 91.7044 -11728.9783 -11186.5792 89.9352 -492.8369 -413.1676 28888.4751 4.5314 4.6460
TCL: Running 100000 steps at 120 kelvin.
TCL: Setting parameter langevinTemp to 120
TCL: Running for 100000 steps
ETITLE: TS BOND ANGLE DIHED IMPRP ELECT VDW BOUNDARY MISC KINETIC TOTAL TEMP POTENTIAL TOTAL3 TEMPAVG PRESSURE GPRESSURE VOLUME PRESSAVG GPRESSAVG
ENERGY: 300000 0.0000 0.0000 0.0000 0.0000 -14069.0772 2340.0989 0.0000 0.0000 540.9786 -11187.9997 91.6609 -11728.9783 -11186.7975 91.6609 -468.5143 -413.3235 28888.4751 -468.5143 -413.3235
ENERGY: 400000 0.0000 0.0000 0.0000 0.0000 -14035.8326 2421.6671 0.0000 0.0000 683.4504 -10930.7150 115.8006 -11614.1655 -10929.1469 119.8146 547.3738 622.2131 28788.4928 3.9372 4.0585
TCL: Running 100000 steps at 150 kelvin.
TCL: Setting parameter langevinTemp to 150
TCL: Running for 100000 steps
ETITLE: TS BOND ANGLE DIHED IMPRP ELECT VDW BOUNDARY MISC KINETIC TOTAL TEMP POTENTIAL TOTAL3 TEMPAVG PRESSURE GPRESSURE VOLUME PRESSAVG GPRESSAVG
ENERGY: 400000 0.0000 0.0000 0.0000 0.0000 -14035.8326 2421.6671 0.0000 0.0000 683.1051 -10931.0604 115.7421 -11614.1655 -10929.9111 115.7421 563.0312 622.3022 28788.4928 563.0312 622.3022
ENERGY: 500000 0.0000 0.0000 0.0000 0.0000 -13666.7899 2220.5215 0.0000 0.0000 851.7263 -10594.5421 144.3125 -11446.2684 -10593.1255 149.8584 -776.5078 -719.8035 29384.0217 4.1401 4.1702
TCL: Running 100000 steps at 180 kelvin.
TCL: Setting parameter langevinTemp to 180
TCL: Running for 100000 steps
ETITLE: TS BOND ANGLE DIHED IMPRP ELECT VDW BOUNDARY MISC KINETIC TOTAL TEMP POTENTIAL TOTAL3 TEMPAVG PRESSURE GPRESSURE VOLUME PRESSAVG GPRESSAVG
ENERGY: 500000 0.0000 0.0000 0.0000 0.0000 -13666.7899 2220.5215 0.0000 0.0000 851.2842 -10594.9842 144.2376 -11446.2684 -10592.8677 144.2376 -772.6494 -720.9118 29384.0217 -772.6494 -720.9118
ENERGY: 600000 0.0000 0.0000 0.0000 0.0000 -13288.3334 2140.3768 0.0000 0.0000 1069.9631 -10077.9935 181.2895 -11147.9566 -10075.3411 179.8038 -56.9907 -0.1587 29199.4246 4.0982 4.1225
TCL: Running 100000 steps at 210 kelvin.
TCL: Setting parameter langevinTemp to 210
TCL: Running for 100000 steps
ETITLE: TS BOND ANGLE DIHED IMPRP ELECT VDW BOUNDARY MISC KINETIC TOTAL TEMP POTENTIAL TOTAL3 TEMPAVG PRESSURE GPRESSURE VOLUME PRESSAVG GPRESSAVG
ENERGY: 600000 0.0000 0.0000 0.0000 0.0000 -13288.3334 2140.3768 0.0000 0.0000 1069.4426 -10078.5140 181.2014 -11147.9566 -10076.5985 181.2014 -59.9641 -0.0082 29199.4246 -59.9641 -0.0082
ENERGY: 700000 0.0000 0.0000 0.0000 0.0000 -12640.9984 1978.1002 0.0000 0.0000 1237.6897 -9425.2085 209.7084 -10662.8983 -9422.3335 209.9466 540.0477 638.2610 28927.1830 4.1093 3.7878
TCL: Running 100000 steps at 240 kelvin.
TCL: Setting parameter langevinTemp to 240
TCL: Running for 100000 steps
ETITLE: TS BOND ANGLE DIHED IMPRP ELECT VDW BOUNDARY MISC KINETIC TOTAL TEMP POTENTIAL TOTAL3 TEMPAVG PRESSURE GPRESSURE VOLUME PRESSAVG GPRESSAVG
ENERGY: 700000 0.0000 0.0000 0.0000 0.0000 -12640.9984 1978.1002 0.0000 0.0000 1237.0784 -9425.8198 209.6048 -10662.8983 -9423.4294 209.6048 557.7955 639.6420 28927.1830 557.7955 639.6420
ENERGY: 800000 0.0000 0.0000 0.0000 0.0000 -11898.8154 1720.8393 0.0000 0.0000 1390.1814 -8787.7947 235.5458 -10177.9761 -8784.8301 239.7147 97.9930 229.5247 29355.9812 3.2656 3.0954
TCL: Running 100000 steps at 270 kelvin.
TCL: Setting parameter langevinTemp to 270
TCL: Running for 100000 steps
ETITLE: TS BOND ANGLE DIHED IMPRP ELECT VDW BOUNDARY MISC KINETIC TOTAL TEMP POTENTIAL TOTAL3 TEMPAVG PRESSURE GPRESSURE VOLUME PRESSAVG GPRESSAVG
ENERGY: 800000 0.0000 0.0000 0.0000 0.0000 -11898.8154 1720.8393 0.0000 0.0000 1389.4631 -8788.5130 235.4241 -10177.9761 -8786.4374 235.4241 131.8433 229.7279 29355.9812 131.8433 229.7279
ENERGY: 900000 0.0000 0.0000 0.0000 0.0000 -11383.3665 1596.5735 0.0000 0.0000 1617.4601 -8169.3328 274.0549 -9786.7930 -8166.5718 269.5803 50.8317 121.9440 29846.6644 2.1538 2.2283
TCL: Running 1000000 steps at 300 kelvin.
TCL: Setting parameter langevinTemp to 300
TCL: Running for 1000000 steps
ETITLE: TS BOND ANGLE DIHED IMPRP ELECT VDW BOUNDARY MISC KINETIC TOTAL TEMP POTENTIAL TOTAL3 TEMPAVG PRESSURE GPRESSURE VOLUME PRESSAVG GPRESSAVG
ENERGY: 900000 0.0000 0.0000 0.0000 0.0000 -11383.3665 1596.5735 0.0000 0.0000 1616.6505 -8170.1424 273.9177 -9786.7930 -8167.7852 273.9177 47.8048 122.8510 29846.6644 47.8048 122.8510
ENERGY: 1100000 0.0000 0.0000 0.0000 0.0000 -11010.3603 1541.9664 0.0000 0.0000 1798.6111 -7669.7827 304.7482 -9468.3938 -7664.0887 299.8671 448.6156 575.8398 30563.4363 0.9704 1.0404
ENERGY: 1300000 0.0000 0.0000 0.0000 0.0000 -10940.7049 1564.2038 0.0000 0.0000 1757.9129 -7618.5883 297.8525 -9376.5011 -7615.2269 300.1528 772.9743 870.8852 30827.8651 2.8642 2.6943
ENERGY: 1500000 0.0000 0.0000 0.0000 0.0000 -10678.5191 1404.0886 0.0000 0.0000 1721.3261 -7553.1044 291.6534 -9274.4305 -7549.3418 300.3699 -79.8894 18.2829 30695.7047 2.9756 2.9885
ENERGY: 1700000 0.0000 0.0000 0.0000 0.0000 -10854.2612 1421.7353 0.0000 0.0000 1765.3758 -7667.1501 299.1170 -9432.5259 -7663.6324 300.7283 -240.4771 -119.0460 30392.5398 3.1111 3.1225
ENERGY: 1900000 0.0000 0.0000 0.0000 0.0000 -10660.7247 1430.3019 0.0000 0.0000 1708.6603 -7521.7625 289.5074 -9230.4228 -7520.6772 300.2983 253.7824 361.9578 30642.2053 2.1806 2.2420
TCL: Exiting due to exit command.
