Info: SIMULATION PARAMETERS:
Info: TIMESTEP               1
Info: NUMBER OF STEPS        0
Info: STEPS PER CYCLE        10
Info: PERIODIC CELL BASIS 1  30 0 0
Info: PERIODIC CELL BASIS 2  0 30 0
Info: PERIODIC CELL BASIS 3  0 0 30
Info: PERIODIC CELL CENTER   0 0 0
Info: WRAPPING ALL CLUSTERS AROUND PERIODIC BOUNDARIES ON OUTPUT.
Info: FIRST LDB TIMESTEP     50
Info: LAST LDB TIMESTEP     -1
Info: HOM BACKGROUND SCALING 1
Info: MIN ATOMS PER PATCH    40
Info: EMPTY PATCH LOAD       40 ATOMS
Info: INITIAL TEMPERATURE    298
Info: CENTER OF MASS MOVING INITIALLY? NO
Info: DIELECTRIC             1
Info: EXCLUDE                SCALED ONE-FOUR
Info: 1-4 ELECTROSTATICS SCALED BY 1
Info: MODIFIED 1-4 VDW PARAMETERS WILL BE USED
Info: DCD FILENAME           output.dcd
Info: DCD FREQUENCY          500
Info: DCD FIRST STEP         500
Info: DCD FILE WILL CONTAIN UNIT CELL DATA
Info: NO EXTENDED SYSTEM TRAJECTORY OUTPUT
Info: NO VELOCITY DCD OUTPUT
Info: NO FORCE DCD OUTPUT
Info: OUTPUT FILENAME        output
Info: BINARY OUTPUT FILES WILL BE USED
Info: NO RESTART FILE
Info: SWITCHING ACTIVE
Info: SWITCHING ON           10
Info: SWITCHING OFF          12
Info: PAIRLIST DISTANCE      14
Info: PAIRLIST SHRINK RATE   0.01
Info: PAIRLIST GROW RATE     0.01
Info: PAIRLIST TRIGGER       0.3
Info: PAIRLISTS PER CYCLE    2
Info: PAIRLISTS ENABLED
Info: MARGIN                 0
Info: HYDROGEN GROUP CUTOFF  2.5
Info: PATCH DIMENSION        16.5
Info: ENERGY OUTPUT STEPS    500
Info: ENERGY EVALUATION STEPS    500
Info: OUTPUT ENERGY PRECISION 4
Info: CROSSTERM ENERGY INCLUDED IN DIHEDRAL
Info: TIMING OUTPUT STEPS    500
Info: LANGEVIN DYNAMICS ACTIVE
Info: LANGEVIN TEMPERATURE   298
Info: LANGEVIN USING BBK INTEGRATOR
Info: LANGEVIN DAMPING COEFFICIENT IS 0.5 INVERSE PS
Info: LANGEVIN DYNAMICS NOT APPLIED TO HYDROGENS
Info: MULTILEVEL SUMMATION METHOD (MSM) FOR ELECTROSTATICS ACTIVE
Info: MSM WITH C1 CUBIC INTERPOLATION AND C2 TAYLOR SPLITTING
Info: FULL ELECTROSTATIC EVALUATION FREQUENCY      1
Info: USING VERLET I (r-RESPA) MTS SCHEME.
Info: C1 SPLITTING OF LONG RANGE ELECTROSTATICS
Info: PLACING ATOMS IN PATCHES BY HYDROGEN GROUPS
Info: RIGID BONDS TO HYDROGEN : ALL
Info:         ERROR TOLERANCE : 1e-08
Info:          MAX ITERATIONS : 100
Info: RIGID WATER USING SETTLE ALGORITHM
Info: RANDOM NUMBER SEED     1740228746
Info: USE HYDROGEN BONDS?    NO
Info: COORDINATE PDB         ionized.pdb
Info: STRUCTURE FILE         ionized.psf
Info: PARAMETER file: CHARMM format!
Info: PARAMETERS             par_all27_prot_lipid.inp
Info: USING ARITHMETIC MEAN TO COMBINE L-J SIGMA PARAMETERS
Info: SUMMARY OF PARAMETERS:
Info: 180 BONDS
Info: 447 ANGLES
Info: 566 DIHEDRAL
Info: 46 IMPROPER
Info: 6 CROSSTERM
Info: 119 VDW
Info: 0 VDW_PAIRS
Info: 0 NBTHOLE_PAIRS
Info: STRUCTURE SUMMARY:
Info: 2476 ATOMS
Info: 1650 BONDS
Info: 825 ANGLES
Info: 0 DIHEDRALS
Info: 0 IMPROPERS
Info: 0 CROSSTERMS
Info: 0 EXCLUSIONS
Info: 2475 RIGID BONDS
Info: 4953 DEGREES OF FREEDOM
Info: 826 HYDROGEN GROUPS
Info: 3 ATOMS IN LARGEST HYDROGEN GROUP
Info: 826 MIGRATION GROUPS
Info: 3 ATOMS IN LARGEST MIGRATION GROUP
Info: TOTAL MASS = 14885.7 amu
Info: TOTAL CHARGE = 1 e
Info: MASS DENSITY = 0.915513 g/cm^3
Info: ATOM DENSITY = 0.0917037 atoms/A^3
Info: ADDED 2475 IMPLICIT EXCLUSIONS
Info: NONBONDED TABLE R-SQUARED SPACING: 0.0625
Info: NONBONDED TABLE SIZE: 769 POINTS
Info: REMOVING COM VELOCITY 0.0738734 -0.0225307 -0.0219237
Info: MSM using C1 cubic interpolation
Info: MSM using C2 Taylor splitting function
Info: MSM block size decomposition along X is 8 grid points
Info: MSM block size decomposition along Y is 8 grid points
Info: MSM block size decomposition along Z is 8 grid points
Info: MSM grid spacing along X is 2.5 A
Info: MSM grid spacing along Y is 2.5 A
Info: MSM grid spacing along Z is 2.5 A
Info: MSM using 3 levels
Info:     level 0:  [0..11] x [0..11] x [0..11]
Info:     level 1:  [0..5] x [0..5] x [0..5]
Info:     level 2:  [0..2] x [0..2] x [0..2]
Info: MSM finished calculating stencils
Info: MSM finished creating map for grid levels
Info: MSM finished creating map for patches
Info: MSM has 9 interpolation / anterpolation objects (one per patch)
Info: MSM grid level 0 decomposed into 8 blocks ( 2 x 2 x 2 )
Info: MSM grid level 1 decomposed into 1 block ( 1 x 1 x 1 )
Info: MSM grid level 2 decomposed into 1 block ( 1 x 1 x 1 )
Info: MSM grid cutoff calculation decomposed into 783 work objects
TCL: Minimizing for 100 steps
ETITLE: TS BOND ANGLE DIHED IMPRP ELECT VDW BOUNDARY MISC KINETIC TOTAL TEMP POTENTIAL TOTAL3 TEMPAVG PRESSURE GPRESSURE VOLUME PRESSAVG GPRESSAVG
ENERGY: 0 0.0000 0.0000 0.0000 0.0000 -7348.6497 6353.7252 0.0000 0.0000 0.0000 -994.9246 0.0000 -994.9246 -994.9246 0.0000 75204.0846 46356.0500 27000.0000 75204.0846 46356.0500
ENERGY: 20 0.0000 0.0000 0.0000 0.0000 -8744.5978 644.7588 0.0000 0.0000 0.0000 -8099.8390 0.0000 -8099.8390 -8099.8390 0.0000 14286.6723 -2608.4246 27000.0000 14286.6723 -2608.4246
ENERGY: 40 0.0000 0.0000 0.0000 0.0000 -9255.3676 673.7888 0.0000 0.0000 0.0000 -8581.5788 0.0000 -8581.5788 -8581.5788 0.0000 14306.7127 -3612.4722 27000.0000 14306.7127 -3612.4722
ENERGY: 60 0.0000 0.0000 0.0000 0.0000 -9570.7012 738.1056 0.0000 0.0000 0.0000 -8832.5956 0.0000 -8832.5956 -8832.5956 0.0000 14889.9959 -3661.0805 27000.0000 14889.9959 -3661.0805
ENERGY: 80 0.0000 0.0000 0.0000 0.0000 -9709.9722 782.3964 0.0000 0.0000 0.0000 -8927.5758 0.0000 -8927.5758 -8927.5758 0.0000 15331.0277 -3519.5010 27000.0000 15331.0277 -3519.5010
ENERGY: 100 0.0000 0.0000 0.0000 0.0000 -9872.7732 825.2860 0.0000 0.0000 0.0000 -9047.4872 0.0000 -9047.4872 -9047.4872 0.0000 15763.6976 15684.9348 27000.0000 15763.6976 15684.9348
TCL: Running for 100000 steps
ETITLE: TS BOND ANGLE DIHED IMPRP ELECT VDW BOUNDARY MISC KINETIC TOTAL TEMP POTENTIAL TOTAL3 TEMPAVG PRESSURE GPRESSURE VOLUME PRESSAVG GPRESSAVG
ENERGY: 500 0.0000 0.0000 0.0000 0.0000 -9608.2504 992.6169 0.0000 0.0000 1057.1536 -7558.4799 214.8128 -8615.6335 -7557.7824 198.3712 -1888.4775 -1895.0705 27000.0000 -2007.0422 -2007.2263
ENERGY: 20500 0.0000 0.0000 0.0000 0.0000 -8991.9292 883.4617 0.0000 0.0000 1473.2509 -6635.2165 299.3635 -8108.4675 -6633.8114 287.0387 -1253.7790 -1259.5075 27000.0000 -1375.0642 -1374.7996
ENERGY: 40500 0.0000 0.0000 0.0000 0.0000 -8862.7758 803.7420 0.0000 0.0000 1502.3849 -6556.6490 305.2834 -8059.0338 -6555.3683 293.6169 -1890.9761 -1900.4735 27000.0000 -1542.1336 -1542.0621
ENERGY: 60000 0.0000 0.0000 0.0000 0.0000 -8813.1203 825.7123 0.0000 0.0000 1442.7995 -6544.6085 293.1757 -7987.4080 -6543.6184 294.4854 -1482.6271 -1476.9433 27000.0000 -1478.2082 -1478.2557
ENERGY: 80000 0.0000 0.0000 0.0000 0.0000 -8712.2533 794.8213 0.0000 0.0000 1476.0198 -6441.4122 299.9261 -7917.4320 -6441.0633 301.0941 -1614.4098 -1619.9019 27000.0000 -1333.3595 -1333.4655
ENERGY: 100000 0.0000 0.0000 0.0000 0.0000 -8859.4831 845.6350 0.0000 0.0000 1489.4640 -6524.3842 302.6579 -8013.8482 -6523.4878 296.6473 -1396.9388 -1402.7554 27000.0000 -1348.9595 -1349.4692
