Info: SIMULATION PARAMETERS:
Info: TIMESTEP               2
Info: NUMBER OF STEPS        0
Info: STEPS PER CYCLE        10
Info: PERIODIC CELL BASIS 1  35.01 0 0
Info: PERIODIC CELL BASIS 2  0 35.267 0
Info: PERIODIC CELL BASIS 3  0 0 35.723
Info: PERIODIC CELL CENTER   0 0 0
Info: WRAPPING WATERS AROUND PERIODIC BOUNDARIES ON OUTPUT.
Info: WRAPPING ALL CLUSTERS AROUND PERIODIC BOUNDARIES ON OUTPUT.
Info: FIRST LDB TIMESTEP     50
Info: LAST LDB TIMESTEP     -1
Info: HOM BACKGROUND SCALING 1
Info: PME BACKGROUND SCALING 1
Info: MIN ATOMS PER PATCH    40
Info: EMPTY PATCH LOAD       40 ATOMS
Info: INITIAL TEMPERATURE    300
Info: CENTER OF MASS MOVING INITIALLY? NO
Info: DIELECTRIC             1
Info: EXCLUDE                SCALED ONE-FOUR
Info: 1-4 ELECTROSTATICS SCALED BY 0.833333
Info: MODIFIED 1-4 VDW PARAMETERS WILL BE USED
Info: DCD FILENAME           mobley_4434915_equil.dcd
Info: DCD FREQUENCY          100000
Info: DCD FIRST STEP         100000
Info: DCD FILE WILL CONTAIN UNIT CELL DATA
Info: XST FILENAME           mobley_4434915_equil.xst
Info: XST FREQUENCY          100000
Info: NO VELOCITY DCD OUTPUT
Info: NO FORCE DCD OUTPUT
Info: OUTPUT FILENAME        mobley_4434915_equil
Info: BINARY OUTPUT FILES WILL BE USED
Info: RESTART FILENAME       mobley_4434915_equil.restart
Info: RESTART FREQUENCY      100000
Info: BINARY RESTART FILES WILL BE USED
Info: CUTOFF                 9
Info: PAIRLIST DISTANCE      11
Info: PAIRLIST SHRINK RATE   0.01
Info: PAIRLIST GROW RATE     0.01
Info: PAIRLIST TRIGGER       0.3
Info: PAIRLISTS PER CYCLE    2
Info: PAIRLISTS ENABLED
Info: MARGIN                 8
Info: HYDROGEN GROUP CUTOFF  2.5
Info: PATCH DIMENSION        21.5
Info: ENERGY OUTPUT STEPS    100000
Info: ENERGY EVALUATION STEPS    100000
Info: OUTPUT ENERGY PRECISION 4
Info: CROSSTERM ENERGY INCLUDED IN DIHEDRAL
Info: TIMING OUTPUT STEPS    1000000
Info: PRESSURE OUTPUT STEPS  100000
Info: LANGEVIN DYNAMICS ACTIVE
Info: LANGEVIN TEMPERATURE   30
Info: LANGEVIN USING BBK INTEGRATOR
Info: LANGEVIN DAMPING COEFFICIENT IS 1 INVERSE PS
Info: LANGEVIN DYNAMICS APPLIED TO HYDROGENS
Info: LANGEVIN PISTON PRESSURE CONTROL ACTIVE
Info:        TARGET PRESSURE IS 1.01325 BAR
Info:     OSCILLATION PERIOD IS 50 FS
Info:             DECAY TIME IS 25 FS
Info:     PISTON TEMPERATURE IS 300 K
Info:       PRESSURE CONTROL IS GROUP-BASED
Info:    INITIAL STRAIN RATE IS 0 0 0
Info:       CELL FLUCTUATION IS ISOTROPIC
Info: PARTICLE MESH EWALD (PME) ACTIVE
Info: PME TOLERANCE               1e-06
Info: PME EWALD COEFFICIENT       0.348832
Info: PME INTERPOLATION ORDER     4
Info: PME GRID DIMENSIONS         36 36 36
Info: PME MAXIMUM GRID SPACING    1
Info: FULL ELECTROSTATIC EVALUATION FREQUENCY      2
Info: USING VERLET I (r-RESPA) MTS SCHEME.
Info: C1 SPLITTING OF LONG RANGE ELECTROSTATICS
Info: PLACING ATOMS IN PATCHES BY HYDROGEN GROUPS
Info: RIGID BONDS TO HYDROGEN : ALL
Info:         ERROR TOLERANCE : 1e-08
Info:          MAX ITERATIONS : 100
Info: RIGID WATER USING SETTLE ALGORITHM
Info: RANDOM NUMBER SEED     1742443019
Info: USE HYDROGEN BONDS?    NO
Info: Using AMBER format force field!
Info: AMBER PARM FILE        mobley_4434915.prmtop
Info: COORDINATE PDB         mobley_4434915.pdb
Info: Exclusions will be read from PARM file!
Info: SCNB (VDW SCALING)     2
Info: USING ARITHMETIC MEAN TO COMBINE L-J SIGMA PARAMETERS
Info: BINARY COORDINATES     mobley_4434915_min.coor
Info: SUMMARY OF PARAMETERS:
Info: 4 BONDS
Info: 2 ANGLES
Info:   2 HARMONIC
Info:   0 COSINE-BASED
Info: 0 DIHEDRAL
Info: 0 IMPROPER
Info: 0 CROSSTERM
Info: 0 VDW
Info: 15 VDW_PAIRS
Info: 0 NBTHOLE_PAIRS
Info: STRUCTURE SUMMARY:
Info: 2978 ATOMS
Info: 2977 BONDS
Info: 6 ANGLES
Info: 0 DIHEDRALS
Info: 0 IMPROPERS
Info: 0 CROSSTERMS
Info: 2983 EXCLUSIONS
Info: 2976 RIGID BONDS
Info: 5958 DEGREES OF FREEDOM
Info: 993 HYDROGEN GROUPS
Info: 4 ATOMS IN LARGEST HYDROGEN GROUP
Info: 993 MIGRATION GROUPS
Info: 4 ATOMS IN LARGEST MIGRATION GROUP
Info: TOTAL MASS = 17904.3 amu
Info: TOTAL CHARGE = -0.000100018 e
Info: MASS DENSITY = 0.674076 g/cm^3
Info: ATOM DENSITY = 0.0675175 atoms/A^3
Info: ADDED 0 IMPLICIT EXCLUSIONS
Info: NONBONDED TABLE R-SQUARED SPACING: 0.0625
Info: NONBONDED TABLE SIZE: 705 POINTS
Info: REMOVING COM VELOCITY -0.078741 -0.227087 0.117854
TCL: Running for 100000 steps
ETITLE: TS BOND ANGLE DIHED IMPRP ELECT VDW BOUNDARY MISC KINETIC TOTAL TEMP POTENTIAL TOTAL3 TEMPAVG PRESSURE GPRESSURE VOLUME PRESSAVG GPRESSAVG
ENERGY: 0 0.0001 0.2255 0.0000 0.0000 -13790.0719 2398.4533 0.0000 0.0000 1788.5574 -9602.8356 302.1292 -11391.3929 -9602.5225 302.1292 362.0254 401.1917 44107.1049 362.0254 401.1917
ENERGY: 100000 0.0480 0.4076 0.0000 0.0000 -14428.3993 2505.2537 0.0000 0.0000 175.8929 -11746.7969 29.7124 -11922.6899 -11746.2826 30.9805 -53.9584 15.0322 28573.2377 4.8324 4.7913
TCL: Running 100000 steps at 60 kelvin.
TCL: Setting parameter langevinTemp to 60
TCL: Running for 100000 steps
ETITLE: TS BOND ANGLE DIHED IMPRP ELECT VDW BOUNDARY MISC KINETIC TOTAL TEMP POTENTIAL TOTAL3 TEMPAVG PRESSURE GPRESSURE VOLUME PRESSAVG GPRESSAVG
ENERGY: 100000 0.0480 0.4076 0.0000 0.0000 -14428.3993 2505.2537 0.0000 0.0000 175.8064 -11746.8834 29.6978 -11922.6899 -11746.4025 29.6978 -37.6375 15.0513 28573.2377 -37.6375 15.0513
ENERGY: 200000 0.0531 0.5080 0.0000 0.0000 -14199.6998 2389.3676 0.0000 0.0000 349.5253 -11460.2458 59.0430 -11809.7711 -11458.9708 60.0337 -417.9369 -377.4955 28481.5665 4.9309 4.9577
TCL: Running 100000 steps at 90 kelvin.
TCL: Setting parameter langevinTemp to 90
TCL: Running for 100000 steps
ETITLE: TS BOND ANGLE DIHED IMPRP ELECT VDW BOUNDARY MISC KINETIC TOTAL TEMP POTENTIAL TOTAL3 TEMPAVG PRESSURE GPRESSURE VOLUME PRESSAVG GPRESSAVG
ENERGY: 200000 0.0531 0.5080 0.0000 0.0000 -14199.6998 2389.3676 0.0000 0.0000 349.3481 -11460.4230 59.0131 -11809.7711 -11459.6830 59.0131 -428.8826 -376.9980 28481.5665 -428.8826 -376.9980
ENERGY: 300000 0.0496 0.5790 0.0000 0.0000 -14136.5944 2389.7851 0.0000 0.0000 508.9156 -11237.2651 85.9678 -11746.1807 -11235.9230 89.9203 -156.3168 -128.5949 28500.0950 4.3152 4.2381
TCL: Running 100000 steps at 120 kelvin.
TCL: Setting parameter langevinTemp to 120
TCL: Running for 100000 steps
ETITLE: TS BOND ANGLE DIHED IMPRP ELECT VDW BOUNDARY MISC KINETIC TOTAL TEMP POTENTIAL TOTAL3 TEMPAVG PRESSURE GPRESSURE VOLUME PRESSAVG GPRESSAVG
ENERGY: 300000 0.0496 0.5790 0.0000 0.0000 -14136.5944 2389.7851 0.0000 0.0000 508.6499 -11237.5308 85.9229 -11746.1807 -11236.5059 85.9229 -179.2695 -127.6484 28500.0950 -179.2695 -127.6484
ENERGY: 400000 0.0031 0.8097 0.0000 0.0000 -14005.0036 2400.5421 0.0000 0.0000 697.8321 -10905.8166 117.8802 -11603.6487 -10904.2998 119.8075 302.3572 360.3742 28752.3212 5.0900 5.1235
TCL: Running 100000 steps at 150 kelvin.
TCL: Setting parameter langevinTemp to 150
TCL: Running for 100000 steps
ETITLE: TS BOND ANGLE DIHED IMPRP ELECT VDW BOUNDARY MISC KINETIC TOTAL TEMP POTENTIAL TOTAL3 TEMPAVG PRESSURE GPRESSURE VOLUME PRESSAVG GPRESSAVG
ENERGY: 400000 0.0031 0.8097 0.0000 0.0000 -14005.0036 2400.5421 0.0000 0.0000 697.4894 -10906.1593 117.8223 -11603.6487 -10904.7837 117.8223 300.9394 359.9171 28752.3212 300.9394 359.9171
ENERGY: 500000 0.0458 1.3110 0.0000 0.0000 -13565.8979 2181.0173 0.0000 0.0000 906.9192 -10476.6046 153.1999 -11383.5238 -10474.3855 149.8156 -876.3566 -819.1388 29354.2842 3.9672 3.8442
TCL: Running 100000 steps at 180 kelvin.
TCL: Setting parameter langevinTemp to 180
TCL: Running for 100000 steps
ETITLE: TS BOND ANGLE DIHED IMPRP ELECT VDW BOUNDARY MISC KINETIC TOTAL TEMP POTENTIAL TOTAL3 TEMPAVG PRESSURE GPRESSURE VOLUME PRESSAVG GPRESSAVG
ENERGY: 500000 0.0458 1.3110 0.0000 0.0000 -13565.8979 2181.0173 0.0000 0.0000 906.4651 -10477.0587 153.1232 -11383.5238 -10475.1494 153.1232 -871.9003 -819.0645 29354.2842 -871.9003 -819.0645
ENERGY: 600000 0.0264 2.0017 0.0000 0.0000 -13139.6485 2060.8926 0.0000 0.0000 1094.3052 -9982.4226 184.8538 -11076.7279 -9980.6514 180.2472 -449.2186 -382.2015 28971.5319 4.1937 4.2861
TCL: Running 100000 steps at 210 kelvin.
TCL: Setting parameter langevinTemp to 210
TCL: Running for 100000 steps
ETITLE: TS BOND ANGLE DIHED IMPRP ELECT VDW BOUNDARY MISC KINETIC TOTAL TEMP POTENTIAL TOTAL3 TEMPAVG PRESSURE GPRESSURE VOLUME PRESSAVG GPRESSAVG
ENERGY: 600000 0.0264 2.0017 0.0000 0.0000 -13139.6485 2060.8926 0.0000 0.0000 1093.7471 -9982.9808 184.7595 -11076.7279 -9980.9537 184.7595 -453.8652 -383.2044 28971.5319 -453.8652 -383.2044
ENERGY: 700000 0.0150 1.3714 0.0000 0.0000 -12570.3258 1896.2436 0.0000 0.0000 1265.1260 -9407.5698 213.7094 -10672.6958 -9404.5886 209.9271 -408.6370 -305.5344 29133.8150 3.9949 3.7594
TCL: Running 100000 steps at 240 kelvin.
TCL: Setting parameter langevinTemp to 240
TCL: Running for 100000 steps
ETITLE: TS BOND ANGLE DIHED IMPRP ELECT VDW BOUNDARY MISC KINETIC TOTAL TEMP POTENTIAL TOTAL3 TEMPAVG PRESSURE GPRESSURE VOLUME PRESSAVG GPRESSAVG
ENERGY: 700000 0.0150 1.3714 0.0000 0.0000 -12570.3258 1896.2436 0.0000 0.0000 1264.4857 -9408.2101 213.6013 -10672.6958 -9405.5996 213.6013 -380.2060 -305.3201 29133.8150 -380.2060 -305.3201
ENERGY: 800000 0.0000 1.4947 0.0000 0.0000 -11912.9192 1706.3241 0.0000 0.0000 1377.1267 -8827.9737 232.6290 -10205.1004 -8826.1917 240.0419 -396.8691 -280.5239 29237.4582 3.0992 3.1347
TCL: Running 100000 steps at 270 kelvin.
TCL: Setting parameter langevinTemp to 270
TCL: Running for 100000 steps
ETITLE: TS BOND ANGLE DIHED IMPRP ELECT VDW BOUNDARY MISC KINETIC TOTAL TEMP POTENTIAL TOTAL3 TEMPAVG PRESSURE GPRESSURE VOLUME PRESSAVG GPRESSAVG
ENERGY: 800000 0.0000 1.4947 0.0000 0.0000 -11912.9192 1706.3241 0.0000 0.0000 1376.4321 -8828.6683 232.5116 -10205.1004 -8826.3208 232.5116 -367.4836 -281.2025 29237.4582 -367.4836 -281.2025
ENERGY: 900000 0.1109 1.6064 0.0000 0.0000 -11466.4048 1700.6305 0.0000 0.0000 1555.3966 -8208.6605 262.7429 -9764.0571 -8206.6731 269.4738 676.3859 805.2293 30176.4252 3.6474 3.6600
TCL: Running 1000000 steps at 300 kelvin.
TCL: Setting parameter langevinTemp to 300
TCL: Running for 1000000 steps
ETITLE: TS BOND ANGLE DIHED IMPRP ELECT VDW BOUNDARY MISC KINETIC TOTAL TEMP POTENTIAL TOTAL3 TEMPAVG PRESSURE GPRESSURE VOLUME PRESSAVG GPRESSAVG
ENERGY: 900000 0.1109 1.6064 0.0000 0.0000 -11466.4048 1700.6305 0.0000 0.0000 1554.5753 -8209.4819 262.6042 -9764.0571 -8207.8183 262.6042 721.7615 806.6212 30176.4252 721.7615 806.6212
ENERGY: 1100000 0.0072 0.7559 0.0000 0.0000 -10906.3185 1477.0114 0.0000 0.0000 1829.4123 -7599.1317 309.0306 -9428.5440 -7596.6564 299.6804 -51.8059 -5.4747 30791.1685 2.1335 2.1224
ENERGY: 1300000 0.0463 3.0299 0.0000 0.0000 -10860.2990 1496.9468 0.0000 0.0000 1811.8981 -7548.3779 306.0720 -9360.2760 -7543.5454 299.6817 283.6349 363.9158 30759.8287 2.7674 2.8247
ENERGY: 1500000 0.2802 3.0307 0.0000 0.0000 -10894.9683 1506.7065 0.0000 0.0000 1761.9627 -7622.9881 297.6368 -9384.9509 -7621.5505 299.9524 262.5369 377.0046 30522.3604 2.8245 2.8398
ENERGY: 1700000 0.0039 0.8744 0.0000 0.0000 -10796.0921 1421.6432 0.0000 0.0000 1796.7285 -7576.8421 303.5095 -9373.5706 -7573.3654 299.6427 0.9202 49.0574 30220.1743 3.5870 3.6645
ENERGY: 1900000 0.6394 1.6046 0.0000 0.0000 -10747.5872 1378.2209 0.0000 0.0000 1762.6951 -7604.4272 297.7605 -9367.1224 -7602.6604 300.1993 -680.8480 -601.7606 30654.2026 3.8015 3.8581
TCL: Exiting due to exit command.
