Info: SIMULATION PARAMETERS:
Info: TIMESTEP               1
Info: NUMBER OF STEPS        0
Info: STEPS PER CYCLE        10
Info: PERIODIC CELL BASIS 1  30 0 0
Info: PERIODIC CELL BASIS 2  0 30 0
Info: PERIODIC CELL BASIS 3  0 0 30
Info: PERIODIC CELL CENTER   0 0 0
Info: WRAPPING ALL CLUSTERS AROUND PERIODIC BOUNDARIES ON OUTPUT.
Info: FIRST LDB TIMESTEP     50
Info: LAST LDB TIMESTEP     -1
Info: HOM BACKGROUND SCALING 1
Info: MIN ATOMS PER PATCH    40
Info: EMPTY PATCH LOAD       40 ATOMS
Info: INITIAL TEMPERATURE    298
Info: CENTER OF MASS MOVING INITIALLY? NO
Info: DIELECTRIC             1
Info: EXCLUDE                SCALED ONE-FOUR
Info: 1-4 ELECTROSTATICS SCALED BY 1
Info: MODIFIED 1-4 VDW PARAMETERS WILL BE USED
Info: DCD FILENAME           output.dcd
Info: DCD FREQUENCY          1000
Info: DCD FIRST STEP         1000
Info: DCD FILE WILL CONTAIN UNIT CELL DATA
Info: NO EXTENDED SYSTEM TRAJECTORY OUTPUT
Info: NO VELOCITY DCD OUTPUT
Info: NO FORCE DCD OUTPUT
Info: OUTPUT FILENAME        output
Info: BINARY OUTPUT FILES WILL BE USED
Info: NO RESTART FILE
Info: SWITCHING ACTIVE
Info: SWITCHING ON           10
Info: SWITCHING OFF          12
Info: PAIRLIST DISTANCE      14
Info: PAIRLIST SHRINK RATE   0.01
Info: PAIRLIST GROW RATE     0.01
Info: PAIRLIST TRIGGER       0.3
Info: PAIRLISTS PER CYCLE    2
Info: PAIRLISTS ENABLED
Info: MARGIN                 0
Info: HYDROGEN GROUP CUTOFF  2.5
Info: PATCH DIMENSION        16.5
Info: ENERGY OUTPUT STEPS    1000
Info: ENERGY EVALUATION STEPS    1000
Info: OUTPUT ENERGY PRECISION 4
Info: CROSSTERM ENERGY INCLUDED IN DIHEDRAL
Info: TIMING OUTPUT STEPS    1000
Info: LANGEVIN DYNAMICS ACTIVE
Info: LANGEVIN TEMPERATURE   298
Info: LANGEVIN USING BBK INTEGRATOR
Info: LANGEVIN DAMPING COEFFICIENT IS 0.25 INVERSE PS
Info: LANGEVIN DYNAMICS NOT APPLIED TO HYDROGENS
Info: MULTILEVEL SUMMATION METHOD (MSM) FOR ELECTROSTATICS ACTIVE
Info: MSM WITH C1 CUBIC INTERPOLATION AND C2 TAYLOR SPLITTING
Info: FULL ELECTROSTATIC EVALUATION FREQUENCY      1
Info: USING VERLET I (r-RESPA) MTS SCHEME.
Info: C1 SPLITTING OF LONG RANGE ELECTROSTATICS
Info: PLACING ATOMS IN PATCHES BY HYDROGEN GROUPS
Info: RIGID BONDS TO HYDROGEN : ALL
Info:         ERROR TOLERANCE : 1e-08
Info:          MAX ITERATIONS : 100
Info: RIGID WATER USING SETTLE ALGORITHM
Info: RANDOM NUMBER SEED     1740235268
Info: USE HYDROGEN BONDS?    NO
Info: COORDINATE PDB         ionized.pdb
Info: STRUCTURE FILE         ionized.psf
Info: PARAMETER file: CHARMM format!
Info: PARAMETERS             par_all27_prot_lipid.inp
Info: USING ARITHMETIC MEAN TO COMBINE L-J SIGMA PARAMETERS
Info: SUMMARY OF PARAMETERS:
Info: 180 BONDS
Info: 447 ANGLES
Info: 566 DIHEDRAL
Info: 46 IMPROPER
Info: 6 CROSSTERM
Info: 119 VDW
Info: 0 VDW_PAIRS
Info: 0 NBTHOLE_PAIRS
Info: STRUCTURE SUMMARY:
Info: 2476 ATOMS
Info: 1650 BONDS
Info: 825 ANGLES
Info: 0 DIHEDRALS
Info: 0 IMPROPERS
Info: 0 CROSSTERMS
Info: 0 EXCLUSIONS
Info: 2475 RIGID BONDS
Info: 4953 DEGREES OF FREEDOM
Info: 826 HYDROGEN GROUPS
Info: 3 ATOMS IN LARGEST HYDROGEN GROUP
Info: 826 MIGRATION GROUPS
Info: 3 ATOMS IN LARGEST MIGRATION GROUP
Info: TOTAL MASS = 14885.7 amu
Info: TOTAL CHARGE = 1 e
Info: MASS DENSITY = 0.915513 g/cm^3
Info: ATOM DENSITY = 0.0917037 atoms/A^3
Info: ADDED 2475 IMPLICIT EXCLUSIONS
Info: NONBONDED TABLE R-SQUARED SPACING: 0.0625
Info: NONBONDED TABLE SIZE: 769 POINTS
Info: REMOVING COM VELOCITY 0.00719594 -0.194106 0.0531713
Info: MSM using C1 cubic interpolation
Info: MSM using C2 Taylor splitting function
Info: MSM block size decomposition along X is 8 grid points
Info: MSM block size decomposition along Y is 8 grid points
Info: MSM block size decomposition along Z is 8 grid points
Info: MSM grid spacing along X is 2.5 A
Info: MSM grid spacing along Y is 2.5 A
Info: MSM grid spacing along Z is 2.5 A
Info: MSM using 3 levels
Info:     level 0:  [0..11] x [0..11] x [0..11]
Info:     level 1:  [0..5] x [0..5] x [0..5]
Info:     level 2:  [0..2] x [0..2] x [0..2]
Info: MSM finished calculating stencils
Info: MSM finished creating map for grid levels
Info: MSM finished creating map for patches
Info: MSM has 9 interpolation / anterpolation objects (one per patch)
Info: MSM grid level 0 decomposed into 8 blocks ( 2 x 2 x 2 )
Info: MSM grid level 1 decomposed into 1 block ( 1 x 1 x 1 )
Info: MSM grid level 2 decomposed into 1 block ( 1 x 1 x 1 )
Info: MSM grid cutoff calculation decomposed into 783 work objects
TCL: Minimizing for 100 steps
ETITLE: TS BOND ANGLE DIHED IMPRP ELECT VDW BOUNDARY MISC KINETIC TOTAL TEMP POTENTIAL TOTAL3 TEMPAVG PRESSURE GPRESSURE VOLUME PRESSAVG GPRESSAVG
ENERGY: 0 0.0000 0.0000 0.0000 0.0000 -7348.6497 6353.7252 0.0000 0.0000 0.0000 -994.9245 0.0000 -994.9245 -994.9245 0.0000 75204.0846 46356.0499 27000.0000 75204.0846 46356.0499
ENERGY: 20 0.0000 0.0000 0.0000 0.0000 -8744.5980 644.7588 0.0000 0.0000 0.0000 -8099.8393 0.0000 -8099.8393 -8099.8393 0.0000 14286.6718 -2608.4256 27000.0000 14286.6718 -2608.4256
ENERGY: 40 0.0000 0.0000 0.0000 0.0000 -9255.3680 673.7888 0.0000 0.0000 0.0000 -8581.5793 0.0000 -8581.5793 -8581.5793 0.0000 14306.7126 -3612.4727 27000.0000 14306.7126 -3612.4727
ENERGY: 60 0.0000 0.0000 0.0000 0.0000 -9570.7013 738.1057 0.0000 0.0000 0.0000 -8832.5956 0.0000 -8832.5956 -8832.5956 0.0000 14889.9964 -3661.0805 27000.0000 14889.9964 -3661.0805
ENERGY: 80 0.0000 0.0000 0.0000 0.0000 -9709.9388 782.3819 0.0000 0.0000 0.0000 -8927.5569 0.0000 -8927.5569 -8927.5569 0.0000 15330.8789 -3519.5753 27000.0000 15330.8789 -3519.5753
ENERGY: 100 0.0000 0.0000 0.0000 0.0000 -9870.9106 823.6360 0.0000 0.0000 0.0000 -9047.2746 0.0000 -9047.2746 -9047.2746 0.0000 15747.2962 15670.9720 27000.0000 15747.2962 15670.9720
TCL: Running for 200000 steps
ETITLE: TS BOND ANGLE DIHED IMPRP ELECT VDW BOUNDARY MISC KINETIC TOTAL TEMP POTENTIAL TOTAL3 TEMPAVG PRESSURE GPRESSURE VOLUME PRESSAVG GPRESSAVG
ENERGY: 1000 0.0000 0.0000 0.0000 0.0000 -9598.7840 971.6945 0.0000 0.0000 1092.5562 -7534.5333 222.0066 -8627.0896 -7533.8429 208.0815 -2256.3498 -2250.9468 27000.0000 -1970.8687 -1970.8727
ENERGY: 41000 0.0000 0.0000 0.0000 0.0000 -8806.8059 846.7024 0.0000 0.0000 1489.9604 -6470.1431 302.7588 -7960.1035 -6469.5216 300.5499 -1209.6868 -1206.1911 27000.0000 -1288.1471 -1288.3165
ENERGY: 81000 0.0000 0.0000 0.0000 0.0000 -8691.6990 811.2812 0.0000 0.0000 1478.4387 -6401.9790 300.4176 -7880.4177 -6401.2785 303.6970 -1105.1289 -1106.7779 27000.0000 -1119.2535 -1119.3072
ENERGY: 120000 0.0000 0.0000 0.0000 0.0000 -8823.3161 880.4482 0.0000 0.0000 1428.8006 -6514.0673 290.3312 -7942.8678 -6513.4063 296.7081 -775.4095 -765.2781 27000.0000 -1124.5964 -1124.4453
ENERGY: 160000 0.0000 0.0000 0.0000 0.0000 -8762.5842 785.1270 0.0000 0.0000 1474.2777 -6503.1795 299.5721 -7977.4573 -6502.5752 298.0520 -1700.9200 -1710.6832 27000.0000 -1163.9115 -1163.8452
ENERGY: 200000 0.0000 0.0000 0.0000 0.0000 -8708.4287 786.1008 0.0000 0.0000 1460.4304 -6461.8974 296.7583 -7922.3279 -6461.0412 301.4124 -1569.0973 -1570.2854 27000.0000 -1197.0925 -1197.0613
