Info: SIMULATION PARAMETERS:
Info: TIMESTEP               2
Info: NUMBER OF STEPS        0
Info: STEPS PER CYCLE        10
Info: PERIODIC CELL BASIS 1  31.8248 0 0
Info: PERIODIC CELL BASIS 2  0 31.3844 0
Info: PERIODIC CELL BASIS 3  0 0 30.6608
Info: PERIODIC CELL CENTER   0 0 0
Info: WRAPPING WATERS AROUND PERIODIC BOUNDARIES ON OUTPUT.
Info: WRAPPING ALL CLUSTERS AROUND PERIODIC BOUNDARIES ON OUTPUT.
Info: FIRST LDB TIMESTEP     50
Info: LAST LDB TIMESTEP     -1
Info: HOM BACKGROUND SCALING 1
Info: PME BACKGROUND SCALING 1
Info: MIN ATOMS PER PATCH    40
Info: EMPTY PATCH LOAD       40 ATOMS
Info: VELOCITY FILE          mobley_7261305_equil.vel
Info: CENTER OF MASS MOVING INITIALLY? NO
Info: DIELECTRIC             1
Info: EXCLUDE                SCALED ONE-FOUR
Info: 1-4 ELECTROSTATICS SCALED BY 0.833333
Info: MODIFIED 1-4 VDW PARAMETERS WILL BE USED
Info: DCD FILENAME           mobley_7261305_prod.dcd
Info: DCD FREQUENCY          100000
Info: DCD FIRST STEP         100000
Info: DCD FILE WILL CONTAIN UNIT CELL DATA
Info: XST FILENAME           mobley_7261305_prod.xst
Info: XST FREQUENCY          100000
Info: NO VELOCITY DCD OUTPUT
Info: NO FORCE DCD OUTPUT
Info: OUTPUT FILENAME        mobley_7261305_prod
Info: BINARY OUTPUT FILES WILL BE USED
Info: RESTART FILENAME       mobley_7261305_prod.restart
Info: RESTART FREQUENCY      100000
Info: BINARY RESTART FILES WILL BE USED
Info: CUTOFF                 9
Info: PAIRLIST DISTANCE      11
Info: PAIRLIST SHRINK RATE   0.01
Info: PAIRLIST GROW RATE     0.01
Info: PAIRLIST TRIGGER       0.3
Info: PAIRLISTS PER CYCLE    2
Info: PAIRLISTS ENABLED
Info: MARGIN                 2
Info: HYDROGEN GROUP CUTOFF  2.5
Info: PATCH DIMENSION        15.5
Info: ENERGY OUTPUT STEPS    100000
Info: ENERGY EVALUATION STEPS    100000
Info: OUTPUT ENERGY PRECISION 4
Info: CROSSTERM ENERGY INCLUDED IN DIHEDRAL
Info: TIMING OUTPUT STEPS    1000000
Info: PRESSURE OUTPUT STEPS  100000
Info: ALCHEMICAL FEP ON
Info: FEP CURRENT LAMBDA VALUE     1
Info: FEP COMPARISON LAMBDA VALUE  0.95
Info: FEP INTRA-ALCHEMICAL NON-BONDED INTERACTIONS WILL BE RETAINED
Info: FEP INTRA-ALCHEMICAL BONDED INTERACTIONS WILL BE RETAINED
Info: FEP VDW SHIFTING COEFFICIENT 5
Info: FEP ELEC. ACTIVE FOR ANNIHILATED PARTICLES BETWEEN LAMBDA = 0 AND LAMBDA = 0.5
Info: FEP ELEC. ACTIVE FOR EXNIHILATED PARTICLES BETWEEN LAMBDA = 0.5 AND LAMBDA = 1
Info: FEP VDW ACTIVE FOR ANNIHILATED PARTICLES BETWEEN LAMBDA = 0 AND LAMBDA = 1
Info: FEP VDW ACTIVE FOR EXNIHILATED PARTICLES BETWEEN LAMBDA = 0 AND LAMBDA = 1
Info: FEP BOND ACTIVE FOR ANNIHILATED PARTICLES BETWEEN LAMBDA = 1 AND LAMBDA = 1
Info: FEP BOND ACTIVE FOR EXNIHILATED PARTICLES BETWEEN LAMBDA = 0 AND LAMBDA = 0
Info: LANGEVIN DYNAMICS ACTIVE
Info: LANGEVIN TEMPERATURE   300
Info: LANGEVIN USING BBK INTEGRATOR
Info: LANGEVIN DAMPING COEFFICIENT IS 1 INVERSE PS
Info: LANGEVIN DYNAMICS APPLIED TO HYDROGENS
Info: LANGEVIN PISTON PRESSURE CONTROL ACTIVE
Info:        TARGET PRESSURE IS 1.01325 BAR
Info:     OSCILLATION PERIOD IS 50 FS
Info:             DECAY TIME IS 25 FS
Info:     PISTON TEMPERATURE IS 300 K
Info:       PRESSURE CONTROL IS GROUP-BASED
Info:    INITIAL STRAIN RATE IS -0.000389986 -0.000389986 -0.000389986
Info:       CELL FLUCTUATION IS ISOTROPIC
Info: PARTICLE MESH EWALD (PME) ACTIVE
Info: PME TOLERANCE               1e-06
Info: PME EWALD COEFFICIENT       0.348832
Info: PME INTERPOLATION ORDER     4
Info: PME GRID DIMENSIONS         32 32 32
Info: PME MAXIMUM GRID SPACING    1
Info: PME CALCULATION WILL BE PERFORMED ON GPU
Info: FULL ELECTROSTATIC EVALUATION FREQUENCY      2
Info: USING VERLET I (r-RESPA) MTS SCHEME.
Info: C1 SPLITTING OF LONG RANGE ELECTROSTATICS
Info: PLACING ATOMS IN PATCHES BY HYDROGEN GROUPS
Info: RIGID BONDS TO HYDROGEN : ALL
Info:         ERROR TOLERANCE : 1e-08
Info:          MAX ITERATIONS : 100
Info: RIGID WATER USING SETTLE ALGORITHM
Info: RANDOM NUMBER SEED     1742495542
Info: USE HYDROGEN BONDS?    NO
Info: Using AMBER format force field!
Info: AMBER PARM FILE        mobley_7261305.prmtop
Info: COORDINATE PDB         mobley_7261305.pdb
Info: Exclusions will be read from PARM file!
Info: SCNB (VDW SCALING)     2
Info: USING ARITHMETIC MEAN TO COMBINE L-J SIGMA PARAMETERS
Info: BINARY COORDINATES     mobley_7261305_equil.coor
Info: SUMMARY OF PARAMETERS:
Info: 4 BONDS
Info: 2 ANGLES
Info:   2 HARMONIC
Info:   0 COSINE-BASED
Info: 1 DIHEDRAL
Info: 0 IMPROPER
Info: 0 CROSSTERM
Info: 0 VDW
Info: 10 VDW_PAIRS
Info: 0 NBTHOLE_PAIRS
Info: To read alchdata from file: mobley_7261305.pdb
Info: To read alchflag data from column: 5
Info: STRUCTURE SUMMARY:
Info: 3000 ATOMS
Info: 2999 BONDS
Info: 6 ANGLES
Info: 4 DIHEDRALS
Info: 0 IMPROPERS
Info: 0 CROSSTERMS
Info: 3009 EXCLUSIONS
Info: 2998 RIGID BONDS
Info: ALCH: 0 ATOMS TO DISAPPEAR IN FINAL STATE
Info: ALCH: 6 ATOMS TO APPEAR IN FINAL STATE
Info: 6002 DEGREES OF FREEDOM
Info: 1000 HYDROGEN GROUPS
Info: 3 ATOMS IN LARGEST HYDROGEN GROUP
Info: 1000 MIGRATION GROUPS
Info: 3 ATOMS IN LARGEST MIGRATION GROUP
Info: TOTAL MASS = 18012 amu
Info: TOTAL CHARGE = -0.000200033 e
Info: MASS DENSITY = 0.976694 g/cm^3
Info: ATOM DENSITY = 0.0979621 atoms/A^3
Info: ADDED 0 IMPLICIT EXCLUSIONS
Info: NONBONDED TABLE R-SQUARED SPACING: 0.0625
Info: NONBONDED TABLE SIZE: 705 POINTS
Info: REDUCING NUMBER OF PATCHES TO IMPROVE LOAD BALANCE
Info: REMOVING COM VELOCITY 0.0775989 0.0482907 -0.142971
Info: Use 3D box decompostion in PME FFT.
Info: Updated CUDA force table with 4096 elements.
Info: Updated CUDA LJ table with 4 x 4 elements.
Info: Found 9 unique exclusion lists needing 12 bytes
TCL: Running for 1500000 steps
ETITLE: TS BOND ANGLE DIHED IMPRP ELECT VDW BOUNDARY MISC KINETIC TOTAL TEMP POTENTIAL TOTALAVG TEMPAVG PRESSURE GPRESSURE VOLUME PRESSAVG GPRESSAVG
ENERGY: 0 0.2575 4.4862 7.6587 0.0000 -11073.6655 1551.7419 0.0000 0.0000 1758.5639 -7750.9573 294.8849 -9509.5213 -7750.9573 294.8849 364.8448 440.3742 30624.0958 364.8448 440.3742
ENERGY: 300000 1.9870 5.1696 6.4060 0.0000 -10681.9176 1372.3001 0.0000 0.0000 1791.0028 -7505.0521 300.3244 -9296.0548 -7578.4678 301.1066 -661.7322 -598.9368 31277.7889 -36.9006 20.1646
ENERGY: 600000 1.3072 2.2245 8.1412 0.0000 -10677.6103 1308.1109 0.0000 0.0000 1739.9359 -7617.8905 291.7613 -9357.8264 -7597.0447 300.8144 -1268.7807 -1215.3265 31076.1508 -278.9070 -227.9442
ENERGY: 900000 1.3074 0.3998 9.4337 0.0000 -10780.0222 1419.2500 0.0000 0.0000 1767.9121 -7581.7190 296.4525 -9349.6312 -7590.9994 299.9684 -448.8467 -364.4119 31039.0826 -259.2999 -196.9512
ENERGY: 1200000 0.7464 2.9097 6.7620 0.0000 -10947.3136 1514.6994 0.0000 0.0000 1876.9738 -7545.2223 314.7405 -9422.1961 -7577.8358 302.5149 395.1373 505.4439 30456.9445 -192.4080 -119.2323
ENERGY: 1500000 0.0460 7.5575 5.3050 0.0000 -11043.5637 1548.0430 0.0000 0.0000 1779.9135 -7702.6987 298.4649 -9482.6122 -7583.1982 302.4163 354.8282 455.1586 30598.7114 -125.6561 -48.9055
TCL: Running FEP window   2: Lambda1 0.95   Lambda2 0.8999999999999999 [dLambda -0.050000000000000044]
TCL: Setting parameter firsttimestep to 0
TCL: Setting parameter alchLambda to 0.95
Info: NONBONDED TABLE R-SQUARED SPACING: 0.0625
Info: NONBONDED TABLE SIZE: 705 POINTS
TCL: Setting parameter alchLambda2 to 0.8999999999999999
Info: NONBONDED TABLE R-SQUARED SPACING: 0.0625
Info: NONBONDED TABLE SIZE: 705 POINTS
TCL: Running for 1500000 steps
ETITLE: TS BOND ANGLE DIHED IMPRP ELECT VDW BOUNDARY MISC KINETIC TOTAL TEMP POTENTIAL TOTALAVG TEMPAVG PRESSURE GPRESSURE VOLUME PRESSAVG GPRESSAVG
ENERGY: 0 0.0460 7.5575 5.3050 0.0000 -11042.2940 1548.0912 0.0000 0.0000 1779.0254 -7702.2689 298.3160 -9481.2944 -7702.2689 298.3160 364.7321 456.0803 30598.7114 364.7321 456.0803
ENERGY: 300000 0.1683 2.7318 6.7945 0.0000 -10770.6637 1473.7735 0.0000 0.0000 1802.5712 -7484.6244 302.2643 -9287.1956 -7573.4917 300.4793 191.6176 287.0018 30900.2318 283.6459 372.0200
ENERGY: 600000 0.0716 4.1806 6.3311 0.0000 -10723.4535 1382.5002 0.0000 0.0000 1780.8540 -7549.5160 298.6226 -9330.3700 -7585.9205 300.1357 -546.1656 -474.8977 31030.6182 83.0185 171.6681
ENERGY: 900000 0.2818 4.1920 7.9122 0.0000 -10870.1004 1472.8576 0.0000 0.0000 1765.3887 -7619.4681 296.0293 -9384.8568 -7601.2810 299.7179 -5.5038 103.8397 30891.8730 -46.6997 36.5295
ENERGY: 1200000 0.4791 2.2345 9.1633 0.0000 -10697.2824 1359.3319 0.0000 0.0000 1809.9141 -7516.1596 303.4956 -9326.0737 -7587.9479 300.7635 -630.4169 -585.4039 30775.4802 -86.7574 -7.8374
ENERGY: 1500000 0.6195 2.1328 7.3016 0.0000 -10903.5527 1466.3911 0.0000 0.0000 1732.3268 -7694.7808 290.4853 -9427.1076 -7597.6547 299.6637 155.2578 200.4080 30282.4688 25.5344 102.1337
TCL: Running FEP window   3: Lambda1 0.8999999999999999 Lambda2 0.8499999999999999 [dLambda -0.050000000000000044]
TCL: Setting parameter firsttimestep to 0
TCL: Setting parameter alchLambda to 0.8999999999999999
Info: NONBONDED TABLE R-SQUARED SPACING: 0.0625
Info: NONBONDED TABLE SIZE: 705 POINTS
TCL: Setting parameter alchLambda2 to 0.8499999999999999
Info: NONBONDED TABLE R-SQUARED SPACING: 0.0625
Info: NONBONDED TABLE SIZE: 705 POINTS
TCL: Running for 1500000 steps
ETITLE: TS BOND ANGLE DIHED IMPRP ELECT VDW BOUNDARY MISC KINETIC TOTAL TEMP POTENTIAL TOTALAVG TEMPAVG PRESSURE GPRESSURE VOLUME PRESSAVG GPRESSAVG
ENERGY: 0 0.6195 2.1328 7.3016 0.0000 -10900.8257 1464.9454 0.0000 0.0000 1731.4582 -7694.3681 290.3397 -9425.8263 -7694.3681 290.3397 107.2806 184.3532 30282.4688 107.2806 184.3532
ENERGY: 300000 2.3703 7.6518 7.0420 0.0000 -10972.9301 1537.2965 0.0000 0.0000 1812.3950 -7606.1746 303.9116 -9418.5696 -7602.1487 299.4379 443.7026 526.7551 30623.9176 135.0325 192.1606
ENERGY: 600000 0.0022 1.4342 7.5750 0.0000 -10962.1457 1489.6161 0.0000 0.0000 1767.5627 -7695.9554 296.3939 -9463.5181 -7596.7322 300.6241 -146.3600 -83.2157 31128.0377 56.9834 110.3135
ENERGY: 900000 0.3089 3.8592 7.5136 0.0000 -10851.7373 1490.3664 0.0000 0.0000 1789.3890 -7560.3002 300.0538 -9349.6892 -7595.4248 299.3276 425.9371 488.4591 30381.0976 39.2458 93.5403
ENERGY: 1200000 1.7952 2.1184 8.9944 0.0000 -11010.4253 1518.1804 0.0000 0.0000 1824.7793 -7654.5577 305.9882 -9479.3370 -7594.9218 300.3643 271.6679 285.4877 30562.5719 123.1573 173.9485
ENERGY: 1500000 0.0029 3.2857 6.5728 0.0000 -10888.8824 1447.3140 0.0000 0.0000 1798.0902 -7633.6170 301.5129 -9431.7071 -7595.5151 300.5158 -161.0389 -122.5750 30543.3755 102.4332 145.8054
TCL: Running FEP window   4: Lambda1 0.8499999999999999 Lambda2 0.7999999999999998 [dLambda -0.050000000000000044]
TCL: Setting parameter firsttimestep to 0
TCL: Setting parameter alchLambda to 0.8499999999999999
Info: NONBONDED TABLE R-SQUARED SPACING: 0.0625
Info: NONBONDED TABLE SIZE: 705 POINTS
TCL: Setting parameter alchLambda2 to 0.7999999999999998
Info: NONBONDED TABLE R-SQUARED SPACING: 0.0625
Info: NONBONDED TABLE SIZE: 705 POINTS
TCL: Running for 1500000 steps
ETITLE: TS BOND ANGLE DIHED IMPRP ELECT VDW BOUNDARY MISC KINETIC TOTAL TEMP POTENTIAL TOTALAVG TEMPAVG PRESSURE GPRESSURE VOLUME PRESSAVG GPRESSAVG
ENERGY: 0 0.0029 3.2857 6.5728 0.0000 -10886.9380 1445.8700 0.0000 0.0000 1797.1797 -7634.0270 301.3602 -9431.2067 -7634.0270 301.3602 -223.7314 -136.4280 30543.3755 -223.7314 -136.4280
ENERGY: 300000 0.2349 2.5689 6.8733 0.0000 -10938.7343 1514.1611 0.0000 0.0000 1830.0974 -7584.7987 306.8800 -9414.8961 -7602.1165 301.6650 307.7347 433.5374 30462.3974 -90.1744 8.7841
ENERGY: 600000 0.0203 3.7090 7.2713 0.0000 -10967.1946 1547.1185 0.0000 0.0000 1753.0917 -7655.9838 293.9673 -9409.0755 -7602.2195 300.9766 536.1570 619.8429 30611.1773 -47.6997 38.2139
ENERGY: 900000 0.0722 1.8966 7.4823 0.0000 -10866.4493 1446.5670 0.0000 0.0000 1802.9495 -7607.4817 302.3277 -9410.4312 -7594.0180 301.8748 -164.7825 -100.0543 30603.7285 -131.3432 -44.1108
ENERGY: 1200000 0.0136 2.2272 6.9731 0.0000 -10844.2408 1479.2686 0.0000 0.0000 1889.7695 -7465.9888 316.8861 -9355.7583 -7579.4203 302.9952 28.7836 116.9636 30985.0865 -8.4789 83.7575
ENERGY: 1500000 0.1205 7.8395 3.9475 0.0000 -10894.7446 1544.1415 0.0000 0.0000 1751.1531 -7587.5425 293.6422 -9338.6956 -7576.3072 302.4295 686.9135 825.1501 30851.0717 -29.7206 63.7259
TCL: Running FEP window   5: Lambda1 0.7999999999999998 Lambda2 0.7499999999999998 [dLambda -0.050000000000000044]
TCL: Setting parameter firsttimestep to 0
TCL: Setting parameter alchLambda to 0.7999999999999998
Info: NONBONDED TABLE R-SQUARED SPACING: 0.0625
Info: NONBONDED TABLE SIZE: 705 POINTS
TCL: Setting parameter alchLambda2 to 0.7499999999999998
Info: NONBONDED TABLE R-SQUARED SPACING: 0.0625
Info: NONBONDED TABLE SIZE: 705 POINTS
TCL: Running for 1500000 steps
ETITLE: TS BOND ANGLE DIHED IMPRP ELECT VDW BOUNDARY MISC KINETIC TOTAL TEMP POTENTIAL TOTALAVG TEMPAVG PRESSURE GPRESSURE VOLUME PRESSAVG GPRESSAVG
ENERGY: 0 0.1205 7.8395 3.9475 0.0000 -10892.3219 1543.0255 0.0000 0.0000 1750.2659 -7587.1230 293.4935 -9337.3889 -7587.1230 293.4935 716.4199 815.6647 30851.0717 716.4199 815.6647
ENERGY: 300000 0.0543 2.4853 8.1666 0.0000 -10618.9607 1289.5853 0.0000 0.0000 1844.5649 -7474.1044 309.3060 -9318.6693 -7564.1041 303.1079 -1165.8615 -1092.4688 31013.7849 -216.7105 -139.6022
ENERGY: 600000 0.7028 3.8512 8.1436 0.0000 -10767.0802 1415.9500 0.0000 0.0000 1716.0849 -7622.3476 287.7618 -9338.4325 -7568.2576 301.4056 -460.4431 -399.5387 31082.0002 18.8396 89.2125
ENERGY: 900000 0.3399 2.5314 6.1868 0.0000 -10715.1167 1373.2063 0.0000 0.0000 1767.0391 -7565.8131 296.3061 -9332.8522 -7577.3106 300.8501 -398.2478 -353.4000 30501.8965 -83.2142 -16.1707
ENERGY: 1200000 0.6447 2.5596 6.2663 0.0000 -10939.1559 1479.5947 0.0000 0.0000 1855.0623 -7595.0282 311.0663 -9450.0905 -7577.9256 302.3117 -259.2951 -219.8509 31147.0080 -41.2935 31.5231
ENERGY: 1500000 0.4571 3.0197 8.0603 0.0000 -10827.2982 1429.5176 0.0000 0.0000 1831.1397 -7555.1038 307.0548 -9386.2435 -7572.3567 302.9745 -158.5746 -157.6686 30794.4863 -32.4053 35.0670
TCL: Running FEP window   6: Lambda1 0.7499999999999998 Lambda2 0.6999999999999997 [dLambda -0.050000000000000044]
TCL: Setting parameter firsttimestep to 0
TCL: Setting parameter alchLambda to 0.7499999999999998
Info: NONBONDED TABLE R-SQUARED SPACING: 0.0625
Info: NONBONDED TABLE SIZE: 705 POINTS
TCL: Setting parameter alchLambda2 to 0.6999999999999997
Info: NONBONDED TABLE R-SQUARED SPACING: 0.0625
Info: NONBONDED TABLE SIZE: 705 POINTS
TCL: Running for 1500000 steps
ETITLE: TS BOND ANGLE DIHED IMPRP ELECT VDW BOUNDARY MISC KINETIC TOTAL TEMP POTENTIAL TOTALAVG TEMPAVG PRESSURE GPRESSURE VOLUME PRESSAVG GPRESSAVG
ENERGY: 0 0.4571 3.0197 8.0603 0.0000 -10825.6935 1429.3661 0.0000 0.0000 1830.2524 -7554.5380 306.9060 -9384.7904 -7554.5380 306.9060 -225.8821 -156.8139 30794.4863 -225.8821 -156.8139
ENERGY: 300000 0.1502 2.6694 7.3983 0.0000 -10814.2145 1482.1645 0.0000 0.0000 1758.7071 -7563.1249 294.9089 -9321.8320 -7577.6776 299.2734 84.3843 204.0257 30999.0816 -83.0793 3.1453
ENERGY: 600000 0.0303 2.5323 7.2028 0.0000 -10795.3452 1462.1520 0.0000 0.0000 1835.6731 -7487.7547 307.8150 -9323.4279 -7562.2007 302.6890 -138.0033 -60.2770 31786.0863 -145.8572 -67.1488
ENERGY: 900000 0.7502 5.6246 4.9028 0.0000 -10891.7643 1523.4973 0.0000 0.0000 1794.7998 -7562.1895 300.9611 -9356.9893 -7564.0861 302.1334 195.9394 367.5557 30919.9761 -97.3039 -12.3331
ENERGY: 1200000 0.0002 6.2059 6.3160 0.0000 -10863.9405 1468.3383 0.0000 0.0000 1771.8104 -7611.2697 297.1062 -9383.0801 -7563.0622 301.6097 -238.1134 -241.6567 31344.9046 -66.7861 4.7138
ENERGY: 1500000 0.5979 4.5217 5.7579 0.0000 -10885.3387 1420.5212 0.0000 0.0000 1807.2132 -7646.7269 303.0427 -9453.9401 -7575.7047 301.6900 -552.1661 -495.0311 30834.8849 -97.6423 -28.1303
TCL: Running FEP window   7: Lambda1 0.6999999999999997 Lambda2 0.6499999999999997 [dLambda -0.050000000000000044]
TCL: Setting parameter firsttimestep to 0
TCL: Setting parameter alchLambda to 0.6999999999999997
Info: NONBONDED TABLE R-SQUARED SPACING: 0.0625
Info: NONBONDED TABLE SIZE: 705 POINTS
TCL: Setting parameter alchLambda2 to 0.6499999999999997
Info: NONBONDED TABLE R-SQUARED SPACING: 0.0625
Info: NONBONDED TABLE SIZE: 705 POINTS
TCL: Running for 1500000 steps
ETITLE: TS BOND ANGLE DIHED IMPRP ELECT VDW BOUNDARY MISC KINETIC TOTAL TEMP POTENTIAL TOTALAVG TEMPAVG PRESSURE GPRESSURE VOLUME PRESSAVG GPRESSAVG
ENERGY: 0 0.5979 4.5217 5.7579 0.0000 -10884.8513 1420.4907 0.0000 0.0000 1806.3070 -7647.1761 302.8907 -9453.4832 -7647.1761 302.8907 -580.2166 -496.1507 30834.8849 -580.2166 -496.1507
ENERGY: 300000 0.9088 4.3489 5.3022 0.0000 -10847.7541 1499.5143 0.0000 0.0000 1796.3535 -7541.3263 301.2217 -9337.6798 -7589.7989 302.4790 160.5625 242.2069 31101.7566 -228.1377 -172.1899
ENERGY: 600000 0.4980 2.9836 8.1717 0.0000 -10970.1455 1560.0614 0.0000 0.0000 1772.6750 -7625.7558 297.2511 -9398.4308 -7591.6746 301.8996 401.7142 507.9338 31004.4749 -48.2943 7.6936
ENERGY: 900000 2.6491 1.9280 6.5820 0.0000 -10890.6695 1481.3798 0.0000 0.0000 1766.4408 -7631.6898 296.2058 -9398.1306 -7613.3941 299.9085 130.5456 153.3070 30627.3938 84.0695 140.1083
ENERGY: 1200000 0.2314 10.8294 2.9218 0.0000 -10855.6767 1439.4552 0.0000 0.0000 1828.3948 -7573.8442 306.5945 -9402.2390 -7613.4516 300.2422 -331.6348 -325.8041 30910.1196 86.2865 140.8715
ENERGY: 1500000 0.3221 6.0028 5.9400 0.0000 -10914.5639 1466.7432 0.0000 0.0000 1781.4276 -7654.1283 298.7188 -9435.5558 -7614.9267 299.9910 -302.6682 -183.6407 31011.4873 65.3209 119.9928
TCL: Running FEP window   8: Lambda1 0.6499999999999997 Lambda2 0.5999999999999996 [dLambda -0.050000000000000044]
TCL: Setting parameter firsttimestep to 0
TCL: Setting parameter alchLambda to 0.6499999999999997
Info: NONBONDED TABLE R-SQUARED SPACING: 0.0625
Info: NONBONDED TABLE SIZE: 705 POINTS
TCL: Setting parameter alchLambda2 to 0.5999999999999996
Info: NONBONDED TABLE R-SQUARED SPACING: 0.0625
Info: NONBONDED TABLE SIZE: 705 POINTS
TCL: Running for 1500000 steps
ETITLE: TS BOND ANGLE DIHED IMPRP ELECT VDW BOUNDARY MISC KINETIC TOTAL TEMP POTENTIAL TOTALAVG TEMPAVG PRESSURE GPRESSURE VOLUME PRESSAVG GPRESSAVG
ENERGY: 0 0.3221 6.0028 5.9400 0.0000 -10913.4824 1466.3680 0.0000 0.0000 1780.5402 -7654.3093 298.5700 -9434.8495 -7654.3093 298.5700 -282.1710 -189.7012 31011.4873 -282.1710 -189.7012
ENERGY: 300000 1.3533 4.4136 9.5545 0.0000 -11052.1989 1551.2866 0.0000 0.0000 1837.1285 -7648.4624 308.0590 -9485.5910 -7609.1032 301.7886 459.8843 536.8608 30561.7653 -183.1777 -111.9881
ENERGY: 600000 0.0724 1.3834 7.4379 0.0000 -10886.8690 1442.7268 0.0000 0.0000 1760.7399 -7674.5087 295.2498 -9435.2485 -7615.8803 300.4695 -598.7144 -501.9687 31105.8492 -215.7633 -151.5092
ENERGY: 900000 1.6724 5.4343 5.7338 0.0000 -10917.5841 1508.4817 0.0000 0.0000 1819.4011 -7576.8608 305.0864 -9396.2619 -7601.6374 301.5356 10.3826 -19.7115 31185.9389 -263.5163 -212.5736
ENERGY: 1200000 0.5155 3.8030 6.1691 0.0000 -10900.0219 1482.9471 0.0000 0.0000 1826.7235 -7579.8637 306.3143 -9406.5872 -7596.1598 302.0680 -60.1736 -62.6741 31228.5947 -211.7603 -164.6016
ENERGY: 1500000 0.0238 4.3696 4.9593 0.0000 -10962.7110 1507.4470 0.0000 0.0000 1766.8955 -7679.0159 296.2820 -9445.9115 -7593.6089 302.5549 -85.1779 -22.1971 30957.9642 -213.9920 -164.2762
TCL: Running FEP window   9: Lambda1 0.5999999999999996 Lambda2 0.5499999999999996 [dLambda -0.050000000000000044]
TCL: Setting parameter firsttimestep to 0
TCL: Setting parameter alchLambda to 0.5999999999999996
Info: NONBONDED TABLE R-SQUARED SPACING: 0.0625
Info: NONBONDED TABLE SIZE: 705 POINTS
TCL: Setting parameter alchLambda2 to 0.5499999999999996
Info: NONBONDED TABLE R-SQUARED SPACING: 0.0625
Info: NONBONDED TABLE SIZE: 705 POINTS
TCL: Running for 1500000 steps
ETITLE: TS BOND ANGLE DIHED IMPRP ELECT VDW BOUNDARY MISC KINETIC TOTAL TEMP POTENTIAL TOTALAVG TEMPAVG PRESSURE GPRESSURE VOLUME PRESSAVG GPRESSAVG
ENERGY: 0 0.0238 4.3696 4.9593 0.0000 -10962.3704 1507.5241 0.0000 0.0000 1766.0337 -7679.4599 296.1375 -9445.4937 -7679.4599 296.1375 -95.3405 -24.3983 30957.9642 -95.3405 -24.3983
ENERGY: 300000 0.8958 2.5781 6.1528 0.0000 -10780.3589 1500.9102 0.0000 0.0000 1811.3738 -7458.4482 303.7403 -9269.8220 -7621.5408 298.9649 411.2210 487.0250 31014.9624 13.6794 82.9189
ENERGY: 600000 0.2235 3.7899 5.7258 0.0000 -10894.0755 1479.6848 0.0000 0.0000 1741.9311 -7662.7204 292.0958 -9404.6515 -7632.1922 295.8531 -304.4069 -190.1952 31104.8764 -35.0572 41.9377
ENERGY: 900000 0.7406 2.4573 6.2885 0.0000 -10827.4314 1449.5817 0.0000 0.0000 1810.8643 -7557.4989 303.6549 -9368.3632 -7621.0260 295.8408 3.5565 45.8660 30645.8611 4.9710 68.7924
ENERGY: 1200000 0.0850 5.7883 6.8137 0.0000 -10679.8730 1412.5675 0.0000 0.0000 1792.1162 -7462.5023 300.5111 -9254.6186 -7607.8605 296.7338 -261.0021 -187.8876 31242.8258 -60.8132 2.0651
ENERGY: 1500000 0.0165 4.9535 6.1948 0.0000 -10854.6761 1487.6205 0.0000 0.0000 1817.8628 -7538.0280 304.8285 -9355.8909 -7601.3167 298.4429 167.9703 247.0209 30907.0429 27.3783 92.0212
TCL: Running FEP window  10: Lambda1 0.5499999999999996 Lambda2 0.4999999999999996 [dLambda -0.04999999999999999]
TCL: Setting parameter firsttimestep to 0
TCL: Setting parameter alchLambda to 0.5499999999999996
Info: NONBONDED TABLE R-SQUARED SPACING: 0.0625
Info: NONBONDED TABLE SIZE: 705 POINTS
TCL: Setting parameter alchLambda2 to 0.4999999999999996
Info: NONBONDED TABLE R-SQUARED SPACING: 0.0625
Info: NONBONDED TABLE SIZE: 705 POINTS
TCL: Running for 1500000 steps
ETITLE: TS BOND ANGLE DIHED IMPRP ELECT VDW BOUNDARY MISC KINETIC TOTAL TEMP POTENTIAL TOTALAVG TEMPAVG PRESSURE GPRESSURE VOLUME PRESSAVG GPRESSAVG
ENERGY: 0 0.0165 4.9535 6.1948 0.0000 -10854.5424 1487.6418 0.0000 0.0000 1817.0104 -7538.7254 304.6855 -9355.7358 -7538.7254 304.6855 164.4778 246.1408 30907.0429 164.4778 246.1408
ENERGY: 300000 1.8539 6.8700 4.4192 0.0000 -10865.1922 1431.8216 0.0000 0.0000 1836.7538 -7583.4738 307.9962 -9420.2276 -7581.3408 301.6977 -479.2716 -429.8699 31041.8634 -235.6157 -174.7436
ENERGY: 600000 0.0680 3.0136 7.9113 0.0000 -10703.6013 1389.4342 0.0000 0.0000 1802.2305 -7500.9437 302.2071 -9303.1742 -7560.1123 301.5947 -349.0779 -306.3385 30810.9083 -268.4825 -209.7425
ENERGY: 900000 0.0226 1.5465 7.3495 0.0000 -10910.8668 1512.1727 0.0000 0.0000 1807.4930 -7582.2825 303.0896 -9389.7755 -7567.4558 301.2444 479.5784 508.4426 30518.0191 -135.9518 -79.6908
ENERGY: 1200000 0.0318 1.0308 6.7153 0.0000 -10848.4041 1433.2424 0.0000 0.0000 1799.3428 -7608.0408 301.7229 -9407.3837 -7568.0232 300.9848 -307.7795 -232.8471 30782.3873 -143.2813 -89.3534
ENERGY: 1500000 0.7913 2.6060 7.3552 0.0000 -10723.2681 1431.0511 0.0000 0.0000 1754.9554 -7526.5090 294.2798 -9281.4644 -7567.1711 300.3459 -218.6488 -119.5518 30911.3635 -119.7886 -58.8158
TCL: Running FEP window  11: Lambda1 0.4999999999999996 Lambda2 0.4499999999999996 [dLambda -0.04999999999999999]
TCL: Setting parameter firsttimestep to 0
TCL: Setting parameter alchLambda to 0.4999999999999996
Info: NONBONDED TABLE R-SQUARED SPACING: 0.0625
Info: NONBONDED TABLE SIZE: 705 POINTS
TCL: Setting parameter alchLambda2 to 0.4499999999999996
Info: NONBONDED TABLE R-SQUARED SPACING: 0.0625
Info: NONBONDED TABLE SIZE: 705 POINTS
TCL: Running for 1500000 steps
ETITLE: TS BOND ANGLE DIHED IMPRP ELECT VDW BOUNDARY MISC KINETIC TOTAL TEMP POTENTIAL TOTALAVG TEMPAVG PRESSURE GPRESSURE VOLUME PRESSAVG GPRESSAVG
ENERGY: 0 0.7913 2.6060 7.3552 0.0000 -10723.3038 1430.9747 0.0000 0.0000 1754.0696 -7527.5069 294.1313 -9281.5766 -7527.5069 294.1313 -212.9017 -119.3999 30911.3635 -212.9017 -119.3999
ENERGY: 300000 0.5798 3.0113 6.5696 0.0000 -10901.3824 1542.7265 0.0000 0.0000 1846.5946 -7501.9007 309.6463 -9348.4952 -7521.2421 303.5028 684.6477 677.2930 30912.5789 -212.7283 -181.9148
ENERGY: 600000 0.3036 4.7105 5.7944 0.0000 -10910.8238 1440.4657 0.0000 0.0000 1796.4116 -7663.1381 301.2314 -9459.5497 -7560.2656 300.4625 -217.4615 -207.8448 30426.4868 -109.9104 -63.5726
ENERGY: 900000 0.0420 8.6872 5.7187 0.0000 -10923.6609 1479.0283 0.0000 0.0000 1774.4107 -7655.7740 297.5422 -9430.1847 -7562.6223 300.1876 -169.0718 -51.9584 30832.9445 -40.8724 13.8256
ENERGY: 1200000 3.7455 1.3259 7.4209 0.0000 -10926.7715 1509.2296 0.0000 0.0000 1852.9409 -7552.1088 310.7105 -9405.0497 -7564.5577 301.4772 235.0135 305.2209 30673.8343 13.0926 68.5679
ENERGY: 1500000 0.0273 3.7943 8.0074 0.0000 -10867.0651 1464.3524 0.0000 0.0000 1819.5498 -7571.3339 305.1113 -9390.8838 -7567.7594 300.8923 6.5818 100.6359 30628.2806 -4.1695 56.3175
TCL: Running FEP window  12: Lambda1 0.4499999999999996 Lambda2 0.39999999999999963 [dLambda -0.04999999999999999]
TCL: Setting parameter firsttimestep to 0
TCL: Setting parameter alchLambda to 0.4499999999999996
Info: NONBONDED TABLE R-SQUARED SPACING: 0.0625
Info: NONBONDED TABLE SIZE: 705 POINTS
TCL: Setting parameter alchLambda2 to 0.39999999999999963
Info: NONBONDED TABLE R-SQUARED SPACING: 0.0625
Info: NONBONDED TABLE SIZE: 705 POINTS
TCL: Running for 1500000 steps
ETITLE: TS BOND ANGLE DIHED IMPRP ELECT VDW BOUNDARY MISC KINETIC TOTAL TEMP POTENTIAL TOTALAVG TEMPAVG PRESSURE GPRESSURE VOLUME PRESSAVG GPRESSAVG
ENERGY: 0 0.0273 3.7943 8.0074 0.0000 -10867.0662 1463.9328 0.0000 0.0000 1818.6620 -7572.6425 304.9625 -9391.3045 -7572.6425 304.9625 20.0672 96.5838 30628.2806 20.0672 96.5838
ENERGY: 300000 0.8104 1.2982 6.6205 0.0000 -10699.8410 1380.4664 0.0000 0.0000 1830.1862 -7480.4594 306.8949 -9310.6456 -7556.7572 303.1807 -397.0847 -337.7807 30826.1749 -79.0187 -48.7785
ENERGY: 600000 0.9390 2.6550 6.4079 0.0000 -10754.4779 1368.7583 0.0000 0.0000 1803.2859 -7572.4319 302.3841 -9375.7178 -7569.7793 302.0296 -743.3066 -640.8420 30883.9376 -230.7382 -171.9690
ENERGY: 900000 2.1108 2.3109 6.3021 0.0000 -10951.0835 1515.9098 0.0000 0.0000 1800.4633 -7623.9865 301.9108 -9424.4499 -7577.2670 302.4954 207.4873 324.7045 30806.6790 -228.7825 -158.3921
ENERGY: 1200000 0.8324 2.7823 6.5837 0.0000 -10875.3885 1486.0031 0.0000 0.0000 1806.1457 -7573.0412 302.8637 -9379.1869 -7570.7217 302.9885 313.2614 436.9968 30455.5707 -162.4815 -89.7011
ENERGY: 1500000 0.0234 2.8832 6.6283 0.0000 -10707.4635 1302.4911 0.0000 0.0000 1744.3297 -7651.1078 292.4981 -9395.4375 -7571.9844 302.6507 -1565.4479 -1458.8829 31230.2411 -200.6833 -131.9015
TCL: Running FEP window  13: Lambda1 0.39999999999999963 Lambda2 0.34999999999999964 [dLambda -0.04999999999999999]
TCL: Setting parameter firsttimestep to 0
TCL: Setting parameter alchLambda to 0.39999999999999963
Info: NONBONDED TABLE R-SQUARED SPACING: 0.0625
Info: NONBONDED TABLE SIZE: 705 POINTS
TCL: Setting parameter alchLambda2 to 0.34999999999999964
Info: NONBONDED TABLE R-SQUARED SPACING: 0.0625
Info: NONBONDED TABLE SIZE: 705 POINTS
TCL: Running for 1500000 steps
ETITLE: TS BOND ANGLE DIHED IMPRP ELECT VDW BOUNDARY MISC KINETIC TOTAL TEMP POTENTIAL TOTALAVG TEMPAVG PRESSURE GPRESSURE VOLUME PRESSAVG GPRESSAVG
ENERGY: 0 0.0234 2.8832 6.6283 0.0000 -10707.4628 1302.5246 0.0000 0.0000 1743.4204 -7651.9829 292.3456 -9395.4033 -7651.9829 292.3456 -1543.4119 -1460.8620 31230.2411 -1543.4119 -1460.8620
ENERGY: 300000 0.2202 9.8668 5.1675 0.0000 -10747.4860 1356.5041 0.0000 0.0000 1792.8645 -7582.8629 300.6366 -9375.7274 -7620.4154 295.1274 -823.1273 -725.1651 30719.1864 -431.6142 -328.1937
ENERGY: 600000 0.2643 4.6906 8.2816 0.0000 -10999.8572 1594.1789 0.0000 0.0000 1824.4129 -7568.0289 305.9268 -9392.4418 -7610.4984 298.5717 902.2596 992.8173 30779.6790 -205.2180 -119.3680
ENERGY: 900000 0.6114 1.1379 7.5408 0.0000 -10812.5909 1480.0750 0.0000 0.0000 1785.6163 -7537.6096 299.4212 -9323.2259 -7595.7755 299.2278 288.4626 313.3234 30910.9884 -97.8387 -26.0465
ENERGY: 1200000 0.4170 7.8578 6.5994 0.0000 -10835.1658 1414.6401 0.0000 0.0000 1786.1454 -7619.5060 299.5099 -9405.6514 -7595.9390 299.4439 -649.9356 -507.3683 31064.0575 -116.4059 -40.1330
ENERGY: 1500000 0.2204 2.5702 5.9462 0.0000 -10821.4254 1448.0197 0.0000 0.0000 1755.8087 -7608.8601 294.4229 -9364.6689 -7599.4889 299.0999 -188.0148 -113.1074 31087.8658 -98.9220 -24.1840
TCL: Running FEP window  14: Lambda1 0.34999999999999964 Lambda2 0.29999999999999966 [dLambda -0.04999999999999999]
TCL: Setting parameter firsttimestep to 0
TCL: Setting parameter alchLambda to 0.34999999999999964
Info: NONBONDED TABLE R-SQUARED SPACING: 0.0625
Info: NONBONDED TABLE SIZE: 705 POINTS
TCL: Setting parameter alchLambda2 to 0.29999999999999966
Info: NONBONDED TABLE R-SQUARED SPACING: 0.0625
Info: NONBONDED TABLE SIZE: 705 POINTS
TCL: Running for 1500000 steps
ETITLE: TS BOND ANGLE DIHED IMPRP ELECT VDW BOUNDARY MISC KINETIC TOTAL TEMP POTENTIAL TOTALAVG TEMPAVG PRESSURE GPRESSURE VOLUME PRESSAVG GPRESSAVG
ENERGY: 0 0.2204 2.5702 5.9462 0.0000 -10821.4252 1448.0661 0.0000 0.0000 1754.8853 -7609.7371 294.2681 -9364.6224 -7609.7371 294.2681 -204.0065 -112.7247 31087.8658 -204.0065 -112.7247
ENERGY: 300000 0.4617 1.9068 7.1494 0.0000 -10756.3899 1463.2181 0.0000 0.0000 1724.4839 -7559.1701 289.1702 -9283.6540 -7542.1695 297.0752 41.5682 71.9195 31101.2799 -177.7907 -121.8560
ENERGY: 600000 0.1361 6.0485 6.0492 0.0000 -10821.1526 1454.4663 0.0000 0.0000 1814.1314 -7540.3211 304.2027 -9354.4525 -7551.6322 299.2261 -182.8893 -107.7632 31277.2882 -2.8471 56.6381
ENERGY: 900000 0.0250 3.5942 7.0057 0.0000 -10779.1054 1508.5681 0.0000 0.0000 1782.1022 -7477.8102 298.8319 -9259.9124 -7557.9823 298.8008 488.6185 510.2067 31249.3179 76.1215 129.2073
ENERGY: 1200000 0.5210 6.5280 5.9551 0.0000 -10729.8564 1451.7152 0.0000 0.0000 1836.0534 -7429.0837 307.8787 -9265.1371 -7564.1600 298.5539 -136.9437 4.9940 31497.8911 -23.1880 38.4625
ENERGY: 1500000 0.1536 2.9744 7.4116 0.0000 -10842.8242 1449.9551 0.0000 0.0000 1747.0618 -7635.2675 292.9562 -9382.3293 -7567.8464 298.2761 -337.3788 -282.5134 31043.7771 -46.2473 22.9485
TCL: Running FEP window  15: Lambda1 0.29999999999999966 Lambda2 0.24999999999999967 [dLambda -0.04999999999999999]
TCL: Setting parameter firsttimestep to 0
TCL: Setting parameter alchLambda to 0.29999999999999966
Info: NONBONDED TABLE R-SQUARED SPACING: 0.0625
Info: NONBONDED TABLE SIZE: 705 POINTS
TCL: Setting parameter alchLambda2 to 0.24999999999999967
Info: NONBONDED TABLE R-SQUARED SPACING: 0.0625
Info: NONBONDED TABLE SIZE: 705 POINTS
TCL: Running for 1500000 steps
ETITLE: TS BOND ANGLE DIHED IMPRP ELECT VDW BOUNDARY MISC KINETIC TOTAL TEMP POTENTIAL TOTALAVG TEMPAVG PRESSURE GPRESSURE VOLUME PRESSAVG GPRESSAVG
ENERGY: 0 0.1536 2.9744 7.4116 0.0000 -10842.8240 1449.2192 0.0000 0.0000 1746.1464 -7636.9187 292.8027 -9383.0651 -7636.9187 292.8027 -364.2090 -289.2693 31043.7771 -364.2090 -289.2693
ENERGY: 300000 0.0951 6.8596 4.5813 0.0000 -10900.9066 1503.5152 0.0000 0.0000 1808.6992 -7577.1563 303.2919 -9385.8555 -7598.7809 296.7878 581.3016 613.7474 30354.7047 -117.3566 -61.9315
ENERGY: 600000 2.1528 1.8464 8.7277 0.0000 -10890.0065 1453.1750 0.0000 0.0000 1803.8985 -7620.2060 302.4869 -9424.1045 -7599.9610 298.1527 -182.9717 -108.5429 30483.6146 -291.0400 -230.9799
ENERGY: 900000 1.6696 3.3523 5.4783 0.0000 -10885.5857 1471.3166 0.0000 0.0000 1777.9095 -7625.8594 298.1289 -9403.7689 -7599.8927 299.2399 -323.8161 -260.0385 31023.2434 -264.1842 -203.9881
ENERGY: 1200000 0.0412 10.0329 4.8374 0.0000 -10885.3751 1474.3312 0.0000 0.0000 1786.5149 -7609.6174 299.5719 -9396.1323 -7606.2334 298.8288 22.0063 56.5525 30876.1934 -169.3814 -106.7403
ENERGY: 1500000 0.9190 6.3758 5.2802 0.0000 -10838.0498 1480.0025 0.0000 0.0000 1853.4733 -7491.9989 310.7998 -9345.4722 -7590.7082 300.2910 202.8094 275.6402 30901.6990 -89.8937 -26.0254
TCL: Running FEP window  16: Lambda1 0.24999999999999967 Lambda2 0.19999999999999968 [dLambda -0.04999999999999999]
TCL: Setting parameter firsttimestep to 0
TCL: Setting parameter alchLambda to 0.24999999999999967
Info: NONBONDED TABLE R-SQUARED SPACING: 0.0625
Info: NONBONDED TABLE SIZE: 705 POINTS
TCL: Setting parameter alchLambda2 to 0.19999999999999968
Info: NONBONDED TABLE R-SQUARED SPACING: 0.0625
Info: NONBONDED TABLE SIZE: 705 POINTS
TCL: Running for 1500000 steps
ETITLE: TS BOND ANGLE DIHED IMPRP ELECT VDW BOUNDARY MISC KINETIC TOTAL TEMP POTENTIAL TOTALAVG TEMPAVG PRESSURE GPRESSURE VOLUME PRESSAVG GPRESSAVG
ENERGY: 0 0.9190 6.3758 5.2802 0.0000 -10838.0519 1480.1329 0.0000 0.0000 1852.5995 -7492.7444 310.6533 -9345.3439 -7492.7444 310.6533 189.3416 274.4651 30901.6990 189.3416 274.4651
ENERGY: 300000 0.0380 1.9906 6.7522 0.0000 -10867.3468 1458.7329 0.0000 0.0000 1835.5810 -7564.2523 307.7995 -9399.8332 -7556.2664 304.8708 -153.0635 -62.0024 31123.4266 -163.7537 -127.1001
ENERGY: 600000 0.0589 7.7978 4.1444 0.0000 -10821.8430 1473.3173 0.0000 0.0000 1770.4251 -7566.0996 296.8738 -9336.5247 -7550.2055 303.9089 -161.4699 -104.1752 31309.1041 -57.1119 -29.3668
ENERGY: 900000 0.4569 4.1466 6.5982 0.0000 -10913.4424 1487.9865 0.0000 0.0000 1786.3257 -7627.9285 299.5401 -9414.2542 -7569.1918 302.4291 157.8114 274.5431 30474.9659 -89.7785 -51.5579
ENERGY: 1200000 0.9193 2.9955 6.8097 0.0000 -10724.0916 1366.6120 0.0000 0.0000 1790.8121 -7555.9430 300.2924 -9346.7551 -7568.9705 301.8406 -811.0772 -777.0996 31236.1401 -171.0854 -126.1777
ENERGY: 1500000 0.5124 1.0974 6.4175 0.0000 -10841.5738 1487.2606 0.0000 0.0000 1831.0927 -7515.1933 307.0469 -9346.2860 -7571.4137 301.5592 273.7115 305.8557 30703.7886 -39.4812 9.9438
TCL: Running FEP window  17: Lambda1 0.19999999999999968 Lambda2 0.1499999999999997 [dLambda -0.04999999999999999]
TCL: Setting parameter firsttimestep to 0
TCL: Setting parameter alchLambda to 0.19999999999999968
Info: NONBONDED TABLE R-SQUARED SPACING: 0.0625
Info: NONBONDED TABLE SIZE: 705 POINTS
TCL: Setting parameter alchLambda2 to 0.1499999999999997
Info: NONBONDED TABLE R-SQUARED SPACING: 0.0625
Info: NONBONDED TABLE SIZE: 705 POINTS
TCL: Running for 1500000 steps
ETITLE: TS BOND ANGLE DIHED IMPRP ELECT VDW BOUNDARY MISC KINETIC TOTAL TEMP POTENTIAL TOTALAVG TEMPAVG PRESSURE GPRESSURE VOLUME PRESSAVG GPRESSAVG
ENERGY: 0 0.5124 1.0974 6.4175 0.0000 -10841.5753 1487.3468 0.0000 0.0000 1830.2267 -7515.9745 306.9017 -9346.2012 -7515.9745 306.9017 223.8680 304.2699 30703.7886 223.8680 304.2699
ENERGY: 300000 0.4312 3.2932 8.0664 0.0000 -10786.6984 1422.7239 0.0000 0.0000 1788.0781 -7564.1055 299.8340 -9352.1836 -7583.2139 299.4027 -470.9166 -379.7109 31186.9152 96.6476 194.1673
ENERGY: 600000 0.1130 2.3303 5.8407 0.0000 -10786.7544 1478.4413 0.0000 0.0000 1822.7679 -7477.2612 305.6510 -9300.0291 -7562.0665 299.7913 263.6350 335.3606 30771.9924 85.7661 168.1839
ENERGY: 900000 0.0426 2.4646 7.6920 0.0000 -10865.7741 1470.7217 0.0000 0.0000 1766.2658 -7618.5874 296.1764 -9384.8532 -7565.6121 300.0663 -130.3228 -9.5360 30798.4351 92.0063 172.5401
ENERGY: 1200000 0.0019 2.4315 6.4834 0.0000 -10768.2212 1394.0317 0.0000 0.0000 1803.5615 -7561.7112 302.4303 -9365.2727 -7574.4852 299.6120 -645.6223 -518.0219 30993.2086 11.5314 94.4052
ENERGY: 1500000 3.0313 4.4789 4.9889 0.0000 -10819.2950 1457.5823 0.0000 0.0000 1735.7765 -7613.4372 291.0638 -9349.2137 -7579.0107 299.1602 66.2790 138.1580 30610.6971 71.7687 157.1150
TCL: Running FEP window  18: Lambda1 0.1499999999999997 Lambda2 0.09999999999999969 [dLambda -0.05 ]
TCL: Setting parameter firsttimestep to 0
TCL: Setting parameter alchLambda to 0.1499999999999997
Info: NONBONDED TABLE R-SQUARED SPACING: 0.0625
Info: NONBONDED TABLE SIZE: 705 POINTS
TCL: Setting parameter alchLambda2 to 0.09999999999999969
Info: NONBONDED TABLE R-SQUARED SPACING: 0.0625
Info: NONBONDED TABLE SIZE: 705 POINTS
TCL: Running for 1500000 steps
ETITLE: TS BOND ANGLE DIHED IMPRP ELECT VDW BOUNDARY MISC KINETIC TOTAL TEMP POTENTIAL TOTALAVG TEMPAVG PRESSURE GPRESSURE VOLUME PRESSAVG GPRESSAVG
ENERGY: 0 3.0313 4.4789 4.9889 0.0000 -10819.2955 1457.5677 0.0000 0.0000 1734.8543 -7614.3744 290.9092 -9349.2287 -7614.3744 290.9092 68.0624 136.9925 30610.6971 68.0624 136.9925
ENERGY: 300000 1.0185 1.4260 7.4122 0.0000 -10955.4590 1510.0163 0.0000 0.0000 1837.2278 -7598.3582 308.0757 -9435.5860 -7611.5235 297.4923 97.1385 168.8474 30798.2421 95.0701 192.4083
ENERGY: 600000 1.3490 1.3234 7.4216 0.0000 -10688.5442 1315.2629 0.0000 0.0000 1777.2610 -7585.9263 298.0201 -9363.1873 -7608.9468 298.6307 -1287.9659 -1232.5582 31161.6206 -61.5813 17.0565
ENERGY: 900000 0.3635 6.9634 4.7973 0.0000 -10839.0708 1438.2685 0.0000 0.0000 1832.7344 -7555.9437 307.3222 -9388.6781 -7586.7209 299.8940 -89.3098 -26.5584 30435.0622 -72.0257 3.3349
ENERGY: 1200000 0.1450 4.8522 5.3261 0.0000 -10865.6902 1415.7671 0.0000 0.0000 1770.1360 -7669.4639 296.8254 -9439.5999 -7601.8793 299.1367 -448.3350 -452.0031 30503.4167 -85.1505 -18.3640
ENERGY: 1500000 0.0230 2.6871 6.3196 0.0000 -10853.1080 1529.1580 0.0000 0.0000 1750.2341 -7564.6861 293.4881 -9314.9202 -7598.0601 299.0948 691.1626 748.7547 30543.6863 -11.3862 55.9349
TCL: Running FEP window  19: Lambda1 0.09999999999999969 Lambda2 0.049999999999999684 [dLambda -0.05 ]
TCL: Setting parameter firsttimestep to 0
TCL: Setting parameter alchLambda to 0.09999999999999969
Info: NONBONDED TABLE R-SQUARED SPACING: 0.0625
Info: NONBONDED TABLE SIZE: 705 POINTS
TCL: Setting parameter alchLambda2 to 0.049999999999999684
Info: NONBONDED TABLE R-SQUARED SPACING: 0.0625
Info: NONBONDED TABLE SIZE: 705 POINTS
TCL: Running for 1500000 steps
ETITLE: TS BOND ANGLE DIHED IMPRP ELECT VDW BOUNDARY MISC KINETIC TOTAL TEMP POTENTIAL TOTALAVG TEMPAVG PRESSURE GPRESSURE VOLUME PRESSAVG GPRESSAVG
ENERGY: 0 0.0230 2.6871 6.3196 0.0000 -10853.1086 1528.9797 0.0000 0.0000 1749.3660 -7565.7332 293.3426 -9315.0992 -7565.7332 293.3426 666.7196 745.6127 30543.6863 666.7196 745.6127
ENERGY: 300000 0.0140 6.9574 6.8576 0.0000 -10873.0801 1504.6175 0.0000 0.0000 1846.5474 -7508.0862 309.6384 -9354.6336 -7588.0724 299.5863 486.2064 500.7371 30749.9953 387.9557 445.2476
ENERGY: 600000 0.0655 5.8233 5.3843 0.0000 -10786.2426 1487.9725 0.0000 0.0000 1785.8069 -7501.1902 299.4531 -9286.9970 -7598.6554 298.7682 422.8466 530.7332 30756.1013 289.6044 351.2887
ENERGY: 900000 0.6161 3.7931 7.4418 0.0000 -10796.8975 1456.8687 0.0000 0.0000 1799.8077 -7528.3700 301.8009 -9328.1777 -7602.6797 298.6340 3.1317 46.2043 31071.6381 310.8918 377.8964
ENERGY: 1200000 0.4299 2.1238 6.7097 0.0000 -10948.7138 1560.5913 0.0000 0.0000 1795.8270 -7583.0319 301.1334 -9378.8590 -7611.2284 298.4240 645.2845 669.9534 30754.0005 260.2901 323.0751
ENERGY: 1500000 3.2342 5.7588 5.3182 0.0000 -10755.4135 1400.2830 0.0000 0.0000 1825.9061 -7514.9132 306.1772 -9340.8193 -7602.6551 299.7455 -430.5205 -419.6396 30800.7546 175.4190 236.1153
TCL: Running FEP window  20: Lambda1 0.049999999999999684 Lambda2 0.0    [dLambda -0.049999999999999684]
TCL: Setting parameter firsttimestep to 0
TCL: Setting parameter alchLambda to 0.049999999999999684
Info: NONBONDED TABLE R-SQUARED SPACING: 0.0625
Info: NONBONDED TABLE SIZE: 705 POINTS
TCL: Setting parameter alchLambda2 to 0.0
Info: NONBONDED TABLE R-SQUARED SPACING: 0.0625
Info: NONBONDED TABLE SIZE: 705 POINTS
TCL: Running for 1500000 steps
ETITLE: TS BOND ANGLE DIHED IMPRP ELECT VDW BOUNDARY MISC KINETIC TOTAL TEMP POTENTIAL TOTALAVG TEMPAVG PRESSURE GPRESSURE VOLUME PRESSAVG GPRESSAVG
ENERGY: 0 3.2342 5.7588 5.3182 0.0000 -10755.4135 1400.1744 0.0000 0.0000 1825.0174 -7515.9105 306.0282 -9340.9278 -7515.9105 306.0282 -489.0731 -418.5784 30800.7546 -489.0731 -418.5784
ENERGY: 300000 0.0837 5.3093 5.6426 0.0000 -10780.8263 1401.6466 0.0000 0.0000 1828.6625 -7539.4815 306.6394 -9368.1440 -7547.6695 305.2250 -446.6620 -429.1628 30889.0400 140.5052 173.9815
ENERGY: 600000 2.3916 3.0213 6.5606 0.0000 -10858.7759 1474.2849 0.0000 0.0000 1770.9488 -7601.5686 296.9617 -9372.5175 -7563.6644 300.9479 -134.1333 -77.8146 31025.0382 79.0023 125.6912
ENERGY: 900000 2.0047 4.5751 6.8252 0.0000 -10950.5044 1516.8496 0.0000 0.0000 1768.2977 -7651.9520 296.5171 -9420.2497 -7596.2026 299.5068 205.0526 250.5461 30679.2684 28.0808 73.9747
ENERGY: 1200000 0.1593 8.7385 6.8069 0.0000 -10875.7794 1498.6898 0.0000 0.0000 1809.8890 -7551.4959 303.4914 -9361.3849 -7586.0537 300.3343 250.7620 305.4114 30805.8888 28.7331 78.7548
ENERGY: 1500000 0.3147 4.3650 5.1995 0.0000 -10739.1495 1350.9818 0.0000 0.0000 1816.5499 -7561.7386 304.6083 -9378.2885 -7590.6491 300.7680 -926.2455 -838.3490 31043.8099 -63.1625 -9.0229
TCL: Exiting due to exit command.
