Info: SIMULATION PARAMETERS:
Info: TIMESTEP               2
Info: NUMBER OF STEPS        0
Info: STEPS PER CYCLE        10
Info: PERIODIC CELL BASIS 1  82.594 0 0
Info: PERIODIC CELL BASIS 2  0 82.594 0
Info: PERIODIC CELL BASIS 3  0 0 82.594
Info: PERIODIC CELL CENTER   40.402 40.402 40.402
Info: WRAPPING ALL CLUSTERS AROUND PERIODIC BOUNDARIES ON OUTPUT.
Info: FIRST LDB TIMESTEP     50
Info: LAST LDB TIMESTEP     -1
Info: HOM BACKGROUND SCALING 1
Info: PME BACKGROUND SCALING 1
Info: MIN ATOMS PER PATCH    40
Info: EMPTY PATCH LOAD       40 ATOMS
Info: VELOCITY FILE          mobley_1352110_equilibrated.vel
Info: CENTER OF MASS MOVING INITIALLY? NO
Info: DIELECTRIC             1
Info: EXCLUDE                SCALED ONE-FOUR
Info: 1-4 ELECTROSTATICS SCALED BY 1
Info: MODIFIED 1-4 VDW PARAMETERS WILL BE USED
Info: DCD FILENAME           mobley_1352110_backwards.dcd
Info: DCD FREQUENCY          500
Info: DCD FIRST STEP         500
Info: DCD FILE WILL CONTAIN UNIT CELL DATA
Info: NO EXTENDED SYSTEM TRAJECTORY OUTPUT
Info: NO VELOCITY DCD OUTPUT
Info: NO FORCE DCD OUTPUT
Info: OUTPUT FILENAME        mobley_1352110_backwards
Info: BINARY OUTPUT FILES WILL BE USED
Info: NO RESTART FILE
Info: SWITCHING ACTIVE
Info: SWITCHING ON           10
Info: SWITCHING OFF          12
Info: PAIRLIST DISTANCE      14
Info: PAIRLIST SHRINK RATE   0.01
Info: PAIRLIST GROW RATE     0.01
Info: PAIRLIST TRIGGER       0.3
Info: PAIRLISTS PER CYCLE    2
Info: PAIRLISTS ENABLED
Info: MARGIN                 8
Info: HYDROGEN GROUP CUTOFF  2.5
Info: PATCH DIMENSION        24.5
Info: ENERGY OUTPUT STEPS    500
Info: ENERGY EVALUATION STEPS    500
Info: OUTPUT ENERGY PRECISION 4
Info: CROSSTERM ENERGY INCLUDED IN DIHEDRAL
Info: TIMING OUTPUT STEPS    500
Info: PRESSURE OUTPUT STEPS  500
Info: ALCHEMICAL FEP ON
Info: FEP CURRENT LAMBDA VALUE     1
Info: FEP COMPARISON LAMBDA VALUE  0.9375
Info: FEP INTRA-ALCHEMICAL NON-BONDED INTERACTIONS WILL BE DECOUPLED
Info: FEP INTRA-ALCHEMICAL BONDED INTERACTIONS WILL BE RETAINED
Info: FEP VDW SHIFTING COEFFICIENT 6
Info: FEP ELEC. ACTIVE FOR ANNIHILATED PARTICLES BETWEEN LAMBDA = 0 AND LAMBDA = 0.5
Info: FEP ELEC. ACTIVE FOR EXNIHILATED PARTICLES BETWEEN LAMBDA = 0.5 AND LAMBDA = 1
Info: FEP VDW ACTIVE FOR ANNIHILATED PARTICLES BETWEEN LAMBDA = 0 AND LAMBDA = 1
Info: FEP VDW ACTIVE FOR EXNIHILATED PARTICLES BETWEEN LAMBDA = 0 AND LAMBDA = 1
Info: FEP BOND ACTIVE FOR ANNIHILATED PARTICLES BETWEEN LAMBDA = 1 AND LAMBDA = 1
Info: FEP BOND ACTIVE FOR EXNIHILATED PARTICLES BETWEEN LAMBDA = 0 AND LAMBDA = 0
Info: LANGEVIN DYNAMICS ACTIVE
Info: LANGEVIN TEMPERATURE   298
Info: LANGEVIN USING BBK INTEGRATOR
Info: LANGEVIN DAMPING COEFFICIENT IS 1 INVERSE PS
Info: LANGEVIN DYNAMICS NOT APPLIED TO HYDROGENS
Info: LANGEVIN PISTON PRESSURE CONTROL ACTIVE
Info:        TARGET PRESSURE IS 1.01325 BAR
Info:     OSCILLATION PERIOD IS 100 FS
Info:             DECAY TIME IS 50 FS
Info:     PISTON TEMPERATURE IS 298 K
Info:       PRESSURE CONTROL IS GROUP-BASED
Info:    INITIAL STRAIN RATE IS 4.9334e-05 4.9334e-05 4.9334e-05
Info:       CELL FLUCTUATION IS ISOTROPIC
Info: PARTICLE MESH EWALD (PME) ACTIVE
Info: PME TOLERANCE               1e-05
Info: PME EWALD COEFFICIENT       0.226635
Info: PME INTERPOLATION ORDER     4
Info: PME GRID DIMENSIONS         84 84 84
Info: PME MAXIMUM GRID SPACING    1
Info: FULL ELECTROSTATIC EVALUATION FREQUENCY      1
Info: USING VERLET I (r-RESPA) MTS SCHEME.
Info: C1 SPLITTING OF LONG RANGE ELECTROSTATICS
Info: PLACING ATOMS IN PATCHES BY HYDROGEN GROUPS
Info: RIGID BONDS TO HYDROGEN : ALL
Info:         ERROR TOLERANCE : 1e-08
Info:          MAX ITERATIONS : 100
Info: RIGID WATER USING SETTLE ALGORITHM
Info: RANDOM NUMBER SEED     1740633981
Info: USE HYDROGEN BONDS?    NO
Info: COORDINATE PDB         mobley_1352110.pdb
Info: STRUCTURE FILE         mobley_1352110.psf
Info: PARAMETER file: CHARMM format!
Info: PARAMETERS             ../common/par_all27_prot_lipid.inp
Info: PARAMETERS             mobley_1352110.prm
Info: USING ARITHMETIC MEAN TO COMBINE L-J SIGMA PARAMETERS
Info: BINARY COORDINATES     mobley_1352110_equilibrated.coor
Info: SUMMARY OF PARAMETERS:
Info: 188 BONDS
Info: 462 ANGLES
Info: 589 DIHEDRAL
Info: 48 IMPROPER
Info: 6 CROSSTERM
Info: 126 VDW
Info: 0 VDW_PAIRS
Info: 0 NBTHOLE_PAIRS
Info: To read alchdata from file: mobley_1352110.pdb
Info: To read alchflag data from column: 5
Info: STRUCTURE SUMMARY:
Info: 6625 ATOMS
Info: 4427 BONDS
Info: 2258 ANGLES
Info: 75 DIHEDRALS
Info: 2 IMPROPERS
Info: 0 CROSSTERMS
Info: 0 EXCLUSIONS
Info: 6612 RIGID BONDS
Info: ALCH: 0 ATOMS TO DISAPPEAR IN FINAL STATE
Info: ALCH: 34 ATOMS TO APPEAR IN FINAL STATE
Info: 13263 DEGREES OF FREEDOM
Info: 2210 HYDROGEN GROUPS
Info: 4 ATOMS IN LARGEST HYDROGEN GROUP
Info: 2210 MIGRATION GROUPS
Info: 4 ATOMS IN LARGEST MIGRATION GROUP
Info: TOTAL MASS = 39783.2 amu
Info: TOTAL CHARGE = -6.0536e-08 e
Info: MASS DENSITY = 0.11725 g/cm^3
Info: ATOM DENSITY = 0.0117582 atoms/A^3
Info: ADDED 6760 IMPLICIT EXCLUSIONS
Info: NONBONDED TABLE R-SQUARED SPACING: 0.0625
Info: NONBONDED TABLE SIZE: 769 POINTS
Info: REMOVING COM VELOCITY -0.0751218 0.00450358 0.0698426
TCL: Running for 5000 steps
ETITLE: TS BOND ANGLE DIHED IMPRP ELECT VDW BOUNDARY MISC KINETIC TOTAL TEMP POTENTIAL TOTAL3 TEMPAVG PRESSURE GPRESSURE VOLUME PRESSAVG GPRESSAVG
ENERGY: 0 5.2391 18.7562 6.0228 0.0586 -22983.8488 2398.6907 0.0000 0.0000 3817.2177 -16737.8638 289.6647 -20555.0816 -16729.8556 289.6647 2.5297 2.2311 563436.5599 2.5297 2.2311
ENERGY: 1000 2.7642 16.6230 7.2083 0.3326 -23163.6831 2570.3247 0.0000 0.0000 3834.3246 -16732.1055 290.9628 -20566.4302 -16724.5165 292.6935 72.4084 70.9968 552957.6873 0.7965 0.7808
ENERGY: 2000 2.2134 14.9179 4.7233 0.0277 -22994.7309 2372.5878 0.0000 0.0000 3846.8447 -16753.4159 291.9129 -20600.2607 -16746.2686 293.5289 -4.4910 -3.9013 560203.7085 0.1811 0.1423
ENERGY: 3000 2.2394 21.3697 5.9056 0.2664 -23113.4985 2493.5845 0.0000 0.0000 3934.9294 -16655.2034 298.5971 -20590.1328 -16647.8228 296.3239 34.3148 35.8117 588973.3739 1.5765 1.5664
ENERGY: 4000 4.8562 12.4389 3.7703 0.1850 -22946.0686 2373.0664 0.0000 0.0000 3887.9241 -16663.8277 295.0301 -20551.7518 -16656.6283 295.9352 -14.9291 -14.6128 601666.9428 1.5603 1.5945
ENERGY: 5000 5.0372 19.8215 4.5584 0.0388 -22936.2408 2361.1998 0.0000 0.0000 3981.9840 -16563.6011 302.1678 -20545.5851 -16555.4504 298.4310 -6.3068 -6.2335 615734.7933 1.7958 1.7859
TCL: Running FEP window   2: Lambda1 0.9375 Lambda2 0.875  [dLambda -0.0625]
TCL: Setting parameter firsttimestep to 0
TCL: Setting parameter alchLambda to 0.9375
Info: NONBONDED TABLE R-SQUARED SPACING: 0.0625
Info: NONBONDED TABLE SIZE: 769 POINTS
TCL: Setting parameter alchLambda2 to 0.875
Info: NONBONDED TABLE R-SQUARED SPACING: 0.0625
Info: NONBONDED TABLE SIZE: 769 POINTS
TCL: Running for 5000 steps
ETITLE: TS BOND ANGLE DIHED IMPRP ELECT VDW BOUNDARY MISC KINETIC TOTAL TEMP POTENTIAL TOTAL3 TEMPAVG PRESSURE GPRESSURE VOLUME PRESSAVG GPRESSAVG
ENERGY: 0 5.0372 19.8215 4.5584 0.0388 -22931.0630 2356.0904 0.0000 0.0000 3981.8625 -16563.6542 302.1585 -20545.5167 -16556.0563 302.1585 -11.1873 -11.2298 615734.7933 -11.1873 -11.2298
ENERGY: 1000 3.9229 17.1020 4.4261 0.0066 -22826.1679 2268.4702 0.0000 0.0000 3976.0273 -16556.2128 301.7157 -20532.2401 -16548.0015 298.8535 -54.4799 -54.3941 615564.1108 -0.8778 -0.8853
ENERGY: 2000 4.7030 11.3398 5.0454 0.1585 -23056.0895 2471.3307 0.0000 0.0000 3918.4679 -16645.0441 297.3479 -20563.5120 -16639.0105 298.2515 19.5882 19.7304 624017.2064 0.9850 0.9557
ENERGY: 3000 2.7980 19.4564 7.8496 0.2596 -22867.5049 2411.2598 0.0000 0.0000 3889.7944 -16536.0871 295.1721 -20425.8815 -16527.3616 298.4465 25.6491 25.0394 627661.0823 0.1415 0.1256
ENERGY: 4000 6.5123 18.7750 6.2603 0.0559 -23081.0867 2438.1881 0.0000 0.0000 3908.8217 -16702.4734 296.6159 -20611.2951 -16692.9371 295.6322 8.3824 7.9894 636810.5625 1.1924 1.2349
ENERGY: 5000 7.2492 17.0015 5.8275 0.4177 -23057.3661 2448.6923 0.0000 0.0000 3953.4540 -16624.7239 300.0028 -20578.1779 -16620.3784 295.4316 -9.5591 -10.5441 644981.6806 0.7501 0.7643
TCL: Running FEP window   3: Lambda1 0.875  Lambda2 0.8125 [dLambda -0.0625]
TCL: Setting parameter firsttimestep to 0
TCL: Setting parameter alchLambda to 0.875
Info: NONBONDED TABLE R-SQUARED SPACING: 0.0625
Info: NONBONDED TABLE SIZE: 769 POINTS
TCL: Setting parameter alchLambda2 to 0.8125
Info: NONBONDED TABLE R-SQUARED SPACING: 0.0625
Info: NONBONDED TABLE SIZE: 769 POINTS
TCL: Running for 5000 steps
ETITLE: TS BOND ANGLE DIHED IMPRP ELECT VDW BOUNDARY MISC KINETIC TOTAL TEMP POTENTIAL TOTAL3 TEMPAVG PRESSURE GPRESSURE VOLUME PRESSAVG GPRESSAVG
ENERGY: 0 7.2492 17.0015 5.8275 0.4177 -23051.0968 2445.8992 0.0000 0.0000 3953.3312 -16621.3705 299.9935 -20574.7017 -16613.7101 299.9935 -13.8015 -13.8414 644981.6806 -13.8015 -13.8414
ENERGY: 1000 6.5375 16.3375 3.8203 0.3695 -23116.5901 2534.7776 0.0000 0.0000 3923.7118 -16631.0360 297.7458 -20554.7477 -16624.6315 297.5715 64.8269 64.6447 632480.6597 0.0960 0.0938
ENERGY: 2000 2.1949 14.2965 7.1417 0.3153 -22813.2531 2263.6055 0.0000 0.0000 3921.4837 -16604.2156 297.5768 -20525.6992 -16593.8520 297.0417 -46.0508 -46.4541 625361.6261 2.9718 2.9837
ENERGY: 3000 5.7759 14.0333 5.4180 0.1076 -22692.9344 2282.2641 0.0000 0.0000 3867.4228 -16517.9127 293.4744 -20385.3355 -16509.2838 296.0565 -36.3387 -35.8829 630352.0459 2.5448 2.5332
ENERGY: 4000 1.6499 16.1203 4.4455 0.0669 -22851.9174 2376.2864 0.0000 0.0000 3920.5504 -16532.7981 297.5059 -20453.3485 -16526.9935 296.2047 -14.0391 -14.1358 641639.1024 -0.1538 -0.1471
ENERGY: 5000 3.4701 14.7750 7.1079 0.0769 -22836.9144 2305.4651 0.0000 0.0000 3978.8950 -16527.1244 301.9334 -20506.0194 -16518.9444 301.5703 -40.5145 -40.7183 636608.8875 0.5272 0.5438
TCL: Running FEP window   4: Lambda1 0.8125 Lambda2 0.75   [dLambda -0.0625]
TCL: Setting parameter firsttimestep to 0
TCL: Setting parameter alchLambda to 0.8125
Info: NONBONDED TABLE R-SQUARED SPACING: 0.0625
Info: NONBONDED TABLE SIZE: 769 POINTS
TCL: Setting parameter alchLambda2 to 0.75
Info: NONBONDED TABLE R-SQUARED SPACING: 0.0625
Info: NONBONDED TABLE SIZE: 769 POINTS
TCL: Running for 5000 steps
ETITLE: TS BOND ANGLE DIHED IMPRP ELECT VDW BOUNDARY MISC KINETIC TOTAL TEMP POTENTIAL TOTAL3 TEMPAVG PRESSURE GPRESSURE VOLUME PRESSAVG GPRESSAVG
ENERGY: 0 3.4701 14.7750 7.1079 0.0769 -22831.4215 2303.2972 0.0000 0.0000 3978.7749 -16523.9194 301.9242 -20502.6943 -16515.3139 301.9242 -43.4789 -43.4977 636608.8875 -43.4789 -43.4977
ENERGY: 1000 2.0575 13.1826 3.9492 0.1102 -22808.9106 2320.7753 0.0000 0.0000 3956.5083 -16512.3276 300.2346 -20468.8359 -16503.0227 298.7216 -21.1214 -22.0374 650974.3619 1.4766 1.5120
ENERGY: 2000 3.0212 18.2680 6.3705 0.2586 -22963.1034 2520.3890 0.0000 0.0000 4025.0536 -16389.7425 305.4360 -20414.7962 -16379.8380 301.9602 75.3853 74.8805 636262.5256 -0.5638 -0.5865
ENERGY: 3000 3.1760 14.6696 6.1830 0.3675 -22784.1897 2236.2184 0.0000 0.0000 3987.6207 -16535.9546 302.5955 -20523.5753 -16527.0319 301.8619 -47.6997 -47.4087 629370.7806 0.8131 0.7899
ENERGY: 4000 2.5960 11.8278 5.4230 0.1748 -22991.5598 2478.9842 0.0000 0.0000 3999.8680 -16492.6860 303.5249 -20492.5541 -16485.1102 300.9277 63.4205 63.7361 613351.3517 -0.3584 -0.3665
ENERGY: 5000 2.5247 14.0372 4.1100 0.1234 -22914.3086 2441.0015 0.0000 0.0000 3909.6915 -16542.8203 296.6819 -20452.5118 -16535.6326 297.5691 21.4431 20.2591 617242.2324 3.0685 3.0975
TCL: Running FEP window   5: Lambda1 0.75   Lambda2 0.6875 [dLambda -0.0625]
TCL: Setting parameter firsttimestep to 0
TCL: Setting parameter alchLambda to 0.75
Info: NONBONDED TABLE R-SQUARED SPACING: 0.0625
Info: NONBONDED TABLE SIZE: 769 POINTS
TCL: Setting parameter alchLambda2 to 0.6875
Info: NONBONDED TABLE R-SQUARED SPACING: 0.0625
Info: NONBONDED TABLE SIZE: 769 POINTS
TCL: Running for 5000 steps
ETITLE: TS BOND ANGLE DIHED IMPRP ELECT VDW BOUNDARY MISC KINETIC TOTAL TEMP POTENTIAL TOTAL3 TEMPAVG PRESSURE GPRESSURE VOLUME PRESSAVG GPRESSAVG
ENERGY: 0 2.5247 14.0372 4.1100 0.1234 -22909.5741 2440.3643 0.0000 0.0000 3909.5661 -16538.8485 296.6724 -20448.4145 -16531.2960 296.6724 18.7779 18.6562 617242.2324 18.7779 18.6562
ENERGY: 1000 4.0451 16.1258 6.1821 0.1763 -22981.1463 2524.9781 0.0000 0.0000 3943.2757 -16486.3632 299.2304 -20429.6389 -16482.3089 297.4194 105.7392 105.7357 612561.1132 1.0523 1.0670
ENERGY: 2000 3.1923 15.9567 4.7032 0.0566 -22823.3295 2313.2995 0.0000 0.0000 4005.9101 -16480.2110 303.9834 -20486.1211 -16472.0341 302.1518 -25.2341 -25.7521 636293.8313 0.6186 0.6212
ENERGY: 3000 2.8770 14.5813 5.0218 0.1918 -22923.5013 2414.3044 0.0000 0.0000 3976.2774 -16510.2475 301.7347 -20486.5249 -16501.9377 299.5310 8.5690 8.1353 643934.7535 -0.1328 -0.1070
ENERGY: 4000 3.4819 18.2476 5.8960 0.0860 -22866.0331 2357.3934 0.0000 0.0000 3946.2106 -16534.7177 299.4531 -20480.9282 -16527.6779 299.3317 -8.7991 -9.0888 633242.5731 -0.2669 -0.2544
ENERGY: 5000 5.4154 15.5902 5.7949 0.0016 -22983.6892 2454.4208 0.0000 0.0000 3852.2641 -16650.2022 292.3241 -20502.4663 -16641.8827 295.4753 30.5462 30.6466 606656.5239 2.6081 2.6008
TCL: Running FEP window   6: Lambda1 0.6875 Lambda2 0.625  [dLambda -0.0625]
TCL: Setting parameter firsttimestep to 0
TCL: Setting parameter alchLambda to 0.6875
Info: NONBONDED TABLE R-SQUARED SPACING: 0.0625
Info: NONBONDED TABLE SIZE: 769 POINTS
TCL: Setting parameter alchLambda2 to 0.625
Info: NONBONDED TABLE R-SQUARED SPACING: 0.0625
Info: NONBONDED TABLE SIZE: 769 POINTS
TCL: Running for 5000 steps
ETITLE: TS BOND ANGLE DIHED IMPRP ELECT VDW BOUNDARY MISC KINETIC TOTAL TEMP POTENTIAL TOTAL3 TEMPAVG PRESSURE GPRESSURE VOLUME PRESSAVG GPRESSAVG
ENERGY: 0 5.4154 15.5902 5.7949 0.0016 -22978.1807 2453.4918 0.0000 0.0000 3852.1444 -16645.7424 292.3150 -20497.8868 -16639.2520 292.3150 29.3038 29.0144 606656.5239 29.3038 29.0144
ENERGY: 1000 4.4289 13.5862 5.0213 0.3881 -22902.8080 2328.6268 0.0000 0.0000 3906.7918 -16643.9649 296.4619 -20550.7567 -16636.4796 295.8628 -26.0436 -28.1353 610439.5388 -0.8592 -0.8539
ENERGY: 2000 2.5374 17.0724 3.6294 0.0083 -23007.7478 2433.7088 0.0000 0.0000 3912.4620 -16638.3295 296.8922 -20550.7915 -16628.3567 297.1331 21.1712 21.3490 595431.5235 2.1873 2.1600
ENERGY: 3000 3.9254 11.9824 7.4261 0.1950 -22936.8560 2428.0853 0.0000 0.0000 3927.0972 -16558.1446 298.0027 -20485.2418 -16551.2124 298.3538 19.5163 19.4287 586392.2634 1.7505 1.7432
ENERGY: 4000 3.6675 15.6591 4.2029 0.0454 -22873.7974 2377.1131 0.0000 0.0000 3950.5905 -16522.5189 299.7855 -20473.1094 -16515.8084 296.7650 -6.9526 -6.8989 579390.1139 1.0650 1.0838
ENERGY: 5000 1.8211 13.7308 6.6800 0.1166 -22942.6399 2382.5594 0.0000 0.0000 3951.0289 -16586.7031 299.8188 -20537.7320 -16579.0240 299.0066 -19.8498 -19.3281 573024.7117 0.7182 0.7072
TCL: Running FEP window   7: Lambda1 0.625  Lambda2 0.5625 [dLambda -0.0625]
TCL: Setting parameter firsttimestep to 0
TCL: Setting parameter alchLambda to 0.625
Info: NONBONDED TABLE R-SQUARED SPACING: 0.0625
Info: NONBONDED TABLE SIZE: 769 POINTS
TCL: Setting parameter alchLambda2 to 0.5625
Info: NONBONDED TABLE R-SQUARED SPACING: 0.0625
Info: NONBONDED TABLE SIZE: 769 POINTS
TCL: Running for 5000 steps
ETITLE: TS BOND ANGLE DIHED IMPRP ELECT VDW BOUNDARY MISC KINETIC TOTAL TEMP POTENTIAL TOTAL3 TEMPAVG PRESSURE GPRESSURE VOLUME PRESSAVG GPRESSAVG
ENERGY: 0 1.8211 13.7308 6.6800 0.1166 -22937.9344 2380.7704 0.0000 0.0000 3950.9073 -16583.9082 299.8095 -20534.8155 -16576.1246 299.8095 -21.2076 -21.0984 573024.7117 -21.2076 -21.0984
ENERGY: 1000 4.0199 15.5153 4.6973 0.2695 -22886.7714 2343.0737 0.0000 0.0000 3896.6829 -16622.5129 295.6948 -20519.1957 -16612.5543 297.4969 -25.0691 -25.7118 552690.2282 -0.0281 -0.0019
ENERGY: 2000 3.6519 13.2697 4.8993 0.1029 -23039.8658 2454.5184 0.0000 0.0000 3986.1939 -16577.2297 302.4872 -20563.4236 -16571.5326 296.4487 18.6900 19.0368 556257.4922 2.4467 2.4333
ENERGY: 3000 4.2053 15.7549 4.8865 0.0586 -22910.2102 2406.3695 0.0000 0.0000 3847.0778 -16631.8576 291.9306 -20478.9354 -16626.2047 296.5795 10.6500 10.5594 545053.0620 0.9806 1.0145
ENERGY: 4000 3.8272 13.7746 3.7166 0.0564 -22928.7771 2320.9067 0.0000 0.0000 3945.5773 -16640.9182 299.4051 -20586.4955 -16633.7469 294.6990 -57.4832 -57.4695 554662.6467 2.5227 2.5208
ENERGY: 5000 5.3438 19.9031 3.9842 0.0294 -22817.8543 2306.7905 0.0000 0.0000 3897.8747 -16583.9287 295.7852 -20481.8034 -16576.0372 297.7986 -44.5545 -45.6268 573731.8004 1.0907 1.0893
TCL: Running FEP window   8: Lambda1 0.5625 Lambda2 0.5    [dLambda -0.0625]
TCL: Setting parameter firsttimestep to 0
TCL: Setting parameter alchLambda to 0.5625
Info: NONBONDED TABLE R-SQUARED SPACING: 0.0625
Info: NONBONDED TABLE SIZE: 769 POINTS
TCL: Setting parameter alchLambda2 to 0.5
Info: NONBONDED TABLE R-SQUARED SPACING: 0.0625
Info: NONBONDED TABLE SIZE: 769 POINTS
TCL: Running for 5000 steps
ETITLE: TS BOND ANGLE DIHED IMPRP ELECT VDW BOUNDARY MISC KINETIC TOTAL TEMP POTENTIAL TOTAL3 TEMPAVG PRESSURE GPRESSURE VOLUME PRESSAVG GPRESSAVG
ENERGY: 0 5.3438 19.9031 3.9842 0.0294 -22814.7977 2306.7910 0.0000 0.0000 3897.7529 -16580.9933 295.7760 -20478.7462 -16572.8965 295.7760 -46.6438 -46.8265 573731.8004 -46.6438 -46.8265
ENERGY: 1000 6.5645 20.1313 7.2121 0.0358 -23028.0542 2425.2159 0.0000 0.0000 3910.2896 -16658.6049 296.7273 -20568.8945 -16651.3716 295.5636 -2.0825 -3.1413 581926.0904 0.9071 0.8919
ENERGY: 2000 5.0861 17.4636 6.0580 0.2827 -22909.7038 2325.5095 0.0000 0.0000 3900.6381 -16654.6658 295.9949 -20555.3039 -16647.2528 293.9628 -29.7777 -28.8470 569872.3273 -0.2379 -0.2421
ENERGY: 3000 1.8264 15.6536 4.9622 0.2843 -23061.9224 2454.5197 0.0000 0.0000 3879.8097 -16704.8664 294.4144 -20584.6761 -16697.1468 292.2909 6.1938 6.5333 569076.2508 1.3253 1.3639
ENERGY: 4000 5.3518 15.4108 6.6509 0.4283 -23044.6508 2356.6257 0.0000 0.0000 3900.0735 -16760.1098 295.9521 -20660.1833 -16751.0897 294.4780 -34.2170 -34.3679 571216.9403 2.5926 2.5830
ENERGY: 5000 4.5921 11.4778 7.8161 0.0459 -22836.3245 2300.0758 0.0000 0.0000 3952.8597 -16559.4572 299.9577 -20512.3168 -16553.1277 297.0047 -47.7983 -47.7769 589504.5926 -0.9867 -0.9462
TCL: Running FEP window   9: Lambda1 0.5    Lambda2 0.4375 [dLambda -0.0625]
TCL: Setting parameter firsttimestep to 0
TCL: Setting parameter alchLambda to 0.5
Info: NONBONDED TABLE R-SQUARED SPACING: 0.0625
Info: NONBONDED TABLE SIZE: 769 POINTS
TCL: Setting parameter alchLambda2 to 0.4375
Info: NONBONDED TABLE R-SQUARED SPACING: 0.0625
Info: NONBONDED TABLE SIZE: 769 POINTS
TCL: Running for 5000 steps
ETITLE: TS BOND ANGLE DIHED IMPRP ELECT VDW BOUNDARY MISC KINETIC TOTAL TEMP POTENTIAL TOTAL3 TEMPAVG PRESSURE GPRESSURE VOLUME PRESSAVG GPRESSAVG
ENERGY: 0 4.5921 11.4778 7.8161 0.0459 -22832.3308 2301.1264 0.0000 0.0000 3952.7414 -16554.5311 299.9487 -20507.2725 -16546.7400 299.9487 -48.3687 -48.3098 589504.5926 -48.3687 -48.3098
ENERGY: 1000 4.7484 11.7778 5.9495 0.2695 -22836.3238 2377.3741 0.0000 0.0000 3925.5753 -16510.6292 297.8873 -20436.2045 -16505.3290 297.1236 14.7001 15.4170 596948.2047 2.8154 2.8423
ENERGY: 2000 3.9630 17.6423 4.1350 0.0097 -22864.0070 2415.9917 0.0000 0.0000 3901.2721 -16520.9933 296.0430 -20422.2654 -16513.3121 299.5114 23.3805 24.3372 608197.2046 3.9401 3.9592
ENERGY: 3000 6.7864 17.4387 7.3079 0.0290 -22777.6522 2370.3006 0.0000 0.0000 3872.4564 -16503.3332 293.8564 -20375.7896 -16495.3964 298.0755 -7.7305 -7.4282 602108.6741 -0.6346 -0.6369
ENERGY: 4000 4.4585 15.5322 5.5112 0.2179 -23063.6660 2488.4877 0.0000 0.0000 3967.1389 -16582.3195 301.0413 -20549.4585 -16574.8411 298.0360 21.7423 22.0524 593800.6311 0.0455 0.0370
ENERGY: 5000 3.2188 11.7950 5.8413 0.1492 -22967.2028 2416.3809 0.0000 0.0000 3942.9644 -16586.8531 299.2068 -20529.8175 -16582.2786 295.1312 -9.5709 -9.6879 597141.6184 0.4169 0.4473
TCL: Running FEP window  10: Lambda1 0.4375 Lambda2 0.375  [dLambda -0.0625]
TCL: Setting parameter firsttimestep to 0
TCL: Setting parameter alchLambda to 0.4375
Info: NONBONDED TABLE R-SQUARED SPACING: 0.0625
Info: NONBONDED TABLE SIZE: 769 POINTS
TCL: Setting parameter alchLambda2 to 0.375
Info: NONBONDED TABLE R-SQUARED SPACING: 0.0625
Info: NONBONDED TABLE SIZE: 769 POINTS
TCL: Running for 5000 steps
ETITLE: TS BOND ANGLE DIHED IMPRP ELECT VDW BOUNDARY MISC KINETIC TOTAL TEMP POTENTIAL TOTAL3 TEMPAVG PRESSURE GPRESSURE VOLUME PRESSAVG GPRESSAVG
ENERGY: 0 3.2188 11.7950 5.8413 0.1492 -22967.2028 2417.1785 0.0000 0.0000 3942.8470 -16586.1729 299.1979 -20529.0199 -16579.5819 299.1979 -10.5729 -10.4206 597141.6184 -10.5729 -10.4206
ENERGY: 1000 2.2540 16.3532 4.6740 0.2978 -22815.6146 2348.0672 0.0000 0.0000 3913.2069 -16530.7615 296.9487 -20443.9684 -16524.1576 298.5504 -21.5457 -20.2749 603109.0980 0.9819 0.9684
ENERGY: 2000 4.6970 13.2302 4.0246 0.0812 -22953.9839 2425.8310 0.0000 0.0000 3877.1979 -16628.9220 294.2162 -20506.1199 -16622.0466 296.9525 -2.0719 -1.5840 594644.5162 2.6508 2.6362
ENERGY: 3000 1.8531 18.3530 4.5259 0.2263 -22812.8967 2302.3819 0.0000 0.0000 3912.6942 -16572.8622 296.9098 -20485.5565 -16565.0926 295.7831 -52.1511 -52.1992 582047.9417 -0.5772 -0.5741
ENERGY: 4000 8.4841 16.3219 5.9049 0.1301 -23014.7049 2448.8765 0.0000 0.0000 3890.9503 -16644.0371 295.2598 -20534.9875 -16637.6561 295.3830 12.9982 12.6551 581252.5576 0.1018 0.1377
ENERGY: 5000 2.2264 15.1999 6.0763 0.0280 -22927.4521 2402.1320 0.0000 0.0000 3902.8543 -16598.9352 296.1631 -20501.7895 -16591.3251 295.8102 15.6808 15.3735 579945.7851 -0.3797 -0.4091
TCL: Running FEP window  11: Lambda1 0.375  Lambda2 0.3125 [dLambda -0.0625]
TCL: Setting parameter firsttimestep to 0
TCL: Setting parameter alchLambda to 0.375
Info: NONBONDED TABLE R-SQUARED SPACING: 0.0625
Info: NONBONDED TABLE SIZE: 769 POINTS
TCL: Setting parameter alchLambda2 to 0.3125
Info: NONBONDED TABLE R-SQUARED SPACING: 0.0625
Info: NONBONDED TABLE SIZE: 769 POINTS
TCL: Running for 5000 steps
ETITLE: TS BOND ANGLE DIHED IMPRP ELECT VDW BOUNDARY MISC KINETIC TOTAL TEMP POTENTIAL TOTAL3 TEMPAVG PRESSURE GPRESSURE VOLUME PRESSAVG GPRESSAVG
ENERGY: 0 2.2264 15.1999 6.0763 0.0280 -22927.4521 2400.5273 0.0000 0.0000 3902.7293 -16600.6649 296.1536 -20503.3942 -16593.1613 296.1536 14.4116 13.9317 579945.7851 14.4116 13.9317
ENERGY: 1000 2.8492 11.3962 5.4509 0.0617 -22934.3190 2387.1284 0.0000 0.0000 3886.9916 -16640.4411 294.9594 -20527.4327 -16634.7383 296.9541 9.0438 8.5919 569079.6255 1.8968 1.8842
ENERGY: 2000 5.0098 15.0224 9.1497 0.0711 -22769.6340 2335.0470 0.0000 0.0000 3899.9659 -16505.3681 295.9439 -20405.3341 -16495.4377 297.6306 -12.1623 -13.1609 565365.9834 0.3123 0.3570
ENERGY: 3000 3.3682 10.6026 7.0570 0.0742 -22996.7847 2417.5603 0.0000 0.0000 3992.1482 -16565.9741 302.9391 -20558.1222 -16557.3467 298.9148 4.0310 4.7915 577850.4956 -0.2670 -0.2699
ENERGY: 4000 2.2836 16.6133 5.3980 0.2143 -22808.8684 2362.2703 0.0000 0.0000 3881.9924 -16540.0964 294.5800 -20422.0888 -16534.1282 298.1091 -7.8162 -6.9550 585578.4638 0.2455 0.2142
ENERGY: 5000 4.8796 14.2986 8.2385 0.0304 -23084.5047 2463.2782 0.0000 0.0000 3942.0921 -16651.6873 299.1406 -20593.7794 -16643.6386 295.3482 18.9968 18.9925 575583.0372 -0.3188 -0.3170
TCL: Running FEP window  12: Lambda1 0.3125 Lambda2 0.25   [dLambda -0.0625]
TCL: Setting parameter firsttimestep to 0
TCL: Setting parameter alchLambda to 0.3125
Info: NONBONDED TABLE R-SQUARED SPACING: 0.0625
Info: NONBONDED TABLE SIZE: 769 POINTS
TCL: Setting parameter alchLambda2 to 0.25
Info: NONBONDED TABLE R-SQUARED SPACING: 0.0625
Info: NONBONDED TABLE SIZE: 769 POINTS
TCL: Running for 5000 steps
ETITLE: TS BOND ANGLE DIHED IMPRP ELECT VDW BOUNDARY MISC KINETIC TOTAL TEMP POTENTIAL TOTAL3 TEMPAVG PRESSURE GPRESSURE VOLUME PRESSAVG GPRESSAVG
ENERGY: 0 4.8796 14.2986 8.2385 0.0304 -23084.5047 2463.2627 0.0000 0.0000 3941.9715 -16651.8234 299.1315 -20593.7948 -16644.5978 299.1315 18.3158 18.3282 575583.0372 18.3158 18.3282
ENERGY: 1000 3.6970 18.3479 3.5888 0.0087 -22964.3231 2426.0799 0.0000 0.0000 3896.3914 -16616.2095 295.6727 -20512.6008 -16607.4148 294.4630 -6.1272 -6.1471 565052.5718 0.6213 0.5852
ENERGY: 2000 1.3737 16.6303 4.5405 0.0110 -22998.9763 2427.5511 0.0000 0.0000 3858.2178 -16690.6518 292.7759 -20548.8696 -16682.6495 294.6135 -13.1806 -12.5106 556920.3792 2.5115 2.5353
ENERGY: 3000 4.8992 11.0629 4.9384 0.1022 -22917.1513 2422.0424 0.0000 0.0000 3881.2087 -16592.8975 294.5206 -20474.1061 -16585.7858 294.1447 -5.7238 -5.6141 548739.1125 0.9191 0.9184
ENERGY: 4000 6.8777 11.9806 5.0331 0.0870 -22917.0264 2352.4559 0.0000 0.0000 3834.8826 -16705.7096 291.0052 -20540.5922 -16698.1901 294.4137 -11.3936 -11.6729 538159.2457 0.8067 0.8072
ENERGY: 5000 1.4858 13.2867 5.6686 0.0138 -22860.4053 2405.2760 0.0000 0.0000 3873.8564 -16560.8180 293.9626 -20434.6744 -16552.3790 297.8197 -3.1028 -2.6143 551581.0817 1.0691 1.0793
TCL: Running FEP window  13: Lambda1 0.25   Lambda2 0.1875 [dLambda -0.0625]
TCL: Setting parameter firsttimestep to 0
TCL: Setting parameter alchLambda to 0.25
Info: NONBONDED TABLE R-SQUARED SPACING: 0.0625
Info: NONBONDED TABLE SIZE: 769 POINTS
TCL: Setting parameter alchLambda2 to 0.1875
Info: NONBONDED TABLE R-SQUARED SPACING: 0.0625
Info: NONBONDED TABLE SIZE: 769 POINTS
TCL: Running for 5000 steps
ETITLE: TS BOND ANGLE DIHED IMPRP ELECT VDW BOUNDARY MISC KINETIC TOTAL TEMP POTENTIAL TOTAL3 TEMPAVG PRESSURE GPRESSURE VOLUME PRESSAVG GPRESSAVG
ENERGY: 0 1.4858 13.2867 5.6686 0.0138 -22860.4053 2404.4274 0.0000 0.0000 3873.7351 -16561.7879 293.9534 -20435.5230 -16552.9433 293.9534 -3.6749 -3.6039 551581.0817 -3.6749 -3.6039
ENERGY: 1000 3.4399 20.2168 5.3178 0.1829 -22852.4696 2391.3651 0.0000 0.0000 3837.4863 -16594.4607 291.2027 -20431.9471 -16587.9701 298.4056 -19.9119 -19.4021 556429.9055 3.1430 3.1516
ENERGY: 2000 6.5763 17.4150 7.0870 0.2498 -22796.2096 2341.0150 0.0000 0.0000 3848.7277 -16575.1389 292.0558 -20423.8666 -16566.9198 296.9970 -38.8214 -38.4939 552211.6525 0.2558 0.2263
ENERGY: 3000 2.5680 19.2278 8.2266 0.0402 -22835.5148 2345.0672 0.0000 0.0000 3939.1968 -16521.1883 298.9209 -20460.3851 -16511.4100 297.0298 -15.0106 -15.0533 569689.5308 1.3698 1.3665
ENERGY: 4000 4.6200 20.5549 3.6103 0.0363 -22892.9436 2377.1074 0.0000 0.0000 3910.4181 -16576.5966 296.7371 -20487.0148 -16567.4077 299.0724 0.8973 0.1787 574803.0183 1.1423 1.1127
ENERGY: 5000 2.4030 15.5169 3.8564 0.1223 -22979.6936 2480.1100 0.0000 0.0000 3907.4804 -16570.2046 296.5142 -20477.6850 -16562.9460 296.0503 35.9713 36.0645 572932.2309 2.8354 2.7972
TCL: Running FEP window  14: Lambda1 0.1875 Lambda2 0.125  [dLambda -0.0625]
TCL: Setting parameter firsttimestep to 0
TCL: Setting parameter alchLambda to 0.1875
Info: NONBONDED TABLE R-SQUARED SPACING: 0.0625
Info: NONBONDED TABLE SIZE: 769 POINTS
TCL: Setting parameter alchLambda2 to 0.125
Info: NONBONDED TABLE R-SQUARED SPACING: 0.0625
Info: NONBONDED TABLE SIZE: 769 POINTS
TCL: Running for 5000 steps
ETITLE: TS BOND ANGLE DIHED IMPRP ELECT VDW BOUNDARY MISC KINETIC TOTAL TEMP POTENTIAL TOTAL3 TEMPAVG PRESSURE GPRESSURE VOLUME PRESSAVG GPRESSAVG
ENERGY: 0 2.4030 15.5169 3.8564 0.1223 -22979.6936 2478.2139 0.0000 0.0000 3907.3624 -16572.2187 296.5052 -20479.5811 -16564.6557 296.5052 35.4013 35.2757 572932.2309 35.4013 35.2757
ENERGY: 1000 2.0077 13.7213 3.9333 0.0088 -22970.7484 2412.9010 0.0000 0.0000 3855.1917 -16682.9847 292.5463 -20538.1764 -16679.9593 297.6196 -25.0841 -26.0104 565240.7251 0.2779 0.3176
ENERGY: 2000 0.7712 15.9494 5.1710 0.0782 -23019.5695 2418.1123 0.0000 0.0000 3954.1170 -16625.3703 300.0531 -20579.4873 -16616.7708 296.5838 19.7963 19.8952 530258.7464 2.2595 2.2746
ENERGY: 3000 3.8473 14.7859 3.8973 0.2837 -22996.1384 2496.2409 0.0000 0.0000 3875.4675 -16601.6157 294.0849 -20477.0832 -16593.8411 296.9344 14.0641 15.5012 539404.4533 0.4619 0.4688
ENERGY: 4000 4.3450 19.3318 4.6133 0.1599 -22803.7960 2378.8394 0.0000 0.0000 3966.9352 -16429.5714 301.0258 -20396.5066 -16422.7276 300.1262 -2.7740 -3.0448 523342.6335 2.3707 2.3601
ENERGY: 5000 2.6011 14.4379 4.6346 0.1411 -22929.2874 2374.5829 0.0000 0.0000 3878.8188 -16654.0710 294.3392 -20532.8898 -16644.2680 296.8350 -28.4320 -27.8889 508577.9241 1.0809 1.0682
TCL: Running FEP window  15: Lambda1 0.125  Lambda2 0.0625 [dLambda -0.0625]
TCL: Setting parameter firsttimestep to 0
TCL: Setting parameter alchLambda to 0.125
Info: NONBONDED TABLE R-SQUARED SPACING: 0.0625
Info: NONBONDED TABLE SIZE: 769 POINTS
TCL: Setting parameter alchLambda2 to 0.0625
Info: NONBONDED TABLE R-SQUARED SPACING: 0.0625
Info: NONBONDED TABLE SIZE: 769 POINTS
TCL: Running for 5000 steps
ETITLE: TS BOND ANGLE DIHED IMPRP ELECT VDW BOUNDARY MISC KINETIC TOTAL TEMP POTENTIAL TOTAL3 TEMPAVG PRESSURE GPRESSURE VOLUME PRESSAVG GPRESSAVG
ENERGY: 0 2.6011 14.4379 4.6346 0.1411 -22929.2874 2375.0669 0.0000 0.0000 3878.6962 -16653.7096 294.3299 -20532.4058 -16645.0005 294.3299 -28.3911 -28.1774 508577.9241 -28.3911 -28.1774
ENERGY: 1000 3.2393 18.2940 7.8243 0.1526 -22944.8211 2368.0424 0.0000 0.0000 3916.5736 -16630.6948 297.2042 -20547.2684 -16622.3912 295.4574 -20.3202 -20.6972 501614.0415 0.2494 0.2859
ENERGY: 2000 3.8460 8.4453 7.9794 0.1767 -22938.5822 2359.6396 0.0000 0.0000 3907.1297 -16651.3656 296.4875 -20558.4953 -16641.4924 294.2266 -37.8807 -38.3385 493157.1474 2.5408 2.5207
ENERGY: 3000 9.3635 20.4368 5.0648 0.2931 -22845.9272 2340.9824 0.0000 0.0000 3879.8041 -16589.9825 294.4140 -20469.7867 -16580.7906 298.4592 -39.6892 -39.6866 489987.9278 2.6366 2.6631
ENERGY: 4000 4.3052 18.2499 4.5223 0.0045 -22907.7979 2402.2652 0.0000 0.0000 3943.4408 -16535.0100 299.2430 -20478.4508 -16528.4299 297.0813 -35.1855 -34.9079 489046.4211 0.8973 0.9075
ENERGY: 5000 4.3835 19.0929 5.8564 0.1073 -22975.0257 2433.5458 0.0000 0.0000 3935.0621 -16576.9776 298.6072 -20512.0398 -16569.4944 297.2864 12.5719 12.7941 475318.0460 -0.0494 -0.0420
TCL: Running FEP window  16: Lambda1 0.0625 Lambda2 0.0    [dLambda -0.0625]
TCL: Setting parameter firsttimestep to 0
TCL: Setting parameter alchLambda to 0.0625
Info: NONBONDED TABLE R-SQUARED SPACING: 0.0625
Info: NONBONDED TABLE SIZE: 769 POINTS
TCL: Setting parameter alchLambda2 to 0.0
Info: NONBONDED TABLE R-SQUARED SPACING: 0.0625
Info: NONBONDED TABLE SIZE: 769 POINTS
TCL: Running for 5000 steps
ETITLE: TS BOND ANGLE DIHED IMPRP ELECT VDW BOUNDARY MISC KINETIC TOTAL TEMP POTENTIAL TOTAL3 TEMPAVG PRESSURE GPRESSURE VOLUME PRESSAVG GPRESSAVG
ENERGY: 0 4.3835 19.0929 5.8564 0.1073 -22975.0257 2432.7854 0.0000 0.0000 3934.9411 -16577.8591 298.5980 -20512.8002 -16570.3794 298.5980 12.5139 12.4988 475318.0460 12.5139 12.4988
ENERGY: 1000 1.9154 14.2906 6.1732 0.0611 -22932.6872 2448.3289 0.0000 0.0000 3902.5974 -16559.3206 296.1436 -20461.9179 -16550.9446 296.6006 24.4133 24.6978 487346.6189 1.9796 1.9985
ENERGY: 2000 4.3652 13.9536 5.6696 0.1220 -22911.7196 2373.3371 0.0000 0.0000 3931.2049 -16583.0671 298.3145 -20514.2721 -16576.9146 297.7657 -6.8203 -7.1499 472622.0556 1.3519 1.4070
ENERGY: 3000 3.6018 18.6454 6.6986 0.3847 -22954.5912 2444.1874 0.0000 0.0000 3930.6437 -16550.4295 298.2719 -20481.0733 -16542.2454 299.1731 23.9084 24.4398 469657.5637 4.1486 4.1243
ENERGY: 4000 2.5008 12.0584 7.9392 0.5319 -23014.1646 2458.1562 0.0000 0.0000 3890.7954 -16642.1828 295.2480 -20532.9782 -16634.2756 295.5037 17.2094 17.5570 480809.4461 3.0400 3.0709
ENERGY: 5000 2.9274 15.1891 5.0701 0.0894 -23085.7229 2504.7863 0.0000 0.0000 3965.3803 -16592.2803 300.9078 -20557.6606 -16584.7725 298.2270 46.0888 46.8052 492094.4936 0.2966 0.3050
