Info: SIMULATION PARAMETERS:
Info: TIMESTEP               2
Info: NUMBER OF STEPS        0
Info: STEPS PER CYCLE        10
Info: PERIODIC CELL BASIS 1  41.123 0 0
Info: PERIODIC CELL BASIS 2  0 41.891 0
Info: PERIODIC CELL BASIS 3  0 0 39.561
Info: PERIODIC CELL CENTER   0 0 0
Info: WRAPPING WATERS AROUND PERIODIC BOUNDARIES ON OUTPUT.
Info: WRAPPING ALL CLUSTERS AROUND PERIODIC BOUNDARIES ON OUTPUT.
Info: FIRST LDB TIMESTEP     50
Info: LAST LDB TIMESTEP     -1
Info: HOM BACKGROUND SCALING 1
Info: PME BACKGROUND SCALING 1
Info: MIN ATOMS PER PATCH    40
Info: EMPTY PATCH LOAD       40 ATOMS
Info: INITIAL TEMPERATURE    300
Info: CENTER OF MASS MOVING INITIALLY? NO
Info: DIELECTRIC             1
Info: EXCLUDE                SCALED ONE-FOUR
Info: 1-4 ELECTROSTATICS SCALED BY 0.833333
Info: MODIFIED 1-4 VDW PARAMETERS WILL BE USED
Info: DCD FILENAME           mobley_6006813_min.dcd
Info: DCD FREQUENCY          5000
Info: DCD FIRST STEP         5000
Info: DCD FILE WILL CONTAIN UNIT CELL DATA
Info: XST FILENAME           mobley_6006813_min.xst
Info: XST FREQUENCY          5000
Info: NO VELOCITY DCD OUTPUT
Info: NO FORCE DCD OUTPUT
Info: OUTPUT FILENAME        mobley_6006813_min
Info: BINARY OUTPUT FILES WILL BE USED
Info: RESTART FILENAME       mobley_6006813_min.restart
Info: RESTART FREQUENCY      5000
Info: BINARY RESTART FILES WILL BE USED
Info: CUTOFF                 9
Info: PAIRLIST DISTANCE      11
Info: PAIRLIST SHRINK RATE   0.01
Info: PAIRLIST GROW RATE     0.01
Info: PAIRLIST TRIGGER       0.3
Info: PAIRLISTS PER CYCLE    2
Info: PAIRLISTS ENABLED
Info: MARGIN                 8
Info: HYDROGEN GROUP CUTOFF  2.5
Info: PATCH DIMENSION        21.5
Info: ENERGY OUTPUT STEPS    5000
Info: ENERGY EVALUATION STEPS    5000
Info: OUTPUT ENERGY PRECISION 4
Info: CROSSTERM ENERGY INCLUDED IN DIHEDRAL
Info: TIMING OUTPUT STEPS    50000
Info: PRESSURE OUTPUT STEPS  5000
Info: LANGEVIN DYNAMICS ACTIVE
Info: LANGEVIN TEMPERATURE   300
Info: LANGEVIN USING BBK INTEGRATOR
Info: LANGEVIN DAMPING COEFFICIENT IS 1 INVERSE PS
Info: LANGEVIN DYNAMICS APPLIED TO HYDROGENS
Info: LANGEVIN PISTON PRESSURE CONTROL ACTIVE
Info:        TARGET PRESSURE IS 1.01325 BAR
Info:     OSCILLATION PERIOD IS 50 FS
Info:             DECAY TIME IS 25 FS
Info:     PISTON TEMPERATURE IS 300 K
Info:       PRESSURE CONTROL IS GROUP-BASED
Info:    INITIAL STRAIN RATE IS 0 0 0
Info:       CELL FLUCTUATION IS ISOTROPIC
Info: PARTICLE MESH EWALD (PME) ACTIVE
Info: PME TOLERANCE               1e-06
Info: PME EWALD COEFFICIENT       0.348832
Info: PME INTERPOLATION ORDER     4
Info: PME GRID DIMENSIONS         44 44 40
Info: PME MAXIMUM GRID SPACING    1
Info: FULL ELECTROSTATIC EVALUATION FREQUENCY      2
Info: USING VERLET I (r-RESPA) MTS SCHEME.
Info: C1 SPLITTING OF LONG RANGE ELECTROSTATICS
Info: PLACING ATOMS IN PATCHES BY HYDROGEN GROUPS
Info: RIGID BONDS TO HYDROGEN : ALL
Info:         ERROR TOLERANCE : 1e-08
Info:          MAX ITERATIONS : 100
Info: RIGID WATER USING SETTLE ALGORITHM
Info: RANDOM NUMBER SEED     1741348849
Info: USE HYDROGEN BONDS?    NO
Info: Using AMBER format force field!
Info: AMBER PARM FILE        mobley_6006813.prmtop
Info: COORDINATE PDB         mobley_6006813.pdb
Info: Exclusions will be read from PARM file!
Info: SCNB (VDW SCALING)     2
Info: USING ARITHMETIC MEAN TO COMBINE L-J SIGMA PARAMETERS
Info: SUMMARY OF PARAMETERS:
Info: 7 BONDS
Info: 9 ANGLES
Info:   9 HARMONIC
Info:   0 COSINE-BASED
Info: 6 DIHEDRAL
Info: 0 IMPROPER
Info: 0 CROSSTERM
Info: 0 VDW
Info: 28 VDW_PAIRS
Info: 0 NBTHOLE_PAIRS
Info: STRUCTURE SUMMARY:
Info: 4960 ATOMS
Info: 4959 BONDS
Info: 27 ANGLES
Info: 33 DIHEDRALS
Info: 0 IMPROPERS
Info: 0 CROSSTERMS
Info: 5019 EXCLUSIONS
Info: 4953 RIGID BONDS
Info: 9927 DEGREES OF FREEDOM
Info: 1655 HYDROGEN GROUPS
Info: 4 ATOMS IN LARGEST HYDROGEN GROUP
Info: 1655 MIGRATION GROUPS
Info: 4 ATOMS IN LARGEST MIGRATION GROUP
Info: TOTAL MASS = 29793.5 amu
Info: TOTAL CHARGE = -9.99905e-05 e
Info: MASS DENSITY = 0.725952 g/cm^3
Info: ATOM DENSITY = 0.0727795 atoms/A^3
Info: ADDED 0 IMPLICIT EXCLUSIONS
Info: NONBONDED TABLE R-SQUARED SPACING: 0.0625
Info: NONBONDED TABLE SIZE: 705 POINTS
Info: REMOVING COM VELOCITY 0.0378858 0.187568 0.0919987
TCL: Minimizing for 2000 steps
ETITLE: TS BOND ANGLE DIHED IMPRP ELECT VDW BOUNDARY MISC KINETIC TOTAL TEMP POTENTIAL TOTAL3 TEMPAVG PRESSURE GPRESSURE VOLUME PRESSAVG GPRESSAVG
ENERGY: 0 1.0834 0.5267 0.0117 0.0000 -15378.4645 1704.9702 0.0000 0.0000 0.0000 -13671.8725 0.0000 -13671.8725 -13671.8725 0.0000 10964.3340 -15983.7821 68151.0856 10964.3340 -15983.7821
ENERGY: 400 3.4465 1.9499 0.0300 0.0000 -21008.3670 3156.1599 0.0000 0.0000 0.0000 -17846.7807 0.0000 -17846.7807 -17846.7807 0.0000 16437.4018 16586.1030 68151.0856 16437.4018 16586.1030
ENERGY: 800 0.4374 0.9256 0.0271 0.0000 -21813.4292 3470.5714 0.0000 0.0000 0.0000 -18341.4677 0.0000 -18341.4677 -18341.4677 0.0000 17909.3037 18029.7173 68151.0856 17909.3037 18029.7173
ENERGY: 1200 0.3511 0.4955 0.0270 0.0000 -22269.2824 3683.7515 0.0000 0.0000 0.0000 -18584.6572 0.0000 -18584.6572 -18584.6572 0.0000 18926.9718 19030.5463 68151.0856 18926.9718 19030.5463
ENERGY: 1600 0.3064 0.3360 0.0178 0.0000 -22431.6814 3739.4083 0.0000 0.0000 0.0000 -18691.6129 0.0000 -18691.6129 -18691.6129 0.0000 19219.1133 19322.4732 68151.0856 19219.1133 19322.4732
ENERGY: 2000 0.1166 0.3321 0.0354 0.0000 -22550.1494 3789.7190 0.0000 0.0000 0.0000 -18759.9465 0.0000 -18759.9465 -18759.9465 0.0000 19464.4907 19563.8464 68151.0856 19464.4907 19563.8464
TCL: Exiting due to exit command.
Info: NAMD 3.0.1 for Linux-x86_64-multicore
Info: Please visit http://www.ks.uiuc.edu/Research/namd/
Info: for updates, documentation, and support information.
Info: Please cite Phillips et al., J. Chem. Phys. 153:044130 (2020) doi:10.1063/5.0014475
Info: in all publications reporting results obtained with NAMD.
Info: Based on Charm++/Converse 80000 for multicore-linux-x86_64-gcc
Info: Built Mon Oct 14 11:11:06 CDT 2024 by dhardy on athine.ks.uiuc.edu
Info: 1 NAMD  3.0.1  Linux-x86_64-multicore  16    k013  z5358697
Info: Running on 16 processors, 1 nodes, 1 physical nodes.
Info: CPU topology information available.
Info: Charm++/Converse parallel runtime startup completed at 0.00990324 s
Info: 1043.45 MB of memory in use based on /proc/self/stat
Info: Configuration file is mobley_6006813_equil.namd
Info: Working in the current directory /srv/scratch/z5358697/prod_prep_7/6006813
TCL: Running 25000 steps at 30 kelvin.
TCL: Suspending until startup complete.
Info: SIMULATION PARAMETERS:
Info: TIMESTEP               2
Info: NUMBER OF STEPS        0
Info: STEPS PER CYCLE        10
Info: PERIODIC CELL BASIS 1  41.123 0 0
Info: PERIODIC CELL BASIS 2  0 41.891 0
Info: PERIODIC CELL BASIS 3  0 0 39.561
Info: PERIODIC CELL CENTER   0 0 0
Info: WRAPPING WATERS AROUND PERIODIC BOUNDARIES ON OUTPUT.
Info: WRAPPING ALL CLUSTERS AROUND PERIODIC BOUNDARIES ON OUTPUT.
Info: FIRST LDB TIMESTEP     50
Info: LAST LDB TIMESTEP     -1
Info: HOM BACKGROUND SCALING 1
Info: PME BACKGROUND SCALING 1
Info: MIN ATOMS PER PATCH    40
Info: EMPTY PATCH LOAD       40 ATOMS
Info: INITIAL TEMPERATURE    300
Info: CENTER OF MASS MOVING INITIALLY? NO
Info: DIELECTRIC             1
Info: EXCLUDE                SCALED ONE-FOUR
Info: 1-4 ELECTROSTATICS SCALED BY 0.833333
Info: MODIFIED 1-4 VDW PARAMETERS WILL BE USED
Info: DCD FILENAME           mobley_6006813_equil.dcd
Info: DCD FREQUENCY          5000
Info: DCD FIRST STEP         5000
Info: DCD FILE WILL CONTAIN UNIT CELL DATA
Info: XST FILENAME           mobley_6006813_equil.xst
Info: XST FREQUENCY          5000
Info: NO VELOCITY DCD OUTPUT
Info: NO FORCE DCD OUTPUT
Info: OUTPUT FILENAME        mobley_6006813_equil
Info: BINARY OUTPUT FILES WILL BE USED
Info: RESTART FILENAME       mobley_6006813_equil.restart
Info: RESTART FREQUENCY      5000
Info: BINARY RESTART FILES WILL BE USED
Info: CUTOFF                 9
Info: PAIRLIST DISTANCE      11
Info: PAIRLIST SHRINK RATE   0.01
Info: PAIRLIST GROW RATE     0.01
Info: PAIRLIST TRIGGER       0.3
Info: PAIRLISTS PER CYCLE    2
Info: PAIRLISTS ENABLED
Info: MARGIN                 8
Info: HYDROGEN GROUP CUTOFF  2.5
Info: PATCH DIMENSION        21.5
Info: ENERGY OUTPUT STEPS    5000
Info: ENERGY EVALUATION STEPS    5000
Info: OUTPUT ENERGY PRECISION 4
Info: CROSSTERM ENERGY INCLUDED IN DIHEDRAL
Info: TIMING OUTPUT STEPS    50000
Info: PRESSURE OUTPUT STEPS  5000
Info: LANGEVIN DYNAMICS ACTIVE
Info: LANGEVIN TEMPERATURE   30
Info: LANGEVIN USING BBK INTEGRATOR
Info: LANGEVIN DAMPING COEFFICIENT IS 1 INVERSE PS
Info: LANGEVIN DYNAMICS APPLIED TO HYDROGENS
Info: LANGEVIN PISTON PRESSURE CONTROL ACTIVE
Info:        TARGET PRESSURE IS 1.01325 BAR
Info:     OSCILLATION PERIOD IS 50 FS
Info:             DECAY TIME IS 25 FS
Info:     PISTON TEMPERATURE IS 300 K
Info:       PRESSURE CONTROL IS GROUP-BASED
Info:    INITIAL STRAIN RATE IS 0 0 0
Info:       CELL FLUCTUATION IS ISOTROPIC
Info: PARTICLE MESH EWALD (PME) ACTIVE
Info: PME TOLERANCE               1e-06
Info: PME EWALD COEFFICIENT       0.348832
Info: PME INTERPOLATION ORDER     4
Info: PME GRID DIMENSIONS         44 44 40
Info: PME MAXIMUM GRID SPACING    1
Info: FULL ELECTROSTATIC EVALUATION FREQUENCY      2
Info: USING VERLET I (r-RESPA) MTS SCHEME.
Info: C1 SPLITTING OF LONG RANGE ELECTROSTATICS
Info: PLACING ATOMS IN PATCHES BY HYDROGEN GROUPS
Info: RIGID BONDS TO HYDROGEN : ALL
Info:         ERROR TOLERANCE : 1e-08
Info:          MAX ITERATIONS : 100
Info: RIGID WATER USING SETTLE ALGORITHM
Info: RANDOM NUMBER SEED     1741348867
Info: USE HYDROGEN BONDS?    NO
Info: Using AMBER format force field!
Info: AMBER PARM FILE        mobley_6006813.prmtop
Info: COORDINATE PDB         mobley_6006813.pdb
Info: Exclusions will be read from PARM file!
Info: SCNB (VDW SCALING)     2
Info: USING ARITHMETIC MEAN TO COMBINE L-J SIGMA PARAMETERS
Info: BINARY COORDINATES     mobley_6006813_min.coor
Info: SUMMARY OF PARAMETERS:
Info: 7 BONDS
Info: 9 ANGLES
Info: 6 DIHEDRAL
Info: 0 IMPROPER
Info: 0 CROSSTERM
Info: 0 VDW
Info: 28 VDW_PAIRS
Info: 0 NBTHOLE_PAIRS
Info: STRUCTURE SUMMARY:
Info: 4960 ATOMS
Info: 4959 BONDS
Info: 27 ANGLES
Info: 33 DIHEDRALS
Info: 0 IMPROPERS
Info: 0 CROSSTERMS
Info: 5019 EXCLUSIONS
Info: 4953 RIGID BONDS
Info: 9927 DEGREES OF FREEDOM
Info: 1655 HYDROGEN GROUPS
Info: 4 ATOMS IN LARGEST HYDROGEN GROUP
Info: 1655 MIGRATION GROUPS
Info: 4 ATOMS IN LARGEST MIGRATION GROUP
Info: TOTAL MASS = 29793.5 amu
Info: TOTAL CHARGE = -9.99905e-05 e
Info: MASS DENSITY = 0.725952 g/cm^3
Info: ATOM DENSITY = 0.0727795 atoms/A^3
Info: ADDED 0 IMPLICIT EXCLUSIONS
Info: NONBONDED TABLE R-SQUARED SPACING: 0.0625
Info: NONBONDED TABLE SIZE: 705 POINTS
Info: REMOVING COM VELOCITY -0.0472528 -0.00357776 -0.0857334
TCL: Running for 25000 steps
ETITLE: TS BOND ANGLE DIHED IMPRP ELECT VDW BOUNDARY MISC KINETIC TOTAL TEMP POTENTIAL TOTAL3 TEMPAVG PRESSURE GPRESSURE VOLUME PRESSAVG GPRESSAVG
ENERGY: 0 0.1166 0.3321 0.0354 0.0000 -22550.1494 3789.7190 0.0000 0.0000 2910.3811 -15849.5654 295.0681 -18759.9465 -15848.9920 295.0681 -283.9800 -235.0011 68151.0856 -283.9800 -235.0011
ENERGY: 5000 0.1775 0.9853 0.0411 0.0000 -23836.0455 4197.4894 0.0000 0.0000 291.0884 -19346.2638 29.5119 -19637.3522 -19345.7558 47.6261 496.4164 559.2822 48132.9554 2.8821 2.9219
ENERGY: 10000 0.0490 0.8935 0.0284 0.0000 -23803.4593 4141.9231 0.0000 0.0000 297.8475 -19362.7179 30.1972 -19660.5653 -19362.2808 30.1436 49.2603 112.1721 48429.1264 2.4224 2.7619
ENERGY: 15000 0.1387 1.0964 0.0538 0.0000 -23764.6727 4089.9454 0.0000 0.0000 298.6412 -19374.7971 30.2776 -19673.4384 -19373.8425 29.9651 -189.4709 -127.6253 48296.1516 -0.4487 -0.3799
ENERGY: 20000 0.1094 1.2602 0.1124 0.0000 -23891.0591 4202.0142 0.0000 0.0000 292.9249 -19394.6379 29.6981 -19687.5628 -19393.8018 30.1421 377.0393 437.3159 48131.5615 -0.3348 -0.5346
ENERGY: 25000 0.2262 0.9701 0.0344 0.0000 -23793.0949 4092.8456 0.0000 0.0000 298.4644 -19400.5542 30.2597 -19699.0186 -19399.9436 29.9523 -192.0422 -112.5043 48236.9686 2.3735 2.6829
TCL: Running 25000 steps at 60 kelvin.
TCL: Setting parameter langevinTemp to 60
TCL: Running for 25000 steps
ETITLE: TS BOND ANGLE DIHED IMPRP ELECT VDW BOUNDARY MISC KINETIC TOTAL TEMP POTENTIAL TOTAL3 TEMPAVG PRESSURE GPRESSURE VOLUME PRESSAVG GPRESSAVG
ENERGY: 25000 0.2262 0.9701 0.0344 0.0000 -23793.0949 4092.8456 0.0000 0.0000 298.3173 -19400.7014 30.2448 -19699.0186 -19399.9909 30.2448 -176.4243 -112.5660 48236.9686 -176.4243 -112.5660
ENERGY: 30000 0.7874 1.6526 0.1933 0.0000 -23306.5532 3864.6571 0.0000 0.0000 585.8687 -18853.3940 59.3981 -19439.2628 -18851.8019 57.1823 -780.2250 -728.2939 48649.1153 4.6564 4.8443
ENERGY: 35000 0.3217 1.9823 0.0950 0.0000 -23574.5704 4111.4685 0.0000 0.0000 587.4765 -18873.2262 59.5611 -19460.7027 -18871.7490 60.0678 495.4922 560.0376 48266.8436 3.8066 3.7240
ENERGY: 40000 0.3039 1.7730 0.5763 0.0000 -23431.9382 3935.3942 0.0000 0.0000 597.9053 -18895.9855 60.6184 -19493.8908 -18894.4523 60.0574 -430.2503 -353.5305 48207.8144 -1.7823 -2.0210
ENERGY: 45000 0.2242 1.0779 0.1829 0.0000 -23579.0010 4060.5947 0.0000 0.0000 590.3754 -18926.5459 59.8550 -19516.9213 -18925.0992 60.1306 198.5086 247.1643 47818.8140 -2.3134 -2.3768
ENERGY: 50000 0.7241 2.2470 0.1256 0.0000 -23676.2689 4114.3834 0.0000 0.0000 591.2536 -18967.5352 59.9441 -19558.7888 -18966.9505 60.4373 341.4915 392.7675 47923.1459 1.3818 1.3418
TCL: Running 25000 steps at 90 kelvin.
TCL: Setting parameter langevinTemp to 90
TCL: Running for 25000 steps
ETITLE: TS BOND ANGLE DIHED IMPRP ELECT VDW BOUNDARY MISC KINETIC TOTAL TEMP POTENTIAL TOTAL3 TEMPAVG PRESSURE GPRESSURE VOLUME PRESSAVG GPRESSAVG
ENERGY: 50000 0.7241 2.2470 0.1256 0.0000 -23676.2689 4114.3834 0.0000 0.0000 590.9616 -18967.8272 59.9145 -19558.7888 -18966.5453 59.9145 325.0099 391.9628 47923.1459 325.0099 391.9628
ENERGY: 55000 0.3306 2.2651 0.0257 0.0000 -23006.4408 3757.1378 0.0000 0.0000 882.0939 -18364.5876 89.4308 -19246.6815 -18362.1678 87.2631 -753.6323 -708.4993 48485.7979 -1.0617 -1.0515
ENERGY: 60000 0.6218 2.2440 0.0612 0.0000 -23125.0464 3809.9008 0.0000 0.0000 899.2353 -18412.9833 91.1687 -19312.2186 -18410.5834 90.1488 -612.7831 -584.3356 48296.8065 0.2429 0.3364
ENERGY: 65000 0.2513 2.8671 0.2028 0.0000 -23539.2209 4181.5833 0.0000 0.0000 896.4640 -18457.8524 90.8877 -19354.3164 -18456.4610 90.4880 1192.0238 1233.6552 47711.2091 2.2129 2.1029
ENERGY: 70000 1.0999 2.4215 0.1405 0.0000 -23296.1693 3895.9708 0.0000 0.0000 895.4855 -18501.0512 90.7885 -19396.5367 -18499.0366 90.4065 -469.8829 -416.7466 48268.9240 4.5157 4.2721
ENERGY: 75000 0.9723 2.5457 0.4996 0.0000 -23373.7089 3976.1101 0.0000 0.0000 870.4674 -18523.1138 88.2521 -19393.5812 -18520.3411 90.3039 111.9604 186.8518 47597.8975 0.2820 0.4401
TCL: Running 25000 steps at 120 kelvin.
TCL: Setting parameter langevinTemp to 120
TCL: Running for 25000 steps
ETITLE: TS BOND ANGLE DIHED IMPRP ELECT VDW BOUNDARY MISC KINETIC TOTAL TEMP POTENTIAL TOTAL3 TEMPAVG PRESSURE GPRESSURE VOLUME PRESSAVG GPRESSAVG
ENERGY: 75000 0.9723 2.5457 0.4996 0.0000 -23373.7089 3976.1101 0.0000 0.0000 870.0303 -18523.5509 88.2077 -19393.5812 -18521.7457 88.2077 139.2572 187.4165 47597.8975 139.2572 187.4165
ENERGY: 80000 0.6588 2.8495 0.3638 0.0000 -22792.7968 3738.4376 0.0000 0.0000 1198.7439 -17851.7433 121.5343 -19050.4871 -17849.1578 116.4973 -456.4172 -377.6175 48486.6185 4.9920 5.2774
ENERGY: 85000 0.7364 1.5903 0.2260 0.0000 -22999.7362 3857.9267 0.0000 0.0000 1206.4535 -17932.8034 122.3159 -19139.2569 -17928.8206 120.2266 51.8976 91.3035 48155.4044 5.5591 5.1670
ENERGY: 90000 0.5253 3.1000 1.0579 0.0000 -23191.6723 4056.6649 0.0000 0.0000 1212.3591 -17917.9651 122.9146 -19130.3242 -17915.7865 120.3678 1094.1510 1130.3629 47830.3515 5.7893 5.8773
ENERGY: 95000 1.1084 1.8953 0.7862 0.0000 -23093.2854 3919.9341 0.0000 0.0000 1184.7950 -17984.7663 120.1201 -19169.5613 -17981.8423 120.1327 397.6966 440.1462 47820.6629 1.2897 1.1412
ENERGY: 100000 0.2142 3.8250 0.1866 0.0000 -23067.9161 3876.1598 0.0000 0.0000 1205.5637 -17981.9668 122.2257 -19187.5304 -17980.4454 120.4528 88.5421 139.5005 47937.5230 5.6553 5.7679
TCL: Running 25000 steps at 150 kelvin.
TCL: Setting parameter langevinTemp to 150
TCL: Running for 25000 steps
ETITLE: TS BOND ANGLE DIHED IMPRP ELECT VDW BOUNDARY MISC KINETIC TOTAL TEMP POTENTIAL TOTAL3 TEMPAVG PRESSURE GPRESSURE VOLUME PRESSAVG GPRESSAVG
ENERGY: 100000 0.2142 3.8250 0.1866 0.0000 -23067.9161 3876.1598 0.0000 0.0000 1204.9775 -17982.5529 122.1663 -19187.5304 -17980.3781 122.1663 84.7033 138.8929 47937.5230 84.7033 138.8929
ENERGY: 105000 0.5405 2.3573 0.6659 0.0000 -22472.7479 3652.7418 0.0000 0.0000 1443.6645 -17372.7779 146.3655 -18816.4425 -17369.3556 146.5298 -276.9947 -197.1985 48159.9986 1.8184 2.0066
ENERGY: 110000 1.2680 3.8879 0.2989 0.0000 -22513.7176 3698.1915 0.0000 0.0000 1495.2212 -17314.8501 151.5925 -18810.0713 -17311.3144 149.6732 -141.7921 -98.3085 48590.6785 6.6931 6.7531
ENERGY: 115000 0.6228 4.7208 0.2770 0.0000 -22588.7890 3695.8129 0.0000 0.0000 1461.4051 -17425.9504 148.1641 -18887.3555 -17421.9055 150.2318 -331.1898 -278.5625 48286.8567 5.6785 5.7481
ENERGY: 120000 0.3144 2.9173 0.6197 0.0000 -22616.8336 3791.3641 0.0000 0.0000 1467.3370 -17354.2811 148.7655 -18821.6181 -17351.2463 149.2854 371.0539 416.4898 48080.0363 6.2445 6.4660
ENERGY: 125000 0.8529 3.0275 0.0512 0.0000 -22625.8437 3729.3418 0.0000 0.0000 1503.3910 -17389.1794 152.4208 -18892.5704 -17384.5546 150.5543 -86.0407 -57.9620 48257.7908 7.3020 7.3425
TCL: Running 50000 steps at 180 kelvin.
TCL: Setting parameter langevinTemp to 180
TCL: Running for 50000 steps
ETITLE: TS BOND ANGLE DIHED IMPRP ELECT VDW BOUNDARY MISC KINETIC TOTAL TEMP POTENTIAL TOTAL3 TEMPAVG PRESSURE GPRESSURE VOLUME PRESSAVG GPRESSAVG
ENERGY: 125000 0.8529 3.0275 0.0512 0.0000 -22625.8437 3729.3418 0.0000 0.0000 1502.6473 -17389.9230 152.3454 -18892.5704 -17387.0468 152.3454 -104.3112 -58.1377 48257.7908 -104.3112 -58.1377
ENERGY: 135000 0.4908 3.0618 0.4820 0.0000 -21923.1704 3569.1126 0.0000 0.0000 1765.9110 -16584.1122 179.0363 -18350.0232 -16578.8625 180.0679 163.1687 244.1920 48652.6360 3.3326 3.3082
ENERGY: 145000 0.7601 3.6839 0.3522 0.0000 -21907.5931 3500.2261 0.0000 0.0000 1823.6374 -16578.9335 184.8889 -18402.5709 -16573.9499 180.9346 4.4319 61.0612 48099.5769 5.6807 5.6835
ENERGY: 155000 0.1991 5.9455 0.3819 0.0000 -22258.5140 3792.5185 0.0000 0.0000 1783.4502 -16676.0188 180.8145 -18459.4690 -16672.4581 179.6016 1292.2092 1370.1925 47912.0485 4.5884 4.3399
ENERGY: 165000 1.8078 5.7457 0.1357 0.0000 -22054.9537 3607.7191 0.0000 0.0000 1740.1308 -16699.4146 176.4226 -18439.5454 -16695.6736 180.8857 302.3485 373.3743 48272.6898 4.0541 4.1498
ENERGY: 175000 1.4360 4.0613 0.7136 0.0000 -21895.4101 3463.2585 0.0000 0.0000 1756.8485 -16669.0923 178.1175 -18425.9407 -16663.1615 180.5557 -515.3285 -478.3097 48892.6890 0.5856 1.0852
TCL: Running 50000 steps at 210 kelvin.
TCL: Setting parameter langevinTemp to 210
TCL: Running for 50000 steps
ETITLE: TS BOND ANGLE DIHED IMPRP ELECT VDW BOUNDARY MISC KINETIC TOTAL TEMP POTENTIAL TOTAL3 TEMPAVG PRESSURE GPRESSURE VOLUME PRESSAVG GPRESSAVG
ENERGY: 175000 1.4360 4.0613 0.7136 0.0000 -21895.4101 3463.2585 0.0000 0.0000 1755.9528 -16669.9879 178.0267 -18425.9407 -16666.7947 178.0267 -536.8847 -477.3436 48892.6890 -536.8847 -477.3436
ENERGY: 185000 0.6398 3.7937 0.2286 0.0000 -21041.0604 3225.7816 0.0000 0.0000 2098.8025 -15711.8142 212.7864 -17810.6167 -15707.7183 208.8133 -249.6740 -176.3515 48674.1306 2.3566 2.5974
ENERGY: 195000 0.5510 4.7711 0.5357 0.0000 -21039.5888 3364.5605 0.0000 0.0000 2045.6501 -15623.5202 207.3976 -17669.1703 -15620.3751 210.1762 794.6762 892.0554 48107.1893 -1.9736 -0.7280
ENERGY: 205000 1.2690 4.3938 2.0133 0.0000 -20806.2243 3135.0172 0.0000 0.0000 2090.7136 -15572.8174 211.9663 -17663.5310 -15568.3386 210.7267 -237.4571 -144.4621 48546.0941 5.3330 4.7806
ENERGY: 215000 0.7633 4.2624 0.4734 0.0000 -20866.2194 3177.6845 0.0000 0.0000 2022.0013 -15661.0345 205.0000 -17683.0358 -15658.4363 209.1065 36.9279 114.3021 48133.1238 -2.5974 -3.0433
ENERGY: 225000 1.0860 4.7836 0.1032 0.0000 -21200.3159 3444.0367 0.0000 0.0000 2096.0286 -15654.2777 212.5052 -17750.3063 -15649.6441 210.6657 1247.7982 1328.5495 47777.6798 2.0804 2.0499
TCL: Running 50000 steps at 240 kelvin.
TCL: Setting parameter langevinTemp to 240
TCL: Running for 50000 steps
ETITLE: TS BOND ANGLE DIHED IMPRP ELECT VDW BOUNDARY MISC KINETIC TOTAL TEMP POTENTIAL TOTAL3 TEMPAVG PRESSURE GPRESSURE VOLUME PRESSAVG GPRESSAVG
ENERGY: 225000 1.0860 4.7836 0.1032 0.0000 -21200.3159 3444.0367 0.0000 0.0000 2095.0325 -15655.2738 212.4042 -17750.3063 -15652.0631 212.4042 1254.2049 1328.2550 47777.6798 1254.2049 1328.2550
ENERGY: 235000 0.7991 3.5233 0.7931 0.0000 -19822.0308 2857.2922 0.0000 0.0000 2349.3910 -14610.2321 238.1923 -16959.6231 -14603.7360 241.4925 -2.0367 48.6447 48478.4792 -1.5087 -1.1787
ENERGY: 245000 1.1212 3.1314 0.8770 0.0000 -19885.0334 2999.3250 0.0000 0.0000 2331.8492 -14548.7296 236.4138 -16880.5787 -14543.0516 240.9870 448.5296 512.7871 49262.5885 4.5369 4.5358
ENERGY: 255000 1.6936 5.3255 0.7562 0.0000 -19999.8029 2957.2820 0.0000 0.0000 2379.9400 -14654.8056 241.2895 -17034.7456 -14649.4038 239.8935 178.8878 251.2723 48659.3016 -3.2747 -3.0841
ENERGY: 265000 0.5369 5.8237 1.2115 0.0000 -19945.3679 2863.5224 0.0000 0.0000 2316.6138 -14757.6596 234.8692 -17074.2734 -14753.6300 238.8140 -342.6640 -269.9798 49020.2245 1.6153 1.4229
ENERGY: 275000 0.9974 5.7100 0.2163 0.0000 -19902.2018 2906.9227 0.0000 0.0000 2345.0981 -14643.2573 237.7570 -16988.3553 -14639.7525 240.2567 -3.8937 133.8541 48840.1215 -0.7003 -1.0025
TCL: Running 50000 steps at 270 kelvin.
TCL: Setting parameter langevinTemp to 270
TCL: Running for 50000 steps
ETITLE: TS BOND ANGLE DIHED IMPRP ELECT VDW BOUNDARY MISC KINETIC TOTAL TEMP POTENTIAL TOTAL3 TEMPAVG PRESSURE GPRESSURE VOLUME PRESSAVG GPRESSAVG
ENERGY: 275000 0.9974 5.7100 0.2163 0.0000 -19902.2018 2906.9227 0.0000 0.0000 2343.9177 -14644.4376 237.6374 -16988.3553 -14640.7588 237.6374 45.1856 132.6584 48840.1215 45.1856 132.6584
ENERGY: 285000 0.1872 11.2149 2.1740 0.0000 -18647.6570 2459.0587 0.0000 0.0000 2663.6391 -13511.3831 270.0522 -16175.0222 -13505.6041 270.9731 -606.7556 -491.7786 49488.3948 3.6424 2.9106
ENERGY: 295000 1.5529 5.7227 0.9025 0.0000 -19027.1387 2727.6487 0.0000 0.0000 2669.1831 -13622.1289 270.6143 -16291.3120 -13615.8950 268.9055 349.8049 422.0193 49721.5091 1.7405 1.4329
ENERGY: 305000 2.1806 4.9576 1.3752 0.0000 -18865.5340 2611.0378 0.0000 0.0000 2643.7331 -13602.2497 268.0340 -16245.9827 -13598.8255 271.8860 -280.1063 -140.1027 49744.7222 -1.5649 -1.3722
ENERGY: 315000 0.9871 4.6480 0.3752 0.0000 -18717.6236 2496.5075 0.0000 0.0000 2711.5242 -13503.5816 274.9070 -16215.1058 -13496.0314 269.6841 -752.9923 -604.9353 50274.6370 1.4463 1.6596
ENERGY: 325000 2.0275 3.9049 1.2215 0.0000 -18852.2941 2621.4891 0.0000 0.0000 2643.3603 -13580.2908 267.9963 -16223.6512 -13575.5206 269.4624 -144.0430 -68.6173 50246.8553 0.5569 0.7707
TCL: Running 1000000 steps at 300 kelvin.
TCL: Setting parameter langevinTemp to 300
TCL: Running for 1000000 steps
ETITLE: TS BOND ANGLE DIHED IMPRP ELECT VDW BOUNDARY MISC KINETIC TOTAL TEMP POTENTIAL TOTAL3 TEMPAVG PRESSURE GPRESSURE VOLUME PRESSAVG GPRESSAVG
ENERGY: 325000 2.0275 3.9049 1.2215 0.0000 -18852.2941 2621.4891 0.0000 0.0000 2642.0343 -13581.6168 267.8618 -16223.6512 -13577.4280 267.8618 -149.1532 -70.7025 50246.8553 -149.1532 -70.7025
ENERGY: 525000 0.4630 8.9204 0.7583 0.0000 -18009.1374 2447.5728 0.0000 0.0000 2955.6303 -12595.7927 299.6556 -15551.4230 -12590.7634 300.4934 76.0112 212.5830 50980.8399 2.5205 2.3960
ENERGY: 725000 2.2866 5.5159 1.4063 0.0000 -18042.9850 2361.7487 0.0000 0.0000 2933.4035 -12738.6241 297.4022 -15672.0275 -12729.6824 300.2729 -272.0031 -242.6016 50636.0341 0.5631 0.9774
ENERGY: 925000 2.2906 7.2770 2.9343 0.0000 -18033.8418 2516.9723 0.0000 0.0000 2953.9233 -12550.4443 299.4826 -15504.3676 -12545.0848 299.6541 622.5934 793.0354 50454.7129 6.1618 5.5115
ENERGY: 1125000 2.8290 7.0972 0.0830 0.0000 -17855.8305 2312.5986 0.0000 0.0000 2955.4491 -12577.7737 299.6373 -15533.2228 -12569.5525 303.2998 -428.2974 -358.7417 50899.1331 -1.6274 -0.7774
ENERGY: 1325000 2.6417 7.8240 1.7690 0.0000 -18012.1147 2445.5807 0.0000 0.0000 2940.1363 -12614.1630 298.0848 -15554.2993 -12608.3927 301.0546 173.7167 264.6165 51093.0817 3.4000 4.0566
TCL: Exiting due to exit command.
