Info: SIMULATION PARAMETERS:
Info: TIMESTEP               2
Info: NUMBER OF STEPS        0
Info: STEPS PER CYCLE        10
Info: PERIODIC CELL BASIS 1  41.545 0 0
Info: PERIODIC CELL BASIS 2  0 45.963 0
Info: PERIODIC CELL BASIS 3  0 0 39.527
Info: PERIODIC CELL CENTER   0 0 0
Info: WRAPPING WATERS AROUND PERIODIC BOUNDARIES ON OUTPUT.
Info: WRAPPING ALL CLUSTERS AROUND PERIODIC BOUNDARIES ON OUTPUT.
Info: FIRST LDB TIMESTEP     50
Info: LAST LDB TIMESTEP     -1
Info: HOM BACKGROUND SCALING 1
Info: PME BACKGROUND SCALING 1
Info: MIN ATOMS PER PATCH    40
Info: EMPTY PATCH LOAD       40 ATOMS
Info: INITIAL TEMPERATURE    300
Info: CENTER OF MASS MOVING INITIALLY? NO
Info: DIELECTRIC             1
Info: EXCLUDE                SCALED ONE-FOUR
Info: 1-4 ELECTROSTATICS SCALED BY 0.833333
Info: MODIFIED 1-4 VDW PARAMETERS WILL BE USED
Info: DCD FILENAME           mobley_4759887_min.dcd
Info: DCD FREQUENCY          5000
Info: DCD FIRST STEP         5000
Info: DCD FILE WILL CONTAIN UNIT CELL DATA
Info: XST FILENAME           mobley_4759887_min.xst
Info: XST FREQUENCY          5000
Info: NO VELOCITY DCD OUTPUT
Info: NO FORCE DCD OUTPUT
Info: OUTPUT FILENAME        mobley_4759887_min
Info: BINARY OUTPUT FILES WILL BE USED
Info: RESTART FILENAME       mobley_4759887_min.restart
Info: RESTART FREQUENCY      5000
Info: BINARY RESTART FILES WILL BE USED
Info: CUTOFF                 9
Info: PAIRLIST DISTANCE      11
Info: PAIRLIST SHRINK RATE   0.01
Info: PAIRLIST GROW RATE     0.01
Info: PAIRLIST TRIGGER       0.3
Info: PAIRLISTS PER CYCLE    2
Info: PAIRLISTS ENABLED
Info: MARGIN                 8
Info: HYDROGEN GROUP CUTOFF  2.5
Info: PATCH DIMENSION        21.5
Info: ENERGY OUTPUT STEPS    5000
Info: ENERGY EVALUATION STEPS    5000
Info: OUTPUT ENERGY PRECISION 4
Info: CROSSTERM ENERGY INCLUDED IN DIHEDRAL
Info: TIMING OUTPUT STEPS    50000
Info: PRESSURE OUTPUT STEPS  5000
Info: LANGEVIN DYNAMICS ACTIVE
Info: LANGEVIN TEMPERATURE   300
Info: LANGEVIN USING BBK INTEGRATOR
Info: LANGEVIN DAMPING COEFFICIENT IS 1 INVERSE PS
Info: LANGEVIN DYNAMICS APPLIED TO HYDROGENS
Info: LANGEVIN PISTON PRESSURE CONTROL ACTIVE
Info:        TARGET PRESSURE IS 1.01325 BAR
Info:     OSCILLATION PERIOD IS 50 FS
Info:             DECAY TIME IS 25 FS
Info:     PISTON TEMPERATURE IS 300 K
Info:       PRESSURE CONTROL IS GROUP-BASED
Info:    INITIAL STRAIN RATE IS 0 0 0
Info:       CELL FLUCTUATION IS ISOTROPIC
Info: PARTICLE MESH EWALD (PME) ACTIVE
Info: PME TOLERANCE               1e-06
Info: PME EWALD COEFFICIENT       0.348832
Info: PME INTERPOLATION ORDER     4
Info: PME GRID DIMENSIONS         44 48 40
Info: PME MAXIMUM GRID SPACING    1
Info: FULL ELECTROSTATIC EVALUATION FREQUENCY      2
Info: USING VERLET I (r-RESPA) MTS SCHEME.
Info: C1 SPLITTING OF LONG RANGE ELECTROSTATICS
Info: PLACING ATOMS IN PATCHES BY HYDROGEN GROUPS
Info: RIGID BONDS TO HYDROGEN : ALL
Info:         ERROR TOLERANCE : 1e-08
Info:          MAX ITERATIONS : 100
Info: RIGID WATER USING SETTLE ALGORITHM
Info: RANDOM NUMBER SEED     1741337077
Info: USE HYDROGEN BONDS?    NO
Info: Using AMBER format force field!
Info: AMBER PARM FILE        mobley_4759887.prmtop
Info: COORDINATE PDB         mobley_4759887.pdb
Info: Exclusions will be read from PARM file!
Info: SCNB (VDW SCALING)     2
Info: USING ARITHMETIC MEAN TO COMBINE L-J SIGMA PARAMETERS
Info: SUMMARY OF PARAMETERS:
Info: 6 BONDS
Info: 7 ANGLES
Info:   7 HARMONIC
Info:   0 COSINE-BASED
Info: 5 DIHEDRAL
Info: 0 IMPROPER
Info: 0 CROSSTERM
Info: 0 VDW
Info: 21 VDW_PAIRS
Info: 0 NBTHOLE_PAIRS
Info: STRUCTURE SUMMARY:
Info: 5465 ATOMS
Info: 5464 BONDS
Info: 42 ANGLES
Info: 54 DIHEDRALS
Info: 0 IMPROPERS
Info: 0 CROSSTERMS
Info: 5560 EXCLUSIONS
Info: 5457 RIGID BONDS
Info: 10938 DEGREES OF FREEDOM
Info: 1822 HYDROGEN GROUPS
Info: 4 ATOMS IN LARGEST HYDROGEN GROUP
Info: 1822 MIGRATION GROUPS
Info: 4 ATOMS IN LARGEST MIGRATION GROUP
Info: TOTAL MASS = 32907.1 amu
Info: TOTAL CHARGE = 3.72529e-09 e
Info: MASS DENSITY = 0.723982 g/cm^3
Info: ATOM DENSITY = 0.0724051 atoms/A^3
Info: ADDED 0 IMPLICIT EXCLUSIONS
Info: NONBONDED TABLE R-SQUARED SPACING: 0.0625
Info: NONBONDED TABLE SIZE: 705 POINTS
Info: REMOVING COM VELOCITY 0.0303148 -0.0412784 0.0230113
TCL: Minimizing for 2000 steps
ETITLE: TS BOND ANGLE DIHED IMPRP ELECT VDW BOUNDARY MISC KINETIC TOTAL TEMP POTENTIAL TOTAL3 TEMPAVG PRESSURE GPRESSURE VOLUME PRESSAVG GPRESSAVG
ENERGY: 0 0.7952 0.9200 0.0361 0.0000 -16963.6974 1879.4534 0.0000 0.0000 0.0000 -15082.4928 0.0000 -15082.4928 -15082.4928 0.0000 10926.6903 -15573.3700 75478.1044 10926.6903 -15573.3700
ENERGY: 400 2.6152 1.8752 0.1345 0.0000 -23031.5808 3386.2799 0.0000 0.0000 0.0000 -19640.6759 0.0000 -19640.6759 -19640.6759 0.0000 15999.7773 10506.9225 75478.1044 15999.7773 10506.9225
ENERGY: 800 23.5503 21.3596 0.4070 0.0000 -24286.1423 3989.4016 0.0000 0.0000 0.0000 -20251.4238 0.0000 -20251.4238 -20251.4238 0.0000 18538.5312 12835.4086 75478.1044 18538.5312 12835.4086
ENERGY: 1200 8.6508 4.6971 0.0862 0.0000 -24671.9253 4119.0406 0.0000 0.0000 0.0000 -20539.4506 0.0000 -20539.4506 -20539.4506 0.0000 19100.6851 13215.6937 75478.1044 19100.6851 13215.6937
ENERGY: 1600 0.3675 0.3655 0.0860 0.0000 -24966.8011 4296.3433 0.0000 0.0000 0.0000 -20669.6389 0.0000 -20669.6389 -20669.6389 0.0000 19916.3538 13810.1105 75478.1044 19916.3538 13810.1105
ENERGY: 2000 0.1272 0.4388 0.1223 0.0000 -25072.1853 4334.3795 0.0000 0.0000 0.0000 -20737.1176 0.0000 -20737.1176 -20737.1176 0.0000 20113.2703 14052.2874 75478.1044 20113.2703 14052.2874
TCL: Exiting due to exit command.
Info: NAMD 3.0.1 for Linux-x86_64-multicore
Info: Please visit http://www.ks.uiuc.edu/Research/namd/
Info: for updates, documentation, and support information.
Info: Please cite Phillips et al., J. Chem. Phys. 153:044130 (2020) doi:10.1063/5.0014475
Info: in all publications reporting results obtained with NAMD.
Info: Based on Charm++/Converse 80000 for multicore-linux-x86_64-gcc
Info: Built Mon Oct 14 11:11:06 CDT 2024 by dhardy on athine.ks.uiuc.edu
Info: 1 NAMD  3.0.1  Linux-x86_64-multicore  16    k065  z5358697
Info: Running on 16 processors, 1 nodes, 1 physical nodes.
Info: CPU topology information available.
Info: Charm++/Converse parallel runtime startup completed at 0.00864151 s
Info: 1043.46 MB of memory in use based on /proc/self/stat
Info: Configuration file is mobley_4759887_equil.namd
Info: Working in the current directory /srv/scratch/z5358697/prod_prep_5/4759887
TCL: Running 25000 steps at 30 kelvin.
TCL: Suspending until startup complete.
Info: SIMULATION PARAMETERS:
Info: TIMESTEP               2
Info: NUMBER OF STEPS        0
Info: STEPS PER CYCLE        10
Info: PERIODIC CELL BASIS 1  41.545 0 0
Info: PERIODIC CELL BASIS 2  0 45.963 0
Info: PERIODIC CELL BASIS 3  0 0 39.527
Info: PERIODIC CELL CENTER   0 0 0
Info: WRAPPING WATERS AROUND PERIODIC BOUNDARIES ON OUTPUT.
Info: WRAPPING ALL CLUSTERS AROUND PERIODIC BOUNDARIES ON OUTPUT.
Info: FIRST LDB TIMESTEP     50
Info: LAST LDB TIMESTEP     -1
Info: HOM BACKGROUND SCALING 1
Info: PME BACKGROUND SCALING 1
Info: MIN ATOMS PER PATCH    40
Info: EMPTY PATCH LOAD       40 ATOMS
Info: INITIAL TEMPERATURE    300
Info: CENTER OF MASS MOVING INITIALLY? NO
Info: DIELECTRIC             1
Info: EXCLUDE                SCALED ONE-FOUR
Info: 1-4 ELECTROSTATICS SCALED BY 0.833333
Info: MODIFIED 1-4 VDW PARAMETERS WILL BE USED
Info: DCD FILENAME           mobley_4759887_equil.dcd
Info: DCD FREQUENCY          5000
Info: DCD FIRST STEP         5000
Info: DCD FILE WILL CONTAIN UNIT CELL DATA
Info: XST FILENAME           mobley_4759887_equil.xst
Info: XST FREQUENCY          5000
Info: NO VELOCITY DCD OUTPUT
Info: NO FORCE DCD OUTPUT
Info: OUTPUT FILENAME        mobley_4759887_equil
Info: BINARY OUTPUT FILES WILL BE USED
Info: RESTART FILENAME       mobley_4759887_equil.restart
Info: RESTART FREQUENCY      5000
Info: BINARY RESTART FILES WILL BE USED
Info: CUTOFF                 9
Info: PAIRLIST DISTANCE      11
Info: PAIRLIST SHRINK RATE   0.01
Info: PAIRLIST GROW RATE     0.01
Info: PAIRLIST TRIGGER       0.3
Info: PAIRLISTS PER CYCLE    2
Info: PAIRLISTS ENABLED
Info: MARGIN                 8
Info: HYDROGEN GROUP CUTOFF  2.5
Info: PATCH DIMENSION        21.5
Info: ENERGY OUTPUT STEPS    5000
Info: ENERGY EVALUATION STEPS    5000
Info: OUTPUT ENERGY PRECISION 4
Info: CROSSTERM ENERGY INCLUDED IN DIHEDRAL
Info: TIMING OUTPUT STEPS    50000
Info: PRESSURE OUTPUT STEPS  5000
Info: LANGEVIN DYNAMICS ACTIVE
Info: LANGEVIN TEMPERATURE   30
Info: LANGEVIN USING BBK INTEGRATOR
Info: LANGEVIN DAMPING COEFFICIENT IS 1 INVERSE PS
Info: LANGEVIN DYNAMICS APPLIED TO HYDROGENS
Info: LANGEVIN PISTON PRESSURE CONTROL ACTIVE
Info:        TARGET PRESSURE IS 1.01325 BAR
Info:     OSCILLATION PERIOD IS 50 FS
Info:             DECAY TIME IS 25 FS
Info:     PISTON TEMPERATURE IS 300 K
Info:       PRESSURE CONTROL IS GROUP-BASED
Info:    INITIAL STRAIN RATE IS 0 0 0
Info:       CELL FLUCTUATION IS ISOTROPIC
Info: PARTICLE MESH EWALD (PME) ACTIVE
Info: PME TOLERANCE               1e-06
Info: PME EWALD COEFFICIENT       0.348832
Info: PME INTERPOLATION ORDER     4
Info: PME GRID DIMENSIONS         44 48 40
Info: PME MAXIMUM GRID SPACING    1
Info: FULL ELECTROSTATIC EVALUATION FREQUENCY      2
Info: USING VERLET I (r-RESPA) MTS SCHEME.
Info: C1 SPLITTING OF LONG RANGE ELECTROSTATICS
Info: PLACING ATOMS IN PATCHES BY HYDROGEN GROUPS
Info: RIGID BONDS TO HYDROGEN : ALL
Info:         ERROR TOLERANCE : 1e-08
Info:          MAX ITERATIONS : 100
Info: RIGID WATER USING SETTLE ALGORITHM
Info: RANDOM NUMBER SEED     1741337097
Info: USE HYDROGEN BONDS?    NO
Info: Using AMBER format force field!
Info: AMBER PARM FILE        mobley_4759887.prmtop
Info: COORDINATE PDB         mobley_4759887.pdb
Info: Exclusions will be read from PARM file!
Info: SCNB (VDW SCALING)     2
Info: USING ARITHMETIC MEAN TO COMBINE L-J SIGMA PARAMETERS
Info: BINARY COORDINATES     mobley_4759887_min.coor
Info: SUMMARY OF PARAMETERS:
Info: 6 BONDS
Info: 7 ANGLES
Info: 5 DIHEDRAL
Info: 0 IMPROPER
Info: 0 CROSSTERM
Info: 0 VDW
Info: 21 VDW_PAIRS
Info: 0 NBTHOLE_PAIRS
Info: STRUCTURE SUMMARY:
Info: 5465 ATOMS
Info: 5464 BONDS
Info: 42 ANGLES
Info: 54 DIHEDRALS
Info: 0 IMPROPERS
Info: 0 CROSSTERMS
Info: 5560 EXCLUSIONS
Info: 5457 RIGID BONDS
Info: 10938 DEGREES OF FREEDOM
Info: 1822 HYDROGEN GROUPS
Info: 4 ATOMS IN LARGEST HYDROGEN GROUP
Info: 1822 MIGRATION GROUPS
Info: 4 ATOMS IN LARGEST MIGRATION GROUP
Info: TOTAL MASS = 32907.1 amu
Info: TOTAL CHARGE = 3.72529e-09 e
Info: MASS DENSITY = 0.723982 g/cm^3
Info: ATOM DENSITY = 0.0724051 atoms/A^3
Info: ADDED 0 IMPLICIT EXCLUSIONS
Info: NONBONDED TABLE R-SQUARED SPACING: 0.0625
Info: NONBONDED TABLE SIZE: 705 POINTS
Info: REMOVING COM VELOCITY -0.095172 0.0208763 -0.0840615
TCL: Running for 25000 steps
ETITLE: TS BOND ANGLE DIHED IMPRP ELECT VDW BOUNDARY MISC KINETIC TOTAL TEMP POTENTIAL TOTAL3 TEMPAVG PRESSURE GPRESSURE VOLUME PRESSAVG GPRESSAVG
ENERGY: 0 0.1272 0.4388 0.1223 0.0000 -25072.1853 4334.3795 0.0000 0.0000 3263.1033 -17474.0143 300.2502 -20737.1176 -17473.3832 300.2502 273.7115 311.4971 75478.1044 273.7115 311.4971
ENERGY: 5000 0.2342 1.5330 0.1973 0.0000 -26189.4968 4546.1234 0.0000 0.0000 329.0107 -21312.3982 30.2735 -21641.4089 -21311.2625 47.4335 -25.2977 29.3439 53591.7714 3.4414 3.3522
ENERGY: 10000 0.2620 1.3542 0.3502 0.0000 -26158.6475 4493.2628 0.0000 0.0000 328.4688 -21334.9495 30.2236 -21663.4183 -21333.9045 30.0711 -318.3182 -269.5364 53647.8399 5.7349 5.7301
ENERGY: 15000 0.1889 1.5909 0.4137 0.0000 -26212.3075 4548.1022 0.0000 0.0000 324.3558 -21337.6561 29.8452 -21662.0120 -21336.8566 30.1425 -62.9513 -15.0335 53550.8943 7.7721 7.7796
ENERGY: 20000 0.3364 2.1839 0.1683 0.0000 -26200.9991 4529.9135 0.0000 0.0000 333.6935 -21334.7035 30.7044 -21668.3970 -21333.8612 30.1991 -204.3640 -145.4428 53676.9548 -1.1602 -0.9579
ENERGY: 25000 0.0727 1.3850 0.3421 0.0000 -26296.8467 4613.1205 0.0000 0.0000 332.3583 -21349.5681 30.5815 -21681.9264 -21348.4828 30.1553 220.7959 291.3012 53456.4742 3.9029 3.8233
TCL: Running 25000 steps at 60 kelvin.
TCL: Setting parameter langevinTemp to 60
TCL: Running for 25000 steps
ETITLE: TS BOND ANGLE DIHED IMPRP ELECT VDW BOUNDARY MISC KINETIC TOTAL TEMP POTENTIAL TOTAL3 TEMPAVG PRESSURE GPRESSURE VOLUME PRESSAVG GPRESSAVG
ENERGY: 25000 0.0727 1.3850 0.3421 0.0000 -26296.8467 4613.1205 0.0000 0.0000 332.1993 -21349.7271 30.5669 -21681.9264 -21349.0260 30.5669 235.7247 291.3883 53456.4742 235.7247 291.3883
ENERGY: 30000 0.5070 2.1323 0.4938 0.0000 -25792.9854 4451.8984 0.0000 0.0000 660.1254 -20677.8285 60.7406 -21337.9540 -20675.9892 57.3938 217.5587 265.7468 53681.1557 0.6020 0.5295
ENERGY: 35000 0.7605 2.6320 0.5983 0.0000 -25760.0107 4343.3489 0.0000 0.0000 661.7029 -20750.9681 60.8857 -21412.6710 -20749.3807 60.1104 -347.0282 -297.3638 53575.4878 1.1225 1.1847
ENERGY: 40000 0.6516 1.8107 0.3732 0.0000 -25911.1915 4443.6733 0.0000 0.0000 647.1905 -20817.4922 59.5504 -21464.6827 -20815.7465 60.5746 -46.1092 -18.5119 53399.2067 -3.3736 -3.3228
ENERGY: 45000 1.1293 2.7357 0.0921 0.0000 -25926.2010 4420.9273 0.0000 0.0000 649.8440 -20851.4727 59.7945 -21501.3166 -20849.7299 60.3704 -219.9437 -190.9754 53417.9514 3.2915 3.3887
ENERGY: 50000 0.3268 3.6047 0.5188 0.0000 -25861.7593 4349.9633 0.0000 0.0000 654.0033 -20853.3423 60.1773 -21507.3456 -20851.4323 60.5770 -591.9857 -520.4069 53559.7032 -0.3685 -0.1814
TCL: Running 25000 steps at 90 kelvin.
TCL: Setting parameter langevinTemp to 90
TCL: Running for 25000 steps
ETITLE: TS BOND ANGLE DIHED IMPRP ELECT VDW BOUNDARY MISC KINETIC TOTAL TEMP POTENTIAL TOTAL3 TEMPAVG PRESSURE GPRESSURE VOLUME PRESSAVG GPRESSAVG
ENERGY: 50000 0.3268 3.6047 0.5188 0.0000 -25861.7593 4349.9633 0.0000 0.0000 653.6715 -20853.6741 60.1467 -21507.3456 -20852.4080 60.1467 -573.4190 -520.3638 53559.7032 -573.4190 -520.3638
ENERGY: 55000 0.3068 3.4765 0.9472 0.0000 -25665.5378 4455.7712 0.0000 0.0000 991.6932 -20213.3429 91.2494 -21205.0361 -20211.6495 87.0379 572.5950 625.8575 53520.6677 2.0107 1.7378
ENERGY: 60000 0.3955 2.7770 0.2911 0.0000 -25448.6751 4198.8685 0.0000 0.0000 974.8742 -20271.4687 89.7018 -21246.3429 -20268.9661 90.3894 -585.2211 -552.6689 53544.0820 2.3603 2.3200
ENERGY: 65000 1.0065 2.7949 0.3139 0.0000 -25783.9587 4486.7477 0.0000 0.0000 974.9839 -20318.1119 89.7119 -21293.0957 -20315.3988 90.2299 647.1956 702.3881 53065.3715 2.2798 2.0355
ENERGY: 70000 1.0949 3.8572 1.3853 0.0000 -25576.5320 4241.7134 0.0000 0.0000 979.9728 -20348.5085 90.1709 -21328.4812 -20345.8027 89.9070 -510.7153 -479.9952 53413.9311 7.5295 7.8935
ENERGY: 75000 0.4219 2.6785 0.7693 0.0000 -25418.2626 4111.3192 0.0000 0.0000 1003.4783 -20299.5954 92.3337 -21303.0737 -20298.0490 89.8798 -1102.9067 -1054.2944 53674.6547 -2.0594 -1.7437
TCL: Running 25000 steps at 120 kelvin.
TCL: Setting parameter langevinTemp to 120
TCL: Running for 25000 steps
ETITLE: TS BOND ANGLE DIHED IMPRP ELECT VDW BOUNDARY MISC KINETIC TOTAL TEMP POTENTIAL TOTAL3 TEMPAVG PRESSURE GPRESSURE VOLUME PRESSAVG GPRESSAVG
ENERGY: 75000 0.4219 2.6785 0.7693 0.0000 -25418.2626 4111.3192 0.0000 0.0000 1003.0006 -20300.0732 92.2898 -21303.0737 -20297.8152 92.2898 -1099.9421 -1054.5085 53674.6547 -1099.9421 -1054.5085
ENERGY: 80000 2.0391 4.0654 1.3884 0.0000 -25026.9285 4055.0440 0.0000 0.0000 1335.8125 -19628.5792 122.9130 -20964.3917 -19624.6442 117.6380 -773.8315 -717.4076 54004.6067 2.6301 2.7148
ENERGY: 85000 0.2273 5.6632 0.7052 0.0000 -25278.8098 4336.1121 0.0000 0.0000 1277.4664 -19658.6355 117.5444 -20936.1020 -19655.0377 120.2792 663.7149 717.5590 53470.6092 6.4618 6.3026
ENERGY: 90000 1.0338 3.5526 0.8068 0.0000 -25042.6042 4047.8822 0.0000 0.0000 1299.9827 -19689.3462 119.6162 -20989.3289 -19685.4102 120.2418 -882.4745 -802.7350 54075.8243 4.6542 4.6630
ENERGY: 95000 1.7167 3.0973 0.8119 0.0000 -25317.4748 4265.6678 0.0000 0.0000 1340.3432 -19705.8378 123.3299 -21046.1810 -19702.4805 120.8932 34.9594 87.8426 53724.2773 3.6477 3.7214
ENERGY: 100000 0.8349 7.6316 1.3441 0.0000 -25287.5294 4221.3107 0.0000 0.0000 1302.6380 -19753.7701 119.8605 -21056.4082 -19750.6523 120.8493 -132.0155 -90.7464 53623.2130 -0.1794 -0.7221
TCL: Running 25000 steps at 150 kelvin.
TCL: Setting parameter langevinTemp to 150
TCL: Running for 25000 steps
ETITLE: TS BOND ANGLE DIHED IMPRP ELECT VDW BOUNDARY MISC KINETIC TOTAL TEMP POTENTIAL TOTAL3 TEMPAVG PRESSURE GPRESSURE VOLUME PRESSAVG GPRESSAVG
ENERGY: 100000 0.8349 7.6316 1.3441 0.0000 -25287.5294 4221.3107 0.0000 0.0000 1301.9718 -19754.4363 119.7992 -21056.4082 -19751.4774 119.7992 -140.2896 -90.6554 53623.2130 -140.2896 -90.6554
ENERGY: 105000 2.9156 4.8074 0.5538 0.0000 -24921.4356 4226.9108 0.0000 0.0000 1633.0136 -19053.2345 150.2596 -20686.2481 -19050.2481 146.9286 599.1454 649.6467 53464.1207 5.8750 5.8440
ENERGY: 110000 1.0456 7.0180 0.5250 0.0000 -24794.3835 4085.5477 0.0000 0.0000 1651.9544 -19048.2928 152.0024 -20700.2472 -19043.6981 149.9069 -87.3861 5.5546 53806.1003 3.3242 3.2800
ENERGY: 115000 0.8716 5.8583 0.5243 0.0000 -24850.5309 4179.4174 0.0000 0.0000 1645.0213 -19018.8380 151.3645 -20663.8593 -19015.9112 150.3673 407.3882 439.6972 53776.5366 0.8874 1.0735
ENERGY: 120000 1.2680 8.4003 0.9322 0.0000 -24615.4646 3917.6053 0.0000 0.0000 1638.4143 -19048.8446 150.7566 -20687.2589 -19045.6316 150.0490 -858.1463 -820.0047 54018.9573 3.8189 3.3115
ENERGY: 125000 1.0647 4.4818 0.4242 0.0000 -24797.1998 4048.8883 0.0000 0.0000 1626.3996 -19115.9414 149.6510 -20742.3410 -19112.0089 150.3398 -327.0049 -265.6187 53579.4526 4.0636 4.4759
TCL: Running 50000 steps at 180 kelvin.
TCL: Setting parameter langevinTemp to 180
TCL: Running for 50000 steps
ETITLE: TS BOND ANGLE DIHED IMPRP ELECT VDW BOUNDARY MISC KINETIC TOTAL TEMP POTENTIAL TOTAL3 TEMPAVG PRESSURE GPRESSURE VOLUME PRESSAVG GPRESSAVG
ENERGY: 125000 1.0647 4.4818 0.4242 0.0000 -24797.1998 4048.8883 0.0000 0.0000 1625.5940 -19116.7470 149.5769 -20742.3410 -19113.6682 149.5769 -319.2912 -266.1112 53579.4526 -319.2912 -266.1112
ENERGY: 135000 0.6042 4.5381 0.7803 0.0000 -24143.2361 3839.8569 0.0000 0.0000 1968.8533 -18328.6032 181.1615 -20297.4566 -18324.8814 179.8812 -443.6246 -339.5341 53852.1941 0.6339 0.2091
ENERGY: 145000 0.9432 6.7987 0.9084 0.0000 -24131.9783 3852.4994 0.0000 0.0000 1947.4261 -18323.4026 179.1899 -20270.8287 -18317.6529 180.6763 -351.5712 -348.4969 54005.4504 7.0466 6.9347
ENERGY: 155000 0.4221 4.4818 1.0120 0.0000 -24201.1612 3808.5870 0.0000 0.0000 1946.3251 -18440.3331 179.0886 -20386.6583 -18433.4563 180.1074 -478.0495 -432.4402 53107.2320 0.9632 1.2424
ENERGY: 165000 2.4600 7.6394 1.3027 0.0000 -24190.5892 3894.6032 0.0000 0.0000 1952.2307 -18332.3531 179.6320 -20284.5839 -18326.2708 181.2085 -120.6699 -27.5624 53447.2416 -3.5527 -3.1288
ENERGY: 175000 1.4436 4.7250 1.8347 0.0000 -24375.9867 4015.7196 0.0000 0.0000 1980.5446 -18371.7193 182.2372 -20352.2639 -18368.1390 179.9219 426.7080 494.1463 53109.5163 8.1924 8.0456
TCL: Running 50000 steps at 210 kelvin.
TCL: Setting parameter langevinTemp to 210
TCL: Running for 50000 steps
ETITLE: TS BOND ANGLE DIHED IMPRP ELECT VDW BOUNDARY MISC KINETIC TOTAL TEMP POTENTIAL TOTAL3 TEMPAVG PRESSURE GPRESSURE VOLUME PRESSAVG GPRESSAVG
ENERGY: 175000 1.4436 4.7250 1.8347 0.0000 -24375.9867 4015.7196 0.0000 0.0000 1979.5514 -18372.7124 182.1458 -20352.2639 -18369.1462 182.1458 426.2568 494.3755 53109.5163 426.2568 494.3755
ENERGY: 185000 0.9834 8.3739 1.6757 0.0000 -23082.1306 3570.4821 0.0000 0.0000 2258.4113 -17242.2042 207.8048 -19500.6155 -17236.9365 207.3468 175.2880 216.0281 53336.9215 4.6863 4.1126
ENERGY: 195000 2.0902 6.3555 1.7135 0.0000 -22828.0590 3360.7381 0.0000 0.0000 2279.9858 -17177.1760 209.7899 -19457.1617 -17171.5269 209.9510 -632.7062 -601.0031 53295.2404 3.9627 3.7649
ENERGY: 205000 1.6229 4.5568 1.2695 0.0000 -23156.3689 3630.1584 0.0000 0.0000 2262.4068 -17256.3545 208.1724 -19518.7613 -17251.6838 210.7233 348.9165 455.5041 53167.3264 1.7168 1.2202
ENERGY: 215000 1.7349 7.5820 0.8212 0.0000 -22835.3668 3343.0377 0.0000 0.0000 2276.1854 -17206.0057 209.4402 -19482.1911 -17200.9856 209.7077 -920.6631 -846.7410 53794.6320 1.4288 2.0006
ENERGY: 225000 1.7191 6.3732 1.1561 0.0000 -23187.1062 3652.5527 0.0000 0.0000 2337.3324 -17187.9728 215.0666 -19525.3052 -17181.7141 211.2538 677.4096 744.1271 53021.1382 0.5568 0.6051
TCL: Running 50000 steps at 240 kelvin.
TCL: Setting parameter langevinTemp to 240
TCL: Running for 50000 steps
ETITLE: TS BOND ANGLE DIHED IMPRP ELECT VDW BOUNDARY MISC KINETIC TOTAL TEMP POTENTIAL TOTAL3 TEMPAVG PRESSURE GPRESSURE VOLUME PRESSAVG GPRESSAVG
ENERGY: 225000 1.7191 6.3732 1.1561 0.0000 -23187.1062 3652.5527 0.0000 0.0000 2336.1700 -17189.1352 214.9596 -19525.3052 -17185.0922 214.9596 658.8158 745.0306 53021.1382 658.8158 745.0306
ENERGY: 235000 1.7709 9.8037 1.2517 0.0000 -22000.7568 3300.0236 0.0000 0.0000 2589.1727 -16098.7342 238.2393 -18687.9069 -16089.9384 238.7992 570.2748 665.2653 53329.9731 0.2410 0.3528
ENERGY: 245000 2.2053 7.4841 1.7401 0.0000 -21760.7231 3075.4291 0.0000 0.0000 2627.7332 -16046.1313 241.7874 -18673.8645 -16040.9791 241.2264 -457.1307 -397.8113 53815.2883 5.5134 4.9702
ENERGY: 255000 1.9086 9.0957 1.0147 0.0000 -21740.6196 2999.7381 0.0000 0.0000 2596.5759 -16132.2866 238.9205 -18728.8625 -16126.4725 239.5873 -954.4880 -853.1055 53887.4196 3.2796 2.8229
ENERGY: 265000 1.4519 7.9184 1.5620 0.0000 -21814.3924 3224.3471 0.0000 0.0000 2628.8141 -15950.2989 241.8869 -18579.1130 -15944.2746 239.8125 339.7009 421.9088 53574.0277 0.9490 1.5627
ENERGY: 275000 1.2465 7.9196 0.9701 0.0000 -21872.6733 3208.0417 0.0000 0.0000 2625.6125 -16028.8829 241.5923 -18654.4954 -16027.1395 240.9119 -124.5907 3.8079 54264.5431 4.6871 4.4714
TCL: Running 50000 steps at 270 kelvin.
TCL: Setting parameter langevinTemp to 270
TCL: Running for 50000 steps
ETITLE: TS BOND ANGLE DIHED IMPRP ELECT VDW BOUNDARY MISC KINETIC TOTAL TEMP POTENTIAL TOTAL3 TEMPAVG PRESSURE GPRESSURE VOLUME PRESSAVG GPRESSAVG
ENERGY: 275000 1.2465 7.9196 0.9701 0.0000 -21872.6733 3208.0417 0.0000 0.0000 2624.3048 -16030.1906 241.4720 -18654.4954 -16025.2524 241.4720 -87.2548 1.2446 54264.5431 -87.2548 1.2446
ENERGY: 285000 1.6115 7.5409 1.4764 0.0000 -20669.8791 2817.5911 0.0000 0.0000 2962.9600 -14878.6991 272.6329 -17841.6592 -14871.9525 270.5677 -241.4542 -183.5664 54975.7109 3.9194 4.0985
ENERGY: 295000 1.5073 7.3856 2.3390 0.0000 -21023.1889 3021.1537 0.0000 0.0000 2968.4836 -15022.3198 273.1411 -17990.8034 -15015.1613 270.2629 280.1821 366.7128 55193.9691 0.0611 0.5216
ENERGY: 305000 2.6885 11.5538 1.6704 0.0000 -20758.9694 2796.2733 0.0000 0.0000 2934.2658 -15012.5176 269.9926 -17946.7834 -15003.6252 270.6802 -693.5900 -596.1283 55151.1778 3.8225 3.2043
ENERGY: 315000 0.7369 10.2376 1.4038 0.0000 -20772.7876 2896.8070 0.0000 0.0000 2982.3782 -14881.2240 274.4196 -17863.6022 -14876.3517 270.3035 -1.9664 58.8641 55034.6278 3.6017 3.1845
ENERGY: 325000 1.9808 10.8986 1.4608 0.0000 -20690.0236 2831.5983 0.0000 0.0000 2874.7559 -14969.3292 264.5169 -17844.0851 -14966.0243 270.5321 -184.7545 -101.2416 54607.3628 0.1518 -0.1061
TCL: Running 1000000 steps at 300 kelvin.
TCL: Setting parameter langevinTemp to 300
TCL: Running for 1000000 steps
ETITLE: TS BOND ANGLE DIHED IMPRP ELECT VDW BOUNDARY MISC KINETIC TOTAL TEMP POTENTIAL TOTAL3 TEMPAVG PRESSURE GPRESSURE VOLUME PRESSAVG GPRESSAVG
ENERGY: 325000 1.9808 10.8986 1.4608 0.0000 -20690.0236 2831.5983 0.0000 0.0000 2873.2737 -14970.8114 264.3805 -17844.0851 -14966.3822 264.3805 -169.2886 -101.7292 54607.3628 -169.2886 -101.7292
ENERGY: 525000 4.3258 17.4366 1.2401 0.0000 -19935.0813 2765.6404 0.0000 0.0000 3192.4116 -13954.0268 293.7456 -17146.4385 -13948.1657 302.0121 510.0275 595.5151 55751.9246 3.2175 3.1892
ENERGY: 725000 1.8961 11.0037 2.6907 0.0000 -19743.5514 2645.7411 0.0000 0.0000 3252.0671 -13830.1526 299.2347 -17082.2197 -13821.2079 300.7629 -217.8968 -100.6405 57056.1120 6.0463 5.2369
ENERGY: 925000 2.8072 14.4447 3.1863 0.0000 -19924.6866 2683.0327 0.0000 0.0000 3185.4980 -14035.7177 293.1094 -17221.2157 -14029.6641 297.1092 -80.8212 2.2290 55876.1463 3.2910 3.9077
ENERGY: 1125000 1.9735 9.8575 2.8267 0.0000 -19998.4157 2816.3005 0.0000 0.0000 3256.9442 -13910.5132 299.6835 -17167.4574 -13903.5003 299.4313 616.8282 676.4759 56226.3575 0.1493 0.9651
ENERGY: 1325000 1.2751 16.4926 3.4713 0.0000 -19854.5068 2647.1668 0.0000 0.0000 3299.2197 -13886.8814 303.5734 -17186.1010 -13882.6244 299.7319 -137.6529 -53.9420 56523.9379 3.6752 3.4126
TCL: Exiting due to exit command.
