Info: SIMULATION PARAMETERS:
Info: TIMESTEP               2
Info: NUMBER OF STEPS        0
Info: STEPS PER CYCLE        10
Info: PERIODIC CELL BASIS 1  35.436 0 0
Info: PERIODIC CELL BASIS 2  0 36.451 0
Info: PERIODIC CELL BASIS 3  0 0 34.471
Info: PERIODIC CELL CENTER   0 0 0
Info: WRAPPING WATERS AROUND PERIODIC BOUNDARIES ON OUTPUT.
Info: WRAPPING ALL CLUSTERS AROUND PERIODIC BOUNDARIES ON OUTPUT.
Info: FIRST LDB TIMESTEP     50
Info: LAST LDB TIMESTEP     -1
Info: HOM BACKGROUND SCALING 1
Info: PME BACKGROUND SCALING 1
Info: MIN ATOMS PER PATCH    40
Info: EMPTY PATCH LOAD       40 ATOMS
Info: INITIAL TEMPERATURE    300
Info: CENTER OF MASS MOVING INITIALLY? NO
Info: DIELECTRIC             1
Info: EXCLUDE                SCALED ONE-FOUR
Info: 1-4 ELECTROSTATICS SCALED BY 0.833333
Info: MODIFIED 1-4 VDW PARAMETERS WILL BE USED
Info: DCD FILENAME           mobley_5732611_equil.dcd
Info: DCD FREQUENCY          100000
Info: DCD FIRST STEP         100000
Info: DCD FILE WILL CONTAIN UNIT CELL DATA
Info: XST FILENAME           mobley_5732611_equil.xst
Info: XST FREQUENCY          100000
Info: NO VELOCITY DCD OUTPUT
Info: NO FORCE DCD OUTPUT
Info: OUTPUT FILENAME        mobley_5732611_equil
Info: BINARY OUTPUT FILES WILL BE USED
Info: RESTART FILENAME       mobley_5732611_equil.restart
Info: RESTART FREQUENCY      100000
Info: BINARY RESTART FILES WILL BE USED
Info: CUTOFF                 9
Info: PAIRLIST DISTANCE      11
Info: PAIRLIST SHRINK RATE   0.01
Info: PAIRLIST GROW RATE     0.01
Info: PAIRLIST TRIGGER       0.3
Info: PAIRLISTS PER CYCLE    2
Info: PAIRLISTS ENABLED
Info: MARGIN                 8
Info: HYDROGEN GROUP CUTOFF  2.5
Info: PATCH DIMENSION        21.5
Info: ENERGY OUTPUT STEPS    100000
Info: ENERGY EVALUATION STEPS    100000
Info: OUTPUT ENERGY PRECISION 4
Info: CROSSTERM ENERGY INCLUDED IN DIHEDRAL
Info: TIMING OUTPUT STEPS    1000000
Info: PRESSURE OUTPUT STEPS  100000
Info: LANGEVIN DYNAMICS ACTIVE
Info: LANGEVIN TEMPERATURE   30
Info: LANGEVIN USING BBK INTEGRATOR
Info: LANGEVIN DAMPING COEFFICIENT IS 1 INVERSE PS
Info: LANGEVIN DYNAMICS APPLIED TO HYDROGENS
Info: LANGEVIN PISTON PRESSURE CONTROL ACTIVE
Info:        TARGET PRESSURE IS 1.01325 BAR
Info:     OSCILLATION PERIOD IS 50 FS
Info:             DECAY TIME IS 25 FS
Info:     PISTON TEMPERATURE IS 300 K
Info:       PRESSURE CONTROL IS GROUP-BASED
Info:    INITIAL STRAIN RATE IS 0 0 0
Info:       CELL FLUCTUATION IS ISOTROPIC
Info: PARTICLE MESH EWALD (PME) ACTIVE
Info: PME TOLERANCE               1e-06
Info: PME EWALD COEFFICIENT       0.348832
Info: PME INTERPOLATION ORDER     4
Info: PME GRID DIMENSIONS         36 40 36
Info: PME MAXIMUM GRID SPACING    1
Info: FULL ELECTROSTATIC EVALUATION FREQUENCY      2
Info: USING VERLET I (r-RESPA) MTS SCHEME.
Info: C1 SPLITTING OF LONG RANGE ELECTROSTATICS
Info: PLACING ATOMS IN PATCHES BY HYDROGEN GROUPS
Info: RIGID BONDS TO HYDROGEN : ALL
Info:         ERROR TOLERANCE : 1e-08
Info:          MAX ITERATIONS : 100
Info: RIGID WATER USING SETTLE ALGORITHM
Info: RANDOM NUMBER SEED     1742481762
Info: USE HYDROGEN BONDS?    NO
Info: Using AMBER format force field!
Info: AMBER PARM FILE        mobley_5732611.prmtop
Info: COORDINATE PDB         mobley_5732611.pdb
Info: Exclusions will be read from PARM file!
Info: SCNB (VDW SCALING)     2
Info: USING ARITHMETIC MEAN TO COMBINE L-J SIGMA PARAMETERS
Info: BINARY COORDINATES     mobley_5732611_min.coor
Info: SUMMARY OF PARAMETERS:
Info: 11 BONDS
Info: 14 ANGLES
Info:   14 HARMONIC
Info:   0 COSINE-BASED
Info: 5 DIHEDRAL
Info: 0 IMPROPER
Info: 0 CROSSTERM
Info: 0 VDW
Info: 55 VDW_PAIRS
Info: 0 NBTHOLE_PAIRS
Info: STRUCTURE SUMMARY:
Info: 2901 ATOMS
Info: 2901 BONDS
Info: 19 ANGLES
Info: 23 DIHEDRALS
Info: 0 IMPROPERS
Info: 0 CROSSTERMS
Info: 2937 EXCLUSIONS
Info: 2895 RIGID BONDS
Info: 5808 DEGREES OF FREEDOM
Info: 969 HYDROGEN GROUPS
Info: 4 ATOMS IN LARGEST HYDROGEN GROUP
Info: 969 MIGRATION GROUPS
Info: 4 ATOMS IN LARGEST MIGRATION GROUP
Info: TOTAL MASS = 17431.5 amu
Info: TOTAL CHARGE = -0.000100072 e
Info: MASS DENSITY = 0.650109 g/cm^3
Info: ATOM DENSITY = 0.0651538 atoms/A^3
Info: ADDED 0 IMPLICIT EXCLUSIONS
Info: NONBONDED TABLE R-SQUARED SPACING: 0.0625
Info: NONBONDED TABLE SIZE: 705 POINTS
Info: REMOVING COM VELOCITY 0.146032 0.260358 -0.16039
TCL: Running for 100000 steps
ETITLE: TS BOND ANGLE DIHED IMPRP ELECT VDW BOUNDARY MISC KINETIC TOTAL TEMP POTENTIAL TOTAL3 TEMPAVG PRESSURE GPRESSURE VOLUME PRESSAVG GPRESSAVG
ENERGY: 0 0.0540 2.6318 0.0672 0.0000 -13485.7350 2395.8640 0.0000 0.0000 1752.8231 -9334.2950 303.7399 -11087.1180 -9333.9564 303.7399 478.1624 525.1681 44525.4198 478.1624 525.1681
ENERGY: 100000 0.3697 2.6955 0.1418 0.0000 -13996.6183 2423.9608 0.0000 0.0000 173.7352 -11395.7154 30.1059 -11569.4505 -11395.1691 30.9905 -139.7048 -76.1784 28504.5145 3.6686 3.6602
TCL: Running 100000 steps at 60 kelvin.
TCL: Setting parameter langevinTemp to 60
TCL: Running for 100000 steps
ETITLE: TS BOND ANGLE DIHED IMPRP ELECT VDW BOUNDARY MISC KINETIC TOTAL TEMP POTENTIAL TOTAL3 TEMPAVG PRESSURE GPRESSURE VOLUME PRESSAVG GPRESSAVG
ENERGY: 100000 0.3697 2.6955 0.1418 0.0000 -13996.6183 2423.9608 0.0000 0.0000 173.6464 -11395.8041 30.0905 -11569.4505 -11395.3940 30.0905 -137.9474 -76.0808 28504.5145 -137.9474 -76.0808
ENERGY: 200000 0.5201 3.4406 0.3779 0.0000 -13849.7254 2374.4885 0.0000 0.0000 353.9595 -11116.9388 61.3363 -11470.8983 -11115.4771 59.9932 -46.1390 49.8790 28366.7645 5.0696 5.1328
TCL: Running 100000 steps at 90 kelvin.
TCL: Setting parameter langevinTemp to 90
TCL: Running for 100000 steps
ETITLE: TS BOND ANGLE DIHED IMPRP ELECT VDW BOUNDARY MISC KINETIC TOTAL TEMP POTENTIAL TOTAL3 TEMPAVG PRESSURE GPRESSURE VOLUME PRESSAVG GPRESSAVG
ENERGY: 200000 0.5201 3.4406 0.3779 0.0000 -13849.7254 2374.4885 0.0000 0.0000 353.7905 -11117.1078 61.3070 -11470.8983 -11116.3480 61.3070 -27.6929 50.3248 28366.7645 -27.6929 50.3248
ENERGY: 300000 0.5650 4.1229 1.2246 0.0000 -13693.5092 2301.1379 0.0000 0.0000 512.8752 -10873.5835 88.8742 -11386.4588 -10872.2480 89.9466 -441.7689 -375.1322 28707.8303 3.3750 3.4606
TCL: Running 100000 steps at 120 kelvin.
TCL: Setting parameter langevinTemp to 120
TCL: Running for 100000 steps
ETITLE: TS BOND ANGLE DIHED IMPRP ELECT VDW BOUNDARY MISC KINETIC TOTAL TEMP POTENTIAL TOTAL3 TEMPAVG PRESSURE GPRESSURE VOLUME PRESSAVG GPRESSAVG
ENERGY: 300000 0.5650 4.1229 1.2246 0.0000 -13693.5092 2301.1379 0.0000 0.0000 512.6094 -10873.8494 88.8281 -11386.4588 -10872.8050 88.8281 -430.0659 -375.1080 28707.8303 -430.0659 -375.1080
ENERGY: 400000 0.6733 4.7868 0.8244 0.0000 -13625.3344 2372.8814 0.0000 0.0000 701.1113 -10545.0571 121.4929 -11246.1684 -10543.7209 120.0245 921.1717 964.3262 28121.3608 3.3933 3.5468
TCL: Running 100000 steps at 150 kelvin.
TCL: Setting parameter langevinTemp to 150
TCL: Running for 100000 steps
ETITLE: TS BOND ANGLE DIHED IMPRP ELECT VDW BOUNDARY MISC KINETIC TOTAL TEMP POTENTIAL TOTAL3 TEMPAVG PRESSURE GPRESSURE VOLUME PRESSAVG GPRESSAVG
ENERGY: 400000 0.6733 4.7868 0.8244 0.0000 -13625.3344 2372.8814 0.0000 0.0000 700.7540 -10545.4144 121.4309 -11246.1684 -10544.4409 121.4309 912.6641 964.7674 28121.3608 912.6641 964.7674
ENERGY: 500000 0.5937 4.4792 1.0251 0.0000 -13397.5306 2273.9293 0.0000 0.0000 865.4675 -10252.0357 149.9735 -11117.5032 -10250.7011 150.0088 417.3197 488.1727 28427.6808 5.4720 5.5229
TCL: Running 100000 steps at 180 kelvin.
TCL: Setting parameter langevinTemp to 180
TCL: Running for 100000 steps
ETITLE: TS BOND ANGLE DIHED IMPRP ELECT VDW BOUNDARY MISC KINETIC TOTAL TEMP POTENTIAL TOTAL3 TEMPAVG PRESSURE GPRESSURE VOLUME PRESSAVG GPRESSAVG
ENERGY: 500000 0.5937 4.4792 1.0251 0.0000 -13397.5306 2273.9293 0.0000 0.0000 865.0389 -10252.4643 149.8992 -11117.5032 -10250.8675 149.8992 437.3917 487.7974 28427.6808 437.3917 487.7974
ENERGY: 600000 1.2333 5.4858 0.8345 0.0000 -12949.2405 2062.0472 0.0000 0.0000 1009.4153 -9870.2245 174.9177 -10879.6397 -9866.8054 180.3236 -762.5102 -675.0020 28916.9571 3.4303 3.3726
TCL: Running 100000 steps at 210 kelvin.
TCL: Setting parameter langevinTemp to 210
TCL: Running for 100000 steps
ETITLE: TS BOND ANGLE DIHED IMPRP ELECT VDW BOUNDARY MISC KINETIC TOTAL TEMP POTENTIAL TOTAL3 TEMPAVG PRESSURE GPRESSURE VOLUME PRESSAVG GPRESSAVG
ENERGY: 600000 1.2333 5.4858 0.8345 0.0000 -12949.2405 2062.0472 0.0000 0.0000 1008.9090 -9870.7307 174.8299 -10879.6397 -9868.5756 174.8299 -733.3278 -674.1856 28916.9571 -733.3278 -674.1856
ENERGY: 700000 2.5186 6.8584 0.5345 0.0000 -12239.7792 1830.5219 0.0000 0.0000 1202.8896 -9196.4562 208.4441 -10399.3458 -9194.1614 209.9741 -813.8326 -758.1546 28917.8686 3.8797 3.9037
TCL: Running 100000 steps at 240 kelvin.
TCL: Setting parameter langevinTemp to 240
TCL: Running for 100000 steps
ETITLE: TS BOND ANGLE DIHED IMPRP ELECT VDW BOUNDARY MISC KINETIC TOTAL TEMP POTENTIAL TOTAL3 TEMPAVG PRESSURE GPRESSURE VOLUME PRESSAVG GPRESSAVG
ENERGY: 700000 2.5186 6.8584 0.5345 0.0000 -12239.7792 1830.5219 0.0000 0.0000 1202.2878 -9197.0581 208.3398 -10399.3458 -9194.0718 208.3398 -820.0615 -759.7246 28917.8686 -820.0615 -759.7246
ENERGY: 800000 0.9568 4.0812 2.4284 0.0000 -11577.4200 1614.0678 0.0000 0.0000 1418.7472 -8537.1386 245.8492 -9955.8858 -8532.8178 240.3623 -556.3157 -483.3166 28412.8966 2.5024 2.7328
TCL: Running 100000 steps at 270 kelvin.
TCL: Setting parameter langevinTemp to 270
TCL: Running for 100000 steps
ETITLE: TS BOND ANGLE DIHED IMPRP ELECT VDW BOUNDARY MISC KINETIC TOTAL TEMP POTENTIAL TOTAL3 TEMPAVG PRESSURE GPRESSURE VOLUME PRESSAVG GPRESSAVG
ENERGY: 800000 0.9568 4.0812 2.4284 0.0000 -11577.4200 1614.0678 0.0000 0.0000 1418.0420 -8537.8438 245.7270 -9955.8858 -8535.5820 245.7270 -570.6120 -482.2833 28412.8966 -570.6120 -482.2833
ENERGY: 900000 2.5479 3.2849 1.1520 0.0000 -11169.7851 1626.1729 0.0000 0.0000 1561.0967 -7975.5306 270.5164 -9536.6273 -7971.7246 269.7398 612.6749 719.6304 29193.4489 4.8750 4.7437
TCL: Running 1000000 steps at 300 kelvin.
TCL: Setting parameter langevinTemp to 300
TCL: Running for 1000000 steps
ETITLE: TS BOND ANGLE DIHED IMPRP ELECT VDW BOUNDARY MISC KINETIC TOTAL TEMP POTENTIAL TOTAL3 TEMPAVG PRESSURE GPRESSURE VOLUME PRESSAVG GPRESSAVG
ENERGY: 900000 2.5479 3.2849 1.1520 0.0000 -11169.7851 1626.1729 0.0000 0.0000 1560.3297 -7976.2976 270.3835 -9536.6273 -7973.9300 270.3835 643.2399 721.0743 29193.4489 643.2399 721.0743
ENERGY: 1100000 1.5800 3.8779 0.8197 0.0000 -10583.2273 1468.0444 0.0000 0.0000 1737.2871 -7371.6182 301.0477 -9108.9053 -7370.2593 299.5958 384.5888 548.5375 29930.5516 4.4332 4.5502
ENERGY: 1300000 1.2889 7.9450 1.8293 0.0000 -10593.9083 1425.3218 0.0000 0.0000 1742.2145 -7415.3087 301.9016 -9157.5233 -7409.9852 300.4335 25.4408 84.8292 29848.9163 3.9989 3.8978
ENERGY: 1500000 1.1130 4.2674 1.5783 0.0000 -10394.9764 1267.2445 0.0000 0.0000 1769.6755 -7351.0977 306.6602 -9120.7731 -7345.9690 300.0101 -1209.3306 -1111.1498 30126.2127 3.6993 3.6741
ENERGY: 1700000 1.1799 6.8136 2.2502 0.0000 -10536.4623 1380.7192 0.0000 0.0000 1722.4573 -7423.0421 298.4779 -9145.4994 -7419.7674 300.1800 -398.2050 -321.8500 29972.6211 2.5634 2.5202
ENERGY: 1900000 2.5142 4.6674 2.6852 0.0000 -10690.7900 1496.1495 0.0000 0.0000 1694.0291 -7490.7446 293.5517 -9184.7737 -7487.0200 300.7757 330.7104 451.7106 29787.5703 3.7825 3.6729
TCL: Exiting due to exit command.
