Info: SIMULATION PARAMETERS:
Info: TIMESTEP               2
Info: NUMBER OF STEPS        0
Info: STEPS PER CYCLE        10
Info: PERIODIC CELL BASIS 1  39.806 0 0
Info: PERIODIC CELL BASIS 2  0 41.628 0
Info: PERIODIC CELL BASIS 3  0 0 40.136
Info: PERIODIC CELL CENTER   0 0 0
Info: WRAPPING WATERS AROUND PERIODIC BOUNDARIES ON OUTPUT.
Info: WRAPPING ALL CLUSTERS AROUND PERIODIC BOUNDARIES ON OUTPUT.
Info: FIRST LDB TIMESTEP     50
Info: LAST LDB TIMESTEP     -1
Info: HOM BACKGROUND SCALING 1
Info: PME BACKGROUND SCALING 1
Info: MIN ATOMS PER PATCH    40
Info: EMPTY PATCH LOAD       40 ATOMS
Info: INITIAL TEMPERATURE    300
Info: CENTER OF MASS MOVING INITIALLY? NO
Info: DIELECTRIC             1
Info: EXCLUDE                SCALED ONE-FOUR
Info: 1-4 ELECTROSTATICS SCALED BY 0.833333
Info: MODIFIED 1-4 VDW PARAMETERS WILL BE USED
Info: DCD FILENAME           mobley_2213823_min.dcd
Info: DCD FREQUENCY          5000
Info: DCD FIRST STEP         5000
Info: DCD FILE WILL CONTAIN UNIT CELL DATA
Info: XST FILENAME           mobley_2213823_min.xst
Info: XST FREQUENCY          5000
Info: NO VELOCITY DCD OUTPUT
Info: NO FORCE DCD OUTPUT
Info: OUTPUT FILENAME        mobley_2213823_min
Info: BINARY OUTPUT FILES WILL BE USED
Info: RESTART FILENAME       mobley_2213823_min.restart
Info: RESTART FREQUENCY      5000
Info: BINARY RESTART FILES WILL BE USED
Info: CUTOFF                 9
Info: PAIRLIST DISTANCE      11
Info: PAIRLIST SHRINK RATE   0.01
Info: PAIRLIST GROW RATE     0.01
Info: PAIRLIST TRIGGER       0.3
Info: PAIRLISTS PER CYCLE    2
Info: PAIRLISTS ENABLED
Info: MARGIN                 8
Info: HYDROGEN GROUP CUTOFF  2.5
Info: PATCH DIMENSION        21.5
Info: ENERGY OUTPUT STEPS    5000
Info: ENERGY EVALUATION STEPS    5000
Info: OUTPUT ENERGY PRECISION 4
Info: CROSSTERM ENERGY INCLUDED IN DIHEDRAL
Info: TIMING OUTPUT STEPS    50000
Info: PRESSURE OUTPUT STEPS  5000
Info: LANGEVIN DYNAMICS ACTIVE
Info: LANGEVIN TEMPERATURE   300
Info: LANGEVIN USING BBK INTEGRATOR
Info: LANGEVIN DAMPING COEFFICIENT IS 1 INVERSE PS
Info: LANGEVIN DYNAMICS APPLIED TO HYDROGENS
Info: LANGEVIN PISTON PRESSURE CONTROL ACTIVE
Info:        TARGET PRESSURE IS 1.01325 BAR
Info:     OSCILLATION PERIOD IS 50 FS
Info:             DECAY TIME IS 25 FS
Info:     PISTON TEMPERATURE IS 300 K
Info:       PRESSURE CONTROL IS GROUP-BASED
Info:    INITIAL STRAIN RATE IS 0 0 0
Info:       CELL FLUCTUATION IS ISOTROPIC
Info: PARTICLE MESH EWALD (PME) ACTIVE
Info: PME TOLERANCE               1e-06
Info: PME EWALD COEFFICIENT       0.348832
Info: PME INTERPOLATION ORDER     4
Info: PME GRID DIMENSIONS         40 44 44
Info: PME MAXIMUM GRID SPACING    1
Info: FULL ELECTROSTATIC EVALUATION FREQUENCY      2
Info: USING VERLET I (r-RESPA) MTS SCHEME.
Info: C1 SPLITTING OF LONG RANGE ELECTROSTATICS
Info: PLACING ATOMS IN PATCHES BY HYDROGEN GROUPS
Info: RIGID BONDS TO HYDROGEN : ALL
Info:         ERROR TOLERANCE : 1e-08
Info:          MAX ITERATIONS : 100
Info: RIGID WATER USING SETTLE ALGORITHM
Info: RANDOM NUMBER SEED     1741339700
Info: USE HYDROGEN BONDS?    NO
Info: Using AMBER format force field!
Info: AMBER PARM FILE        mobley_2213823.prmtop
Info: COORDINATE PDB         mobley_2213823.pdb
Info: Exclusions will be read from PARM file!
Info: SCNB (VDW SCALING)     2
Info: USING ARITHMETIC MEAN TO COMBINE L-J SIGMA PARAMETERS
Info: SUMMARY OF PARAMETERS:
Info: 4 BONDS
Info: 3 ANGLES
Info:   3 HARMONIC
Info:   0 COSINE-BASED
Info: 3 DIHEDRAL
Info: 0 IMPROPER
Info: 0 CROSSTERM
Info: 0 VDW
Info: 10 VDW_PAIRS
Info: 0 NBTHOLE_PAIRS
Info: STRUCTURE SUMMARY:
Info: 4802 ATOMS
Info: 4801 BONDS
Info: 36 ANGLES
Info: 45 DIHEDRALS
Info: 0 IMPROPERS
Info: 0 CROSSTERMS
Info: 4882 EXCLUSIONS
Info: 4796 RIGID BONDS
Info: 9610 DEGREES OF FREEDOM
Info: 1600 HYDROGEN GROUPS
Info: 4 ATOMS IN LARGEST HYDROGEN GROUP
Info: 1600 MIGRATION GROUPS
Info: 4 ATOMS IN LARGEST MIGRATION GROUP
Info: TOTAL MASS = 28803.7 amu
Info: TOTAL CHARGE = 0.000100002 e
Info: MASS DENSITY = 0.719182 g/cm^3
Info: ATOM DENSITY = 0.0722028 atoms/A^3
Info: ADDED 0 IMPLICIT EXCLUSIONS
Info: NONBONDED TABLE R-SQUARED SPACING: 0.0625
Info: NONBONDED TABLE SIZE: 705 POINTS
Info: REMOVING COM VELOCITY 0.000529852 -0.0230133 0.0634646
TCL: Minimizing for 2000 steps
ETITLE: TS BOND ANGLE DIHED IMPRP ELECT VDW BOUNDARY MISC KINETIC TOTAL TEMP POTENTIAL TOTAL3 TEMPAVG PRESSURE GPRESSURE VOLUME PRESSAVG GPRESSAVG
ENERGY: 0 0.1161 0.8713 0.0586 0.0000 -14823.1904 1674.7760 0.0000 0.0000 0.0000 -13147.3684 0.0000 -13147.3684 -13147.3684 0.0000 10995.5972 -15687.7533 66507.1247 10995.5972 -15687.7533
ENERGY: 400 2.4427 2.6349 0.3450 0.0000 -20010.4650 2904.0247 0.0000 0.0000 0.0000 -17101.0177 0.0000 -17101.0177 -17101.0177 0.0000 15577.5177 15719.9432 66507.1247 15577.5177 15719.9432
ENERGY: 800 23.3399 15.0868 0.5033 0.0000 -21127.4848 3422.8232 0.0000 0.0000 0.0000 -17665.7316 0.0000 -17665.7316 -17665.7316 0.0000 17976.0521 18096.1004 66507.1247 17976.0521 18096.1004
ENERGY: 1200 0.6937 1.3165 0.2884 0.0000 -21647.1544 3689.1218 0.0000 0.0000 0.0000 -17955.7339 0.0000 -17955.7339 -17955.7339 0.0000 19308.4835 19419.0812 66507.1247 19308.4835 19419.0812
ENERGY: 1600 2.4869 2.4578 0.3346 0.0000 -21890.1783 3797.5690 0.0000 0.0000 0.0000 -18087.3299 0.0000 -18087.3299 -18087.3299 0.0000 19872.2679 19963.5686 66507.1247 19872.2679 19963.5686
ENERGY: 2000 0.3615 1.0464 0.3196 0.0000 -22018.5365 3848.8281 0.0000 0.0000 0.0000 -18167.9808 0.0000 -18167.9808 -18167.9808 0.0000 20136.3995 20228.9014 66507.1247 20136.3995 20228.9014
TCL: Exiting due to exit command.
Info: NAMD 3.0.1 for Linux-x86_64-multicore
Info: Please visit http://www.ks.uiuc.edu/Research/namd/
Info: for updates, documentation, and support information.
Info: Please cite Phillips et al., J. Chem. Phys. 153:044130 (2020) doi:10.1063/5.0014475
Info: in all publications reporting results obtained with NAMD.
Info: Based on Charm++/Converse 80000 for multicore-linux-x86_64-gcc
Info: Built Mon Oct 14 11:11:06 CDT 2024 by dhardy on athine.ks.uiuc.edu
Info: 1 NAMD  3.0.1  Linux-x86_64-multicore  16    k112  z5358697
Info: Running on 16 processors, 1 nodes, 1 physical nodes.
Info: CPU topology information available.
Info: Charm++/Converse parallel runtime startup completed at 0.00589397 s
Info: 1043.48 MB of memory in use based on /proc/self/stat
Info: Configuration file is mobley_2213823_equil.namd
Info: Working in the current directory /srv/scratch/z5358697/prod_prep_2/2213823
TCL: Running 25000 steps at 30 kelvin.
TCL: Suspending until startup complete.
Info: SIMULATION PARAMETERS:
Info: TIMESTEP               2
Info: NUMBER OF STEPS        0
Info: STEPS PER CYCLE        10
Info: PERIODIC CELL BASIS 1  39.806 0 0
Info: PERIODIC CELL BASIS 2  0 41.628 0
Info: PERIODIC CELL BASIS 3  0 0 40.136
Info: PERIODIC CELL CENTER   0 0 0
Info: WRAPPING WATERS AROUND PERIODIC BOUNDARIES ON OUTPUT.
Info: WRAPPING ALL CLUSTERS AROUND PERIODIC BOUNDARIES ON OUTPUT.
Info: FIRST LDB TIMESTEP     50
Info: LAST LDB TIMESTEP     -1
Info: HOM BACKGROUND SCALING 1
Info: PME BACKGROUND SCALING 1
Info: MIN ATOMS PER PATCH    40
Info: EMPTY PATCH LOAD       40 ATOMS
Info: INITIAL TEMPERATURE    300
Info: CENTER OF MASS MOVING INITIALLY? NO
Info: DIELECTRIC             1
Info: EXCLUDE                SCALED ONE-FOUR
Info: 1-4 ELECTROSTATICS SCALED BY 0.833333
Info: MODIFIED 1-4 VDW PARAMETERS WILL BE USED
Info: DCD FILENAME           mobley_2213823_equil.dcd
Info: DCD FREQUENCY          5000
Info: DCD FIRST STEP         5000
Info: DCD FILE WILL CONTAIN UNIT CELL DATA
Info: XST FILENAME           mobley_2213823_equil.xst
Info: XST FREQUENCY          5000
Info: NO VELOCITY DCD OUTPUT
Info: NO FORCE DCD OUTPUT
Info: OUTPUT FILENAME        mobley_2213823_equil
Info: BINARY OUTPUT FILES WILL BE USED
Info: RESTART FILENAME       mobley_2213823_equil.restart
Info: RESTART FREQUENCY      5000
Info: BINARY RESTART FILES WILL BE USED
Info: CUTOFF                 9
Info: PAIRLIST DISTANCE      11
Info: PAIRLIST SHRINK RATE   0.01
Info: PAIRLIST GROW RATE     0.01
Info: PAIRLIST TRIGGER       0.3
Info: PAIRLISTS PER CYCLE    2
Info: PAIRLISTS ENABLED
Info: MARGIN                 8
Info: HYDROGEN GROUP CUTOFF  2.5
Info: PATCH DIMENSION        21.5
Info: ENERGY OUTPUT STEPS    5000
Info: ENERGY EVALUATION STEPS    5000
Info: OUTPUT ENERGY PRECISION 4
Info: CROSSTERM ENERGY INCLUDED IN DIHEDRAL
Info: TIMING OUTPUT STEPS    50000
Info: PRESSURE OUTPUT STEPS  5000
Info: LANGEVIN DYNAMICS ACTIVE
Info: LANGEVIN TEMPERATURE   30
Info: LANGEVIN USING BBK INTEGRATOR
Info: LANGEVIN DAMPING COEFFICIENT IS 1 INVERSE PS
Info: LANGEVIN DYNAMICS APPLIED TO HYDROGENS
Info: LANGEVIN PISTON PRESSURE CONTROL ACTIVE
Info:        TARGET PRESSURE IS 1.01325 BAR
Info:     OSCILLATION PERIOD IS 50 FS
Info:             DECAY TIME IS 25 FS
Info:     PISTON TEMPERATURE IS 300 K
Info:       PRESSURE CONTROL IS GROUP-BASED
Info:    INITIAL STRAIN RATE IS 0 0 0
Info:       CELL FLUCTUATION IS ISOTROPIC
Info: PARTICLE MESH EWALD (PME) ACTIVE
Info: PME TOLERANCE               1e-06
Info: PME EWALD COEFFICIENT       0.348832
Info: PME INTERPOLATION ORDER     4
Info: PME GRID DIMENSIONS         40 44 44
Info: PME MAXIMUM GRID SPACING    1
Info: FULL ELECTROSTATIC EVALUATION FREQUENCY      2
Info: USING VERLET I (r-RESPA) MTS SCHEME.
Info: C1 SPLITTING OF LONG RANGE ELECTROSTATICS
Info: PLACING ATOMS IN PATCHES BY HYDROGEN GROUPS
Info: RIGID BONDS TO HYDROGEN : ALL
Info:         ERROR TOLERANCE : 1e-08
Info:          MAX ITERATIONS : 100
Info: RIGID WATER USING SETTLE ALGORITHM
Info: RANDOM NUMBER SEED     1741339716
Info: USE HYDROGEN BONDS?    NO
Info: Using AMBER format force field!
Info: AMBER PARM FILE        mobley_2213823.prmtop
Info: COORDINATE PDB         mobley_2213823.pdb
Info: Exclusions will be read from PARM file!
Info: SCNB (VDW SCALING)     2
Info: USING ARITHMETIC MEAN TO COMBINE L-J SIGMA PARAMETERS
Info: BINARY COORDINATES     mobley_2213823_min.coor
Info: SUMMARY OF PARAMETERS:
Info: 4 BONDS
Info: 3 ANGLES
Info:   3 HARMONIC
Info:   0 COSINE-BASED
Info: 3 DIHEDRAL
Info: 0 IMPROPER
Info: 0 CROSSTERM
Info: 0 VDW
Info: 10 VDW_PAIRS
Info: 0 NBTHOLE_PAIRS
Info: STRUCTURE SUMMARY:
Info: 4802 ATOMS
Info: 4801 BONDS
Info: 36 ANGLES
Info: 45 DIHEDRALS
Info: 0 IMPROPERS
Info: 0 CROSSTERMS
Info: 4882 EXCLUSIONS
Info: 4796 RIGID BONDS
Info: 9610 DEGREES OF FREEDOM
Info: 1600 HYDROGEN GROUPS
Info: 4 ATOMS IN LARGEST HYDROGEN GROUP
Info: 1600 MIGRATION GROUPS
Info: 4 ATOMS IN LARGEST MIGRATION GROUP
Info: TOTAL MASS = 28803.7 amu
Info: TOTAL CHARGE = 0.000100002 e
Info: MASS DENSITY = 0.719182 g/cm^3
Info: ATOM DENSITY = 0.0722028 atoms/A^3
Info: ADDED 0 IMPLICIT EXCLUSIONS
Info: NONBONDED TABLE R-SQUARED SPACING: 0.0625
Info: NONBONDED TABLE SIZE: 705 POINTS
Info: REMOVING COM VELOCITY 0.00908394 0.0500952 0.0979274
TCL: Running for 25000 steps
ETITLE: TS BOND ANGLE DIHED IMPRP ELECT VDW BOUNDARY MISC KINETIC TOTAL TEMP POTENTIAL TOTAL3 TEMPAVG PRESSURE GPRESSURE VOLUME PRESSAVG GPRESSAVG
ENERGY: 0 0.3615 1.0464 0.3196 0.0000 -22018.5365 3848.8281 0.0000 0.0000 2809.8216 -15358.1592 294.2698 -18167.9808 -15357.5893 294.2698 265.2860 315.7397 66507.1247 265.2860 315.7397
ENERGY: 5000 0.4836 1.4313 0.5076 0.0000 -23231.7107 4136.6924 0.0000 0.0000 293.6459 -18798.9499 30.7532 -19092.5958 -18798.5372 48.0714 595.0653 656.8979 46194.5162 1.9229 1.7878
ENERGY: 10000 0.6328 1.5907 0.7661 0.0000 -23308.2588 4189.4200 0.0000 0.0000 288.3138 -18827.5354 30.1948 -19115.8492 -18826.6904 30.2253 801.8613 879.7812 46126.5708 3.1679 3.1817
ENERGY: 15000 0.4094 2.6472 0.3977 0.0000 -23071.2288 3946.7601 0.0000 0.0000 284.3870 -18836.6273 29.7836 -19121.0144 -18836.0309 30.2219 -508.3236 -430.4377 46462.0220 -1.6589 -1.5875
ENERGY: 20000 0.3249 1.7309 0.8393 0.0000 -23443.2409 4294.4558 0.0000 0.0000 282.3622 -18863.5277 29.5715 -19145.8900 -18862.9384 30.0765 1376.6674 1431.6735 45871.4141 2.8012 2.7385
ENERGY: 25000 0.7387 2.3918 0.3503 0.0000 -23102.9210 3946.7488 0.0000 0.0000 287.3991 -18865.2924 30.0990 -19152.6914 -18864.5475 29.7562 -561.3362 -493.3497 46456.5483 0.2726 0.2694
TCL: Running 25000 steps at 60 kelvin.
TCL: Setting parameter langevinTemp to 60
TCL: Running for 25000 steps
ETITLE: TS BOND ANGLE DIHED IMPRP ELECT VDW BOUNDARY MISC KINETIC TOTAL TEMP POTENTIAL TOTAL3 TEMPAVG PRESSURE GPRESSURE VOLUME PRESSAVG GPRESSAVG
ENERGY: 25000 0.7387 2.3918 0.3503 0.0000 -23102.9210 3946.7488 0.0000 0.0000 287.2610 -18865.4304 30.0846 -19152.6914 -18864.8313 30.0846 -561.0966 -493.4797 46456.5483 -561.0966 -493.4797
ENERGY: 30000 0.3454 1.8691 0.7203 0.0000 -22677.8255 3810.1248 0.0000 0.0000 575.1599 -18289.6060 60.2359 -18864.7659 -18288.4587 56.9441 -529.9295 -460.8934 46550.3312 8.2442 8.2304
ENERGY: 35000 1.1490 3.2404 0.6075 0.0000 -22749.4103 3844.1250 0.0000 0.0000 585.3747 -18314.9137 61.3057 -18900.2884 -18313.4608 60.7886 -416.3756 -359.9115 46426.8310 0.3799 0.7594
ENERGY: 40000 0.0971 2.8811 0.3089 0.0000 -23031.7273 4083.2758 0.0000 0.0000 561.0435 -18384.1210 58.7575 -18945.1645 -18383.4195 60.5731 872.6607 914.0249 45880.0019 -2.3894 -2.3618
ENERGY: 45000 0.8193 3.3047 0.3517 0.0000 -22933.1191 3953.7923 0.0000 0.0000 559.6107 -18415.2404 58.6075 -18974.8511 -18413.3126 59.3051 37.4098 96.9863 46179.3485 5.6014 5.8618
ENERGY: 50000 0.1149 2.2900 0.4536 0.0000 -23177.6045 4191.7108 0.0000 0.0000 579.3027 -18403.7324 60.6698 -18983.0351 -18402.1786 59.5843 1453.0545 1485.7193 45708.9949 6.6365 6.1299
TCL: Running 25000 steps at 90 kelvin.
TCL: Setting parameter langevinTemp to 90
TCL: Running for 25000 steps
ETITLE: TS BOND ANGLE DIHED IMPRP ELECT VDW BOUNDARY MISC KINETIC TOTAL TEMP POTENTIAL TOTAL3 TEMPAVG PRESSURE GPRESSURE VOLUME PRESSAVG GPRESSAVG
ENERGY: 50000 0.1149 2.2900 0.4536 0.0000 -23177.6045 4191.7108 0.0000 0.0000 579.0107 -18404.0244 60.6392 -18983.0351 -18402.8609 60.6392 1424.4303 1485.8633 45708.9949 1424.4303 1485.8633
ENERGY: 55000 1.5326 4.5330 0.4348 0.0000 -22492.3050 3780.5958 0.0000 0.0000 863.7129 -17841.4957 90.4558 -18705.2086 -17839.8031 86.7049 -220.9103 -126.2501 46356.4702 3.2792 3.5816
ENERGY: 60000 0.5680 4.1940 0.2926 0.0000 -22573.3897 3841.0011 0.0000 0.0000 874.6599 -17852.6741 91.6023 -18727.3340 -17850.2655 90.7178 32.2842 133.5052 46283.8760 3.5496 3.5821
ENERGY: 65000 0.7984 3.2442 0.9727 0.0000 -22605.2225 3843.7939 0.0000 0.0000 855.5902 -17900.8231 89.6051 -18756.4133 -17899.4247 90.0161 44.6112 100.2043 46328.6532 4.2870 4.0844
ENERGY: 70000 1.2741 4.7471 0.7605 0.0000 -22676.9202 3904.1514 0.0000 0.0000 851.9879 -17913.9992 89.2278 -18765.9870 -17912.0980 89.8415 289.6863 377.0173 46392.5703 6.2237 6.0002
ENERGY: 75000 0.8023 4.6388 0.6880 0.0000 -22744.6987 3953.6681 0.0000 0.0000 851.7940 -17933.1075 89.2075 -18784.9015 -17931.0611 89.8876 433.4879 506.1600 46362.4833 3.8436 3.7019
TCL: Running 25000 steps at 120 kelvin.
TCL: Setting parameter langevinTemp to 120
TCL: Running for 25000 steps
ETITLE: TS BOND ANGLE DIHED IMPRP ELECT VDW BOUNDARY MISC KINETIC TOTAL TEMP POTENTIAL TOTAL3 TEMPAVG PRESSURE GPRESSURE VOLUME PRESSAVG GPRESSAVG
ENERGY: 75000 0.8023 4.6388 0.6880 0.0000 -22744.6987 3953.6681 0.0000 0.0000 851.3790 -17933.5225 89.1641 -18784.9015 -17931.9050 89.1641 442.0056 506.8259 46362.4833 442.0056 506.8259
ENERGY: 80000 1.6117 5.9014 1.3412 0.0000 -22266.8947 3809.8909 0.0000 0.0000 1172.6477 -17275.5017 122.8102 -18448.1494 -17272.4745 117.2943 525.8440 570.0959 46468.2570 7.8676 8.4194
ENERGY: 85000 0.8828 2.9827 1.0719 0.0000 -22285.3584 3815.3739 0.0000 0.0000 1144.5021 -17320.5449 119.8626 -18465.0470 -17318.7062 118.9190 453.6314 587.1023 46370.9609 4.2697 4.2399
ENERGY: 90000 0.8607 5.2260 0.7326 0.0000 -22222.4237 3691.0510 0.0000 0.0000 1131.9799 -17392.5735 118.5511 -18524.5534 -17390.7202 119.9975 -244.9322 -169.2483 46578.4568 1.5837 1.1000
ENERGY: 95000 0.7204 3.5720 0.6377 0.0000 -22185.0827 3640.1274 0.0000 0.0000 1136.8245 -17403.2007 119.0585 -18540.0252 -17399.2337 119.4800 -484.7616 -428.9942 46537.8163 4.5760 4.7618
ENERGY: 100000 0.3866 3.8385 0.7659 0.0000 -22247.8295 3671.1558 0.0000 0.0000 1154.2798 -17417.4030 120.8866 -18571.6827 -17413.1230 120.5023 -448.5002 -377.9067 46538.8004 5.8217 5.0672
TCL: Running 25000 steps at 150 kelvin.
TCL: Setting parameter langevinTemp to 150
TCL: Running for 25000 steps
ETITLE: TS BOND ANGLE DIHED IMPRP ELECT VDW BOUNDARY MISC KINETIC TOTAL TEMP POTENTIAL TOTAL3 TEMPAVG PRESSURE GPRESSURE VOLUME PRESSAVG GPRESSAVG
ENERGY: 100000 0.3866 3.8385 0.7659 0.0000 -22247.8295 3671.1558 0.0000 0.0000 1153.7068 -17417.9759 120.8266 -18571.6827 -17415.5414 120.8266 -441.6804 -376.8750 46538.8004 -441.6804 -376.8750
ENERGY: 105000 2.1262 5.6032 2.0915 0.0000 -21775.8656 3565.6787 0.0000 0.0000 1440.2394 -16760.1266 150.8348 -18200.3661 -16755.6839 147.1376 -219.9612 -137.3058 46918.6468 1.6166 1.4636
ENERGY: 110000 1.9602 6.4988 0.8085 0.0000 -21848.2784 3637.9268 0.0000 0.0000 1446.3289 -16754.7553 151.4726 -18201.0842 -16749.8865 151.4157 138.1094 206.7721 46880.2574 4.4659 4.9840
ENERGY: 115000 0.9971 4.7484 2.3401 0.0000 -21837.7430 3576.7066 0.0000 0.0000 1441.2513 -16811.6995 150.9408 -18252.9507 -16807.0957 149.9711 -246.7473 -188.4664 46797.9658 0.1528 0.0936
ENERGY: 120000 1.2540 4.6923 0.8247 0.0000 -21784.0011 3546.1452 0.0000 0.0000 1407.9966 -16823.0882 147.4581 -18231.0849 -16818.9317 150.2813 -487.4368 -433.6075 47093.6855 -0.0283 -0.4019
ENERGY: 125000 0.5207 4.5504 0.7717 0.0000 -22045.9912 3771.7480 0.0000 0.0000 1434.9973 -16833.4032 150.2858 -18268.4005 -16829.3311 149.9305 719.5016 820.4466 46563.0727 2.4091 2.7872
TCL: Running 50000 steps at 180 kelvin.
TCL: Setting parameter langevinTemp to 180
TCL: Running for 50000 steps
ETITLE: TS BOND ANGLE DIHED IMPRP ELECT VDW BOUNDARY MISC KINETIC TOTAL TEMP POTENTIAL TOTAL3 TEMPAVG PRESSURE GPRESSURE VOLUME PRESSAVG GPRESSAVG
ENERGY: 125000 0.5207 4.5504 0.7717 0.0000 -22045.9912 3771.7480 0.0000 0.0000 1434.2689 -16834.1316 150.2096 -18268.4005 -16831.8215 150.2096 763.1653 820.6371 46563.0727 763.1653 820.6371
ENERGY: 135000 1.5107 5.7829 0.6736 0.0000 -21377.3196 3578.7477 0.0000 0.0000 1660.7332 -16129.8716 173.9269 -17790.6047 -16127.6245 179.9451 826.3719 949.2030 46385.5982 2.8326 2.6476
ENERGY: 145000 1.3792 4.7690 0.7194 0.0000 -21142.9213 3277.6837 0.0000 0.0000 1683.6196 -16174.7503 176.3238 -17858.3699 -16167.9564 180.8937 -905.4470 -856.2176 47029.7537 1.9404 1.6900
ENERGY: 155000 1.9686 3.6391 0.6795 0.0000 -21187.2429 3351.0390 0.0000 0.0000 1729.2322 -16100.6846 181.1008 -17829.9168 -16097.4540 180.1775 -477.6552 -411.5204 46861.6131 -3.8030 -3.7080
ENERGY: 165000 0.9786 4.4734 0.6092 0.0000 -21398.0937 3542.7560 0.0000 0.0000 1699.7815 -16149.4951 178.0164 -17849.2765 -16146.9573 179.8035 428.5708 512.4594 46825.5676 2.2321 2.0419
ENERGY: 175000 0.2249 4.5750 0.9527 0.0000 -21402.7480 3542.5558 0.0000 0.0000 1731.4558 -16122.9838 181.3336 -17854.4396 -16118.9339 180.2961 509.9993 574.6022 46988.9732 -2.2268 -2.5166
TCL: Running 50000 steps at 210 kelvin.
TCL: Setting parameter langevinTemp to 210
TCL: Running for 50000 steps
ETITLE: TS BOND ANGLE DIHED IMPRP ELECT VDW BOUNDARY MISC KINETIC TOTAL TEMP POTENTIAL TOTAL3 TEMPAVG PRESSURE GPRESSURE VOLUME PRESSAVG GPRESSAVG
ENERGY: 175000 0.2249 4.5750 0.9527 0.0000 -21402.7480 3542.5558 0.0000 0.0000 1730.6028 -16123.8368 181.2443 -17854.4396 -16120.9863 181.2443 523.7798 574.5945 46988.9732 523.7798 574.5945
ENERGY: 185000 0.8902 5.7252 1.7640 0.0000 -20406.9130 3235.6884 0.0000 0.0000 1992.4931 -15170.3522 208.6718 -17162.8453 -15166.7055 209.2710 648.7105 753.0588 46371.2446 2.1293 2.5494
ENERGY: 195000 2.1643 9.3870 1.0974 0.0000 -20237.7522 3053.5213 0.0000 0.0000 1997.6338 -15173.9483 209.2102 -17171.5821 -15169.6659 209.6756 -264.3085 -170.6108 46619.8086 -2.8337 -3.1102
ENERGY: 205000 1.6507 5.6144 2.4724 0.0000 -20061.3749 3024.0012 0.0000 0.0000 1990.0864 -15037.5497 208.4198 -17027.6361 -15033.7849 209.1914 -38.7193 21.2637 46717.3340 -5.3577 -5.4466
ENERGY: 215000 1.7433 6.7539 1.0258 0.0000 -20007.7242 2894.0173 0.0000 0.0000 1929.2969 -15174.8870 202.0534 -17104.1839 -15168.6520 209.8014 -1078.9665 -1002.9919 47162.3394 -0.2592 0.1494
ENERGY: 225000 0.3549 5.6898 1.5993 0.0000 -20164.2239 3080.8362 0.0000 0.0000 2026.1039 -15049.6399 212.1919 -17075.7438 -15047.6103 209.7862 115.7455 204.0681 46569.1923 5.9664 6.3876
TCL: Running 50000 steps at 240 kelvin.
TCL: Setting parameter langevinTemp to 240
TCL: Running for 50000 steps
ETITLE: TS BOND ANGLE DIHED IMPRP ELECT VDW BOUNDARY MISC KINETIC TOTAL TEMP POTENTIAL TOTAL3 TEMPAVG PRESSURE GPRESSURE VOLUME PRESSAVG GPRESSAVG
ENERGY: 225000 0.3549 5.6898 1.5993 0.0000 -20164.2239 3080.8362 0.0000 0.0000 2025.0803 -15050.6635 212.0847 -17075.7438 -15047.1805 212.0847 127.9345 202.3919 46569.1923 127.9345 202.3919
ENERGY: 235000 1.9956 9.7864 1.6323 0.0000 -19026.5857 2761.1649 0.0000 0.0000 2327.3163 -13924.6902 243.7375 -16252.0066 -13917.9009 241.9056 43.7810 138.2478 47169.0252 -1.0623 -1.1346
ENERGY: 245000 0.3247 6.5415 1.2439 0.0000 -18966.5088 2673.8108 0.0000 0.0000 2289.9151 -13994.6728 239.8205 -16284.5879 -13990.3931 240.0673 -529.4557 -461.3399 47794.0535 1.3662 1.1980
ENERGY: 255000 3.1253 8.1151 1.0654 0.0000 -19169.5863 2705.9914 0.0000 0.0000 2307.5650 -14143.7241 241.6690 -16451.2891 -14137.7058 239.7011 -580.0771 -464.1052 47062.3631 6.9698 7.2603
ENERGY: 265000 2.3153 8.4789 2.4577 0.0000 -19117.9090 2782.0663 0.0000 0.0000 2324.9264 -13997.6644 243.4872 -16322.5908 -13992.7880 241.0442 113.4347 207.2893 47286.0978 3.2934 3.3903
ENERGY: 275000 1.2731 8.9563 1.0884 0.0000 -19084.2160 2746.1330 0.0000 0.0000 2296.6735 -14030.0916 240.5283 -16326.7651 -14024.9691 239.3011 34.4724 155.9364 46988.8945 3.4787 2.6404
TCL: Running 50000 steps at 270 kelvin.
TCL: Setting parameter langevinTemp to 270
TCL: Running for 50000 steps
ETITLE: TS BOND ANGLE DIHED IMPRP ELECT VDW BOUNDARY MISC KINETIC TOTAL TEMP POTENTIAL TOTAL3 TEMPAVG PRESSURE GPRESSURE VOLUME PRESSAVG GPRESSAVG
ENERGY: 275000 1.2731 8.9563 1.0884 0.0000 -19084.2160 2746.1330 0.0000 0.0000 2295.5041 -14031.2610 240.4059 -16326.7651 -14027.5176 240.4059 63.2683 155.9772 46988.8945 63.2683 155.9772
ENERGY: 285000 1.5811 8.3663 0.7136 0.0000 -18450.7197 2676.9311 0.0000 0.0000 2604.6166 -13158.5111 272.7789 -15763.1276 -13151.9810 269.3154 499.1990 551.5221 48027.3013 3.2983 2.8471
ENERGY: 295000 0.2387 8.8085 0.3758 0.0000 -18380.0316 2648.5301 0.0000 0.0000 2606.9912 -13115.0872 273.0276 -15722.0784 -13110.8700 270.6159 526.4618 605.9680 47979.6567 0.1900 -0.3006
ENERGY: 305000 2.8245 10.5875 2.8827 0.0000 -18414.9006 2611.2044 0.0000 0.0000 2524.2150 -13263.1865 264.3585 -15787.4015 -13256.9921 269.0247 38.9109 129.2523 48171.6057 4.9026 4.9621
ENERGY: 315000 0.7130 6.4862 0.7088 0.0000 -18234.6926 2532.8879 0.0000 0.0000 2623.7357 -13070.1611 274.7812 -15693.8968 -13063.5184 271.4998 29.7284 105.4565 47926.7404 0.1410 0.2102
ENERGY: 325000 0.9984 10.8291 0.4438 0.0000 -18155.1224 2483.5980 0.0000 0.0000 2610.4186 -13048.8345 273.3866 -15659.2531 -13047.6307 271.6282 -231.6998 -107.3887 48029.1748 3.5871 3.1001
TCL: Running 1000000 steps at 300 kelvin.
TCL: Setting parameter langevinTemp to 300
TCL: Running for 1000000 steps
ETITLE: TS BOND ANGLE DIHED IMPRP ELECT VDW BOUNDARY MISC KINETIC TOTAL TEMP POTENTIAL TOTAL3 TEMPAVG PRESSURE GPRESSURE VOLUME PRESSAVG GPRESSAVG
ENERGY: 325000 0.9984 10.8291 0.4438 0.0000 -18155.1224 2483.5980 0.0000 0.0000 2609.0922 -13050.1609 273.2476 -15659.2531 -13045.9771 273.2476 -194.4866 -108.1164 48029.1748 -194.4866 -108.1164
ENERGY: 525000 0.3223 11.5219 2.7968 0.0000 -17337.0898 2337.6918 0.0000 0.0000 2819.2868 -12165.4703 295.2611 -14984.7571 -12160.9480 299.9300 135.1930 220.1905 49110.1234 2.0226 2.2308
ENERGY: 725000 2.2767 10.9658 0.5548 0.0000 -17266.5731 2230.8631 0.0000 0.0000 2836.6755 -12185.2372 297.0822 -15021.9127 -12178.5450 298.8047 -468.7288 -374.0178 49480.7748 5.3505 5.4779
ENERGY: 925000 0.6610 9.8975 2.9650 0.0000 -17507.0033 2384.4969 0.0000 0.0000 2836.8117 -12272.1713 297.0965 -15108.9829 -12264.2442 300.0846 226.5856 309.9864 49153.1221 1.9722 2.3211
ENERGY: 1125000 2.0390 7.3169 1.5885 0.0000 -17367.7447 2311.6527 0.0000 0.0000 2843.8441 -12201.3034 297.8330 -15045.1475 -12196.5994 298.1660 -184.3404 -111.7085 49496.1599 -0.7695 -0.8455
ENERGY: 1325000 3.2913 9.3828 1.0076 0.0000 -17351.4449 2252.0116 0.0000 0.0000 2783.6409 -12302.1106 291.5280 -15085.7515 -12298.0923 298.9138 -600.8464 -435.5570 49225.8631 -0.1811 -0.0523
TCL: Exiting due to exit command.
