Info: SIMULATION PARAMETERS:
Info: TIMESTEP               2
Info: NUMBER OF STEPS        0
Info: STEPS PER CYCLE        10
Info: PERIODIC CELL BASIS 1  43.508 0 0
Info: PERIODIC CELL BASIS 2  0 45.083 0
Info: PERIODIC CELL BASIS 3  0 0 42.247
Info: PERIODIC CELL CENTER   0 0 0
Info: WRAPPING WATERS AROUND PERIODIC BOUNDARIES ON OUTPUT.
Info: WRAPPING ALL CLUSTERS AROUND PERIODIC BOUNDARIES ON OUTPUT.
Info: FIRST LDB TIMESTEP     50
Info: LAST LDB TIMESTEP     -1
Info: HOM BACKGROUND SCALING 1
Info: PME BACKGROUND SCALING 1
Info: MIN ATOMS PER PATCH    40
Info: EMPTY PATCH LOAD       40 ATOMS
Info: INITIAL TEMPERATURE    300
Info: CENTER OF MASS MOVING INITIALLY? NO
Info: DIELECTRIC             1
Info: EXCLUDE                SCALED ONE-FOUR
Info: 1-4 ELECTROSTATICS SCALED BY 0.833333
Info: MODIFIED 1-4 VDW PARAMETERS WILL BE USED
Info: DCD FILENAME           mobley_3201701_min.dcd
Info: DCD FREQUENCY          5000
Info: DCD FIRST STEP         5000
Info: DCD FILE WILL CONTAIN UNIT CELL DATA
Info: XST FILENAME           mobley_3201701_min.xst
Info: XST FREQUENCY          5000
Info: NO VELOCITY DCD OUTPUT
Info: NO FORCE DCD OUTPUT
Info: OUTPUT FILENAME        mobley_3201701_min
Info: BINARY OUTPUT FILES WILL BE USED
Info: RESTART FILENAME       mobley_3201701_min.restart
Info: RESTART FREQUENCY      5000
Info: BINARY RESTART FILES WILL BE USED
Info: CUTOFF                 9
Info: PAIRLIST DISTANCE      11
Info: PAIRLIST SHRINK RATE   0.01
Info: PAIRLIST GROW RATE     0.01
Info: PAIRLIST TRIGGER       0.3
Info: PAIRLISTS PER CYCLE    2
Info: PAIRLISTS ENABLED
Info: MARGIN                 8
Info: HYDROGEN GROUP CUTOFF  2.5
Info: PATCH DIMENSION        21.5
Info: ENERGY OUTPUT STEPS    5000
Info: ENERGY EVALUATION STEPS    5000
Info: OUTPUT ENERGY PRECISION 4
Info: CROSSTERM ENERGY INCLUDED IN DIHEDRAL
Info: TIMING OUTPUT STEPS    50000
Info: PRESSURE OUTPUT STEPS  5000
Info: LANGEVIN DYNAMICS ACTIVE
Info: LANGEVIN TEMPERATURE   300
Info: LANGEVIN USING BBK INTEGRATOR
Info: LANGEVIN DAMPING COEFFICIENT IS 1 INVERSE PS
Info: LANGEVIN DYNAMICS APPLIED TO HYDROGENS
Info: LANGEVIN PISTON PRESSURE CONTROL ACTIVE
Info:        TARGET PRESSURE IS 1.01325 BAR
Info:     OSCILLATION PERIOD IS 50 FS
Info:             DECAY TIME IS 25 FS
Info:     PISTON TEMPERATURE IS 300 K
Info:       PRESSURE CONTROL IS GROUP-BASED
Info:    INITIAL STRAIN RATE IS 0 0 0
Info:       CELL FLUCTUATION IS ISOTROPIC
Info: PARTICLE MESH EWALD (PME) ACTIVE
Info: PME TOLERANCE               1e-06
Info: PME EWALD COEFFICIENT       0.348832
Info: PME INTERPOLATION ORDER     4
Info: PME GRID DIMENSIONS         44 48 44
Info: PME MAXIMUM GRID SPACING    1
Info: FULL ELECTROSTATIC EVALUATION FREQUENCY      2
Info: USING VERLET I (r-RESPA) MTS SCHEME.
Info: C1 SPLITTING OF LONG RANGE ELECTROSTATICS
Info: PLACING ATOMS IN PATCHES BY HYDROGEN GROUPS
Info: RIGID BONDS TO HYDROGEN : ALL
Info:         ERROR TOLERANCE : 1e-08
Info:          MAX ITERATIONS : 100
Info: RIGID WATER USING SETTLE ALGORITHM
Info: RANDOM NUMBER SEED     1741340694
Info: USE HYDROGEN BONDS?    NO
Info: Using AMBER format force field!
Info: AMBER PARM FILE        mobley_3201701.prmtop
Info: COORDINATE PDB         mobley_3201701.pdb
Info: Exclusions will be read from PARM file!
Info: SCNB (VDW SCALING)     2
Info: USING ARITHMETIC MEAN TO COMBINE L-J SIGMA PARAMETERS
Info: SUMMARY OF PARAMETERS:
Info: 14 BONDS
Info: 22 ANGLES
Info:   22 HARMONIC
Info:   0 COSINE-BASED
Info: 16 DIHEDRAL
Info: 0 IMPROPER
Info: 0 CROSSTERM
Info: 0 VDW
Info: 66 VDW_PAIRS
Info: 0 NBTHOLE_PAIRS
Info: STRUCTURE SUMMARY:
Info: 5978 ATOMS
Info: 5978 BONDS
Info: 60 ANGLES
Info: 72 DIHEDRALS
Info: 0 IMPROPERS
Info: 0 CROSSTERMS
Info: 6099 EXCLUSIONS
Info: 5961 RIGID BONDS
Info: 11973 DEGREES OF FREEDOM
Info: 1998 HYDROGEN GROUPS
Info: 4 ATOMS IN LARGEST HYDROGEN GROUP
Info: 1998 MIGRATION GROUPS
Info: 4 ATOMS IN LARGEST MIGRATION GROUP
Info: TOTAL MASS = 35928 amu
Info: TOTAL CHARGE = -0.000100095 e
Info: MASS DENSITY = 0.71997 g/cm^3
Info: ATOM DENSITY = 0.0721403 atoms/A^3
Info: ADDED 0 IMPLICIT EXCLUSIONS
Info: NONBONDED TABLE R-SQUARED SPACING: 0.0625
Info: NONBONDED TABLE SIZE: 705 POINTS
Info: REMOVING COM VELOCITY -0.0342333 -0.0380948 0.0333174
TCL: Minimizing for 2000 steps
ETITLE: TS BOND ANGLE DIHED IMPRP ELECT VDW BOUNDARY MISC KINETIC TOTAL TEMP POTENTIAL TOTAL3 TEMPAVG PRESSURE GPRESSURE VOLUME PRESSAVG GPRESSAVG
ENERGY: 0 1.6322 3.7640 8.4352 0.0000 -19006.3802 2144.1193 0.0000 0.0000 0.0000 -16848.4294 0.0000 -16848.4294 -16848.4294 0.0000 11234.5673 -15994.3921 82866.2723 11234.5673 -15994.3921
ENERGY: 400 5.5744 3.9843 9.7896 0.0000 -24938.0696 3424.1667 0.0000 0.0000 0.0000 -21494.5546 0.0000 -21494.5546 -21494.5546 0.0000 14987.7942 15149.0913 82866.2723 14987.7942 15149.0913
ENERGY: 800 18.2194 7.0873 9.8068 0.0000 -26477.6126 4176.7588 0.0000 0.0000 0.0000 -22265.7403 0.0000 -22265.7403 -22265.7403 0.0000 17702.8291 17830.3227 82866.2723 17702.8291 17830.3227
ENERGY: 1200 1.4957 2.2280 10.0720 0.0000 -27065.2318 4448.1186 0.0000 0.0000 0.0000 -22603.3175 0.0000 -22603.3175 -22603.3175 0.0000 18777.4317 18900.4934 82866.2723 18777.4317 18900.4934
ENERGY: 1600 2.7706 3.2730 10.0373 0.0000 -27317.6233 4559.2344 0.0000 0.0000 0.0000 -22742.3080 0.0000 -22742.3080 -22742.3080 0.0000 19226.2197 19330.9957 82866.2723 19226.2197 19330.9957
ENERGY: 2000 1.1483 2.2476 10.0944 0.0000 -27482.9923 4608.6676 0.0000 0.0000 0.0000 -22860.8343 0.0000 -22860.8343 -22860.8343 0.0000 19433.9263 19539.2927 82866.2723 19433.9263 19539.2927
TCL: Exiting due to exit command.
Info: NAMD 3.0.1 for Linux-x86_64-multicore
Info: Please visit http://www.ks.uiuc.edu/Research/namd/
Info: for updates, documentation, and support information.
Info: Please cite Phillips et al., J. Chem. Phys. 153:044130 (2020) doi:10.1063/5.0014475
Info: in all publications reporting results obtained with NAMD.
Info: Based on Charm++/Converse 80000 for multicore-linux-x86_64-gcc
Info: Built Mon Oct 14 11:11:06 CDT 2024 by dhardy on athine.ks.uiuc.edu
Info: 1 NAMD  3.0.1  Linux-x86_64-multicore  16    k026  z5358697
Info: Running on 16 processors, 1 nodes, 1 physical nodes.
Info: CPU topology information available.
Info: Charm++/Converse parallel runtime startup completed at 0.0353191 s
Info: 1043.46 MB of memory in use based on /proc/self/stat
Info: Configuration file is mobley_3201701_equil.namd
Info: Working in the current directory /srv/scratch/z5358697/prod_prep_3/3201701
TCL: Running 25000 steps at 30 kelvin.
TCL: Suspending until startup complete.
Info: SIMULATION PARAMETERS:
Info: TIMESTEP               2
Info: NUMBER OF STEPS        0
Info: STEPS PER CYCLE        10
Info: PERIODIC CELL BASIS 1  43.508 0 0
Info: PERIODIC CELL BASIS 2  0 45.083 0
Info: PERIODIC CELL BASIS 3  0 0 42.247
Info: PERIODIC CELL CENTER   0 0 0
Info: WRAPPING WATERS AROUND PERIODIC BOUNDARIES ON OUTPUT.
Info: WRAPPING ALL CLUSTERS AROUND PERIODIC BOUNDARIES ON OUTPUT.
Info: FIRST LDB TIMESTEP     50
Info: LAST LDB TIMESTEP     -1
Info: HOM BACKGROUND SCALING 1
Info: PME BACKGROUND SCALING 1
Info: MIN ATOMS PER PATCH    40
Info: EMPTY PATCH LOAD       40 ATOMS
Info: INITIAL TEMPERATURE    300
Info: CENTER OF MASS MOVING INITIALLY? NO
Info: DIELECTRIC             1
Info: EXCLUDE                SCALED ONE-FOUR
Info: 1-4 ELECTROSTATICS SCALED BY 0.833333
Info: MODIFIED 1-4 VDW PARAMETERS WILL BE USED
Info: DCD FILENAME           mobley_3201701_equil.dcd
Info: DCD FREQUENCY          5000
Info: DCD FIRST STEP         5000
Info: DCD FILE WILL CONTAIN UNIT CELL DATA
Info: XST FILENAME           mobley_3201701_equil.xst
Info: XST FREQUENCY          5000
Info: NO VELOCITY DCD OUTPUT
Info: NO FORCE DCD OUTPUT
Info: OUTPUT FILENAME        mobley_3201701_equil
Info: BINARY OUTPUT FILES WILL BE USED
Info: RESTART FILENAME       mobley_3201701_equil.restart
Info: RESTART FREQUENCY      5000
Info: BINARY RESTART FILES WILL BE USED
Info: CUTOFF                 9
Info: PAIRLIST DISTANCE      11
Info: PAIRLIST SHRINK RATE   0.01
Info: PAIRLIST GROW RATE     0.01
Info: PAIRLIST TRIGGER       0.3
Info: PAIRLISTS PER CYCLE    2
Info: PAIRLISTS ENABLED
Info: MARGIN                 8
Info: HYDROGEN GROUP CUTOFF  2.5
Info: PATCH DIMENSION        21.5
Info: ENERGY OUTPUT STEPS    5000
Info: ENERGY EVALUATION STEPS    5000
Info: OUTPUT ENERGY PRECISION 4
Info: CROSSTERM ENERGY INCLUDED IN DIHEDRAL
Info: TIMING OUTPUT STEPS    50000
Info: PRESSURE OUTPUT STEPS  5000
Info: LANGEVIN DYNAMICS ACTIVE
Info: LANGEVIN TEMPERATURE   30
Info: LANGEVIN USING BBK INTEGRATOR
Info: LANGEVIN DAMPING COEFFICIENT IS 1 INVERSE PS
Info: LANGEVIN DYNAMICS APPLIED TO HYDROGENS
Info: LANGEVIN PISTON PRESSURE CONTROL ACTIVE
Info:        TARGET PRESSURE IS 1.01325 BAR
Info:     OSCILLATION PERIOD IS 50 FS
Info:             DECAY TIME IS 25 FS
Info:     PISTON TEMPERATURE IS 300 K
Info:       PRESSURE CONTROL IS GROUP-BASED
Info:    INITIAL STRAIN RATE IS 0 0 0
Info:       CELL FLUCTUATION IS ISOTROPIC
Info: PARTICLE MESH EWALD (PME) ACTIVE
Info: PME TOLERANCE               1e-06
Info: PME EWALD COEFFICIENT       0.348832
Info: PME INTERPOLATION ORDER     4
Info: PME GRID DIMENSIONS         44 48 44
Info: PME MAXIMUM GRID SPACING    1
Info: FULL ELECTROSTATIC EVALUATION FREQUENCY      2
Info: USING VERLET I (r-RESPA) MTS SCHEME.
Info: C1 SPLITTING OF LONG RANGE ELECTROSTATICS
Info: PLACING ATOMS IN PATCHES BY HYDROGEN GROUPS
Info: RIGID BONDS TO HYDROGEN : ALL
Info:         ERROR TOLERANCE : 1e-08
Info:          MAX ITERATIONS : 100
Info: RIGID WATER USING SETTLE ALGORITHM
Info: RANDOM NUMBER SEED     1741340710
Info: USE HYDROGEN BONDS?    NO
Info: Using AMBER format force field!
Info: AMBER PARM FILE        mobley_3201701.prmtop
Info: COORDINATE PDB         mobley_3201701.pdb
Info: Exclusions will be read from PARM file!
Info: SCNB (VDW SCALING)     2
Info: USING ARITHMETIC MEAN TO COMBINE L-J SIGMA PARAMETERS
Info: BINARY COORDINATES     mobley_3201701_min.coor
Info: SUMMARY OF PARAMETERS:
Info: 14 BONDS
Info: 22 ANGLES
Info:   22 HARMONIC
Info:   0 COSINE-BASED
Info: 16 DIHEDRAL
Info: 0 IMPROPER
Info: 0 CROSSTERM
Info: 0 VDW
Info: 66 VDW_PAIRS
Info: 0 NBTHOLE_PAIRS
Info: STRUCTURE SUMMARY:
Info: 5978 ATOMS
Info: 5978 BONDS
Info: 60 ANGLES
Info: 72 DIHEDRALS
Info: 0 IMPROPERS
Info: 0 CROSSTERMS
Info: 6099 EXCLUSIONS
Info: 5961 RIGID BONDS
Info: 11973 DEGREES OF FREEDOM
Info: 1998 HYDROGEN GROUPS
Info: 4 ATOMS IN LARGEST HYDROGEN GROUP
Info: 1998 MIGRATION GROUPS
Info: 4 ATOMS IN LARGEST MIGRATION GROUP
Info: TOTAL MASS = 35928 amu
Info: TOTAL CHARGE = -0.000100095 e
Info: MASS DENSITY = 0.71997 g/cm^3
Info: ATOM DENSITY = 0.0721403 atoms/A^3
Info: ADDED 0 IMPLICIT EXCLUSIONS
Info: NONBONDED TABLE R-SQUARED SPACING: 0.0625
Info: NONBONDED TABLE SIZE: 705 POINTS
Info: REMOVING COM VELOCITY 0.00304625 -0.000401208 0.0171182
TCL: Running for 25000 steps
ETITLE: TS BOND ANGLE DIHED IMPRP ELECT VDW BOUNDARY MISC KINETIC TOTAL TEMP POTENTIAL TOTAL3 TEMPAVG PRESSURE GPRESSURE VOLUME PRESSAVG GPRESSAVG
ENERGY: 0 1.1483 2.2476 10.0944 0.0000 -27482.9923 4608.6676 0.0000 0.0000 3607.7603 -19253.0740 303.2669 -22860.8343 -19252.3442 303.2669 -120.2641 -83.0394 82866.2723 -120.2641 -83.0394
ENERGY: 5000 0.7140 4.4890 10.8741 0.0000 -28818.2134 4949.5004 0.0000 0.0000 359.0553 -23493.5806 30.1821 -23852.6359 -23492.5975 47.4474 -90.5334 -34.7585 59808.1343 -2.7072 -3.0987
ENERGY: 10000 1.6312 3.6804 10.6709 0.0000 -28931.1878 5031.8108 0.0000 0.0000 365.7762 -23517.6184 30.7470 -23883.3946 -23516.3897 30.3393 190.3975 244.9210 59656.6751 -1.6872 -1.5397
ENERGY: 15000 2.3308 3.2552 10.4197 0.0000 -28909.4481 4994.2359 0.0000 0.0000 357.4644 -23541.7422 30.0483 -23899.2065 -23540.8701 30.0514 -43.4442 34.9822 59736.4770 1.9181 1.9759
ENERGY: 20000 1.7155 2.7710 10.7138 0.0000 -28972.5780 5046.3829 0.0000 0.0000 360.5443 -23550.4505 30.3072 -23910.9948 -23549.2295 30.1183 249.1093 310.1281 59366.4541 2.4999 2.4761
ENERGY: 25000 1.3224 3.8770 10.5874 0.0000 -28666.3831 4732.5141 0.0000 0.0000 356.9933 -23561.0889 30.0087 -23918.0822 -23560.1097 30.2179 -1111.8728 -1047.7446 59939.9300 -1.2481 -1.3478
TCL: Running 25000 steps at 60 kelvin.
TCL: Setting parameter langevinTemp to 60
TCL: Running for 25000 steps
ETITLE: TS BOND ANGLE DIHED IMPRP ELECT VDW BOUNDARY MISC KINETIC TOTAL TEMP POTENTIAL TOTAL3 TEMPAVG PRESSURE GPRESSURE VOLUME PRESSAVG GPRESSAVG
ENERGY: 25000 1.3224 3.8770 10.5874 0.0000 -28666.3831 4732.5141 0.0000 0.0000 356.8169 -23561.2653 29.9939 -23918.0822 -23560.4192 29.9939 -1110.4031 -1047.7625 59939.9300 -1110.4031 -1047.7625
ENERGY: 30000 1.3735 4.8497 12.2543 0.0000 -28474.5655 4857.0343 0.0000 0.0000 731.6900 -22867.3637 61.5056 -23599.0536 -22865.6314 57.4352 17.7259 78.5314 59697.5598 -0.8160 -0.7542
ENERGY: 35000 1.7358 4.7884 12.7193 0.0000 -28621.6714 4912.2148 0.0000 0.0000 717.7432 -22972.4699 60.3332 -23690.2131 -22970.3449 60.5286 134.4096 214.8723 59488.7702 6.1397 6.2419
ENERGY: 40000 3.1378 3.8391 10.5924 0.0000 -28747.6894 5028.0479 0.0000 0.0000 711.9116 -22990.1606 59.8430 -23702.0722 -22989.0243 59.7196 620.9811 685.0036 59070.6746 0.7092 0.8221
ENERGY: 45000 1.3544 4.8941 12.0991 0.0000 -28909.9992 5149.3994 0.0000 0.0000 707.3756 -23034.8765 59.4617 -23742.2521 -23032.8374 60.2138 1115.7060 1171.4375 58770.1436 -2.0993 -2.0661
ENERGY: 50000 2.6701 5.0937 11.7391 0.0000 -28656.7657 4883.7483 0.0000 0.0000 732.4951 -23021.0194 61.5733 -23753.5145 -23018.4766 60.1573 -49.8953 -0.6860 59048.3579 3.8380 3.8371
TCL: Running 25000 steps at 90 kelvin.
TCL: Setting parameter langevinTemp to 90
TCL: Running for 25000 steps
ETITLE: TS BOND ANGLE DIHED IMPRP ELECT VDW BOUNDARY MISC KINETIC TOTAL TEMP POTENTIAL TOTAL3 TEMPAVG PRESSURE GPRESSURE VOLUME PRESSAVG GPRESSAVG
ENERGY: 50000 2.6701 5.0937 11.7391 0.0000 -28656.7657 4883.7483 0.0000 0.0000 732.1277 -23021.3868 61.5424 -23753.5145 -23019.6578 61.5424 -57.9975 -0.4750 59048.3579 -57.9975 -0.4750
ENERGY: 55000 2.6906 5.5389 11.5247 0.0000 -28191.6769 4772.7853 0.0000 0.0000 1048.3323 -22350.8051 88.1224 -23399.1374 -22348.3772 87.1339 152.5264 200.4739 59103.8573 -0.3102 -0.4629
ENERGY: 60000 2.0386 5.9302 11.7741 0.0000 -28182.8560 4711.3659 0.0000 0.0000 1101.2407 -22350.5066 92.5699 -23451.7473 -22347.6540 89.8474 -70.1507 -19.5687 58795.1333 -0.2493 -0.3299
ENERGY: 65000 2.9995 4.7771 10.5076 0.0000 -28411.6021 4891.0904 0.0000 0.0000 1075.8927 -22426.3349 90.4391 -23502.2275 -22423.4673 90.2317 559.6927 622.9582 58665.1877 2.4216 2.6185
ENERGY: 70000 2.0731 5.5302 11.2893 0.0000 -28344.0131 4837.2837 0.0000 0.0000 1074.8821 -22412.9548 90.3542 -23487.8369 -22410.5363 89.7831 238.2376 262.1076 58997.7108 3.4120 3.8674
ENERGY: 75000 2.1564 6.0954 11.5495 0.0000 -28361.5922 4829.0174 0.0000 0.0000 1074.2615 -22438.5120 90.3020 -23512.7735 -22436.2719 90.1451 327.8423 360.2708 58610.1786 2.1372 2.4328
TCL: Running 25000 steps at 120 kelvin.
TCL: Setting parameter langevinTemp to 120
TCL: Running for 25000 steps
ETITLE: TS BOND ANGLE DIHED IMPRP ELECT VDW BOUNDARY MISC KINETIC TOTAL TEMP POTENTIAL TOTAL3 TEMPAVG PRESSURE GPRESSURE VOLUME PRESSAVG GPRESSAVG
ENERGY: 75000 2.1564 6.0954 11.5495 0.0000 -28361.5922 4829.0174 0.0000 0.0000 1073.7317 -22439.0417 90.2575 -23512.7735 -22436.6564 90.2575 313.6719 360.0763 58610.1786 313.6719 360.0763
ENERGY: 80000 2.4907 9.2398 12.3160 0.0000 -27585.1160 4436.4487 0.0000 0.0000 1413.8849 -21710.7359 118.8506 -23124.6208 -21707.7858 117.0385 -691.2370 -641.7856 59265.5233 2.7608 2.0246
ENERGY: 85000 4.1245 8.2596 11.6810 0.0000 -27872.9405 4675.0178 0.0000 0.0000 1433.1597 -21740.6979 120.4709 -23173.8576 -21736.4215 120.4089 261.1388 336.7826 58561.1715 1.8286 2.1849
ENERGY: 90000 2.5371 6.9072 10.4531 0.0000 -27873.7796 4605.1705 0.0000 0.0000 1386.4136 -21862.2981 116.5414 -23248.7117 -21857.9863 120.5429 -202.4279 -157.2574 58751.9448 2.1369 1.8732
ENERGY: 95000 2.4597 6.5322 12.7571 0.0000 -27694.6489 4464.2940 0.0000 0.0000 1429.4756 -21779.1302 120.1612 -23208.6059 -21775.9676 120.3471 -698.8945 -639.6353 58910.0274 7.0507 6.8300
ENERGY: 100000 3.5011 6.7896 10.6476 0.0000 -27822.4892 4535.4489 0.0000 0.0000 1425.9558 -21840.1462 119.8653 -23266.1020 -21836.0432 120.5942 -534.6873 -469.3035 58757.5029 1.1168 0.9705
TCL: Running 25000 steps at 150 kelvin.
TCL: Setting parameter langevinTemp to 150
TCL: Running for 25000 steps
ETITLE: TS BOND ANGLE DIHED IMPRP ELECT VDW BOUNDARY MISC KINETIC TOTAL TEMP POTENTIAL TOTAL3 TEMPAVG PRESSURE GPRESSURE VOLUME PRESSAVG GPRESSAVG
ENERGY: 100000 3.5011 6.7896 10.6476 0.0000 -27822.4892 4535.4489 0.0000 0.0000 1425.2563 -21840.8457 119.8065 -23266.1020 -21837.6893 119.8065 -522.3053 -468.5911 58757.5029 -522.3053 -468.5911
ENERGY: 105000 2.0857 7.8447 11.9558 0.0000 -27260.8587 4390.1583 0.0000 0.0000 1817.1106 -21031.7037 152.7456 -22848.8143 -21028.9296 145.6976 -246.9952 -194.1450 58843.7999 2.6393 2.5745
ENERGY: 110000 3.0018 8.4330 12.9999 0.0000 -27260.3464 4390.4619 0.0000 0.0000 1795.3102 -21050.1397 150.9131 -22845.4499 -21045.0648 150.1216 -430.9875 -354.6795 59065.8024 2.8194 2.8964
ENERGY: 115000 3.2505 9.2647 11.7095 0.0000 -27478.1196 4532.7709 0.0000 0.0000 1773.8073 -21147.3167 149.1056 -22921.1240 -21142.9616 150.0025 127.5463 214.8603 58588.8874 1.0793 1.2020
ENERGY: 120000 2.7890 10.1922 11.6662 0.0000 -27366.4308 4433.4145 0.0000 0.0000 1791.1007 -21117.2681 150.5592 -22908.3688 -21112.6084 150.6737 -186.7250 -163.9802 58514.9376 2.4523 2.0398
ENERGY: 125000 2.8377 8.8285 11.3489 0.0000 -27422.5736 4508.2022 0.0000 0.0000 1819.6982 -21071.6581 152.9631 -22891.3563 -21066.9368 149.6817 118.0860 162.6434 58500.6080 2.0719 2.2442
TCL: Running 50000 steps at 180 kelvin.
TCL: Setting parameter langevinTemp to 180
TCL: Running for 50000 steps
ETITLE: TS BOND ANGLE DIHED IMPRP ELECT VDW BOUNDARY MISC KINETIC TOTAL TEMP POTENTIAL TOTAL3 TEMPAVG PRESSURE GPRESSURE VOLUME PRESSAVG GPRESSAVG
ENERGY: 125000 2.8377 8.8285 11.3489 0.0000 -27422.5736 4508.2022 0.0000 0.0000 1818.7959 -21072.5603 152.8873 -22891.3563 -21069.1559 152.8873 102.1599 162.5588 58500.6080 102.1599 162.5588
ENERGY: 135000 3.6354 7.7862 12.1476 0.0000 -26732.4751 4298.9593 0.0000 0.0000 2160.9050 -20249.0417 181.6448 -22409.9467 -20243.3747 179.9982 275.1687 315.4723 58261.8238 -0.2759 -0.2694
ENERGY: 145000 2.5189 11.7590 12.2962 0.0000 -26808.5768 4324.3084 0.0000 0.0000 2136.6628 -20321.0315 179.6071 -22457.6943 -20314.3579 180.4432 312.7105 360.8650 58043.9357 3.7779 3.9848
ENERGY: 155000 4.5823 10.5935 12.0229 0.0000 -26833.5980 4346.2651 0.0000 0.0000 2137.9505 -20322.1837 179.7153 -22460.1342 -20317.9596 179.4081 309.7732 358.0808 58151.8267 3.6909 3.9827
ENERGY: 165000 3.3509 6.1032 11.2965 0.0000 -26724.9468 4223.0948 0.0000 0.0000 2122.9721 -20358.1294 178.4562 -22481.1015 -20352.0079 180.4947 -237.1583 -211.1578 58514.5921 5.8462 6.0844
ENERGY: 175000 3.1777 10.9378 16.4768 0.0000 -26824.9059 4325.0381 0.0000 0.0000 2138.2452 -20331.0303 179.7401 -22469.2755 -20327.4519 179.5202 274.1413 339.0374 58001.7518 3.5715 3.7531
TCL: Running 50000 steps at 210 kelvin.
TCL: Setting parameter langevinTemp to 210
TCL: Running for 50000 steps
ETITLE: TS BOND ANGLE DIHED IMPRP ELECT VDW BOUNDARY MISC KINETIC TOTAL TEMP POTENTIAL TOTAL3 TEMPAVG PRESSURE GPRESSURE VOLUME PRESSAVG GPRESSAVG
ENERGY: 175000 3.1777 10.9378 16.4768 0.0000 -26824.9059 4325.0381 0.0000 0.0000 2137.1724 -20332.1031 179.6499 -22469.2755 -20328.6476 179.6499 276.7692 337.6860 58001.7518 276.7692 337.6860
ENERGY: 185000 3.0428 11.7455 15.6661 0.0000 -25462.1703 3914.4975 0.0000 0.0000 2444.5934 -19072.6249 205.4916 -21517.2184 -19068.1057 208.8371 297.6744 340.1125 58312.4159 2.4395 1.9293
ENERGY: 195000 2.9345 11.7908 15.6828 0.0000 -25515.1663 3938.2257 0.0000 0.0000 2462.8509 -19083.6816 207.0263 -21546.5326 -19077.8601 209.9903 493.4110 562.4181 57734.1304 0.5827 0.9436
ENERGY: 205000 5.3928 8.6600 11.7957 0.0000 -25304.6859 3740.3076 0.0000 0.0000 2436.5949 -19101.9349 204.8192 -21538.5298 -19094.8248 208.8755 -682.9889 -626.0951 59000.0545 3.8674 4.5279
ENERGY: 215000 4.9879 11.0385 12.8470 0.0000 -25431.2696 3861.3500 0.0000 0.0000 2476.1846 -19064.8616 208.1471 -21541.0463 -19060.8117 210.8776 -51.1283 2.9383 58391.2201 4.4750 4.2370
ENERGY: 225000 3.6659 10.3311 16.3022 0.0000 -25285.9770 3753.9606 0.0000 0.0000 2448.4078 -19053.3095 205.8122 -21501.7173 -19048.1449 209.9569 -305.3006 -266.7725 58642.0704 2.5975 2.8461
TCL: Running 50000 steps at 240 kelvin.
TCL: Setting parameter langevinTemp to 240
TCL: Running for 50000 steps
ETITLE: TS BOND ANGLE DIHED IMPRP ELECT VDW BOUNDARY MISC KINETIC TOTAL TEMP POTENTIAL TOTAL3 TEMPAVG PRESSURE GPRESSURE VOLUME PRESSAVG GPRESSAVG
ENERGY: 225000 3.6659 10.3311 16.3022 0.0000 -25285.9770 3753.9606 0.0000 0.0000 2447.1906 -19054.5266 205.7099 -21501.7173 -19050.0297 205.7099 -339.7835 -265.7150 58642.0704 -339.7835 -265.7150
ENERGY: 235000 7.4855 14.9243 14.0230 0.0000 -24162.8452 3448.9750 0.0000 0.0000 2844.6437 -17832.7936 239.1197 -20677.4373 -17825.9723 240.7242 -91.8439 -19.3919 58705.6689 1.7331 1.6208
ENERGY: 245000 6.7637 11.9586 13.4217 0.0000 -23921.8477 3267.6001 0.0000 0.0000 2864.0233 -17758.0803 240.7487 -20622.1036 -17754.4290 239.3227 -859.6961 -766.7551 59125.7051 0.2686 0.4052
ENERGY: 255000 4.2729 15.1253 17.8310 0.0000 -24339.1191 3678.6990 0.0000 0.0000 2833.5242 -17789.6667 238.1850 -20623.1909 -17783.1487 240.1169 843.0200 927.0268 58707.6269 -0.8141 -0.9614
ENERGY: 265000 3.6009 12.4028 16.7528 0.0000 -24207.5028 3536.6592 0.0000 0.0000 2843.7138 -17794.3732 239.0415 -20638.0870 -17788.6769 238.6083 401.7440 446.1140 58624.9484 1.7386 1.8555
ENERGY: 275000 3.5986 12.0225 13.9843 0.0000 -24141.5772 3400.7186 0.0000 0.0000 2883.4410 -17827.8121 242.3809 -20711.2532 -17821.6648 240.6231 -356.0896 -313.7730 58905.5102 4.0198 3.8757
TCL: Running 50000 steps at 270 kelvin.
TCL: Setting parameter langevinTemp to 270
TCL: Running for 50000 steps
ETITLE: TS BOND ANGLE DIHED IMPRP ELECT VDW BOUNDARY MISC KINETIC TOTAL TEMP POTENTIAL TOTAL3 TEMPAVG PRESSURE GPRESSURE VOLUME PRESSAVG GPRESSAVG
ENERGY: 275000 3.5986 12.0225 13.9843 0.0000 -24141.5772 3400.7186 0.0000 0.0000 2881.9997 -17829.2534 242.2598 -20711.2532 -17824.0696 242.2598 -390.4390 -313.8730 58905.5102 -390.4390 -313.8730
ENERGY: 285000 5.2410 17.2348 12.3470 0.0000 -23188.9387 3329.1519 0.0000 0.0000 3217.8730 -16607.0909 270.4932 -19824.9639 -16604.4563 269.5978 522.0739 568.4063 59810.1931 -4.0637 -3.4662
ENERGY: 295000 4.7064 12.7017 16.1836 0.0000 -23120.3198 3243.2551 0.0000 0.0000 3228.0354 -16615.4377 271.3474 -19843.4730 -16608.2184 269.7126 304.0073 381.6768 59767.2582 3.4850 3.2081
ENERGY: 305000 6.6179 17.2349 11.7836 0.0000 -22904.5783 3116.2878 0.0000 0.0000 3208.8643 -16543.7898 269.7359 -19752.6541 -16537.0883 271.1999 -453.4530 -369.1479 60700.4030 5.0548 4.6901
ENERGY: 315000 6.7476 14.1672 15.9194 0.0000 -22913.5529 3146.2013 0.0000 0.0000 3233.6777 -16496.8397 271.8217 -19730.5174 -16492.0323 269.8375 -8.9724 46.1724 59918.6931 1.2499 1.3290
ENERGY: 325000 5.6366 15.2416 12.4338 0.0000 -22955.8775 3145.3950 0.0000 0.0000 3258.7169 -16518.4536 273.9265 -19777.1705 -16510.4981 270.8505 -99.1514 -6.5246 59732.7924 -1.1162 -1.1576
TCL: Running 1000000 steps at 300 kelvin.
TCL: Setting parameter langevinTemp to 300
TCL: Running for 1000000 steps
ETITLE: TS BOND ANGLE DIHED IMPRP ELECT VDW BOUNDARY MISC KINETIC TOTAL TEMP POTENTIAL TOTAL3 TEMPAVG PRESSURE GPRESSURE VOLUME PRESSAVG GPRESSAVG
ENERGY: 325000 5.6366 15.2416 12.4338 0.0000 -22955.8775 3145.3950 0.0000 0.0000 3257.1339 -16520.0366 273.7934 -19777.1705 -16515.9207 273.7934 -97.9761 -7.5135 59732.7924 -97.9761 -7.5135
ENERGY: 525000 3.3539 19.1894 17.1578 0.0000 -21933.8599 2864.1286 0.0000 0.0000 3666.5184 -15363.5118 308.2061 -19030.0303 -15353.9926 299.8492 -375.7421 -258.1889 61660.2148 2.3637 1.8185
ENERGY: 725000 7.7608 15.8048 15.3195 0.0000 -21927.6081 2905.5150 0.0000 0.0000 3627.1287 -15356.0794 304.8950 -18983.2081 -15346.1952 298.9874 -90.0679 -24.0201 61549.2234 2.0707 1.7902
ENERGY: 925000 6.7770 17.0813 13.8607 0.0000 -21801.2276 2850.4328 0.0000 0.0000 3599.4589 -15313.6169 302.5691 -18913.0758 -15305.5006 299.9684 -178.8538 -80.0923 61328.4489 2.2481 1.2285
ENERGY: 1125000 7.1059 16.1523 13.0823 0.0000 -22226.3264 3102.8325 0.0000 0.0000 3617.1771 -15469.9762 304.0585 -19087.1533 -15463.2343 300.6505 779.8867 833.7304 60895.6529 -2.7615 -2.8633
ENERGY: 1325000 4.8121 12.3062 16.0363 0.0000 -21992.4304 2916.2917 0.0000 0.0000 3561.9225 -15481.0615 299.4138 -19042.9840 -15475.7413 301.3216 -7.6114 62.1744 61287.9631 2.2542 1.8693
TCL: Exiting due to exit command.
