Info: SIMULATION PARAMETERS:
Info: TIMESTEP               2
Info: NUMBER OF STEPS        0
Info: STEPS PER CYCLE        10
Info: PERIODIC CELL BASIS 1  41.545 0 0
Info: PERIODIC CELL BASIS 2  0 42.62 0
Info: PERIODIC CELL BASIS 3  0 0 42.247
Info: PERIODIC CELL CENTER   0 0 0
Info: WRAPPING WATERS AROUND PERIODIC BOUNDARIES ON OUTPUT.
Info: WRAPPING ALL CLUSTERS AROUND PERIODIC BOUNDARIES ON OUTPUT.
Info: FIRST LDB TIMESTEP     50
Info: LAST LDB TIMESTEP     -1
Info: HOM BACKGROUND SCALING 1
Info: PME BACKGROUND SCALING 1
Info: MIN ATOMS PER PATCH    40
Info: EMPTY PATCH LOAD       40 ATOMS
Info: INITIAL TEMPERATURE    300
Info: CENTER OF MASS MOVING INITIALLY? NO
Info: DIELECTRIC             1
Info: EXCLUDE                SCALED ONE-FOUR
Info: 1-4 ELECTROSTATICS SCALED BY 0.833333
Info: MODIFIED 1-4 VDW PARAMETERS WILL BE USED
Info: DCD FILENAME           mobley_9741965_min.dcd
Info: DCD FREQUENCY          5000
Info: DCD FIRST STEP         5000
Info: DCD FILE WILL CONTAIN UNIT CELL DATA
Info: XST FILENAME           mobley_9741965_min.xst
Info: XST FREQUENCY          5000
Info: NO VELOCITY DCD OUTPUT
Info: NO FORCE DCD OUTPUT
Info: OUTPUT FILENAME        mobley_9741965_min
Info: BINARY OUTPUT FILES WILL BE USED
Info: RESTART FILENAME       mobley_9741965_min.restart
Info: RESTART FREQUENCY      5000
Info: BINARY RESTART FILES WILL BE USED
Info: CUTOFF                 9
Info: PAIRLIST DISTANCE      11
Info: PAIRLIST SHRINK RATE   0.01
Info: PAIRLIST GROW RATE     0.01
Info: PAIRLIST TRIGGER       0.3
Info: PAIRLISTS PER CYCLE    2
Info: PAIRLISTS ENABLED
Info: MARGIN                 8
Info: HYDROGEN GROUP CUTOFF  2.5
Info: PATCH DIMENSION        21.5
Info: ENERGY OUTPUT STEPS    5000
Info: ENERGY EVALUATION STEPS    5000
Info: OUTPUT ENERGY PRECISION 4
Info: CROSSTERM ENERGY INCLUDED IN DIHEDRAL
Info: TIMING OUTPUT STEPS    50000
Info: PRESSURE OUTPUT STEPS  5000
Info: LANGEVIN DYNAMICS ACTIVE
Info: LANGEVIN TEMPERATURE   300
Info: LANGEVIN USING BBK INTEGRATOR
Info: LANGEVIN DAMPING COEFFICIENT IS 1 INVERSE PS
Info: LANGEVIN DYNAMICS APPLIED TO HYDROGENS
Info: LANGEVIN PISTON PRESSURE CONTROL ACTIVE
Info:        TARGET PRESSURE IS 1.01325 BAR
Info:     OSCILLATION PERIOD IS 50 FS
Info:             DECAY TIME IS 25 FS
Info:     PISTON TEMPERATURE IS 300 K
Info:       PRESSURE CONTROL IS GROUP-BASED
Info:    INITIAL STRAIN RATE IS 0 0 0
Info:       CELL FLUCTUATION IS ISOTROPIC
Info: PARTICLE MESH EWALD (PME) ACTIVE
Info: PME TOLERANCE               1e-06
Info: PME EWALD COEFFICIENT       0.348832
Info: PME INTERPOLATION ORDER     4
Info: PME GRID DIMENSIONS         44 44 44
Info: PME MAXIMUM GRID SPACING    1
Info: FULL ELECTROSTATIC EVALUATION FREQUENCY      2
Info: USING VERLET I (r-RESPA) MTS SCHEME.
Info: C1 SPLITTING OF LONG RANGE ELECTROSTATICS
Info: PLACING ATOMS IN PATCHES BY HYDROGEN GROUPS
Info: RIGID BONDS TO HYDROGEN : ALL
Info:         ERROR TOLERANCE : 1e-08
Info:          MAX ITERATIONS : 100
Info: RIGID WATER USING SETTLE ALGORITHM
Info: RANDOM NUMBER SEED     1741401420
Info: USE HYDROGEN BONDS?    NO
Info: Using AMBER format force field!
Info: AMBER PARM FILE        mobley_9741965.prmtop
Info: COORDINATE PDB         mobley_9741965.pdb
Info: Exclusions will be read from PARM file!
Info: SCNB (VDW SCALING)     2
Info: USING ARITHMETIC MEAN TO COMBINE L-J SIGMA PARAMETERS
Info: SUMMARY OF PARAMETERS:
Info: 8 BONDS
Info: 10 ANGLES
Info:   10 HARMONIC
Info:   0 COSINE-BASED
Info: 7 DIHEDRAL
Info: 0 IMPROPER
Info: 0 CROSSTERM
Info: 0 VDW
Info: 36 VDW_PAIRS
Info: 0 NBTHOLE_PAIRS
Info: STRUCTURE SUMMARY:
Info: 5504 ATOMS
Info: 5503 BONDS
Info: 32 ANGLES
Info: 44 DIHEDRALS
Info: 0 IMPROPERS
Info: 0 CROSSTERMS
Info: 5572 EXCLUSIONS
Info: 5492 RIGID BONDS
Info: 11020 DEGREES OF FREEDOM
Info: 1840 HYDROGEN GROUPS
Info: 4 ATOMS IN LARGEST HYDROGEN GROUP
Info: 1840 MIGRATION GROUPS
Info: 4 ATOMS IN LARGEST MIGRATION GROUP
Info: TOTAL MASS = 33113.4 amu
Info: TOTAL CHARGE = -4.47035e-08 e
Info: MASS DENSITY = 0.73508 g/cm^3
Info: ATOM DENSITY = 0.0735784 atoms/A^3
Info: ADDED 0 IMPLICIT EXCLUSIONS
Info: NONBONDED TABLE R-SQUARED SPACING: 0.0625
Info: NONBONDED TABLE SIZE: 705 POINTS
Info: REMOVING COM VELOCITY 0.0359366 -0.0609656 -0.116616
TCL: Minimizing for 2000 steps
ETITLE: TS BOND ANGLE DIHED IMPRP ELECT VDW BOUNDARY MISC KINETIC TOTAL TEMP POTENTIAL TOTAL3 TEMPAVG PRESSURE GPRESSURE VOLUME PRESSAVG GPRESSAVG
ENERGY: 0 0.0929 3.2732 2.5508 0.0000 -17233.1980 1913.7515 0.0000 0.0000 0.0000 -15313.5296 0.0000 -15313.5296 -15313.5296 0.0000 11278.4659 -16293.6421 74804.5618 11278.4659 -16293.6421
ENERGY: 400 2.4942 4.7685 3.1150 0.0000 -22946.0526 3214.8056 0.0000 0.0000 0.0000 -19720.8693 0.0000 -19720.8693 -19720.8693 0.0000 15498.4597 15656.1085 74804.5618 15498.4597 15656.1085
ENERGY: 800 8.1960 4.3922 3.0506 0.0000 -24193.0810 3812.5439 0.0000 0.0000 0.0000 -20364.8982 0.0000 -20364.8982 -20364.8982 0.0000 17969.9164 18068.3723 74804.5618 17969.9164 18068.3723
ENERGY: 1200 0.7978 1.9987 3.2761 0.0000 -24792.1430 4103.9540 0.0000 0.0000 0.0000 -20682.1164 0.0000 -20682.1164 -20682.1164 0.0000 19226.8403 19327.8388 74804.5618 19226.8403 19327.8388
ENERGY: 1600 1.0083 1.4762 3.2311 0.0000 -25025.0979 4198.8937 0.0000 0.0000 0.0000 -20820.4887 0.0000 -20820.4887 -20820.4887 0.0000 19640.2259 19748.4761 74804.5618 19640.2259 19748.4761
ENERGY: 2000 0.6017 1.6944 3.1527 0.0000 -25168.3844 4266.5088 0.0000 0.0000 0.0000 -20896.4267 0.0000 -20896.4267 -20896.4267 0.0000 19963.1987 20061.8003 74804.5618 19963.1987 20061.8003
TCL: Exiting due to exit command.
Info: NAMD 3.0.1 for Linux-x86_64-multicore
Info: Please visit http://www.ks.uiuc.edu/Research/namd/
Info: for updates, documentation, and support information.
Info: Please cite Phillips et al., J. Chem. Phys. 153:044130 (2020) doi:10.1063/5.0014475
Info: in all publications reporting results obtained with NAMD.
Info: Based on Charm++/Converse 80000 for multicore-linux-x86_64-gcc
Info: Built Mon Oct 14 11:11:06 CDT 2024 by dhardy on athine.ks.uiuc.edu
Info: 1 NAMD  3.0.1  Linux-x86_64-multicore  16    k062  z5358697
Info: Running on 16 processors, 1 nodes, 1 physical nodes.
Info: CPU topology information available.
Info: Charm++/Converse parallel runtime startup completed at 0.00979891 s
Info: 1043.46 MB of memory in use based on /proc/self/stat
Info: Configuration file is mobley_9741965_equil.namd
Info: Working in the current directory /srv/scratch/z5358697/prod_prep_12/9741965
TCL: Running 25000 steps at 30 kelvin.
TCL: Suspending until startup complete.
Info: SIMULATION PARAMETERS:
Info: TIMESTEP               2
Info: NUMBER OF STEPS        0
Info: STEPS PER CYCLE        10
Info: PERIODIC CELL BASIS 1  41.545 0 0
Info: PERIODIC CELL BASIS 2  0 42.62 0
Info: PERIODIC CELL BASIS 3  0 0 42.247
Info: PERIODIC CELL CENTER   0 0 0
Info: WRAPPING WATERS AROUND PERIODIC BOUNDARIES ON OUTPUT.
Info: WRAPPING ALL CLUSTERS AROUND PERIODIC BOUNDARIES ON OUTPUT.
Info: FIRST LDB TIMESTEP     50
Info: LAST LDB TIMESTEP     -1
Info: HOM BACKGROUND SCALING 1
Info: PME BACKGROUND SCALING 1
Info: MIN ATOMS PER PATCH    40
Info: EMPTY PATCH LOAD       40 ATOMS
Info: INITIAL TEMPERATURE    300
Info: CENTER OF MASS MOVING INITIALLY? NO
Info: DIELECTRIC             1
Info: EXCLUDE                SCALED ONE-FOUR
Info: 1-4 ELECTROSTATICS SCALED BY 0.833333
Info: MODIFIED 1-4 VDW PARAMETERS WILL BE USED
Info: DCD FILENAME           mobley_9741965_equil.dcd
Info: DCD FREQUENCY          5000
Info: DCD FIRST STEP         5000
Info: DCD FILE WILL CONTAIN UNIT CELL DATA
Info: XST FILENAME           mobley_9741965_equil.xst
Info: XST FREQUENCY          5000
Info: NO VELOCITY DCD OUTPUT
Info: NO FORCE DCD OUTPUT
Info: OUTPUT FILENAME        mobley_9741965_equil
Info: BINARY OUTPUT FILES WILL BE USED
Info: RESTART FILENAME       mobley_9741965_equil.restart
Info: RESTART FREQUENCY      5000
Info: BINARY RESTART FILES WILL BE USED
Info: CUTOFF                 9
Info: PAIRLIST DISTANCE      11
Info: PAIRLIST SHRINK RATE   0.01
Info: PAIRLIST GROW RATE     0.01
Info: PAIRLIST TRIGGER       0.3
Info: PAIRLISTS PER CYCLE    2
Info: PAIRLISTS ENABLED
Info: MARGIN                 8
Info: HYDROGEN GROUP CUTOFF  2.5
Info: PATCH DIMENSION        21.5
Info: ENERGY OUTPUT STEPS    5000
Info: ENERGY EVALUATION STEPS    5000
Info: OUTPUT ENERGY PRECISION 4
Info: CROSSTERM ENERGY INCLUDED IN DIHEDRAL
Info: TIMING OUTPUT STEPS    50000
Info: PRESSURE OUTPUT STEPS  5000
Info: LANGEVIN DYNAMICS ACTIVE
Info: LANGEVIN TEMPERATURE   30
Info: LANGEVIN USING BBK INTEGRATOR
Info: LANGEVIN DAMPING COEFFICIENT IS 1 INVERSE PS
Info: LANGEVIN DYNAMICS APPLIED TO HYDROGENS
Info: LANGEVIN PISTON PRESSURE CONTROL ACTIVE
Info:        TARGET PRESSURE IS 1.01325 BAR
Info:     OSCILLATION PERIOD IS 50 FS
Info:             DECAY TIME IS 25 FS
Info:     PISTON TEMPERATURE IS 300 K
Info:       PRESSURE CONTROL IS GROUP-BASED
Info:    INITIAL STRAIN RATE IS 0 0 0
Info:       CELL FLUCTUATION IS ISOTROPIC
Info: PARTICLE MESH EWALD (PME) ACTIVE
Info: PME TOLERANCE               1e-06
Info: PME EWALD COEFFICIENT       0.348832
Info: PME INTERPOLATION ORDER     4
Info: PME GRID DIMENSIONS         44 44 44
Info: PME MAXIMUM GRID SPACING    1
Info: FULL ELECTROSTATIC EVALUATION FREQUENCY      2
Info: USING VERLET I (r-RESPA) MTS SCHEME.
Info: C1 SPLITTING OF LONG RANGE ELECTROSTATICS
Info: PLACING ATOMS IN PATCHES BY HYDROGEN GROUPS
Info: RIGID BONDS TO HYDROGEN : ALL
Info:         ERROR TOLERANCE : 1e-08
Info:          MAX ITERATIONS : 100
Info: RIGID WATER USING SETTLE ALGORITHM
Info: RANDOM NUMBER SEED     1741401435
Info: USE HYDROGEN BONDS?    NO
Info: Using AMBER format force field!
Info: AMBER PARM FILE        mobley_9741965.prmtop
Info: COORDINATE PDB         mobley_9741965.pdb
Info: Exclusions will be read from PARM file!
Info: SCNB (VDW SCALING)     2
Info: USING ARITHMETIC MEAN TO COMBINE L-J SIGMA PARAMETERS
Info: BINARY COORDINATES     mobley_9741965_min.coor
Info: SUMMARY OF PARAMETERS:
Info: 8 BONDS
Info: 10 ANGLES
Info: 7 DIHEDRAL
Info: 0 IMPROPER
Info: 0 CROSSTERM
Info: 0 VDW
Info: 36 VDW_PAIRS
Info: 0 NBTHOLE_PAIRS
Info: STRUCTURE SUMMARY:
Info: 5504 ATOMS
Info: 5503 BONDS
Info: 32 ANGLES
Info: 44 DIHEDRALS
Info: 0 IMPROPERS
Info: 0 CROSSTERMS
Info: 5572 EXCLUSIONS
Info: 5492 RIGID BONDS
Info: 11020 DEGREES OF FREEDOM
Info: 1840 HYDROGEN GROUPS
Info: 4 ATOMS IN LARGEST HYDROGEN GROUP
Info: 1840 MIGRATION GROUPS
Info: 4 ATOMS IN LARGEST MIGRATION GROUP
Info: TOTAL MASS = 33113.4 amu
Info: TOTAL CHARGE = -4.47035e-08 e
Info: MASS DENSITY = 0.73508 g/cm^3
Info: ATOM DENSITY = 0.0735784 atoms/A^3
Info: ADDED 0 IMPLICIT EXCLUSIONS
Info: NONBONDED TABLE R-SQUARED SPACING: 0.0625
Info: NONBONDED TABLE SIZE: 705 POINTS
Info: REMOVING COM VELOCITY -0.00313533 -0.0371401 -0.00637817
TCL: Running for 25000 steps
ETITLE: TS BOND ANGLE DIHED IMPRP ELECT VDW BOUNDARY MISC KINETIC TOTAL TEMP POTENTIAL TOTAL3 TEMPAVG PRESSURE GPRESSURE VOLUME PRESSAVG GPRESSAVG
ENERGY: 0 0.6017 1.6944 3.1527 0.0000 -25168.3844 4266.5088 0.0000 0.0000 3255.6734 -17640.7533 297.3375 -20896.4267 -17640.1049 297.3375 -106.1501 -68.9799 74804.5618 -106.1501 -68.9799
ENERGY: 5000 0.7835 2.7321 3.1529 0.0000 -26336.6537 4504.0076 0.0000 0.0000 330.6485 -21495.3291 30.1978 -21825.9776 -21494.6489 47.2477 -311.6844 -235.5024 53816.6136 0.4528 0.4291
ENERGY: 10000 0.4439 2.4223 3.1507 0.0000 -26573.0479 4687.4453 0.0000 0.0000 335.6201 -21543.9656 30.6519 -21879.5857 -21543.2218 30.3962 491.0982 568.2344 53435.9303 3.9145 3.9221
ENERGY: 15000 0.5739 1.8033 3.1372 0.0000 -26616.3962 4716.8325 0.0000 0.0000 327.5776 -21566.4717 29.9173 -21894.0493 -21565.8912 30.2299 624.8231 670.8092 53310.4013 3.2193 3.0683
ENERGY: 20000 0.9741 2.2975 2.9768 0.0000 -26596.7951 4674.5625 0.0000 0.0000 326.1124 -21589.8719 29.7835 -21915.9843 -21589.0198 29.9987 398.2825 457.2317 53295.7675 0.0247 0.1749
ENERGY: 25000 0.8618 2.3715 3.1541 0.0000 -26355.9597 4434.2207 0.0000 0.0000 327.3831 -21587.9685 29.8996 -21915.3515 -21587.1997 30.1462 -773.7917 -719.3729 53698.7917 2.4284 2.5331
TCL: Running 25000 steps at 60 kelvin.
TCL: Setting parameter langevinTemp to 60
TCL: Running for 25000 steps
ETITLE: TS BOND ANGLE DIHED IMPRP ELECT VDW BOUNDARY MISC KINETIC TOTAL TEMP POTENTIAL TOTAL3 TEMPAVG PRESSURE GPRESSURE VOLUME PRESSAVG GPRESSAVG
ENERGY: 25000 0.8618 2.3715 3.1541 0.0000 -26355.9597 4434.2207 0.0000 0.0000 327.2232 -21588.1283 29.8850 -21915.3515 -21587.4244 29.8850 -776.8909 -719.4632 53698.7917 -776.8909 -719.4632
ENERGY: 30000 1.6951 3.2993 3.2323 0.0000 -26182.1918 4558.6654 0.0000 0.0000 660.7964 -20954.5033 60.3499 -21615.2997 -20953.0784 57.3289 486.5223 538.1136 53355.6526 3.8902 3.7378
ENERGY: 35000 1.1762 3.2871 3.0702 0.0000 -26022.3488 4368.0663 0.0000 0.0000 636.0842 -21010.6648 58.0929 -21646.7490 -21009.0145 60.2543 -525.3670 -458.4154 53746.4375 4.2954 4.2160
ENERGY: 40000 1.4753 2.4166 3.5140 0.0000 -26290.4682 4620.4663 0.0000 0.0000 668.3660 -20994.2300 61.0412 -21662.5960 -20993.1813 60.0737 701.2649 769.1209 53233.5281 5.1241 5.0886
ENERGY: 45000 1.2605 2.6912 2.9461 0.0000 -26347.0673 4655.2750 0.0000 0.0000 660.8579 -21024.0366 60.3555 -21684.8945 -21022.7365 60.2947 716.8700 761.4391 53376.6110 0.6184 0.2899
ENERGY: 50000 0.9607 2.9010 3.1297 0.0000 -25999.3151 4321.9410 0.0000 0.0000 667.7822 -21002.6005 60.9879 -21670.3828 -21000.3940 60.4121 -741.0805 -691.6199 53727.1453 5.4791 5.0644
TCL: Running 25000 steps at 90 kelvin.
TCL: Setting parameter langevinTemp to 90
TCL: Running for 25000 steps
ETITLE: TS BOND ANGLE DIHED IMPRP ELECT VDW BOUNDARY MISC KINETIC TOTAL TEMP POTENTIAL TOTAL3 TEMPAVG PRESSURE GPRESSURE VOLUME PRESSAVG GPRESSAVG
ENERGY: 50000 0.9607 2.9010 3.1297 0.0000 -25999.3151 4321.9410 0.0000 0.0000 667.4541 -21002.9287 60.9579 -21670.3828 -21001.6056 60.9579 -749.3633 -691.5288 53727.1453 -749.3633 -691.5288
ENERGY: 55000 1.5620 4.0606 3.1560 0.0000 -25572.6222 4186.0916 0.0000 0.0000 999.2721 -20378.4798 91.2625 -21377.7520 -20375.5731 87.1934 -753.4449 -703.8024 53881.4039 1.1398 0.9676
ENERGY: 60000 0.5964 5.6262 3.6209 0.0000 -25679.5237 4266.4626 0.0000 0.0000 970.2420 -20432.9756 88.6113 -21403.2176 -20431.2371 90.2278 -484.0317 -405.9485 53626.2856 -3.8129 -3.7055
ENERGY: 65000 1.2082 4.2199 2.9466 0.0000 -25691.5335 4235.9729 0.0000 0.0000 980.5217 -20466.6642 89.5501 -21447.1859 -20462.8980 90.4120 -671.0705 -598.4892 53704.8199 2.9034 3.1168
ENERGY: 70000 1.2555 3.8292 3.1434 0.0000 -25956.7604 4432.0666 0.0000 0.0000 976.6590 -20539.8067 89.1973 -21516.4657 -20537.6022 90.4332 200.4716 240.6417 53170.8756 0.7465 1.0197
ENERGY: 75000 1.6957 5.5418 2.9376 0.0000 -25993.2822 4426.2965 0.0000 0.0000 993.2538 -20563.5567 90.7129 -21556.8106 -20560.6697 89.6435 129.6191 159.3951 53141.5448 1.9266 2.3969
TCL: Running 25000 steps at 120 kelvin.
TCL: Setting parameter langevinTemp to 120
TCL: Running for 25000 steps
ETITLE: TS BOND ANGLE DIHED IMPRP ELECT VDW BOUNDARY MISC KINETIC TOTAL TEMP POTENTIAL TOTAL3 TEMPAVG PRESSURE GPRESSURE VOLUME PRESSAVG GPRESSAVG
ENERGY: 75000 1.6957 5.5418 2.9376 0.0000 -25993.2822 4426.2965 0.0000 0.0000 992.7575 -20564.0531 90.6676 -21556.8106 -20562.0716 90.6676 101.9966 159.1201 53141.5448 101.9966 159.1201
ENERGY: 80000 1.7088 5.3762 4.3052 0.0000 -25489.9274 4321.0911 0.0000 0.0000 1330.6857 -19826.7605 121.5302 -21157.4461 -19823.2440 116.5710 462.5080 521.3358 53126.6349 1.2309 0.8161
ENERGY: 85000 0.5924 5.1289 3.6054 0.0000 -25625.6112 4448.1112 0.0000 0.0000 1327.6991 -19840.4742 121.2575 -21168.1732 -19836.4240 120.5455 944.3632 1049.7532 53086.1950 6.1192 5.9633
ENERGY: 90000 1.3209 3.8291 4.5361 0.0000 -25596.6428 4340.7282 0.0000 0.0000 1304.4746 -19941.7539 119.1364 -21246.2285 -19938.4427 120.8887 337.5296 401.5871 53032.9673 4.1934 4.2645
ENERGY: 95000 1.6521 6.1533 3.2378 0.0000 -25623.6216 4352.1390 0.0000 0.0000 1311.7368 -19948.7027 119.7996 -21260.4395 -19945.2791 120.4606 293.9800 367.2258 53077.8234 0.6125 1.0751
ENERGY: 100000 1.9134 4.4875 3.3967 0.0000 -25522.7298 4236.9663 0.0000 0.0000 1349.3657 -19926.6003 123.2362 -21275.9660 -19923.0120 120.3360 -285.7211 -243.8317 53433.4720 -0.8004 -0.7357
TCL: Running 25000 steps at 150 kelvin.
TCL: Setting parameter langevinTemp to 150
TCL: Running for 25000 steps
ETITLE: TS BOND ANGLE DIHED IMPRP ELECT VDW BOUNDARY MISC KINETIC TOTAL TEMP POTENTIAL TOTAL3 TEMPAVG PRESSURE GPRESSURE VOLUME PRESSAVG GPRESSAVG
ENERGY: 100000 1.9134 4.4875 3.3967 0.0000 -25522.7298 4236.9663 0.0000 0.0000 1348.6887 -19927.2773 123.1744 -21275.9660 -19923.9054 123.1744 -299.4176 -244.0801 53433.4720 -299.4176 -244.0801
ENERGY: 105000 1.1151 4.6816 3.9203 0.0000 -24811.2055 3956.1161 0.0000 0.0000 1626.1842 -19219.1881 148.5178 -20845.3722 -19213.9455 146.5984 -768.1495 -679.5083 53857.6421 -1.4694 -0.8696
ENERGY: 110000 0.8641 3.1011 3.5667 0.0000 -24926.7248 4038.8974 0.0000 0.0000 1591.4360 -19288.8595 145.3443 -20880.2956 -19284.5948 150.2146 -430.1432 -331.9065 53823.1893 2.7207 2.8329
ENERGY: 115000 0.6079 5.0409 4.8456 0.0000 -25108.1280 4210.7253 0.0000 0.0000 1613.1603 -19273.7481 147.3283 -20886.9084 -19271.5844 149.9282 308.1744 379.6774 53738.3043 3.1917 2.8341
ENERGY: 120000 1.0620 2.9650 3.8420 0.0000 -25016.0997 4068.0790 0.0000 0.0000 1671.5932 -19268.5585 152.6650 -20940.1517 -19264.3420 149.5518 -475.8702 -391.1314 53954.3560 -2.4667 -2.0824
ENERGY: 125000 1.5879 3.9688 4.0138 0.0000 -24972.3405 4032.8387 0.0000 0.0000 1644.9397 -19284.9915 150.2307 -20929.9312 -19281.7041 150.3822 -618.5881 -552.1238 54011.1595 3.1857 3.4286
TCL: Running 50000 steps at 180 kelvin.
TCL: Setting parameter langevinTemp to 180
TCL: Running for 50000 steps
ETITLE: TS BOND ANGLE DIHED IMPRP ELECT VDW BOUNDARY MISC KINETIC TOTAL TEMP POTENTIAL TOTAL3 TEMPAVG PRESSURE GPRESSURE VOLUME PRESSAVG GPRESSAVG
ENERGY: 125000 1.5879 3.9688 4.0138 0.0000 -24972.3405 4032.8387 0.0000 0.0000 1644.1232 -19285.8080 150.1562 -20929.9312 -19282.4337 150.1562 -615.0595 -552.8274 54011.1595 -615.0595 -552.8274
ENERGY: 135000 2.2680 5.0227 3.5675 0.0000 -24084.8698 3646.3838 0.0000 0.0000 1989.0131 -18438.6146 181.6546 -20427.6277 -18433.2825 179.9773 -1373.7153 -1278.7021 54430.1976 0.7617 1.0097
ENERGY: 145000 1.1073 5.4771 6.8950 0.0000 -24321.2018 3844.8476 0.0000 0.0000 1978.2727 -18484.6021 180.6737 -20462.8748 -18480.3807 180.4990 -468.4384 -390.3959 53902.3653 1.5561 1.4069
ENERGY: 155000 2.3141 6.7464 3.1903 0.0000 -24412.6202 3919.7969 0.0000 0.0000 1960.3084 -18520.2641 179.0330 -20480.5725 -18516.0857 180.7598 -187.5724 -117.9298 54010.4014 -2.4076 -2.4869
ENERGY: 165000 2.5729 8.7319 4.7887 0.0000 -24336.6322 3955.7677 0.0000 0.0000 1941.6731 -18423.0980 177.3311 -20364.7710 -18419.5998 180.7138 79.4515 138.1769 54340.1151 3.6386 4.3051
ENERGY: 175000 2.0616 5.8218 4.4002 0.0000 -24595.8588 4094.1582 0.0000 0.0000 1985.0374 -18504.3796 181.2915 -20489.4170 -18497.4451 178.8801 495.8772 565.3187 54039.7265 -0.0939 -0.2312
TCL: Running 50000 steps at 210 kelvin.
TCL: Setting parameter langevinTemp to 210
TCL: Running for 50000 steps
ETITLE: TS BOND ANGLE DIHED IMPRP ELECT VDW BOUNDARY MISC KINETIC TOTAL TEMP POTENTIAL TOTAL3 TEMPAVG PRESSURE GPRESSURE VOLUME PRESSAVG GPRESSAVG
ENERGY: 175000 2.0616 5.8218 4.4002 0.0000 -24595.8588 4094.1582 0.0000 0.0000 1984.0690 -18505.3480 181.2031 -20489.4170 -18502.2209 181.2031 506.8821 566.7674 54039.7265 506.8821 566.7674
ENERGY: 185000 4.4763 7.9346 4.5430 0.0000 -23359.9922 3577.3745 0.0000 0.0000 2302.6568 -17463.0069 210.2994 -19765.6637 -17461.5334 209.3133 -45.2033 36.3924 53657.0737 3.6493 3.9116
ENERGY: 195000 1.3435 8.6652 4.7901 0.0000 -23247.6271 3558.7807 0.0000 0.0000 2289.2178 -17384.8298 209.0720 -19674.0476 -17378.9834 210.9616 130.8491 206.4231 53296.2884 -1.4310 -1.0400
ENERGY: 205000 1.9249 8.2092 3.9424 0.0000 -23258.0231 3565.2259 0.0000 0.0000 2287.9475 -17390.7732 208.9560 -19678.7207 -17385.9822 210.8742 -86.0216 -7.6013 53878.9131 1.3179 1.4501
ENERGY: 215000 1.7301 4.5563 3.5017 0.0000 -23234.1133 3564.5245 0.0000 0.0000 2299.8256 -17359.9750 210.0408 -19659.8006 -17354.2646 208.6001 49.8153 96.9641 53921.3081 4.3824 4.7062
ENERGY: 225000 0.9484 10.1817 4.2576 0.0000 -23537.6763 3767.8452 0.0000 0.0000 2316.2844 -17438.1590 211.5440 -19754.4434 -17431.1246 211.1617 800.7083 865.7417 53466.6529 3.5113 3.2574
TCL: Running 50000 steps at 240 kelvin.
TCL: Setting parameter langevinTemp to 240
TCL: Running for 50000 steps
ETITLE: TS BOND ANGLE DIHED IMPRP ELECT VDW BOUNDARY MISC KINETIC TOTAL TEMP POTENTIAL TOTAL3 TEMPAVG PRESSURE GPRESSURE VOLUME PRESSAVG GPRESSAVG
ENERGY: 225000 0.9484 10.1817 4.2576 0.0000 -23537.6763 3767.8452 0.0000 0.0000 2315.1174 -17439.3260 211.4374 -19754.4434 -17435.6748 211.4374 781.3818 866.3844 53466.6529 781.3818 866.3844
ENERGY: 235000 3.9803 9.9445 3.1496 0.0000 -22005.4707 3184.2771 0.0000 0.0000 2667.2035 -16136.9159 243.5931 -18804.1193 -16131.9538 240.4570 -56.9144 41.6430 53860.3810 2.6354 2.8262
ENERGY: 245000 2.7980 10.7970 4.8816 0.0000 -22066.7685 3246.1832 0.0000 0.0000 2587.2073 -16214.9014 236.2871 -18802.1087 -16209.8082 239.4091 183.9903 233.8470 54155.2690 1.7249 1.8874
ENERGY: 255000 3.4278 8.1573 4.8454 0.0000 -22017.0856 3217.7557 0.0000 0.0000 2586.6966 -16196.2028 236.2405 -18782.8994 -16189.8206 241.6964 278.1128 315.9047 53794.1643 -0.9093 -1.3992
ENERGY: 265000 3.3950 11.1847 4.5889 0.0000 -22056.9755 3190.2803 0.0000 0.0000 2659.7902 -16187.7364 242.9160 -18847.5266 -16182.9725 239.8630 33.7525 64.3816 53910.7032 4.7975 5.0902
ENERGY: 275000 1.3508 7.3911 3.6496 0.0000 -22143.7818 3211.6219 0.0000 0.0000 2606.0173 -16313.7512 238.0050 -18919.7685 -16308.2158 239.4287 -275.4990 -204.2545 54629.6816 1.2504 1.8445
TCL: Running 50000 steps at 270 kelvin.
TCL: Setting parameter langevinTemp to 270
TCL: Running for 50000 steps
ETITLE: TS BOND ANGLE DIHED IMPRP ELECT VDW BOUNDARY MISC KINETIC TOTAL TEMP POTENTIAL TOTAL3 TEMPAVG PRESSURE GPRESSURE VOLUME PRESSAVG GPRESSAVG
ENERGY: 275000 1.3508 7.3911 3.6496 0.0000 -22143.7818 3211.6219 0.0000 0.0000 2604.7299 -16315.0387 237.8874 -18919.7685 -16310.1379 237.8874 -283.7509 -204.5524 54629.6816 -283.7509 -204.5524
ENERGY: 285000 3.8085 10.9364 4.7494 0.0000 -20937.6387 2893.6934 0.0000 0.0000 2964.3585 -15060.0925 270.7320 -18024.4510 -15052.8150 269.9856 -77.6520 -21.2247 55440.7505 5.7523 5.8620
ENERGY: 295000 2.1803 9.0896 3.0554 0.0000 -21228.3946 3092.4815 0.0000 0.0000 2982.2149 -15139.3728 272.3628 -18121.5877 -15132.7901 268.6598 518.8506 614.7466 55272.1138 -1.5634 -1.7301
ENERGY: 305000 3.7954 10.2816 4.8854 0.0000 -21003.0430 2931.2933 0.0000 0.0000 2931.3570 -15121.4304 267.7180 -18052.7874 -15113.6500 267.8052 -158.5835 -58.6559 55892.3622 -0.7930 -1.0324
ENERGY: 315000 0.6402 12.4860 3.0816 0.0000 -21009.6691 2893.1675 0.0000 0.0000 2957.7773 -15142.5165 270.1309 -18100.2938 -15137.1379 270.4790 -231.5793 -135.5488 55285.8357 2.2829 2.0789
ENERGY: 325000 4.7265 9.0411 5.7131 0.0000 -21012.4977 2951.1654 0.0000 0.0000 2928.9365 -15112.9151 267.4969 -18041.8516 -15105.9054 270.8794 -71.1742 50.4308 55438.5284 1.1188 1.2550
TCL: Running 1000000 steps at 300 kelvin.
TCL: Setting parameter langevinTemp to 300
TCL: Running for 1000000 steps
ETITLE: TS BOND ANGLE DIHED IMPRP ELECT VDW BOUNDARY MISC KINETIC TOTAL TEMP POTENTIAL TOTAL3 TEMPAVG PRESSURE GPRESSURE VOLUME PRESSAVG GPRESSAVG
ENERGY: 325000 4.7265 9.0411 5.7131 0.0000 -21012.4977 2951.1654 0.0000 0.0000 2927.3780 -15114.4736 267.3546 -18041.8516 -15109.4827 267.3546 -39.7205 50.2725 55438.5284 -39.7205 50.2725
ENERGY: 525000 3.7388 14.3721 5.6304 0.0000 -20089.4290 2747.0263 0.0000 0.0000 3260.1290 -14058.5323 297.7444 -17318.6613 -14051.4088 300.5392 148.5173 221.3117 56852.3823 1.4386 1.5355
ENERGY: 725000 1.8155 8.5431 4.8672 0.0000 -20163.6266 2734.5797 0.0000 0.0000 3343.4590 -14070.3621 305.3548 -17413.8211 -14064.0935 300.7758 330.3763 373.5963 55887.6555 5.7545 5.8997
ENERGY: 925000 3.0448 7.1020 3.8024 0.0000 -20096.1032 2780.2409 0.0000 0.0000 3358.8232 -13943.0900 306.7580 -17301.9132 -13938.7331 300.7875 526.9806 576.4057 56545.9374 0.5151 0.6711
ENERGY: 1125000 2.0455 13.6020 5.2132 0.0000 -19875.6371 2636.2179 0.0000 0.0000 3281.7688 -13936.7897 299.7207 -17218.5584 -13931.5232 298.6109 -161.4129 -111.2360 56917.2738 6.0106 5.6205
ENERGY: 1325000 3.9803 17.2593 5.6196 0.0000 -19881.5346 2545.5332 0.0000 0.0000 3290.1508 -14018.9915 300.4862 -17309.1422 -14013.3897 300.9977 -568.8490 -491.3899 56426.4069 -1.9905 -1.3660
TCL: Exiting due to exit command.
