Info: SIMULATION PARAMETERS:
Info: TIMESTEP               2
Info: NUMBER OF STEPS        0
Info: STEPS PER CYCLE        10
Info: PERIODIC CELL BASIS 1  80.4364 0 0
Info: PERIODIC CELL BASIS 2  0 80.4364 0
Info: PERIODIC CELL BASIS 3  0 0 80.4364
Info: PERIODIC CELL CENTER   34.389 34.389 34.389
Info: WRAPPING ALL CLUSTERS AROUND PERIODIC BOUNDARIES ON OUTPUT.
Info: FIRST LDB TIMESTEP     50
Info: LAST LDB TIMESTEP     -1
Info: HOM BACKGROUND SCALING 1
Info: PME BACKGROUND SCALING 1
Info: MIN ATOMS PER PATCH    40
Info: EMPTY PATCH LOAD       40 ATOMS
Info: VELOCITY FILE          mobley_5627459_equilibrated.vel
Info: CENTER OF MASS MOVING INITIALLY? NO
Info: DIELECTRIC             1
Info: EXCLUDE                SCALED ONE-FOUR
Info: 1-4 ELECTROSTATICS SCALED BY 1
Info: MODIFIED 1-4 VDW PARAMETERS WILL BE USED
Info: DCD FILENAME           mobley_5627459_forwards.dcd
Info: DCD FREQUENCY          500
Info: DCD FIRST STEP         500
Info: DCD FILE WILL CONTAIN UNIT CELL DATA
Info: NO EXTENDED SYSTEM TRAJECTORY OUTPUT
Info: NO VELOCITY DCD OUTPUT
Info: NO FORCE DCD OUTPUT
Info: OUTPUT FILENAME        mobley_5627459_forwards
Info: BINARY OUTPUT FILES WILL BE USED
Info: NO RESTART FILE
Info: SWITCHING ACTIVE
Info: SWITCHING ON           10
Info: SWITCHING OFF          12
Info: PAIRLIST DISTANCE      14
Info: PAIRLIST SHRINK RATE   0.01
Info: PAIRLIST GROW RATE     0.01
Info: PAIRLIST TRIGGER       0.3
Info: PAIRLISTS PER CYCLE    2
Info: PAIRLISTS ENABLED
Info: MARGIN                 8
Info: HYDROGEN GROUP CUTOFF  2.5
Info: PATCH DIMENSION        24.5
Info: ENERGY OUTPUT STEPS    500
Info: ENERGY EVALUATION STEPS    500
Info: OUTPUT ENERGY PRECISION 4
Info: CROSSTERM ENERGY INCLUDED IN DIHEDRAL
Info: TIMING OUTPUT STEPS    500
Info: PRESSURE OUTPUT STEPS  500
Info: ALCHEMICAL FEP ON
Info: FEP CURRENT LAMBDA VALUE     0
Info: FEP COMPARISON LAMBDA VALUE  0.0625
Info: FEP INTRA-ALCHEMICAL NON-BONDED INTERACTIONS WILL BE DECOUPLED
Info: FEP INTRA-ALCHEMICAL BONDED INTERACTIONS WILL BE RETAINED
Info: FEP VDW SHIFTING COEFFICIENT 6
Info: FEP ELEC. ACTIVE FOR ANNIHILATED PARTICLES BETWEEN LAMBDA = 0 AND LAMBDA = 0.5
Info: FEP ELEC. ACTIVE FOR EXNIHILATED PARTICLES BETWEEN LAMBDA = 0.5 AND LAMBDA = 1
Info: FEP VDW ACTIVE FOR ANNIHILATED PARTICLES BETWEEN LAMBDA = 0 AND LAMBDA = 1
Info: FEP VDW ACTIVE FOR EXNIHILATED PARTICLES BETWEEN LAMBDA = 0 AND LAMBDA = 1
Info: FEP BOND ACTIVE FOR ANNIHILATED PARTICLES BETWEEN LAMBDA = 1 AND LAMBDA = 1
Info: FEP BOND ACTIVE FOR EXNIHILATED PARTICLES BETWEEN LAMBDA = 0 AND LAMBDA = 0
Info: LANGEVIN DYNAMICS ACTIVE
Info: LANGEVIN TEMPERATURE   298
Info: LANGEVIN USING BBK INTEGRATOR
Info: LANGEVIN DAMPING COEFFICIENT IS 1 INVERSE PS
Info: LANGEVIN DYNAMICS NOT APPLIED TO HYDROGENS
Info: LANGEVIN PISTON PRESSURE CONTROL ACTIVE
Info:        TARGET PRESSURE IS 1.01325 BAR
Info:     OSCILLATION PERIOD IS 100 FS
Info:             DECAY TIME IS 50 FS
Info:     PISTON TEMPERATURE IS 298 K
Info:       PRESSURE CONTROL IS GROUP-BASED
Info:    INITIAL STRAIN RATE IS -5.89762e-05 -5.89762e-05 -5.89762e-05
Info:       CELL FLUCTUATION IS ISOTROPIC
Info: PARTICLE MESH EWALD (PME) ACTIVE
Info: PME TOLERANCE               1e-05
Info: PME EWALD COEFFICIENT       0.226635
Info: PME INTERPOLATION ORDER     4
Info: PME GRID DIMENSIONS         84 84 84
Info: PME MAXIMUM GRID SPACING    1
Info: FULL ELECTROSTATIC EVALUATION FREQUENCY      1
Info: USING VERLET I (r-RESPA) MTS SCHEME.
Info: C1 SPLITTING OF LONG RANGE ELECTROSTATICS
Info: PLACING ATOMS IN PATCHES BY HYDROGEN GROUPS
Info: RIGID BONDS TO HYDROGEN : ALL
Info:         ERROR TOLERANCE : 1e-08
Info:          MAX ITERATIONS : 100
Info: RIGID WATER USING SETTLE ALGORITHM
Info: RANDOM NUMBER SEED     1740645809
Info: USE HYDROGEN BONDS?    NO
Info: COORDINATE PDB         mobley_5627459.pdb
Info: STRUCTURE FILE         mobley_5627459.psf
Info: PARAMETER file: CHARMM format!
Info: PARAMETERS             ../common/par_all27_prot_lipid.inp
Info: PARAMETERS             mobley_5627459.prm
Info: USING ARITHMETIC MEAN TO COMBINE L-J SIGMA PARAMETERS
Info: BINARY COORDINATES     mobley_5627459_equilibrated.coor
Info: SUMMARY OF PARAMETERS:
Info: 185 BONDS
Info: 455 ANGLES
Info: 574 DIHEDRAL
Info: 47 IMPROPER
Info: 6 CROSSTERM
Info: 124 VDW
Info: 0 VDW_PAIRS
Info: 0 NBTHOLE_PAIRS
Info: To read alchdata from file: mobley_5627459.pdb
Info: To read alchflag data from column: 5
Info: STRUCTURE SUMMARY:
Info: 3952 ATOMS
Info: 2638 BONDS
Info: 1334 ANGLES
Info: 24 DIHEDRALS
Info: 1 IMPROPERS
Info: 0 CROSSTERMS
Info: 0 EXCLUSIONS
Info: 3947 RIGID BONDS
Info: ALCH: 0 ATOMS TO DISAPPEAR IN FINAL STATE
Info: ALCH: 13 ATOMS TO APPEAR IN FINAL STATE
Info: 7909 DEGREES OF FREEDOM
Info: 1318 HYDROGEN GROUPS
Info: 4 ATOMS IN LARGEST HYDROGEN GROUP
Info: 1318 MIGRATION GROUPS
Info: 4 ATOMS IN LARGEST MIGRATION GROUP
Info: TOTAL MASS = 23726.3 amu
Info: TOTAL CHARGE = -3.07336e-08 e
Info: MASS DENSITY = 0.0757063 g/cm^3
Info: ATOM DENSITY = 0.0075938 atoms/A^3
Info: ADDED 3996 IMPLICIT EXCLUSIONS
Info: NONBONDED TABLE R-SQUARED SPACING: 0.0625
Info: NONBONDED TABLE SIZE: 769 POINTS
Info: REMOVING COM VELOCITY 0.174584 -0.0498438 0.110362
TCL: Running for 5000 steps
ETITLE: TS BOND ANGLE DIHED IMPRP ELECT VDW BOUNDARY MISC KINETIC TOTAL TEMP POTENTIAL TOTAL3 TEMPAVG PRESSURE GPRESSURE VOLUME PRESSAVG GPRESSAVG
ENERGY: 0 1.4416 3.4839 1.7943 0.1268 -13557.6887 1424.4321 0.0000 0.0000 2318.9811 -9807.4289 295.0978 -12126.4100 -9803.0334 295.0978 -2.3572 -2.4406 520424.7652 -2.3572 -2.4406
ENERGY: 1000 1.8292 6.8887 0.8398 0.1658 -13597.8477 1436.4566 0.0000 0.0000 2340.2600 -9811.4075 297.8056 -12151.6675 -9807.6649 295.3808 -1.0673 -0.9968 513788.3289 0.3855 0.3749
ENERGY: 2000 0.8191 3.8028 1.2873 0.0407 -13661.8890 1479.5728 0.0000 0.0000 2317.5808 -9858.7854 294.9196 -12176.3662 -9851.5172 295.6921 21.1532 20.1334 494779.7515 0.5984 0.5705
ENERGY: 3000 1.5734 6.0213 0.4983 0.0168 -13741.6161 1435.2149 0.0000 0.0000 2270.1522 -10028.1391 288.8842 -12298.2914 -10023.3569 290.4944 -22.6892 -22.6999 500692.1007 2.0489 2.0863
ENERGY: 4000 0.2124 5.0052 1.1068 0.0554 -13576.7621 1447.2262 0.0000 0.0000 2293.6934 -9829.4627 291.8799 -12123.1561 -9827.0511 295.4541 9.7824 10.5609 485423.6779 0.9928 0.9991
ENERGY: 5000 0.2496 8.4130 2.3351 0.3714 -13623.4400 1453.9653 0.0000 0.0000 2269.4230 -9888.6827 288.7914 -12158.1058 -9884.2036 296.4509 -1.1076 -0.8924 497023.7871 -0.7122 -0.7231
TCL: Running FEP window   2: Lambda1 0.0625 Lambda2 0.125  [dLambda 0.0625]
TCL: Setting parameter firsttimestep to 0
TCL: Setting parameter alchLambda to 0.0625
Info: NONBONDED TABLE R-SQUARED SPACING: 0.0625
Info: NONBONDED TABLE SIZE: 769 POINTS
TCL: Setting parameter alchLambda2 to 0.125
Info: NONBONDED TABLE R-SQUARED SPACING: 0.0625
Info: NONBONDED TABLE SIZE: 769 POINTS
TCL: Running for 5000 steps
ETITLE: TS BOND ANGLE DIHED IMPRP ELECT VDW BOUNDARY MISC KINETIC TOTAL TEMP POTENTIAL TOTAL3 TEMPAVG PRESSURE GPRESSURE VOLUME PRESSAVG GPRESSAVG
ENERGY: 0 0.2496 8.4130 2.3351 0.3714 -13623.4400 1454.6106 0.0000 0.0000 2269.3483 -9888.1121 288.7819 -12157.4604 -9884.3006 288.7819 -0.6278 -0.7866 497023.7871 -0.6278 -0.7866
ENERGY: 1000 0.6972 3.9358 0.4076 0.1353 -13705.8985 1504.3389 0.0000 0.0000 2384.9416 -9811.4422 303.4915 -12196.3837 -9807.7999 299.1368 29.5379 30.2245 523057.7596 0.9666 0.9642
ENERGY: 2000 0.6229 8.8399 0.5624 0.0283 -13522.1868 1374.9526 0.0000 0.0000 2270.7347 -9866.4459 288.9583 -12137.1806 -9862.1008 297.2621 -21.0335 -21.5726 517623.7444 0.7682 0.7651
ENERGY: 3000 1.2054 7.2132 1.4065 0.1368 -13573.0806 1422.6911 0.0000 0.0000 2272.0900 -9868.3376 289.1308 -12140.4276 -9864.1134 291.9245 2.1278 1.3374 522385.1944 0.7559 0.7628
ENERGY: 4000 0.6772 5.9571 2.3966 0.2600 -13634.4678 1393.9800 0.0000 0.0000 2375.8700 -9855.3269 302.3371 -12231.1969 -9851.9068 295.8081 -22.3571 -22.2690 527258.8784 1.7253 1.7419
ENERGY: 5000 1.1525 4.4380 1.8782 0.0067 -13651.0425 1459.6853 0.0000 0.0000 2250.4219 -9933.4599 286.3735 -12183.8819 -9930.0391 290.1925 -2.3074 -2.8135 557165.2056 1.5130 1.5258
TCL: Running FEP window   3: Lambda1 0.125  Lambda2 0.1875 [dLambda 0.0625]
TCL: Setting parameter firsttimestep to 0
TCL: Setting parameter alchLambda to 0.125
Info: NONBONDED TABLE R-SQUARED SPACING: 0.0625
Info: NONBONDED TABLE SIZE: 769 POINTS
TCL: Setting parameter alchLambda2 to 0.1875
Info: NONBONDED TABLE R-SQUARED SPACING: 0.0625
Info: NONBONDED TABLE SIZE: 769 POINTS
TCL: Running for 5000 steps
ETITLE: TS BOND ANGLE DIHED IMPRP ELECT VDW BOUNDARY MISC KINETIC TOTAL TEMP POTENTIAL TOTAL3 TEMPAVG PRESSURE GPRESSURE VOLUME PRESSAVG GPRESSAVG
ENERGY: 0 1.1525 4.4380 1.8782 0.0067 -13651.0425 1460.4732 0.0000 0.0000 2250.3452 -9932.7487 286.3637 -12183.0939 -9928.6013 286.3637 -2.5812 -2.7074 557165.2056 -2.5812 -2.7074
ENERGY: 1000 0.7045 5.5188 0.6922 0.4272 -13575.4821 1449.9169 0.0000 0.0000 2327.5411 -9790.6813 296.1871 -12118.2224 -9785.5708 294.2900 -3.6494 -2.8181 577874.4628 0.4773 0.4588
ENERGY: 2000 3.1100 3.1572 1.1004 0.5810 -13562.6780 1455.3205 0.0000 0.0000 2336.3769 -9763.0320 297.3115 -12099.4090 -9758.1257 296.1726 -5.4050 -5.4097 585264.5377 -0.4844 -0.4777
ENERGY: 3000 0.1922 6.7450 0.5146 0.4527 -13559.9102 1453.4265 0.0000 0.0000 2319.4500 -9779.1292 295.1575 -12098.5792 -9775.0318 298.1446 4.8665 4.3518 584297.6753 2.4761 2.4647
ENERGY: 4000 0.1586 7.7036 0.5792 0.5825 -13772.8843 1545.9810 0.0000 0.0000 2315.2570 -9902.6223 294.6239 -12217.8794 -9899.0410 291.4515 16.1753 16.3016 594890.1228 0.2706 0.2900
ENERGY: 5000 0.1924 6.8695 0.4628 0.0007 -13697.1329 1479.9971 0.0000 0.0000 2338.0410 -9871.5694 297.5233 -12209.6104 -9866.8400 295.1135 7.3528 6.8664 568444.3480 -1.5139 -1.5417
TCL: Running FEP window   4: Lambda1 0.1875 Lambda2 0.25   [dLambda 0.0625]
TCL: Setting parameter firsttimestep to 0
TCL: Setting parameter alchLambda to 0.1875
Info: NONBONDED TABLE R-SQUARED SPACING: 0.0625
Info: NONBONDED TABLE SIZE: 769 POINTS
TCL: Setting parameter alchLambda2 to 0.25
Info: NONBONDED TABLE R-SQUARED SPACING: 0.0625
Info: NONBONDED TABLE SIZE: 769 POINTS
TCL: Running for 5000 steps
ETITLE: TS BOND ANGLE DIHED IMPRP ELECT VDW BOUNDARY MISC KINETIC TOTAL TEMP POTENTIAL TOTAL3 TEMPAVG PRESSURE GPRESSURE VOLUME PRESSAVG GPRESSAVG
ENERGY: 0 0.1924 6.8695 0.4628 0.0007 -13697.1329 1479.9479 0.0000 0.0000 2337.9674 -9871.6922 297.5139 -12209.6596 -9867.7337 297.5139 6.9642 7.0153 568444.3480 6.9642 7.0153
ENERGY: 1000 0.2512 6.8796 1.7314 0.0819 -13448.6089 1376.4246 0.0000 0.0000 2311.9457 -9751.2945 294.2026 -12063.2402 -9747.5674 297.1726 -16.7660 -16.7972 586162.9420 0.1082 0.1053
ENERGY: 2000 1.0736 3.6298 1.3541 0.1718 -13494.0719 1393.8697 0.0000 0.0000 2356.8297 -9737.1433 299.9142 -12093.9730 -9732.6681 297.0214 -26.8039 -26.6084 585493.4825 1.9508 1.9222
ENERGY: 3000 0.2504 4.8575 0.6652 0.0798 -13513.8562 1507.8382 0.0000 0.0000 2289.6464 -9710.5186 291.3649 -12000.1651 -9707.4931 298.7967 33.9091 34.2857 562500.4008 1.9552 1.9662
ENERGY: 4000 0.4752 3.2968 0.5517 0.5633 -13569.5199 1512.3997 0.0000 0.0000 2340.0763 -9712.1568 297.7823 -12052.2332 -9707.5122 297.1729 37.7639 38.2345 559547.9609 -0.1553 -0.1350
ENERGY: 5000 0.4238 4.0210 1.8555 0.2605 -13570.3412 1489.5537 0.0000 0.0000 2363.4502 -9710.7765 300.7567 -12074.2267 -9707.1056 299.0934 22.8358 23.3208 517761.3088 1.7955 1.7841
TCL: Running FEP window   5: Lambda1 0.25   Lambda2 0.3125 [dLambda 0.0625]
TCL: Setting parameter firsttimestep to 0
TCL: Setting parameter alchLambda to 0.25
Info: NONBONDED TABLE R-SQUARED SPACING: 0.0625
Info: NONBONDED TABLE SIZE: 769 POINTS
TCL: Setting parameter alchLambda2 to 0.3125
Info: NONBONDED TABLE R-SQUARED SPACING: 0.0625
Info: NONBONDED TABLE SIZE: 769 POINTS
TCL: Running for 5000 steps
ETITLE: TS BOND ANGLE DIHED IMPRP ELECT VDW BOUNDARY MISC KINETIC TOTAL TEMP POTENTIAL TOTAL3 TEMPAVG PRESSURE GPRESSURE VOLUME PRESSAVG GPRESSAVG
ENERGY: 0 0.4238 4.0210 1.8555 0.2605 -13570.3412 1489.5337 0.0000 0.0000 2363.3789 -9710.8678 300.7476 -12074.2467 -9706.5043 300.7476 23.3819 23.3808 517761.3088 23.3819 23.3808
ENERGY: 1000 0.9897 7.1388 1.9096 0.5176 -13469.2012 1421.4987 0.0000 0.0000 2380.9414 -9656.2055 302.9825 -12037.1469 -9651.6544 301.4617 -10.6592 -10.8908 503782.3732 -0.8536 -0.8341
ENERGY: 2000 0.6329 5.0215 1.6595 0.0023 -13534.7764 1467.6108 0.0000 0.0000 2337.6937 -9722.1556 297.4791 -12059.8493 -9717.4897 297.4540 14.4720 13.9417 497542.4865 0.0092 -0.0580
ENERGY: 3000 0.2137 5.4527 2.2033 0.0472 -13458.4105 1390.4463 0.0000 0.0000 2349.4883 -9710.5591 298.9800 -12060.0474 -9703.6554 299.3965 -6.3635 -5.8821 469554.3297 3.1650 3.1711
ENERGY: 4000 0.7141 7.1213 0.4593 0.0202 -13546.4402 1454.8890 0.0000 0.0000 2336.6578 -9746.5785 297.3472 -12083.2363 -9741.6574 301.1579 -4.9086 -5.3611 480519.2591 0.2363 0.1793
ENERGY: 5000 3.5370 4.1212 0.9789 0.5924 -13547.7921 1402.4417 0.0000 0.0000 2383.1090 -9753.0120 303.2583 -12136.1210 -9748.4721 297.3042 -34.0312 -34.8285 496996.7665 1.2508 1.2542
TCL: Running FEP window   6: Lambda1 0.3125 Lambda2 0.375  [dLambda 0.0625]
TCL: Setting parameter firsttimestep to 0
TCL: Setting parameter alchLambda to 0.3125
Info: NONBONDED TABLE R-SQUARED SPACING: 0.0625
Info: NONBONDED TABLE SIZE: 769 POINTS
TCL: Setting parameter alchLambda2 to 0.375
Info: NONBONDED TABLE R-SQUARED SPACING: 0.0625
Info: NONBONDED TABLE SIZE: 769 POINTS
TCL: Running for 5000 steps
ETITLE: TS BOND ANGLE DIHED IMPRP ELECT VDW BOUNDARY MISC KINETIC TOTAL TEMP POTENTIAL TOTAL3 TEMPAVG PRESSURE GPRESSURE VOLUME PRESSAVG GPRESSAVG
ENERGY: 0 3.5370 4.1212 0.9789 0.5924 -13547.7921 1402.2244 0.0000 0.0000 2383.0340 -9753.3043 303.2488 -12136.3383 -9748.5686 303.2488 -34.9253 -34.8329 496996.7665 -34.9253 -34.8329
ENERGY: 1000 1.0125 10.2122 1.5160 0.0011 -13451.1453 1396.4629 0.0000 0.0000 2303.6166 -9738.3239 293.1426 -12041.9405 -9735.4157 299.4519 -10.9562 -10.7598 471687.3206 0.9152 0.9323
ENERGY: 2000 1.5448 5.3033 1.8522 0.1175 -13595.6082 1469.2284 0.0000 0.0000 2326.1836 -9791.3785 296.0144 -12117.5621 -9788.2753 298.0600 34.0265 33.5978 461400.6744 0.5633 0.5902
ENERGY: 3000 1.5545 5.6251 1.1778 0.2880 -13632.7774 1491.6666 0.0000 0.0000 2415.2066 -9717.2588 307.3428 -12132.4654 -9711.6944 301.9414 34.9527 35.7541 464757.8888 1.1636 1.0981
ENERGY: 4000 1.2174 3.7635 1.2628 0.0122 -13440.2409 1330.5338 0.0000 0.0000 2312.7541 -9790.6971 294.3054 -12103.4513 -9784.5485 298.9599 -54.4135 -54.7897 456837.0551 2.1855 2.2117
ENERGY: 5000 1.4433 4.6242 0.5230 0.0003 -13527.5246 1391.3831 0.0000 0.0000 2305.5470 -9824.0036 293.3883 -12129.5506 -9819.4940 296.0903 -44.5173 -45.0922 480338.9843 1.6575 1.6774
TCL: Running FEP window   7: Lambda1 0.375  Lambda2 0.4375 [dLambda 0.0625]
TCL: Setting parameter firsttimestep to 0
TCL: Setting parameter alchLambda to 0.375
Info: NONBONDED TABLE R-SQUARED SPACING: 0.0625
Info: NONBONDED TABLE SIZE: 769 POINTS
TCL: Setting parameter alchLambda2 to 0.4375
Info: NONBONDED TABLE R-SQUARED SPACING: 0.0625
Info: NONBONDED TABLE SIZE: 769 POINTS
TCL: Running for 5000 steps
ETITLE: TS BOND ANGLE DIHED IMPRP ELECT VDW BOUNDARY MISC KINETIC TOTAL TEMP POTENTIAL TOTAL3 TEMPAVG PRESSURE GPRESSURE VOLUME PRESSAVG GPRESSAVG
ENERGY: 0 1.4433 4.6242 0.5230 0.0003 -13527.5246 1391.3327 0.0000 0.0000 2305.4708 -9824.1302 293.3786 -12129.6010 -9819.5349 293.3786 -44.9533 -45.1166 480338.9843 -44.9533 -45.1166
ENERGY: 1000 0.5142 5.2300 0.5730 0.3877 -13626.4193 1488.1625 0.0000 0.0000 2347.2045 -9784.3473 298.6893 -12131.5518 -9778.6502 297.3058 17.4604 17.3562 471661.4701 2.9049 2.9048
ENERGY: 2000 1.3512 5.2677 0.4284 0.0146 -13516.2631 1386.9330 0.0000 0.0000 2267.2717 -9854.9964 288.5176 -12122.2682 -9850.3379 296.8193 -30.0974 -29.4188 442696.4941 0.0957 0.0830
ENERGY: 3000 3.2479 4.6932 0.5541 0.5500 -13684.6385 1496.5662 0.0000 0.0000 2301.8268 -9877.2003 292.9149 -12179.0270 -9873.0907 295.6488 28.6111 28.5269 436280.1449 -1.0018 -1.0377
ENERGY: 4000 1.4390 6.1683 0.3897 0.2438 -13693.1241 1523.4437 0.0000 0.0000 2342.8074 -9818.6322 298.1298 -12161.4396 -9814.2569 294.8651 44.3727 45.0514 423809.7721 1.2815 1.2391
ENERGY: 5000 0.3307 6.8675 0.6535 0.5699 -13589.9961 1448.3943 0.0000 0.0000 2304.4252 -9828.7550 293.2455 -12133.1802 -9825.0688 295.1581 -6.0652 -6.8055 437065.4559 2.3420 2.3479
TCL: Running FEP window   8: Lambda1 0.4375 Lambda2 0.5    [dLambda 0.0625]
TCL: Setting parameter firsttimestep to 0
TCL: Setting parameter alchLambda to 0.4375
Info: NONBONDED TABLE R-SQUARED SPACING: 0.0625
Info: NONBONDED TABLE SIZE: 769 POINTS
TCL: Setting parameter alchLambda2 to 0.5
Info: NONBONDED TABLE R-SQUARED SPACING: 0.0625
Info: NONBONDED TABLE SIZE: 769 POINTS
TCL: Running for 5000 steps
ETITLE: TS BOND ANGLE DIHED IMPRP ELECT VDW BOUNDARY MISC KINETIC TOTAL TEMP POTENTIAL TOTAL3 TEMPAVG PRESSURE GPRESSURE VOLUME PRESSAVG GPRESSAVG
ENERGY: 0 0.3307 6.8675 0.6535 0.5699 -13589.9961 1448.3384 0.0000 0.0000 2304.3552 -9828.8809 293.2366 -12133.2361 -9824.5616 293.2366 -6.7603 -6.8525 437065.4559 -6.7603 -6.8525
ENERGY: 1000 0.5764 3.9762 0.7665 0.0260 -13645.6408 1484.1788 0.0000 0.0000 2342.5552 -9813.5618 298.0977 -12156.1169 -9809.2826 297.2893 8.9340 9.0721 453649.0310 2.2564 2.2780
ENERGY: 2000 0.6120 5.6564 0.6278 0.2101 -13717.5553 1459.8055 0.0000 0.0000 2319.5617 -9931.0817 295.1717 -12250.6434 -9926.8075 292.8248 -7.0078 -6.9634 458518.1479 -0.2595 -0.2900
ENERGY: 3000 1.5439 4.8772 1.3812 0.0179 -13699.7501 1467.3255 0.0000 0.0000 2320.4412 -9904.1633 295.2836 -12224.6044 -9897.1237 291.6334 -3.7038 -3.2335 475829.8227 1.7656 1.7691
ENERGY: 4000 1.0883 2.9898 1.6342 0.0136 -13635.4458 1484.0705 0.0000 0.0000 2231.2733 -9914.3761 283.9367 -12145.6494 -9910.7308 293.5127 5.2718 4.6904 508033.4878 0.8246 0.8613
ENERGY: 5000 1.7846 4.7932 0.5663 0.0229 -13747.8290 1543.6289 0.0000 0.0000 2261.1686 -9935.8644 287.7410 -12197.0331 -9927.7529 292.5653 51.6856 51.8221 495918.1643 2.2000 2.1944
TCL: Running FEP window   9: Lambda1 0.5    Lambda2 0.5625 [dLambda 0.0625]
TCL: Setting parameter firsttimestep to 0
TCL: Setting parameter alchLambda to 0.5
Info: NONBONDED TABLE R-SQUARED SPACING: 0.0625
Info: NONBONDED TABLE SIZE: 769 POINTS
TCL: Setting parameter alchLambda2 to 0.5625
Info: NONBONDED TABLE R-SQUARED SPACING: 0.0625
Info: NONBONDED TABLE SIZE: 769 POINTS
TCL: Running for 5000 steps
ETITLE: TS BOND ANGLE DIHED IMPRP ELECT VDW BOUNDARY MISC KINETIC TOTAL TEMP POTENTIAL TOTAL3 TEMPAVG PRESSURE GPRESSURE VOLUME PRESSAVG GPRESSAVG
ENERGY: 0 1.7846 4.7932 0.5663 0.0229 -13747.8290 1543.5500 0.0000 0.0000 2261.1008 -9936.0111 287.7324 -12197.1120 -9931.8399 287.7324 52.0130 52.1716 495918.1643 52.0130 52.1716
ENERGY: 1000 1.1744 3.4124 0.2580 0.7751 -13682.9848 1500.5036 0.0000 0.0000 2296.0392 -9880.8221 292.1784 -12176.8613 -9875.4214 292.6306 32.1013 31.8864 496434.2980 1.4851 1.4760
ENERGY: 2000 1.3467 6.2650 0.5819 0.5219 -13677.3173 1469.3785 0.0000 0.0000 2352.8158 -9846.4075 299.4034 -12199.2233 -9841.0376 294.0403 -6.3667 -6.7547 492595.5377 0.4322 0.4390
ENERGY: 3000 0.5946 5.5680 0.8294 0.0124 -13554.5320 1378.2560 0.0000 0.0000 2347.1574 -9822.1143 298.6834 -12169.2717 -9815.9393 297.1023 -37.2330 -37.1199 492799.2160 0.8153 0.7810
ENERGY: 4000 1.9035 8.1165 1.4354 0.1688 -13556.9274 1430.1046 0.0000 0.0000 2337.0185 -9778.1801 297.3932 -12115.1987 -9774.4745 297.8505 -2.7404 -2.8773 479167.6317 1.0640 1.0546
ENERGY: 5000 0.9042 3.6383 1.7990 0.4013 -13554.1133 1387.9910 0.0000 0.0000 2315.4465 -9843.9330 294.6480 -12159.3795 -9839.1047 295.7219 -10.5691 -10.3765 456571.3061 -1.4205 -1.4411
TCL: Running FEP window  10: Lambda1 0.5625 Lambda2 0.625  [dLambda 0.0625]
TCL: Setting parameter firsttimestep to 0
TCL: Setting parameter alchLambda to 0.5625
Info: NONBONDED TABLE R-SQUARED SPACING: 0.0625
Info: NONBONDED TABLE SIZE: 769 POINTS
TCL: Setting parameter alchLambda2 to 0.625
Info: NONBONDED TABLE R-SQUARED SPACING: 0.0625
Info: NONBONDED TABLE SIZE: 769 POINTS
TCL: Running for 5000 steps
ETITLE: TS BOND ANGLE DIHED IMPRP ELECT VDW BOUNDARY MISC KINETIC TOTAL TEMP POTENTIAL TOTAL3 TEMPAVG PRESSURE GPRESSURE VOLUME PRESSAVG GPRESSAVG
ENERGY: 0 0.9042 3.6383 1.7990 0.4013 -13552.8280 1387.8876 0.0000 0.0000 2315.3750 -9842.8226 294.6389 -12158.1976 -9838.4003 294.6389 -10.3727 -10.3171 456571.3061 -10.3727 -10.3171
ENERGY: 1000 1.2287 5.7921 0.5007 0.0907 -13558.6493 1397.7019 0.0000 0.0000 2340.2465 -9813.0886 297.8039 -12153.3351 -9806.7997 297.8887 -24.6129 -25.0940 443850.6172 1.3924 1.4078
ENERGY: 2000 1.4609 3.5683 1.4508 0.2971 -13535.7317 1388.8316 0.0000 0.0000 2366.4366 -9773.6863 301.1367 -12140.1229 -9768.0716 297.0439 -41.5085 -41.8878 440214.0265 2.0291 2.0215
ENERGY: 3000 1.0705 6.7632 0.4184 0.7459 -13521.1663 1391.3494 0.0000 0.0000 2344.9035 -9775.9154 298.3965 -12120.8189 -9769.8304 298.5526 -33.0012 -33.3118 448751.7445 1.9204 1.9245
ENERGY: 4000 0.7206 5.8929 0.4789 0.2177 -13707.8730 1522.0805 0.0000 0.0000 2351.2738 -9827.2086 299.2072 -12178.4823 -9821.9315 293.0764 53.3507 53.7676 449570.7664 -1.8195 -1.8225
ENERGY: 5000 2.3169 7.3413 0.9202 0.2860 -13630.2254 1502.2435 0.0000 0.0000 2324.7402 -9792.3772 295.8307 -12117.1174 -9787.8378 296.3200 33.1363 32.8678 444423.9088 2.5527 2.5259
TCL: Running FEP window  11: Lambda1 0.625  Lambda2 0.6875 [dLambda 0.0625]
TCL: Setting parameter firsttimestep to 0
TCL: Setting parameter alchLambda to 0.625
Info: NONBONDED TABLE R-SQUARED SPACING: 0.0625
Info: NONBONDED TABLE SIZE: 769 POINTS
TCL: Setting parameter alchLambda2 to 0.6875
Info: NONBONDED TABLE R-SQUARED SPACING: 0.0625
Info: NONBONDED TABLE SIZE: 769 POINTS
TCL: Running for 5000 steps
ETITLE: TS BOND ANGLE DIHED IMPRP ELECT VDW BOUNDARY MISC KINETIC TOTAL TEMP POTENTIAL TOTAL3 TEMPAVG PRESSURE GPRESSURE VOLUME PRESSAVG GPRESSAVG
ENERGY: 0 2.3169 7.3413 0.9202 0.2860 -13628.9741 1502.1130 0.0000 0.0000 2324.6664 -9791.3303 295.8213 -12115.9967 -9786.5866 295.8213 32.9592 33.0910 444423.9088 32.9592 33.0910
ENERGY: 1000 0.8934 7.0816 0.4523 0.2654 -13704.0191 1541.7464 0.0000 0.0000 2269.6705 -9883.9095 288.8229 -12153.5800 -9879.7645 294.0956 74.1341 74.3902 443789.4137 1.4640 1.4600
ENERGY: 2000 2.0480 3.7914 1.2417 0.2304 -13569.9763 1404.2314 0.0000 0.0000 2300.4561 -9857.9774 292.7405 -12158.4335 -9852.9879 296.0173 -25.1891 -24.9292 464195.6110 0.8984 0.8663
ENERGY: 3000 0.2659 8.2707 1.6173 0.0520 -13450.7115 1364.0230 0.0000 0.0000 2318.9715 -9757.5112 295.0966 -12076.4827 -9752.9105 297.8401 -27.3959 -28.4927 449559.1749 2.0744 2.0774
ENERGY: 4000 1.5333 3.3445 0.5522 0.0047 -13523.9299 1410.9226 0.0000 0.0000 2312.2290 -9795.3436 294.2386 -12107.5726 -9790.2604 297.1926 -10.0436 -10.1753 471606.0998 1.7893 1.7487
ENERGY: 5000 0.1268 4.7762 1.2257 0.0866 -13697.5662 1524.9085 0.0000 0.0000 2393.7110 -9772.7314 304.6075 -12166.4424 -9766.7003 299.2011 42.4886 42.1780 487299.8301 0.3984 0.4178
TCL: Running FEP window  12: Lambda1 0.6875 Lambda2 0.75   [dLambda 0.0625]
TCL: Setting parameter firsttimestep to 0
TCL: Setting parameter alchLambda to 0.6875
Info: NONBONDED TABLE R-SQUARED SPACING: 0.0625
Info: NONBONDED TABLE SIZE: 769 POINTS
TCL: Setting parameter alchLambda2 to 0.75
Info: NONBONDED TABLE R-SQUARED SPACING: 0.0625
Info: NONBONDED TABLE SIZE: 769 POINTS
TCL: Running for 5000 steps
ETITLE: TS BOND ANGLE DIHED IMPRP ELECT VDW BOUNDARY MISC KINETIC TOTAL TEMP POTENTIAL TOTAL3 TEMPAVG PRESSURE GPRESSURE VOLUME PRESSAVG GPRESSAVG
ENERGY: 0 0.1268 4.7762 1.2257 0.0866 -13696.2773 1524.8857 0.0000 0.0000 2393.6350 -9771.5413 304.5978 -12165.1763 -9766.6921 304.5978 42.6238 42.5148 487299.8301 42.6238 42.5148
ENERGY: 1000 0.3447 3.4932 2.1496 0.0321 -13571.8271 1473.3370 0.0000 0.0000 2353.1020 -9739.3685 299.4398 -12092.4705 -9735.7231 297.6825 33.0827 32.7082 518091.3562 0.5178 0.5268
ENERGY: 2000 1.7990 6.3288 0.7643 0.0390 -13682.6599 1459.2083 0.0000 0.0000 2351.8928 -9862.6278 299.2859 -12214.5206 -9858.3056 294.7807 -10.3353 -10.2193 516698.5204 1.1305 1.1444
ENERGY: 3000 0.7900 6.2133 1.2803 0.0249 -13739.9774 1496.4811 0.0000 0.0000 2371.2666 -9863.9213 301.7513 -12235.1879 -9859.0837 293.9103 8.6683 8.6725 514042.6714 -0.2794 -0.2672
ENERGY: 4000 0.7647 4.6684 0.3440 0.6274 -13713.9499 1532.0965 0.0000 0.0000 2323.4755 -9851.9733 295.6698 -12175.4488 -9847.8067 293.3259 52.9763 53.1227 508921.7191 2.9907 2.9935
ENERGY: 5000 1.6453 5.2733 2.1410 0.0623 -13677.8329 1512.0827 0.0000 0.0000 2329.6979 -9826.9302 296.4616 -12156.6282 -9822.6217 295.7380 51.5360 50.6708 506794.2218 1.7922 1.7907
TCL: Running FEP window  13: Lambda1 0.75   Lambda2 0.8125 [dLambda 0.0625]
TCL: Setting parameter firsttimestep to 0
TCL: Setting parameter alchLambda to 0.75
Info: NONBONDED TABLE R-SQUARED SPACING: 0.0625
Info: NONBONDED TABLE SIZE: 769 POINTS
TCL: Setting parameter alchLambda2 to 0.8125
Info: NONBONDED TABLE R-SQUARED SPACING: 0.0625
Info: NONBONDED TABLE SIZE: 769 POINTS
TCL: Running for 5000 steps
ETITLE: TS BOND ANGLE DIHED IMPRP ELECT VDW BOUNDARY MISC KINETIC TOTAL TEMP POTENTIAL TOTAL3 TEMPAVG PRESSURE GPRESSURE VOLUME PRESSAVG GPRESSAVG
ENERGY: 0 1.6453 5.2733 2.1410 0.0623 -13676.8045 1512.0319 0.0000 0.0000 2329.6279 -9826.0226 296.4527 -12155.6505 -9821.1595 296.4527 50.8789 50.8918 506794.2218 50.8789 50.8918
ENERGY: 1000 0.4887 4.3808 2.0386 0.0935 -13692.3437 1533.6377 0.0000 0.0000 2276.0635 -9875.6408 289.6364 -12151.7043 -9871.8556 293.4729 40.8306 40.4547 505262.1663 0.1528 0.1446
ENERGY: 2000 0.2703 4.5159 1.8916 0.0127 -13621.4100 1439.7607 0.0000 0.0000 2370.1961 -9804.7628 301.6151 -12174.9589 -9799.5712 295.6351 -15.2445 -15.6167 512422.3972 -0.8636 -0.8352
ENERGY: 3000 0.3879 5.1522 1.0976 0.0001 -13493.8627 1391.9597 0.0000 0.0000 2369.4571 -9725.8080 301.5211 -12095.2651 -9720.5787 299.5889 -26.4929 -26.7388 516717.1308 1.3261 1.3034
ENERGY: 4000 1.6162 7.6832 0.3558 0.5378 -13442.5914 1377.9597 0.0000 0.0000 2380.3790 -9674.0597 302.9109 -12054.4387 -9669.0006 302.8874 -10.6575 -10.1536 508531.9159 1.6747 1.6462
ENERGY: 5000 0.4132 4.9848 1.7814 0.2542 -13428.1716 1376.0104 0.0000 0.0000 2324.0519 -9720.6758 295.7431 -12044.7277 -9715.8767 300.9287 -31.9276 -31.1792 511307.8866 2.3473 2.3873
TCL: Running FEP window  14: Lambda1 0.8125 Lambda2 0.875  [dLambda 0.0625]
TCL: Setting parameter firsttimestep to 0
TCL: Setting parameter alchLambda to 0.8125
Info: NONBONDED TABLE R-SQUARED SPACING: 0.0625
Info: NONBONDED TABLE SIZE: 769 POINTS
TCL: Setting parameter alchLambda2 to 0.875
Info: NONBONDED TABLE R-SQUARED SPACING: 0.0625
Info: NONBONDED TABLE SIZE: 769 POINTS
TCL: Running for 5000 steps
ETITLE: TS BOND ANGLE DIHED IMPRP ELECT VDW BOUNDARY MISC KINETIC TOTAL TEMP POTENTIAL TOTAL3 TEMPAVG PRESSURE GPRESSURE VOLUME PRESSAVG GPRESSAVG
ENERGY: 0 0.4132 4.9848 1.7814 0.2542 -13427.0254 1376.1647 0.0000 0.0000 2323.9793 -9719.4478 295.7339 -12043.4271 -9714.2626 295.7339 -31.1283 -31.0414 511307.8866 -31.1283 -31.0414
ENERGY: 1000 1.2087 5.4278 0.4304 0.1273 -13560.7752 1415.6727 0.0000 0.0000 2316.9871 -9820.9213 294.8441 -12137.9084 -9814.9944 295.6904 -12.7727 -13.1416 505854.1821 0.4736 0.4879
ENERGY: 2000 0.6961 4.6246 0.7367 0.3939 -13476.2175 1421.1276 0.0000 0.0000 2345.0032 -9703.6353 298.4092 -12048.6386 -9699.1999 299.4204 1.9004 2.4746 494808.9049 -0.2788 -0.2799
ENERGY: 3000 2.0043 3.9463 1.1436 0.4096 -13505.1590 1398.3711 0.0000 0.0000 2329.3295 -9769.9546 296.4147 -12099.2841 -9764.8477 298.3289 -42.4524 -42.5023 486119.7314 -0.3852 -0.3484
ENERGY: 4000 0.5763 4.4400 0.4077 0.0847 -13505.6649 1413.2261 0.0000 0.0000 2338.1295 -9748.8005 297.5345 -12086.9301 -9744.3588 300.4381 -9.2153 -9.6616 465292.0753 0.8283 0.8058
ENERGY: 5000 0.3802 4.5520 1.9677 0.0489 -13475.9711 1436.4176 0.0000 0.0000 2346.2744 -9686.3302 298.5710 -12032.6047 -9682.4209 298.3037 21.0793 21.6476 455521.5830 1.8858 1.9196
TCL: Running FEP window  15: Lambda1 0.875  Lambda2 0.9375 [dLambda 0.0625]
TCL: Setting parameter firsttimestep to 0
TCL: Setting parameter alchLambda to 0.875
Info: NONBONDED TABLE R-SQUARED SPACING: 0.0625
Info: NONBONDED TABLE SIZE: 769 POINTS
TCL: Setting parameter alchLambda2 to 0.9375
Info: NONBONDED TABLE R-SQUARED SPACING: 0.0625
Info: NONBONDED TABLE SIZE: 769 POINTS
TCL: Running for 5000 steps
ETITLE: TS BOND ANGLE DIHED IMPRP ELECT VDW BOUNDARY MISC KINETIC TOTAL TEMP POTENTIAL TOTAL3 TEMPAVG PRESSURE GPRESSURE VOLUME PRESSAVG GPRESSAVG
ENERGY: 0 0.3802 4.5520 1.9677 0.0489 -13474.9360 1436.6569 0.0000 0.0000 2346.2043 -9685.1259 298.5621 -12031.3302 -9680.8917 298.5621 21.8106 21.8678 455521.5830 21.8106 21.8678
ENERGY: 1000 1.1321 4.6058 1.7011 0.2066 -13508.4339 1492.2030 0.0000 0.0000 2361.2236 -9647.3618 300.4733 -12008.5853 -9643.7732 301.7066 46.0493 45.8778 462526.2605 0.5546 0.5744
ENERGY: 2000 1.0039 3.7569 1.5257 0.0807 -13598.2338 1471.7603 0.0000 0.0000 2337.6575 -9782.4488 297.4745 -12120.1063 -9778.9606 297.6004 22.5286 22.7675 446724.0326 -0.2650 -0.2815
ENERGY: 3000 1.4291 5.0437 1.5364 0.2382 -13498.3822 1391.8544 0.0000 0.0000 2339.4778 -9758.8026 297.7061 -12098.2804 -9755.1717 297.6740 -12.4344 -12.9308 438949.4278 0.0794 0.0654
ENERGY: 4000 1.1356 4.4219 0.5002 0.1670 -13419.9157 1391.8790 0.0000 0.0000 2286.9119 -9734.9002 291.0169 -12021.8121 -9728.7324 301.3616 -14.1118 -13.7373 443815.2862 2.8854 2.8799
ENERGY: 5000 2.7284 6.4917 0.2497 0.1395 -13591.4222 1412.2275 0.0000 0.0000 2375.1758 -9794.4095 302.2488 -12169.5853 -9787.5250 297.6650 -23.6630 -23.1122 450470.1668 1.5194 1.5492
TCL: Running FEP window  16: Lambda1 0.9375 Lambda2 1.0    [dLambda 0.0625]
TCL: Setting parameter firsttimestep to 0
TCL: Setting parameter alchLambda to 0.9375
Info: NONBONDED TABLE R-SQUARED SPACING: 0.0625
Info: NONBONDED TABLE SIZE: 769 POINTS
TCL: Setting parameter alchLambda2 to 1.0
Info: NONBONDED TABLE R-SQUARED SPACING: 0.0625
Info: NONBONDED TABLE SIZE: 769 POINTS
TCL: Running for 5000 steps
ETITLE: TS BOND ANGLE DIHED IMPRP ELECT VDW BOUNDARY MISC KINETIC TOTAL TEMP POTENTIAL TOTAL3 TEMPAVG PRESSURE GPRESSURE VOLUME PRESSAVG GPRESSAVG
ENERGY: 0 2.7284 6.4917 0.2497 0.1395 -13591.2346 1414.2602 0.0000 0.0000 2375.1053 -9792.2596 302.2398 -12167.3650 -9787.9174 302.2398 -21.2571 -21.3488 450470.1668 -21.2571 -21.3488
ENERGY: 1000 2.9005 5.6026 2.1530 0.2069 -13547.4185 1378.8455 0.0000 0.0000 2410.4885 -9747.2216 306.7424 -12157.7101 -9741.9200 298.9280 -20.4966 -19.5549 464926.6447 2.6588 2.6705
ENERGY: 2000 2.5700 4.6302 0.5081 0.0126 -13668.3432 1514.3974 0.0000 0.0000 2327.1130 -9819.1118 296.1326 -12146.2248 -9814.7117 299.8457 35.2111 35.5221 473826.5708 0.4620 0.4726
ENERGY: 3000 0.6548 4.6926 2.5123 0.1611 -13608.3439 1494.2071 0.0000 0.0000 2278.4158 -9827.7002 289.9358 -12106.1160 -9824.6259 295.2073 25.3056 25.6067 475948.0222 -1.0040 -1.0090
ENERGY: 4000 1.0130 7.4301 2.3424 0.4627 -13669.3701 1496.9864 0.0000 0.0000 2361.5831 -9799.5525 300.5191 -12161.1356 -9795.2630 297.9208 44.0222 43.7184 474738.1041 -0.8685 -0.8422
ENERGY: 5000 4.9454 6.3502 0.7430 0.0339 -13568.1275 1420.4283 0.0000 0.0000 2307.4972 -9828.1296 293.6365 -12135.6268 -9822.0817 296.7321 -22.6588 -22.3208 468381.1790 0.1458 0.2153
