Info: SIMULATION PARAMETERS:
Info: TIMESTEP               2
Info: NUMBER OF STEPS        0
Info: STEPS PER CYCLE        10
Info: PERIODIC CELL BASIS 1  41.545 0 0
Info: PERIODIC CELL BASIS 2  0 41.432 0
Info: PERIODIC CELL BASIS 3  0 0 46.883
Info: PERIODIC CELL CENTER   0 0 0
Info: WRAPPING WATERS AROUND PERIODIC BOUNDARIES ON OUTPUT.
Info: WRAPPING ALL CLUSTERS AROUND PERIODIC BOUNDARIES ON OUTPUT.
Info: FIRST LDB TIMESTEP     50
Info: LAST LDB TIMESTEP     -1
Info: HOM BACKGROUND SCALING 1
Info: PME BACKGROUND SCALING 1
Info: MIN ATOMS PER PATCH    40
Info: EMPTY PATCH LOAD       40 ATOMS
Info: INITIAL TEMPERATURE    300
Info: CENTER OF MASS MOVING INITIALLY? NO
Info: DIELECTRIC             1
Info: EXCLUDE                SCALED ONE-FOUR
Info: 1-4 ELECTROSTATICS SCALED BY 0.833333
Info: MODIFIED 1-4 VDW PARAMETERS WILL BE USED
Info: DCD FILENAME           mobley_1743409_min.dcd
Info: DCD FREQUENCY          5000
Info: DCD FIRST STEP         5000
Info: DCD FILE WILL CONTAIN UNIT CELL DATA
Info: XST FILENAME           mobley_1743409_min.xst
Info: XST FREQUENCY          5000
Info: NO VELOCITY DCD OUTPUT
Info: NO FORCE DCD OUTPUT
Info: OUTPUT FILENAME        mobley_1743409_min
Info: BINARY OUTPUT FILES WILL BE USED
Info: RESTART FILENAME       mobley_1743409_min.restart
Info: RESTART FREQUENCY      5000
Info: BINARY RESTART FILES WILL BE USED
Info: CUTOFF                 9
Info: PAIRLIST DISTANCE      11
Info: PAIRLIST SHRINK RATE   0.01
Info: PAIRLIST GROW RATE     0.01
Info: PAIRLIST TRIGGER       0.3
Info: PAIRLISTS PER CYCLE    2
Info: PAIRLISTS ENABLED
Info: MARGIN                 8
Info: HYDROGEN GROUP CUTOFF  2.5
Info: PATCH DIMENSION        21.5
Info: ENERGY OUTPUT STEPS    5000
Info: ENERGY EVALUATION STEPS    5000
Info: OUTPUT ENERGY PRECISION 4
Info: CROSSTERM ENERGY INCLUDED IN DIHEDRAL
Info: TIMING OUTPUT STEPS    50000
Info: PRESSURE OUTPUT STEPS  5000
Info: LANGEVIN DYNAMICS ACTIVE
Info: LANGEVIN TEMPERATURE   300
Info: LANGEVIN USING BBK INTEGRATOR
Info: LANGEVIN DAMPING COEFFICIENT IS 1 INVERSE PS
Info: LANGEVIN DYNAMICS APPLIED TO HYDROGENS
Info: LANGEVIN PISTON PRESSURE CONTROL ACTIVE
Info:        TARGET PRESSURE IS 1.01325 BAR
Info:     OSCILLATION PERIOD IS 50 FS
Info:             DECAY TIME IS 25 FS
Info:     PISTON TEMPERATURE IS 300 K
Info:       PRESSURE CONTROL IS GROUP-BASED
Info:    INITIAL STRAIN RATE IS 0 0 0
Info:       CELL FLUCTUATION IS ISOTROPIC
Info: PARTICLE MESH EWALD (PME) ACTIVE
Info: PME TOLERANCE               1e-06
Info: PME EWALD COEFFICIENT       0.348832
Info: PME INTERPOLATION ORDER     4
Info: PME GRID DIMENSIONS         44 44 48
Info: PME MAXIMUM GRID SPACING    1
Info: FULL ELECTROSTATIC EVALUATION FREQUENCY      2
Info: USING VERLET I (r-RESPA) MTS SCHEME.
Info: C1 SPLITTING OF LONG RANGE ELECTROSTATICS
Info: PLACING ATOMS IN PATCHES BY HYDROGEN GROUPS
Info: RIGID BONDS TO HYDROGEN : ALL
Info:         ERROR TOLERANCE : 1e-08
Info:          MAX ITERATIONS : 100
Info: RIGID WATER USING SETTLE ALGORITHM
Info: RANDOM NUMBER SEED     1741342421
Info: USE HYDROGEN BONDS?    NO
Info: Using AMBER format force field!
Info: AMBER PARM FILE        mobley_1743409.prmtop
Info: COORDINATE PDB         mobley_1743409.pdb
Info: Exclusions will be read from PARM file!
Info: SCNB (VDW SCALING)     2
Info: USING ARITHMETIC MEAN TO COMBINE L-J SIGMA PARAMETERS
Info: SUMMARY OF PARAMETERS:
Info: 9 BONDS
Info: 12 ANGLES
Info:   12 HARMONIC
Info:   0 COSINE-BASED
Info: 22 DIHEDRAL
Info: 0 IMPROPER
Info: 0 CROSSTERM
Info: 0 VDW
Info: 36 VDW_PAIRS
Info: 0 NBTHOLE_PAIRS
Info: STRUCTURE SUMMARY:
Info: 5849 ATOMS
Info: 5848 BONDS
Info: 44 ANGLES
Info: 75 DIHEDRALS
Info: 0 IMPROPERS
Info: 0 CROSSTERMS
Info: 5941 EXCLUSIONS
Info: 5837 RIGID BONDS
Info: 11710 DEGREES OF FREEDOM
Info: 1953 HYDROGEN GROUPS
Info: 4 ATOMS IN LARGEST HYDROGEN GROUP
Info: 1953 MIGRATION GROUPS
Info: 4 ATOMS IN LARGEST MIGRATION GROUP
Info: TOTAL MASS = 35143.2 amu
Info: TOTAL CHARGE = -9.99197e-05 e
Info: MASS DENSITY = 0.723154 g/cm^3
Info: ATOM DENSITY = 0.0724789 atoms/A^3
Info: ADDED 0 IMPLICIT EXCLUSIONS
Info: NONBONDED TABLE R-SQUARED SPACING: 0.0625
Info: NONBONDED TABLE SIZE: 705 POINTS
Info: REMOVING COM VELOCITY -0.0803553 -0.0231016 0.0984581
TCL: Minimizing for 2000 steps
ETITLE: TS BOND ANGLE DIHED IMPRP ELECT VDW BOUNDARY MISC KINETIC TOTAL TEMP POTENTIAL TOTAL3 TEMPAVG PRESSURE GPRESSURE VOLUME PRESSAVG GPRESSAVG
ENERGY: 0 0.4169 1.7518 45.2801 0.0000 -18227.3319 1990.2716 0.0000 0.0000 0.0000 -16189.6115 0.0000 -16189.6115 -16189.6115 0.0000 10934.6562 -15740.2630 80699.3535 10934.6562 -15740.2630
ENERGY: 400 7.6854 7.6967 41.0262 0.0000 -24451.6387 3477.8733 0.0000 0.0000 0.0000 -20917.3571 0.0000 -20917.3571 -20917.3571 0.0000 15537.9412 9305.0452 80699.3535 15537.9412 9305.0452
ENERGY: 800 3.7927 4.2512 42.1602 0.0000 -25923.8586 4282.2052 0.0000 0.0000 0.0000 -21591.4492 0.0000 -21591.4492 -21591.4492 0.0000 18691.2858 12257.0336 80699.3535 18691.2858 12257.0336
ENERGY: 1200 0.4174 1.4242 41.5745 0.0000 -26338.9591 4412.9551 0.0000 0.0000 0.0000 -21882.5879 0.0000 -21882.5879 -21882.5879 0.0000 19198.5533 12625.7841 80699.3535 19198.5533 12625.7841
ENERGY: 1600 0.5726 1.0066 39.9841 0.0000 -26578.9135 4526.1292 0.0000 0.0000 0.0000 -22011.2210 0.0000 -22011.2210 -22011.2210 0.0000 19666.4889 13090.1853 80699.3535 19666.4889 13090.1853
ENERGY: 2000 0.4096 1.0594 39.5995 0.0000 -26760.1525 4630.4918 0.0000 0.0000 0.0000 -22088.5923 0.0000 -22088.5923 -22088.5923 0.0000 20098.4124 13062.6086 80699.3535 20098.4124 13062.6086
TCL: Exiting due to exit command.
Info: NAMD 3.0.1 for Linux-x86_64-multicore
Info: Please visit http://www.ks.uiuc.edu/Research/namd/
Info: for updates, documentation, and support information.
Info: Please cite Phillips et al., J. Chem. Phys. 153:044130 (2020) doi:10.1063/5.0014475
Info: in all publications reporting results obtained with NAMD.
Info: Based on Charm++/Converse 80000 for multicore-linux-x86_64-gcc
Info: Built Mon Oct 14 11:11:06 CDT 2024 by dhardy on athine.ks.uiuc.edu
Info: 1 NAMD  3.0.1  Linux-x86_64-multicore  16    k120  z5358697
Info: Running on 16 processors, 1 nodes, 1 physical nodes.
Info: CPU topology information available.
Info: Charm++/Converse parallel runtime startup completed at 0.00567381 s
Info: 1043.48 MB of memory in use based on /proc/self/stat
Info: Configuration file is mobley_1743409_equil.namd
Info: Working in the current directory /srv/scratch/z5358697/prod_prep_1/1743409
TCL: Running 25000 steps at 30 kelvin.
TCL: Suspending until startup complete.
Info: SIMULATION PARAMETERS:
Info: TIMESTEP               2
Info: NUMBER OF STEPS        0
Info: STEPS PER CYCLE        10
Info: PERIODIC CELL BASIS 1  41.545 0 0
Info: PERIODIC CELL BASIS 2  0 41.432 0
Info: PERIODIC CELL BASIS 3  0 0 46.883
Info: PERIODIC CELL CENTER   0 0 0
Info: WRAPPING WATERS AROUND PERIODIC BOUNDARIES ON OUTPUT.
Info: WRAPPING ALL CLUSTERS AROUND PERIODIC BOUNDARIES ON OUTPUT.
Info: FIRST LDB TIMESTEP     50
Info: LAST LDB TIMESTEP     -1
Info: HOM BACKGROUND SCALING 1
Info: PME BACKGROUND SCALING 1
Info: MIN ATOMS PER PATCH    40
Info: EMPTY PATCH LOAD       40 ATOMS
Info: INITIAL TEMPERATURE    300
Info: CENTER OF MASS MOVING INITIALLY? NO
Info: DIELECTRIC             1
Info: EXCLUDE                SCALED ONE-FOUR
Info: 1-4 ELECTROSTATICS SCALED BY 0.833333
Info: MODIFIED 1-4 VDW PARAMETERS WILL BE USED
Info: DCD FILENAME           mobley_1743409_equil.dcd
Info: DCD FREQUENCY          5000
Info: DCD FIRST STEP         5000
Info: DCD FILE WILL CONTAIN UNIT CELL DATA
Info: XST FILENAME           mobley_1743409_equil.xst
Info: XST FREQUENCY          5000
Info: NO VELOCITY DCD OUTPUT
Info: NO FORCE DCD OUTPUT
Info: OUTPUT FILENAME        mobley_1743409_equil
Info: BINARY OUTPUT FILES WILL BE USED
Info: RESTART FILENAME       mobley_1743409_equil.restart
Info: RESTART FREQUENCY      5000
Info: BINARY RESTART FILES WILL BE USED
Info: CUTOFF                 9
Info: PAIRLIST DISTANCE      11
Info: PAIRLIST SHRINK RATE   0.01
Info: PAIRLIST GROW RATE     0.01
Info: PAIRLIST TRIGGER       0.3
Info: PAIRLISTS PER CYCLE    2
Info: PAIRLISTS ENABLED
Info: MARGIN                 8
Info: HYDROGEN GROUP CUTOFF  2.5
Info: PATCH DIMENSION        21.5
Info: ENERGY OUTPUT STEPS    5000
Info: ENERGY EVALUATION STEPS    5000
Info: OUTPUT ENERGY PRECISION 4
Info: CROSSTERM ENERGY INCLUDED IN DIHEDRAL
Info: TIMING OUTPUT STEPS    50000
Info: PRESSURE OUTPUT STEPS  5000
Info: LANGEVIN DYNAMICS ACTIVE
Info: LANGEVIN TEMPERATURE   30
Info: LANGEVIN USING BBK INTEGRATOR
Info: LANGEVIN DAMPING COEFFICIENT IS 1 INVERSE PS
Info: LANGEVIN DYNAMICS APPLIED TO HYDROGENS
Info: LANGEVIN PISTON PRESSURE CONTROL ACTIVE
Info:        TARGET PRESSURE IS 1.01325 BAR
Info:     OSCILLATION PERIOD IS 50 FS
Info:             DECAY TIME IS 25 FS
Info:     PISTON TEMPERATURE IS 300 K
Info:       PRESSURE CONTROL IS GROUP-BASED
Info:    INITIAL STRAIN RATE IS 0 0 0
Info:       CELL FLUCTUATION IS ISOTROPIC
Info: PARTICLE MESH EWALD (PME) ACTIVE
Info: PME TOLERANCE               1e-06
Info: PME EWALD COEFFICIENT       0.348832
Info: PME INTERPOLATION ORDER     4
Info: PME GRID DIMENSIONS         44 44 48
Info: PME MAXIMUM GRID SPACING    1
Info: FULL ELECTROSTATIC EVALUATION FREQUENCY      2
Info: USING VERLET I (r-RESPA) MTS SCHEME.
Info: C1 SPLITTING OF LONG RANGE ELECTROSTATICS
Info: PLACING ATOMS IN PATCHES BY HYDROGEN GROUPS
Info: RIGID BONDS TO HYDROGEN : ALL
Info:         ERROR TOLERANCE : 1e-08
Info:          MAX ITERATIONS : 100
Info: RIGID WATER USING SETTLE ALGORITHM
Info: RANDOM NUMBER SEED     1741342441
Info: USE HYDROGEN BONDS?    NO
Info: Using AMBER format force field!
Info: AMBER PARM FILE        mobley_1743409.prmtop
Info: COORDINATE PDB         mobley_1743409.pdb
Info: Exclusions will be read from PARM file!
Info: SCNB (VDW SCALING)     2
Info: USING ARITHMETIC MEAN TO COMBINE L-J SIGMA PARAMETERS
Info: BINARY COORDINATES     mobley_1743409_min.coor
Info: SUMMARY OF PARAMETERS:
Info: 9 BONDS
Info: 12 ANGLES
Info:   12 HARMONIC
Info:   0 COSINE-BASED
Info: 22 DIHEDRAL
Info: 0 IMPROPER
Info: 0 CROSSTERM
Info: 0 VDW
Info: 36 VDW_PAIRS
Info: 0 NBTHOLE_PAIRS
Info: STRUCTURE SUMMARY:
Info: 5849 ATOMS
Info: 5848 BONDS
Info: 44 ANGLES
Info: 75 DIHEDRALS
Info: 0 IMPROPERS
Info: 0 CROSSTERMS
Info: 5941 EXCLUSIONS
Info: 5837 RIGID BONDS
Info: 11710 DEGREES OF FREEDOM
Info: 1953 HYDROGEN GROUPS
Info: 4 ATOMS IN LARGEST HYDROGEN GROUP
Info: 1953 MIGRATION GROUPS
Info: 4 ATOMS IN LARGEST MIGRATION GROUP
Info: TOTAL MASS = 35143.2 amu
Info: TOTAL CHARGE = -9.99197e-05 e
Info: MASS DENSITY = 0.723154 g/cm^3
Info: ATOM DENSITY = 0.0724789 atoms/A^3
Info: ADDED 0 IMPLICIT EXCLUSIONS
Info: NONBONDED TABLE R-SQUARED SPACING: 0.0625
Info: NONBONDED TABLE SIZE: 705 POINTS
Info: REMOVING COM VELOCITY -0.0474238 -0.0104666 0.106241
TCL: Running for 25000 steps
ETITLE: TS BOND ANGLE DIHED IMPRP ELECT VDW BOUNDARY MISC KINETIC TOTAL TEMP POTENTIAL TOTAL3 TEMPAVG PRESSURE GPRESSURE VOLUME PRESSAVG GPRESSAVG
ENERGY: 0 0.4096 1.0594 39.5995 0.0000 -26760.1525 4630.4918 0.0000 0.0000 3443.5763 -18645.0159 295.9669 -22088.5923 -18644.3215 295.9669 332.2010 383.2464 80699.3535 332.2010 383.2464
ENERGY: 5000 0.2579 1.9317 39.8994 0.0000 -27827.0185 4631.3036 0.0000 0.0000 355.6207 -22798.0052 30.5647 -23153.6260 -22796.9484 48.0657 -826.5548 -753.4990 56771.2024 1.6026 1.5092
ENERGY: 10000 0.7697 2.3985 39.9109 0.0000 -28000.1177 4750.2823 0.0000 0.0000 347.8057 -22858.9507 29.8930 -23206.7564 -22858.0202 30.2434 -445.3533 -392.8188 56706.1454 1.2101 1.3903
ENERGY: 15000 0.6447 1.6468 39.8769 0.0000 -28065.2828 4796.9357 0.0000 0.0000 344.5977 -22881.5809 29.6173 -23226.1786 -22880.5190 30.0529 -290.5954 -236.1006 56694.1122 0.6276 0.4621
ENERGY: 20000 0.6783 1.5659 39.7887 0.0000 -28044.1697 4754.2451 0.0000 0.0000 347.4187 -22900.4731 29.8598 -23247.8917 -22899.6794 29.9896 -481.6332 -424.2411 56515.5117 3.2496 3.4817
ENERGY: 25000 0.3148 2.2592 40.4227 0.0000 -28161.2846 4852.7058 0.0000 0.0000 346.0591 -22919.5230 29.7429 -23265.5821 -22918.7743 30.0042 -45.0066 12.6698 56231.0887 4.0667 4.0137
TCL: Running 25000 steps at 60 kelvin.
TCL: Setting parameter langevinTemp to 60
TCL: Running for 25000 steps
ETITLE: TS BOND ANGLE DIHED IMPRP ELECT VDW BOUNDARY MISC KINETIC TOTAL TEMP POTENTIAL TOTAL3 TEMPAVG PRESSURE GPRESSURE VOLUME PRESSAVG GPRESSAVG
ENERGY: 25000 0.3148 2.2592 40.4227 0.0000 -28161.2846 4852.7058 0.0000 0.0000 345.8805 -22919.7016 29.7276 -23265.5821 -22919.0742 29.7276 -48.8334 12.5984 56231.0887 -48.8334 12.5984
ENERGY: 30000 0.7517 2.5268 40.6831 0.0000 -27631.1746 4625.5223 0.0000 0.0000 701.1028 -22260.5879 60.2581 -22961.6907 -22258.4961 57.2138 -469.3364 -403.3217 56662.9020 -1.3945 -1.4339
ENERGY: 35000 0.7762 3.0255 39.9246 0.0000 -27898.3352 4829.6812 0.0000 0.0000 687.0025 -22337.9252 59.0462 -23024.9277 -22336.6657 60.3175 428.3094 478.0858 56226.7819 2.3777 2.7027
ENERGY: 40000 0.3912 2.4395 40.4057 0.0000 -27981.9557 4858.6145 0.0000 0.0000 691.9494 -22388.1554 59.4714 -23080.1048 -22386.6063 60.2610 449.8069 512.0526 56148.5670 3.1683 3.0711
ENERGY: 45000 1.0930 2.7305 40.5162 0.0000 -27794.5380 4663.9107 0.0000 0.0000 703.6825 -22382.6050 60.4798 -23086.2876 -22380.6674 60.1212 -477.4801 -416.3778 56492.0907 1.3476 1.2188
ENERGY: 50000 1.2302 3.6017 39.8962 0.0000 -27832.9836 4678.4762 0.0000 0.0000 709.4760 -22400.3034 60.9777 -23109.7794 -22397.7048 60.1200 -472.9999 -399.0063 56487.3946 8.2356 8.1456
TCL: Running 25000 steps at 90 kelvin.
TCL: Setting parameter langevinTemp to 90
TCL: Running for 25000 steps
ETITLE: TS BOND ANGLE DIHED IMPRP ELECT VDW BOUNDARY MISC KINETIC TOTAL TEMP POTENTIAL TOTAL3 TEMPAVG PRESSURE GPRESSURE VOLUME PRESSAVG GPRESSAVG
ENERGY: 50000 1.2302 3.6017 39.8962 0.0000 -27832.9836 4678.4762 0.0000 0.0000 709.1315 -22400.6479 60.9481 -23109.7794 -22399.2362 60.9481 -454.7134 -398.7377 56487.3946 -454.7134 -398.7377
ENERGY: 55000 1.3683 3.9100 42.0730 0.0000 -27224.4833 4424.3471 0.0000 0.0000 1037.1987 -21715.5862 89.1447 -22752.7849 -21712.8737 87.0967 -934.6253 -868.0579 57034.2583 9.7245 9.5717
ENERGY: 60000 0.9827 3.7243 41.7957 0.0000 -27403.8131 4566.7931 0.0000 0.0000 1060.3124 -21730.2048 91.1313 -22790.5173 -21727.1797 90.1626 -279.6133 -255.6047 56630.4761 -2.9917 -3.0058
ENERGY: 65000 1.6108 2.8389 41.1293 0.0000 -27327.8697 4503.3123 0.0000 0.0000 1041.9622 -21737.0162 89.5541 -22778.9784 -21734.8874 90.2228 -610.0497 -568.5645 56781.1821 2.5883 2.5511
ENERGY: 70000 1.2050 3.7713 40.9745 0.0000 -27357.1348 4483.0324 0.0000 0.0000 1071.7062 -21756.4455 92.1105 -22828.1517 -21753.5531 90.6260 -768.5684 -713.5092 56739.2326 -0.7788 -1.1319
ENERGY: 75000 0.5297 2.9759 42.8522 0.0000 -27614.3725 4683.1069 0.0000 0.0000 1032.7643 -21852.1436 88.7636 -22884.9079 -21849.3943 90.4274 136.6282 197.9645 56075.9388 3.7875 3.8341
TCL: Running 25000 steps at 120 kelvin.
TCL: Setting parameter langevinTemp to 120
TCL: Running for 25000 steps
ETITLE: TS BOND ANGLE DIHED IMPRP ELECT VDW BOUNDARY MISC KINETIC TOTAL TEMP POTENTIAL TOTAL3 TEMPAVG PRESSURE GPRESSURE VOLUME PRESSAVG GPRESSAVG
ENERGY: 75000 0.5297 2.9759 42.8522 0.0000 -27614.3725 4683.1069 0.0000 0.0000 1032.2483 -21852.6596 88.7192 -22884.9079 -21850.3418 88.7192 149.3093 197.7442 56075.9388 149.3093 197.7442
ENERGY: 80000 2.2853 5.6373 42.9616 0.0000 -27167.7337 4625.9639 0.0000 0.0000 1407.8356 -21083.0500 121.0000 -22490.8856 -21079.4160 117.0887 596.0139 657.7552 56427.5944 3.5847 3.4489
ENERGY: 85000 1.6739 4.4702 41.2060 0.0000 -26945.9415 4400.8315 0.0000 0.0000 1408.1081 -21089.6520 121.0234 -22497.7600 -21086.7498 119.3548 -438.1336 -384.6251 56820.8147 3.4505 3.4722
ENERGY: 90000 0.8339 6.3873 39.9165 0.0000 -27094.2467 4485.7576 0.0000 0.0000 1379.9265 -21181.4249 118.6013 -22561.3515 -21178.5357 119.9467 -156.1667 -112.9472 56587.0235 3.2513 3.2143
ENERGY: 95000 1.7053 4.9163 39.8841 0.0000 -26919.9044 4306.9762 0.0000 0.0000 1398.6202 -21167.8021 120.2080 -22566.4224 -21163.2636 120.2567 -982.2234 -933.5241 56948.3029 7.0890 7.3067
ENERGY: 100000 1.3333 4.7377 41.9554 0.0000 -27144.7995 4484.9492 0.0000 0.0000 1383.9656 -21227.8584 118.9484 -22611.8240 -21224.7689 120.0192 -313.2289 -238.5677 56544.9058 0.6497 0.4320
TCL: Running 25000 steps at 150 kelvin.
TCL: Setting parameter langevinTemp to 150
TCL: Running for 25000 steps
ETITLE: TS BOND ANGLE DIHED IMPRP ELECT VDW BOUNDARY MISC KINETIC TOTAL TEMP POTENTIAL TOTAL3 TEMPAVG PRESSURE GPRESSURE VOLUME PRESSAVG GPRESSAVG
ENERGY: 100000 1.3333 4.7377 41.9554 0.0000 -27144.7995 4484.9492 0.0000 0.0000 1383.2689 -21228.5550 118.8886 -22611.8240 -21225.4116 118.8886 -297.4166 -238.4926 56544.9058 -297.4166 -238.4926
ENERGY: 105000 3.0356 4.7856 40.5707 0.0000 -26504.0779 4259.3434 0.0000 0.0000 1755.0017 -20441.3409 150.8381 -22196.3425 -20436.1779 146.7642 -489.4506 -411.4673 56928.9831 1.3358 0.9433
ENERGY: 110000 1.0195 7.8740 39.5962 0.0000 -26592.0048 4338.2732 0.0000 0.0000 1744.9693 -20460.2725 149.9758 -22205.2419 -20453.8715 149.6111 -55.4761 -11.7468 56551.2029 4.3280 4.3654
ENERGY: 115000 2.3066 4.0027 42.2281 0.0000 -26669.3169 4422.4686 0.0000 0.0000 1743.6915 -20454.6194 149.8660 -22198.3108 -20450.8142 150.0281 289.7233 306.7933 56549.1197 3.4411 3.6153
ENERGY: 120000 1.3862 7.2585 39.1239 0.0000 -26669.6018 4383.7267 0.0000 0.0000 1760.8130 -20477.2936 151.3376 -22238.1066 -20473.4228 150.9085 9.2847 81.6914 56577.0074 1.8067 2.0643
ENERGY: 125000 2.4257 6.9932 40.8688 0.0000 -26767.5872 4460.2491 0.0000 0.0000 1767.0425 -20490.0079 151.8730 -22257.0504 -20485.7097 150.4608 279.5554 346.2275 56428.7827 0.4883 0.4511
TCL: Running 50000 steps at 180 kelvin.
TCL: Setting parameter langevinTemp to 180
TCL: Running for 50000 steps
ETITLE: TS BOND ANGLE DIHED IMPRP ELECT VDW BOUNDARY MISC KINETIC TOTAL TEMP POTENTIAL TOTAL3 TEMPAVG PRESSURE GPRESSURE VOLUME PRESSAVG GPRESSAVG
ENERGY: 125000 2.4257 6.9932 40.8688 0.0000 -26767.5872 4460.2491 0.0000 0.0000 1766.1700 -20490.8804 151.7980 -22257.0504 -20487.1917 151.7980 285.3616 345.7905 56428.7827 285.3616 345.7905
ENERGY: 135000 1.2585 8.7277 41.9095 0.0000 -25816.9541 4126.3332 0.0000 0.0000 2089.4340 -19549.2912 179.5817 -21638.7252 -19543.1666 180.0411 -11.9452 53.9547 56835.1255 7.6690 8.0168
ENERGY: 145000 2.1989 7.9332 40.7495 0.0000 -26139.8621 4353.3253 0.0000 0.0000 2049.9706 -19685.6846 176.1899 -21735.6551 -19682.3325 179.7350 806.8880 861.7418 56506.9898 1.0793 1.3434
ENERGY: 155000 3.2323 6.5076 41.4899 0.0000 -25786.9678 4028.7666 0.0000 0.0000 2109.8515 -19597.1199 181.3366 -21706.9714 -19594.0043 179.9034 -781.3067 -724.9438 57760.6952 0.4507 0.4524
ENERGY: 165000 2.7822 8.6573 39.2683 0.0000 -25902.0246 4050.7529 0.0000 0.0000 2110.0708 -19690.4930 181.3554 -21800.5638 -19683.6523 179.8516 -429.4413 -380.2903 56610.8347 4.9236 4.8631
ENERGY: 175000 4.0734 7.7922 42.1763 0.0000 -25869.8678 4102.2451 0.0000 0.0000 2093.6802 -19619.9007 179.9467 -21713.5808 -19615.5863 179.8774 -375.6376 -294.5834 57231.7080 4.2105 4.7932
TCL: Running 50000 steps at 210 kelvin.
TCL: Setting parameter langevinTemp to 210
TCL: Running for 50000 steps
ETITLE: TS BOND ANGLE DIHED IMPRP ELECT VDW BOUNDARY MISC KINETIC TOTAL TEMP POTENTIAL TOTAL3 TEMPAVG PRESSURE GPRESSURE VOLUME PRESSAVG GPRESSAVG
ENERGY: 175000 4.0734 7.7922 42.1763 0.0000 -25869.8678 4102.2451 0.0000 0.0000 2092.6564 -19620.9244 179.8587 -21713.5808 -19617.0645 179.8587 -364.6490 -294.0735 57231.7080 -364.6490 -294.0735
ENERGY: 185000 1.8883 7.7000 41.9376 0.0000 -24680.0320 3716.7069 0.0000 0.0000 2435.7083 -18476.0909 209.3432 -20911.7992 -18468.7043 209.3177 -599.4901 -509.7099 57868.7088 4.4097 5.0230
ENERGY: 195000 1.7353 6.0882 40.6854 0.0000 -24567.5747 3712.6446 0.0000 0.0000 2420.7501 -18385.6711 208.0575 -20806.4212 -18379.7535 211.0132 -201.3451 -124.1492 57061.1366 6.7738 6.6474
ENERGY: 205000 2.6788 12.1702 40.4513 0.0000 -24736.1111 3819.8621 0.0000 0.0000 2441.8250 -18419.1237 209.8689 -20860.9487 -18414.4513 210.6226 363.2758 439.4551 56496.0192 -1.2631 -0.9260
ENERGY: 215000 3.7789 6.3431 40.5406 0.0000 -24615.6565 3729.2096 0.0000 0.0000 2428.0558 -18407.7285 208.6854 -20835.7843 -18401.6005 211.2758 -196.5111 -149.1754 57131.4931 4.6163 4.3066
ENERGY: 225000 1.7906 6.9175 41.1598 0.0000 -24726.5610 3821.3007 0.0000 0.0000 2482.9656 -18372.4268 213.4048 -20855.3924 -18366.1601 208.9550 252.2225 289.3160 57173.3843 4.0897 3.9744
TCL: Running 50000 steps at 240 kelvin.
TCL: Setting parameter langevinTemp to 240
TCL: Running for 50000 steps
ETITLE: TS BOND ANGLE DIHED IMPRP ELECT VDW BOUNDARY MISC KINETIC TOTAL TEMP POTENTIAL TOTAL3 TEMPAVG PRESSURE GPRESSURE VOLUME PRESSAVG GPRESSAVG
ENERGY: 225000 1.7906 6.9175 41.1598 0.0000 -24726.5610 3821.3007 0.0000 0.0000 2481.7443 -18373.6481 213.2998 -20855.3924 -18369.5362 213.2998 226.1083 288.2391 57173.3843 226.1083 288.2391
ENERGY: 235000 3.8825 10.1183 41.6457 0.0000 -23366.5785 3339.9805 0.0000 0.0000 2783.5352 -17187.4163 239.2380 -19970.9515 -17180.0506 239.7932 -135.4706 -33.7968 57225.4426 3.7629 4.0205
ENERGY: 245000 1.7331 11.0356 42.9223 0.0000 -23532.9979 3481.6099 0.0000 0.0000 2741.9451 -17253.7520 235.6635 -19995.6971 -17246.1175 237.6057 324.3599 391.9603 57619.5379 1.7544 1.5668
ENERGY: 255000 3.2512 6.4698 40.6393 0.0000 -23580.1058 3462.1076 0.0000 0.0000 2784.4937 -17283.1441 239.3204 -20067.6377 -17276.8304 240.4827 175.9664 268.0593 57025.9408 1.2341 1.2552
ENERGY: 265000 3.3833 10.7843 41.5077 0.0000 -23473.9927 3471.8889 0.0000 0.0000 2703.6365 -17242.7920 232.3709 -19946.4285 -17238.7023 239.2701 403.2521 481.4345 57181.0861 2.9064 2.2696
ENERGY: 275000 2.9778 10.3529 40.9311 0.0000 -23356.2573 3423.1961 0.0000 0.0000 2812.0267 -17066.7728 241.6868 -19878.7995 -17059.5233 240.9454 175.9605 265.3964 57742.3353 5.2247 5.2851
TCL: Running 50000 steps at 270 kelvin.
TCL: Setting parameter langevinTemp to 270
TCL: Running for 50000 steps
ETITLE: TS BOND ANGLE DIHED IMPRP ELECT VDW BOUNDARY MISC KINETIC TOTAL TEMP POTENTIAL TOTAL3 TEMPAVG PRESSURE GPRESSURE VOLUME PRESSAVG GPRESSAVG
ENERGY: 275000 2.9778 10.3529 40.9311 0.0000 -23356.2573 3423.1961 0.0000 0.0000 2810.6421 -17068.1573 241.5678 -19878.7995 -17064.4324 241.5678 189.1928 266.4603 57742.3353 189.1928 266.4603
ENERGY: 285000 2.7252 12.3212 42.6553 0.0000 -22496.0632 3211.9355 0.0000 0.0000 3103.4179 -16123.0081 266.7312 -19226.4260 -16114.5937 269.6827 141.7223 221.4686 58929.6854 1.1223 1.4445
ENERGY: 295000 1.9935 9.7801 42.8652 0.0000 -22424.5025 3172.7547 0.0000 0.0000 3143.3886 -16053.7205 270.1665 -19197.1091 -16049.0461 270.0315 274.9861 316.9172 58535.7818 4.1031 3.8466
ENERGY: 305000 1.1523 10.0723 42.6330 0.0000 -22387.7780 3150.2437 0.0000 0.0000 3096.9396 -16086.7371 266.1744 -19183.6767 -16080.9723 269.1008 144.6597 240.6249 58371.8802 1.1649 0.8831
ENERGY: 315000 3.9062 12.3475 45.1546 0.0000 -22126.5861 2924.6399 0.0000 0.0000 3117.1291 -16023.4089 267.9096 -19140.5380 -16016.9795 269.7549 -772.1518 -690.9806 58693.4914 -0.2366 -0.6511
ENERGY: 325000 2.8997 14.0234 44.7460 0.0000 -22319.4063 3025.2269 0.0000 0.0000 3073.7545 -16158.7557 264.1817 -19232.5102 -16150.1042 269.5264 -759.1994 -680.9973 59492.6565 -2.5986 -2.8606
TCL: Running 1000000 steps at 300 kelvin.
TCL: Setting parameter langevinTemp to 300
TCL: Running for 1000000 steps
ETITLE: TS BOND ANGLE DIHED IMPRP ELECT VDW BOUNDARY MISC KINETIC TOTAL TEMP POTENTIAL TOTAL3 TEMPAVG PRESSURE GPRESSURE VOLUME PRESSAVG GPRESSAVG
ENERGY: 325000 2.8997 14.0234 44.7460 0.0000 -22319.4063 3025.2269 0.0000 0.0000 3072.1453 -16160.3649 264.0434 -19232.5102 -16155.4643 264.0434 -760.5987 -680.5504 59492.6565 -760.5987 -680.5504
ENERGY: 525000 3.2006 11.7572 43.0617 0.0000 -21244.0759 2871.9625 0.0000 0.0000 3497.9281 -14816.1657 300.6383 -18314.0938 -14808.0662 300.1509 155.7252 281.4956 59996.0225 2.3665 2.5197
ENERGY: 725000 5.1688 11.8273 40.9613 0.0000 -21112.5495 2842.6585 0.0000 0.0000 3496.0136 -14715.9201 300.4738 -18211.9337 -14709.3123 302.3728 20.3911 101.3822 60643.7187 2.2048 3.2900
ENERGY: 925000 2.9242 9.9595 43.5857 0.0000 -20978.6214 2658.7603 0.0000 0.0000 3448.1744 -14815.2173 296.3621 -18263.3917 -14811.4006 300.1662 -900.3524 -793.2607 60920.4948 6.1718 5.6763
ENERGY: 1125000 2.5305 8.9855 40.5357 0.0000 -21045.6679 2719.4901 0.0000 0.0000 3424.4561 -14849.6699 294.3236 -18274.1261 -14846.9296 301.0492 -608.6440 -505.2707 60559.8265 0.0695 1.0582
ENERGY: 1325000 2.2840 13.3072 42.0107 0.0000 -21184.3854 2785.8971 0.0000 0.0000 3484.7492 -14856.1373 299.5057 -18340.8865 -14848.7226 301.5473 -223.7312 -155.2095 60213.0793 6.7447 6.5064
TCL: Exiting due to exit command.
