Info: SIMULATION PARAMETERS:
Info: TIMESTEP               2
Info: NUMBER OF STEPS        0
Info: STEPS PER CYCLE        10
Info: PERIODIC CELL BASIS 1  39.806 0 0
Info: PERIODIC CELL BASIS 2  0 37.796 0
Info: PERIODIC CELL BASIS 3  0 0 39.527
Info: PERIODIC CELL CENTER   0 0 0
Info: WRAPPING WATERS AROUND PERIODIC BOUNDARIES ON OUTPUT.
Info: WRAPPING ALL CLUSTERS AROUND PERIODIC BOUNDARIES ON OUTPUT.
Info: FIRST LDB TIMESTEP     50
Info: LAST LDB TIMESTEP     -1
Info: HOM BACKGROUND SCALING 1
Info: PME BACKGROUND SCALING 1
Info: MIN ATOMS PER PATCH    40
Info: EMPTY PATCH LOAD       40 ATOMS
Info: INITIAL TEMPERATURE    300
Info: CENTER OF MASS MOVING INITIALLY? NO
Info: DIELECTRIC             1
Info: EXCLUDE                SCALED ONE-FOUR
Info: 1-4 ELECTROSTATICS SCALED BY 0.833333
Info: MODIFIED 1-4 VDW PARAMETERS WILL BE USED
Info: DCD FILENAME           mobley_4465023_min.dcd
Info: DCD FREQUENCY          5000
Info: DCD FIRST STEP         5000
Info: DCD FILE WILL CONTAIN UNIT CELL DATA
Info: XST FILENAME           mobley_4465023_min.xst
Info: XST FREQUENCY          5000
Info: NO VELOCITY DCD OUTPUT
Info: NO FORCE DCD OUTPUT
Info: OUTPUT FILENAME        mobley_4465023_min
Info: BINARY OUTPUT FILES WILL BE USED
Info: RESTART FILENAME       mobley_4465023_min.restart
Info: RESTART FREQUENCY      5000
Info: BINARY RESTART FILES WILL BE USED
Info: CUTOFF                 9
Info: PAIRLIST DISTANCE      11
Info: PAIRLIST SHRINK RATE   0.01
Info: PAIRLIST GROW RATE     0.01
Info: PAIRLIST TRIGGER       0.3
Info: PAIRLISTS PER CYCLE    2
Info: PAIRLISTS ENABLED
Info: MARGIN                 8
Info: HYDROGEN GROUP CUTOFF  2.5
Info: PATCH DIMENSION        21.5
Info: ENERGY OUTPUT STEPS    5000
Info: ENERGY EVALUATION STEPS    5000
Info: OUTPUT ENERGY PRECISION 4
Info: CROSSTERM ENERGY INCLUDED IN DIHEDRAL
Info: TIMING OUTPUT STEPS    50000
Info: PRESSURE OUTPUT STEPS  5000
Info: LANGEVIN DYNAMICS ACTIVE
Info: LANGEVIN TEMPERATURE   300
Info: LANGEVIN USING BBK INTEGRATOR
Info: LANGEVIN DAMPING COEFFICIENT IS 1 INVERSE PS
Info: LANGEVIN DYNAMICS APPLIED TO HYDROGENS
Info: LANGEVIN PISTON PRESSURE CONTROL ACTIVE
Info:        TARGET PRESSURE IS 1.01325 BAR
Info:     OSCILLATION PERIOD IS 50 FS
Info:             DECAY TIME IS 25 FS
Info:     PISTON TEMPERATURE IS 300 K
Info:       PRESSURE CONTROL IS GROUP-BASED
Info:    INITIAL STRAIN RATE IS 0 0 0
Info:       CELL FLUCTUATION IS ISOTROPIC
Info: PARTICLE MESH EWALD (PME) ACTIVE
Info: PME TOLERANCE               1e-06
Info: PME EWALD COEFFICIENT       0.348832
Info: PME INTERPOLATION ORDER     4
Info: PME GRID DIMENSIONS         40 40 40
Info: PME MAXIMUM GRID SPACING    1
Info: FULL ELECTROSTATIC EVALUATION FREQUENCY      2
Info: USING VERLET I (r-RESPA) MTS SCHEME.
Info: C1 SPLITTING OF LONG RANGE ELECTROSTATICS
Info: PLACING ATOMS IN PATCHES BY HYDROGEN GROUPS
Info: RIGID BONDS TO HYDROGEN : ALL
Info:         ERROR TOLERANCE : 1e-08
Info:          MAX ITERATIONS : 100
Info: RIGID WATER USING SETTLE ALGORITHM
Info: RANDOM NUMBER SEED     1741338293
Info: USE HYDROGEN BONDS?    NO
Info: Using AMBER format force field!
Info: AMBER PARM FILE        mobley_4465023.prmtop
Info: COORDINATE PDB         mobley_4465023.pdb
Info: Exclusions will be read from PARM file!
Info: SCNB (VDW SCALING)     2
Info: USING ARITHMETIC MEAN TO COMBINE L-J SIGMA PARAMETERS
Info: SUMMARY OF PARAMETERS:
Info: 5 BONDS
Info: 3 ANGLES
Info:   3 HARMONIC
Info:   0 COSINE-BASED
Info: 1 DIHEDRAL
Info: 0 IMPROPER
Info: 0 CROSSTERM
Info: 0 VDW
Info: 15 VDW_PAIRS
Info: 0 NBTHOLE_PAIRS
Info: STRUCTURE SUMMARY:
Info: 4188 ATOMS
Info: 4187 BONDS
Info: 6 ANGLES
Info: 4 DIHEDRALS
Info: 0 IMPROPERS
Info: 0 CROSSTERMS
Info: 4197 EXCLUSIONS
Info: 4184 RIGID BONDS
Info: 8380 DEGREES OF FREEDOM
Info: 1398 HYDROGEN GROUPS
Info: 3 ATOMS IN LARGEST HYDROGEN GROUP
Info: 1398 MIGRATION GROUPS
Info: 3 ATOMS IN LARGEST MIGRATION GROUP
Info: TOTAL MASS = 25211.2 amu
Info: TOTAL CHARGE = -1.49012e-08 e
Info: MASS DENSITY = 0.703988 g/cm^3
Info: ATOM DENSITY = 0.0704236 atoms/A^3
Info: ADDED 0 IMPLICIT EXCLUSIONS
Info: NONBONDED TABLE R-SQUARED SPACING: 0.0625
Info: NONBONDED TABLE SIZE: 705 POINTS
Info: REMOVING COM VELOCITY 0.0435975 0.146401 0.255131
TCL: Minimizing for 2000 steps
ETITLE: TS BOND ANGLE DIHED IMPRP ELECT VDW BOUNDARY MISC KINETIC TOTAL TEMP POTENTIAL TOTAL3 TEMPAVG PRESSURE GPRESSURE VOLUME PRESSAVG GPRESSAVG
ENERGY: 0 0.3603 0.1458 0.0001 0.0000 -12961.0551 1503.0207 0.0000 0.0000 0.0000 -11457.5282 0.0000 -11457.5282 -11457.5282 0.0000 10840.1130 -15186.1052 59468.6710 10840.1130 -15186.1052
ENERGY: 400 2.5311 0.5385 0.0005 0.0000 -17676.6252 2680.3785 0.0000 0.0000 0.0000 -14993.1767 0.0000 -14993.1767 -14993.1767 0.0000 15910.1192 16007.3291 59468.6710 15910.1192 16007.3291
ENERGY: 800 1.6791 0.2082 0.0083 0.0000 -18436.1589 2995.1435 0.0000 0.0000 0.0000 -15439.1198 0.0000 -15439.1198 -15439.1198 0.0000 17581.8307 17688.6233 59468.6710 17581.8307 17688.6233
ENERGY: 1200 0.4698 0.2405 0.0045 0.0000 -18914.4007 3213.6111 0.0000 0.0000 0.0000 -15700.0748 0.0000 -15700.0748 -15700.0748 0.0000 18793.6731 18899.8838 59468.6710 18793.6731 18899.8838
ENERGY: 1600 0.1390 0.1088 0.0479 0.0000 -19143.8210 3307.1937 0.0000 0.0000 0.0000 -15836.3316 0.0000 -15836.3316 -15836.3316 0.0000 19341.6888 19445.2851 59468.6710 19341.6888 19445.2851
ENERGY: 2000 0.1950 0.0762 0.0013 0.0000 -19271.6200 3372.4679 0.0000 0.0000 0.0000 -15898.8796 0.0000 -15898.8796 -15898.8796 0.0000 19702.1734 19801.1087 59468.6710 19702.1734 19801.1087
TCL: Exiting due to exit command.
Info: NAMD 3.0.1 for Linux-x86_64-multicore
Info: Please visit http://www.ks.uiuc.edu/Research/namd/
Info: for updates, documentation, and support information.
Info: Please cite Phillips et al., J. Chem. Phys. 153:044130 (2020) doi:10.1063/5.0014475
Info: in all publications reporting results obtained with NAMD.
Info: Based on Charm++/Converse 80000 for multicore-linux-x86_64-gcc
Info: Built Mon Oct 14 11:11:06 CDT 2024 by dhardy on athine.ks.uiuc.edu
Info: 1 NAMD  3.0.1  Linux-x86_64-multicore  16    k063  z5358697
Info: Running on 16 processors, 1 nodes, 1 physical nodes.
Info: CPU topology information available.
Info: Charm++/Converse parallel runtime startup completed at 0.00768256 s
Info: 1043.46 MB of memory in use based on /proc/self/stat
Info: Configuration file is mobley_4465023_equil.namd
Info: Working in the current directory /srv/scratch/z5358697/prod_prep_5/4465023
TCL: Running 25000 steps at 30 kelvin.
TCL: Suspending until startup complete.
Info: SIMULATION PARAMETERS:
Info: TIMESTEP               2
Info: NUMBER OF STEPS        0
Info: STEPS PER CYCLE        10
Info: PERIODIC CELL BASIS 1  39.806 0 0
Info: PERIODIC CELL BASIS 2  0 37.796 0
Info: PERIODIC CELL BASIS 3  0 0 39.527
Info: PERIODIC CELL CENTER   0 0 0
Info: WRAPPING WATERS AROUND PERIODIC BOUNDARIES ON OUTPUT.
Info: WRAPPING ALL CLUSTERS AROUND PERIODIC BOUNDARIES ON OUTPUT.
Info: FIRST LDB TIMESTEP     50
Info: LAST LDB TIMESTEP     -1
Info: HOM BACKGROUND SCALING 1
Info: PME BACKGROUND SCALING 1
Info: MIN ATOMS PER PATCH    40
Info: EMPTY PATCH LOAD       40 ATOMS
Info: INITIAL TEMPERATURE    300
Info: CENTER OF MASS MOVING INITIALLY? NO
Info: DIELECTRIC             1
Info: EXCLUDE                SCALED ONE-FOUR
Info: 1-4 ELECTROSTATICS SCALED BY 0.833333
Info: MODIFIED 1-4 VDW PARAMETERS WILL BE USED
Info: DCD FILENAME           mobley_4465023_equil.dcd
Info: DCD FREQUENCY          5000
Info: DCD FIRST STEP         5000
Info: DCD FILE WILL CONTAIN UNIT CELL DATA
Info: XST FILENAME           mobley_4465023_equil.xst
Info: XST FREQUENCY          5000
Info: NO VELOCITY DCD OUTPUT
Info: NO FORCE DCD OUTPUT
Info: OUTPUT FILENAME        mobley_4465023_equil
Info: BINARY OUTPUT FILES WILL BE USED
Info: RESTART FILENAME       mobley_4465023_equil.restart
Info: RESTART FREQUENCY      5000
Info: BINARY RESTART FILES WILL BE USED
Info: CUTOFF                 9
Info: PAIRLIST DISTANCE      11
Info: PAIRLIST SHRINK RATE   0.01
Info: PAIRLIST GROW RATE     0.01
Info: PAIRLIST TRIGGER       0.3
Info: PAIRLISTS PER CYCLE    2
Info: PAIRLISTS ENABLED
Info: MARGIN                 8
Info: HYDROGEN GROUP CUTOFF  2.5
Info: PATCH DIMENSION        21.5
Info: ENERGY OUTPUT STEPS    5000
Info: ENERGY EVALUATION STEPS    5000
Info: OUTPUT ENERGY PRECISION 4
Info: CROSSTERM ENERGY INCLUDED IN DIHEDRAL
Info: TIMING OUTPUT STEPS    50000
Info: PRESSURE OUTPUT STEPS  5000
Info: LANGEVIN DYNAMICS ACTIVE
Info: LANGEVIN TEMPERATURE   30
Info: LANGEVIN USING BBK INTEGRATOR
Info: LANGEVIN DAMPING COEFFICIENT IS 1 INVERSE PS
Info: LANGEVIN DYNAMICS APPLIED TO HYDROGENS
Info: LANGEVIN PISTON PRESSURE CONTROL ACTIVE
Info:        TARGET PRESSURE IS 1.01325 BAR
Info:     OSCILLATION PERIOD IS 50 FS
Info:             DECAY TIME IS 25 FS
Info:     PISTON TEMPERATURE IS 300 K
Info:       PRESSURE CONTROL IS GROUP-BASED
Info:    INITIAL STRAIN RATE IS 0 0 0
Info:       CELL FLUCTUATION IS ISOTROPIC
Info: PARTICLE MESH EWALD (PME) ACTIVE
Info: PME TOLERANCE               1e-06
Info: PME EWALD COEFFICIENT       0.348832
Info: PME INTERPOLATION ORDER     4
Info: PME GRID DIMENSIONS         40 40 40
Info: PME MAXIMUM GRID SPACING    1
Info: FULL ELECTROSTATIC EVALUATION FREQUENCY      2
Info: USING VERLET I (r-RESPA) MTS SCHEME.
Info: C1 SPLITTING OF LONG RANGE ELECTROSTATICS
Info: PLACING ATOMS IN PATCHES BY HYDROGEN GROUPS
Info: RIGID BONDS TO HYDROGEN : ALL
Info:         ERROR TOLERANCE : 1e-08
Info:          MAX ITERATIONS : 100
Info: RIGID WATER USING SETTLE ALGORITHM
Info: RANDOM NUMBER SEED     1741338309
Info: USE HYDROGEN BONDS?    NO
Info: Using AMBER format force field!
Info: AMBER PARM FILE        mobley_4465023.prmtop
Info: COORDINATE PDB         mobley_4465023.pdb
Info: Exclusions will be read from PARM file!
Info: SCNB (VDW SCALING)     2
Info: USING ARITHMETIC MEAN TO COMBINE L-J SIGMA PARAMETERS
Info: BINARY COORDINATES     mobley_4465023_min.coor
Info: SUMMARY OF PARAMETERS:
Info: 5 BONDS
Info: 3 ANGLES
Info:   3 HARMONIC
Info:   0 COSINE-BASED
Info: 1 DIHEDRAL
Info: 0 IMPROPER
Info: 0 CROSSTERM
Info: 0 VDW
Info: 15 VDW_PAIRS
Info: 0 NBTHOLE_PAIRS
Info: STRUCTURE SUMMARY:
Info: 4188 ATOMS
Info: 4187 BONDS
Info: 6 ANGLES
Info: 4 DIHEDRALS
Info: 0 IMPROPERS
Info: 0 CROSSTERMS
Info: 4197 EXCLUSIONS
Info: 4184 RIGID BONDS
Info: 8380 DEGREES OF FREEDOM
Info: 1398 HYDROGEN GROUPS
Info: 3 ATOMS IN LARGEST HYDROGEN GROUP
Info: 1398 MIGRATION GROUPS
Info: 3 ATOMS IN LARGEST MIGRATION GROUP
Info: TOTAL MASS = 25211.2 amu
Info: TOTAL CHARGE = -1.49012e-08 e
Info: MASS DENSITY = 0.703988 g/cm^3
Info: ATOM DENSITY = 0.0704236 atoms/A^3
Info: ADDED 0 IMPLICIT EXCLUSIONS
Info: NONBONDED TABLE R-SQUARED SPACING: 0.0625
Info: NONBONDED TABLE SIZE: 705 POINTS
Info: REMOVING COM VELOCITY 0.105304 -0.00192757 0.171144
TCL: Running for 25000 steps
ETITLE: TS BOND ANGLE DIHED IMPRP ELECT VDW BOUNDARY MISC KINETIC TOTAL TEMP POTENTIAL TOTAL3 TEMPAVG PRESSURE GPRESSURE VOLUME PRESSAVG GPRESSAVG
ENERGY: 0 0.1950 0.0762 0.0013 0.0000 -19271.6200 3372.4679 0.0000 0.0000 2500.6046 -13398.2750 300.3249 -15898.8796 -13397.7678 300.3249 303.8345 344.0933 59468.6710 303.8345 344.0933
ENERGY: 5000 0.0974 0.1428 0.1425 0.0000 -20184.3865 3544.6952 0.0000 0.0000 260.9484 -16378.3602 31.3401 -16639.3085 -16377.7023 48.0028 130.5491 193.4073 41114.0853 6.2881 6.2461
ENERGY: 10000 0.1958 0.2791 0.1490 0.0000 -20232.0090 3551.1412 0.0000 0.0000 252.4951 -16427.7488 30.3249 -16680.2440 -16427.0307 30.1620 58.7616 122.1210 41109.0637 8.0195 8.2146
ENERGY: 15000 0.1027 0.3098 0.0424 0.0000 -20265.3092 3563.9074 0.0000 0.0000 248.3984 -16452.5485 29.8329 -16700.9469 -16452.0971 30.1685 96.5461 158.8003 40955.4644 2.3498 2.4241
ENERGY: 20000 0.2246 0.1884 0.0087 0.0000 -20210.5450 3510.2139 0.0000 0.0000 261.0840 -16438.8254 31.3564 -16699.9094 -16438.2634 29.9299 -209.3248 -150.5977 41050.1403 0.6028 0.6134
ENERGY: 25000 0.0563 0.1275 0.0543 0.0000 -20225.3611 3521.0230 0.0000 0.0000 247.0869 -16457.0131 29.6754 -16704.1000 -16456.5239 30.3051 -192.9809 -122.0394 41105.7807 9.5668 9.3746
TCL: Running 25000 steps at 60 kelvin.
TCL: Setting parameter langevinTemp to 60
TCL: Running for 25000 steps
ETITLE: TS BOND ANGLE DIHED IMPRP ELECT VDW BOUNDARY MISC KINETIC TOTAL TEMP POTENTIAL TOTAL3 TEMPAVG PRESSURE GPRESSURE VOLUME PRESSAVG GPRESSAVG
ENERGY: 25000 0.0563 0.1275 0.0543 0.0000 -20225.3611 3521.0230 0.0000 0.0000 246.9654 -16457.1346 29.6608 -16704.1000 -16456.5033 29.6608 -188.0722 -122.0782 41105.7807 -188.0722 -122.0782
ENERGY: 30000 0.1307 0.5112 0.1345 0.0000 -19848.8874 3397.4026 0.0000 0.0000 501.3194 -15949.3890 60.2089 -16450.7084 -15947.8238 57.5126 -283.4716 -221.8062 41454.8431 3.4231 3.2532
ENERGY: 35000 0.5825 0.2932 0.6711 0.0000 -20123.7298 3600.4970 0.0000 0.0000 497.7346 -16023.9514 59.7784 -16521.6860 -16023.2573 60.7147 781.8106 863.3132 40936.1282 7.0385 6.8517
ENERGY: 40000 0.2122 0.1561 0.0114 0.0000 -19986.0686 3462.5118 0.0000 0.0000 498.1230 -16025.0542 59.8250 -16523.1771 -16023.9132 59.9866 -43.7602 32.7425 41191.7252 2.6923 3.0017
ENERGY: 45000 0.3696 0.2528 0.1401 0.0000 -19985.3115 3397.4204 0.0000 0.0000 496.7701 -16090.3584 59.6625 -16587.1285 -16089.0700 60.1055 -484.3991 -450.1400 41245.0175 2.3745 2.5047
ENERGY: 50000 0.3129 0.1374 0.0506 0.0000 -20137.1087 3541.4138 0.0000 0.0000 514.9915 -16080.2026 61.8510 -16595.1940 -16079.1785 59.9945 352.9879 422.9233 41000.8989 8.1039 7.9202
TCL: Running 25000 steps at 90 kelvin.
TCL: Setting parameter langevinTemp to 90
TCL: Running for 25000 steps
ETITLE: TS BOND ANGLE DIHED IMPRP ELECT VDW BOUNDARY MISC KINETIC TOTAL TEMP POTENTIAL TOTAL3 TEMPAVG PRESSURE GPRESSURE VOLUME PRESSAVG GPRESSAVG
ENERGY: 50000 0.3129 0.1374 0.0506 0.0000 -20137.1087 3541.4138 0.0000 0.0000 514.7310 -16080.4630 61.8197 -16595.1940 -16079.2724 61.8197 373.5985 422.4997 41000.8989 373.5985 422.4997
ENERGY: 55000 0.1743 0.1409 0.1629 0.0000 -19741.8063 3416.8926 0.0000 0.0000 725.0511 -15599.3845 87.0793 -16324.4356 -15598.8509 86.9103 236.2844 293.5890 41338.2462 5.7442 5.7515
ENERGY: 60000 0.2927 0.1103 0.2219 0.0000 -19693.9165 3358.8471 0.0000 0.0000 733.7576 -15600.6870 88.1250 -16334.4446 -15598.9304 89.9623 -137.0346 -96.6872 41429.9660 0.8600 0.9487
ENERGY: 65000 0.1287 0.1025 0.0125 0.0000 -19765.0728 3387.5832 0.0000 0.0000 753.8495 -15623.3964 90.5380 -16377.2459 -15621.0661 90.8035 -136.5263 -60.9257 41418.1621 2.8814 2.8136
ENERGY: 70000 0.0522 0.3410 0.6872 0.0000 -19645.6556 3238.7862 0.0000 0.0000 745.0546 -15660.7345 89.4817 -16405.7890 -15658.9462 90.2248 -1103.8478 -1058.9837 41560.9703 0.1853 0.7037
ENERGY: 75000 0.3488 0.2917 0.4958 0.0000 -19767.4572 3366.5701 0.0000 0.0000 759.4011 -15640.3498 91.2048 -16399.7509 -15638.6745 89.9665 -301.0880 -244.5696 41327.2989 2.1310 1.9745
TCL: Running 25000 steps at 120 kelvin.
TCL: Setting parameter langevinTemp to 120
TCL: Running for 25000 steps
ETITLE: TS BOND ANGLE DIHED IMPRP ELECT VDW BOUNDARY MISC KINETIC TOTAL TEMP POTENTIAL TOTAL3 TEMPAVG PRESSURE GPRESSURE VOLUME PRESSAVG GPRESSAVG
ENERGY: 75000 0.3488 0.2917 0.4958 0.0000 -19767.4572 3366.5701 0.0000 0.0000 759.0340 -15640.7170 91.1607 -16399.7509 -15639.1299 91.1607 -294.5243 -244.7303 41327.2989 -294.5243 -244.7303
ENERGY: 80000 0.2074 0.8145 0.3982 0.0000 -19426.6267 3295.9900 0.0000 0.0000 994.9636 -15134.2530 119.4961 -16129.2166 -15132.0031 116.6941 -53.6930 6.8810 41730.3766 4.0990 4.1809
ENERGY: 85000 0.8927 0.6657 0.2772 0.0000 -19323.8095 3165.5530 0.0000 0.0000 974.6957 -15181.7252 117.0619 -16156.4209 -15179.5626 119.7353 -816.5975 -741.4734 41641.0706 6.0981 5.7060
ENERGY: 90000 0.9454 0.3472 0.3099 0.0000 -19344.3710 3198.6149 0.0000 0.0000 1009.4977 -15134.6559 121.2416 -16144.1535 -15132.4259 120.9405 -524.7469 -498.2221 41491.1655 7.7516 7.4982
ENERGY: 95000 0.0981 0.5092 0.1942 0.0000 -19429.8654 3232.4457 0.0000 0.0000 996.7343 -15199.8840 119.7087 -16196.6183 -15197.8259 120.0087 -456.1064 -405.9534 41304.3939 10.2342 10.2373
ENERGY: 100000 0.2568 0.0851 0.0905 0.0000 -19276.6704 3110.1384 0.0000 0.0000 989.5747 -15176.5250 118.8488 -16166.0997 -15174.2948 120.1220 -1040.6377 -969.1914 41390.1216 4.8762 4.7666
TCL: Running 25000 steps at 150 kelvin.
TCL: Setting parameter langevinTemp to 150
TCL: Running for 25000 steps
ETITLE: TS BOND ANGLE DIHED IMPRP ELECT VDW BOUNDARY MISC KINETIC TOTAL TEMP POTENTIAL TOTAL3 TEMPAVG PRESSURE GPRESSURE VOLUME PRESSAVG GPRESSAVG
ENERGY: 100000 0.2568 0.0851 0.0905 0.0000 -19276.6704 3110.1384 0.0000 0.0000 989.0857 -15177.0140 118.7901 -16166.0997 -15175.0492 118.7901 -1025.5494 -969.1461 41390.1216 -1025.5494 -969.1461
ENERGY: 105000 0.6339 0.1345 0.7227 0.0000 -19023.8610 3135.5307 0.0000 0.0000 1259.5772 -14627.2620 151.2764 -15886.8392 -14623.7754 147.1749 -308.1827 -216.4227 41594.0866 -0.5173 -1.0330
ENERGY: 110000 0.2739 0.4176 0.5430 0.0000 -19042.4120 3131.2958 0.0000 0.0000 1222.9029 -14686.9788 146.8718 -15909.8817 -14684.0268 150.0674 -325.2432 -235.5851 41386.3552 -0.6422 -0.0345
ENERGY: 115000 0.3824 1.0358 0.5256 0.0000 -19167.4787 3272.5100 0.0000 0.0000 1271.9134 -14621.1116 152.7580 -15893.0250 -14619.5813 148.9466 601.8908 648.0053 41190.2207 -0.8738 -1.0425
ENERGY: 120000 0.2289 0.1552 0.3384 0.0000 -19110.1615 3177.4081 0.0000 0.0000 1305.4444 -14626.5865 156.7851 -15932.0309 -14621.9010 150.6462 59.8623 85.8175 41028.0813 8.4738 8.6370
ENERGY: 125000 0.1600 0.1639 0.7143 0.0000 -19181.1237 3260.4669 0.0000 0.0000 1238.4430 -14681.1756 148.7382 -15919.6186 -14679.0207 151.0230 555.4287 583.0225 41049.8441 7.6368 7.5859
TCL: Running 50000 steps at 180 kelvin.
TCL: Setting parameter langevinTemp to 180
TCL: Running for 50000 steps
ETITLE: TS BOND ANGLE DIHED IMPRP ELECT VDW BOUNDARY MISC KINETIC TOTAL TEMP POTENTIAL TOTAL3 TEMPAVG PRESSURE GPRESSURE VOLUME PRESSAVG GPRESSAVG
ENERGY: 125000 0.1600 0.1639 0.7143 0.0000 -19181.1237 3260.4669 0.0000 0.0000 1237.8134 -14681.8052 148.6625 -15919.6186 -14679.7940 148.6625 529.8076 582.5556 41049.8441 529.8076 582.5556
ENERGY: 135000 0.1641 0.8052 1.1406 0.0000 -18620.5577 3115.6474 0.0000 0.0000 1476.0648 -14026.7356 177.2768 -15502.8004 -14023.4519 178.8091 750.5524 820.6330 41190.7879 2.0480 1.8544
ENERGY: 145000 0.6222 0.2114 0.5130 0.0000 -18321.3660 2803.8570 0.0000 0.0000 1499.4907 -14016.6718 180.0902 -15516.1625 -14010.7064 181.6995 -1092.1617 -1021.5082 41299.7838 5.2650 4.7938
ENERGY: 155000 0.6660 1.3619 0.6755 0.0000 -18762.5904 3176.7944 0.0000 0.0000 1523.8355 -14059.2571 183.0141 -15583.0926 -14057.7717 179.2410 1195.0579 1306.8868 40396.7627 -0.7440 -0.7312
ENERGY: 165000 0.5342 0.2627 0.6283 0.0000 -18696.7275 3111.3957 0.0000 0.0000 1507.6216 -14076.2849 181.0668 -15583.9065 -14073.5689 180.5524 776.9444 833.6747 40682.1986 0.5894 -0.2349
ENERGY: 175000 1.1677 0.5530 0.1738 0.0000 -18474.0410 2854.6569 0.0000 0.0000 1491.5106 -14125.9790 179.1318 -15617.4896 -14121.0103 180.7952 -972.4867 -870.8759 41174.1450 2.4732 2.3918
TCL: Running 50000 steps at 210 kelvin.
TCL: Setting parameter langevinTemp to 210
TCL: Running for 50000 steps
ETITLE: TS BOND ANGLE DIHED IMPRP ELECT VDW BOUNDARY MISC KINETIC TOTAL TEMP POTENTIAL TOTAL3 TEMPAVG PRESSURE GPRESSURE VOLUME PRESSAVG GPRESSAVG
ENERGY: 175000 1.1677 0.5530 0.1738 0.0000 -18474.0410 2854.6569 0.0000 0.0000 1490.7581 -14126.7315 179.0414 -15617.4896 -14123.6020 179.0414 -942.3233 -869.8754 41174.1450 -942.3233 -869.8754
ENERGY: 185000 0.0440 1.0398 1.5545 0.0000 -17699.7355 2709.3342 0.0000 0.0000 1745.6050 -13242.1579 209.6488 -14987.7629 -13237.7544 208.8327 -9.9603 56.1791 40913.9914 -0.5092 -0.8564
ENERGY: 195000 1.1163 0.9229 1.2898 0.0000 -17674.4578 2667.6632 0.0000 0.0000 1735.7542 -13267.7114 208.4657 -15003.4655 -13264.1599 210.3282 -238.9541 -199.7433 40578.2239 2.5730 3.3994
ENERGY: 205000 0.6441 0.7509 0.3026 0.0000 -17646.2178 2662.9267 0.0000 0.0000 1728.5020 -13253.0915 207.5947 -14981.5935 -13247.9778 211.5403 -221.1009 -165.2514 40835.4958 5.7244 5.7696
ENERGY: 215000 0.2679 0.7120 0.2629 0.0000 -17664.4998 2709.0859 0.0000 0.0000 1736.8182 -13217.3529 208.5935 -14954.1711 -13211.4332 209.3550 196.1510 278.0129 40461.1047 -4.2961 -3.8565
ENERGY: 225000 1.4271 1.6210 1.4370 0.0000 -17658.9293 2714.1300 0.0000 0.0000 1690.2901 -13250.0242 203.0054 -14940.3143 -13246.9639 210.3525 487.7305 507.9123 40108.7711 1.1438 1.2412
TCL: Running 50000 steps at 240 kelvin.
TCL: Setting parameter langevinTemp to 240
TCL: Running for 50000 steps
ETITLE: TS BOND ANGLE DIHED IMPRP ELECT VDW BOUNDARY MISC KINETIC TOTAL TEMP POTENTIAL TOTAL3 TEMPAVG PRESSURE GPRESSURE VOLUME PRESSAVG GPRESSAVG
ENERGY: 225000 1.4271 1.6210 1.4370 0.0000 -17658.9293 2714.1300 0.0000 0.0000 1689.4163 -13250.8980 202.9005 -14940.3143 -13248.1562 202.9005 426.4114 508.7257 40108.7711 426.4114 508.7257
ENERGY: 235000 0.6733 0.2426 0.1259 0.0000 -16664.6737 2430.2815 0.0000 0.0000 2006.7271 -12226.6232 241.0098 -14233.3503 -12221.7531 240.7380 -174.7531 -40.5108 41542.0775 5.3826 5.4510
ENERGY: 245000 0.8665 1.3280 0.1404 0.0000 -16787.8199 2455.5143 0.0000 0.0000 1992.1973 -12337.7733 239.2647 -14329.9706 -12331.2888 239.6861 -103.1837 8.9619 41438.5996 1.9179 2.0759
ENERGY: 255000 0.7593 0.8547 1.9614 0.0000 -16663.2825 2368.0099 0.0000 0.0000 1969.0048 -12322.6925 236.4793 -14291.6973 -12320.0893 242.6478 -587.6816 -415.6061 41592.6303 7.5119 7.3419
ENERGY: 265000 0.8359 0.5518 0.8472 0.0000 -16790.6430 2480.9197 0.0000 0.0000 2041.6876 -12265.8007 245.2086 -14307.4883 -12263.2504 240.1415 157.9562 252.6699 41532.0535 0.6792 1.2756
ENERGY: 275000 0.0645 0.9229 0.1514 0.0000 -16827.6577 2446.7666 0.0000 0.0000 2070.8685 -12308.8838 248.7132 -14379.7523 -12305.9349 240.4801 124.0225 185.8938 40841.9808 -1.6110 -1.6908
TCL: Running 50000 steps at 270 kelvin.
TCL: Setting parameter langevinTemp to 270
TCL: Running for 50000 steps
ETITLE: TS BOND ANGLE DIHED IMPRP ELECT VDW BOUNDARY MISC KINETIC TOTAL TEMP POTENTIAL TOTAL3 TEMPAVG PRESSURE GPRESSURE VOLUME PRESSAVG GPRESSAVG
ENERGY: 275000 0.0645 0.9229 0.1514 0.0000 -16827.6577 2446.7666 0.0000 0.0000 2069.8688 -12309.8835 248.5932 -14379.7523 -12306.4529 248.5932 89.6709 184.0656 40841.9808 89.6709 184.0656
ENERGY: 285000 1.2896 2.5820 3.2302 0.0000 -15940.8537 2200.0701 0.0000 0.0000 2222.3752 -11511.3067 266.9093 -13733.6819 -11507.1110 268.8653 -123.5740 -18.6301 42038.2971 4.5383 4.8976
ENERGY: 295000 0.3317 0.7508 0.0728 0.0000 -15949.0021 2147.8204 0.0000 0.0000 2188.1675 -11611.8590 262.8009 -13800.0264 -11608.9641 269.7479 -666.0557 -630.0376 42084.0495 1.8481 1.7903
ENERGY: 305000 0.6627 0.1684 0.3525 0.0000 -16037.8466 2303.8968 0.0000 0.0000 2216.3996 -11516.3665 266.1917 -13732.7662 -11511.9297 271.4983 369.7958 498.7208 41948.1905 6.0536 5.6136
ENERGY: 315000 0.7250 0.2919 0.5815 0.0000 -15962.2251 2242.3381 0.0000 0.0000 2260.4366 -11457.8521 271.4805 -13718.2887 -11453.9459 270.1341 31.6334 133.2944 42094.5546 3.2516 3.4870
ENERGY: 325000 0.5239 0.8552 0.1370 0.0000 -15945.7740 2236.8712 0.0000 0.0000 2276.8575 -11430.5292 273.4527 -13707.3867 -11427.1108 268.9684 120.0948 254.6558 42010.3548 7.9083 7.7787
TCL: Running 1000000 steps at 300 kelvin.
TCL: Setting parameter langevinTemp to 300
TCL: Running for 1000000 steps
ETITLE: TS BOND ANGLE DIHED IMPRP ELECT VDW BOUNDARY MISC KINETIC TOTAL TEMP POTENTIAL TOTAL3 TEMPAVG PRESSURE GPRESSURE VOLUME PRESSAVG GPRESSAVG
ENERGY: 325000 0.5239 0.8552 0.1370 0.0000 -15945.7740 2236.8712 0.0000 0.0000 2275.7471 -11431.6397 273.3193 -13707.3867 -11428.2202 273.3193 176.1466 253.6819 42010.3548 176.1466 253.6819
ENERGY: 525000 0.5071 0.4809 2.4008 0.0000 -15097.6570 1947.6011 0.0000 0.0000 2532.5603 -10614.1068 304.1628 -13146.6672 -10607.5332 299.8437 -680.8455 -601.8571 43441.7853 2.8168 3.5387
ENERGY: 725000 0.7906 0.2799 0.6424 0.0000 -15094.5216 2034.0192 0.0000 0.0000 2481.2340 -10577.5555 297.9985 -13058.7896 -10576.2566 298.6411 221.5224 271.9032 42985.5359 4.2622 3.9215
ENERGY: 925000 0.8068 1.5220 0.6970 0.0000 -15293.2012 2070.3240 0.0000 0.0000 2464.5971 -10755.2544 296.0004 -13219.8515 -10752.2167 300.0786 172.2294 260.4275 42760.4504 0.4854 0.3252
ENERGY: 1125000 1.3577 1.2432 1.1425 0.0000 -15323.0986 2116.7490 0.0000 0.0000 2446.3836 -10756.2225 293.8129 -13202.6061 -10752.1349 300.4461 199.3427 317.7868 43124.1464 1.3976 1.4823
ENERGY: 1325000 1.0729 1.3993 1.1318 0.0000 -15381.6902 2139.5634 0.0000 0.0000 2468.5048 -10770.0180 296.4697 -13238.5228 -10761.5194 298.4850 371.9568 470.9623 42756.9009 4.5942 4.6755
TCL: Exiting due to exit command.
