Info: SIMULATION PARAMETERS:
Info: TIMESTEP               2
Info: NUMBER OF STEPS        0
Info: STEPS PER CYCLE        10
Info: PERIODIC CELL BASIS 1  36.005 0 0
Info: PERIODIC CELL BASIS 2  0 34.1 0
Info: PERIODIC CELL BASIS 3  0 0 36.199
Info: PERIODIC CELL CENTER   0 0 0
Info: WRAPPING WATERS AROUND PERIODIC BOUNDARIES ON OUTPUT.
Info: WRAPPING ALL CLUSTERS AROUND PERIODIC BOUNDARIES ON OUTPUT.
Info: FIRST LDB TIMESTEP     50
Info: LAST LDB TIMESTEP     -1
Info: HOM BACKGROUND SCALING 1
Info: PME BACKGROUND SCALING 1
Info: MIN ATOMS PER PATCH    40
Info: EMPTY PATCH LOAD       40 ATOMS
Info: INITIAL TEMPERATURE    300
Info: CENTER OF MASS MOVING INITIALLY? NO
Info: DIELECTRIC             1
Info: EXCLUDE                SCALED ONE-FOUR
Info: 1-4 ELECTROSTATICS SCALED BY 0.833333
Info: MODIFIED 1-4 VDW PARAMETERS WILL BE USED
Info: DCD FILENAME           mobley_852937_equil.dcd
Info: DCD FREQUENCY          100000
Info: DCD FIRST STEP         100000
Info: DCD FILE WILL CONTAIN UNIT CELL DATA
Info: XST FILENAME           mobley_852937_equil.xst
Info: XST FREQUENCY          100000
Info: NO VELOCITY DCD OUTPUT
Info: NO FORCE DCD OUTPUT
Info: OUTPUT FILENAME        mobley_852937_equil
Info: BINARY OUTPUT FILES WILL BE USED
Info: RESTART FILENAME       mobley_852937_equil.restart
Info: RESTART FREQUENCY      100000
Info: BINARY RESTART FILES WILL BE USED
Info: CUTOFF                 9
Info: PAIRLIST DISTANCE      11
Info: PAIRLIST SHRINK RATE   0.01
Info: PAIRLIST GROW RATE     0.01
Info: PAIRLIST TRIGGER       0.3
Info: PAIRLISTS PER CYCLE    2
Info: PAIRLISTS ENABLED
Info: MARGIN                 8
Info: HYDROGEN GROUP CUTOFF  2.5
Info: PATCH DIMENSION        21.5
Info: ENERGY OUTPUT STEPS    100000
Info: ENERGY EVALUATION STEPS    100000
Info: OUTPUT ENERGY PRECISION 4
Info: CROSSTERM ENERGY INCLUDED IN DIHEDRAL
Info: TIMING OUTPUT STEPS    1000000
Info: PRESSURE OUTPUT STEPS  100000
Info: LANGEVIN DYNAMICS ACTIVE
Info: LANGEVIN TEMPERATURE   30
Info: LANGEVIN USING BBK INTEGRATOR
Info: LANGEVIN DAMPING COEFFICIENT IS 1 INVERSE PS
Info: LANGEVIN DYNAMICS APPLIED TO HYDROGENS
Info: LANGEVIN PISTON PRESSURE CONTROL ACTIVE
Info:        TARGET PRESSURE IS 1.01325 BAR
Info:     OSCILLATION PERIOD IS 50 FS
Info:             DECAY TIME IS 25 FS
Info:     PISTON TEMPERATURE IS 300 K
Info:       PRESSURE CONTROL IS GROUP-BASED
Info:    INITIAL STRAIN RATE IS 0 0 0
Info:       CELL FLUCTUATION IS ISOTROPIC
Info: PARTICLE MESH EWALD (PME) ACTIVE
Info: PME TOLERANCE               1e-06
Info: PME EWALD COEFFICIENT       0.348832
Info: PME INTERPOLATION ORDER     4
Info: PME GRID DIMENSIONS         40 36 40
Info: PME MAXIMUM GRID SPACING    1
Info: FULL ELECTROSTATIC EVALUATION FREQUENCY      2
Info: USING VERLET I (r-RESPA) MTS SCHEME.
Info: C1 SPLITTING OF LONG RANGE ELECTROSTATICS
Info: PLACING ATOMS IN PATCHES BY HYDROGEN GROUPS
Info: RIGID BONDS TO HYDROGEN : ALL
Info:         ERROR TOLERANCE : 1e-08
Info:          MAX ITERATIONS : 100
Info: RIGID WATER USING SETTLE ALGORITHM
Info: RANDOM NUMBER SEED     1742527626
Info: USE HYDROGEN BONDS?    NO
Info: Using AMBER format force field!
Info: AMBER PARM FILE        mobley_852937.prmtop
Info: COORDINATE PDB         mobley_852937.pdb
Info: Exclusions will be read from PARM file!
Info: SCNB (VDW SCALING)     2
Info: USING ARITHMETIC MEAN TO COMBINE L-J SIGMA PARAMETERS
Info: BINARY COORDINATES     mobley_852937_min.coor
Info: SUMMARY OF PARAMETERS:
Info: 7 BONDS
Info: 5 ANGLES
Info:   5 HARMONIC
Info:   0 COSINE-BASED
Info: 3 DIHEDRAL
Info: 0 IMPROPER
Info: 0 CROSSTERM
Info: 0 VDW
Info: 28 VDW_PAIRS
Info: 0 NBTHOLE_PAIRS
Info: STRUCTURE SUMMARY:
Info: 2935 ATOMS
Info: 2935 BONDS
Info: 19 ANGLES
Info: 31 DIHEDRALS
Info: 0 IMPROPERS
Info: 0 CROSSTERMS
Info: 2977 EXCLUSIONS
Info: 2927 RIGID BONDS
Info: 5878 DEGREES OF FREEDOM
Info: 982 HYDROGEN GROUPS
Info: 3 ATOMS IN LARGEST HYDROGEN GROUP
Info: 982 MIGRATION GROUPS
Info: 3 ATOMS IN LARGEST MIGRATION GROUP
Info: TOTAL MASS = 17659.7 amu
Info: TOTAL CHARGE = 0.000199996 e
Info: MASS DENSITY = 0.659824 g/cm^3
Info: ATOM DENSITY = 0.0660381 atoms/A^3
Info: ADDED 0 IMPLICIT EXCLUSIONS
Info: NONBONDED TABLE R-SQUARED SPACING: 0.0625
Info: NONBONDED TABLE SIZE: 705 POINTS
Info: REMOVING COM VELOCITY 0.235662 -0.219999 -0.0595872
TCL: Running for 100000 steps
ETITLE: TS BOND ANGLE DIHED IMPRP ELECT VDW BOUNDARY MISC KINETIC TOTAL TEMP POTENTIAL TOTAL3 TEMPAVG PRESSURE GPRESSURE VOLUME PRESSAVG GPRESSAVG
ENERGY: 0 0.1047 0.0530 0.1786 0.0000 -13574.0070 2413.2616 0.0000 0.0000 1727.5241 -9432.8850 295.7910 -11160.4091 -9432.5371 295.7910 601.2452 635.5230 44444.0643 601.2452 635.5230
ENERGY: 100000 0.3145 0.3367 0.5501 0.0000 -14084.9181 2415.2509 0.0000 0.0000 177.5914 -11490.8746 30.4076 -11668.4659 -11490.5847 30.9396 -388.8942 -351.4601 29288.7814 4.1306 4.1406
TCL: Running 100000 steps at 60 kelvin.
TCL: Setting parameter langevinTemp to 60
TCL: Running for 100000 steps
ETITLE: TS BOND ANGLE DIHED IMPRP ELECT VDW BOUNDARY MISC KINETIC TOTAL TEMP POTENTIAL TOTAL3 TEMPAVG PRESSURE GPRESSURE VOLUME PRESSAVG GPRESSAVG
ENERGY: 100000 0.3145 0.3367 0.5501 0.0000 -14084.9181 2415.2509 0.0000 0.0000 177.5063 -11490.9596 30.3931 -11668.4659 -11490.4774 30.3931 -408.0982 -351.7304 29288.7814 -408.0982 -351.7304
ENERGY: 200000 0.6970 0.7255 0.7909 0.0000 -14216.6016 2591.7155 0.0000 0.0000 365.7996 -11256.8731 62.6331 -11622.6727 -11255.7631 59.9774 1576.6755 1652.7603 28339.1612 4.7672 4.7276
TCL: Running 100000 steps at 90 kelvin.
TCL: Setting parameter langevinTemp to 90
TCL: Running for 100000 steps
ETITLE: TS BOND ANGLE DIHED IMPRP ELECT VDW BOUNDARY MISC KINETIC TOTAL TEMP POTENTIAL TOTAL3 TEMPAVG PRESSURE GPRESSURE VOLUME PRESSAVG GPRESSAVG
ENERGY: 200000 0.6970 0.7255 0.7909 0.0000 -14216.6016 2591.7155 0.0000 0.0000 365.6245 -11257.0483 62.6031 -11622.6727 -11256.3038 62.6031 1598.4486 1652.9143 28339.1612 1598.4486 1652.9143
ENERGY: 300000 0.8401 1.4575 0.6429 0.0000 -14048.7756 2511.3915 0.0000 0.0000 538.0269 -10996.4166 92.1223 -11534.4435 -10995.0844 89.7611 1238.7551 1278.4684 28491.9252 4.6872 4.6785
TCL: Running 100000 steps at 120 kelvin.
TCL: Setting parameter langevinTemp to 120
TCL: Running for 100000 steps
ETITLE: TS BOND ANGLE DIHED IMPRP ELECT VDW BOUNDARY MISC KINETIC TOTAL TEMP POTENTIAL TOTAL3 TEMPAVG PRESSURE GPRESSURE VOLUME PRESSAVG GPRESSAVG
ENERGY: 300000 0.8401 1.4575 0.6429 0.0000 -14048.7756 2511.3915 0.0000 0.0000 537.7663 -10996.6772 92.0777 -11534.4435 -10995.5954 92.0777 1225.8145 1278.8018 28491.9252 1225.8145 1278.8018
ENERGY: 400000 0.4853 0.9341 1.1757 0.0000 -13596.0492 2257.1311 0.0000 0.0000 674.8993 -10661.4236 115.5579 -11336.3229 -10659.5879 119.9160 -422.1066 -298.7836 28895.3033 4.5963 4.5166
TCL: Running 100000 steps at 150 kelvin.
TCL: Setting parameter langevinTemp to 150
TCL: Running for 100000 steps
ETITLE: TS BOND ANGLE DIHED IMPRP ELECT VDW BOUNDARY MISC KINETIC TOTAL TEMP POTENTIAL TOTAL3 TEMPAVG PRESSURE GPRESSURE VOLUME PRESSAVG GPRESSAVG
ENERGY: 400000 0.4853 0.9341 1.1757 0.0000 -13596.0492 2257.1311 0.0000 0.0000 674.5386 -10661.7843 115.4962 -11336.3229 -10660.3660 115.4962 -359.2467 -298.4501 28895.3033 -359.2467 -298.4501
ENERGY: 500000 2.1908 0.9407 0.8646 0.0000 -13440.6828 2209.6507 0.0000 0.0000 857.6048 -10369.4311 146.8412 -11227.0359 -10367.2020 150.0050 -238.9814 -193.6072 28833.9455 3.3752 3.2932
TCL: Running 100000 steps at 180 kelvin.
TCL: Setting parameter langevinTemp to 180
TCL: Running for 100000 steps
ETITLE: TS BOND ANGLE DIHED IMPRP ELECT VDW BOUNDARY MISC KINETIC TOTAL TEMP POTENTIAL TOTAL3 TEMPAVG PRESSURE GPRESSURE VOLUME PRESSAVG GPRESSAVG
ENERGY: 500000 2.1908 0.9407 0.8646 0.0000 -13440.6828 2209.6507 0.0000 0.0000 857.1653 -10369.8706 146.7660 -11227.0359 -10368.3898 146.7660 -245.5700 -193.2043 28833.9455 -245.5700 -193.2043
ENERGY: 600000 1.4829 1.4957 0.9050 0.0000 -13044.9726 2093.2728 0.0000 0.0000 1033.9966 -9913.8196 177.0435 -10947.8162 -9911.9916 180.1630 -347.1551 -335.1819 29033.7974 3.5096 3.2979
TCL: Running 100000 steps at 210 kelvin.
TCL: Setting parameter langevinTemp to 210
TCL: Running for 100000 steps
ETITLE: TS BOND ANGLE DIHED IMPRP ELECT VDW BOUNDARY MISC KINETIC TOTAL TEMP POTENTIAL TOTAL3 TEMPAVG PRESSURE GPRESSURE VOLUME PRESSAVG GPRESSAVG
ENERGY: 600000 1.4829 1.4957 0.9050 0.0000 -13044.9726 2093.2728 0.0000 0.0000 1033.4629 -9914.3533 176.9521 -10947.8162 -9912.3318 176.9521 -390.2003 -335.5224 29033.7974 -390.2003 -335.5224
ENERGY: 700000 0.5232 1.1279 0.6254 0.0000 -12321.5690 1860.0455 0.0000 0.0000 1240.0437 -9219.2034 212.3234 -10459.2470 -9216.0958 209.7402 -230.1542 -130.2121 28571.4117 5.8333 5.8431
TCL: Running 100000 steps at 240 kelvin.
TCL: Setting parameter langevinTemp to 240
TCL: Running for 100000 steps
ETITLE: TS BOND ANGLE DIHED IMPRP ELECT VDW BOUNDARY MISC KINETIC TOTAL TEMP POTENTIAL TOTAL3 TEMPAVG PRESSURE GPRESSURE VOLUME PRESSAVG GPRESSAVG
ENERGY: 700000 0.5232 1.1279 0.6254 0.0000 -12321.5690 1860.0455 0.0000 0.0000 1239.4178 -9219.8292 212.2162 -10459.2471 -9217.9815 212.2162 -211.8762 -130.5084 28571.4117 -211.8762 -130.5084
ENERGY: 800000 2.1983 4.6776 1.1582 0.0000 -11793.3355 1726.5730 0.0000 0.0000 1420.1540 -8638.5743 243.1623 -10058.7284 -8634.3599 239.9015 -82.7414 -22.0146 29184.3121 3.6259 3.7698
TCL: Running 100000 steps at 270 kelvin.
TCL: Setting parameter langevinTemp to 270
TCL: Running for 100000 steps
ETITLE: TS BOND ANGLE DIHED IMPRP ELECT VDW BOUNDARY MISC KINETIC TOTAL TEMP POTENTIAL TOTAL3 TEMPAVG PRESSURE GPRESSURE VOLUME PRESSAVG GPRESSAVG
ENERGY: 800000 2.1983 4.6776 1.1582 0.0000 -11793.3355 1726.5730 0.0000 0.0000 1419.4319 -8639.2965 243.0387 -10058.7284 -8637.1100 243.0387 -101.8565 -21.8253 29184.3121 -101.8565 -21.8253
ENERGY: 900000 3.1170 2.9730 3.5121 0.0000 -11142.0985 1526.2301 0.0000 0.0000 1510.7414 -8095.5249 258.6729 -9606.2662 -8092.3667 269.8235 -392.9402 -289.6181 29551.3483 2.4075 2.6491
TCL: Running 1000000 steps at 300 kelvin.
TCL: Setting parameter langevinTemp to 300
TCL: Running for 1000000 steps
ETITLE: TS BOND ANGLE DIHED IMPRP ELECT VDW BOUNDARY MISC KINETIC TOTAL TEMP POTENTIAL TOTAL3 TEMPAVG PRESSURE GPRESSURE VOLUME PRESSAVG GPRESSAVG
ENERGY: 900000 3.1170 2.9730 3.5121 0.0000 -11142.0985 1526.2301 0.0000 0.0000 1509.9813 -8096.2850 258.5428 -9606.2662 -8093.2744 258.5428 -382.1664 -289.4098 29551.3483 -382.1664 -289.4098
ENERGY: 1100000 1.8240 1.8175 4.1336 0.0000 -10594.5245 1402.6177 0.0000 0.0000 1749.7718 -7434.3599 299.6003 -9184.1317 -7430.3410 300.2203 -24.5025 28.1360 30477.4358 3.7429 3.7193
ENERGY: 1300000 2.8471 2.9652 4.3601 0.0000 -10587.7783 1355.8408 0.0000 0.0000 1784.7179 -7437.0472 305.5838 -9221.7651 -7434.8163 299.8446 -601.6874 -514.9199 30219.6117 3.5086 3.5080
ENERGY: 1500000 2.7459 1.0134 2.5744 0.0000 -10745.7845 1477.8543 0.0000 0.0000 1709.5985 -7551.9980 292.7217 -9261.5965 -7549.8600 301.0627 351.2646 379.6883 30221.3957 2.6707 2.6442
ENERGY: 1700000 1.3370 3.9083 1.4464 0.0000 -10473.2857 1271.4352 0.0000 0.0000 1755.0455 -7440.1132 300.5033 -9195.1587 -7437.6804 299.7701 -1007.6900 -968.9465 30145.3226 2.4062 2.3911
ENERGY: 1900000 0.9048 3.1067 3.0678 0.0000 -10692.6097 1439.5157 0.0000 0.0000 1748.4424 -7497.5723 299.3727 -9246.0147 -7494.8168 299.9951 -151.8848 -45.0679 30347.0017 3.7554 3.6691
TCL: Exiting due to exit command.
