Info: SIMULATION PARAMETERS:
Info: TIMESTEP               2
Info: NUMBER OF STEPS        0
Info: STEPS PER CYCLE        10
Info: PERIODIC CELL BASIS 1  34.986 0 0
Info: PERIODIC CELL BASIS 2  0 35.779 0
Info: PERIODIC CELL BASIS 3  0 0 35.723
Info: PERIODIC CELL CENTER   0 0 0
Info: WRAPPING WATERS AROUND PERIODIC BOUNDARIES ON OUTPUT.
Info: WRAPPING ALL CLUSTERS AROUND PERIODIC BOUNDARIES ON OUTPUT.
Info: FIRST LDB TIMESTEP     50
Info: LAST LDB TIMESTEP     -1
Info: HOM BACKGROUND SCALING 1
Info: PME BACKGROUND SCALING 1
Info: MIN ATOMS PER PATCH    40
Info: EMPTY PATCH LOAD       40 ATOMS
Info: INITIAL TEMPERATURE    300
Info: CENTER OF MASS MOVING INITIALLY? NO
Info: DIELECTRIC             1
Info: EXCLUDE                SCALED ONE-FOUR
Info: 1-4 ELECTROSTATICS SCALED BY 0.833333
Info: MODIFIED 1-4 VDW PARAMETERS WILL BE USED
Info: DCD FILENAME           mobley_6309289_equil.dcd
Info: DCD FREQUENCY          100000
Info: DCD FIRST STEP         100000
Info: DCD FILE WILL CONTAIN UNIT CELL DATA
Info: XST FILENAME           mobley_6309289_equil.xst
Info: XST FREQUENCY          100000
Info: NO VELOCITY DCD OUTPUT
Info: NO FORCE DCD OUTPUT
Info: OUTPUT FILENAME        mobley_6309289_equil
Info: BINARY OUTPUT FILES WILL BE USED
Info: RESTART FILENAME       mobley_6309289_equil.restart
Info: RESTART FREQUENCY      100000
Info: BINARY RESTART FILES WILL BE USED
Info: CUTOFF                 9
Info: PAIRLIST DISTANCE      11
Info: PAIRLIST SHRINK RATE   0.01
Info: PAIRLIST GROW RATE     0.01
Info: PAIRLIST TRIGGER       0.3
Info: PAIRLISTS PER CYCLE    2
Info: PAIRLISTS ENABLED
Info: MARGIN                 8
Info: HYDROGEN GROUP CUTOFF  2.5
Info: PATCH DIMENSION        21.5
Info: ENERGY OUTPUT STEPS    100000
Info: ENERGY EVALUATION STEPS    100000
Info: OUTPUT ENERGY PRECISION 4
Info: CROSSTERM ENERGY INCLUDED IN DIHEDRAL
Info: TIMING OUTPUT STEPS    1000000
Info: PRESSURE OUTPUT STEPS  100000
Info: LANGEVIN DYNAMICS ACTIVE
Info: LANGEVIN TEMPERATURE   30
Info: LANGEVIN USING BBK INTEGRATOR
Info: LANGEVIN DAMPING COEFFICIENT IS 1 INVERSE PS
Info: LANGEVIN DYNAMICS APPLIED TO HYDROGENS
Info: LANGEVIN PISTON PRESSURE CONTROL ACTIVE
Info:        TARGET PRESSURE IS 1.01325 BAR
Info:     OSCILLATION PERIOD IS 50 FS
Info:             DECAY TIME IS 25 FS
Info:     PISTON TEMPERATURE IS 300 K
Info:       PRESSURE CONTROL IS GROUP-BASED
Info:    INITIAL STRAIN RATE IS 0 0 0
Info:       CELL FLUCTUATION IS ISOTROPIC
Info: PARTICLE MESH EWALD (PME) ACTIVE
Info: PME TOLERANCE               1e-06
Info: PME EWALD COEFFICIENT       0.348832
Info: PME INTERPOLATION ORDER     4
Info: PME GRID DIMENSIONS         36 36 36
Info: PME MAXIMUM GRID SPACING    1
Info: FULL ELECTROSTATIC EVALUATION FREQUENCY      2
Info: USING VERLET I (r-RESPA) MTS SCHEME.
Info: C1 SPLITTING OF LONG RANGE ELECTROSTATICS
Info: PLACING ATOMS IN PATCHES BY HYDROGEN GROUPS
Info: RIGID BONDS TO HYDROGEN : ALL
Info:         ERROR TOLERANCE : 1e-08
Info:          MAX ITERATIONS : 100
Info: RIGID WATER USING SETTLE ALGORITHM
Info: RANDOM NUMBER SEED     1742329343
Info: USE HYDROGEN BONDS?    NO
Info: Using AMBER format force field!
Info: AMBER PARM FILE        mobley_6309289.prmtop
Info: COORDINATE PDB         mobley_6309289.pdb
Info: Exclusions will be read from PARM file!
Info: SCNB (VDW SCALING)     2
Info: USING ARITHMETIC MEAN TO COMBINE L-J SIGMA PARAMETERS
Info: BINARY COORDINATES     mobley_6309289_min.coor
Info: SUMMARY OF PARAMETERS:
Info: 7 BONDS
Info: 9 ANGLES
Info:   9 HARMONIC
Info:   0 COSINE-BASED
Info: 10 DIHEDRAL
Info: 0 IMPROPER
Info: 0 CROSSTERM
Info: 0 VDW
Info: 28 VDW_PAIRS
Info: 0 NBTHOLE_PAIRS
Info: STRUCTURE SUMMARY:
Info: 2969 ATOMS
Info: 2969 BONDS
Info: 33 ANGLES
Info: 48 DIHEDRALS
Info: 0 IMPROPERS
Info: 0 CROSSTERMS
Info: 3047 EXCLUSIONS
Info: 2963 RIGID BONDS
Info: 5944 DEGREES OF FREEDOM
Info: 990 HYDROGEN GROUPS
Info: 3 ATOMS IN LARGEST HYDROGEN GROUP
Info: 990 MIGRATION GROUPS
Info: 3 ATOMS IN LARGEST MIGRATION GROUP
Info: TOTAL MASS = 17812.9 amu
Info: TOTAL CHARGE = 0.000299975 e
Info: MASS DENSITY = 0.66149 g/cm^3
Info: ATOM DENSITY = 0.0663957 atoms/A^3
Info: ADDED 0 IMPLICIT EXCLUSIONS
Info: NONBONDED TABLE R-SQUARED SPACING: 0.0625
Info: NONBONDED TABLE SIZE: 705 POINTS
Info: REMOVING COM VELOCITY 0.0609016 0.114038 -0.127319
TCL: Running for 100000 steps
ETITLE: TS BOND ANGLE DIHED IMPRP ELECT VDW BOUNDARY MISC KINETIC TOTAL TEMP POTENTIAL TOTAL3 TEMPAVG PRESSURE GPRESSURE VOLUME PRESSAVG GPRESSAVG
ENERGY: 0 0.1852 0.3359 0.4297 0.0000 -13789.9963 2464.7337 0.0000 0.0000 1785.8457 -9538.4660 302.3817 -11324.3117 -9538.1183 302.3817 614.0449 644.4247 44716.7687 614.0449 644.4247
ENERGY: 100000 0.3884 0.9654 0.4648 0.0000 -14288.2193 2467.4880 0.0000 0.0000 176.2915 -11642.6211 29.8499 -11818.9127 -11642.0443 30.8686 -285.5034 -254.9087 29142.2088 3.5707 3.6037
TCL: Running 100000 steps at 60 kelvin.
TCL: Setting parameter langevinTemp to 60
TCL: Running for 100000 steps
ETITLE: TS BOND ANGLE DIHED IMPRP ELECT VDW BOUNDARY MISC KINETIC TOTAL TEMP POTENTIAL TOTAL3 TEMPAVG PRESSURE GPRESSURE VOLUME PRESSAVG GPRESSAVG
ENERGY: 100000 0.3884 0.9654 0.4648 0.0000 -14288.2193 2467.4880 0.0000 0.0000 176.2044 -11642.7083 29.8352 -11818.9127 -11642.2867 29.8352 -304.4704 -254.7706 29142.2088 -304.4704 -254.7706
ENERGY: 200000 0.3660 1.8254 0.4697 0.0000 -14148.1652 2425.3858 0.0000 0.0000 337.8647 -11382.2536 57.2077 -11720.1183 -11381.4993 60.0185 -160.2816 -129.3474 29093.8657 5.0387 4.9693
TCL: Running 100000 steps at 90 kelvin.
TCL: Setting parameter langevinTemp to 90
TCL: Running for 100000 steps
ETITLE: TS BOND ANGLE DIHED IMPRP ELECT VDW BOUNDARY MISC KINETIC TOTAL TEMP POTENTIAL TOTAL3 TEMPAVG PRESSURE GPRESSURE VOLUME PRESSAVG GPRESSAVG
ENERGY: 200000 0.3660 1.8254 0.4697 0.0000 -14148.1652 2425.3858 0.0000 0.0000 337.6864 -11382.4319 57.1775 -11720.1183 -11381.6781 57.1775 -177.8731 -129.4785 29093.8657 -177.8731 -129.4785
ENERGY: 300000 0.8166 2.7896 0.7557 0.0000 -14137.6585 2475.0287 0.0000 0.0000 534.9729 -11123.2950 90.5823 -11658.2679 -11121.7645 89.8674 382.7598 441.2716 28925.8200 3.9359 3.9483
TCL: Running 100000 steps at 120 kelvin.
TCL: Setting parameter langevinTemp to 120
TCL: Running for 100000 steps
ETITLE: TS BOND ANGLE DIHED IMPRP ELECT VDW BOUNDARY MISC KINETIC TOTAL TEMP POTENTIAL TOTAL3 TEMPAVG PRESSURE GPRESSURE VOLUME PRESSAVG GPRESSAVG
ENERGY: 300000 0.8166 2.7896 0.7557 0.0000 -14137.6585 2475.0287 0.0000 0.0000 534.7090 -11123.5589 90.5376 -11658.2679 -11122.4112 90.5376 381.2182 440.5066 28925.8200 381.2182 440.5066
ENERGY: 400000 0.7216 3.3331 1.1689 0.0000 -13805.0126 2287.2452 0.0000 0.0000 690.2240 -10822.3198 116.8696 -11512.5438 -10820.4141 119.8024 -504.2205 -440.4741 28875.2010 3.5129 3.6324
TCL: Running 100000 steps at 150 kelvin.
TCL: Setting parameter langevinTemp to 150
TCL: Running for 100000 steps
ETITLE: TS BOND ANGLE DIHED IMPRP ELECT VDW BOUNDARY MISC KINETIC TOTAL TEMP POTENTIAL TOTAL3 TEMPAVG PRESSURE GPRESSURE VOLUME PRESSAVG GPRESSAVG
ENERGY: 400000 0.7216 3.3331 1.1689 0.0000 -13805.0126 2287.2452 0.0000 0.0000 689.8586 -10822.6852 116.8078 -11512.5438 -10821.0778 116.8078 -504.9430 -440.6844 28875.2010 -504.9430 -440.6844
ENERGY: 500000 0.4168 4.6229 0.6749 0.0000 -13591.4491 2271.7645 0.0000 0.0000 885.6598 -10428.3102 149.9611 -11313.9700 -10425.4833 150.2652 146.2315 152.7307 29073.5635 3.5337 3.4634
TCL: Running 100000 steps at 180 kelvin.
TCL: Setting parameter langevinTemp to 180
TCL: Running for 100000 steps
ETITLE: TS BOND ANGLE DIHED IMPRP ELECT VDW BOUNDARY MISC KINETIC TOTAL TEMP POTENTIAL TOTAL3 TEMPAVG PRESSURE GPRESSURE VOLUME PRESSAVG GPRESSAVG
ENERGY: 500000 0.4168 4.6229 0.6749 0.0000 -13591.4491 2271.7645 0.0000 0.0000 885.2260 -10428.7440 149.8876 -11313.9700 -10427.0301 149.8876 114.8080 153.2953 29073.5635 114.8080 153.2953
ENERGY: 600000 0.4228 3.3512 0.8727 0.0000 -13177.2590 2106.6017 0.0000 0.0000 1036.4037 -10029.6069 175.4852 -11066.0106 -10027.0141 180.0514 -339.8268 -280.0992 29174.9022 4.3570 4.2977
TCL: Running 100000 steps at 210 kelvin.
TCL: Setting parameter langevinTemp to 210
TCL: Running for 100000 steps
ETITLE: TS BOND ANGLE DIHED IMPRP ELECT VDW BOUNDARY MISC KINETIC TOTAL TEMP POTENTIAL TOTAL3 TEMPAVG PRESSURE GPRESSURE VOLUME PRESSAVG GPRESSAVG
ENERGY: 600000 0.4228 3.3512 0.8727 0.0000 -13177.2590 2106.6017 0.0000 0.0000 1035.8861 -10030.1245 175.3976 -11066.0106 -10027.9878 175.3976 -325.7892 -278.4841 29174.9022 -325.7892 -278.4841
ENERGY: 700000 0.2394 5.1864 1.0137 0.0000 -12490.7625 1936.0649 0.0000 0.0000 1221.4545 -9326.8035 206.8183 -10548.2580 -9323.3469 209.8677 141.6996 248.9591 29141.5930 5.4454 5.1805
TCL: Running 100000 steps at 240 kelvin.
TCL: Setting parameter langevinTemp to 240
TCL: Running for 100000 steps
ETITLE: TS BOND ANGLE DIHED IMPRP ELECT VDW BOUNDARY MISC KINETIC TOTAL TEMP POTENTIAL TOTAL3 TEMPAVG PRESSURE GPRESSURE VOLUME PRESSAVG GPRESSAVG
ENERGY: 700000 0.2394 5.1864 1.0137 0.0000 -12490.7625 1936.0649 0.0000 0.0000 1220.8480 -9327.4100 206.7156 -10548.2580 -9325.1472 206.7156 169.1490 249.3006 29141.5930 169.1490 249.3006
ENERGY: 800000 0.8129 5.7924 0.8957 0.0000 -11851.5598 1709.5019 0.0000 0.0000 1470.9202 -8663.6367 249.0581 -10134.5569 -8659.5584 240.1458 -379.7679 -330.3072 29715.4715 4.1883 4.2372
TCL: Running 100000 steps at 270 kelvin.
TCL: Setting parameter langevinTemp to 270
TCL: Running for 100000 steps
ETITLE: TS BOND ANGLE DIHED IMPRP ELECT VDW BOUNDARY MISC KINETIC TOTAL TEMP POTENTIAL TOTAL3 TEMPAVG PRESSURE GPRESSURE VOLUME PRESSAVG GPRESSAVG
ENERGY: 800000 0.8129 5.7924 0.8957 0.0000 -11851.5598 1709.5019 0.0000 0.0000 1470.2344 -8664.3225 248.9420 -10134.5569 -8662.0003 248.9420 -417.1401 -330.4883 29715.4715 -417.1401 -330.4883
ENERGY: 900000 0.9661 7.6513 2.2055 0.0000 -11497.0719 1742.4563 0.0000 0.0000 1618.6398 -8125.1529 274.0702 -9743.7928 -8121.7466 270.2403 1238.9220 1243.2574 29739.7336 3.3506 3.4290
TCL: Running 1000000 steps at 300 kelvin.
TCL: Setting parameter langevinTemp to 300
TCL: Running for 1000000 steps
ETITLE: TS BOND ANGLE DIHED IMPRP ELECT VDW BOUNDARY MISC KINETIC TOTAL TEMP POTENTIAL TOTAL3 TEMPAVG PRESSURE GPRESSURE VOLUME PRESSAVG GPRESSAVG
ENERGY: 900000 0.9661 7.6513 2.2055 0.0000 -11497.0719 1742.4563 0.0000 0.0000 1617.8297 -8125.9631 273.9330 -9743.7928 -8123.5094 273.9330 1170.5855 1243.4527 29739.7336 1170.5855 1243.4527
ENERGY: 1100000 0.6046 9.6706 1.0109 0.0000 -10649.5125 1362.9637 0.0000 0.0000 1783.0655 -7492.1973 301.9110 -9275.2628 -7485.2361 300.0029 -452.2019 -385.6062 30533.6111 2.9311 2.8509
ENERGY: 1300000 0.2798 11.1729 0.8383 0.0000 -10760.4531 1478.0132 0.0000 0.0000 1793.6138 -7476.5352 303.6970 -9270.1490 -7471.7728 300.1558 203.7383 280.9846 30840.5684 2.5439 2.5623
ENERGY: 1500000 0.6655 7.9206 2.1890 0.0000 -10813.5579 1450.1690 0.0000 0.0000 1749.8340 -7602.7797 296.2842 -9352.6137 -7599.4533 300.1340 -223.2672 -175.2501 30658.0926 1.1372 1.0646
ENERGY: 1700000 1.1792 4.5735 2.6421 0.0000 -10714.9332 1429.1930 0.0000 0.0000 1745.5951 -7531.7503 295.5664 -9277.3455 -7529.8957 300.3349 -66.7804 -19.1495 30833.6056 1.6950 1.8347
ENERGY: 1900000 4.0462 7.8654 0.5282 0.0000 -10727.9480 1449.3962 0.0000 0.0000 1737.1644 -7528.9476 294.1389 -9266.1121 -7524.1501 299.5754 110.0997 209.1105 30352.1649 3.1672 3.1448
TCL: Exiting due to exit command.
