Info: SIMULATION PARAMETERS:
Info: TIMESTEP               2
Info: NUMBER OF STEPS        0
Info: STEPS PER CYCLE        10
Info: PERIODIC CELL BASIS 1  29.0249 0 0
Info: PERIODIC CELL BASIS 2  0 32.4785 0
Info: PERIODIC CELL BASIS 3  0 0 31.9811
Info: PERIODIC CELL CENTER   0 0 0
Info: WRAPPING WATERS AROUND PERIODIC BOUNDARIES ON OUTPUT.
Info: WRAPPING ALL CLUSTERS AROUND PERIODIC BOUNDARIES ON OUTPUT.
Info: FIRST LDB TIMESTEP     50
Info: LAST LDB TIMESTEP     -1
Info: HOM BACKGROUND SCALING 1
Info: PME BACKGROUND SCALING 1
Info: MIN ATOMS PER PATCH    40
Info: EMPTY PATCH LOAD       40 ATOMS
Info: VELOCITY FILE          mobley_2782339_equil.vel
Info: CENTER OF MASS MOVING INITIALLY? NO
Info: DIELECTRIC             1
Info: EXCLUDE                SCALED ONE-FOUR
Info: 1-4 ELECTROSTATICS SCALED BY 0.833333
Info: MODIFIED 1-4 VDW PARAMETERS WILL BE USED
Info: DCD FILENAME           mobley_2782339_prod.dcd
Info: DCD FREQUENCY          100000
Info: DCD FIRST STEP         100000
Info: DCD FILE WILL CONTAIN UNIT CELL DATA
Info: XST FILENAME           mobley_2782339_prod.xst
Info: XST FREQUENCY          100000
Info: NO VELOCITY DCD OUTPUT
Info: NO FORCE DCD OUTPUT
Info: OUTPUT FILENAME        mobley_2782339_prod
Info: BINARY OUTPUT FILES WILL BE USED
Info: RESTART FILENAME       mobley_2782339_prod.restart
Info: RESTART FREQUENCY      100000
Info: BINARY RESTART FILES WILL BE USED
Info: CUTOFF                 9
Info: PAIRLIST DISTANCE      11
Info: PAIRLIST SHRINK RATE   0.01
Info: PAIRLIST GROW RATE     0.01
Info: PAIRLIST TRIGGER       0.3
Info: PAIRLISTS PER CYCLE    2
Info: PAIRLISTS ENABLED
Info: MARGIN                 2
Info: HYDROGEN GROUP CUTOFF  2.5
Info: PATCH DIMENSION        15.5
Info: ENERGY OUTPUT STEPS    100000
Info: ENERGY EVALUATION STEPS    100000
Info: OUTPUT ENERGY PRECISION 4
Info: CROSSTERM ENERGY INCLUDED IN DIHEDRAL
Info: TIMING OUTPUT STEPS    1000000
Info: PRESSURE OUTPUT STEPS  100000
Info: ALCHEMICAL FEP ON
Info: FEP CURRENT LAMBDA VALUE     0
Info: FEP COMPARISON LAMBDA VALUE  0.05
Info: FEP INTRA-ALCHEMICAL NON-BONDED INTERACTIONS WILL BE RETAINED
Info: FEP INTRA-ALCHEMICAL BONDED INTERACTIONS WILL BE RETAINED
Info: FEP VDW SHIFTING COEFFICIENT 5
Info: FEP ELEC. ACTIVE FOR ANNIHILATED PARTICLES BETWEEN LAMBDA = 0 AND LAMBDA = 0.5
Info: FEP ELEC. ACTIVE FOR EXNIHILATED PARTICLES BETWEEN LAMBDA = 0.5 AND LAMBDA = 1
Info: FEP VDW ACTIVE FOR ANNIHILATED PARTICLES BETWEEN LAMBDA = 0 AND LAMBDA = 1
Info: FEP VDW ACTIVE FOR EXNIHILATED PARTICLES BETWEEN LAMBDA = 0 AND LAMBDA = 1
Info: FEP BOND ACTIVE FOR ANNIHILATED PARTICLES BETWEEN LAMBDA = 1 AND LAMBDA = 1
Info: FEP BOND ACTIVE FOR EXNIHILATED PARTICLES BETWEEN LAMBDA = 0 AND LAMBDA = 0
Info: LANGEVIN DYNAMICS ACTIVE
Info: LANGEVIN TEMPERATURE   300
Info: LANGEVIN USING BBK INTEGRATOR
Info: LANGEVIN DAMPING COEFFICIENT IS 1 INVERSE PS
Info: LANGEVIN DYNAMICS APPLIED TO HYDROGENS
Info: LANGEVIN PISTON PRESSURE CONTROL ACTIVE
Info:        TARGET PRESSURE IS 1.01325 BAR
Info:     OSCILLATION PERIOD IS 50 FS
Info:             DECAY TIME IS 25 FS
Info:     PISTON TEMPERATURE IS 300 K
Info:       PRESSURE CONTROL IS GROUP-BASED
Info:    INITIAL STRAIN RATE IS -3.05648e-05 -3.05648e-05 -3.05648e-05
Info:       CELL FLUCTUATION IS ISOTROPIC
Info: PARTICLE MESH EWALD (PME) ACTIVE
Info: PME TOLERANCE               1e-06
Info: PME EWALD COEFFICIENT       0.348832
Info: PME INTERPOLATION ORDER     4
Info: PME GRID DIMENSIONS         32 36 32
Info: PME MAXIMUM GRID SPACING    1
Info: PME CALCULATION WILL BE PERFORMED ON GPU
Info: FULL ELECTROSTATIC EVALUATION FREQUENCY      2
Info: USING VERLET I (r-RESPA) MTS SCHEME.
Info: C1 SPLITTING OF LONG RANGE ELECTROSTATICS
Info: PLACING ATOMS IN PATCHES BY HYDROGEN GROUPS
Info: RIGID BONDS TO HYDROGEN : ALL
Info:         ERROR TOLERANCE : 1e-08
Info:          MAX ITERATIONS : 100
Info: RIGID WATER USING SETTLE ALGORITHM
Info: RANDOM NUMBER SEED     1742293993
Info: USE HYDROGEN BONDS?    NO
Info: Using AMBER format force field!
Info: AMBER PARM FILE        mobley_2782339.prmtop
Info: COORDINATE PDB         mobley_2782339.pdb
Info: Exclusions will be read from PARM file!
Info: SCNB (VDW SCALING)     2
Info: USING ARITHMETIC MEAN TO COMBINE L-J SIGMA PARAMETERS
Info: BINARY COORDINATES     mobley_2782339_equil.coor
Info: SUMMARY OF PARAMETERS:
Info: 8 BONDS
Info: 8 ANGLES
Info:   8 HARMONIC
Info:   0 COSINE-BASED
Info: 7 DIHEDRAL
Info: 0 IMPROPER
Info: 0 CROSSTERM
Info: 0 VDW
Info: 28 VDW_PAIRS
Info: 0 NBTHOLE_PAIRS
Info: To read alchdata from file: mobley_2782339.pdb
Info: To read alchflag data from column: 5
Info: STRUCTURE SUMMARY:
Info: 2926 ATOMS
Info: 2927 BONDS
Info: 27 ANGLES
Info: 49 DIHEDRALS
Info: 0 IMPROPERS
Info: 0 CROSSTERMS
Info: 2986 EXCLUSIONS
Info: 2915 RIGID BONDS
Info: ALCH: 0 ATOMS TO DISAPPEAR IN FINAL STATE
Info: ALCH: 16 ATOMS TO APPEAR IN FINAL STATE
Info: 5863 DEGREES OF FREEDOM
Info: 981 HYDROGEN GROUPS
Info: 3 ATOMS IN LARGEST HYDROGEN GROUP
Info: 981 MIGRATION GROUPS
Info: 3 ATOMS IN LARGEST MIGRATION GROUP
Info: TOTAL MASS = 17622.7 amu
Info: TOTAL CHARGE = 5.21541e-08 e
Info: MASS DENSITY = 0.970668 g/cm^3
Info: ATOM DENSITY = 0.0970542 atoms/A^3
Info: ADDED 0 IMPLICIT EXCLUSIONS
Info: NONBONDED TABLE R-SQUARED SPACING: 0.0625
Info: NONBONDED TABLE SIZE: 705 POINTS
Info: REMOVING COM VELOCITY 0.116355 -0.0391666 0.182665
Info: Use 3D box decompostion in PME FFT.
Info: Updated CUDA force table with 4096 elements.
Info: Updated CUDA LJ table with 7 x 7 elements.
Info: Found 18 unique exclusion lists needing 40 bytes
TCL: Running for 1500000 steps
ETITLE: TS BOND ANGLE DIHED IMPRP ELECT VDW BOUNDARY MISC KINETIC TOTAL TEMP POTENTIAL TOTALAVG TEMPAVG PRESSURE GPRESSURE VOLUME PRESSAVG GPRESSAVG
ENERGY: 0 5.8328 23.5227 13.5663 0.0000 -10637.2088 1449.2317 0.0000 0.0000 1728.6046 -7416.4507 296.7332 -9145.0552 -7416.4507 296.7332 281.8310 363.4566 30148.1005 281.8310 363.4566
ENERGY: 300000 5.1157 23.8344 11.3049 0.0000 -10697.5344 1419.3137 0.0000 0.0000 1693.2738 -7544.6919 290.6683 -9237.9657 -7485.1395 295.8106 -380.3275 -209.3838 29933.9951 -310.3948 -224.0772
ENERGY: 600000 6.1189 26.9954 10.7254 0.0000 -10703.2050 1410.5487 0.0000 0.0000 1757.6727 -7491.1439 301.7231 -9248.8166 -7478.7046 297.9091 -166.3769 -211.9925 30172.7977 -186.4091 -124.8690
ENERGY: 900000 5.5752 23.5110 11.3950 0.0000 -10778.4166 1448.5974 0.0000 0.0000 1804.2284 -7485.1096 309.7148 -9289.3380 -7469.2977 299.8754 -61.9431 -58.4374 29922.6858 -197.7054 -151.0051
ENERGY: 1200000 3.1878 28.7024 15.3920 0.0000 -10756.4783 1435.4382 0.0000 0.0000 1719.3782 -7554.3797 295.1494 -9273.7579 -7479.0766 298.9757 -295.5680 -201.4258 29932.4296 -117.8803 -66.1684
ENERGY: 1500000 5.5290 27.9845 13.4066 0.0000 -10686.1559 1387.8243 0.0000 0.0000 1733.5255 -7517.8860 297.5779 -9251.4115 -7475.9577 299.2215 -601.8012 -521.2561 29799.4918 -195.5893 -135.5862
TCL: Running FEP window   2: Lambda1 0.05   Lambda2 0.1    [dLambda 0.05  ]
TCL: Setting parameter firsttimestep to 0
TCL: Setting parameter alchLambda to 0.05
Info: NONBONDED TABLE R-SQUARED SPACING: 0.0625
Info: NONBONDED TABLE SIZE: 705 POINTS
TCL: Setting parameter alchLambda2 to 0.1
Info: NONBONDED TABLE R-SQUARED SPACING: 0.0625
Info: NONBONDED TABLE SIZE: 705 POINTS
TCL: Running for 1500000 steps
ETITLE: TS BOND ANGLE DIHED IMPRP ELECT VDW BOUNDARY MISC KINETIC TOTAL TEMP POTENTIAL TOTALAVG TEMPAVG PRESSURE GPRESSURE VOLUME PRESSAVG GPRESSAVG
ENERGY: 0 5.5290 27.9845 13.4066 0.0000 -10686.1558 1391.1034 0.0000 0.0000 1732.6132 -7515.5191 297.4213 -9248.1323 -7515.5191 297.4213 -589.5705 -513.3258 29799.4918 -589.5705 -513.3258
ENERGY: 300000 8.1763 23.3811 10.0313 0.0000 -10620.7860 1426.9226 0.0000 0.0000 1759.0621 -7393.2126 301.9616 -9152.2747 -7442.1501 302.2653 85.0199 138.5868 29912.7501 -315.8427 -234.1804
ENERGY: 600000 2.9290 24.6537 10.1618 0.0000 -10865.4479 1547.8072 0.0000 0.0000 1745.8329 -7534.0632 299.6906 -9279.8961 -7465.1397 300.3217 763.8405 830.3091 29635.1739 -140.0048 -62.0847
ENERGY: 900000 3.4424 24.5604 10.7439 0.0000 -10710.2229 1438.0059 0.0000 0.0000 1700.4965 -7532.9738 291.9082 -9233.4703 -7466.2556 300.5539 -15.6898 8.4578 29773.9809 -234.3100 -159.5775
ENERGY: 1200000 3.3609 22.9227 14.1756 0.0000 -10504.2814 1334.2587 0.0000 0.0000 1766.3647 -7363.1987 303.2151 -9129.5634 -7457.1446 300.5031 -583.2676 -467.1651 30071.2411 -228.8432 -156.9725
ENERGY: 1500000 5.9147 23.2132 12.6376 0.0000 -10677.8156 1523.7939 0.0000 0.0000 1742.9868 -7369.2693 299.2021 -9112.2561 -7447.3014 300.4004 619.0042 674.0667 30279.0572 -214.2318 -148.6088
TCL: Running FEP window   3: Lambda1 0.1    Lambda2 0.15000000000000002 [dLambda 0.05000000000000002]
TCL: Setting parameter firsttimestep to 0
TCL: Setting parameter alchLambda to 0.1
Info: NONBONDED TABLE R-SQUARED SPACING: 0.0625
Info: NONBONDED TABLE SIZE: 705 POINTS
TCL: Setting parameter alchLambda2 to 0.15000000000000002
Info: NONBONDED TABLE R-SQUARED SPACING: 0.0625
Info: NONBONDED TABLE SIZE: 705 POINTS
TCL: Running for 1500000 steps
ETITLE: TS BOND ANGLE DIHED IMPRP ELECT VDW BOUNDARY MISC KINETIC TOTAL TEMP POTENTIAL TOTALAVG TEMPAVG PRESSURE GPRESSURE VOLUME PRESSAVG GPRESSAVG
ENERGY: 0 5.9147 23.2132 12.6376 0.0000 -10677.8157 1528.2288 0.0000 0.0000 1742.1175 -7365.7038 299.0528 -9107.8214 -7365.7038 299.0528 612.9623 684.5207 30279.0572 612.9623 684.5207
ENERGY: 300000 1.7174 25.7018 13.9117 0.0000 -10696.1789 1499.1004 0.0000 0.0000 1758.9849 -7396.7627 301.9483 -9155.7476 -7420.3101 300.4992 824.9819 930.3269 29867.5952 581.3509 650.5281
ENERGY: 600000 8.0849 22.9648 11.6445 0.0000 -10679.2866 1412.7824 0.0000 0.0000 1737.9182 -7485.8918 298.3320 -9223.8100 -7424.4787 300.4383 -118.2675 -72.1528 29870.5820 247.4659 316.7083
ENERGY: 900000 2.9484 22.8816 13.1525 0.0000 -10717.6241 1496.9001 0.0000 0.0000 1725.0483 -7456.6933 296.1227 -9181.7416 -7432.9570 300.6092 551.8059 599.3949 29865.8557 124.0349 193.7775
ENERGY: 1200000 4.1788 24.9476 11.1529 0.0000 -10664.8042 1375.5078 0.0000 0.0000 1761.2999 -7487.7172 302.3457 -9249.0171 -7431.4518 301.5232 -308.7611 -266.6986 29542.4220 -60.5153 14.2144
ENERGY: 1500000 2.1846 24.9640 13.1059 0.0000 -10643.0400 1480.4859 0.0000 0.0000 1722.5420 -7399.7576 295.6925 -9122.2996 -7429.2461 301.5488 432.5833 500.0278 30212.6452 -44.2641 30.8296
TCL: Running FEP window   4: Lambda1 0.15000000000000002 Lambda2 0.2    [dLambda 0.04999999999999999]
TCL: Setting parameter firsttimestep to 0
TCL: Setting parameter alchLambda to 0.15000000000000002
Info: NONBONDED TABLE R-SQUARED SPACING: 0.0625
Info: NONBONDED TABLE SIZE: 705 POINTS
TCL: Setting parameter alchLambda2 to 0.2
Info: NONBONDED TABLE R-SQUARED SPACING: 0.0625
Info: NONBONDED TABLE SIZE: 705 POINTS
TCL: Running for 1500000 steps
ETITLE: TS BOND ANGLE DIHED IMPRP ELECT VDW BOUNDARY MISC KINETIC TOTAL TEMP POTENTIAL TOTALAVG TEMPAVG PRESSURE GPRESSURE VOLUME PRESSAVG GPRESSAVG
ENERGY: 0 2.1845 24.9640 13.1059 0.0000 -10643.0399 1482.1823 0.0000 0.0000 1721.6508 -7398.9522 295.5395 -9120.6031 -7398.9522 295.5395 433.8215 512.2155 30212.6452 433.8215 512.2155
ENERGY: 300000 6.2529 23.5583 10.2259 0.0000 -10556.2718 1366.9540 0.0000 0.0000 1671.8322 -7477.4485 286.9876 -9149.2807 -7442.9701 293.4359 -965.1721 -908.5376 31058.4776 -323.0404 -238.7063
ENERGY: 600000 5.4703 23.8234 12.4437 0.0000 -10734.6904 1445.2242 0.0000 0.0000 1713.8397 -7533.8890 294.1987 -9247.7288 -7467.5921 293.6189 -153.5844 -125.6751 30160.9434 -127.1429 -67.8548
ENERGY: 900000 4.0875 21.7235 10.9875 0.0000 -10737.5242 1468.1223 0.0000 0.0000 1784.8171 -7447.7862 306.3827 -9232.6033 -7446.0965 297.7962 181.4944 183.7177 30080.6229 -113.2331 -62.5978
ENERGY: 1200000 4.1098 23.8766 10.9775 0.0000 -10680.3062 1439.4457 0.0000 0.0000 1680.1519 -7521.7447 288.4158 -9201.8966 -7461.5018 296.7330 206.1048 337.3145 29528.9580 -98.6592 -43.2623
ENERGY: 1500000 6.4404 22.3458 10.8921 0.0000 -10695.0345 1434.8641 0.0000 0.0000 1802.0281 -7418.4640 309.3371 -9220.4921 -7452.4184 297.7123 -290.2452 -201.7393 30477.4816 -127.8990 -67.1418
TCL: Running FEP window   5: Lambda1 0.2    Lambda2 0.25   [dLambda 0.04999999999999999]
TCL: Setting parameter firsttimestep to 0
TCL: Setting parameter alchLambda to 0.2
Info: NONBONDED TABLE R-SQUARED SPACING: 0.0625
Info: NONBONDED TABLE SIZE: 705 POINTS
TCL: Setting parameter alchLambda2 to 0.25
Info: NONBONDED TABLE R-SQUARED SPACING: 0.0625
Info: NONBONDED TABLE SIZE: 705 POINTS
TCL: Running for 1500000 steps
ETITLE: TS BOND ANGLE DIHED IMPRP ELECT VDW BOUNDARY MISC KINETIC TOTAL TEMP POTENTIAL TOTALAVG TEMPAVG PRESSURE GPRESSURE VOLUME PRESSAVG GPRESSAVG
ENERGY: 0 6.4404 22.3458 10.8921 0.0000 -10695.0345 1435.4409 0.0000 0.0000 1801.1399 -7418.7754 309.1847 -9219.9153 -7418.7754 309.1847 -272.2081 -194.0792 30477.4816 -272.2081 -194.0792
ENERGY: 300000 2.5097 26.1110 12.3582 0.0000 -10679.8870 1444.8876 0.0000 0.0000 1712.3754 -7481.6450 293.9473 -9194.0205 -7416.4426 304.4760 -129.3438 -70.1336 30324.6864 -87.9733 -36.1440
ENERGY: 600000 3.6859 23.3890 11.9079 0.0000 -10765.4244 1455.3717 0.0000 0.0000 1755.4823 -7515.5876 301.3471 -9271.0699 -7433.1058 303.1821 160.3106 258.6744 29651.0932 44.7776 105.1239
ENERGY: 900000 2.1475 26.1739 11.7785 0.0000 -10576.8585 1369.2893 0.0000 0.0000 1701.4872 -7465.9822 292.0782 -9167.4694 -7442.3070 301.4928 -486.3760 -466.8614 30104.9245 -74.9748 -14.8925
ENERGY: 1200000 2.9672 26.2684 13.6495 0.0000 -10543.0840 1355.2452 0.0000 0.0000 1721.6857 -7423.2680 295.5455 -9144.9536 -7444.9969 299.9575 -480.4222 -523.2823 30011.8384 -187.1453 -125.6598
ENERGY: 1500000 4.8877 23.6337 11.3724 0.0000 -10684.3475 1444.0552 0.0000 0.0000 1684.9036 -7515.4950 289.2315 -9200.3985 -7446.0701 299.7284 176.9301 263.4018 29993.0672 -243.0912 -179.3490
TCL: Running FEP window   6: Lambda1 0.25   Lambda2 0.3    [dLambda 0.04999999999999999]
TCL: Setting parameter firsttimestep to 0
TCL: Setting parameter alchLambda to 0.25
Info: NONBONDED TABLE R-SQUARED SPACING: 0.0625
Info: NONBONDED TABLE SIZE: 705 POINTS
TCL: Setting parameter alchLambda2 to 0.3
Info: NONBONDED TABLE R-SQUARED SPACING: 0.0625
Info: NONBONDED TABLE SIZE: 705 POINTS
TCL: Running for 1500000 steps
ETITLE: TS BOND ANGLE DIHED IMPRP ELECT VDW BOUNDARY MISC KINETIC TOTAL TEMP POTENTIAL TOTALAVG TEMPAVG PRESSURE GPRESSURE VOLUME PRESSAVG GPRESSAVG
ENERGY: 0 4.8877 23.6337 11.3724 0.0000 -10684.3473 1443.8715 0.0000 0.0000 1684.0749 -7516.5070 289.0892 -9200.5820 -7516.5070 289.0892 185.6922 265.0820 29993.0672 185.6922 265.0820
ENERGY: 300000 4.0322 26.3318 14.4438 0.0000 -10501.5900 1314.0908 0.0000 0.0000 1710.4101 -7432.2813 293.6099 -9142.6914 -7467.9885 291.4167 -971.8529 -848.2669 30470.4599 -231.6243 -150.3663
ENERGY: 600000 2.9339 23.3141 16.4867 0.0000 -10598.7655 1372.5151 0.0000 0.0000 1765.1895 -7418.3262 303.0134 -9183.5157 -7447.1751 295.4667 -745.8269 -654.3136 30642.0019 -311.2623 -215.3895
ENERGY: 900000 2.3889 28.3535 10.6225 0.0000 -10661.1099 1402.9192 0.0000 0.0000 1797.3576 -7419.4683 308.5354 -9216.8259 -7437.7004 298.3475 -141.2406 -87.1369 30064.8116 -302.6806 -223.4245
ENERGY: 1200000 3.0397 24.9636 10.5535 0.0000 -10706.1262 1431.5611 0.0000 0.0000 1731.2513 -7504.7570 297.1875 -9236.0083 -7446.3755 299.0123 -5.8596 85.2974 29735.7326 -161.3597 -83.8543
ENERGY: 1500000 7.1543 28.8268 11.0409 0.0000 -10686.3269 1408.7163 0.0000 0.0000 1737.0835 -7493.5050 298.1887 -9230.5885 -7435.6301 300.4428 -481.1787 -386.0253 30557.1199 -106.6271 -31.4495
TCL: Running FEP window   7: Lambda1 0.3    Lambda2 0.35   [dLambda 0.04999999999999999]
TCL: Setting parameter firsttimestep to 0
TCL: Setting parameter alchLambda to 0.3
Info: NONBONDED TABLE R-SQUARED SPACING: 0.0625
Info: NONBONDED TABLE SIZE: 705 POINTS
TCL: Setting parameter alchLambda2 to 0.35
Info: NONBONDED TABLE R-SQUARED SPACING: 0.0625
Info: NONBONDED TABLE SIZE: 705 POINTS
TCL: Running for 1500000 steps
ETITLE: TS BOND ANGLE DIHED IMPRP ELECT VDW BOUNDARY MISC KINETIC TOTAL TEMP POTENTIAL TOTALAVG TEMPAVG PRESSURE GPRESSURE VOLUME PRESSAVG GPRESSAVG
ENERGY: 0 7.1543 28.8268 11.0409 0.0000 -10686.3260 1409.1884 0.0000 0.0000 1736.2337 -7493.8819 298.0428 -9230.1156 -7493.8819 298.0428 -448.1204 -377.3741 30557.1199 -448.1204 -377.3741
ENERGY: 300000 5.2049 24.8306 12.3014 0.0000 -10666.9889 1423.4172 0.0000 0.0000 1742.8501 -7458.3846 299.1786 -9201.2347 -7461.2741 296.6007 -277.6216 -177.0885 30085.8620 -238.5467 -165.8088
ENERGY: 600000 1.3677 26.4479 13.9566 0.0000 -10608.0566 1388.9354 0.0000 0.0000 1696.2393 -7481.1097 291.1774 -9177.3490 -7459.5274 296.7629 -127.6768 -68.0718 29891.0297 -128.9038 -72.3353
ENERGY: 900000 4.2992 26.2980 11.7712 0.0000 -10803.4626 1517.1515 0.0000 0.0000 1730.3066 -7513.6362 297.0254 -9243.9428 -7474.6878 298.0649 418.8926 530.5760 29813.3205 22.0075 87.4911
ENERGY: 1200000 3.8179 24.0081 12.9111 0.0000 -10776.9509 1488.1266 0.0000 0.0000 1710.4291 -7537.6580 293.6132 -9248.0871 -7473.7564 297.9737 258.2312 316.7338 29965.1634 50.9690 106.6914
ENERGY: 1500000 3.4985 23.4511 11.9399 0.0000 -10561.3793 1374.6273 0.0000 0.0000 1739.4361 -7408.4265 298.5926 -9147.8626 -7465.0218 298.0517 -449.3660 -382.7927 30550.8206 32.1304 82.6894
TCL: Running FEP window   8: Lambda1 0.35   Lambda2 0.39999999999999997 [dLambda 0.04999999999999999]
TCL: Setting parameter firsttimestep to 0
TCL: Setting parameter alchLambda to 0.35
Info: NONBONDED TABLE R-SQUARED SPACING: 0.0625
Info: NONBONDED TABLE SIZE: 705 POINTS
TCL: Setting parameter alchLambda2 to 0.39999999999999997
Info: NONBONDED TABLE R-SQUARED SPACING: 0.0625
Info: NONBONDED TABLE SIZE: 705 POINTS
TCL: Running for 1500000 steps
ETITLE: TS BOND ANGLE DIHED IMPRP ELECT VDW BOUNDARY MISC KINETIC TOTAL TEMP POTENTIAL TOTALAVG TEMPAVG PRESSURE GPRESSURE VOLUME PRESSAVG GPRESSAVG
ENERGY: 0 3.4985 23.4511 11.9399 0.0000 -10561.3798 1375.1875 0.0000 0.0000 1738.5261 -7408.7767 298.4363 -9147.3029 -7408.7767 298.4363 -451.1606 -373.0818 30550.8206 -451.1606 -373.0818
ENERGY: 300000 2.6789 23.9012 13.6231 0.0000 -10771.8172 1493.8428 0.0000 0.0000 1748.6319 -7489.1392 300.1711 -9237.7712 -7452.6170 299.0110 357.4208 417.4650 30161.3204 13.7720 103.0757
ENERGY: 600000 4.4241 26.1166 12.1029 0.0000 -10749.2033 1485.7825 0.0000 0.0000 1761.0319 -7459.7454 302.2997 -9220.7773 -7437.8442 301.0181 536.0633 573.2869 29864.0874 121.4969 200.7242
ENERGY: 900000 1.9279 25.6389 10.4138 0.0000 -10681.8021 1425.9430 0.0000 0.0000 1779.0284 -7438.8501 305.3890 -9217.8785 -7435.7325 301.3942 -274.6033 -187.0325 30480.4556 -16.6381 68.5698
ENERGY: 1200000 2.1443 24.4187 10.0006 0.0000 -10645.0755 1395.5417 0.0000 0.0000 1799.8567 -7413.1135 308.9644 -9212.9702 -7435.2403 302.1538 -303.7145 -274.7180 30501.7225 58.4820 131.0664
ENERGY: 1500000 4.5303 24.0089 10.8481 0.0000 -10734.8437 1461.7280 0.0000 0.0000 1749.7776 -7483.9508 300.3678 -9233.7284 -7437.9962 302.6813 327.5970 474.8789 29841.2991 55.2583 134.2231
TCL: Running FEP window   9: Lambda1 0.39999999999999997 Lambda2 0.44999999999999996 [dLambda 0.04999999999999999]
TCL: Setting parameter firsttimestep to 0
TCL: Setting parameter alchLambda to 0.39999999999999997
Info: NONBONDED TABLE R-SQUARED SPACING: 0.0625
Info: NONBONDED TABLE SIZE: 705 POINTS
TCL: Setting parameter alchLambda2 to 0.44999999999999996
Info: NONBONDED TABLE R-SQUARED SPACING: 0.0625
Info: NONBONDED TABLE SIZE: 705 POINTS
TCL: Running for 1500000 steps
ETITLE: TS BOND ANGLE DIHED IMPRP ELECT VDW BOUNDARY MISC KINETIC TOTAL TEMP POTENTIAL TOTALAVG TEMPAVG PRESSURE GPRESSURE VOLUME PRESSAVG GPRESSAVG
ENERGY: 0 4.5303 24.0089 10.8481 0.0000 -10734.8432 1461.7755 0.0000 0.0000 1748.8952 -7484.7852 300.2163 -9233.6804 -7484.7852 300.2163 384.0220 482.3654 29841.2991 384.0220 482.3654
ENERGY: 300000 4.2159 24.5232 11.7118 0.0000 -10730.9097 1462.8471 0.0000 0.0000 1743.4602 -7484.1514 299.2833 -9227.6116 -7474.0506 299.1062 133.3764 255.4792 29771.9838 258.3089 337.6886
ENERGY: 600000 1.5952 24.3523 9.5430 0.0000 -10627.0027 1409.3040 0.0000 0.0000 1787.6258 -7394.5824 306.8648 -9182.2082 -7475.0832 302.0795 104.2289 63.1342 29958.3130 165.2385 215.9680
ENERGY: 900000 4.6744 23.2078 10.7475 0.0000 -10626.9501 1387.2493 0.0000 0.0000 1740.3295 -7460.7417 298.7459 -9201.0712 -7481.8019 300.9842 -549.4794 -445.9823 30252.2088 108.6804 164.7976
ENERGY: 1200000 5.8314 27.6798 12.0161 0.0000 -10619.6799 1362.6226 0.0000 0.0000 1743.4687 -7468.0614 299.2848 -9211.5301 -7478.6256 300.5684 -478.1245 -394.8579 30049.3373 -9.6919 48.0559
ENERGY: 1500000 2.9304 24.5263 12.6213 0.0000 -10705.7055 1437.1454 0.0000 0.0000 1758.3149 -7470.1674 301.8333 -9228.4822 -7476.2050 300.9312 58.6296 92.6036 29918.5776 -17.5421 38.5343
TCL: Running FEP window  10: Lambda1 0.44999999999999996 Lambda2 0.49999999999999994 [dLambda 0.04999999999999999]
TCL: Setting parameter firsttimestep to 0
TCL: Setting parameter alchLambda to 0.44999999999999996
Info: NONBONDED TABLE R-SQUARED SPACING: 0.0625
Info: NONBONDED TABLE SIZE: 705 POINTS
TCL: Setting parameter alchLambda2 to 0.49999999999999994
Info: NONBONDED TABLE R-SQUARED SPACING: 0.0625
Info: NONBONDED TABLE SIZE: 705 POINTS
TCL: Running for 1500000 steps
ETITLE: TS BOND ANGLE DIHED IMPRP ELECT VDW BOUNDARY MISC KINETIC TOTAL TEMP POTENTIAL TOTALAVG TEMPAVG PRESSURE GPRESSURE VOLUME PRESSAVG GPRESSAVG
ENERGY: 0 2.9304 24.5263 12.6213 0.0000 -10705.7055 1438.1421 0.0000 0.0000 1757.4646 -7470.0209 301.6873 -9227.4855 -7470.0209 301.6873 26.4847 108.8105 29918.5776 26.4847 108.8105
ENERGY: 300000 3.3590 22.8047 10.4935 0.0000 -10612.9345 1370.9942 0.0000 0.0000 1718.6030 -7486.6800 295.0163 -9205.2830 -7450.1532 302.7653 -787.3557 -742.4183 30433.5010 176.7074 224.4323
ENERGY: 600000 4.0094 27.0177 12.2709 0.0000 -10665.3721 1406.4711 0.0000 0.0000 1747.3028 -7468.3003 299.9430 -9215.6031 -7446.0683 299.3840 -411.1673 -285.4499 30192.4358 -48.6979 10.4053
ENERGY: 900000 3.2503 23.8724 10.1876 0.0000 -10619.7795 1362.7023 0.0000 0.0000 1746.0205 -7473.7464 299.7228 -9219.7669 -7433.1978 300.5415 -494.9297 -402.0931 29822.1906 105.0133 165.1450
ENERGY: 1200000 4.3423 25.1238 9.8793 0.0000 -10594.3229 1362.9366 0.0000 0.0000 1755.7693 -7436.2716 301.3963 -9192.0408 -7426.1857 301.2627 -449.2769 -452.2805 30386.2515 120.1261 180.3354
ENERGY: 1500000 6.4644 23.3415 12.6737 0.0000 -10561.0186 1319.6958 0.0000 0.0000 1754.7367 -7444.1065 301.2191 -9198.8432 -7429.6520 301.5456 -924.9434 -850.3548 30174.4416 47.7092 105.8746
TCL: Running FEP window  11: Lambda1 0.49999999999999994 Lambda2 0.5499999999999999 [dLambda 0.04999999999999999]
TCL: Setting parameter firsttimestep to 0
TCL: Setting parameter alchLambda to 0.49999999999999994
Info: NONBONDED TABLE R-SQUARED SPACING: 0.0625
Info: NONBONDED TABLE SIZE: 705 POINTS
TCL: Setting parameter alchLambda2 to 0.5499999999999999
Info: NONBONDED TABLE R-SQUARED SPACING: 0.0625
Info: NONBONDED TABLE SIZE: 705 POINTS
TCL: Running for 1500000 steps
ETITLE: TS BOND ANGLE DIHED IMPRP ELECT VDW BOUNDARY MISC KINETIC TOTAL TEMP POTENTIAL TOTALAVG TEMPAVG PRESSURE GPRESSURE VOLUME PRESSAVG GPRESSAVG
ENERGY: 0 6.4643 23.3415 12.6737 0.0000 -10561.0182 1319.1063 0.0000 0.0000 1753.8435 -7445.5888 301.0657 -9199.4323 -7445.5888 301.0657 -935.9749 -848.2096 30174.4416 -935.9749 -848.2096
ENERGY: 300000 4.8941 28.9387 12.3439 0.0000 -10753.0150 1471.7659 0.0000 0.0000 1774.5548 -7460.5176 304.6210 -9235.0724 -7478.4496 299.7286 303.1164 371.1187 29912.2494 -390.4022 -317.1434
ENERGY: 600000 2.3308 28.9867 11.6389 0.0000 -10634.9205 1457.1622 0.0000 0.0000 1715.0405 -7419.7614 294.4048 -9134.8019 -7456.0048 299.8151 399.6191 467.1179 29947.0278 -176.3750 -121.4623
ENERGY: 900000 1.8166 26.0259 10.6990 0.0000 -10743.2135 1400.9604 0.0000 0.0000 1762.0391 -7541.6725 302.4726 -9303.7116 -7472.8298 299.2524 -452.2669 -445.7185 30025.8891 -289.2355 -252.3612
ENERGY: 1200000 6.2963 23.3316 11.7975 0.0000 -10712.1268 1479.7712 0.0000 0.0000 1787.2605 -7403.6697 306.8021 -9190.9301 -7465.9462 300.1524 382.4801 430.8170 30275.4221 -201.6308 -162.0819
ENERGY: 1500000 2.8711 23.0402 10.9244 0.0000 -10451.8612 1297.1328 0.0000 0.0000 1786.0023 -7331.8904 306.5861 -9117.8927 -7450.5033 300.9782 -747.8234 -765.7245 30335.2014 -188.2357 -143.8507
TCL: Running FEP window  12: Lambda1 0.5499999999999999 Lambda2 0.6    [dLambda 0.050000000000000044]
TCL: Setting parameter firsttimestep to 0
TCL: Setting parameter alchLambda to 0.5499999999999999
Info: NONBONDED TABLE R-SQUARED SPACING: 0.0625
Info: NONBONDED TABLE SIZE: 705 POINTS
TCL: Setting parameter alchLambda2 to 0.6
Info: NONBONDED TABLE R-SQUARED SPACING: 0.0625
Info: NONBONDED TABLE SIZE: 705 POINTS
TCL: Running for 1500000 steps
ETITLE: TS BOND ANGLE DIHED IMPRP ELECT VDW BOUNDARY MISC KINETIC TOTAL TEMP POTENTIAL TOTALAVG TEMPAVG PRESSURE GPRESSURE VOLUME PRESSAVG GPRESSAVG
ENERGY: 0 2.8711 23.0402 10.9244 0.0000 -10450.9435 1297.1225 0.0000 0.0000 1785.1251 -7331.8602 306.4356 -9116.9853 -7331.8602 306.4356 -839.0641 -755.1747 30335.2014 -839.0641 -755.1747
ENERGY: 300000 5.5324 23.1508 16.6229 0.0000 -10628.6307 1389.3741 0.0000 0.0000 1738.0642 -7455.8863 298.3570 -9193.9505 -7405.1017 303.0474 -322.4602 -248.2215 30053.9250 -354.7915 -291.7159
ENERGY: 600000 6.5735 24.8772 13.5871 0.0000 -10721.7753 1436.2122 0.0000 0.0000 1726.4007 -7514.1245 296.3549 -9240.5253 -7436.3315 300.3659 0.4755 93.1698 29988.3447 -235.8414 -180.1662
ENERGY: 900000 5.2918 26.4457 12.7239 0.0000 -10717.7348 1485.0425 0.0000 0.0000 1700.5005 -7487.7306 291.9088 -9188.2310 -7444.1284 299.2238 349.2469 383.7580 30450.9438 -99.3790 -39.1948
ENERGY: 1200000 1.9723 24.6409 12.5254 0.0000 -10615.3150 1357.6977 0.0000 0.0000 1754.1485 -7464.3302 301.1181 -9218.4787 -7441.2730 299.7885 -673.6405 -611.9547 30437.3403 -198.6189 -134.1021
ENERGY: 1500000 3.5455 22.9400 13.8783 0.0000 -10606.3630 1403.5406 0.0000 0.0000 1736.2244 -7426.2342 298.0412 -9162.4586 -7441.7045 300.0747 -198.5313 -75.5790 30254.8717 -185.6033 -111.9975
TCL: Running FEP window  13: Lambda1 0.6    Lambda2 0.65   [dLambda 0.050000000000000044]
TCL: Setting parameter firsttimestep to 0
TCL: Setting parameter alchLambda to 0.6
Info: NONBONDED TABLE R-SQUARED SPACING: 0.0625
Info: NONBONDED TABLE SIZE: 705 POINTS
TCL: Setting parameter alchLambda2 to 0.65
Info: NONBONDED TABLE R-SQUARED SPACING: 0.0625
Info: NONBONDED TABLE SIZE: 705 POINTS
TCL: Running for 1500000 steps
ETITLE: TS BOND ANGLE DIHED IMPRP ELECT VDW BOUNDARY MISC KINETIC TOTAL TEMP POTENTIAL TOTALAVG TEMPAVG PRESSURE GPRESSURE VOLUME PRESSAVG GPRESSAVG
ENERGY: 0 3.5455 22.9400 13.8783 0.0000 -10606.3260 1403.4176 0.0000 0.0000 1735.3805 -7427.1641 297.8964 -9162.5446 -7427.1641 297.8964 -142.5166 -65.8061 30254.8717 -142.5166 -65.8061
ENERGY: 300000 4.0920 21.9196 12.0840 0.0000 -10670.6326 1412.9561 0.0000 0.0000 1798.5368 -7421.0441 308.7378 -9219.5809 -7434.2384 302.2463 -240.5767 -171.3023 30447.0072 -334.4707 -276.7680
ENERGY: 600000 3.7300 25.8692 10.8775 0.0000 -10532.9268 1348.5166 0.0000 0.0000 1738.8670 -7405.0665 298.4949 -9143.9335 -7431.5606 300.9131 -674.2325 -575.4702 30415.6462 -417.0898 -358.3964
ENERGY: 900000 4.3464 24.3956 16.4955 0.0000 -10593.8557 1365.7841 0.0000 0.0000 1706.3721 -7476.4621 292.9168 -9182.8341 -7445.9443 300.0548 -662.6142 -551.9445 30194.9475 -367.2708 -303.6630
ENERGY: 1200000 6.2118 25.1984 10.3263 0.0000 -10714.8793 1480.3789 0.0000 0.0000 1742.9229 -7449.8409 299.1911 -9192.7638 -7444.4967 300.5200 777.2921 902.4942 29517.5206 -226.9583 -160.5571
ENERGY: 1500000 4.3858 24.3545 13.8804 0.0000 -10718.4597 1466.4468 0.0000 0.0000 1719.8391 -7489.5531 295.2285 -9209.3922 -7437.6144 301.2558 419.0914 521.4605 29998.0839 -159.4969 -93.1649
TCL: Running FEP window  14: Lambda1 0.65   Lambda2 0.7000000000000001 [dLambda 0.050000000000000044]
TCL: Setting parameter firsttimestep to 0
TCL: Setting parameter alchLambda to 0.65
Info: NONBONDED TABLE R-SQUARED SPACING: 0.0625
Info: NONBONDED TABLE SIZE: 705 POINTS
TCL: Setting parameter alchLambda2 to 0.7000000000000001
Info: NONBONDED TABLE R-SQUARED SPACING: 0.0625
Info: NONBONDED TABLE SIZE: 705 POINTS
TCL: Running for 1500000 steps
ETITLE: TS BOND ANGLE DIHED IMPRP ELECT VDW BOUNDARY MISC KINETIC TOTAL TEMP POTENTIAL TOTALAVG TEMPAVG PRESSURE GPRESSURE VOLUME PRESSAVG GPRESSAVG
ENERGY: 0 4.3858 24.3545 13.8804 0.0000 -10719.4564 1466.8993 0.0000 0.0000 1718.9662 -7490.9701 295.0787 -9209.9363 -7490.9701 295.0787 442.6668 533.3676 29998.0839 442.6668 533.3676
ENERGY: 300000 10.0923 25.9028 15.7034 0.0000 -10702.4113 1440.5613 0.0000 0.0000 1772.8054 -7437.3461 304.3207 -9210.1515 -7442.8694 304.4931 210.7137 296.5466 29849.4203 182.4605 253.1562
ENERGY: 600000 6.6290 23.5505 12.8562 0.0000 -10718.2864 1453.0311 0.0000 0.0000 1803.6300 -7418.5896 309.6121 -9222.2196 -7434.1557 304.7017 627.1129 604.5231 29839.8901 374.5778 439.8966
ENERGY: 900000 1.6576 24.1232 12.9624 0.0000 -10758.0480 1434.8145 0.0000 0.0000 1703.3849 -7581.1054 292.4040 -9284.4903 -7461.5200 301.6040 -110.0650 -82.5854 30041.2211 324.5301 386.0470
ENERGY: 1200000 2.8914 23.9582 12.6390 0.0000 -10655.5543 1434.9298 0.0000 0.0000 1779.1534 -7401.9825 305.4104 -9181.1359 -7452.1821 301.9945 234.9606 292.7958 30310.5318 206.8440 264.8462
ENERGY: 1500000 2.9356 24.8529 11.9709 0.0000 -10677.7539 1399.9870 0.0000 0.0000 1703.8460 -7534.1615 292.4831 -9238.0075 -7460.9529 301.4249 -291.3633 -235.2686 29926.7135 110.8770 168.7978
TCL: Running FEP window  15: Lambda1 0.7000000000000001 Lambda2 0.7500000000000001 [dLambda 0.050000000000000044]
TCL: Setting parameter firsttimestep to 0
TCL: Setting parameter alchLambda to 0.7000000000000001
Info: NONBONDED TABLE R-SQUARED SPACING: 0.0625
Info: NONBONDED TABLE SIZE: 705 POINTS
TCL: Setting parameter alchLambda2 to 0.7500000000000001
Info: NONBONDED TABLE R-SQUARED SPACING: 0.0625
Info: NONBONDED TABLE SIZE: 705 POINTS
TCL: Running for 1500000 steps
ETITLE: TS BOND ANGLE DIHED IMPRP ELECT VDW BOUNDARY MISC KINETIC TOTAL TEMP POTENTIAL TOTALAVG TEMPAVG PRESSURE GPRESSURE VOLUME PRESSAVG GPRESSAVG
ENERGY: 0 2.9356 24.8529 11.9709 0.0000 -10678.7825 1399.2056 0.0000 0.0000 1702.9750 -7536.8425 292.3336 -9239.8175 -7536.8425 292.3336 -306.4293 -233.2099 29926.7135 -306.4293 -233.2099
ENERGY: 300000 3.2685 21.1972 15.9983 0.0000 -10729.3588 1447.6646 0.0000 0.0000 1813.0036 -7428.2266 311.2212 -9241.2302 -7460.3419 301.3873 28.2012 70.4343 30199.9589 -163.0291 -88.2630
ENERGY: 600000 3.6960 22.8593 11.9397 0.0000 -10688.5432 1460.5195 0.0000 0.0000 1728.4989 -7461.0299 296.7151 -9189.5288 -7448.5997 301.2683 96.9486 96.1331 30483.5610 35.3948 92.3441
ENERGY: 900000 3.3858 26.9913 11.1945 0.0000 -10645.3012 1399.8694 0.0000 0.0000 1712.3699 -7491.4903 293.9464 -9203.8602 -7453.3811 300.0684 -456.0287 -309.2798 30212.2529 -143.1274 -80.2104
ENERGY: 1200000 3.0594 23.9234 12.1771 0.0000 -10602.4513 1377.2457 0.0000 0.0000 1808.0104 -7378.0355 310.3640 -9186.0459 -7449.4850 300.1976 -291.8597 -265.5251 30228.2489 -41.8065 12.7210
ENERGY: 1500000 3.4829 27.6329 11.6913 0.0000 -10671.8355 1441.5139 0.0000 0.0000 1758.6939 -7428.8205 301.8984 -9187.5145 -7451.8723 299.9466 320.1186 375.7262 29900.2359 -0.5087 52.4514
TCL: Running FEP window  16: Lambda1 0.7500000000000001 Lambda2 0.8000000000000002 [dLambda 0.050000000000000044]
TCL: Setting parameter firsttimestep to 0
TCL: Setting parameter alchLambda to 0.7500000000000001
Info: NONBONDED TABLE R-SQUARED SPACING: 0.0625
Info: NONBONDED TABLE SIZE: 705 POINTS
TCL: Setting parameter alchLambda2 to 0.8000000000000002
Info: NONBONDED TABLE R-SQUARED SPACING: 0.0625
Info: NONBONDED TABLE SIZE: 705 POINTS
TCL: Running for 1500000 steps
ETITLE: TS BOND ANGLE DIHED IMPRP ELECT VDW BOUNDARY MISC KINETIC TOTAL TEMP POTENTIAL TOTALAVG TEMPAVG PRESSURE GPRESSURE VOLUME PRESSAVG GPRESSAVG
ENERGY: 0 3.4829 27.6329 11.6913 0.0000 -10673.0310 1442.1112 0.0000 0.0000 1757.8579 -7430.2548 301.7549 -9188.1128 -7430.2548 301.7549 304.2759 391.9302 29900.2359 304.2759 391.9302
ENERGY: 300000 3.7620 24.0458 13.6418 0.0000 -10629.2873 1369.0421 0.0000 0.0000 1768.4094 -7450.3862 303.5661 -9218.7957 -7442.8962 303.5783 -489.8974 -430.0097 30127.8015 -140.4223 -60.1024
ENERGY: 600000 1.6010 25.9644 9.9421 0.0000 -10572.0846 1345.4367 0.0000 0.0000 1692.2649 -7496.8755 290.4951 -9189.1403 -7448.0154 300.7082 -864.7454 -716.3550 30583.2491 -88.9718 -11.9863
ENERGY: 900000 2.1668 27.0771 12.0438 0.0000 -10743.7218 1469.3720 0.0000 0.0000 1777.6446 -7455.4175 305.1514 -9233.0621 -7440.4791 301.7401 371.4349 404.4121 29864.7453 -55.3428 13.4506
ENERGY: 1200000 9.3694 23.9943 13.9013 0.0000 -10760.5546 1460.2045 0.0000 0.0000 1744.8367 -7508.2485 299.5196 -9253.0852 -7447.0933 301.9325 187.3740 195.6870 30145.0999 43.4786 107.4713
ENERGY: 1500000 4.6910 22.6908 11.6009 0.0000 -10661.4781 1412.8157 0.0000 0.0000 1717.4755 -7492.2043 294.8228 -9209.6798 -7455.6920 301.2129 -563.3692 -539.0213 30906.0872 -12.6453 49.3040
TCL: Running FEP window  17: Lambda1 0.8000000000000002 Lambda2 0.8500000000000002 [dLambda 0.050000000000000044]
TCL: Setting parameter firsttimestep to 0
TCL: Setting parameter alchLambda to 0.8000000000000002
Info: NONBONDED TABLE R-SQUARED SPACING: 0.0625
Info: NONBONDED TABLE SIZE: 705 POINTS
TCL: Setting parameter alchLambda2 to 0.8500000000000002
Info: NONBONDED TABLE R-SQUARED SPACING: 0.0625
Info: NONBONDED TABLE SIZE: 705 POINTS
TCL: Running for 1500000 steps
ETITLE: TS BOND ANGLE DIHED IMPRP ELECT VDW BOUNDARY MISC KINETIC TOTAL TEMP POTENTIAL TOTALAVG TEMPAVG PRESSURE GPRESSURE VOLUME PRESSAVG GPRESSAVG
ENERGY: 0 4.6910 22.6908 11.6009 0.0000 -10662.9013 1412.2625 0.0000 0.0000 1716.6006 -7495.0555 294.6726 -9211.6561 -7495.0555 294.6726 -607.0444 -532.6518 30906.0872 -607.0444 -532.6518
ENERGY: 300000 3.2311 24.4592 14.6380 0.0000 -10694.1087 1441.0424 0.0000 0.0000 1751.5015 -7459.2365 300.6637 -9210.7380 -7444.5790 299.4383 196.0866 292.2879 30140.9000 -161.3722 -78.8515
ENERGY: 600000 2.2280 24.2331 10.6487 0.0000 -10660.5893 1415.0472 0.0000 0.0000 1777.6256 -7430.8066 305.1482 -9208.4323 -7437.1560 300.9449 -106.6892 0.2579 30089.4689 -137.2942 -35.7257
ENERGY: 900000 6.5389 24.8324 13.4292 0.0000 -10673.8761 1423.0529 0.0000 0.0000 1786.1858 -7419.8368 306.6176 -9206.0227 -7441.5355 302.1169 47.6278 83.9080 29984.7548 14.2199 92.0318
ENERGY: 1200000 4.0039 23.1975 11.9417 0.0000 -10618.4957 1398.8596 0.0000 0.0000 1700.7977 -7479.6953 291.9599 -9180.4930 -7449.0626 302.2570 -325.2917 -201.2040 30398.2468 -59.9022 21.1589
ENERGY: 1500000 4.0063 26.0940 10.6026 0.0000 -10671.8431 1407.0552 0.0000 0.0000 1741.8845 -7482.2005 299.0128 -9224.0850 -7445.5713 302.4425 -218.0071 -185.3439 30127.1381 -14.9564 58.1800
TCL: Running FEP window  18: Lambda1 0.8500000000000002 Lambda2 0.9000000000000002 [dLambda 0.050000000000000044]
TCL: Setting parameter firsttimestep to 0
TCL: Setting parameter alchLambda to 0.8500000000000002
Info: NONBONDED TABLE R-SQUARED SPACING: 0.0625
Info: NONBONDED TABLE SIZE: 705 POINTS
TCL: Setting parameter alchLambda2 to 0.9000000000000002
Info: NONBONDED TABLE R-SQUARED SPACING: 0.0625
Info: NONBONDED TABLE SIZE: 705 POINTS
TCL: Running for 1500000 steps
ETITLE: TS BOND ANGLE DIHED IMPRP ELECT VDW BOUNDARY MISC KINETIC TOTAL TEMP POTENTIAL TOTALAVG TEMPAVG PRESSURE GPRESSURE VOLUME PRESSAVG GPRESSAVG
ENERGY: 0 4.0063 26.0940 10.6026 0.0000 -10675.1672 1408.4327 0.0000 0.0000 1741.0365 -7484.9950 298.8673 -9226.0316 -7484.9950 298.8673 -260.1948 -162.3753 30127.1381 -260.1948 -162.3753
ENERGY: 300000 2.6144 23.1921 11.7716 0.0000 -10790.6535 1472.9364 0.0000 0.0000 1695.5926 -7584.5465 291.0664 -9280.1391 -7511.0463 295.1055 249.2962 309.3066 29952.9163 -20.2899 40.5927
ENERGY: 600000 3.0050 25.3972 12.2683 0.0000 -10639.5788 1385.0138 0.0000 0.0000 1750.7408 -7463.1536 300.5331 -9213.8944 -7491.8317 295.6858 -155.0309 -76.0561 29780.4211 -50.7556 14.8387
ENERGY: 900000 6.0317 24.0619 10.4455 0.0000 -10575.9371 1392.4105 0.0000 0.0000 1721.9296 -7421.0578 295.5874 -9142.9874 -7474.7511 295.6151 -48.2814 56.4545 30114.3365 -44.2887 27.4128
ENERGY: 1200000 3.0093 24.5258 11.0401 0.0000 -10727.9305 1417.7230 0.0000 0.0000 1722.6803 -7548.9520 295.7162 -9271.6322 -7486.3589 295.8892 -347.6754 -256.3561 30302.2170 -92.2908 -23.4100
ENERGY: 1500000 6.9123 26.7748 10.3571 0.0000 -10634.4817 1387.1649 0.0000 0.0000 1810.1597 -7393.1130 310.7330 -9203.2727 -7478.3734 297.2134 -213.8976 -175.5016 30280.9753 -126.6353 -66.1206
TCL: Running FEP window  19: Lambda1 0.9000000000000002 Lambda2 0.9500000000000003 [dLambda 0.050000000000000044]
TCL: Setting parameter firsttimestep to 0
TCL: Setting parameter alchLambda to 0.9000000000000002
Info: NONBONDED TABLE R-SQUARED SPACING: 0.0625
Info: NONBONDED TABLE SIZE: 705 POINTS
TCL: Setting parameter alchLambda2 to 0.9500000000000003
Info: NONBONDED TABLE R-SQUARED SPACING: 0.0625
Info: NONBONDED TABLE SIZE: 705 POINTS
TCL: Running for 1500000 steps
ETITLE: TS BOND ANGLE DIHED IMPRP ELECT VDW BOUNDARY MISC KINETIC TOTAL TEMP POTENTIAL TOTALAVG TEMPAVG PRESSURE GPRESSURE VOLUME PRESSAVG GPRESSAVG
ENERGY: 0 6.9123 26.7748 10.3571 0.0000 -10637.3636 1387.6444 0.0000 0.0000 1809.2759 -7396.3991 310.5813 -9205.6750 -7396.3991 310.5813 -246.6639 -161.3466 30280.9753 -246.6639 -161.3466
ENERGY: 300000 2.5408 25.7807 10.9022 0.0000 -10688.3127 1463.5810 0.0000 0.0000 1787.4326 -7398.0754 306.8317 -9185.5080 -7422.6011 305.2821 483.7401 605.9005 29660.3738 -137.1286 -68.1137
ENERGY: 600000 3.3325 25.4486 13.1638 0.0000 -10579.2164 1334.6626 0.0000 0.0000 1717.3417 -7485.2672 294.7998 -9202.6088 -7461.5458 302.2166 -713.4677 -658.3149 30301.5821 -156.4457 -89.2245
ENERGY: 900000 6.3532 22.7183 14.0065 0.0000 -10656.8193 1414.1667 0.0000 0.0000 1774.4363 -7425.1383 304.6007 -9199.5745 -7464.0188 300.4625 -41.4274 60.5592 29882.9964 -74.7208 1.5050
ENERGY: 1200000 5.2204 24.3017 14.9806 0.0000 -10676.7130 1420.1823 0.0000 0.0000 1819.0814 -7392.9466 312.2645 -9212.0280 -7451.7248 301.7329 219.3535 209.2256 30057.9967 -101.7704 -34.4914
ENERGY: 1500000 3.6896 24.5289 11.4885 0.0000 -10713.1536 1515.9603 0.0000 0.0000 1729.8760 -7427.6103 296.9515 -9157.4863 -7449.2280 300.6585 713.5116 727.7926 30341.8266 -36.3153 27.0146
TCL: Running FEP window  20: Lambda1 0.9500000000000003 Lambda2 1.0    [dLambda 0.04999999999999971]
TCL: Setting parameter firsttimestep to 0
TCL: Setting parameter alchLambda to 0.9500000000000003
Info: NONBONDED TABLE R-SQUARED SPACING: 0.0625
Info: NONBONDED TABLE SIZE: 705 POINTS
TCL: Setting parameter alchLambda2 to 1.0
Info: NONBONDED TABLE R-SQUARED SPACING: 0.0625
Info: NONBONDED TABLE SIZE: 705 POINTS
TCL: Running for 1500000 steps
ETITLE: TS BOND ANGLE DIHED IMPRP ELECT VDW BOUNDARY MISC KINETIC TOTAL TEMP POTENTIAL TOTALAVG TEMPAVG PRESSURE GPRESSURE VOLUME PRESSAVG GPRESSAVG
ENERGY: 0 3.6896 24.5289 11.4885 0.0000 -10716.9892 1519.8154 0.0000 0.0000 1729.0413 -7428.4256 296.8082 -9157.4668 -7428.4256 296.8082 699.6311 778.8370 30341.8266 699.6311 778.8370
ENERGY: 300000 5.6469 23.9148 13.2864 0.0000 -10661.5749 1403.3052 0.0000 0.0000 1729.0995 -7486.3221 296.8182 -9215.4216 -7486.7406 296.6300 56.2646 112.7623 29783.0569 14.6360 90.4920
ENERGY: 600000 3.8878 23.5340 10.1161 0.0000 -10698.1596 1419.0385 0.0000 0.0000 1756.7499 -7484.8334 301.5647 -9241.5833 -7463.5772 300.7274 226.1066 218.6797 29692.7269 28.0443 101.1032
ENERGY: 900000 5.5970 23.3830 10.6649 0.0000 -10741.2059 1428.1062 0.0000 0.0000 1756.7762 -7516.6788 301.5692 -9273.4549 -7473.4799 300.3036 -225.5323 -149.3814 30004.1699 81.8152 156.3194
ENERGY: 1200000 3.1677 25.0168 10.7212 0.0000 -10653.8229 1423.6342 0.0000 0.0000 1751.2956 -7439.9874 300.6284 -9191.2830 -7469.9824 299.6922 158.0770 189.8825 30154.5717 78.5500 144.0360
ENERGY: 1500000 4.8376 24.3791 8.8424 0.0000 -10606.1772 1350.1854 0.0000 0.0000 1790.6563 -7427.2765 307.3850 -9217.9327 -7472.7845 300.0034 -411.6560 -353.0256 29857.4159 10.7262 76.0577
TCL: Exiting due to exit command.
