Info: SIMULATION PARAMETERS:
Info: TIMESTEP               2
Info: NUMBER OF STEPS        0
Info: STEPS PER CYCLE        10
Info: PERIODIC CELL BASIS 1  39.806 0 0
Info: PERIODIC CELL BASIS 2  0 40.343 0
Info: PERIODIC CELL BASIS 3  0 0 40.136
Info: PERIODIC CELL CENTER   0 0 0
Info: WRAPPING WATERS AROUND PERIODIC BOUNDARIES ON OUTPUT.
Info: WRAPPING ALL CLUSTERS AROUND PERIODIC BOUNDARIES ON OUTPUT.
Info: FIRST LDB TIMESTEP     50
Info: LAST LDB TIMESTEP     -1
Info: HOM BACKGROUND SCALING 1
Info: PME BACKGROUND SCALING 1
Info: MIN ATOMS PER PATCH    40
Info: EMPTY PATCH LOAD       40 ATOMS
Info: INITIAL TEMPERATURE    300
Info: CENTER OF MASS MOVING INITIALLY? NO
Info: DIELECTRIC             1
Info: EXCLUDE                SCALED ONE-FOUR
Info: 1-4 ELECTROSTATICS SCALED BY 0.833333
Info: MODIFIED 1-4 VDW PARAMETERS WILL BE USED
Info: DCD FILENAME           mobley_1328465_min.dcd
Info: DCD FREQUENCY          5000
Info: DCD FIRST STEP         5000
Info: DCD FILE WILL CONTAIN UNIT CELL DATA
Info: XST FILENAME           mobley_1328465_min.xst
Info: XST FREQUENCY          5000
Info: NO VELOCITY DCD OUTPUT
Info: NO FORCE DCD OUTPUT
Info: OUTPUT FILENAME        mobley_1328465_min
Info: BINARY OUTPUT FILES WILL BE USED
Info: RESTART FILENAME       mobley_1328465_min.restart
Info: RESTART FREQUENCY      5000
Info: BINARY RESTART FILES WILL BE USED
Info: CUTOFF                 9
Info: PAIRLIST DISTANCE      11
Info: PAIRLIST SHRINK RATE   0.01
Info: PAIRLIST GROW RATE     0.01
Info: PAIRLIST TRIGGER       0.3
Info: PAIRLISTS PER CYCLE    2
Info: PAIRLISTS ENABLED
Info: MARGIN                 8
Info: HYDROGEN GROUP CUTOFF  2.5
Info: PATCH DIMENSION        21.5
Info: ENERGY OUTPUT STEPS    5000
Info: ENERGY EVALUATION STEPS    5000
Info: OUTPUT ENERGY PRECISION 4
Info: CROSSTERM ENERGY INCLUDED IN DIHEDRAL
Info: TIMING OUTPUT STEPS    50000
Info: PRESSURE OUTPUT STEPS  5000
Info: LANGEVIN DYNAMICS ACTIVE
Info: LANGEVIN TEMPERATURE   300
Info: LANGEVIN USING BBK INTEGRATOR
Info: LANGEVIN DAMPING COEFFICIENT IS 1 INVERSE PS
Info: LANGEVIN DYNAMICS APPLIED TO HYDROGENS
Info: LANGEVIN PISTON PRESSURE CONTROL ACTIVE
Info:        TARGET PRESSURE IS 1.01325 BAR
Info:     OSCILLATION PERIOD IS 50 FS
Info:             DECAY TIME IS 25 FS
Info:     PISTON TEMPERATURE IS 300 K
Info:       PRESSURE CONTROL IS GROUP-BASED
Info:    INITIAL STRAIN RATE IS 0 0 0
Info:       CELL FLUCTUATION IS ISOTROPIC
Info: PARTICLE MESH EWALD (PME) ACTIVE
Info: PME TOLERANCE               1e-06
Info: PME EWALD COEFFICIENT       0.348832
Info: PME INTERPOLATION ORDER     4
Info: PME GRID DIMENSIONS         40 44 44
Info: PME MAXIMUM GRID SPACING    1
Info: FULL ELECTROSTATIC EVALUATION FREQUENCY      2
Info: USING VERLET I (r-RESPA) MTS SCHEME.
Info: C1 SPLITTING OF LONG RANGE ELECTROSTATICS
Info: PLACING ATOMS IN PATCHES BY HYDROGEN GROUPS
Info: RIGID BONDS TO HYDROGEN : ALL
Info:         ERROR TOLERANCE : 1e-08
Info:          MAX ITERATIONS : 100
Info: RIGID WATER USING SETTLE ALGORITHM
Info: RANDOM NUMBER SEED     1741311215
Info: USE HYDROGEN BONDS?    NO
Info: Using AMBER format force field!
Info: AMBER PARM FILE        mobley_1328465.prmtop
Info: COORDINATE PDB         mobley_1328465.pdb
Info: Exclusions will be read from PARM file!
Info: SCNB (VDW SCALING)     2
Info: USING ARITHMETIC MEAN TO COMBINE L-J SIGMA PARAMETERS
Info: SUMMARY OF PARAMETERS:
Info: 6 BONDS
Info: 7 ANGLES
Info:   7 HARMONIC
Info:   0 COSINE-BASED
Info: 4 DIHEDRAL
Info: 0 IMPROPER
Info: 0 CROSSTERM
Info: 0 VDW
Info: 21 VDW_PAIRS
Info: 0 NBTHOLE_PAIRS
Info: STRUCTURE SUMMARY:
Info: 4682 ATOMS
Info: 4681 BONDS
Info: 12 ANGLES
Info: 13 DIHEDRALS
Info: 0 IMPROPERS
Info: 0 CROSSTERMS
Info: 4702 EXCLUSIONS
Info: 4677 RIGID BONDS
Info: 9369 DEGREES OF FREEDOM
Info: 1563 HYDROGEN GROUPS
Info: 3 ATOMS IN LARGEST HYDROGEN GROUP
Info: 1563 MIGRATION GROUPS
Info: 3 ATOMS IN LARGEST MIGRATION GROUP
Info: TOTAL MASS = 28202.3 amu
Info: TOTAL CHARGE = -1.86265e-08 e
Info: MASS DENSITY = 0.726596 g/cm^3
Info: ATOM DENSITY = 0.0726408 atoms/A^3
Info: ADDED 0 IMPLICIT EXCLUSIONS
Info: NONBONDED TABLE R-SQUARED SPACING: 0.0625
Info: NONBONDED TABLE SIZE: 705 POINTS
Info: REMOVING COM VELOCITY 0.0194906 0.0251299 -0.0443735
TCL: Minimizing for 2000 steps
ETITLE: TS BOND ANGLE DIHED IMPRP ELECT VDW BOUNDARY MISC KINETIC TOTAL TEMP POTENTIAL TOTAL3 TEMPAVG PRESSURE GPRESSURE VOLUME PRESSAVG GPRESSAVG
ENERGY: 0 0.3831 0.3672 0.8005 0.0000 -14688.2560 1687.8014 0.0000 0.0000 0.0000 -12998.9038 0.0000 -12998.9038 -12998.9038 0.0000 11276.2229 -15933.8773 64454.1398 11276.2229 -15933.8773
ENERGY: 400 4.5266 1.2032 0.7521 0.0000 -19931.9400 3063.1077 0.0000 0.0000 0.0000 -16862.3504 0.0000 -16862.3504 -16862.3504 0.0000 16795.3362 16533.7756 64454.1398 16795.3362 16533.7756
ENERGY: 800 0.6017 1.2002 0.7775 0.0000 -20929.2458 3458.1975 0.0000 0.0000 0.0000 -17468.4689 0.0000 -17468.4689 -17468.4689 0.0000 18801.4997 18534.4031 64454.1398 18801.4997 18534.4031
ENERGY: 1200 2.7177 0.8939 0.7739 0.0000 -21369.4403 3699.2327 0.0000 0.0000 0.0000 -17665.8220 0.0000 -17665.8220 -17665.8220 0.0000 20033.7281 19745.6133 64454.1398 20033.7281 19745.6133
ENERGY: 1600 0.1703 0.2247 0.7720 0.0000 -21514.4299 3755.6130 0.0000 0.0000 0.0000 -17757.6499 0.0000 -17757.6499 -17757.6499 0.0000 20328.1298 20053.5102 64454.1398 20328.1298 20053.5102
ENERGY: 2000 0.1008 0.2553 0.7665 0.0000 -21581.8702 3787.8231 0.0000 0.0000 0.0000 -17792.9246 0.0000 -17792.9246 -17792.9246 0.0000 20515.5894 20229.3232 64454.1398 20515.5894 20229.3232
TCL: Exiting due to exit command.
Info: NAMD 3.0.1 for Linux-x86_64-multicore
Info: Please visit http://www.ks.uiuc.edu/Research/namd/
Info: for updates, documentation, and support information.
Info: Please cite Phillips et al., J. Chem. Phys. 153:044130 (2020) doi:10.1063/5.0014475
Info: in all publications reporting results obtained with NAMD.
Info: Based on Charm++/Converse 80000 for multicore-linux-x86_64-gcc
Info: Built Mon Oct 14 11:11:06 CDT 2024 by dhardy on athine.ks.uiuc.edu
Info: 1 NAMD  3.0.1  Linux-x86_64-multicore  16    k006  z5358697
Info: Running on 16 processors, 1 nodes, 1 physical nodes.
Info: CPU topology information available.
Info: Charm++/Converse parallel runtime startup completed at 0.00964774 s
Info: 1043.45 MB of memory in use based on /proc/self/stat
Info: Configuration file is mobley_1328465_equil.namd
Info: Working in the current directory /srv/scratch/z5358697/prod_prep/1328465
TCL: Running 25000 steps at 30 kelvin.
TCL: Suspending until startup complete.
Info: SIMULATION PARAMETERS:
Info: TIMESTEP               2
Info: NUMBER OF STEPS        0
Info: STEPS PER CYCLE        10
Info: PERIODIC CELL BASIS 1  39.806 0 0
Info: PERIODIC CELL BASIS 2  0 40.343 0
Info: PERIODIC CELL BASIS 3  0 0 40.136
Info: PERIODIC CELL CENTER   0 0 0
Info: WRAPPING WATERS AROUND PERIODIC BOUNDARIES ON OUTPUT.
Info: WRAPPING ALL CLUSTERS AROUND PERIODIC BOUNDARIES ON OUTPUT.
Info: FIRST LDB TIMESTEP     50
Info: LAST LDB TIMESTEP     -1
Info: HOM BACKGROUND SCALING 1
Info: PME BACKGROUND SCALING 1
Info: MIN ATOMS PER PATCH    40
Info: EMPTY PATCH LOAD       40 ATOMS
Info: INITIAL TEMPERATURE    300
Info: CENTER OF MASS MOVING INITIALLY? NO
Info: DIELECTRIC             1
Info: EXCLUDE                SCALED ONE-FOUR
Info: 1-4 ELECTROSTATICS SCALED BY 0.833333
Info: MODIFIED 1-4 VDW PARAMETERS WILL BE USED
Info: DCD FILENAME           mobley_1328465_equil.dcd
Info: DCD FREQUENCY          5000
Info: DCD FIRST STEP         5000
Info: DCD FILE WILL CONTAIN UNIT CELL DATA
Info: XST FILENAME           mobley_1328465_equil.xst
Info: XST FREQUENCY          5000
Info: NO VELOCITY DCD OUTPUT
Info: NO FORCE DCD OUTPUT
Info: OUTPUT FILENAME        mobley_1328465_equil
Info: BINARY OUTPUT FILES WILL BE USED
Info: RESTART FILENAME       mobley_1328465_equil.restart
Info: RESTART FREQUENCY      5000
Info: BINARY RESTART FILES WILL BE USED
Info: CUTOFF                 9
Info: PAIRLIST DISTANCE      11
Info: PAIRLIST SHRINK RATE   0.01
Info: PAIRLIST GROW RATE     0.01
Info: PAIRLIST TRIGGER       0.3
Info: PAIRLISTS PER CYCLE    2
Info: PAIRLISTS ENABLED
Info: MARGIN                 8
Info: HYDROGEN GROUP CUTOFF  2.5
Info: PATCH DIMENSION        21.5
Info: ENERGY OUTPUT STEPS    5000
Info: ENERGY EVALUATION STEPS    5000
Info: OUTPUT ENERGY PRECISION 4
Info: CROSSTERM ENERGY INCLUDED IN DIHEDRAL
Info: TIMING OUTPUT STEPS    50000
Info: PRESSURE OUTPUT STEPS  5000
Info: LANGEVIN DYNAMICS ACTIVE
Info: LANGEVIN TEMPERATURE   30
Info: LANGEVIN USING BBK INTEGRATOR
Info: LANGEVIN DAMPING COEFFICIENT IS 1 INVERSE PS
Info: LANGEVIN DYNAMICS APPLIED TO HYDROGENS
Info: LANGEVIN PISTON PRESSURE CONTROL ACTIVE
Info:        TARGET PRESSURE IS 1.01325 BAR
Info:     OSCILLATION PERIOD IS 50 FS
Info:             DECAY TIME IS 25 FS
Info:     PISTON TEMPERATURE IS 300 K
Info:       PRESSURE CONTROL IS GROUP-BASED
Info:    INITIAL STRAIN RATE IS 0 0 0
Info:       CELL FLUCTUATION IS ISOTROPIC
Info: PARTICLE MESH EWALD (PME) ACTIVE
Info: PME TOLERANCE               1e-06
Info: PME EWALD COEFFICIENT       0.348832
Info: PME INTERPOLATION ORDER     4
Info: PME GRID DIMENSIONS         40 44 44
Info: PME MAXIMUM GRID SPACING    1
Info: FULL ELECTROSTATIC EVALUATION FREQUENCY      2
Info: USING VERLET I (r-RESPA) MTS SCHEME.
Info: C1 SPLITTING OF LONG RANGE ELECTROSTATICS
Info: PLACING ATOMS IN PATCHES BY HYDROGEN GROUPS
Info: RIGID BONDS TO HYDROGEN : ALL
Info:         ERROR TOLERANCE : 1e-08
Info:          MAX ITERATIONS : 100
Info: RIGID WATER USING SETTLE ALGORITHM
Info: RANDOM NUMBER SEED     1741311233
Info: USE HYDROGEN BONDS?    NO
Info: Using AMBER format force field!
Info: AMBER PARM FILE        mobley_1328465.prmtop
Info: COORDINATE PDB         mobley_1328465.pdb
Info: Exclusions will be read from PARM file!
Info: SCNB (VDW SCALING)     2
Info: USING ARITHMETIC MEAN TO COMBINE L-J SIGMA PARAMETERS
Info: BINARY COORDINATES     mobley_1328465_min.coor
Info: SUMMARY OF PARAMETERS:
Info: 6 BONDS
Info: 7 ANGLES
Info:   7 HARMONIC
Info:   0 COSINE-BASED
Info: 4 DIHEDRAL
Info: 0 IMPROPER
Info: 0 CROSSTERM
Info: 0 VDW
Info: 21 VDW_PAIRS
Info: 0 NBTHOLE_PAIRS
Info: STRUCTURE SUMMARY:
Info: 4682 ATOMS
Info: 4681 BONDS
Info: 12 ANGLES
Info: 13 DIHEDRALS
Info: 0 IMPROPERS
Info: 0 CROSSTERMS
Info: 4702 EXCLUSIONS
Info: 4677 RIGID BONDS
Info: 9369 DEGREES OF FREEDOM
Info: 1563 HYDROGEN GROUPS
Info: 3 ATOMS IN LARGEST HYDROGEN GROUP
Info: 1563 MIGRATION GROUPS
Info: 3 ATOMS IN LARGEST MIGRATION GROUP
Info: TOTAL MASS = 28202.3 amu
Info: TOTAL CHARGE = -1.86265e-08 e
Info: MASS DENSITY = 0.726596 g/cm^3
Info: ATOM DENSITY = 0.0726408 atoms/A^3
Info: ADDED 0 IMPLICIT EXCLUSIONS
Info: NONBONDED TABLE R-SQUARED SPACING: 0.0625
Info: NONBONDED TABLE SIZE: 705 POINTS
Info: REMOVING COM VELOCITY -0.0921616 -0.0891091 -0.0708879
TCL: Running for 25000 steps
ETITLE: TS BOND ANGLE DIHED IMPRP ELECT VDW BOUNDARY MISC KINETIC TOTAL TEMP POTENTIAL TOTAL3 TEMPAVG PRESSURE GPRESSURE VOLUME PRESSAVG GPRESSAVG
ENERGY: 0 0.1008 0.2553 0.7665 0.0000 -21581.8702 3787.8231 0.0000 0.0000 2787.5369 -15005.3877 299.4455 -17792.9246 -15004.8511 299.4455 428.7564 469.8578 64454.1398 428.7564 469.8578
ENERGY: 5000 0.1389 0.4286 0.7784 0.0000 -22533.7274 3899.9154 0.0000 0.0000 286.7406 -18345.7255 30.8025 -18632.4661 -18344.8918 47.7983 -225.1028 -169.1203 45726.7256 3.4260 3.3302
ENERGY: 10000 0.0811 0.2999 0.7992 0.0000 -22689.7635 4036.9380 0.0000 0.0000 286.2790 -18365.3663 30.7529 -18651.6453 -18365.0103 30.1361 476.1155 533.0961 45595.0507 5.8718 5.9041
ENERGY: 15000 0.1982 0.3195 0.8914 0.0000 -22593.5898 3930.6733 0.0000 0.0000 287.4757 -18374.0317 30.8815 -18661.5074 -18373.1656 30.2211 -133.4213 -81.8178 45759.5444 5.6996 5.9471
ENERGY: 20000 0.1352 0.4711 1.1324 0.0000 -22564.0005 3894.9577 0.0000 0.0000 272.4172 -18394.8870 29.2639 -18667.3042 -18393.7940 30.0137 -325.8896 -264.9395 45797.0797 2.3422 2.5050
ENERGY: 25000 0.1005 0.5879 0.8008 0.0000 -22726.2621 4035.8294 0.0000 0.0000 272.3610 -18416.5824 29.2578 -18688.9434 -18415.9022 30.1288 431.6338 469.3591 45602.4240 6.8129 6.9439
TCL: Running 25000 steps at 60 kelvin.
TCL: Setting parameter langevinTemp to 60
TCL: Running for 25000 steps
ETITLE: TS BOND ANGLE DIHED IMPRP ELECT VDW BOUNDARY MISC KINETIC TOTAL TEMP POTENTIAL TOTAL3 TEMPAVG PRESSURE GPRESSURE VOLUME PRESSAVG GPRESSAVG
ENERGY: 25000 0.1005 0.5879 0.8008 0.0000 -22726.2621 4035.8294 0.0000 0.0000 272.2249 -18416.7185 29.2432 -18688.9434 -18416.1554 29.2432 421.5316 469.3090 45602.4240 421.5316 469.3090
ENERGY: 30000 0.4333 0.7524 0.8177 0.0000 -22260.2649 3832.3589 0.0000 0.0000 578.6072 -17847.2954 62.1557 -18425.9026 -17845.2581 57.1582 -69.1621 -42.5232 45972.6914 3.0065 3.0408
ENERGY: 35000 0.0941 0.4917 0.7860 0.0000 -22257.6081 3813.9909 0.0000 0.0000 562.5147 -17879.7308 60.4270 -18442.2455 -17878.8682 60.3444 -178.4105 -119.7155 45878.9304 3.9742 3.7242
ENERGY: 40000 0.2143 0.4984 0.7873 0.0000 -22364.8697 3893.5155 0.0000 0.0000 564.8632 -17904.9910 60.6793 -18469.8542 -17903.5669 59.9890 196.3633 249.0324 45661.8065 3.5764 3.6526
ENERGY: 45000 0.5316 0.5223 1.0594 0.0000 -22248.8686 3762.3141 0.0000 0.0000 557.7157 -17926.7255 59.9115 -18484.4413 -17925.4191 60.4144 -498.9109 -431.1509 45644.6944 2.9129 3.0238
ENERGY: 50000 0.6409 0.7671 0.7754 0.0000 -22192.3958 3679.6747 0.0000 0.0000 549.8438 -17960.6938 59.0659 -18510.5376 -17958.5823 59.7076 -1023.3539 -959.8070 45830.1043 0.9338 0.8098
TCL: Running 25000 steps at 90 kelvin.
TCL: Setting parameter langevinTemp to 90
TCL: Running for 25000 steps
ETITLE: TS BOND ANGLE DIHED IMPRP ELECT VDW BOUNDARY MISC KINETIC TOTAL TEMP POTENTIAL TOTAL3 TEMPAVG PRESSURE GPRESSURE VOLUME PRESSAVG GPRESSAVG
ENERGY: 50000 0.6409 0.7671 0.7754 0.0000 -22192.3958 3679.6747 0.0000 0.0000 549.5693 -17960.9683 59.0364 -18510.5376 -17959.7544 59.0364 -1018.4162 -959.3597 45830.1043 -1018.4162 -959.3597
ENERGY: 55000 0.3899 1.0424 0.8351 0.0000 -21775.5911 3580.6596 0.0000 0.0000 856.1231 -17336.5410 91.9673 -18192.6641 -17333.5872 86.9183 -770.3003 -710.1917 46036.9861 4.6162 4.0513
ENERGY: 60000 0.5971 0.8123 0.8157 0.0000 -22105.2712 3825.7793 0.0000 0.0000 859.3476 -17417.9191 92.3137 -18277.2668 -17415.8528 90.3585 491.5699 538.0688 45436.8411 0.1052 0.1498
ENERGY: 65000 0.0991 0.7051 0.7723 0.0000 -21985.8037 3679.3289 0.0000 0.0000 842.2014 -17462.6969 90.4718 -18304.8983 -17460.1367 89.9932 -494.1205 -418.8299 45879.3409 4.1242 4.2968
ENERGY: 70000 0.0670 0.8190 0.9233 0.0000 -21975.9341 3673.1100 0.0000 0.0000 855.2525 -17445.7624 91.8738 -18301.0148 -17443.4379 89.7947 -508.1460 -463.1388 45843.5548 7.9715 7.9737
ENERGY: 75000 0.6291 1.3634 1.0688 0.0000 -22180.7162 3850.2475 0.0000 0.0000 846.6635 -17480.7439 90.9511 -18327.4074 -17478.3788 90.8232 271.0787 325.5247 45818.5907 3.4245 3.3267
TCL: Running 25000 steps at 120 kelvin.
TCL: Setting parameter langevinTemp to 120
TCL: Running for 25000 steps
ETITLE: TS BOND ANGLE DIHED IMPRP ELECT VDW BOUNDARY MISC KINETIC TOTAL TEMP POTENTIAL TOTAL3 TEMPAVG PRESSURE GPRESSURE VOLUME PRESSAVG GPRESSAVG
ENERGY: 75000 0.6291 1.3634 1.0688 0.0000 -22180.7162 3850.2475 0.0000 0.0000 846.2591 -17481.1483 90.9077 -18327.4074 -17479.3633 90.9077 279.0041 325.8165 45818.5907 279.0041 325.8165
ENERGY: 80000 0.2087 1.0949 0.9755 0.0000 -21504.8978 3466.1184 0.0000 0.0000 1111.3346 -16925.1657 119.3829 -18036.5003 -16920.9022 117.0859 -1104.1604 -1016.7564 46318.9335 5.9134 5.5998
ENERGY: 85000 0.1086 1.5459 0.7502 0.0000 -21700.3144 3654.9130 0.0000 0.0000 1109.1582 -16933.8384 119.1491 -18042.9967 -16931.6486 120.0688 -115.6514 -59.0543 46055.1591 1.6130 1.5422
ENERGY: 90000 0.1999 0.7802 0.8131 0.0000 -21748.4459 3686.5451 0.0000 0.0000 1102.4850 -16957.6226 118.4322 -18060.1076 -16955.7097 120.6879 154.8503 207.3535 45779.2444 4.6261 4.8476
ENERGY: 95000 0.3153 1.2847 0.7958 0.0000 -21986.6247 3854.2793 0.0000 0.0000 1130.2954 -16999.6542 121.4197 -18129.9496 -16997.2312 120.2791 935.4631 1011.7735 45431.8263 2.4299 2.4843
ENERGY: 100000 0.3657 1.1033 0.8056 0.0000 -21775.2545 3659.2453 0.0000 0.0000 1111.9085 -17001.8261 119.4445 -18113.7346 -16997.6314 119.6450 -88.1818 -65.1708 45875.4031 3.7454 3.3161
TCL: Running 25000 steps at 150 kelvin.
TCL: Setting parameter langevinTemp to 150
TCL: Running for 25000 steps
ETITLE: TS BOND ANGLE DIHED IMPRP ELECT VDW BOUNDARY MISC KINETIC TOTAL TEMP POTENTIAL TOTAL3 TEMPAVG PRESSURE GPRESSURE VOLUME PRESSAVG GPRESSAVG
ENERGY: 100000 0.3657 1.1033 0.8056 0.0000 -21775.2545 3659.2453 0.0000 0.0000 1111.3578 -17002.3768 119.3854 -18113.7346 -17000.1503 119.3854 -117.1091 -64.3206 45875.4031 -117.1091 -64.3206
ENERGY: 105000 0.2590 3.3176 0.8331 0.0000 -21376.9862 3589.0461 0.0000 0.0000 1383.8277 -16399.7027 148.6549 -17783.5304 -16396.5587 147.5435 354.9239 396.4557 45907.0584 1.7673 1.5438
ENERGY: 110000 0.9149 1.9544 0.7955 0.0000 -21320.6017 3564.4731 0.0000 0.0000 1424.3127 -16328.1512 153.0039 -17752.4638 -16323.8965 150.3585 312.6757 381.7396 45880.2325 2.2600 2.2248
ENERGY: 115000 0.7857 1.5424 0.8797 0.0000 -21401.9732 3598.9606 0.0000 0.0000 1378.0735 -16421.7313 148.0367 -17799.8048 -16419.8724 150.4101 374.6802 399.6193 45862.6759 2.7745 2.9514
ENERGY: 120000 0.8888 1.9637 0.9963 0.0000 -21364.8401 3492.3741 0.0000 0.0000 1380.4920 -16488.1253 148.2965 -17868.6172 -16483.6206 149.8113 -492.3951 -453.3248 46234.9525 1.6150 1.8472
ENERGY: 125000 0.1566 2.1246 0.8157 0.0000 -21279.6597 3409.8029 0.0000 0.0000 1415.9010 -16450.8588 152.1003 -17866.7598 -16445.4311 149.5154 -822.9449 -792.2803 46122.7709 5.5324 5.1124
TCL: Running 50000 steps at 180 kelvin.
TCL: Setting parameter langevinTemp to 180
TCL: Running for 50000 steps
ETITLE: TS BOND ANGLE DIHED IMPRP ELECT VDW BOUNDARY MISC KINETIC TOTAL TEMP POTENTIAL TOTAL3 TEMPAVG PRESSURE GPRESSURE VOLUME PRESSAVG GPRESSAVG
ENERGY: 125000 0.1566 2.1246 0.8157 0.0000 -21279.6597 3409.8029 0.0000 0.0000 1415.1944 -16451.5654 152.0244 -17866.7598 -16448.3423 152.0244 -845.3691 -791.2043 46122.7709 -845.3691 -791.2043
ENERGY: 135000 0.7423 2.3727 0.8133 0.0000 -20765.0666 3327.3263 0.0000 0.0000 1677.6277 -15756.1843 180.2157 -17433.8120 -15754.1930 180.9495 -242.6316 -203.8049 46134.7166 3.7916 4.0611
ENERGY: 145000 1.2532 0.8461 1.0849 0.0000 -20647.4012 3226.5989 0.0000 0.0000 1667.7986 -15749.8196 179.1599 -17417.6182 -15745.6173 181.8196 -857.1536 -769.0473 46382.2728 3.6993 3.3739
ENERGY: 155000 0.9394 3.1521 0.8892 0.0000 -20875.6651 3445.5492 0.0000 0.0000 1651.2814 -15773.8539 177.3855 -17425.1353 -15770.6526 179.2700 226.0139 262.8274 46444.5254 3.1799 3.6774
ENERGY: 165000 0.2126 2.7009 0.7637 0.0000 -20830.9741 3406.6803 0.0000 0.0000 1710.6924 -15709.9242 183.7677 -17420.6166 -15707.2706 182.4196 253.5219 277.7855 46091.1295 5.8559 5.7503
ENERGY: 175000 1.2112 1.4980 0.8198 0.0000 -20932.1660 3406.0209 0.0000 0.0000 1672.6016 -15850.0146 179.6758 -17522.6162 -15844.8675 180.2362 -84.7983 -2.2382 46118.2540 1.5387 1.7333
TCL: Running 50000 steps at 210 kelvin.
TCL: Setting parameter langevinTemp to 210
TCL: Running for 50000 steps
ETITLE: TS BOND ANGLE DIHED IMPRP ELECT VDW BOUNDARY MISC KINETIC TOTAL TEMP POTENTIAL TOTAL3 TEMPAVG PRESSURE GPRESSURE VOLUME PRESSAVG GPRESSAVG
ENERGY: 175000 1.2112 1.4980 0.8198 0.0000 -20932.1660 3406.0209 0.0000 0.0000 1671.7736 -15850.8426 179.5869 -17522.6162 -15847.4252 179.5869 -69.7261 -1.7255 46118.2540 -69.7261 -1.7255
ENERGY: 185000 0.4118 1.8489 1.6615 0.0000 -19840.4564 3070.2668 0.0000 0.0000 1936.6942 -14829.5732 208.0454 -16766.2674 -14825.2186 208.5275 -58.5664 6.9506 46253.0360 6.1989 6.3858
ENERGY: 195000 0.3301 3.8433 0.7792 0.0000 -19781.2686 3053.3822 0.0000 0.0000 1992.5594 -14730.3744 214.0466 -16722.9339 -14728.4765 211.1712 223.5102 308.5879 45552.0016 0.6486 0.7674
ENERGY: 205000 0.3879 0.5668 1.1131 0.0000 -19717.1272 3009.4204 0.0000 0.0000 1934.9748 -14770.6641 207.8607 -16705.6389 -14765.5676 211.1817 -126.2152 -16.4286 45742.8430 1.6724 1.2608
ENERGY: 215000 1.8797 1.1123 1.8873 0.0000 -19572.1004 2941.1083 0.0000 0.0000 1960.6917 -14665.4210 210.6233 -16626.1127 -14659.8261 210.5148 -205.7617 -140.3551 45716.7798 3.1800 3.3042
ENERGY: 225000 0.4970 1.0489 0.8258 0.0000 -19585.4625 2897.6678 0.0000 0.0000 1919.6338 -14765.7892 206.2128 -16685.4230 -14763.4452 210.5073 -861.3243 -782.5707 46495.3813 7.2186 6.6174
TCL: Running 50000 steps at 240 kelvin.
TCL: Setting parameter langevinTemp to 240
TCL: Running for 50000 steps
ETITLE: TS BOND ANGLE DIHED IMPRP ELECT VDW BOUNDARY MISC KINETIC TOTAL TEMP POTENTIAL TOTAL3 TEMPAVG PRESSURE GPRESSURE VOLUME PRESSAVG GPRESSAVG
ENERGY: 225000 0.4970 1.0489 0.8258 0.0000 -19585.4625 2897.6678 0.0000 0.0000 1918.6628 -14766.7602 206.1085 -16685.4230 -14762.9596 206.1085 -859.4979 -783.6594 46495.3813 -859.4979 -783.6594
ENERGY: 235000 1.7429 2.6162 0.8236 0.0000 -18874.8225 2797.0493 0.0000 0.0000 2252.3801 -13820.2105 241.9574 -16072.5906 -13812.5416 239.5325 113.2281 225.2327 46341.2862 1.4712 0.7050
ENERGY: 245000 0.5139 2.3762 0.7841 0.0000 -18851.0102 2769.1236 0.0000 0.0000 2235.6233 -13842.5891 240.1573 -16078.2124 -13837.6621 240.7997 70.8485 106.4437 46386.5966 3.9499 3.6952
ENERGY: 255000 1.2713 1.7002 0.7969 0.0000 -18760.9182 2680.9794 0.0000 0.0000 2247.3365 -13828.8338 241.4156 -16076.1703 -13824.8614 239.5636 -311.6990 -220.0735 46049.0970 5.1221 4.9538
ENERGY: 265000 0.9696 2.7293 0.7919 0.0000 -18825.1447 2691.5166 0.0000 0.0000 2292.1337 -13837.0036 246.2278 -16129.1372 -13831.5166 239.9470 -372.4510 -309.6123 46053.8133 3.9384 3.5117
ENERGY: 275000 1.5667 2.6507 0.8369 0.0000 -18735.2107 2724.4248 0.0000 0.0000 2227.4292 -13778.3025 239.2771 -16005.7317 -13773.7413 237.9363 -91.0081 4.7503 46147.3299 6.0239 6.5442
TCL: Running 50000 steps at 270 kelvin.
TCL: Setting parameter langevinTemp to 270
TCL: Running for 50000 steps
ETITLE: TS BOND ANGLE DIHED IMPRP ELECT VDW BOUNDARY MISC KINETIC TOTAL TEMP POTENTIAL TOTAL3 TEMPAVG PRESSURE GPRESSURE VOLUME PRESSAVG GPRESSAVG
ENERGY: 275000 1.5667 2.6507 0.8369 0.0000 -18735.2107 2724.4248 0.0000 0.0000 2226.3225 -13779.4092 239.1582 -16005.7317 -13775.2319 239.1582 -70.4093 5.3315 46147.3299 -70.4093 5.3315
ENERGY: 285000 0.2007 4.1416 0.7928 0.0000 -17984.3705 2592.2227 0.0000 0.0000 2517.3831 -12869.6297 270.4248 -15387.0128 -12864.8117 269.4473 493.6146 613.6020 46766.1552 3.1739 3.4080
ENERGY: 295000 0.4648 3.7314 1.2462 0.0000 -18097.8462 2617.5684 0.0000 0.0000 2522.6525 -12952.1829 270.9908 -15474.8354 -12945.0566 270.6849 396.3811 449.0357 47083.6506 4.2869 4.4428
ENERGY: 305000 0.3557 3.8704 1.2291 0.0000 -17879.6725 2517.5526 0.0000 0.0000 2488.0816 -12868.5829 267.2771 -15356.6646 -12863.5661 269.6043 154.1958 200.5529 46964.6028 7.4574 6.5210
ENERGY: 315000 0.4974 2.1464 1.0275 0.0000 -18003.2938 2542.9116 0.0000 0.0000 2551.9109 -12904.8001 274.1338 -15456.7109 -12900.5814 269.2779 299.1462 404.4627 46601.7117 0.0142 0.6847
ENERGY: 325000 1.2568 2.1184 1.0657 0.0000 -17881.6538 2444.5743 0.0000 0.0000 2545.0710 -12887.5675 273.3991 -15432.6385 -12883.6012 267.5201 -280.8076 -162.5808 46739.6495 2.5726 2.2302
TCL: Running 1000000 steps at 300 kelvin.
TCL: Setting parameter langevinTemp to 300
TCL: Running for 1000000 steps
ETITLE: TS BOND ANGLE DIHED IMPRP ELECT VDW BOUNDARY MISC KINETIC TOTAL TEMP POTENTIAL TOTAL3 TEMPAVG PRESSURE GPRESSURE VOLUME PRESSAVG GPRESSAVG
ENERGY: 325000 1.2568 2.1184 1.0657 0.0000 -17881.6538 2444.5743 0.0000 0.0000 2543.8731 -12888.7654 273.2704 -15432.6385 -12884.7568 273.2704 -252.0354 -162.7127 46739.6495 -252.0354 -162.7127
ENERGY: 525000 1.1142 4.1405 0.8284 0.0000 -16943.0131 2196.7727 0.0000 0.0000 2792.7727 -11947.3847 300.0079 -14740.1574 -11941.6488 301.4042 -409.9313 -310.5979 47798.5148 2.4703 2.4404
ENERGY: 725000 1.6946 4.0201 0.7649 0.0000 -16822.3815 2220.1968 0.0000 0.0000 2847.0740 -11748.6312 305.8411 -14595.7051 -11744.3469 299.9648 -164.3099 -98.2286 48613.2893 1.8478 2.2845
ENERGY: 925000 1.4632 3.3122 1.1465 0.0000 -17019.8672 2229.4832 0.0000 0.0000 2793.8053 -11990.6568 300.1189 -14784.4621 -11986.9539 299.4545 -405.8040 -324.3906 48196.3141 6.8861 6.5483
ENERGY: 1125000 0.5137 5.5706 1.4734 0.0000 -17053.5557 2270.9750 0.0000 0.0000 2769.0170 -12006.0060 297.4560 -14775.0230 -11998.4465 299.3380 -133.0245 -45.2911 48049.2575 4.4723 4.2069
ENERGY: 1325000 0.3158 1.6385 0.8211 0.0000 -17091.6882 2276.9251 0.0000 0.0000 2796.2825 -12015.7051 300.3850 -14811.9876 -12009.7910 300.3472 -119.0725 -38.5220 47781.4906 3.9867 4.1502
TCL: Exiting due to exit command.
