Info: SIMULATION PARAMETERS:
Info: TIMESTEP               2
Info: NUMBER OF STEPS        0
Info: STEPS PER CYCLE        10
Info: PERIODIC CELL BASIS 1  32.2525 0 0
Info: PERIODIC CELL BASIS 2  0 30.1971 0
Info: PERIODIC CELL BASIS 3  0 0 31.4866
Info: PERIODIC CELL CENTER   0 0 0
Info: WRAPPING WATERS AROUND PERIODIC BOUNDARIES ON OUTPUT.
Info: WRAPPING ALL CLUSTERS AROUND PERIODIC BOUNDARIES ON OUTPUT.
Info: FIRST LDB TIMESTEP     50
Info: LAST LDB TIMESTEP     -1
Info: HOM BACKGROUND SCALING 1
Info: PME BACKGROUND SCALING 1
Info: MIN ATOMS PER PATCH    40
Info: EMPTY PATCH LOAD       40 ATOMS
Info: VELOCITY FILE          mobley_7150646_equil.vel
Info: CENTER OF MASS MOVING INITIALLY? NO
Info: DIELECTRIC             1
Info: EXCLUDE                SCALED ONE-FOUR
Info: 1-4 ELECTROSTATICS SCALED BY 0.833333
Info: MODIFIED 1-4 VDW PARAMETERS WILL BE USED
Info: DCD FILENAME           mobley_7150646_prod.dcd
Info: DCD FREQUENCY          100000
Info: DCD FIRST STEP         100000
Info: DCD FILE WILL CONTAIN UNIT CELL DATA
Info: XST FILENAME           mobley_7150646_prod.xst
Info: XST FREQUENCY          100000
Info: NO VELOCITY DCD OUTPUT
Info: NO FORCE DCD OUTPUT
Info: OUTPUT FILENAME        mobley_7150646_prod
Info: BINARY OUTPUT FILES WILL BE USED
Info: RESTART FILENAME       mobley_7150646_prod.restart
Info: RESTART FREQUENCY      100000
Info: BINARY RESTART FILES WILL BE USED
Info: CUTOFF                 9
Info: PAIRLIST DISTANCE      11
Info: PAIRLIST SHRINK RATE   0.01
Info: PAIRLIST GROW RATE     0.01
Info: PAIRLIST TRIGGER       0.3
Info: PAIRLISTS PER CYCLE    2
Info: PAIRLISTS ENABLED
Info: MARGIN                 2
Info: HYDROGEN GROUP CUTOFF  2.5
Info: PATCH DIMENSION        15.5
Info: ENERGY OUTPUT STEPS    100000
Info: ENERGY EVALUATION STEPS    100000
Info: OUTPUT ENERGY PRECISION 4
Info: CROSSTERM ENERGY INCLUDED IN DIHEDRAL
Info: TIMING OUTPUT STEPS    1000000
Info: PRESSURE OUTPUT STEPS  100000
Info: ALCHEMICAL FEP ON
Info: FEP CURRENT LAMBDA VALUE     1
Info: FEP COMPARISON LAMBDA VALUE  0.95
Info: FEP INTRA-ALCHEMICAL NON-BONDED INTERACTIONS WILL BE RETAINED
Info: FEP INTRA-ALCHEMICAL BONDED INTERACTIONS WILL BE RETAINED
Info: FEP VDW SHIFTING COEFFICIENT 5
Info: FEP ELEC. ACTIVE FOR ANNIHILATED PARTICLES BETWEEN LAMBDA = 0 AND LAMBDA = 0.5
Info: FEP ELEC. ACTIVE FOR EXNIHILATED PARTICLES BETWEEN LAMBDA = 0.5 AND LAMBDA = 1
Info: FEP VDW ACTIVE FOR ANNIHILATED PARTICLES BETWEEN LAMBDA = 0 AND LAMBDA = 1
Info: FEP VDW ACTIVE FOR EXNIHILATED PARTICLES BETWEEN LAMBDA = 0 AND LAMBDA = 1
Info: FEP BOND ACTIVE FOR ANNIHILATED PARTICLES BETWEEN LAMBDA = 1 AND LAMBDA = 1
Info: FEP BOND ACTIVE FOR EXNIHILATED PARTICLES BETWEEN LAMBDA = 0 AND LAMBDA = 0
Info: LANGEVIN DYNAMICS ACTIVE
Info: LANGEVIN TEMPERATURE   300
Info: LANGEVIN USING BBK INTEGRATOR
Info: LANGEVIN DAMPING COEFFICIENT IS 1 INVERSE PS
Info: LANGEVIN DYNAMICS APPLIED TO HYDROGENS
Info: LANGEVIN PISTON PRESSURE CONTROL ACTIVE
Info:        TARGET PRESSURE IS 1.01325 BAR
Info:     OSCILLATION PERIOD IS 50 FS
Info:             DECAY TIME IS 25 FS
Info:     PISTON TEMPERATURE IS 300 K
Info:       PRESSURE CONTROL IS GROUP-BASED
Info:    INITIAL STRAIN RATE IS -9.29039e-05 -9.29039e-05 -9.29039e-05
Info:       CELL FLUCTUATION IS ISOTROPIC
Info: PARTICLE MESH EWALD (PME) ACTIVE
Info: PME TOLERANCE               1e-06
Info: PME EWALD COEFFICIENT       0.348832
Info: PME INTERPOLATION ORDER     4
Info: PME GRID DIMENSIONS         36 32 32
Info: PME MAXIMUM GRID SPACING    1
Info: PME CALCULATION WILL BE PERFORMED ON GPU
Info: FULL ELECTROSTATIC EVALUATION FREQUENCY      2
Info: USING VERLET I (r-RESPA) MTS SCHEME.
Info: C1 SPLITTING OF LONG RANGE ELECTROSTATICS
Info: PLACING ATOMS IN PATCHES BY HYDROGEN GROUPS
Info: RIGID BONDS TO HYDROGEN : ALL
Info:         ERROR TOLERANCE : 1e-08
Info:          MAX ITERATIONS : 100
Info: RIGID WATER USING SETTLE ALGORITHM
Info: RANDOM NUMBER SEED     1742249629
Info: USE HYDROGEN BONDS?    NO
Info: Using AMBER format force field!
Info: AMBER PARM FILE        mobley_7150646.prmtop
Info: COORDINATE PDB         mobley_7150646.pdb
Info: Exclusions will be read from PARM file!
Info: SCNB (VDW SCALING)     2
Info: USING ARITHMETIC MEAN TO COMBINE L-J SIGMA PARAMETERS
Info: BINARY COORDINATES     mobley_7150646_equil.coor
Info: SUMMARY OF PARAMETERS:
Info: 5 BONDS
Info: 3 ANGLES
Info:   3 HARMONIC
Info:   0 COSINE-BASED
Info: 2 DIHEDRAL
Info: 0 IMPROPER
Info: 0 CROSSTERM
Info: 0 VDW
Info: 15 VDW_PAIRS
Info: 0 NBTHOLE_PAIRS
Info: To read alchdata from file: mobley_7150646.pdb
Info: To read alchflag data from column: 5
Info: STRUCTURE SUMMARY:
Info: 2952 ATOMS
Info: 2952 BONDS
Info: 18 ANGLES
Info: 30 DIHEDRALS
Info: 0 IMPROPERS
Info: 0 CROSSTERMS
Info: 2991 EXCLUSIONS
Info: 2944 RIGID BONDS
Info: ALCH: 0 ATOMS TO DISAPPEAR IN FINAL STATE
Info: ALCH: 12 ATOMS TO APPEAR IN FINAL STATE
Info: 5912 DEGREES OF FREEDOM
Info: 988 HYDROGEN GROUPS
Info: 3 ATOMS IN LARGEST HYDROGEN GROUP
Info: 988 MIGRATION GROUPS
Info: 3 ATOMS IN LARGEST MIGRATION GROUP
Info: TOTAL MASS = 17891.6 amu
Info: TOTAL CHARGE = -0.000399988 e
Info: MASS DENSITY = 0.968846 g/cm^3
Info: ATOM DENSITY = 0.0962639 atoms/A^3
Info: ADDED 0 IMPLICIT EXCLUSIONS
Info: NONBONDED TABLE R-SQUARED SPACING: 0.0625
Info: NONBONDED TABLE SIZE: 705 POINTS
Info: REMOVING COM VELOCITY -0.08409 0.0659927 -0.0436755
Info: Use 3D box decompostion in PME FFT.
Info: Updated CUDA force table with 4096 elements.
Info: Updated CUDA LJ table with 5 x 5 elements.
Info: Found 14 unique exclusion lists needing 24 bytes
TCL: Running for 1500000 steps
ETITLE: TS BOND ANGLE DIHED IMPRP ELECT VDW BOUNDARY MISC KINETIC TOTAL TEMP POTENTIAL TOTALAVG TEMPAVG PRESSURE GPRESSURE VOLUME PRESSAVG GPRESSAVG
ENERGY: 0 0.5924 5.4209 2.1738 0.0000 -10775.0297 1510.7587 0.0000 0.0000 1751.7642 -7504.3197 298.2165 -9256.0839 -7504.3197 298.2165 438.5109 501.6344 30665.7119 438.5109 501.6344
ENERGY: 300000 2.4394 0.8541 4.8828 0.0000 -10761.1415 1416.1046 0.0000 0.0000 1774.9445 -7561.9161 302.1626 -9336.8607 -7548.7981 299.1767 -270.1159 -189.7714 30313.6711 133.5764 194.2258
ENERGY: 600000 2.9160 5.4476 1.2840 0.0000 -10665.0264 1419.1394 0.0000 0.0000 1724.9349 -7511.3047 293.6491 -9236.2396 -7531.3785 300.2832 -38.7049 43.6221 30492.2059 66.0290 140.5057
ENERGY: 900000 1.6272 4.3047 5.2746 0.0000 -10633.1034 1398.6598 0.0000 0.0000 1725.2804 -7497.9567 293.7079 -9223.2371 -7525.1657 297.6470 -276.6585 -196.7402 30506.7476 79.4657 159.2443
ENERGY: 1200000 1.0129 1.9916 2.7648 0.0000 -10577.3028 1316.6242 0.0000 0.0000 1711.0570 -7543.8523 291.2866 -9254.9093 -7515.0658 297.6923 -835.7714 -827.8531 30582.6194 -73.6447 -7.8195
ENERGY: 1500000 2.9478 2.4777 2.2910 0.0000 -10614.0455 1397.5439 0.0000 0.0000 1779.6627 -7429.1224 302.9658 -9208.7851 -7514.4804 297.9387 -422.9711 -292.8878 30819.6068 -105.8618 -42.2347
TCL: Running FEP window   2: Lambda1 0.95   Lambda2 0.8999999999999999 [dLambda -0.050000000000000044]
TCL: Setting parameter firsttimestep to 0
TCL: Setting parameter alchLambda to 0.95
Info: NONBONDED TABLE R-SQUARED SPACING: 0.0625
Info: NONBONDED TABLE SIZE: 705 POINTS
TCL: Setting parameter alchLambda2 to 0.8999999999999999
Info: NONBONDED TABLE R-SQUARED SPACING: 0.0625
Info: NONBONDED TABLE SIZE: 705 POINTS
TCL: Running for 1500000 steps
ETITLE: TS BOND ANGLE DIHED IMPRP ELECT VDW BOUNDARY MISC KINETIC TOTAL TEMP POTENTIAL TOTALAVG TEMPAVG PRESSURE GPRESSURE VOLUME PRESSAVG GPRESSAVG
ENERGY: 0 2.9478 2.4777 2.2910 0.0000 -10613.7100 1397.0298 0.0000 0.0000 1778.7520 -7430.2116 302.8108 -9208.9636 -7430.2116 302.8108 -395.4182 -311.4105 30819.6068 -395.4182 -311.4105
ENERGY: 300000 2.1311 4.5833 1.2811 0.0000 -10629.2199 1354.7220 0.0000 0.0000 1759.2631 -7507.2393 299.4930 -9266.5024 -7520.1142 299.5026 -448.4857 -353.1549 30434.2535 -64.1847 4.3062
ENERGY: 600000 2.6936 1.5250 3.3531 0.0000 -10625.7969 1387.9203 0.0000 0.0000 1758.7939 -7471.5110 299.4132 -9230.3050 -7518.4455 299.0642 -304.8559 -276.4954 30504.2959 -42.2898 5.5240
ENERGY: 900000 2.4630 1.9907 0.9557 0.0000 -10604.2527 1409.4469 0.0000 0.0000 1748.6514 -7440.7450 297.6865 -9189.3964 -7492.8716 299.3844 -19.5199 37.0770 30673.5857 -46.1883 0.0768
ENERGY: 1200000 1.6379 3.7637 0.7596 0.0000 -10655.4487 1417.7530 0.0000 0.0000 1803.0231 -7428.5115 306.9427 -9231.5346 -7496.7171 299.1126 -186.6505 -104.7179 30458.0080 -65.9282 -15.2966
ENERGY: 1500000 2.8163 2.1197 2.7615 0.0000 -10674.5521 1433.8271 0.0000 0.0000 1724.3258 -7508.7016 293.5454 -9233.0274 -7496.6234 298.9578 73.7704 176.3596 30494.0936 -59.4319 0.6850
TCL: Running FEP window   3: Lambda1 0.8999999999999999 Lambda2 0.8499999999999999 [dLambda -0.050000000000000044]
TCL: Setting parameter firsttimestep to 0
TCL: Setting parameter alchLambda to 0.8999999999999999
Info: NONBONDED TABLE R-SQUARED SPACING: 0.0625
Info: NONBONDED TABLE SIZE: 705 POINTS
TCL: Setting parameter alchLambda2 to 0.8499999999999999
Info: NONBONDED TABLE R-SQUARED SPACING: 0.0625
Info: NONBONDED TABLE SIZE: 705 POINTS
TCL: Running for 1500000 steps
ETITLE: TS BOND ANGLE DIHED IMPRP ELECT VDW BOUNDARY MISC KINETIC TOTAL TEMP POTENTIAL TOTALAVG TEMPAVG PRESSURE GPRESSURE VOLUME PRESSAVG GPRESSAVG
ENERGY: 0 2.8163 2.1197 2.7615 0.0000 -10673.9459 1434.0921 0.0000 0.0000 1723.4613 -7508.6949 293.3982 -9232.1562 -7508.6949 293.3982 91.7138 168.9524 30494.0936 91.7138 168.9524
ENERGY: 300000 1.2560 2.3379 1.8798 0.0000 -10595.3481 1371.0699 0.0000 0.0000 1731.1957 -7487.6088 294.7149 -9218.8045 -7503.4804 295.1609 -546.6981 -467.7235 30711.5506 -369.2106 -257.7872
ENERGY: 600000 2.2689 2.9939 2.1930 0.0000 -10872.8242 1479.1722 0.0000 0.0000 1736.6035 -7649.5928 295.6355 -9386.1963 -7506.7708 298.0705 -196.8662 -175.2327 30550.8174 -460.6751 -375.3399
ENERGY: 900000 1.2607 0.5686 2.3205 0.0000 -10585.5180 1403.4173 0.0000 0.0000 1775.6696 -7402.2813 302.2861 -9177.9510 -7485.3470 298.8383 38.2675 136.7527 30427.4168 -284.7127 -211.0357
ENERGY: 1200000 0.4925 1.3750 3.9689 0.0000 -10847.5040 1524.0798 0.0000 0.0000 1783.4282 -7534.1596 303.6069 -9317.5878 -7492.6020 300.0302 612.9246 666.5195 30390.9025 -211.5686 -144.5297
ENERGY: 1500000 2.6782 2.3904 4.9440 0.0000 -10669.2592 1423.4906 0.0000 0.0000 1749.7632 -7485.9928 297.8758 -9235.7560 -7493.9272 299.6965 -241.9465 -209.8015 30814.4208 -196.1907 -130.3203
TCL: Running FEP window   4: Lambda1 0.8499999999999999 Lambda2 0.7999999999999998 [dLambda -0.050000000000000044]
TCL: Setting parameter firsttimestep to 0
TCL: Setting parameter alchLambda to 0.8499999999999999
Info: NONBONDED TABLE R-SQUARED SPACING: 0.0625
Info: NONBONDED TABLE SIZE: 705 POINTS
TCL: Setting parameter alchLambda2 to 0.7999999999999998
Info: NONBONDED TABLE R-SQUARED SPACING: 0.0625
Info: NONBONDED TABLE SIZE: 705 POINTS
TCL: Running for 1500000 steps
ETITLE: TS BOND ANGLE DIHED IMPRP ELECT VDW BOUNDARY MISC KINETIC TOTAL TEMP POTENTIAL TOTALAVG TEMPAVG PRESSURE GPRESSURE VOLUME PRESSAVG GPRESSAVG
ENERGY: 0 2.6782 2.3904 4.9440 0.0000 -10669.1239 1423.5587 0.0000 0.0000 1748.8561 -7486.6965 297.7214 -9235.5526 -7486.6965 297.7214 -291.9229 -216.9084 30814.4208 -291.9229 -216.9084
ENERGY: 300000 2.2586 3.5748 2.9683 0.0000 -10565.6352 1330.5521 0.0000 0.0000 1773.9530 -7452.3286 301.9938 -9226.2815 -7495.4758 301.8546 -766.3846 -752.8262 30573.4550 -236.1763 -201.9737
ENERGY: 600000 2.4375 4.1739 0.7737 0.0000 -10875.2302 1580.1487 0.0000 0.0000 1729.1813 -7558.5152 294.3720 -9287.6965 -7478.1022 300.4181 961.0513 1038.3424 30447.6287 146.8260 186.3863
ENERGY: 900000 3.0937 3.7789 1.0533 0.0000 -10883.8375 1542.6670 0.0000 0.0000 1714.0591 -7619.1855 291.7976 -9333.2446 -7502.9311 298.7198 437.9560 555.0700 30263.0847 185.4296 244.1253
ENERGY: 1200000 3.8288 2.1680 4.3972 0.0000 -10689.3916 1436.5878 0.0000 0.0000 1785.7790 -7456.6309 304.0071 -9242.4099 -7500.1253 299.4084 56.0781 161.0176 30107.0613 121.6156 191.3869
ENERGY: 1500000 3.6122 2.3245 1.8725 0.0000 -10743.2661 1444.8749 0.0000 0.0000 1824.5886 -7465.9933 310.6139 -9290.5820 -7498.6070 300.0740 -123.5608 -0.1843 30498.0409 93.2281 165.6071
TCL: Running FEP window   5: Lambda1 0.7999999999999998 Lambda2 0.7499999999999998 [dLambda -0.050000000000000044]
TCL: Setting parameter firsttimestep to 0
TCL: Setting parameter alchLambda to 0.7999999999999998
Info: NONBONDED TABLE R-SQUARED SPACING: 0.0625
Info: NONBONDED TABLE SIZE: 705 POINTS
TCL: Setting parameter alchLambda2 to 0.7499999999999998
Info: NONBONDED TABLE R-SQUARED SPACING: 0.0625
Info: NONBONDED TABLE SIZE: 705 POINTS
TCL: Running for 1500000 steps
ETITLE: TS BOND ANGLE DIHED IMPRP ELECT VDW BOUNDARY MISC KINETIC TOTAL TEMP POTENTIAL TOTALAVG TEMPAVG PRESSURE GPRESSURE VOLUME PRESSAVG GPRESSAVG
ENERGY: 0 3.6122 2.3245 1.8725 0.0000 -10743.1865 1445.5854 0.0000 0.0000 1823.7084 -7466.0835 310.4641 -9289.7919 -7466.0835 310.4641 -91.0017 -2.8237 30498.0409 -91.0017 -2.8237
ENERGY: 300000 1.8560 2.9815 4.7562 0.0000 -10742.2469 1488.4991 0.0000 0.0000 1770.3271 -7473.8270 301.3766 -9244.1541 -7447.7176 305.6753 356.4572 408.0266 30556.8303 6.2216 78.1434
ENERGY: 600000 6.0797 4.4029 1.9726 0.0000 -10563.2041 1344.0730 0.0000 0.0000 1735.5995 -7471.0764 295.4646 -9206.6759 -7470.1159 301.2052 -798.6784 -727.1231 30804.0174 15.1928 80.0507
ENERGY: 900000 1.2524 1.5497 1.2925 0.0000 -10606.2202 1369.7837 0.0000 0.0000 1819.9721 -7412.3698 309.8280 -9232.3419 -7466.2668 301.6468 -347.0180 -356.7260 30426.3431 -168.7996 -119.4758
ENERGY: 1200000 1.3566 2.3092 1.6667 0.0000 -10759.3680 1472.7997 0.0000 0.0000 1777.7029 -7503.5330 302.6322 -9281.2358 -7471.3962 301.7716 133.3672 177.7772 30866.3763 -217.8240 -170.6525
ENERGY: 1500000 3.3907 1.9436 2.4899 0.0000 -10901.6159 1535.7643 0.0000 0.0000 1742.5311 -7615.4963 296.6446 -9358.0273 -7488.1863 300.8149 553.6283 542.3581 30202.6160 -165.4711 -113.0434
TCL: Running FEP window   6: Lambda1 0.7499999999999998 Lambda2 0.6999999999999997 [dLambda -0.050000000000000044]
TCL: Setting parameter firsttimestep to 0
TCL: Setting parameter alchLambda to 0.7499999999999998
Info: NONBONDED TABLE R-SQUARED SPACING: 0.0625
Info: NONBONDED TABLE SIZE: 705 POINTS
TCL: Setting parameter alchLambda2 to 0.6999999999999997
Info: NONBONDED TABLE R-SQUARED SPACING: 0.0625
Info: NONBONDED TABLE SIZE: 705 POINTS
TCL: Running for 1500000 steps
ETITLE: TS BOND ANGLE DIHED IMPRP ELECT VDW BOUNDARY MISC KINETIC TOTAL TEMP POTENTIAL TOTALAVG TEMPAVG PRESSURE GPRESSURE VOLUME PRESSAVG GPRESSAVG
ENERGY: 0 3.3907 1.9436 2.4899 0.0000 -10901.4889 1535.4039 0.0000 0.0000 1741.6106 -7616.6501 296.4879 -9358.2607 -7616.6501 296.4879 439.4947 530.8916 30202.6160 439.4947 530.8916
ENERGY: 300000 4.5134 2.6127 2.0972 0.0000 -10825.7195 1471.4940 0.0000 0.0000 1745.7113 -7599.2909 297.1860 -9345.0021 -7515.4077 300.7337 -22.0724 53.1440 30355.0394 90.9192 147.9898
ENERGY: 600000 4.1965 2.1695 4.1545 0.0000 -10704.2658 1455.2685 0.0000 0.0000 1752.7684 -7485.7083 298.3874 -9238.4768 -7502.9019 301.3709 138.2337 205.0369 30363.8314 34.3864 91.6495
ENERGY: 900000 1.0691 6.3235 2.4816 0.0000 -10724.9486 1428.6307 0.0000 0.0000 1789.9707 -7496.4731 304.7206 -9286.4437 -7497.1264 301.7554 -46.3202 27.4457 30412.2893 -16.8694 31.5108
ENERGY: 1200000 2.3928 0.9857 6.3261 0.0000 -10667.0285 1395.5964 0.0000 0.0000 1714.5503 -7547.1772 291.8812 -9261.7275 -7491.6607 301.2023 -434.3736 -291.7982 30310.4867 -11.3600 39.7505
ENERGY: 1500000 3.7057 2.9803 1.1171 0.0000 -10699.1349 1410.9813 0.0000 0.0000 1753.7252 -7526.6252 298.5503 -9280.3504 -7487.4621 300.8492 -54.4260 56.5049 30165.8959 -56.9531 2.6412
TCL: Running FEP window   7: Lambda1 0.6999999999999997 Lambda2 0.6499999999999997 [dLambda -0.050000000000000044]
TCL: Setting parameter firsttimestep to 0
TCL: Setting parameter alchLambda to 0.6999999999999997
Info: NONBONDED TABLE R-SQUARED SPACING: 0.0625
Info: NONBONDED TABLE SIZE: 705 POINTS
TCL: Setting parameter alchLambda2 to 0.6499999999999997
Info: NONBONDED TABLE R-SQUARED SPACING: 0.0625
Info: NONBONDED TABLE SIZE: 705 POINTS
TCL: Running for 1500000 steps
ETITLE: TS BOND ANGLE DIHED IMPRP ELECT VDW BOUNDARY MISC KINETIC TOTAL TEMP POTENTIAL TOTALAVG TEMPAVG PRESSURE GPRESSURE VOLUME PRESSAVG GPRESSAVG
ENERGY: 0 3.7057 2.9803 1.1171 0.0000 -10698.7777 1411.3227 0.0000 0.0000 1752.8250 -7526.8268 298.3970 -9279.6518 -7526.8268 298.3970 -48.2085 52.5091 30165.8959 -48.2085 52.5091
ENERGY: 300000 2.2232 3.5191 1.8387 0.0000 -10726.9112 1411.5973 0.0000 0.0000 1795.0347 -7512.6982 305.5827 -9307.7329 -7506.1290 302.0471 -238.7279 -169.9957 30060.5266 -385.2940 -337.2130
ENERGY: 600000 5.0483 2.0041 2.2728 0.0000 -10749.0026 1445.6593 0.0000 0.0000 1765.4510 -7528.5671 300.5465 -9294.0181 -7493.4271 301.3764 53.3682 112.4916 30248.7348 -248.3689 -188.9768
ENERGY: 900000 0.8525 4.9048 1.8246 0.0000 -10649.8475 1403.3357 0.0000 0.0000 1751.8543 -7487.0756 298.2318 -9238.9299 -7487.1102 300.7670 -509.0602 -441.3977 31092.4703 -190.9034 -130.8175
ENERGY: 1200000 2.6269 2.4556 3.9584 0.0000 -10847.8234 1531.4307 0.0000 0.0000 1748.3014 -7559.0504 297.6270 -9307.3518 -7500.3511 299.9142 600.5797 660.7880 30295.5281 -110.9679 -59.6044
ENERGY: 1500000 2.6830 1.5116 1.7025 0.0000 -10652.5180 1411.4796 0.0000 0.0000 1755.8678 -7479.2734 298.9150 -9235.1412 -7496.0926 300.0088 -577.5191 -474.0697 30977.8237 -148.7659 -88.2762
TCL: Running FEP window   8: Lambda1 0.6499999999999997 Lambda2 0.5999999999999996 [dLambda -0.050000000000000044]
TCL: Setting parameter firsttimestep to 0
TCL: Setting parameter alchLambda to 0.6499999999999997
Info: NONBONDED TABLE R-SQUARED SPACING: 0.0625
Info: NONBONDED TABLE SIZE: 705 POINTS
TCL: Setting parameter alchLambda2 to 0.5999999999999996
Info: NONBONDED TABLE R-SQUARED SPACING: 0.0625
Info: NONBONDED TABLE SIZE: 705 POINTS
TCL: Running for 1500000 steps
ETITLE: TS BOND ANGLE DIHED IMPRP ELECT VDW BOUNDARY MISC KINETIC TOTAL TEMP POTENTIAL TOTALAVG TEMPAVG PRESSURE GPRESSURE VOLUME PRESSAVG GPRESSAVG
ENERGY: 0 2.6830 1.5116 1.7025 0.0000 -10652.3560 1412.1626 0.0000 0.0000 1754.9828 -7479.3134 298.7644 -9234.2962 -7479.3134 298.7644 -556.7356 -473.3458 30977.8237 -556.7356 -473.3458
ENERGY: 300000 2.2112 2.3646 4.0872 0.0000 -10726.8289 1444.2469 0.0000 0.0000 1753.1183 -7520.8007 298.4470 -9273.9190 -7457.2364 303.9249 -42.9515 -12.5484 30405.1736 -47.1692 0.9282
ENERGY: 600000 3.1731 1.3241 2.1244 0.0000 -10782.0425 1448.3139 0.0000 0.0000 1744.5775 -7582.5294 296.9930 -9327.1069 -7488.6303 303.2240 -109.8474 -85.6284 30296.9668 35.6404 81.6758
ENERGY: 900000 5.0989 4.6020 3.3320 0.0000 -10758.6516 1472.9170 0.0000 0.0000 1809.6627 -7463.0390 308.0730 -9272.7016 -7491.5033 302.8249 194.5588 249.1061 30343.4497 35.4689 86.5780
ENERGY: 1200000 2.4224 3.8305 1.7203 0.0000 -10860.7162 1557.6067 0.0000 0.0000 1755.1847 -7539.9516 298.7988 -9295.1363 -7495.3450 301.7865 747.6556 804.8430 30312.1987 -12.9063 41.0488
ENERGY: 1500000 0.6925 2.5503 3.4151 0.0000 -10771.1472 1469.2613 0.0000 0.0000 1760.5457 -7534.6822 299.7114 -9295.2279 -7492.8383 302.0027 197.5885 270.1986 30264.6565 -46.7679 7.4606
TCL: Running FEP window   9: Lambda1 0.5999999999999996 Lambda2 0.5499999999999996 [dLambda -0.050000000000000044]
TCL: Setting parameter firsttimestep to 0
TCL: Setting parameter alchLambda to 0.5999999999999996
Info: NONBONDED TABLE R-SQUARED SPACING: 0.0625
Info: NONBONDED TABLE SIZE: 705 POINTS
TCL: Setting parameter alchLambda2 to 0.5499999999999996
Info: NONBONDED TABLE R-SQUARED SPACING: 0.0625
Info: NONBONDED TABLE SIZE: 705 POINTS
TCL: Running for 1500000 steps
ETITLE: TS BOND ANGLE DIHED IMPRP ELECT VDW BOUNDARY MISC KINETIC TOTAL TEMP POTENTIAL TOTALAVG TEMPAVG PRESSURE GPRESSURE VOLUME PRESSAVG GPRESSAVG
ENERGY: 0 0.6925 2.5503 3.4151 0.0000 -10770.9415 1469.4836 0.0000 0.0000 1759.6549 -7535.1450 299.5598 -9294.8000 -7535.1450 299.5598 185.3320 266.8448 30264.6565 185.3320 266.8448
ENERGY: 300000 3.7169 2.5609 4.3803 0.0000 -10833.4993 1487.2880 0.0000 0.0000 1797.3420 -7538.2112 305.9755 -9335.5532 -7519.7256 302.1629 207.1430 257.9331 30215.3538 240.0272 299.7428
ENERGY: 600000 3.1579 4.0051 2.5488 0.0000 -10773.6426 1428.6755 0.0000 0.0000 1766.6491 -7568.6062 300.7504 -9335.2553 -7496.1897 302.9679 -621.4037 -480.5427 30758.7704 -149.4358 -70.1762
ENERGY: 900000 0.7037 5.6296 3.8281 0.0000 -10886.9398 1543.7799 0.0000 0.0000 1792.3660 -7540.6324 305.1284 -9332.9984 -7487.8374 303.8386 903.0291 958.7874 29901.0204 -6.4882 73.5241
ENERGY: 1200000 1.1186 2.2319 2.4324 0.0000 -10683.3148 1404.2096 0.0000 0.0000 1786.5197 -7486.8028 304.1331 -9273.3224 -7492.8619 304.1601 -280.4371 -219.0276 30681.5114 27.3724 106.7639
ENERGY: 1500000 1.2646 1.3851 4.7479 0.0000 -10621.6172 1420.0165 0.0000 0.0000 1788.9378 -7405.2652 304.5448 -9194.2031 -7483.8496 303.7874 -287.0140 -123.1234 30786.6977 -21.6362 65.3782
TCL: Running FEP window  10: Lambda1 0.5499999999999996 Lambda2 0.4999999999999996 [dLambda -0.04999999999999999]
TCL: Setting parameter firsttimestep to 0
TCL: Setting parameter alchLambda to 0.5499999999999996
Info: NONBONDED TABLE R-SQUARED SPACING: 0.0625
Info: NONBONDED TABLE SIZE: 705 POINTS
TCL: Setting parameter alchLambda2 to 0.4999999999999996
Info: NONBONDED TABLE R-SQUARED SPACING: 0.0625
Info: NONBONDED TABLE SIZE: 705 POINTS
TCL: Running for 1500000 steps
ETITLE: TS BOND ANGLE DIHED IMPRP ELECT VDW BOUNDARY MISC KINETIC TOTAL TEMP POTENTIAL TOTALAVG TEMPAVG PRESSURE GPRESSURE VOLUME PRESSAVG GPRESSAVG
ENERGY: 0 1.2646 1.3851 4.7479 0.0000 -10621.4825 1420.7318 0.0000 0.0000 1788.0145 -7405.3386 304.3876 -9193.3531 -7405.3386 304.3876 -198.5556 -123.4702 30786.6977 -198.5556 -123.4702
ENERGY: 300000 3.2678 1.8362 2.3401 0.0000 -10693.4308 1424.1964 0.0000 0.0000 1737.9993 -7523.7910 295.8732 -9261.7903 -7473.6112 299.0831 -458.8674 -404.9480 30679.0065 -519.4136 -450.3981
ENERGY: 600000 1.5610 3.0388 2.5473 0.0000 -10603.3125 1381.4122 0.0000 0.0000 1748.9924 -7465.7609 297.7446 -9214.7532 -7485.5067 298.5875 -406.0892 -329.9642 30435.6810 -285.7140 -202.8489
ENERGY: 900000 2.0027 1.9140 2.5906 0.0000 -10710.1594 1469.6749 0.0000 0.0000 1751.6982 -7482.2789 298.2052 -9233.9771 -7488.5059 299.0767 329.8537 375.6457 30151.9400 -94.6286 -27.4411
ENERGY: 1200000 4.7741 2.4727 3.6215 0.0000 -10621.7395 1350.4671 0.0000 0.0000 1752.8067 -7507.5974 298.3939 -9260.4041 -7489.9016 298.1244 -937.0993 -856.6591 30469.3835 -195.7397 -134.0941
ENERGY: 1500000 2.2947 3.6559 3.4189 0.0000 -10609.9947 1361.8434 0.0000 0.0000 1734.9058 -7503.8761 295.3465 -9238.7818 -7487.6673 297.6161 -854.6940 -737.8867 30693.0456 -191.4950 -126.8395
TCL: Running FEP window  11: Lambda1 0.4999999999999996 Lambda2 0.4499999999999996 [dLambda -0.04999999999999999]
TCL: Setting parameter firsttimestep to 0
TCL: Setting parameter alchLambda to 0.4999999999999996
Info: NONBONDED TABLE R-SQUARED SPACING: 0.0625
Info: NONBONDED TABLE SIZE: 705 POINTS
TCL: Setting parameter alchLambda2 to 0.4499999999999996
Info: NONBONDED TABLE R-SQUARED SPACING: 0.0625
Info: NONBONDED TABLE SIZE: 705 POINTS
TCL: Running for 1500000 steps
ETITLE: TS BOND ANGLE DIHED IMPRP ELECT VDW BOUNDARY MISC KINETIC TOTAL TEMP POTENTIAL TOTALAVG TEMPAVG PRESSURE GPRESSURE VOLUME PRESSAVG GPRESSAVG
ENERGY: 0 2.2947 3.6559 3.4189 0.0000 -10609.8966 1362.0807 0.0000 0.0000 1734.0425 -7504.4039 295.1996 -9238.4464 -7504.4039 295.1996 -824.3222 -745.5835 30693.0456 -824.3222 -745.5835
ENERGY: 300000 5.2709 4.3179 4.4626 0.0000 -10591.2142 1359.4153 0.0000 0.0000 1764.0618 -7453.6858 300.3100 -9217.7475 -7471.4048 298.6633 -841.6366 -816.5923 30922.0033 -611.1091 -520.3795
ENERGY: 600000 7.2542 2.3273 1.5795 0.0000 -10620.3359 1361.1230 0.0000 0.0000 1734.6232 -7513.4286 295.2984 -9248.0518 -7484.0670 300.9565 -757.7942 -735.1924 30582.5562 -394.4006 -316.3379
ENERGY: 900000 1.5256 3.1434 3.5466 0.0000 -10677.6134 1361.0336 0.0000 0.0000 1773.6041 -7534.7601 301.9344 -9308.3642 -7490.9994 300.4881 -492.4291 -394.1057 29788.9428 -428.0270 -346.3351
ENERGY: 1200000 1.9331 2.7951 2.2991 0.0000 -10538.2386 1348.1837 0.0000 0.0000 1760.8228 -7422.2048 299.7586 -9183.0276 -7475.9205 301.2983 -430.4541 -440.3163 30631.0339 -368.5292 -303.2090
ENERGY: 1500000 1.5682 2.8919 1.8514 0.0000 -10878.5106 1520.6892 0.0000 0.0000 1770.2846 -7581.2252 301.3693 -9351.5098 -7491.2195 300.8041 384.1148 347.3454 30358.4465 -294.6403 -237.4186
TCL: Running FEP window  12: Lambda1 0.4499999999999996 Lambda2 0.39999999999999963 [dLambda -0.04999999999999999]
TCL: Setting parameter firsttimestep to 0
TCL: Setting parameter alchLambda to 0.4499999999999996
Info: NONBONDED TABLE R-SQUARED SPACING: 0.0625
Info: NONBONDED TABLE SIZE: 705 POINTS
TCL: Setting parameter alchLambda2 to 0.39999999999999963
Info: NONBONDED TABLE R-SQUARED SPACING: 0.0625
Info: NONBONDED TABLE SIZE: 705 POINTS
TCL: Running for 1500000 steps
ETITLE: TS BOND ANGLE DIHED IMPRP ELECT VDW BOUNDARY MISC KINETIC TOTAL TEMP POTENTIAL TOTALAVG TEMPAVG PRESSURE GPRESSURE VOLUME PRESSAVG GPRESSAVG
ENERGY: 0 1.5682 2.8919 1.8514 0.0000 -10878.5116 1521.3394 0.0000 0.0000 1769.3850 -7581.4756 301.2162 -9350.8606 -7581.4756 301.2162 271.2405 346.2097 30358.4465 271.2405 346.2097
ENERGY: 300000 1.6459 6.3001 1.0037 0.0000 -10577.2760 1390.6770 0.0000 0.0000 1739.6176 -7438.0318 296.1486 -9177.6493 -7509.9371 301.0335 -113.2443 -130.6571 30445.5440 182.1409 214.5839
ENERGY: 600000 1.4820 3.2519 5.6610 0.0000 -10624.9144 1408.6749 0.0000 0.0000 1765.2164 -7440.6282 300.5065 -9205.8445 -7487.7197 300.5552 -235.2149 -156.3435 30798.9523 134.1081 165.5515
ENERGY: 900000 2.3088 1.9636 2.1817 0.0000 -10646.6343 1396.2826 0.0000 0.0000 1776.1452 -7467.7525 302.3670 -9243.8976 -7504.9471 300.0889 -243.1482 -127.7923 30185.3472 -13.0095 27.3069
ENERGY: 1200000 2.3932 1.8829 1.0810 0.0000 -10725.3619 1489.2554 0.0000 0.0000 1737.9517 -7492.7977 295.8651 -9230.7494 -7497.8738 300.4420 281.0662 342.8657 30407.7881 2.5005 48.7103
ENERGY: 1500000 2.3123 1.7511 5.5448 0.0000 -10723.1310 1464.3537 0.0000 0.0000 1771.9740 -7477.1951 301.6569 -9249.1691 -7497.4381 300.0702 29.1591 127.7661 30435.8873 -19.7333 34.3929
TCL: Running FEP window  13: Lambda1 0.39999999999999963 Lambda2 0.34999999999999964 [dLambda -0.04999999999999999]
TCL: Setting parameter firsttimestep to 0
TCL: Setting parameter alchLambda to 0.39999999999999963
Info: NONBONDED TABLE R-SQUARED SPACING: 0.0625
Info: NONBONDED TABLE SIZE: 705 POINTS
TCL: Setting parameter alchLambda2 to 0.34999999999999964
Info: NONBONDED TABLE R-SQUARED SPACING: 0.0625
Info: NONBONDED TABLE SIZE: 705 POINTS
TCL: Running for 1500000 steps
ETITLE: TS BOND ANGLE DIHED IMPRP ELECT VDW BOUNDARY MISC KINETIC TOTAL TEMP POTENTIAL TOTALAVG TEMPAVG PRESSURE GPRESSURE VOLUME PRESSAVG GPRESSAVG
ENERGY: 0 2.3123 1.7511 5.5448 0.0000 -10723.1307 1464.4654 0.0000 0.0000 1771.0947 -7477.9625 301.5072 -9249.0572 -7477.9625 301.5072 59.5732 123.9126 30435.8873 59.5732 123.9126
ENERGY: 300000 2.1552 4.0438 1.8876 0.0000 -10549.6306 1357.2978 0.0000 0.0000 1757.4864 -7426.7597 299.1906 -9184.2461 -7459.0201 300.8135 -343.2462 -299.9207 30335.6270 10.1750 72.1505
ENERGY: 600000 1.8523 6.3069 2.6712 0.0000 -10737.3809 1534.7907 0.0000 0.0000 1738.9310 -7452.8289 296.0318 -9191.7599 -7462.0267 301.5706 827.1365 855.9427 30623.8936 75.6124 132.6844
ENERGY: 900000 0.8686 2.0230 1.3112 0.0000 -10681.6426 1390.4046 0.0000 0.0000 1766.0336 -7521.0016 300.6456 -9287.0352 -7479.4296 301.4883 -182.5762 -103.4906 29851.8605 75.6317 134.8774
ENERGY: 1200000 1.3979 3.8021 4.9333 0.0000 -10770.6518 1428.4226 0.0000 0.0000 1786.7933 -7545.3026 304.1797 -9332.0959 -7491.4487 302.6261 -308.8374 -180.0942 30413.8643 30.0497 90.0159
ENERGY: 1500000 2.9611 2.1792 3.7377 0.0000 -10684.1924 1366.2043 0.0000 0.0000 1704.5306 -7604.5794 290.1755 -9309.1100 -7498.3989 301.1418 -833.9787 -746.1957 30370.2016 -95.4808 -31.7105
TCL: Running FEP window  14: Lambda1 0.34999999999999964 Lambda2 0.29999999999999966 [dLambda -0.04999999999999999]
TCL: Setting parameter firsttimestep to 0
TCL: Setting parameter alchLambda to 0.34999999999999964
Info: NONBONDED TABLE R-SQUARED SPACING: 0.0625
Info: NONBONDED TABLE SIZE: 705 POINTS
TCL: Setting parameter alchLambda2 to 0.29999999999999966
Info: NONBONDED TABLE R-SQUARED SPACING: 0.0625
Info: NONBONDED TABLE SIZE: 705 POINTS
TCL: Running for 1500000 steps
ETITLE: TS BOND ANGLE DIHED IMPRP ELECT VDW BOUNDARY MISC KINETIC TOTAL TEMP POTENTIAL TOTALAVG TEMPAVG PRESSURE GPRESSURE VOLUME PRESSAVG GPRESSAVG
ENERGY: 0 2.9611 2.1792 3.7377 0.0000 -10684.1920 1366.6547 0.0000 0.0000 1703.6512 -7605.0081 290.0258 -9308.6593 -7605.0081 290.0258 -835.1706 -746.5334 30370.2016 -835.1706 -746.5334
ENERGY: 300000 1.7146 1.2835 1.5283 0.0000 -10731.9400 1422.1357 0.0000 0.0000 1760.8976 -7544.3801 299.7713 -9305.2778 -7525.2058 297.5929 -288.9088 -256.2762 30346.0045 -349.0725 -308.0217
ENERGY: 600000 3.3796 1.9320 4.7711 0.0000 -10821.1632 1463.4152 0.0000 0.0000 1746.2730 -7601.3923 297.2817 -9347.6654 -7512.3346 299.7673 -122.0581 -58.4379 30042.3804 -121.0307 -76.9185
ENERGY: 900000 1.1250 4.7805 1.9357 0.0000 -10721.8354 1448.4299 0.0000 0.0000 1731.7610 -7533.8032 294.8112 -9265.5642 -7519.7490 298.2543 186.0910 198.2539 30045.8184 47.8178 84.4677
ENERGY: 1200000 0.9104 1.6087 2.8333 0.0000 -10674.7998 1445.6284 0.0000 0.0000 1800.5687 -7423.2503 306.5248 -9223.8190 -7510.2853 298.9349 234.9777 299.2545 30412.5079 5.3889 52.0724
ENERGY: 1500000 1.7218 1.6963 2.6159 0.0000 -10704.9340 1418.3363 0.0000 0.0000 1782.1522 -7498.4115 303.3896 -9280.5637 -7509.9707 299.2585 -452.8670 -308.4961 30568.2355 -54.5755 2.4642
TCL: Running FEP window  15: Lambda1 0.29999999999999966 Lambda2 0.24999999999999967 [dLambda -0.04999999999999999]
TCL: Setting parameter firsttimestep to 0
TCL: Setting parameter alchLambda to 0.29999999999999966
Info: NONBONDED TABLE R-SQUARED SPACING: 0.0625
Info: NONBONDED TABLE SIZE: 705 POINTS
TCL: Setting parameter alchLambda2 to 0.24999999999999967
Info: NONBONDED TABLE R-SQUARED SPACING: 0.0625
Info: NONBONDED TABLE SIZE: 705 POINTS
TCL: Running for 1500000 steps
ETITLE: TS BOND ANGLE DIHED IMPRP ELECT VDW BOUNDARY MISC KINETIC TOTAL TEMP POTENTIAL TOTALAVG TEMPAVG PRESSURE GPRESSURE VOLUME PRESSAVG GPRESSAVG
ENERGY: 0 1.7218 1.6963 2.6159 0.0000 -10704.9333 1418.6662 0.0000 0.0000 1781.2271 -7499.0061 303.2322 -9280.2332 -7499.0061 303.2322 -413.3943 -309.9383 30568.2355 -413.3943 -309.9383
ENERGY: 300000 1.3678 2.0238 4.1400 0.0000 -10704.3787 1441.7821 0.0000 0.0000 1747.9711 -7507.0938 297.5707 -9255.0649 -7491.2279 301.7481 1.3348 27.6545 30691.4291 120.4424 195.1985
ENERGY: 600000 3.3185 1.8886 3.7890 0.0000 -10644.4151 1426.2139 0.0000 0.0000 1790.1468 -7419.0582 304.7506 -9209.2050 -7486.1444 299.8992 136.2053 250.1300 30227.6502 -113.6417 -40.3341
ENERGY: 900000 0.8825 2.3889 1.3884 0.0000 -10584.3629 1376.5048 0.0000 0.0000 1719.3551 -7483.8431 292.6992 -9203.1983 -7474.3604 299.2704 -300.5992 -214.9344 30406.7329 -165.8962 -91.5799
ENERGY: 1200000 2.5534 6.2441 7.0958 0.0000 -10601.8275 1374.5769 0.0000 0.0000 1733.4173 -7477.9400 295.0931 -9211.3573 -7485.2251 298.3499 -446.0806 -467.9231 30544.2182 -219.5057 -156.0863
ENERGY: 1500000 1.5710 2.0838 5.7240 0.0000 -10640.2069 1448.4110 0.0000 0.0000 1806.6331 -7375.7841 307.5572 -9182.4172 -7478.3606 299.3449 337.2329 380.4644 30320.9975 -227.0626 -161.3164
TCL: Running FEP window  16: Lambda1 0.24999999999999967 Lambda2 0.19999999999999968 [dLambda -0.04999999999999999]
TCL: Setting parameter firsttimestep to 0
TCL: Setting parameter alchLambda to 0.24999999999999967
Info: NONBONDED TABLE R-SQUARED SPACING: 0.0625
Info: NONBONDED TABLE SIZE: 705 POINTS
TCL: Setting parameter alchLambda2 to 0.19999999999999968
Info: NONBONDED TABLE R-SQUARED SPACING: 0.0625
Info: NONBONDED TABLE SIZE: 705 POINTS
TCL: Running for 1500000 steps
ETITLE: TS BOND ANGLE DIHED IMPRP ELECT VDW BOUNDARY MISC KINETIC TOTAL TEMP POTENTIAL TOTALAVG TEMPAVG PRESSURE GPRESSURE VOLUME PRESSAVG GPRESSAVG
ENERGY: 0 1.5710 2.0838 5.7240 0.0000 -10640.2060 1448.9796 0.0000 0.0000 1805.7780 -7376.0696 307.4117 -9181.8476 -7376.0696 307.4117 296.4536 380.4167 30320.9975 296.4536 380.4167
ENERGY: 300000 6.6816 1.7784 1.8912 0.0000 -10764.6713 1457.9343 0.0000 0.0000 1805.7308 -7490.6549 307.4036 -9296.3857 -7479.8743 302.4783 -367.6683 -276.9448 30487.0900 47.6654 108.5403
ENERGY: 600000 3.1063 3.1076 1.1934 0.0000 -10783.9911 1487.5478 0.0000 0.0000 1790.0314 -7499.0045 304.7310 -9289.0359 -7489.0472 300.8180 512.0147 579.7555 29865.1455 70.5735 137.0222
ENERGY: 900000 1.8616 1.8555 2.9428 0.0000 -10744.6217 1492.4833 0.0000 0.0000 1695.5173 -7549.9612 288.6411 -9245.4785 -7487.1410 300.3208 348.0107 410.5904 30390.4427 13.8606 73.4778
ENERGY: 1200000 1.8255 1.6511 4.9465 0.0000 -10738.5437 1532.4914 0.0000 0.0000 1786.5738 -7411.0553 304.1424 -9197.6291 -7486.6940 300.2447 955.7598 1000.6661 30459.2095 20.7146 84.7696
ENERGY: 1500000 2.0797 3.6223 4.0407 0.0000 -10746.3835 1480.9296 0.0000 0.0000 1740.0273 -7515.6839 296.2184 -9255.7112 -7488.1754 299.6666 278.2721 329.3931 30425.9196 20.3464 83.4890
TCL: Running FEP window  17: Lambda1 0.19999999999999968 Lambda2 0.1499999999999997 [dLambda -0.04999999999999999]
TCL: Setting parameter firsttimestep to 0
TCL: Setting parameter alchLambda to 0.19999999999999968
Info: NONBONDED TABLE R-SQUARED SPACING: 0.0625
Info: NONBONDED TABLE SIZE: 705 POINTS
TCL: Setting parameter alchLambda2 to 0.1499999999999997
Info: NONBONDED TABLE R-SQUARED SPACING: 0.0625
Info: NONBONDED TABLE SIZE: 705 POINTS
TCL: Running for 1500000 steps
ETITLE: TS BOND ANGLE DIHED IMPRP ELECT VDW BOUNDARY MISC KINETIC TOTAL TEMP POTENTIAL TOTALAVG TEMPAVG PRESSURE GPRESSURE VOLUME PRESSAVG GPRESSAVG
ENERGY: 0 2.0797 3.6223 4.0407 0.0000 -10746.3814 1481.2930 0.0000 0.0000 1739.1448 -7516.2008 296.0682 -9255.3456 -7516.2008 296.0682 252.4834 328.0426 30425.9196 252.4834 328.0426
ENERGY: 300000 2.0277 4.0174 1.4912 0.0000 -10758.2172 1504.4842 0.0000 0.0000 1735.4225 -7510.7743 295.4345 -9246.1968 -7516.0232 294.4276 36.4838 98.0860 31064.4246 151.3436 218.8940
ENERGY: 600000 2.1635 2.0722 3.1358 0.0000 -10773.8100 1440.6606 0.0000 0.0000 1784.4229 -7541.3550 303.7762 -9325.7779 -7512.3644 297.3452 -319.1259 -272.4678 30457.6930 -27.6674 35.4567
ENERGY: 900000 1.8162 2.9784 1.6318 0.0000 -10570.1153 1358.1522 0.0000 0.0000 1766.0212 -7439.5155 300.6435 -9205.5367 -7497.8495 298.8926 -797.0450 -691.7074 30728.9740 -154.9370 -88.8043
ENERGY: 1200000 4.5281 2.9975 3.8018 0.0000 -10627.9274 1378.2435 0.0000 0.0000 1757.7557 -7480.6009 299.2364 -9238.3566 -7495.9529 299.0177 -377.8529 -351.9493 30364.6973 -135.5602 -78.7448
ENERGY: 1500000 7.1503 2.4641 2.6453 0.0000 -10775.6738 1517.6185 0.0000 0.0000 1814.8917 -7430.9040 308.9631 -9245.7957 -7493.5224 299.8057 1008.6940 1017.1260 29690.9079 -25.6537 24.5516
TCL: Running FEP window  18: Lambda1 0.1499999999999997 Lambda2 0.09999999999999969 [dLambda -0.05 ]
TCL: Setting parameter firsttimestep to 0
TCL: Setting parameter alchLambda to 0.1499999999999997
Info: NONBONDED TABLE R-SQUARED SPACING: 0.0625
Info: NONBONDED TABLE SIZE: 705 POINTS
TCL: Setting parameter alchLambda2 to 0.09999999999999969
Info: NONBONDED TABLE R-SQUARED SPACING: 0.0625
Info: NONBONDED TABLE SIZE: 705 POINTS
TCL: Running for 1500000 steps
ETITLE: TS BOND ANGLE DIHED IMPRP ELECT VDW BOUNDARY MISC KINETIC TOTAL TEMP POTENTIAL TOTALAVG TEMPAVG PRESSURE GPRESSURE VOLUME PRESSAVG GPRESSAVG
ENERGY: 0 7.1503 2.4641 2.6453 0.0000 -10775.6739 1518.0039 0.0000 0.0000 1814.0211 -7431.3892 308.8149 -9245.4103 -7431.3892 308.8149 938.0263 1016.5794 29690.9079 938.0263 1016.5794
ENERGY: 300000 1.3149 2.3083 2.1751 0.0000 -10662.6179 1387.4586 0.0000 0.0000 1827.2435 -7442.1176 311.0659 -9269.3611 -7474.8152 304.6494 -626.8696 -537.6096 30808.9940 56.1208 128.7981
ENERGY: 600000 3.9872 3.8175 2.7543 0.0000 -10787.5932 1507.8585 0.0000 0.0000 1805.4393 -7463.7363 307.3540 -9269.1756 -7491.3819 303.3482 626.3138 730.4621 30025.0321 191.6578 267.3783
ENERGY: 900000 2.7387 2.4890 2.2531 0.0000 -10772.9223 1439.8627 0.0000 0.0000 1689.7282 -7635.8506 287.6556 -9325.5788 -7501.8641 301.2962 87.8446 77.3197 30085.4738 70.9147 146.3014
ENERGY: 1200000 1.5951 2.9832 2.1104 0.0000 -10682.3784 1440.4749 0.0000 0.0000 1737.4478 -7497.7670 295.7793 -9235.2149 -7497.1819 300.7187 55.4314 50.6218 30469.2071 128.8012 189.5046
ENERGY: 1500000 3.4685 3.5099 2.4654 0.0000 -10687.9991 1397.0666 0.0000 0.0000 1754.7455 -7526.7431 298.7240 -9281.4886 -7498.3882 300.4923 -720.7384 -648.3384 30522.0485 25.9792 88.8347
TCL: Running FEP window  19: Lambda1 0.09999999999999969 Lambda2 0.049999999999999684 [dLambda -0.05 ]
TCL: Setting parameter firsttimestep to 0
TCL: Setting parameter alchLambda to 0.09999999999999969
Info: NONBONDED TABLE R-SQUARED SPACING: 0.0625
Info: NONBONDED TABLE SIZE: 705 POINTS
TCL: Setting parameter alchLambda2 to 0.049999999999999684
Info: NONBONDED TABLE R-SQUARED SPACING: 0.0625
Info: NONBONDED TABLE SIZE: 705 POINTS
TCL: Running for 1500000 steps
ETITLE: TS BOND ANGLE DIHED IMPRP ELECT VDW BOUNDARY MISC KINETIC TOTAL TEMP POTENTIAL TOTALAVG TEMPAVG PRESSURE GPRESSURE VOLUME PRESSAVG GPRESSAVG
ENERGY: 0 3.4686 3.5099 2.4654 0.0000 -10688.0009 1397.0572 0.0000 0.0000 1753.8689 -7527.6309 298.5748 -9281.4998 -7527.6309 298.5748 -724.1620 -650.1407 30522.0485 -724.1620 -650.1407
ENERGY: 300000 0.9316 2.9213 5.2632 0.0000 -10713.0476 1438.5472 0.0000 0.0000 1777.9783 -7487.4060 302.6791 -9265.3843 -7499.4573 300.6191 -92.0103 -52.2845 30441.7003 53.4112 105.4644
ENERGY: 600000 1.9091 1.8526 2.6124 0.0000 -10703.3487 1380.8371 0.0000 0.0000 1731.9530 -7584.1846 294.8438 -9316.1375 -7496.5369 300.5824 -783.3429 -717.4240 30422.3586 -160.2359 -110.8378
ENERGY: 900000 3.6057 4.9362 1.0915 0.0000 -10620.1921 1366.5139 0.0000 0.0000 1773.6718 -7470.3730 301.9460 -9244.0448 -7476.7420 301.8339 -672.5042 -625.9074 30392.5550 -176.5346 -128.3282
ENERGY: 1200000 1.7280 4.7516 3.8754 0.0000 -10705.6781 1378.6549 0.0000 0.0000 1746.8370 -7569.8311 297.3777 -9316.6682 -7478.7581 301.8706 -725.0203 -662.8373 30465.3297 -95.1360 -47.1781
ENERGY: 1500000 2.7560 4.4841 1.6021 0.0000 -10775.8834 1472.6888 0.0000 0.0000 1777.4801 -7516.8723 302.5943 -9294.3524 -7490.0957 301.4518 95.2536 172.3182 30044.9368 -18.7700 37.7425
TCL: Running FEP window  20: Lambda1 0.049999999999999684 Lambda2 0.0    [dLambda -0.049999999999999684]
TCL: Setting parameter firsttimestep to 0
TCL: Setting parameter alchLambda to 0.049999999999999684
Info: NONBONDED TABLE R-SQUARED SPACING: 0.0625
Info: NONBONDED TABLE SIZE: 705 POINTS
TCL: Setting parameter alchLambda2 to 0.0
Info: NONBONDED TABLE R-SQUARED SPACING: 0.0625
Info: NONBONDED TABLE SIZE: 705 POINTS
TCL: Running for 1500000 steps
ETITLE: TS BOND ANGLE DIHED IMPRP ELECT VDW BOUNDARY MISC KINETIC TOTAL TEMP POTENTIAL TOTALAVG TEMPAVG PRESSURE GPRESSURE VOLUME PRESSAVG GPRESSAVG
ENERGY: 0 2.7560 4.4841 1.6021 0.0000 -10775.8840 1472.4032 0.0000 0.0000 1776.5845 -7518.0542 302.4418 -9294.6387 -7518.0542 302.4418 90.8302 166.0106 30044.9368 90.8302 166.0106
ENERGY: 300000 1.0504 3.3784 2.9497 0.0000 -10752.2341 1420.9535 0.0000 0.0000 1801.1351 -7522.7670 306.6213 -9323.9021 -7532.4887 300.8780 -321.7340 -282.7410 30221.6198 314.6387 371.5729
ENERGY: 600000 0.7572 2.3080 1.0148 0.0000 -10669.7372 1443.5274 0.0000 0.0000 1763.3775 -7458.7522 300.1935 -9222.1297 -7518.1300 302.8694 7.3588 93.1474 30410.9527 75.5419 155.0334
ENERGY: 900000 3.9553 2.6818 3.4427 0.0000 -10681.0299 1444.0241 0.0000 0.0000 1742.1121 -7484.8140 296.5733 -9226.9261 -7503.4694 303.0669 199.9615 176.7383 30168.8172 -3.8729 54.5059
ENERGY: 1200000 1.6416 0.8126 3.9705 0.0000 -10723.3070 1456.5007 0.0000 0.0000 1733.9520 -7526.4296 295.1842 -9260.3816 -7510.9020 301.7254 -107.1244 -30.8408 30542.2783 38.4557 87.3026
ENERGY: 1500000 1.7737 2.5540 3.6232 0.0000 -10632.9462 1370.3725 0.0000 0.0000 1823.1439 -7431.4791 310.3680 -9254.6230 -7504.8324 301.8040 -553.7051 -469.1361 30055.3534 -91.7325 -47.7747
TCL: Exiting due to exit command.
