Info: SIMULATION PARAMETERS:
Info: TIMESTEP               1
Info: NUMBER OF STEPS        0
Info: STEPS PER CYCLE        10
Info: PERIODIC CELL BASIS 1  30 0 0
Info: PERIODIC CELL BASIS 2  0 30 0
Info: PERIODIC CELL BASIS 3  0 0 30
Info: PERIODIC CELL CENTER   0 0 0
Info: WRAPPING ALL CLUSTERS AROUND PERIODIC BOUNDARIES ON OUTPUT.
Info: FIRST LDB TIMESTEP     50
Info: LAST LDB TIMESTEP     -1
Info: HOM BACKGROUND SCALING 1
Info: MIN ATOMS PER PATCH    40
Info: EMPTY PATCH LOAD       40 ATOMS
Info: INITIAL TEMPERATURE    298
Info: CENTER OF MASS MOVING INITIALLY? NO
Info: DIELECTRIC             1
Info: EXCLUDE                SCALED ONE-FOUR
Info: 1-4 ELECTROSTATICS SCALED BY 1
Info: MODIFIED 1-4 VDW PARAMETERS WILL BE USED
Info: DCD FILENAME           output.dcd
Info: DCD FREQUENCY          1000
Info: DCD FIRST STEP         1000
Info: DCD FILE WILL CONTAIN UNIT CELL DATA
Info: NO EXTENDED SYSTEM TRAJECTORY OUTPUT
Info: NO VELOCITY DCD OUTPUT
Info: NO FORCE DCD OUTPUT
Info: OUTPUT FILENAME        output
Info: BINARY OUTPUT FILES WILL BE USED
Info: NO RESTART FILE
Info: SWITCHING ACTIVE
Info: SWITCHING ON           10
Info: SWITCHING OFF          12
Info: PAIRLIST DISTANCE      14
Info: PAIRLIST SHRINK RATE   0.01
Info: PAIRLIST GROW RATE     0.01
Info: PAIRLIST TRIGGER       0.3
Info: PAIRLISTS PER CYCLE    2
Info: PAIRLISTS ENABLED
Info: MARGIN                 0
Info: HYDROGEN GROUP CUTOFF  2.5
Info: PATCH DIMENSION        16.5
Info: ENERGY OUTPUT STEPS    1000
Info: ENERGY EVALUATION STEPS    1000
Info: OUTPUT ENERGY PRECISION 4
Info: CROSSTERM ENERGY INCLUDED IN DIHEDRAL
Info: TIMING OUTPUT STEPS    1000
Info: LANGEVIN DYNAMICS ACTIVE
Info: LANGEVIN TEMPERATURE   298
Info: LANGEVIN USING BBK INTEGRATOR
Info: LANGEVIN DAMPING COEFFICIENT IS 2 INVERSE PS
Info: LANGEVIN DYNAMICS APPLIED TO HYDROGENS
Info: MULTILEVEL SUMMATION METHOD (MSM) FOR ELECTROSTATICS ACTIVE
Info: MSM WITH C1 CUBIC INTERPOLATION AND C2 TAYLOR SPLITTING
Info: FULL ELECTROSTATIC EVALUATION FREQUENCY      1
Info: USING VERLET I (r-RESPA) MTS SCHEME.
Info: C1 SPLITTING OF LONG RANGE ELECTROSTATICS
Info: PLACING ATOMS IN PATCHES BY HYDROGEN GROUPS
Info: RIGID BONDS TO HYDROGEN : ALL
Info:         ERROR TOLERANCE : 1e-08
Info:          MAX ITERATIONS : 100
Info: RIGID WATER USING SETTLE ALGORITHM
Info: RANDOM NUMBER SEED     1740281459
Info: USE HYDROGEN BONDS?    NO
Info: COORDINATE PDB         ionized.pdb
Info: STRUCTURE FILE         ionized.psf
Info: PARAMETER file: CHARMM format!
Info: PARAMETERS             par_all27_prot_lipid.inp
Info: USING ARITHMETIC MEAN TO COMBINE L-J SIGMA PARAMETERS
Info: SUMMARY OF PARAMETERS:
Info: 180 BONDS
Info: 447 ANGLES
Info: 566 DIHEDRAL
Info: 46 IMPROPER
Info: 6 CROSSTERM
Info: 119 VDW
Info: 0 VDW_PAIRS
Info: 0 NBTHOLE_PAIRS
Info: STRUCTURE SUMMARY:
Info: 2476 ATOMS
Info: 1650 BONDS
Info: 825 ANGLES
Info: 0 DIHEDRALS
Info: 0 IMPROPERS
Info: 0 CROSSTERMS
Info: 0 EXCLUSIONS
Info: 2475 RIGID BONDS
Info: 4953 DEGREES OF FREEDOM
Info: 826 HYDROGEN GROUPS
Info: 3 ATOMS IN LARGEST HYDROGEN GROUP
Info: 826 MIGRATION GROUPS
Info: 3 ATOMS IN LARGEST MIGRATION GROUP
Info: TOTAL MASS = 14885.7 amu
Info: TOTAL CHARGE = 1 e
Info: MASS DENSITY = 0.915513 g/cm^3
Info: ATOM DENSITY = 0.0917037 atoms/A^3
Info: ADDED 2475 IMPLICIT EXCLUSIONS
Info: NONBONDED TABLE R-SQUARED SPACING: 0.0625
Info: NONBONDED TABLE SIZE: 769 POINTS
Info: REMOVING COM VELOCITY -0.230609 0.104394 -0.0754238
Info: MSM using C1 cubic interpolation
Info: MSM using C2 Taylor splitting function
Info: MSM block size decomposition along X is 8 grid points
Info: MSM block size decomposition along Y is 8 grid points
Info: MSM block size decomposition along Z is 8 grid points
Info: MSM grid spacing along X is 2.5 A
Info: MSM grid spacing along Y is 2.5 A
Info: MSM grid spacing along Z is 2.5 A
Info: MSM using 3 levels
Info:     level 0:  [0..11] x [0..11] x [0..11]
Info:     level 1:  [0..5] x [0..5] x [0..5]
Info:     level 2:  [0..2] x [0..2] x [0..2]
Info: MSM finished calculating stencils
Info: MSM finished creating map for grid levels
Info: MSM finished creating map for patches
Info: MSM has 9 interpolation / anterpolation objects (one per patch)
Info: MSM grid level 0 decomposed into 8 blocks ( 2 x 2 x 2 )
Info: MSM grid level 1 decomposed into 1 block ( 1 x 1 x 1 )
Info: MSM grid level 2 decomposed into 1 block ( 1 x 1 x 1 )
Info: MSM grid cutoff calculation decomposed into 783 work objects
TCL: Minimizing for 1000 steps
ETITLE: TS BOND ANGLE DIHED IMPRP ELECT VDW BOUNDARY MISC KINETIC TOTAL TEMP POTENTIAL TOTAL3 TEMPAVG PRESSURE GPRESSURE VOLUME PRESSAVG GPRESSAVG
ENERGY: 0 0.0000 0.0000 0.0000 0.0000 -7348.6497 6353.7252 0.0000 0.0000 0.0000 -994.9245 0.0000 -994.9245 -994.9245 0.0000 75204.0846 46356.0499 27000.0000 75204.0846 46356.0499
ENERGY: 200 0.0000 0.0000 0.0000 0.0000 -10371.8624 1008.0084 0.0000 0.0000 0.0000 -9363.8540 0.0000 -9363.8540 -9363.8540 0.0000 17715.4547 17642.9004 27000.0000 17715.4547 17642.9004
ENERGY: 400 0.0000 0.0000 0.0000 0.0000 -10894.3121 1235.0778 0.0000 0.0000 0.0000 -9659.2344 0.0000 -9659.2344 -9659.2344 0.0000 20256.4978 20164.1826 27000.0000 20256.4978 20164.1826
ENERGY: 600 0.0000 0.0000 0.0000 0.0000 -11084.9449 1297.2994 0.0000 0.0000 0.0000 -9787.6454 0.0000 -9787.6454 -9787.6454 0.0000 20975.2444 20880.5302 27000.0000 20975.2444 20880.5302
ENERGY: 800 0.0000 0.0000 0.0000 0.0000 -11190.7408 1322.5621 0.0000 0.0000 0.0000 -9868.1787 0.0000 -9868.1787 -9868.1787 0.0000 21250.9467 21174.7342 27000.0000 21250.9467 21174.7342
ENERGY: 1000 0.0000 0.0000 0.0000 0.0000 -11258.1433 1344.3781 0.0000 0.0000 0.0000 -9913.7652 0.0000 -9913.7652 -9913.7652 0.0000 21499.0314 21423.3089 27000.0000 21499.0314 21423.3089
TCL: Running for 200000 steps
ETITLE: TS BOND ANGLE DIHED IMPRP ELECT VDW BOUNDARY MISC KINETIC TOTAL TEMP POTENTIAL TOTAL3 TEMPAVG PRESSURE GPRESSURE VOLUME PRESSAVG GPRESSAVG
ENERGY: 1000 0.0000 0.0000 0.0000 0.0000 -11258.1432 1344.3781 0.0000 0.0000 1439.0484 -8474.7168 292.4135 -9913.7651 -8474.9106 292.4135 -2502.6417 -2502.6417 27000.0000 -2502.6417 -2502.6417
ENERGY: 41000 0.0000 0.0000 0.0000 0.0000 -8724.0424 782.0175 0.0000 0.0000 1414.0070 -6528.0179 287.3251 -7942.0249 -6526.8598 298.1752 -1869.9552 -1781.8732 27000.0000 -1372.0686 -1370.1598
ENERGY: 81000 0.0000 0.0000 0.0000 0.0000 -8780.4578 813.5093 0.0000 0.0000 1471.6469 -6495.3016 299.0375 -7966.9485 -6495.9094 298.9398 -1516.8545 -1483.2922 27000.0000 -1288.4699 -1283.3010
ENERGY: 121000 0.0000 0.0000 0.0000 0.0000 -8811.4178 835.2378 0.0000 0.0000 1460.0545 -6516.1254 296.6820 -7976.1800 -6513.9206 295.4349 -1193.5155 -1251.6382 27000.0000 -1229.6587 -1230.8598
ENERGY: 161000 0.0000 0.0000 0.0000 0.0000 -8758.7147 769.8586 0.0000 0.0000 1448.1020 -6540.7542 294.2532 -7988.8561 -6538.3437 299.0319 -1872.9338 -1767.1896 27000.0000 -1155.5034 -1154.5997
ENERGY: 201000 0.0000 0.0000 0.0000 0.0000 -8811.5302 838.8023 0.0000 0.0000 1504.8292 -6467.8987 305.7801 -7972.7279 -6468.8253 295.5499 -1282.1088 -1283.4760 27000.0000 -1489.8895 -1487.3905
