Info: SIMULATION PARAMETERS:
Info: TIMESTEP               2
Info: NUMBER OF STEPS        0
Info: STEPS PER CYCLE        10
Info: PERIODIC CELL BASIS 1  31.453 0 0
Info: PERIODIC CELL BASIS 2  0 31.8426 0
Info: PERIODIC CELL BASIS 3  0 0 30.2955
Info: PERIODIC CELL CENTER   0 0 0
Info: WRAPPING WATERS AROUND PERIODIC BOUNDARIES ON OUTPUT.
Info: WRAPPING ALL CLUSTERS AROUND PERIODIC BOUNDARIES ON OUTPUT.
Info: FIRST LDB TIMESTEP     50
Info: LAST LDB TIMESTEP     -1
Info: HOM BACKGROUND SCALING 1
Info: PME BACKGROUND SCALING 1
Info: MIN ATOMS PER PATCH    40
Info: EMPTY PATCH LOAD       40 ATOMS
Info: VELOCITY FILE          mobley_7735340_equil.vel
Info: CENTER OF MASS MOVING INITIALLY? NO
Info: DIELECTRIC             1
Info: EXCLUDE                SCALED ONE-FOUR
Info: 1-4 ELECTROSTATICS SCALED BY 0.833333
Info: MODIFIED 1-4 VDW PARAMETERS WILL BE USED
Info: DCD FILENAME           mobley_7735340_prod.dcd
Info: DCD FREQUENCY          100000
Info: DCD FIRST STEP         100000
Info: DCD FILE WILL CONTAIN UNIT CELL DATA
Info: XST FILENAME           mobley_7735340_prod.xst
Info: XST FREQUENCY          100000
Info: NO VELOCITY DCD OUTPUT
Info: NO FORCE DCD OUTPUT
Info: OUTPUT FILENAME        mobley_7735340_prod
Info: BINARY OUTPUT FILES WILL BE USED
Info: RESTART FILENAME       mobley_7735340_prod.restart
Info: RESTART FREQUENCY      100000
Info: BINARY RESTART FILES WILL BE USED
Info: CUTOFF                 9
Info: PAIRLIST DISTANCE      11
Info: PAIRLIST SHRINK RATE   0.01
Info: PAIRLIST GROW RATE     0.01
Info: PAIRLIST TRIGGER       0.3
Info: PAIRLISTS PER CYCLE    2
Info: PAIRLISTS ENABLED
Info: MARGIN                 2
Info: HYDROGEN GROUP CUTOFF  2.5
Info: PATCH DIMENSION        15.5
Info: ENERGY OUTPUT STEPS    100000
Info: ENERGY EVALUATION STEPS    100000
Info: OUTPUT ENERGY PRECISION 4
Info: CROSSTERM ENERGY INCLUDED IN DIHEDRAL
Info: TIMING OUTPUT STEPS    1000000
Info: PRESSURE OUTPUT STEPS  100000
Info: ALCHEMICAL FEP ON
Info: FEP CURRENT LAMBDA VALUE     1
Info: FEP COMPARISON LAMBDA VALUE  0.95
Info: FEP INTRA-ALCHEMICAL NON-BONDED INTERACTIONS WILL BE RETAINED
Info: FEP INTRA-ALCHEMICAL BONDED INTERACTIONS WILL BE RETAINED
Info: FEP VDW SHIFTING COEFFICIENT 5
Info: FEP ELEC. ACTIVE FOR ANNIHILATED PARTICLES BETWEEN LAMBDA = 0 AND LAMBDA = 0.5
Info: FEP ELEC. ACTIVE FOR EXNIHILATED PARTICLES BETWEEN LAMBDA = 0.5 AND LAMBDA = 1
Info: FEP VDW ACTIVE FOR ANNIHILATED PARTICLES BETWEEN LAMBDA = 0 AND LAMBDA = 1
Info: FEP VDW ACTIVE FOR EXNIHILATED PARTICLES BETWEEN LAMBDA = 0 AND LAMBDA = 1
Info: FEP BOND ACTIVE FOR ANNIHILATED PARTICLES BETWEEN LAMBDA = 1 AND LAMBDA = 1
Info: FEP BOND ACTIVE FOR EXNIHILATED PARTICLES BETWEEN LAMBDA = 0 AND LAMBDA = 0
Info: LANGEVIN DYNAMICS ACTIVE
Info: LANGEVIN TEMPERATURE   300
Info: LANGEVIN USING BBK INTEGRATOR
Info: LANGEVIN DAMPING COEFFICIENT IS 1 INVERSE PS
Info: LANGEVIN DYNAMICS APPLIED TO HYDROGENS
Info: LANGEVIN PISTON PRESSURE CONTROL ACTIVE
Info:        TARGET PRESSURE IS 1.01325 BAR
Info:     OSCILLATION PERIOD IS 50 FS
Info:             DECAY TIME IS 25 FS
Info:     PISTON TEMPERATURE IS 300 K
Info:       PRESSURE CONTROL IS GROUP-BASED
Info:    INITIAL STRAIN RATE IS -3.34087e-05 -3.34087e-05 -3.34087e-05
Info:       CELL FLUCTUATION IS ISOTROPIC
Info: PARTICLE MESH EWALD (PME) ACTIVE
Info: PME TOLERANCE               1e-06
Info: PME EWALD COEFFICIENT       0.348832
Info: PME INTERPOLATION ORDER     4
Info: PME GRID DIMENSIONS         32 32 32
Info: PME MAXIMUM GRID SPACING    1
Info: PME CALCULATION WILL BE PERFORMED ON GPU
Info: FULL ELECTROSTATIC EVALUATION FREQUENCY      2
Info: USING VERLET I (r-RESPA) MTS SCHEME.
Info: C1 SPLITTING OF LONG RANGE ELECTROSTATICS
Info: PLACING ATOMS IN PATCHES BY HYDROGEN GROUPS
Info: RIGID BONDS TO HYDROGEN : ALL
Info:         ERROR TOLERANCE : 1e-08
Info:          MAX ITERATIONS : 100
Info: RIGID WATER USING SETTLE ALGORITHM
Info: RANDOM NUMBER SEED     1742109244
Info: USE HYDROGEN BONDS?    NO
Info: Using AMBER format force field!
Info: AMBER PARM FILE        mobley_7735340.prmtop
Info: COORDINATE PDB         mobley_7735340.pdb
Info: Exclusions will be read from PARM file!
Info: SCNB (VDW SCALING)     2
Info: USING ARITHMETIC MEAN TO COMBINE L-J SIGMA PARAMETERS
Info: BINARY COORDINATES     mobley_7735340_equil.coor
Info: SUMMARY OF PARAMETERS:
Info: 10 BONDS
Info: 12 ANGLES
Info:   12 HARMONIC
Info:   0 COSINE-BASED
Info: 4 DIHEDRAL
Info: 0 IMPROPER
Info: 0 CROSSTERM
Info: 0 VDW
Info: 36 VDW_PAIRS
Info: 0 NBTHOLE_PAIRS
Info: To read alchdata from file: mobley_7735340.pdb
Info: To read alchflag data from column: 5
Info: STRUCTURE SUMMARY:
Info: 2952 ATOMS
Info: 2952 BONDS
Info: 13 ANGLES
Info: 17 DIHEDRALS
Info: 0 IMPROPERS
Info: 0 CROSSTERMS
Info: 2976 EXCLUSIONS
Info: 2947 RIGID BONDS
Info: ALCH: 0 ATOMS TO DISAPPEAR IN FINAL STATE
Info: ALCH: 9 ATOMS TO APPEAR IN FINAL STATE
Info: 5909 DEGREES OF FREEDOM
Info: 986 HYDROGEN GROUPS
Info: 3 ATOMS IN LARGEST HYDROGEN GROUP
Info: 986 MIGRATION GROUPS
Info: 3 ATOMS IN LARGEST MIGRATION GROUP
Info: TOTAL MASS = 17741.8 amu
Info: TOTAL CHARGE = -9.99831e-05 e
Info: MASS DENSITY = 0.970972 g/cm^3
Info: ATOM DENSITY = 0.0972896 atoms/A^3
Info: ADDED 0 IMPLICIT EXCLUSIONS
Info: NONBONDED TABLE R-SQUARED SPACING: 0.0625
Info: NONBONDED TABLE SIZE: 705 POINTS
Info: REMOVING COM VELOCITY -0.14244 -0.0353767 0.0365441
Info: Use 3D box decompostion in PME FFT.
Info: Updated CUDA force table with 4096 elements.
Info: Updated CUDA LJ table with 8 x 8 elements.
Info: Found 12 unique exclusion lists needing 16 bytes
TCL: Running for 1500000 steps
ETITLE: TS BOND ANGLE DIHED IMPRP ELECT VDW BOUNDARY MISC KINETIC TOTAL TEMP POTENTIAL TOTALAVG TEMPAVG PRESSURE GPRESSURE VOLUME PRESSAVG GPRESSAVG
ENERGY: 0 1.2801 1.1460 2.4640 0.0000 -10654.2544 1404.2330 0.0000 0.0000 1736.6327 -7508.4985 295.7906 -9245.1312 -7508.4985 295.7906 -273.1482 -187.0037 30342.3893 -273.1482 -187.0037
ENERGY: 300000 1.4358 1.3886 1.7245 0.0000 -10805.3585 1453.5024 0.0000 0.0000 1793.4579 -7553.8492 305.4693 -9347.3072 -7546.2363 299.0682 74.0521 138.7509 30067.0358 -157.1384 -68.1841
ENERGY: 600000 0.6916 2.0816 1.1234 0.0000 -10675.1111 1358.7232 0.0000 0.0000 1747.5341 -7564.9571 297.6474 -9312.4912 -7538.3295 299.0222 -772.8461 -717.7845 30621.4670 -55.5247 24.4614
ENERGY: 900000 1.0770 2.9041 0.6452 0.0000 -10754.8878 1384.9184 0.0000 0.0000 1808.6212 -7556.7220 308.0520 -9365.3432 -7540.2405 299.8763 -629.6876 -565.2445 30369.0041 -337.2957 -260.8796
ENERGY: 1200000 0.8626 1.2669 0.8491 0.0000 -10766.0674 1486.4179 0.0000 0.0000 1719.4645 -7557.2064 292.8664 -9276.6709 -7535.8065 298.8855 117.6244 170.5459 30955.2465 -296.1108 -224.0530
ENERGY: 1500000 0.8987 0.9881 0.9606 0.0000 -10692.2039 1391.0016 0.0000 0.0000 1705.4949 -7592.8599 290.4871 -9298.3549 -7533.7438 298.6597 -632.6772 -584.1929 30791.2584 -247.4601 -173.1806
TCL: Running FEP window   2: Lambda1 0.95   Lambda2 0.8999999999999999 [dLambda -0.050000000000000044]
TCL: Setting parameter firsttimestep to 0
TCL: Setting parameter alchLambda to 0.95
Info: NONBONDED TABLE R-SQUARED SPACING: 0.0625
Info: NONBONDED TABLE SIZE: 705 POINTS
TCL: Setting parameter alchLambda2 to 0.8999999999999999
Info: NONBONDED TABLE R-SQUARED SPACING: 0.0625
Info: NONBONDED TABLE SIZE: 705 POINTS
TCL: Running for 1500000 steps
ETITLE: TS BOND ANGLE DIHED IMPRP ELECT VDW BOUNDARY MISC KINETIC TOTAL TEMP POTENTIAL TOTALAVG TEMPAVG PRESSURE GPRESSURE VOLUME PRESSAVG GPRESSAVG
ENERGY: 0 0.8987 0.9881 0.9606 0.0000 -10690.5001 1390.2049 0.0000 0.0000 1704.6426 -7592.8052 290.3419 -9297.4478 -7592.8052 290.3419 -670.8677 -594.8791 30791.2584 -670.8677 -594.8791
ENERGY: 300000 1.0323 1.8305 2.0765 0.0000 -10644.9324 1365.9962 0.0000 0.0000 1764.8340 -7509.1629 300.5940 -9273.9969 -7549.7920 298.5790 -489.0305 -404.5573 30553.7942 -266.4005 -199.8120
ENERGY: 600000 0.2441 4.2947 1.1228 0.0000 -10794.3559 1475.5810 0.0000 0.0000 1697.1476 -7615.9657 289.0653 -9313.1132 -7556.7028 296.8694 48.2032 159.2432 30390.4368 -333.2521 -252.5042
ENERGY: 900000 1.0138 3.3709 2.1300 0.0000 -10644.9331 1382.0318 0.0000 0.0000 1777.1048 -7479.2818 302.6840 -9256.3865 -7553.5546 296.3096 -325.3529 -285.5768 30394.0979 -287.3713 -224.0093
ENERGY: 1200000 2.3426 3.5352 0.7794 0.0000 -10736.3234 1414.2317 0.0000 0.0000 1781.5847 -7533.8497 303.4470 -9315.4344 -7532.3306 298.6835 -148.2564 -79.4301 30186.8029 -273.3063 -210.9587
ENERGY: 1500000 1.8441 3.6035 1.3867 0.0000 -10719.2521 1424.7503 0.0000 0.0000 1742.3900 -7545.2776 296.7712 -9287.6675 -7530.6727 299.0728 -54.3929 66.9255 30317.1928 -222.2632 -155.1935
TCL: Running FEP window   3: Lambda1 0.8999999999999999 Lambda2 0.8499999999999999 [dLambda -0.050000000000000044]
TCL: Setting parameter firsttimestep to 0
TCL: Setting parameter alchLambda to 0.8999999999999999
Info: NONBONDED TABLE R-SQUARED SPACING: 0.0625
Info: NONBONDED TABLE SIZE: 705 POINTS
TCL: Setting parameter alchLambda2 to 0.8499999999999999
Info: NONBONDED TABLE R-SQUARED SPACING: 0.0625
Info: NONBONDED TABLE SIZE: 705 POINTS
TCL: Running for 1500000 steps
ETITLE: TS BOND ANGLE DIHED IMPRP ELECT VDW BOUNDARY MISC KINETIC TOTAL TEMP POTENTIAL TOTALAVG TEMPAVG PRESSURE GPRESSURE VOLUME PRESSAVG GPRESSAVG
ENERGY: 0 1.8441 3.6035 1.3867 0.0000 -10717.4219 1423.7475 0.0000 0.0000 1741.5481 -7545.2920 296.6278 -9286.8401 -7545.2920 296.6278 -27.1258 53.3516 30317.1928 -27.1258 53.3516
ENERGY: 300000 0.9083 1.9927 1.2756 0.0000 -10646.0611 1390.5555 0.0000 0.0000 1723.3954 -7527.9336 293.5360 -9251.3290 -7508.7509 301.5376 -177.8900 -166.5369 30363.0037 -403.7221 -338.4779
ENERGY: 600000 2.4000 2.3489 3.3921 0.0000 -10695.5732 1443.4310 0.0000 0.0000 1777.0672 -7466.9340 302.6776 -9244.0012 -7495.3094 302.2285 106.1903 159.3025 30470.5082 -303.7535 -246.7109
ENERGY: 900000 3.7117 3.1777 2.1860 0.0000 -10819.5645 1452.4745 0.0000 0.0000 1787.6346 -7570.3800 304.4775 -9358.0146 -7496.5295 302.6290 -142.1738 -152.1435 30203.4634 -221.3434 -172.6851
ENERGY: 1200000 3.2574 1.4477 0.6284 0.0000 -10696.8447 1406.6142 0.0000 0.0000 1765.5405 -7519.3566 300.7143 -9284.8970 -7503.9415 301.9471 -443.7191 -423.0644 30521.7075 -191.4679 -144.4400
ENERGY: 1500000 2.4046 1.4924 1.9527 0.0000 -10643.5875 1439.6213 0.0000 0.0000 1730.2554 -7467.8611 294.7044 -9198.1166 -7498.2015 302.2350 269.0176 336.7381 30449.5831 -112.2736 -64.3681
TCL: Running FEP window   4: Lambda1 0.8499999999999999 Lambda2 0.7999999999999998 [dLambda -0.050000000000000044]
TCL: Setting parameter firsttimestep to 0
TCL: Setting parameter alchLambda to 0.8499999999999999
Info: NONBONDED TABLE R-SQUARED SPACING: 0.0625
Info: NONBONDED TABLE SIZE: 705 POINTS
TCL: Setting parameter alchLambda2 to 0.7999999999999998
Info: NONBONDED TABLE R-SQUARED SPACING: 0.0625
Info: NONBONDED TABLE SIZE: 705 POINTS
TCL: Running for 1500000 steps
ETITLE: TS BOND ANGLE DIHED IMPRP ELECT VDW BOUNDARY MISC KINETIC TOTAL TEMP POTENTIAL TOTALAVG TEMPAVG PRESSURE GPRESSURE VOLUME PRESSAVG GPRESSAVG
ENERGY: 0 2.4046 1.4924 1.9527 0.0000 -10642.8486 1438.9141 0.0000 0.0000 1729.3906 -7468.6942 294.5571 -9198.0848 -7468.6942 294.5571 228.4046 320.3870 30449.5831 228.4046 320.3870
ENERGY: 100000 0.9244 1.2022 2.4363 0.0000 -10689.3655 1443.0072 0.0000 0.0000 1781.3036 -7460.4918 303.3991 -9241.7954 -7464.5930 298.9781 17.7794 49.4226 30652.6085 123.0920 184.9048
ENERGY: 200000 1.4134 3.9823 2.7613 0.0000 -10738.1571 1458.3128 0.0000 0.0000 1722.2801 -7549.4071 293.3460 -9271.6872 -7492.8644 297.1007 436.7534 438.8960 30085.7863 227.6458 269.5685
ENERGY: 400000 4.8937 2.8469 0.5485 0.0000 -10792.5689 1519.4901 0.0000 0.0000 1771.5479 -7493.2418 301.7375 -9264.7897 -7510.5916 299.6246 1061.2287 1081.5923 29787.1166 330.0341 360.2355
ENERGY: 500000 1.4946 2.1790 1.3503 0.0000 -10706.3125 1429.0287 0.0000 0.0000 1750.0772 -7522.1826 298.0805 -9272.2598 -7512.5235 299.3672 -365.5268 -328.9329 30770.8430 214.1073 245.3741
ENERGY: 600000 1.4549 2.5963 1.4605 0.0000 -10773.4676 1424.6647 0.0000 0.0000 1819.7982 -7523.4929 309.9557 -9343.2911 -7514.0905 300.8799 -122.1335 -56.6801 30125.6480 166.0729 202.2235
