Info: SIMULATION PARAMETERS:
Info: TIMESTEP               2
Info: NUMBER OF STEPS        0
Info: STEPS PER CYCLE        10
Info: PERIODIC CELL BASIS 1  41.123 0 0
Info: PERIODIC CELL BASIS 2  0 43.492 0
Info: PERIODIC CELL BASIS 3  0 0 41.374
Info: PERIODIC CELL CENTER   0 0 0
Info: WRAPPING WATERS AROUND PERIODIC BOUNDARIES ON OUTPUT.
Info: WRAPPING ALL CLUSTERS AROUND PERIODIC BOUNDARIES ON OUTPUT.
Info: FIRST LDB TIMESTEP     50
Info: LAST LDB TIMESTEP     -1
Info: HOM BACKGROUND SCALING 1
Info: PME BACKGROUND SCALING 1
Info: MIN ATOMS PER PATCH    40
Info: EMPTY PATCH LOAD       40 ATOMS
Info: INITIAL TEMPERATURE    300
Info: CENTER OF MASS MOVING INITIALLY? NO
Info: DIELECTRIC             1
Info: EXCLUDE                SCALED ONE-FOUR
Info: 1-4 ELECTROSTATICS SCALED BY 0.833333
Info: MODIFIED 1-4 VDW PARAMETERS WILL BE USED
Info: DCD FILENAME           mobley_5616693_min.dcd
Info: DCD FREQUENCY          5000
Info: DCD FIRST STEP         5000
Info: DCD FILE WILL CONTAIN UNIT CELL DATA
Info: XST FILENAME           mobley_5616693_min.xst
Info: XST FREQUENCY          5000
Info: NO VELOCITY DCD OUTPUT
Info: NO FORCE DCD OUTPUT
Info: OUTPUT FILENAME        mobley_5616693_min
Info: BINARY OUTPUT FILES WILL BE USED
Info: RESTART FILENAME       mobley_5616693_min.restart
Info: RESTART FREQUENCY      5000
Info: BINARY RESTART FILES WILL BE USED
Info: CUTOFF                 9
Info: PAIRLIST DISTANCE      11
Info: PAIRLIST SHRINK RATE   0.01
Info: PAIRLIST GROW RATE     0.01
Info: PAIRLIST TRIGGER       0.3
Info: PAIRLISTS PER CYCLE    2
Info: PAIRLISTS ENABLED
Info: MARGIN                 8
Info: HYDROGEN GROUP CUTOFF  2.5
Info: PATCH DIMENSION        21.5
Info: ENERGY OUTPUT STEPS    5000
Info: ENERGY EVALUATION STEPS    5000
Info: OUTPUT ENERGY PRECISION 4
Info: CROSSTERM ENERGY INCLUDED IN DIHEDRAL
Info: TIMING OUTPUT STEPS    50000
Info: PRESSURE OUTPUT STEPS  5000
Info: LANGEVIN DYNAMICS ACTIVE
Info: LANGEVIN TEMPERATURE   300
Info: LANGEVIN USING BBK INTEGRATOR
Info: LANGEVIN DAMPING COEFFICIENT IS 1 INVERSE PS
Info: LANGEVIN DYNAMICS APPLIED TO HYDROGENS
Info: LANGEVIN PISTON PRESSURE CONTROL ACTIVE
Info:        TARGET PRESSURE IS 1.01325 BAR
Info:     OSCILLATION PERIOD IS 50 FS
Info:             DECAY TIME IS 25 FS
Info:     PISTON TEMPERATURE IS 300 K
Info:       PRESSURE CONTROL IS GROUP-BASED
Info:    INITIAL STRAIN RATE IS 0 0 0
Info:       CELL FLUCTUATION IS ISOTROPIC
Info: PARTICLE MESH EWALD (PME) ACTIVE
Info: PME TOLERANCE               1e-06
Info: PME EWALD COEFFICIENT       0.348832
Info: PME INTERPOLATION ORDER     4
Info: PME GRID DIMENSIONS         44 44 44
Info: PME MAXIMUM GRID SPACING    1
Info: FULL ELECTROSTATIC EVALUATION FREQUENCY      2
Info: USING VERLET I (r-RESPA) MTS SCHEME.
Info: C1 SPLITTING OF LONG RANGE ELECTROSTATICS
Info: PLACING ATOMS IN PATCHES BY HYDROGEN GROUPS
Info: RIGID BONDS TO HYDROGEN : ALL
Info:         ERROR TOLERANCE : 1e-08
Info:          MAX ITERATIONS : 100
Info: RIGID WATER USING SETTLE ALGORITHM
Info: RANDOM NUMBER SEED     1741349414
Info: USE HYDROGEN BONDS?    NO
Info: Using AMBER format force field!
Info: AMBER PARM FILE        mobley_5616693.prmtop
Info: COORDINATE PDB         mobley_5616693.pdb
Info: Exclusions will be read from PARM file!
Info: SCNB (VDW SCALING)     2
Info: USING ARITHMETIC MEAN TO COMBINE L-J SIGMA PARAMETERS
Info: SUMMARY OF PARAMETERS:
Info: 6 BONDS
Info: 7 ANGLES
Info:   7 HARMONIC
Info:   0 COSINE-BASED
Info: 15 DIHEDRAL
Info: 0 IMPROPER
Info: 0 CROSSTERM
Info: 0 VDW
Info: 21 VDW_PAIRS
Info: 0 NBTHOLE_PAIRS
Info: STRUCTURE SUMMARY:
Info: 5363 ATOMS
Info: 5363 BONDS
Info: 57 ANGLES
Info: 104 DIHEDRALS
Info: 0 IMPROPERS
Info: 0 CROSSTERMS
Info: 5501 EXCLUSIONS
Info: 5352 RIGID BONDS
Info: 10737 DEGREES OF FREEDOM
Info: 1789 HYDROGEN GROUPS
Info: 4 ATOMS IN LARGEST HYDROGEN GROUP
Info: 1789 MIGRATION GROUPS
Info: 4 ATOMS IN LARGEST MIGRATION GROUP
Info: TOTAL MASS = 32186.7 amu
Info: TOTAL CHARGE = -0.000100005 e
Info: MASS DENSITY = 0.722294 g/cm^3
Info: ATOM DENSITY = 0.0724746 atoms/A^3
Info: ADDED 0 IMPLICIT EXCLUSIONS
Info: NONBONDED TABLE R-SQUARED SPACING: 0.0625
Info: NONBONDED TABLE SIZE: 705 POINTS
Info: REMOVING COM VELOCITY 0.0521428 0.0249933 0.131427
TCL: Minimizing for 2000 steps
ETITLE: TS BOND ANGLE DIHED IMPRP ELECT VDW BOUNDARY MISC KINETIC TOTAL TEMP POTENTIAL TOTAL3 TEMPAVG PRESSURE GPRESSURE VOLUME PRESSAVG GPRESSAVG
ENERGY: 0 0.2039 1.2598 34.4693 0.0000 -16652.7939 1881.1136 0.0000 0.0000 0.0000 -14735.7472 0.0000 -14735.7472 -14735.7472 0.0000 11194.8719 -15325.3592 73998.2892 11194.8719 -15325.3592
ENERGY: 400 3.1471 5.3940 23.9474 0.0000 -22407.9888 3260.4459 0.0000 0.0000 0.0000 -19115.0545 0.0000 -19115.0545 -19115.0545 0.0000 15829.5514 10188.9768 73998.2892 15829.5514 10188.9768
ENERGY: 800 1.3223 3.8675 24.3279 0.0000 -23465.2814 3738.5363 0.0000 0.0000 0.0000 -19697.2274 0.0000 -19697.2274 -19697.2274 0.0000 17817.2926 11788.0897 73998.2892 17817.2926 11788.0897
ENERGY: 1200 1.9903 3.7113 24.1450 0.0000 -23972.6202 3972.8090 0.0000 0.0000 0.0000 -19969.9646 0.0000 -19969.9646 -19969.9646 0.0000 18807.7934 12754.9626 73998.2892 18807.7934 12754.9626
ENERGY: 1600 1.1079 3.2696 24.1402 0.0000 -24346.4674 4174.0315 0.0000 0.0000 0.0000 -20143.9183 0.0000 -20143.9183 -20143.9183 0.0000 19745.4540 13664.0467 73998.2892 19745.4540 13664.0467
ENERGY: 2000 0.7285 3.2330 24.3524 0.0000 -24499.3451 4223.1759 0.0000 0.0000 0.0000 -20247.8553 0.0000 -20247.8553 -20247.8553 0.0000 19994.6661 13760.4779 73998.2892 19994.6661 13760.4779
TCL: Exiting due to exit command.
Info: NAMD 3.0.1 for Linux-x86_64-multicore
Info: Please visit http://www.ks.uiuc.edu/Research/namd/
Info: for updates, documentation, and support information.
Info: Please cite Phillips et al., J. Chem. Phys. 153:044130 (2020) doi:10.1063/5.0014475
Info: in all publications reporting results obtained with NAMD.
Info: Based on Charm++/Converse 80000 for multicore-linux-x86_64-gcc
Info: Built Mon Oct 14 11:11:06 CDT 2024 by dhardy on athine.ks.uiuc.edu
Info: 1 NAMD  3.0.1  Linux-x86_64-multicore  16    k063  z5358697
Info: Running on 16 processors, 1 nodes, 1 physical nodes.
Info: CPU topology information available.
Info: Charm++/Converse parallel runtime startup completed at 0.0117066 s
Info: 1043.46 MB of memory in use based on /proc/self/stat
Info: Configuration file is mobley_5616693_equil.namd
Info: Working in the current directory /srv/scratch/z5358697/prod_prep_7/5616693
TCL: Running 25000 steps at 30 kelvin.
TCL: Suspending until startup complete.
Info: SIMULATION PARAMETERS:
Info: TIMESTEP               2
Info: NUMBER OF STEPS        0
Info: STEPS PER CYCLE        10
Info: PERIODIC CELL BASIS 1  41.123 0 0
Info: PERIODIC CELL BASIS 2  0 43.492 0
Info: PERIODIC CELL BASIS 3  0 0 41.374
Info: PERIODIC CELL CENTER   0 0 0
Info: WRAPPING WATERS AROUND PERIODIC BOUNDARIES ON OUTPUT.
Info: WRAPPING ALL CLUSTERS AROUND PERIODIC BOUNDARIES ON OUTPUT.
Info: FIRST LDB TIMESTEP     50
Info: LAST LDB TIMESTEP     -1
Info: HOM BACKGROUND SCALING 1
Info: PME BACKGROUND SCALING 1
Info: MIN ATOMS PER PATCH    40
Info: EMPTY PATCH LOAD       40 ATOMS
Info: INITIAL TEMPERATURE    300
Info: CENTER OF MASS MOVING INITIALLY? NO
Info: DIELECTRIC             1
Info: EXCLUDE                SCALED ONE-FOUR
Info: 1-4 ELECTROSTATICS SCALED BY 0.833333
Info: MODIFIED 1-4 VDW PARAMETERS WILL BE USED
Info: DCD FILENAME           mobley_5616693_equil.dcd
Info: DCD FREQUENCY          5000
Info: DCD FIRST STEP         5000
Info: DCD FILE WILL CONTAIN UNIT CELL DATA
Info: XST FILENAME           mobley_5616693_equil.xst
Info: XST FREQUENCY          5000
Info: NO VELOCITY DCD OUTPUT
Info: NO FORCE DCD OUTPUT
Info: OUTPUT FILENAME        mobley_5616693_equil
Info: BINARY OUTPUT FILES WILL BE USED
Info: RESTART FILENAME       mobley_5616693_equil.restart
Info: RESTART FREQUENCY      5000
Info: BINARY RESTART FILES WILL BE USED
Info: CUTOFF                 9
Info: PAIRLIST DISTANCE      11
Info: PAIRLIST SHRINK RATE   0.01
Info: PAIRLIST GROW RATE     0.01
Info: PAIRLIST TRIGGER       0.3
Info: PAIRLISTS PER CYCLE    2
Info: PAIRLISTS ENABLED
Info: MARGIN                 8
Info: HYDROGEN GROUP CUTOFF  2.5
Info: PATCH DIMENSION        21.5
Info: ENERGY OUTPUT STEPS    5000
Info: ENERGY EVALUATION STEPS    5000
Info: OUTPUT ENERGY PRECISION 4
Info: CROSSTERM ENERGY INCLUDED IN DIHEDRAL
Info: TIMING OUTPUT STEPS    50000
Info: PRESSURE OUTPUT STEPS  5000
Info: LANGEVIN DYNAMICS ACTIVE
Info: LANGEVIN TEMPERATURE   30
Info: LANGEVIN USING BBK INTEGRATOR
Info: LANGEVIN DAMPING COEFFICIENT IS 1 INVERSE PS
Info: LANGEVIN DYNAMICS APPLIED TO HYDROGENS
Info: LANGEVIN PISTON PRESSURE CONTROL ACTIVE
Info:        TARGET PRESSURE IS 1.01325 BAR
Info:     OSCILLATION PERIOD IS 50 FS
Info:             DECAY TIME IS 25 FS
Info:     PISTON TEMPERATURE IS 300 K
Info:       PRESSURE CONTROL IS GROUP-BASED
Info:    INITIAL STRAIN RATE IS 0 0 0
Info:       CELL FLUCTUATION IS ISOTROPIC
Info: PARTICLE MESH EWALD (PME) ACTIVE
Info: PME TOLERANCE               1e-06
Info: PME EWALD COEFFICIENT       0.348832
Info: PME INTERPOLATION ORDER     4
Info: PME GRID DIMENSIONS         44 44 44
Info: PME MAXIMUM GRID SPACING    1
Info: FULL ELECTROSTATIC EVALUATION FREQUENCY      2
Info: USING VERLET I (r-RESPA) MTS SCHEME.
Info: C1 SPLITTING OF LONG RANGE ELECTROSTATICS
Info: PLACING ATOMS IN PATCHES BY HYDROGEN GROUPS
Info: RIGID BONDS TO HYDROGEN : ALL
Info:         ERROR TOLERANCE : 1e-08
Info:          MAX ITERATIONS : 100
Info: RIGID WATER USING SETTLE ALGORITHM
Info: RANDOM NUMBER SEED     1741349430
Info: USE HYDROGEN BONDS?    NO
Info: Using AMBER format force field!
Info: AMBER PARM FILE        mobley_5616693.prmtop
Info: COORDINATE PDB         mobley_5616693.pdb
Info: Exclusions will be read from PARM file!
Info: SCNB (VDW SCALING)     2
Info: USING ARITHMETIC MEAN TO COMBINE L-J SIGMA PARAMETERS
Info: BINARY COORDINATES     mobley_5616693_min.coor
Info: SUMMARY OF PARAMETERS:
Info: 6 BONDS
Info: 7 ANGLES
Info:   7 HARMONIC
Info:   0 COSINE-BASED
Info: 15 DIHEDRAL
Info: 0 IMPROPER
Info: 0 CROSSTERM
Info: 0 VDW
Info: 21 VDW_PAIRS
Info: 0 NBTHOLE_PAIRS
Info: STRUCTURE SUMMARY:
Info: 5363 ATOMS
Info: 5363 BONDS
Info: 57 ANGLES
Info: 104 DIHEDRALS
Info: 0 IMPROPERS
Info: 0 CROSSTERMS
Info: 5501 EXCLUSIONS
Info: 5352 RIGID BONDS
Info: 10737 DEGREES OF FREEDOM
Info: 1789 HYDROGEN GROUPS
Info: 4 ATOMS IN LARGEST HYDROGEN GROUP
Info: 1789 MIGRATION GROUPS
Info: 4 ATOMS IN LARGEST MIGRATION GROUP
Info: TOTAL MASS = 32186.7 amu
Info: TOTAL CHARGE = -0.000100005 e
Info: MASS DENSITY = 0.722294 g/cm^3
Info: ATOM DENSITY = 0.0724746 atoms/A^3
Info: ADDED 0 IMPLICIT EXCLUSIONS
Info: NONBONDED TABLE R-SQUARED SPACING: 0.0625
Info: NONBONDED TABLE SIZE: 705 POINTS
Info: REMOVING COM VELOCITY -0.139403 -0.105436 0.0701272
TCL: Running for 25000 steps
ETITLE: TS BOND ANGLE DIHED IMPRP ELECT VDW BOUNDARY MISC KINETIC TOTAL TEMP POTENTIAL TOTAL3 TEMPAVG PRESSURE GPRESSURE VOLUME PRESSAVG GPRESSAVG
ENERGY: 0 0.7285 3.2330 24.3524 0.0000 -24499.3451 4223.1759 0.0000 0.0000 3220.6364 -17027.2190 301.8903 -20247.8553 -17026.5799 301.8903 234.0880 271.0724 73998.2892 234.0880 271.0724
ENERGY: 5000 1.3728 4.2026 24.1652 0.0000 -25568.5453 4323.4606 0.0000 0.0000 314.7614 -20900.5827 29.5045 -21215.3441 -20899.4488 47.8971 -629.1713 -555.1967 52418.5116 5.8367 5.8758
ENERGY: 10000 1.3340 4.5473 24.8788 0.0000 -25615.8509 4324.7883 0.0000 0.0000 315.9418 -20944.3608 29.6152 -21260.3025 -20943.3885 30.0036 -699.6380 -650.8277 52269.6133 0.1446 -0.2137
ENERGY: 15000 1.0497 4.9769 24.0492 0.0000 -25739.5817 4439.2248 0.0000 0.0000 312.4182 -20957.8629 29.2849 -21270.2812 -20957.2923 30.0457 -174.8530 -129.6318 52170.2746 3.3152 3.3598
ENERGY: 20000 0.8520 4.4608 23.8046 0.0000 -25610.5919 4302.7272 0.0000 0.0000 323.6781 -20955.0692 30.3404 -21278.7473 -20953.9803 30.0963 -891.9945 -824.1837 52439.8508 -1.3100 -1.0896
ENERGY: 25000 0.7263 4.3532 24.4409 0.0000 -25701.1082 4363.0705 0.0000 0.0000 313.6288 -20994.8886 29.3984 -21308.5173 -20994.0065 30.2042 -627.2595 -559.1826 52203.9939 -2.3385 -2.4696
TCL: Running 25000 steps at 60 kelvin.
TCL: Setting parameter langevinTemp to 60
TCL: Running for 25000 steps
ETITLE: TS BOND ANGLE DIHED IMPRP ELECT VDW BOUNDARY MISC KINETIC TOTAL TEMP POTENTIAL TOTAL3 TEMPAVG PRESSURE GPRESSURE VOLUME PRESSAVG GPRESSAVG
ENERGY: 25000 0.7263 4.3532 24.4409 0.0000 -25701.1082 4363.0705 0.0000 0.0000 313.4680 -20995.0493 29.3833 -21308.5173 -20994.3415 29.3833 -621.5149 -559.1973 52203.9939 -621.5149 -559.1973
ENERGY: 30000 0.5759 6.8346 24.1292 0.0000 -25571.1297 4499.7639 0.0000 0.0000 643.8877 -20395.9383 60.3556 -21039.8261 -20395.0467 57.0342 663.6507 724.4290 52022.9922 -0.4269 -1.1666
ENERGY: 35000 1.8194 4.8521 25.2276 0.0000 -25571.0397 4476.7553 0.0000 0.0000 643.9607 -20418.4246 60.3624 -21062.3853 -20416.8516 60.8123 405.2004 455.3808 51989.4907 4.6064 4.7853
ENERGY: 40000 1.0760 6.9961 24.8188 0.0000 -25628.1084 4497.2412 0.0000 0.0000 649.1799 -20448.7964 60.8517 -21097.9763 -20446.6438 60.3634 553.2008 590.8846 51798.5587 0.0863 0.2086
ENERGY: 45000 1.4902 5.5363 25.2436 0.0000 -25390.1217 4255.2880 0.0000 0.0000 644.4575 -20458.1061 60.4090 -21102.5636 -20457.1254 60.2721 -577.3814 -516.2235 52050.9026 5.1706 4.7895
ENERGY: 50000 1.6305 7.1094 23.8715 0.0000 -25453.0013 4285.4867 0.0000 0.0000 630.5820 -20504.3213 59.1084 -21134.9033 -20502.6304 59.8438 -505.8724 -445.3511 51868.0155 3.8910 3.9182
TCL: Running 25000 steps at 90 kelvin.
TCL: Setting parameter langevinTemp to 90
TCL: Running for 25000 steps
ETITLE: TS BOND ANGLE DIHED IMPRP ELECT VDW BOUNDARY MISC KINETIC TOTAL TEMP POTENTIAL TOTAL3 TEMPAVG PRESSURE GPRESSURE VOLUME PRESSAVG GPRESSAVG
ENERGY: 50000 1.6305 7.1094 23.8715 0.0000 -25453.0013 4285.4867 0.0000 0.0000 630.2564 -20504.6469 59.0778 -21134.9033 -20503.1544 59.0778 -509.2531 -445.6116 51868.0155 -509.2531 -445.6116
ENERGY: 55000 2.7584 7.8231 23.8540 0.0000 -25248.3594 4406.0319 0.0000 0.0000 966.9004 -19840.9917 90.6336 -20807.8921 -19839.0587 87.0438 755.1995 810.0579 51839.9553 5.0356 5.3009
ENERGY: 60000 1.0120 6.3278 25.1477 0.0000 -25167.4077 4270.8665 0.0000 0.0000 956.2666 -19907.7871 89.6368 -20864.0537 -19906.4084 89.9857 23.7671 73.8465 51947.0560 5.5074 5.4242
ENERGY: 65000 2.1955 6.1299 24.1509 0.0000 -25119.0851 4198.0051 0.0000 0.0000 971.0308 -19917.5729 91.0208 -20888.6038 -19914.8457 89.9810 -463.0105 -389.0041 52275.4829 7.1313 7.4539
ENERGY: 70000 2.4219 6.4425 23.8780 0.0000 -25050.4658 4134.6910 0.0000 0.0000 968.1081 -19914.9243 90.7468 -20883.0324 -19912.5336 90.3800 -854.6367 -771.8071 52478.4776 -0.4101 -0.5026
ENERGY: 75000 0.9771 6.8224 24.8229 0.0000 -25374.2040 4449.9887 0.0000 0.0000 954.3583 -19937.2346 89.4579 -20891.5929 -19935.2368 89.8269 769.7071 811.2176 51836.6065 -0.8240 -0.9436
TCL: Running 25000 steps at 120 kelvin.
TCL: Setting parameter langevinTemp to 120
TCL: Running for 25000 steps
ETITLE: TS BOND ANGLE DIHED IMPRP ELECT VDW BOUNDARY MISC KINETIC TOTAL TEMP POTENTIAL TOTAL3 TEMPAVG PRESSURE GPRESSURE VOLUME PRESSAVG GPRESSAVG
ENERGY: 75000 0.9771 6.8224 24.8229 0.0000 -25374.2040 4449.9887 0.0000 0.0000 953.8926 -19937.7002 89.4143 -20891.5929 -19935.9722 89.4143 756.0444 811.0506 51836.6065 756.0444 811.0506
ENERGY: 80000 1.1982 8.5017 25.1328 0.0000 -24791.2770 4179.8789 0.0000 0.0000 1266.5148 -19310.0506 118.7183 -20576.5654 -19308.7371 116.9548 154.1871 205.4531 52405.0475 1.8503 1.5719
ENERGY: 85000 3.9006 5.6378 26.1848 0.0000 -24687.0595 4065.9854 0.0000 0.0000 1264.0090 -19321.3419 118.4834 -20585.3510 -19318.3608 120.2189 -485.1954 -390.3299 52275.6955 -0.6008 -0.7041
ENERGY: 90000 2.2584 7.8606 26.5683 0.0000 -24678.9479 4045.7765 0.0000 0.0000 1257.8343 -19338.6498 117.9046 -20596.4841 -19334.1576 119.6634 -613.6567 -572.6707 52576.2219 1.5392 1.5225
ENERGY: 95000 1.1274 6.8007 26.0861 0.0000 -24962.4093 4298.8223 0.0000 0.0000 1285.8686 -19343.7042 120.5325 -20629.5728 -19341.9677 119.3828 673.0284 733.5206 51919.5723 4.0801 4.0698
ENERGY: 100000 2.0207 7.8609 25.0303 0.0000 -24863.3089 4170.3163 0.0000 0.0000 1295.1984 -19362.8823 121.4070 -20658.0806 -19358.9075 120.4038 23.7554 69.6936 52050.9386 -1.2903 -1.0146
TCL: Running 25000 steps at 150 kelvin.
TCL: Setting parameter langevinTemp to 150
TCL: Running for 25000 steps
ETITLE: TS BOND ANGLE DIHED IMPRP ELECT VDW BOUNDARY MISC KINETIC TOTAL TEMP POTENTIAL TOTAL3 TEMPAVG PRESSURE GPRESSURE VOLUME PRESSAVG GPRESSAVG
ENERGY: 100000 2.0207 7.8609 25.0303 0.0000 -24863.3089 4170.3163 0.0000 0.0000 1294.5629 -19363.5177 121.3474 -20658.0806 -19360.6227 121.3474 22.5743 69.3695 52050.9386 22.5743 69.3695
ENERGY: 105000 2.2055 9.3216 23.3121 0.0000 -24284.3908 4041.9642 0.0000 0.0000 1606.2643 -18601.3230 150.5651 -20207.5873 -18596.5680 146.1170 269.1909 366.2888 52179.9373 -2.5749 -2.5376
ENERGY: 110000 2.3308 8.0688 26.0371 0.0000 -24252.9714 3925.1905 0.0000 0.0000 1578.3976 -18712.9466 147.9530 -20291.3442 -18708.7597 150.9935 -393.2529 -352.2399 52282.4407 -2.1000 -2.1025
ENERGY: 115000 2.1806 7.8446 24.9131 0.0000 -24284.6736 4011.4713 0.0000 0.0000 1594.3105 -18643.9535 149.4446 -20238.2640 -18639.0851 150.0695 74.3149 111.8029 52151.3466 9.5536 9.3860
ENERGY: 120000 2.7176 9.6957 26.6777 0.0000 -24474.0227 4139.9406 0.0000 0.0000 1659.5920 -18635.3992 155.5639 -20294.9912 -18633.2179 150.8242 552.6165 566.9103 52333.3179 5.9970 6.0241
ENERGY: 125000 0.9547 8.8770 26.7854 0.0000 -24509.6411 4182.0479 0.0000 0.0000 1608.1371 -18682.8390 150.7407 -20290.9761 -18679.6289 150.1996 758.5846 785.3865 52213.7382 1.0241 1.0761
TCL: Running 50000 steps at 180 kelvin.
TCL: Setting parameter langevinTemp to 180
TCL: Running for 50000 steps
ETITLE: TS BOND ANGLE DIHED IMPRP ELECT VDW BOUNDARY MISC KINETIC TOTAL TEMP POTENTIAL TOTAL3 TEMPAVG PRESSURE GPRESSURE VOLUME PRESSAVG GPRESSAVG
ENERGY: 125000 0.9547 8.8770 26.7854 0.0000 -24509.6411 4182.0479 0.0000 0.0000 1607.3177 -18683.6585 150.6639 -20290.9761 -18680.6928 150.6639 740.1009 785.3393 52213.7382 740.1009 785.3393
ENERGY: 135000 2.7081 8.7370 24.6978 0.0000 -23669.6352 3801.9534 0.0000 0.0000 1857.0622 -17974.4768 174.0740 -19831.5389 -17969.6928 178.1175 -277.1222 -217.1954 53193.4459 7.5438 7.7748
ENERGY: 145000 2.6222 12.0555 24.2033 0.0000 -23811.9846 3912.5129 0.0000 0.0000 1952.1041 -17908.4866 182.9829 -19860.5908 -17904.1614 179.6116 546.9899 574.4197 52128.6852 6.2413 6.5693
ENERGY: 155000 4.2796 9.1774 26.5257 0.0000 -23628.3349 3761.2595 0.0000 0.0000 1910.5406 -17916.5522 179.0869 -19827.0928 -17909.8926 180.0368 -246.5317 -180.7022 52193.4615 -0.3058 -0.3527
ENERGY: 165000 1.4308 11.1918 23.7959 0.0000 -23896.7963 3898.4064 0.0000 0.0000 1894.9119 -18067.0595 177.6219 -19961.9714 -18063.4337 179.8014 150.1039 175.2644 52305.0438 1.7422 1.5987
ENERGY: 175000 1.5219 8.3663 25.9458 0.0000 -23868.8911 3947.4183 0.0000 0.0000 1928.5307 -17957.1080 180.7732 -19885.6387 -17953.1385 180.2263 578.8854 595.3626 52350.4555 1.5055 1.3291
TCL: Running 50000 steps at 210 kelvin.
TCL: Setting parameter langevinTemp to 210
TCL: Running for 50000 steps
ETITLE: TS BOND ANGLE DIHED IMPRP ELECT VDW BOUNDARY MISC KINETIC TOTAL TEMP POTENTIAL TOTAL3 TEMPAVG PRESSURE GPRESSURE VOLUME PRESSAVG GPRESSAVG
ENERGY: 175000 1.5219 8.3663 25.9458 0.0000 -23868.8911 3947.4183 0.0000 0.0000 1927.5769 -17958.0618 180.6838 -19885.6387 -17954.4091 180.6838 529.1514 594.6142 52350.4555 529.1514 594.6142
ENERGY: 185000 6.6498 10.4918 25.8569 0.0000 -22816.0743 3660.9117 0.0000 0.0000 2225.5099 -16886.6542 208.6109 -19112.1641 -16883.6926 208.8624 584.5459 664.1349 52718.4242 1.3952 2.0008
ENERGY: 195000 2.6939 12.5906 25.7476 0.0000 -22588.4522 3451.2651 0.0000 0.0000 2271.8091 -16824.3460 212.9508 -19096.1551 -16821.7827 209.7189 -42.6651 53.6369 52416.3963 3.2473 3.4511
ENERGY: 205000 1.9803 13.5334 28.7986 0.0000 -22598.7241 3515.3150 0.0000 0.0000 2248.9851 -16790.1118 210.8114 -19039.0968 -16785.2833 209.3660 556.6847 577.2652 52005.9786 1.6555 1.6834
ENERGY: 215000 3.4994 13.8093 23.7091 0.0000 -22475.6728 3384.4239 0.0000 0.0000 2255.2393 -16794.9917 211.3976 -19050.2311 -16791.3123 209.0519 -205.1143 -188.3331 52421.0945 2.4163 1.6934
ENERGY: 225000 3.3667 9.2399 25.7231 0.0000 -22488.0387 3329.9890 0.0000 0.0000 2289.3906 -16830.3294 214.5988 -19119.7200 -16824.1647 210.4438 -737.3099 -645.8349 52468.4277 3.6104 3.4466
TCL: Running 50000 steps at 240 kelvin.
TCL: Setting parameter langevinTemp to 240
TCL: Running for 50000 steps
ETITLE: TS BOND ANGLE DIHED IMPRP ELECT VDW BOUNDARY MISC KINETIC TOTAL TEMP POTENTIAL TOTAL3 TEMPAVG PRESSURE GPRESSURE VOLUME PRESSAVG GPRESSAVG
ENERGY: 225000 3.3667 9.2399 25.7231 0.0000 -22488.0387 3329.9890 0.0000 0.0000 2288.2449 -16831.4751 214.4914 -19119.7200 -16827.2880 214.4914 -732.5637 -645.5508 52468.4277 -732.5637 -645.5508
ENERGY: 235000 3.6519 10.7607 26.1785 0.0000 -21512.7278 3123.9741 0.0000 0.0000 2557.2709 -15790.8917 239.7089 -18348.1626 -15785.1449 239.3165 -250.7278 -164.6735 52907.4002 0.5819 0.6127
ENERGY: 245000 4.5317 17.0574 25.9814 0.0000 -21379.8778 3123.8617 0.0000 0.0000 2549.9681 -15658.4776 239.0244 -18208.4457 -15655.2834 239.9130 231.7962 295.9438 52553.9446 2.3724 2.1231
ENERGY: 255000 1.8337 16.2966 26.1546 0.0000 -21358.8680 3056.2682 0.0000 0.0000 2512.6715 -15745.6433 235.5283 -18258.3148 -15737.8009 237.5601 -272.3445 -177.7616 52634.4259 0.2247 -0.2923
ENERGY: 265000 3.3295 12.8547 26.2736 0.0000 -21306.7617 2970.4921 0.0000 0.0000 2564.5034 -15729.3084 240.3869 -18293.8118 -15722.0144 239.5773 -779.4479 -741.6111 53021.3818 2.2999 2.6857
ENERGY: 275000 2.1262 13.1699 24.1355 0.0000 -21189.2242 3019.7793 0.0000 0.0000 2566.2705 -15563.7429 240.5525 -18130.0134 -15555.6885 240.9739 -230.4879 -127.7348 53127.5993 5.3220 5.3696
TCL: Running 50000 steps at 270 kelvin.
TCL: Setting parameter langevinTemp to 270
TCL: Running for 50000 steps
ETITLE: TS BOND ANGLE DIHED IMPRP ELECT VDW BOUNDARY MISC KINETIC TOTAL TEMP POTENTIAL TOTAL3 TEMPAVG PRESSURE GPRESSURE VOLUME PRESSAVG GPRESSAVG
ENERGY: 275000 2.1262 13.1699 24.1355 0.0000 -21189.2242 3019.7793 0.0000 0.0000 2564.9319 -15565.0815 240.4270 -18130.0134 -15561.0263 240.4270 -218.0946 -127.2630 53127.5993 -218.0946 -127.2630
ENERGY: 285000 4.0306 19.3976 23.2095 0.0000 -20321.5812 2837.8296 0.0000 0.0000 2887.8544 -14549.2595 270.6965 -17437.1139 -14544.8962 267.6152 172.5274 280.0773 53486.3011 6.6311 5.9258
ENERGY: 295000 6.3777 14.1653 24.4892 0.0000 -20439.6960 2856.9879 0.0000 0.0000 2900.4530 -14637.2230 271.8775 -17537.6760 -14631.5074 270.2772 77.7951 211.7219 53484.5761 -0.8203 -0.8021
ENERGY: 305000 4.6288 14.8003 27.2137 0.0000 -20232.0111 2703.5118 0.0000 0.0000 2855.0360 -14626.8205 267.6203 -17481.8565 -14623.7831 268.6832 -722.3397 -592.8005 54000.7030 -0.3327 -0.0888
ENERGY: 315000 2.0758 15.8265 24.9093 0.0000 -20375.0942 2797.6022 0.0000 0.0000 2894.5014 -14640.1790 271.3196 -17534.6804 -14633.7546 270.9093 -390.8639 -318.6081 54092.8347 -2.4591 -2.9953
ENERGY: 325000 1.5703 17.9639 23.8218 0.0000 -20103.3428 2710.8946 0.0000 0.0000 2812.3483 -14536.7439 263.6189 -17349.0922 -14533.5016 270.2100 -502.1103 -402.6799 54516.0231 0.6240 0.5199
TCL: Running 1000000 steps at 300 kelvin.
TCL: Setting parameter langevinTemp to 300
TCL: Running for 1000000 steps
ETITLE: TS BOND ANGLE DIHED IMPRP ELECT VDW BOUNDARY MISC KINETIC TOTAL TEMP POTENTIAL TOTAL3 TEMPAVG PRESSURE GPRESSURE VOLUME PRESSAVG GPRESSAVG
ENERGY: 325000 1.5703 17.9639 23.8218 0.0000 -20103.3428 2710.8946 0.0000 0.0000 2810.9297 -14538.1625 263.4859 -17349.0922 -14533.3096 263.4859 -491.6459 -404.3151 54516.0231 -491.6459 -404.3151
ENERGY: 525000 1.4520 15.6528 26.3426 0.0000 -19639.6428 2725.1836 0.0000 0.0000 3229.8091 -13641.2028 302.7501 -16871.0119 -13635.2604 301.1028 390.6453 478.3350 54752.6832 7.6439 7.6131
ENERGY: 725000 4.4342 12.0950 25.1859 0.0000 -19340.5524 2543.8635 0.0000 0.0000 3183.6194 -13571.3543 298.4204 -16754.9737 -13564.2520 300.3547 -185.3677 -157.1370 55234.6768 1.7446 2.1140
ENERGY: 925000 4.3134 27.3760 23.8857 0.0000 -19344.8365 2648.4679 0.0000 0.0000 3154.3285 -13486.4650 295.6748 -16640.7935 -13476.7101 301.1146 212.5103 274.2935 55432.3110 7.1509 6.4425
ENERGY: 1125000 5.2520 11.6209 26.8018 0.0000 -19600.4927 2739.2296 0.0000 0.0000 3196.5386 -13621.0498 299.6314 -16817.5884 -13614.4888 300.8687 527.6722 565.6613 54960.7282 4.3598 3.8634
ENERGY: 1325000 3.2960 17.5240 23.8909 0.0000 -19281.7444 2547.6316 0.0000 0.0000 3197.3602 -13492.0417 299.7085 -16689.4019 -13484.6128 301.1094 -335.3595 -255.3986 55692.0547 -2.4341 -2.2256
TCL: Exiting due to exit command.
