Info: SIMULATION PARAMETERS:
Info: TIMESTEP               2
Info: NUMBER OF STEPS        0
Info: STEPS PER CYCLE        10
Info: PERIODIC CELL BASIS 1  39.806 0 0
Info: PERIODIC CELL BASIS 2  0 40.343 0
Info: PERIODIC CELL BASIS 3  0 0 39.271
Info: PERIODIC CELL CENTER   0 0 0
Info: WRAPPING WATERS AROUND PERIODIC BOUNDARIES ON OUTPUT.
Info: WRAPPING ALL CLUSTERS AROUND PERIODIC BOUNDARIES ON OUTPUT.
Info: FIRST LDB TIMESTEP     50
Info: LAST LDB TIMESTEP     -1
Info: HOM BACKGROUND SCALING 1
Info: PME BACKGROUND SCALING 1
Info: MIN ATOMS PER PATCH    40
Info: EMPTY PATCH LOAD       40 ATOMS
Info: INITIAL TEMPERATURE    300
Info: CENTER OF MASS MOVING INITIALLY? NO
Info: DIELECTRIC             1
Info: EXCLUDE                SCALED ONE-FOUR
Info: 1-4 ELECTROSTATICS SCALED BY 0.833333
Info: MODIFIED 1-4 VDW PARAMETERS WILL BE USED
Info: DCD FILENAME           mobley_5627459_min.dcd
Info: DCD FREQUENCY          5000
Info: DCD FIRST STEP         5000
Info: DCD FILE WILL CONTAIN UNIT CELL DATA
Info: XST FILENAME           mobley_5627459_min.xst
Info: XST FREQUENCY          5000
Info: NO VELOCITY DCD OUTPUT
Info: NO FORCE DCD OUTPUT
Info: OUTPUT FILENAME        mobley_5627459_min
Info: BINARY OUTPUT FILES WILL BE USED
Info: RESTART FILENAME       mobley_5627459_min.restart
Info: RESTART FREQUENCY      5000
Info: BINARY RESTART FILES WILL BE USED
Info: CUTOFF                 9
Info: PAIRLIST DISTANCE      11
Info: PAIRLIST SHRINK RATE   0.01
Info: PAIRLIST GROW RATE     0.01
Info: PAIRLIST TRIGGER       0.3
Info: PAIRLISTS PER CYCLE    2
Info: PAIRLISTS ENABLED
Info: MARGIN                 8
Info: HYDROGEN GROUP CUTOFF  2.5
Info: PATCH DIMENSION        21.5
Info: ENERGY OUTPUT STEPS    5000
Info: ENERGY EVALUATION STEPS    5000
Info: OUTPUT ENERGY PRECISION 4
Info: CROSSTERM ENERGY INCLUDED IN DIHEDRAL
Info: TIMING OUTPUT STEPS    50000
Info: PRESSURE OUTPUT STEPS  5000
Info: LANGEVIN DYNAMICS ACTIVE
Info: LANGEVIN TEMPERATURE   300
Info: LANGEVIN USING BBK INTEGRATOR
Info: LANGEVIN DAMPING COEFFICIENT IS 1 INVERSE PS
Info: LANGEVIN DYNAMICS APPLIED TO HYDROGENS
Info: LANGEVIN PISTON PRESSURE CONTROL ACTIVE
Info:        TARGET PRESSURE IS 1.01325 BAR
Info:     OSCILLATION PERIOD IS 50 FS
Info:             DECAY TIME IS 25 FS
Info:     PISTON TEMPERATURE IS 300 K
Info:       PRESSURE CONTROL IS GROUP-BASED
Info:    INITIAL STRAIN RATE IS 0 0 0
Info:       CELL FLUCTUATION IS ISOTROPIC
Info: PARTICLE MESH EWALD (PME) ACTIVE
Info: PME TOLERANCE               1e-06
Info: PME EWALD COEFFICIENT       0.348832
Info: PME INTERPOLATION ORDER     4
Info: PME GRID DIMENSIONS         40 44 40
Info: PME MAXIMUM GRID SPACING    1
Info: FULL ELECTROSTATIC EVALUATION FREQUENCY      2
Info: USING VERLET I (r-RESPA) MTS SCHEME.
Info: C1 SPLITTING OF LONG RANGE ELECTROSTATICS
Info: PLACING ATOMS IN PATCHES BY HYDROGEN GROUPS
Info: RIGID BONDS TO HYDROGEN : ALL
Info:         ERROR TOLERANCE : 1e-08
Info:          MAX ITERATIONS : 100
Info: RIGID WATER USING SETTLE ALGORITHM
Info: RANDOM NUMBER SEED     1741350064
Info: USE HYDROGEN BONDS?    NO
Info: Using AMBER format force field!
Info: AMBER PARM FILE        mobley_5627459.prmtop
Info: COORDINATE PDB         mobley_5627459.pdb
Info: Exclusions will be read from PARM file!
Info: SCNB (VDW SCALING)     2
Info: USING ARITHMETIC MEAN TO COMBINE L-J SIGMA PARAMETERS
Info: SUMMARY OF PARAMETERS:
Info: 7 BONDS
Info: 8 ANGLES
Info:   8 HARMONIC
Info:   0 COSINE-BASED
Info: 10 DIHEDRAL
Info: 0 IMPROPER
Info: 0 CROSSTERM
Info: 0 VDW
Info: 28 VDW_PAIRS
Info: 0 NBTHOLE_PAIRS
Info: STRUCTURE SUMMARY:
Info: 4549 ATOMS
Info: 4548 BONDS
Info: 21 ANGLES
Info: 30 DIHEDRALS
Info: 0 IMPROPERS
Info: 0 CROSSTERMS
Info: 4593 EXCLUSIONS
Info: 4544 RIGID BONDS
Info: 9103 DEGREES OF FREEDOM
Info: 1517 HYDROGEN GROUPS
Info: 4 ATOMS IN LARGEST HYDROGEN GROUP
Info: 1517 MIGRATION GROUPS
Info: 4 ATOMS IN LARGEST MIGRATION GROUP
Info: TOTAL MASS = 27312.3 amu
Info: TOTAL CHARGE = 0.000200025 e
Info: MASS DENSITY = 0.719165 g/cm^3
Info: ATOM DENSITY = 0.0721319 atoms/A^3
Info: ADDED 0 IMPLICIT EXCLUSIONS
Info: NONBONDED TABLE R-SQUARED SPACING: 0.0625
Info: NONBONDED TABLE SIZE: 705 POINTS
Info: REMOVING COM VELOCITY 0.0561843 -0.0866857 0.108107
TCL: Minimizing for 2000 steps
ETITLE: TS BOND ANGLE DIHED IMPRP ELECT VDW BOUNDARY MISC KINETIC TOTAL TEMP POTENTIAL TOTAL3 TEMPAVG PRESSURE GPRESSURE VOLUME PRESSAVG GPRESSAVG
ENERGY: 0 0.1265 0.4635 9.1641 0.0000 -14156.3687 1619.7563 0.0000 0.0000 0.0000 -12526.8582 0.0000 -12526.8582 -12526.8582 0.0000 11061.9275 -15712.2910 63065.0420 11061.9275 -15712.2910
ENERGY: 400 3.5963 0.8987 4.4950 0.0000 -18715.8446 2658.8485 0.0000 0.0000 0.0000 -16048.0062 0.0000 -16048.0062 -16048.0062 0.0000 15169.2864 15272.0453 63065.0420 15169.2864 15272.0453
ENERGY: 800 7.8441 1.1495 4.5302 0.0000 -19935.8242 3199.8984 0.0000 0.0000 0.0000 -16722.4020 0.0000 -16722.4020 -16722.4020 0.0000 17867.5743 17958.5022 63065.0420 17867.5743 17958.5022
ENERGY: 1200 8.6309 1.5749 4.3983 0.0000 -20479.1094 3449.9626 0.0000 0.0000 0.0000 -17014.5427 0.0000 -17014.5427 -17014.5427 0.0000 19075.0278 19169.0930 63065.0420 19075.0278 19169.0930
ENERGY: 1600 1.9739 0.5577 4.4283 0.0000 -20743.8569 3572.0744 0.0000 0.0000 0.0000 -17164.8226 0.0000 -17164.8226 -17164.8226 0.0000 19730.1677 19819.6975 63065.0420 19730.1677 19819.6975
ENERGY: 2000 0.1889 0.3790 4.4809 0.0000 -20843.9747 3619.7852 0.0000 0.0000 0.0000 -17219.1407 0.0000 -17219.1407 -17219.1407 0.0000 20017.1473 20101.2550 63065.0420 20017.1473 20101.2550
TCL: Exiting due to exit command.
Info: NAMD 3.0.1 for Linux-x86_64-multicore
Info: Please visit http://www.ks.uiuc.edu/Research/namd/
Info: for updates, documentation, and support information.
Info: Please cite Phillips et al., J. Chem. Phys. 153:044130 (2020) doi:10.1063/5.0014475
Info: in all publications reporting results obtained with NAMD.
Info: Based on Charm++/Converse 80000 for multicore-linux-x86_64-gcc
Info: Built Mon Oct 14 11:11:06 CDT 2024 by dhardy on athine.ks.uiuc.edu
Info: 1 NAMD  3.0.1  Linux-x86_64-multicore  16    k006  z5358697
Info: Running on 16 processors, 1 nodes, 1 physical nodes.
Info: CPU topology information available.
Info: Charm++/Converse parallel runtime startup completed at 0.0108371 s
Info: 1043.45 MB of memory in use based on /proc/self/stat
Info: Configuration file is mobley_5627459_equil.namd
Info: Working in the current directory /srv/scratch/z5358697/prod_prep_7/5627459
TCL: Running 25000 steps at 30 kelvin.
TCL: Suspending until startup complete.
Info: SIMULATION PARAMETERS:
Info: TIMESTEP               2
Info: NUMBER OF STEPS        0
Info: STEPS PER CYCLE        10
Info: PERIODIC CELL BASIS 1  39.806 0 0
Info: PERIODIC CELL BASIS 2  0 40.343 0
Info: PERIODIC CELL BASIS 3  0 0 39.271
Info: PERIODIC CELL CENTER   0 0 0
Info: WRAPPING WATERS AROUND PERIODIC BOUNDARIES ON OUTPUT.
Info: WRAPPING ALL CLUSTERS AROUND PERIODIC BOUNDARIES ON OUTPUT.
Info: FIRST LDB TIMESTEP     50
Info: LAST LDB TIMESTEP     -1
Info: HOM BACKGROUND SCALING 1
Info: PME BACKGROUND SCALING 1
Info: MIN ATOMS PER PATCH    40
Info: EMPTY PATCH LOAD       40 ATOMS
Info: INITIAL TEMPERATURE    300
Info: CENTER OF MASS MOVING INITIALLY? NO
Info: DIELECTRIC             1
Info: EXCLUDE                SCALED ONE-FOUR
Info: 1-4 ELECTROSTATICS SCALED BY 0.833333
Info: MODIFIED 1-4 VDW PARAMETERS WILL BE USED
Info: DCD FILENAME           mobley_5627459_equil.dcd
Info: DCD FREQUENCY          5000
Info: DCD FIRST STEP         5000
Info: DCD FILE WILL CONTAIN UNIT CELL DATA
Info: XST FILENAME           mobley_5627459_equil.xst
Info: XST FREQUENCY          5000
Info: NO VELOCITY DCD OUTPUT
Info: NO FORCE DCD OUTPUT
Info: OUTPUT FILENAME        mobley_5627459_equil
Info: BINARY OUTPUT FILES WILL BE USED
Info: RESTART FILENAME       mobley_5627459_equil.restart
Info: RESTART FREQUENCY      5000
Info: BINARY RESTART FILES WILL BE USED
Info: CUTOFF                 9
Info: PAIRLIST DISTANCE      11
Info: PAIRLIST SHRINK RATE   0.01
Info: PAIRLIST GROW RATE     0.01
Info: PAIRLIST TRIGGER       0.3
Info: PAIRLISTS PER CYCLE    2
Info: PAIRLISTS ENABLED
Info: MARGIN                 8
Info: HYDROGEN GROUP CUTOFF  2.5
Info: PATCH DIMENSION        21.5
Info: ENERGY OUTPUT STEPS    5000
Info: ENERGY EVALUATION STEPS    5000
Info: OUTPUT ENERGY PRECISION 4
Info: CROSSTERM ENERGY INCLUDED IN DIHEDRAL
Info: TIMING OUTPUT STEPS    50000
Info: PRESSURE OUTPUT STEPS  5000
Info: LANGEVIN DYNAMICS ACTIVE
Info: LANGEVIN TEMPERATURE   30
Info: LANGEVIN USING BBK INTEGRATOR
Info: LANGEVIN DAMPING COEFFICIENT IS 1 INVERSE PS
Info: LANGEVIN DYNAMICS APPLIED TO HYDROGENS
Info: LANGEVIN PISTON PRESSURE CONTROL ACTIVE
Info:        TARGET PRESSURE IS 1.01325 BAR
Info:     OSCILLATION PERIOD IS 50 FS
Info:             DECAY TIME IS 25 FS
Info:     PISTON TEMPERATURE IS 300 K
Info:       PRESSURE CONTROL IS GROUP-BASED
Info:    INITIAL STRAIN RATE IS 0 0 0
Info:       CELL FLUCTUATION IS ISOTROPIC
Info: PARTICLE MESH EWALD (PME) ACTIVE
Info: PME TOLERANCE               1e-06
Info: PME EWALD COEFFICIENT       0.348832
Info: PME INTERPOLATION ORDER     4
Info: PME GRID DIMENSIONS         40 44 40
Info: PME MAXIMUM GRID SPACING    1
Info: FULL ELECTROSTATIC EVALUATION FREQUENCY      2
Info: USING VERLET I (r-RESPA) MTS SCHEME.
Info: C1 SPLITTING OF LONG RANGE ELECTROSTATICS
Info: PLACING ATOMS IN PATCHES BY HYDROGEN GROUPS
Info: RIGID BONDS TO HYDROGEN : ALL
Info:         ERROR TOLERANCE : 1e-08
Info:          MAX ITERATIONS : 100
Info: RIGID WATER USING SETTLE ALGORITHM
Info: RANDOM NUMBER SEED     1741350084
Info: USE HYDROGEN BONDS?    NO
Info: Using AMBER format force field!
Info: AMBER PARM FILE        mobley_5627459.prmtop
Info: COORDINATE PDB         mobley_5627459.pdb
Info: Exclusions will be read from PARM file!
Info: SCNB (VDW SCALING)     2
Info: USING ARITHMETIC MEAN TO COMBINE L-J SIGMA PARAMETERS
Info: BINARY COORDINATES     mobley_5627459_min.coor
Info: SUMMARY OF PARAMETERS:
Info: 7 BONDS
Info: 8 ANGLES
Info:   8 HARMONIC
Info:   0 COSINE-BASED
Info: 10 DIHEDRAL
Info: 0 IMPROPER
Info: 0 CROSSTERM
Info: 0 VDW
Info: 28 VDW_PAIRS
Info: 0 NBTHOLE_PAIRS
Info: STRUCTURE SUMMARY:
Info: 4549 ATOMS
Info: 4548 BONDS
Info: 21 ANGLES
Info: 30 DIHEDRALS
Info: 0 IMPROPERS
Info: 0 CROSSTERMS
Info: 4593 EXCLUSIONS
Info: 4544 RIGID BONDS
Info: 9103 DEGREES OF FREEDOM
Info: 1517 HYDROGEN GROUPS
Info: 4 ATOMS IN LARGEST HYDROGEN GROUP
Info: 1517 MIGRATION GROUPS
Info: 4 ATOMS IN LARGEST MIGRATION GROUP
Info: TOTAL MASS = 27312.3 amu
Info: TOTAL CHARGE = 0.000200025 e
Info: MASS DENSITY = 0.719165 g/cm^3
Info: ATOM DENSITY = 0.0721319 atoms/A^3
Info: ADDED 0 IMPLICIT EXCLUSIONS
Info: NONBONDED TABLE R-SQUARED SPACING: 0.0625
Info: NONBONDED TABLE SIZE: 705 POINTS
Info: REMOVING COM VELOCITY -0.168598 -0.00451507 0.0317547
TCL: Running for 25000 steps
ETITLE: TS BOND ANGLE DIHED IMPRP ELECT VDW BOUNDARY MISC KINETIC TOTAL TEMP POTENTIAL TOTAL3 TEMPAVG PRESSURE GPRESSURE VOLUME PRESSAVG GPRESSAVG
ENERGY: 0 0.1889 0.3790 4.4809 0.0000 -20843.9747 3619.7852 0.0000 0.0000 2702.7115 -14516.4292 298.8172 -17219.1407 -14515.8958 298.8172 193.7998 234.7849 63065.0420 193.7998 234.7849
ENERGY: 5000 0.1236 0.7364 4.5113 0.0000 -21735.4214 3665.1912 0.0000 0.0000 270.9963 -17793.8625 29.9619 -18064.8588 -17793.0168 47.8263 -708.4925 -632.0654 44161.0231 -0.4637 -0.4861
ENERGY: 10000 0.1450 0.7358 4.6983 0.0000 -21899.0832 3788.5941 0.0000 0.0000 274.0765 -17830.8336 30.3024 -18104.9100 -17830.0740 30.4676 -50.3321 30.8260 43972.0695 4.3679 4.5304
ENERGY: 15000 0.2109 0.7133 4.5586 0.0000 -22014.0539 3894.5417 0.0000 0.0000 270.7806 -17843.2487 29.9380 -18114.0293 -17842.7706 30.0077 466.2465 513.3834 43878.4681 0.8159 0.7794
ENERGY: 20000 0.3343 0.9753 4.8240 0.0000 -21979.1525 3850.5291 0.0000 0.0000 273.1837 -17849.3061 30.2037 -18122.4899 -17848.3422 29.8579 200.6562 264.8298 43892.3711 1.4176 1.2995
ENERGY: 25000 0.7778 0.6088 4.8135 0.0000 -21984.4534 3840.8832 0.0000 0.0000 270.2584 -17867.1117 29.8803 -18137.3701 -17866.4706 30.1523 96.7385 160.8423 43964.6404 0.0475 0.1937
TCL: Running 25000 steps at 60 kelvin.
TCL: Setting parameter langevinTemp to 60
TCL: Running for 25000 steps
ETITLE: TS BOND ANGLE DIHED IMPRP ELECT VDW BOUNDARY MISC KINETIC TOTAL TEMP POTENTIAL TOTAL3 TEMPAVG PRESSURE GPRESSURE VOLUME PRESSAVG GPRESSAVG
ENERGY: 25000 0.7778 0.6088 4.8135 0.0000 -21984.4534 3840.8832 0.0000 0.0000 270.1231 -17867.2470 29.8653 -18137.3701 -17866.7333 29.8653 111.5610 160.8759 43964.6404 111.5610 160.8759
ENERGY: 30000 0.9597 2.0421 4.4807 0.0000 -21389.8192 3482.6037 0.0000 0.0000 547.5397 -17352.1933 60.5371 -17899.7330 -17350.7811 57.0495 -1308.6924 -1241.1248 44491.1407 2.6719 2.6525
ENERGY: 35000 0.2292 1.9680 4.9078 0.0000 -21736.9147 3808.4273 0.0000 0.0000 527.2853 -17394.0970 58.2977 -17921.3824 -17393.1608 60.1975 583.2491 628.1043 43899.9518 2.3852 2.4036
ENERGY: 40000 0.1385 2.3914 4.6161 0.0000 -21683.5540 3737.5375 0.0000 0.0000 541.8141 -17397.0563 59.9040 -17938.8704 -17395.2594 59.8829 84.5187 134.0124 44088.9227 6.8203 6.8688
ENERGY: 45000 0.3697 2.2348 5.2279 0.0000 -21745.7188 3787.9731 0.0000 0.0000 540.9671 -17408.9462 59.8104 -17949.9133 -17407.3670 60.4385 294.1139 343.3378 44142.8950 3.2032 3.2064
ENERGY: 50000 0.3341 1.7812 4.6599 0.0000 -21586.2152 3621.6641 0.0000 0.0000 549.1752 -17408.6007 60.7179 -17957.7759 -17406.7978 59.7009 -640.0725 -587.4919 44326.8098 2.2689 2.3863
TCL: Running 25000 steps at 90 kelvin.
TCL: Setting parameter langevinTemp to 90
TCL: Running for 25000 steps
ETITLE: TS BOND ANGLE DIHED IMPRP ELECT VDW BOUNDARY MISC KINETIC TOTAL TEMP POTENTIAL TOTAL3 TEMPAVG PRESSURE GPRESSURE VOLUME PRESSAVG GPRESSAVG
ENERGY: 50000 0.3341 1.7812 4.6599 0.0000 -21586.2152 3621.6641 0.0000 0.0000 548.9118 -17408.8641 60.6888 -17957.7759 -17407.6409 60.6888 -631.8572 -587.3780 44326.8098 -631.8572 -587.3780
ENERGY: 55000 0.1374 1.6934 4.7759 0.0000 -21465.3605 3776.3692 0.0000 0.0000 839.2121 -16843.1724 92.7850 -17682.3845 -16840.9648 87.1730 986.5039 1041.9126 44031.0597 3.1637 3.0895
ENERGY: 60000 0.8247 1.0335 4.5020 0.0000 -21546.2445 3795.9085 0.0000 0.0000 811.8217 -16932.1542 89.7566 -17743.9758 -16929.8501 90.5069 945.8986 971.4452 43864.9527 4.2034 4.3213
ENERGY: 65000 0.5036 3.4394 4.8215 0.0000 -21290.3192 3518.8358 0.0000 0.0000 813.1089 -16949.6100 89.8989 -17762.7188 -16948.0904 89.7530 -660.0809 -661.0282 44341.2817 6.1342 6.3538
ENERGY: 70000 0.8473 2.0351 4.7342 0.0000 -21384.2918 3628.3198 0.0000 0.0000 838.0644 -16910.2910 92.6581 -17748.3554 -16908.8588 90.1831 4.2890 27.8811 43999.0075 2.5377 3.0468
ENERGY: 75000 0.6760 1.4860 4.7833 0.0000 -21497.5543 3692.9700 0.0000 0.0000 824.6060 -16973.0331 91.1701 -17797.6391 -16971.3202 90.5596 261.3224 313.9682 43948.5427 -2.1252 -1.7884
TCL: Running 25000 steps at 120 kelvin.
TCL: Setting parameter langevinTemp to 120
TCL: Running for 25000 steps
ETITLE: TS BOND ANGLE DIHED IMPRP ELECT VDW BOUNDARY MISC KINETIC TOTAL TEMP POTENTIAL TOTAL3 TEMPAVG PRESSURE GPRESSURE VOLUME PRESSAVG GPRESSAVG
ENERGY: 75000 0.6760 1.4860 4.7833 0.0000 -21497.5543 3692.9700 0.0000 0.0000 824.2172 -16973.4219 91.1271 -17797.6391 -16972.0021 91.1271 268.4493 314.3353 43948.5427 268.4493 314.3353
ENERGY: 80000 0.7866 1.5719 4.9639 0.0000 -21013.5913 3538.5300 0.0000 0.0000 1080.3238 -16387.4151 119.4427 -17467.7389 -16384.5902 116.7484 126.4253 158.4097 44344.5314 1.7274 1.7868
ENERGY: 85000 0.3252 2.8428 4.8613 0.0000 -21103.2201 3557.1951 0.0000 0.0000 1091.2413 -16446.7545 120.6498 -17537.9958 -16444.0559 120.2823 -11.0634 44.6106 44311.9824 6.8124 6.7931
ENERGY: 90000 0.4719 1.9261 4.6544 0.0000 -21143.2686 3561.3710 0.0000 0.0000 1054.1296 -16520.7157 116.5467 -17574.8453 -16517.7701 120.2045 -55.3513 23.1498 44264.6601 1.1181 1.2530
ENERGY: 95000 0.2121 1.8706 4.6028 0.0000 -21181.9170 3587.1569 0.0000 0.0000 1068.1792 -16519.8954 118.1000 -17588.0746 -16516.9038 119.9187 135.7594 205.4801 44140.6841 3.4374 3.1996
ENERGY: 100000 1.0109 1.6028 5.0068 0.0000 -21142.0706 3510.3499 0.0000 0.0000 1060.7286 -16563.3717 117.2763 -17624.1003 -16561.5188 119.6757 -407.9121 -348.9939 44404.0931 2.9545 2.5507
TCL: Running 25000 steps at 150 kelvin.
TCL: Setting parameter langevinTemp to 150
TCL: Running for 25000 steps
ETITLE: TS BOND ANGLE DIHED IMPRP ELECT VDW BOUNDARY MISC KINETIC TOTAL TEMP POTENTIAL TOTAL3 TEMPAVG PRESSURE GPRESSURE VOLUME PRESSAVG GPRESSAVG
ENERGY: 100000 1.0109 1.6028 5.0068 0.0000 -21142.0706 3510.3499 0.0000 0.0000 1060.1797 -16563.9206 117.2156 -17624.1003 -16561.6626 117.2156 -398.6661 -349.0254 44404.0931 -398.6661 -349.0254
ENERGY: 105000 1.1734 2.4003 5.1659 0.0000 -20551.2770 3311.4901 0.0000 0.0000 1313.9291 -15917.1182 145.2706 -17231.0473 -15915.1546 146.0773 -527.7954 -481.2459 44610.1725 7.1614 7.2522
ENERGY: 110000 0.7285 3.3369 4.8616 0.0000 -20553.5153 3285.3003 0.0000 0.0000 1368.0119 -15891.2762 151.2501 -17259.2881 -15886.2250 150.0819 -727.8851 -669.8528 44458.0428 2.0441 2.0445
ENERGY: 115000 1.6353 1.5398 4.8902 0.0000 -20718.4037 3453.3553 0.0000 0.0000 1366.8536 -15890.1295 151.1221 -17256.9831 -15888.6949 151.0169 178.9433 244.7060 44465.9536 4.2422 3.8530
ENERGY: 120000 1.1765 2.6439 5.0146 0.0000 -20810.6787 3524.1477 0.0000 0.0000 1356.5825 -15921.1135 149.9865 -17277.6960 -15918.1906 151.4551 442.3324 508.9128 44485.6793 6.3994 6.4812
ENERGY: 125000 0.6950 3.5686 4.4089 0.0000 -20730.4059 3431.4203 0.0000 0.0000 1334.3313 -15955.9817 147.5263 -17290.3130 -15952.5241 150.2035 183.7151 267.7879 43945.1251 3.6716 3.2528
TCL: Running 50000 steps at 180 kelvin.
TCL: Setting parameter langevinTemp to 180
TCL: Running for 50000 steps
ETITLE: TS BOND ANGLE DIHED IMPRP ELECT VDW BOUNDARY MISC KINETIC TOTAL TEMP POTENTIAL TOTAL3 TEMPAVG PRESSURE GPRESSURE VOLUME PRESSAVG GPRESSAVG
ENERGY: 125000 0.6950 3.5686 4.4089 0.0000 -20730.4059 3431.4203 0.0000 0.0000 1333.6388 -15956.6742 147.4498 -17290.3130 -15954.0094 147.4498 217.2376 268.4056 43945.1251 217.2376 268.4056
ENERGY: 135000 0.9051 1.8449 6.8358 0.0000 -20199.9961 3314.4386 0.0000 0.0000 1635.8590 -15240.1127 180.8638 -16875.9717 -15238.7757 181.8228 218.3208 292.6106 44695.6780 5.9114 5.4601
ENERGY: 145000 0.6815 3.3437 4.8674 0.0000 -20049.1616 3106.8167 0.0000 0.0000 1635.0676 -15298.3847 180.7763 -16933.4523 -15293.3843 180.6092 -883.2970 -799.5628 44763.4321 5.6377 5.9861
ENERGY: 155000 0.9226 2.3536 5.3731 0.0000 -20201.7535 3295.4145 0.0000 0.0000 1607.3345 -15290.3550 177.7101 -16897.6896 -15288.7943 179.3710 -2.8510 70.0944 45042.0431 4.7926 4.9135
ENERGY: 165000 0.2085 2.8493 5.9807 0.0000 -20464.8826 3528.4512 0.0000 0.0000 1638.3304 -15289.0625 181.1371 -16927.3929 -15287.6674 181.3607 1139.6001 1227.9466 44722.2429 4.0190 4.3244
ENERGY: 175000 2.2773 3.3702 5.2143 0.0000 -20379.8920 3368.9375 0.0000 0.0000 1608.2263 -15391.8664 177.8087 -17000.0927 -15388.7685 179.6830 328.1036 382.3057 44645.0047 3.2583 2.7168
TCL: Running 50000 steps at 210 kelvin.
TCL: Setting parameter langevinTemp to 210
TCL: Running for 50000 steps
ETITLE: TS BOND ANGLE DIHED IMPRP ELECT VDW BOUNDARY MISC KINETIC TOTAL TEMP POTENTIAL TOTAL3 TEMPAVG PRESSURE GPRESSURE VOLUME PRESSAVG GPRESSAVG
ENERGY: 175000 2.2773 3.3702 5.2143 0.0000 -20379.8920 3368.9375 0.0000 0.0000 1607.4187 -15392.6739 177.7194 -17000.0927 -15390.3721 177.7194 319.6334 381.6343 44645.0047 319.6334 381.6343
ENERGY: 185000 0.1812 3.2083 5.7765 0.0000 -19159.2106 2966.2943 0.0000 0.0000 1904.0671 -14279.6831 210.5174 -16183.7502 -14275.0765 210.0560 313.5573 416.9854 44255.7223 4.3100 3.9048
ENERGY: 195000 0.2477 2.3349 4.6400 0.0000 -19292.9857 2938.1536 0.0000 0.0000 1892.7112 -14454.8983 209.2619 -16347.6095 -14452.1715 210.4008 -152.9168 -74.0469 43979.9819 9.2926 8.4463
ENERGY: 205000 2.9980 3.6737 4.9900 0.0000 -18980.2215 2822.5259 0.0000 0.0000 1912.2557 -14233.7781 211.4228 -16146.0338 -14230.0919 210.2079 -624.5398 -518.3840 44699.1680 -3.7863 -3.3220
ENERGY: 215000 1.1059 4.1576 6.0215 0.0000 -19339.7925 3087.5606 0.0000 0.0000 1916.9123 -14324.0346 211.9376 -16240.9469 -14321.4524 210.4349 585.7221 655.2245 44643.0465 -0.1738 -1.0981
ENERGY: 225000 0.2189 3.1629 4.8635 0.0000 -19174.1480 2979.8440 0.0000 0.0000 1899.2896 -14286.7691 209.9892 -16186.0587 -14282.3569 210.7894 101.2478 214.9926 44856.6400 1.6984 1.8839
TCL: Running 50000 steps at 240 kelvin.
TCL: Setting parameter langevinTemp to 240
TCL: Running for 50000 steps
ETITLE: TS BOND ANGLE DIHED IMPRP ELECT VDW BOUNDARY MISC KINETIC TOTAL TEMP POTENTIAL TOTAL3 TEMPAVG PRESSURE GPRESSURE VOLUME PRESSAVG GPRESSAVG
ENERGY: 225000 0.2189 3.1629 4.8635 0.0000 -19174.1480 2979.8440 0.0000 0.0000 1898.3368 -14287.7220 209.8839 -16186.0587 -14285.0793 209.8839 143.2104 215.9158 44856.6400 143.2104 215.9158
ENERGY: 235000 0.5534 3.0713 5.2309 0.0000 -18317.9188 2730.5887 0.0000 0.0000 2175.2312 -13403.2433 240.4979 -15578.4745 -13401.0856 239.2209 449.5594 505.2464 44331.9810 1.6030 1.8341
ENERGY: 245000 0.9775 4.3929 5.1276 0.0000 -18209.1626 2653.1048 0.0000 0.0000 2145.7901 -13399.7696 237.2428 -15545.5598 -13394.7524 239.6638 -35.3845 72.3685 44689.4578 -2.3434 -1.4497
ENERGY: 255000 0.2281 4.9215 5.2924 0.0000 -18080.3979 2575.9954 0.0000 0.0000 2178.0024 -13315.9581 240.8043 -15493.9605 -13308.9338 241.4376 -310.9791 -261.7798 44832.7181 4.2080 3.8857
ENERGY: 265000 0.4718 4.9207 7.3591 0.0000 -18085.1113 2533.9015 0.0000 0.0000 2174.2557 -13364.2024 240.3900 -15538.4581 -13360.0906 241.0568 -679.0428 -623.6962 45260.8279 -1.2862 -1.0026
ENERGY: 275000 0.3924 6.9221 5.1017 0.0000 -18254.8083 2715.0592 0.0000 0.0000 2137.1220 -13390.2110 236.2845 -15527.3330 -13385.1486 241.0331 300.0392 381.5885 44774.5576 -0.7820 -0.7505
TCL: Running 50000 steps at 270 kelvin.
TCL: Setting parameter langevinTemp to 270
TCL: Running for 50000 steps
ETITLE: TS BOND ANGLE DIHED IMPRP ELECT VDW BOUNDARY MISC KINETIC TOTAL TEMP POTENTIAL TOTAL3 TEMPAVG PRESSURE GPRESSURE VOLUME PRESSAVG GPRESSAVG
ENERGY: 275000 0.3924 6.9221 5.1017 0.0000 -18254.8083 2715.0592 0.0000 0.0000 2136.0468 -13391.2862 236.1656 -15527.3330 -13388.3000 236.1656 300.7443 382.7454 44774.5576 300.7443 382.7454
ENERGY: 285000 5.3164 5.5909 5.8410 0.0000 -17485.6205 2538.8001 0.0000 0.0000 2439.9212 -12490.1509 269.7625 -14930.0721 -12485.6975 268.8410 441.0567 482.7478 45714.2827 0.5370 0.3168
ENERGY: 295000 0.7143 1.7447 5.2351 0.0000 -17377.7478 2415.5998 0.0000 0.0000 2421.8752 -12532.5787 267.7673 -14954.4539 -12528.9118 270.1165 -278.1494 -195.8500 46112.6466 0.9631 1.7091
ENERGY: 305000 2.0615 3.9790 5.7512 0.0000 -17423.6766 2443.2503 0.0000 0.0000 2421.9224 -12546.7122 267.7726 -14968.6346 -12540.2093 268.5807 -112.9710 53.4238 45635.3666 4.6985 4.2608
ENERGY: 315000 2.1916 4.7403 6.3037 0.0000 -17345.7983 2485.1592 0.0000 0.0000 2428.5776 -12418.8258 268.5084 -14847.4034 -12414.5563 271.3981 376.6912 425.6949 45807.2446 0.9772 1.3264
ENERGY: 325000 0.7818 3.3809 6.2069 0.0000 -17326.4520 2375.5028 0.0000 0.0000 2473.2559 -12467.3238 273.4481 -14940.5797 -12464.7021 269.1984 -176.1630 -117.7535 45216.1792 3.2614 2.9472
TCL: Running 1000000 steps at 300 kelvin.
TCL: Setting parameter langevinTemp to 300
TCL: Running for 1000000 steps
ETITLE: TS BOND ANGLE DIHED IMPRP ELECT VDW BOUNDARY MISC KINETIC TOTAL TEMP POTENTIAL TOTAL3 TEMPAVG PRESSURE GPRESSURE VOLUME PRESSAVG GPRESSAVG
ENERGY: 325000 0.7818 3.3809 6.2069 0.0000 -17326.4520 2375.5028 0.0000 0.0000 2472.0257 -12468.5540 273.3121 -14940.5797 -12464.1758 273.3121 -208.3215 -118.0920 45216.1792 -208.3215 -118.0920
ENERGY: 525000 0.3864 7.2714 6.1013 0.0000 -16640.6838 2317.8047 0.0000 0.0000 2773.6088 -11535.5112 306.6557 -14309.1200 -11530.6154 301.7130 459.6666 573.0325 46741.7859 -1.2068 -1.0590
ENERGY: 725000 0.2216 7.4500 5.2144 0.0000 -16527.7341 2242.6730 0.0000 0.0000 2707.3516 -11564.8235 299.3302 -14272.1751 -11561.6224 298.3966 89.2063 175.9013 46787.7789 -0.2463 -0.0468
ENERGY: 925000 1.7060 3.3371 4.6701 0.0000 -16567.7195 2306.2735 0.0000 0.0000 2705.8312 -11545.9017 299.1621 -14251.7328 -11540.5635 298.4330 393.7663 464.1980 47037.2040 3.9888 4.0758
ENERGY: 1125000 1.7647 6.0372 5.1313 0.0000 -16584.8457 2212.1045 0.0000 0.0000 2697.7543 -11662.0537 298.2691 -14359.8080 -11654.9305 300.3903 -199.0247 -116.2247 46616.9030 4.8662 4.5726
ENERGY: 1325000 0.7658 4.1315 5.2729 0.0000 -16562.7561 2270.8680 0.0000 0.0000 2673.3981 -11608.3198 295.5762 -14281.7179 -11604.7233 298.5181 148.4895 267.0288 46706.3538 1.3848 1.1394
TCL: Exiting due to exit command.
