Info: SIMULATION PARAMETERS:
Info: TIMESTEP               2
Info: NUMBER OF STEPS        0
Info: STEPS PER CYCLE        10
Info: PERIODIC CELL BASIS 1  44.147 0 0
Info: PERIODIC CELL BASIS 2  0 43.772 0
Info: PERIODIC CELL BASIS 3  0 0 38.617
Info: PERIODIC CELL CENTER   0 0 0
Info: WRAPPING WATERS AROUND PERIODIC BOUNDARIES ON OUTPUT.
Info: WRAPPING ALL CLUSTERS AROUND PERIODIC BOUNDARIES ON OUTPUT.
Info: FIRST LDB TIMESTEP     50
Info: LAST LDB TIMESTEP     -1
Info: HOM BACKGROUND SCALING 1
Info: PME BACKGROUND SCALING 1
Info: MIN ATOMS PER PATCH    40
Info: EMPTY PATCH LOAD       40 ATOMS
Info: INITIAL TEMPERATURE    300
Info: CENTER OF MASS MOVING INITIALLY? NO
Info: DIELECTRIC             1
Info: EXCLUDE                SCALED ONE-FOUR
Info: 1-4 ELECTROSTATICS SCALED BY 0.833333
Info: MODIFIED 1-4 VDW PARAMETERS WILL BE USED
Info: DCD FILENAME           mobley_172879_min.dcd
Info: DCD FREQUENCY          5000
Info: DCD FIRST STEP         5000
Info: DCD FILE WILL CONTAIN UNIT CELL DATA
Info: XST FILENAME           mobley_172879_min.xst
Info: XST FREQUENCY          5000
Info: NO VELOCITY DCD OUTPUT
Info: NO FORCE DCD OUTPUT
Info: OUTPUT FILENAME        mobley_172879_min
Info: BINARY OUTPUT FILES WILL BE USED
Info: RESTART FILENAME       mobley_172879_min.restart
Info: RESTART FREQUENCY      5000
Info: BINARY RESTART FILES WILL BE USED
Info: CUTOFF                 9
Info: PAIRLIST DISTANCE      11
Info: PAIRLIST SHRINK RATE   0.01
Info: PAIRLIST GROW RATE     0.01
Info: PAIRLIST TRIGGER       0.3
Info: PAIRLISTS PER CYCLE    2
Info: PAIRLISTS ENABLED
Info: MARGIN                 8
Info: HYDROGEN GROUP CUTOFF  2.5
Info: PATCH DIMENSION        21.5
Info: ENERGY OUTPUT STEPS    5000
Info: ENERGY EVALUATION STEPS    5000
Info: OUTPUT ENERGY PRECISION 4
Info: CROSSTERM ENERGY INCLUDED IN DIHEDRAL
Info: TIMING OUTPUT STEPS    50000
Info: PRESSURE OUTPUT STEPS  5000
Info: LANGEVIN DYNAMICS ACTIVE
Info: LANGEVIN TEMPERATURE   300
Info: LANGEVIN USING BBK INTEGRATOR
Info: LANGEVIN DAMPING COEFFICIENT IS 1 INVERSE PS
Info: LANGEVIN DYNAMICS APPLIED TO HYDROGENS
Info: LANGEVIN PISTON PRESSURE CONTROL ACTIVE
Info:        TARGET PRESSURE IS 1.01325 BAR
Info:     OSCILLATION PERIOD IS 50 FS
Info:             DECAY TIME IS 25 FS
Info:     PISTON TEMPERATURE IS 300 K
Info:       PRESSURE CONTROL IS GROUP-BASED
Info:    INITIAL STRAIN RATE IS 0 0 0
Info:       CELL FLUCTUATION IS ISOTROPIC
Info: PARTICLE MESH EWALD (PME) ACTIVE
Info: PME TOLERANCE               1e-06
Info: PME EWALD COEFFICIENT       0.348832
Info: PME INTERPOLATION ORDER     4
Info: PME GRID DIMENSIONS         48 44 40
Info: PME MAXIMUM GRID SPACING    1
Info: FULL ELECTROSTATIC EVALUATION FREQUENCY      2
Info: USING VERLET I (r-RESPA) MTS SCHEME.
Info: C1 SPLITTING OF LONG RANGE ELECTROSTATICS
Info: PLACING ATOMS IN PATCHES BY HYDROGEN GROUPS
Info: RIGID BONDS TO HYDROGEN : ALL
Info:         ERROR TOLERANCE : 1e-08
Info:          MAX ITERATIONS : 100
Info: RIGID WATER USING SETTLE ALGORITHM
Info: RANDOM NUMBER SEED     1741317946
Info: USE HYDROGEN BONDS?    NO
Info: Using AMBER format force field!
Info: AMBER PARM FILE        mobley_172879.prmtop
Info: COORDINATE PDB         mobley_172879.pdb
Info: Exclusions will be read from PARM file!
Info: SCNB (VDW SCALING)     2
Info: USING ARITHMETIC MEAN TO COMBINE L-J SIGMA PARAMETERS
Info: SUMMARY OF PARAMETERS:
Info: 5 BONDS
Info: 4 ANGLES
Info:   4 HARMONIC
Info:   0 COSINE-BASED
Info: 3 DIHEDRAL
Info: 0 IMPROPER
Info: 0 CROSSTERM
Info: 0 VDW
Info: 15 VDW_PAIRS
Info: 0 NBTHOLE_PAIRS
Info: STRUCTURE SUMMARY:
Info: 5359 ATOMS
Info: 5361 BONDS
Info: 38 ANGLES
Info: 64 DIHEDRALS
Info: 0 IMPROPERS
Info: 0 CROSSTERMS
Info: 5446 EXCLUSIONS
Info: 5345 RIGID BONDS
Info: 10732 DEGREES OF FREEDOM
Info: 1793 HYDROGEN GROUPS
Info: 3 ATOMS IN LARGEST HYDROGEN GROUP
Info: 1793 MIGRATION GROUPS
Info: 3 ATOMS IN LARGEST MIGRATION GROUP
Info: TOTAL MASS = 32234.6 amu
Info: TOTAL CHARGE = 2.98023e-08 e
Info: MASS DENSITY = 0.717309 g/cm^3
Info: ATOM DENSITY = 0.0718138 atoms/A^3
Info: ADDED 0 IMPLICIT EXCLUSIONS
Info: NONBONDED TABLE R-SQUARED SPACING: 0.0625
Info: NONBONDED TABLE SIZE: 705 POINTS
Info: REMOVING COM VELOCITY -0.0730405 -0.0318911 -0.0666631
TCL: Minimizing for 2000 steps
ETITLE: TS BOND ANGLE DIHED IMPRP ELECT VDW BOUNDARY MISC KINETIC TOTAL TEMP POTENTIAL TOTAL3 TEMPAVG PRESSURE GPRESSURE VOLUME PRESSAVG GPRESSAVG
ENERGY: 0 0.0741 2.0567 0.0003 0.0000 -16552.4852 1872.9751 0.0000 0.0000 0.0000 -14677.3791 0.0000 -14677.3791 -14677.3791 0.0000 10888.0740 -15731.7972 74623.5867 10888.0740 -15731.7972
ENERGY: 400 4.1403 1.7901 0.0444 0.0000 -22166.0168 3154.6547 0.0000 0.0000 0.0000 -19005.3874 0.0000 -19005.3874 -19005.3874 0.0000 15098.8898 15269.5738 74623.5867 15098.8898 15269.5738
ENERGY: 800 1.9911 0.6292 0.0589 0.0000 -23499.5955 3806.2149 0.0000 0.0000 0.0000 -19690.7014 0.0000 -19690.7014 -19690.7014 0.0000 17818.5206 17959.8341 74623.5867 17818.5206 17959.8341
ENERGY: 1200 13.1358 8.4722 0.2282 0.0000 -24078.4565 4079.6217 0.0000 0.0000 0.0000 -19976.9987 0.0000 -19976.9987 -19976.9987 0.0000 19051.0805 19183.2984 74623.5867 19051.0805 19183.2984
ENERGY: 1600 0.7435 0.2964 0.1304 0.0000 -24336.5713 4166.9406 0.0000 0.0000 0.0000 -20168.4604 0.0000 -20168.4604 -20168.4604 0.0000 19456.2016 19578.4459 74623.5867 19456.2016 19578.4459
ENERGY: 2000 0.6744 0.1919 0.3793 0.0000 -24508.5244 4252.5139 0.0000 0.0000 0.0000 -20254.7650 0.0000 -20254.7650 -20254.7650 0.0000 19839.1870 19959.8052 74623.5867 19839.1870 19959.8052
TCL: Exiting due to exit command.
Info: NAMD 3.0.1 for Linux-x86_64-multicore
Info: Please visit http://www.ks.uiuc.edu/Research/namd/
Info: for updates, documentation, and support information.
Info: Please cite Phillips et al., J. Chem. Phys. 153:044130 (2020) doi:10.1063/5.0014475
Info: in all publications reporting results obtained with NAMD.
Info: Based on Charm++/Converse 80000 for multicore-linux-x86_64-gcc
Info: Built Mon Oct 14 11:11:06 CDT 2024 by dhardy on athine.ks.uiuc.edu
Info: 1 NAMD  3.0.1  Linux-x86_64-multicore  16    k006  z5358697
Info: Running on 16 processors, 1 nodes, 1 physical nodes.
Info: CPU topology information available.
Info: Charm++/Converse parallel runtime startup completed at 0.00942304 s
Info: 1043.45 MB of memory in use based on /proc/self/stat
Info: Configuration file is mobley_172879_equil.namd
Info: Working in the current directory /srv/scratch/z5358697/prod_prep/172879
TCL: Running 25000 steps at 30 kelvin.
TCL: Suspending until startup complete.
Info: SIMULATION PARAMETERS:
Info: TIMESTEP               2
Info: NUMBER OF STEPS        0
Info: STEPS PER CYCLE        10
Info: PERIODIC CELL BASIS 1  44.147 0 0
Info: PERIODIC CELL BASIS 2  0 43.772 0
Info: PERIODIC CELL BASIS 3  0 0 38.617
Info: PERIODIC CELL CENTER   0 0 0
Info: WRAPPING WATERS AROUND PERIODIC BOUNDARIES ON OUTPUT.
Info: WRAPPING ALL CLUSTERS AROUND PERIODIC BOUNDARIES ON OUTPUT.
Info: FIRST LDB TIMESTEP     50
Info: LAST LDB TIMESTEP     -1
Info: HOM BACKGROUND SCALING 1
Info: PME BACKGROUND SCALING 1
Info: MIN ATOMS PER PATCH    40
Info: EMPTY PATCH LOAD       40 ATOMS
Info: INITIAL TEMPERATURE    300
Info: CENTER OF MASS MOVING INITIALLY? NO
Info: DIELECTRIC             1
Info: EXCLUDE                SCALED ONE-FOUR
Info: 1-4 ELECTROSTATICS SCALED BY 0.833333
Info: MODIFIED 1-4 VDW PARAMETERS WILL BE USED
Info: DCD FILENAME           mobley_172879_equil.dcd
Info: DCD FREQUENCY          5000
Info: DCD FIRST STEP         5000
Info: DCD FILE WILL CONTAIN UNIT CELL DATA
Info: XST FILENAME           mobley_172879_equil.xst
Info: XST FREQUENCY          5000
Info: NO VELOCITY DCD OUTPUT
Info: NO FORCE DCD OUTPUT
Info: OUTPUT FILENAME        mobley_172879_equil
Info: BINARY OUTPUT FILES WILL BE USED
Info: RESTART FILENAME       mobley_172879_equil.restart
Info: RESTART FREQUENCY      5000
Info: BINARY RESTART FILES WILL BE USED
Info: CUTOFF                 9
Info: PAIRLIST DISTANCE      11
Info: PAIRLIST SHRINK RATE   0.01
Info: PAIRLIST GROW RATE     0.01
Info: PAIRLIST TRIGGER       0.3
Info: PAIRLISTS PER CYCLE    2
Info: PAIRLISTS ENABLED
Info: MARGIN                 8
Info: HYDROGEN GROUP CUTOFF  2.5
Info: PATCH DIMENSION        21.5
Info: ENERGY OUTPUT STEPS    5000
Info: ENERGY EVALUATION STEPS    5000
Info: OUTPUT ENERGY PRECISION 4
Info: CROSSTERM ENERGY INCLUDED IN DIHEDRAL
Info: TIMING OUTPUT STEPS    50000
Info: PRESSURE OUTPUT STEPS  5000
Info: LANGEVIN DYNAMICS ACTIVE
Info: LANGEVIN TEMPERATURE   30
Info: LANGEVIN USING BBK INTEGRATOR
Info: LANGEVIN DAMPING COEFFICIENT IS 1 INVERSE PS
Info: LANGEVIN DYNAMICS APPLIED TO HYDROGENS
Info: LANGEVIN PISTON PRESSURE CONTROL ACTIVE
Info:        TARGET PRESSURE IS 1.01325 BAR
Info:     OSCILLATION PERIOD IS 50 FS
Info:             DECAY TIME IS 25 FS
Info:     PISTON TEMPERATURE IS 300 K
Info:       PRESSURE CONTROL IS GROUP-BASED
Info:    INITIAL STRAIN RATE IS 0 0 0
Info:       CELL FLUCTUATION IS ISOTROPIC
Info: PARTICLE MESH EWALD (PME) ACTIVE
Info: PME TOLERANCE               1e-06
Info: PME EWALD COEFFICIENT       0.348832
Info: PME INTERPOLATION ORDER     4
Info: PME GRID DIMENSIONS         48 44 40
Info: PME MAXIMUM GRID SPACING    1
Info: FULL ELECTROSTATIC EVALUATION FREQUENCY      2
Info: USING VERLET I (r-RESPA) MTS SCHEME.
Info: C1 SPLITTING OF LONG RANGE ELECTROSTATICS
Info: PLACING ATOMS IN PATCHES BY HYDROGEN GROUPS
Info: RIGID BONDS TO HYDROGEN : ALL
Info:         ERROR TOLERANCE : 1e-08
Info:          MAX ITERATIONS : 100
Info: RIGID WATER USING SETTLE ALGORITHM
Info: RANDOM NUMBER SEED     1741317972
Info: USE HYDROGEN BONDS?    NO
Info: Using AMBER format force field!
Info: AMBER PARM FILE        mobley_172879.prmtop
Info: COORDINATE PDB         mobley_172879.pdb
Info: Exclusions will be read from PARM file!
Info: SCNB (VDW SCALING)     2
Info: USING ARITHMETIC MEAN TO COMBINE L-J SIGMA PARAMETERS
Info: BINARY COORDINATES     mobley_172879_min.coor
Info: SUMMARY OF PARAMETERS:
Info: 5 BONDS
Info: 4 ANGLES
Info:   4 HARMONIC
Info:   0 COSINE-BASED
Info: 3 DIHEDRAL
Info: 0 IMPROPER
Info: 0 CROSSTERM
Info: 0 VDW
Info: 15 VDW_PAIRS
Info: 0 NBTHOLE_PAIRS
Info: STRUCTURE SUMMARY:
Info: 5359 ATOMS
Info: 5361 BONDS
Info: 38 ANGLES
Info: 64 DIHEDRALS
Info: 0 IMPROPERS
Info: 0 CROSSTERMS
Info: 5446 EXCLUSIONS
Info: 5345 RIGID BONDS
Info: 10732 DEGREES OF FREEDOM
Info: 1793 HYDROGEN GROUPS
Info: 3 ATOMS IN LARGEST HYDROGEN GROUP
Info: 1793 MIGRATION GROUPS
Info: 3 ATOMS IN LARGEST MIGRATION GROUP
Info: TOTAL MASS = 32234.6 amu
Info: TOTAL CHARGE = 2.98023e-08 e
Info: MASS DENSITY = 0.717309 g/cm^3
Info: ATOM DENSITY = 0.0718138 atoms/A^3
Info: ADDED 0 IMPLICIT EXCLUSIONS
Info: NONBONDED TABLE R-SQUARED SPACING: 0.0625
Info: NONBONDED TABLE SIZE: 705 POINTS
Info: REMOVING COM VELOCITY -0.0994044 -0.0608037 0.0144801
TCL: Running for 25000 steps
ETITLE: TS BOND ANGLE DIHED IMPRP ELECT VDW BOUNDARY MISC KINETIC TOTAL TEMP POTENTIAL TOTAL3 TEMPAVG PRESSURE GPRESSURE VOLUME PRESSAVG GPRESSAVG
ENERGY: 0 0.6744 0.1919 0.3793 0.0000 -24508.5244 4252.5139 0.0000 0.0000 3295.7620 -16959.0030 309.0762 -20254.7650 -16958.3242 309.0762 235.7747 263.6215 74623.5867 235.7747 263.6215
ENERGY: 5000 0.5883 0.6400 1.1552 0.0000 -25760.6735 4538.5464 0.0000 0.0000 321.1686 -20898.5750 30.1192 -21219.7436 -20897.4957 48.0423 358.2790 403.5640 52181.2720 0.7962 0.8915
ENERGY: 10000 0.7605 0.9179 0.7224 0.0000 -25724.7118 4464.1539 0.0000 0.0000 318.8474 -20939.3097 29.9015 -21258.1571 -20938.4758 30.1407 -143.4764 -55.9292 52281.5009 5.1667 5.4252
ENERGY: 15000 1.1090 0.5764 0.6307 0.0000 -25799.5486 4526.6502 0.0000 0.0000 319.5248 -20951.0574 29.9650 -21270.5823 -20950.3089 30.0285 108.1391 172.8922 52206.3669 1.3183 1.4144
ENERGY: 20000 1.4171 1.0124 0.9615 0.0000 -25531.8858 4251.1592 0.0000 0.0000 323.4245 -20953.9111 30.3307 -21277.3356 -20952.8571 29.9888 -1189.3814 -1124.2984 52580.9848 4.2921 4.5222
ENERGY: 25000 0.4035 0.8364 0.7809 0.0000 -25966.1372 4665.8750 0.0000 0.0000 325.0144 -20973.2269 30.4798 -21298.2413 -20972.4329 30.0791 818.2154 866.3512 51821.8852 3.5138 3.4243
TCL: Running 25000 steps at 60 kelvin.
TCL: Setting parameter langevinTemp to 60
TCL: Running for 25000 steps
ETITLE: TS BOND ANGLE DIHED IMPRP ELECT VDW BOUNDARY MISC KINETIC TOTAL TEMP POTENTIAL TOTAL3 TEMPAVG PRESSURE GPRESSURE VOLUME PRESSAVG GPRESSAVG
ENERGY: 25000 0.4035 0.8364 0.7809 0.0000 -25966.1372 4665.8750 0.0000 0.0000 324.8513 -20973.3901 30.4645 -21298.2413 -20972.6790 30.4645 812.8366 866.2476 51821.8852 812.8366 866.2476
ENERGY: 30000 1.2097 1.6297 0.6647 0.0000 -25205.8878 4224.0604 0.0000 0.0000 641.0011 -20337.3223 60.1130 -20978.3234 -20335.8012 57.2918 -764.4134 -701.6728 52974.8508 0.8300 0.9159
ENERGY: 35000 0.4164 1.4521 1.3194 0.0000 -25437.4532 4375.0385 0.0000 0.0000 661.6726 -20397.5541 62.0516 -21059.2268 -20395.8141 60.8654 -41.2321 12.1155 52522.9587 -1.8008 -1.6398
ENERGY: 40000 1.2617 1.1429 0.6327 0.0000 -25436.3471 4329.4120 0.0000 0.0000 623.7775 -20480.1201 58.4978 -21103.8977 -20478.8402 59.9316 -464.0359 -409.8382 52520.2377 2.6722 2.7833
ENERGY: 45000 2.0218 1.3136 1.3823 0.0000 -25458.4805 4372.4222 0.0000 0.0000 638.5379 -20442.8028 59.8820 -21081.3407 -20441.2218 60.0966 -188.5876 -121.7273 52480.0501 2.0177 1.9316
ENERGY: 50000 1.4235 1.4804 1.2576 0.0000 -25409.4371 4284.2445 0.0000 0.0000 635.4436 -20485.5875 59.5918 -21121.0311 -20483.6707 60.3630 -716.8588 -649.4046 52566.1529 -2.4888 -2.6675
TCL: Running 25000 steps at 90 kelvin.
TCL: Setting parameter langevinTemp to 90
TCL: Running for 25000 steps
ETITLE: TS BOND ANGLE DIHED IMPRP ELECT VDW BOUNDARY MISC KINETIC TOTAL TEMP POTENTIAL TOTAL3 TEMPAVG PRESSURE GPRESSURE VOLUME PRESSAVG GPRESSAVG
ENERGY: 50000 1.4235 1.4804 1.2576 0.0000 -25409.4371 4284.2445 0.0000 0.0000 635.1309 -20485.9003 59.5625 -21121.0311 -20484.2979 59.5625 -706.5903 -649.3214 52566.1529 -706.5903 -649.3214
ENERGY: 55000 2.4164 1.0209 0.7760 0.0000 -25218.9250 4416.2790 0.0000 0.0000 980.3097 -19818.1229 91.9333 -20798.4327 -19815.5575 87.2395 625.3404 683.9668 52477.3593 2.0366 1.7559
ENERGY: 60000 1.4116 1.1588 1.2371 0.0000 -25207.1431 4366.3284 0.0000 0.0000 963.6659 -19873.3413 90.3725 -20837.0072 -19871.5397 89.7909 296.5090 329.6299 52594.4426 6.0055 5.9516
ENERGY: 65000 0.8123 1.8344 1.2229 0.0000 -25075.8223 4216.0994 0.0000 0.0000 969.8427 -19886.0107 90.9517 -20855.8534 -19882.8150 90.2833 -405.9927 -347.3454 52663.0784 1.9484 1.7475
ENERGY: 70000 0.9408 1.6084 1.6320 0.0000 -25166.0779 4283.8881 0.0000 0.0000 956.9099 -19921.0987 89.7389 -20878.0086 -19918.6045 89.7536 -89.0993 -70.1574 52280.9037 5.6609 5.5604
ENERGY: 75000 2.2147 0.9962 1.4374 0.0000 -25368.0086 4465.1900 0.0000 0.0000 961.2165 -19936.9539 90.1428 -20898.1703 -19933.9461 89.3241 689.4529 757.7787 52187.7827 0.7495 0.8106
TCL: Running 25000 steps at 120 kelvin.
TCL: Setting parameter langevinTemp to 120
TCL: Running for 25000 steps
ETITLE: TS BOND ANGLE DIHED IMPRP ELECT VDW BOUNDARY MISC KINETIC TOTAL TEMP POTENTIAL TOTAL3 TEMPAVG PRESSURE GPRESSURE VOLUME PRESSAVG GPRESSAVG
ENERGY: 75000 2.2147 0.9962 1.4374 0.0000 -25368.0086 4465.1900 0.0000 0.0000 960.7320 -19937.4384 90.0973 -20898.1703 -19935.6076 90.0973 712.8525 758.3958 52187.7827 712.8525 758.3958
ENERGY: 80000 3.3131 2.6431 1.6335 0.0000 -24803.1540 4281.7424 0.0000 0.0000 1285.5717 -19228.2502 120.5608 -20513.8220 -19224.7246 117.3014 535.2862 590.7976 52690.3124 -0.6490 -0.6879
ENERGY: 85000 2.1252 1.0375 1.2830 0.0000 -24738.3835 4160.2926 0.0000 0.0000 1268.2178 -19305.4274 118.9333 -20573.6451 -19302.4452 120.7559 -91.7415 -22.4311 52579.9895 1.7735 1.3768
ENERGY: 90000 1.4240 0.9878 1.7335 0.0000 -24765.8564 4173.1854 0.0000 0.0000 1301.1732 -19287.3524 122.0239 -20588.5256 -19283.8208 119.8568 -44.1367 10.1497 52527.7402 7.0577 7.0033
ENERGY: 95000 1.4958 1.4709 3.1261 0.0000 -24866.4807 4256.2593 0.0000 0.0000 1279.0130 -19325.1157 119.9457 -20604.1287 -19323.3439 120.4859 329.1829 397.1152 52392.9210 4.1344 4.3203
ENERGY: 100000 2.2510 2.4653 2.2745 0.0000 -24764.2412 4155.6060 0.0000 0.0000 1303.1608 -19298.4836 122.2103 -20601.6444 -19295.6066 120.3641 -130.1468 -36.0394 52411.8193 1.5223 1.8644
TCL: Running 25000 steps at 150 kelvin.
TCL: Setting parameter langevinTemp to 150
TCL: Running for 25000 steps
ETITLE: TS BOND ANGLE DIHED IMPRP ELECT VDW BOUNDARY MISC KINETIC TOTAL TEMP POTENTIAL TOTAL3 TEMPAVG PRESSURE GPRESSURE VOLUME PRESSAVG GPRESSAVG
ENERGY: 100000 2.2510 2.4653 2.2745 0.0000 -24764.2412 4155.6060 0.0000 0.0000 1302.5397 -19299.1047 122.1520 -20601.6444 -19296.5526 122.1520 -98.5691 -35.3444 52411.8193 -98.5691 -35.3444
ENERGY: 105000 2.0838 2.2907 4.1260 0.0000 -24429.7966 4138.5839 0.0000 0.0000 1639.7682 -18642.9441 153.7773 -20282.7122 -18637.5491 147.0439 563.2632 586.4748 52393.5860 2.0428 1.8439
ENERGY: 110000 2.5451 1.8696 2.0775 0.0000 -24241.9759 3981.0138 0.0000 0.0000 1575.9645 -18678.5054 147.7938 -20254.4699 -18674.8718 149.3397 -257.5658 -221.8213 52873.3222 0.1315 0.3874
ENERGY: 115000 1.8195 2.6474 3.6550 0.0000 -24383.2867 4061.5007 0.0000 0.0000 1569.7941 -18743.8701 147.2151 -20313.6642 -18739.1682 149.2948 -7.5476 77.5155 52549.5417 1.9298 1.6824
ENERGY: 120000 1.9056 1.6802 3.6581 0.0000 -24524.6259 4193.5031 0.0000 0.0000 1626.5619 -18697.3170 152.5388 -20323.8789 -18693.3331 150.0398 661.3905 736.1581 52074.5874 4.3104 4.4096
ENERGY: 125000 3.8082 2.9619 2.0224 0.0000 -24525.6025 4127.2240 0.0000 0.0000 1601.0965 -18788.4895 150.1507 -20389.5860 -18783.7986 151.4909 232.3671 290.6522 52430.9727 2.3277 2.6237
TCL: Running 50000 steps at 180 kelvin.
TCL: Setting parameter langevinTemp to 180
TCL: Running for 50000 steps
ETITLE: TS BOND ANGLE DIHED IMPRP ELECT VDW BOUNDARY MISC KINETIC TOTAL TEMP POTENTIAL TOTAL3 TEMPAVG PRESSURE GPRESSURE VOLUME PRESSAVG GPRESSAVG
ENERGY: 125000 3.8082 2.9619 2.0224 0.0000 -24525.6025 4127.2240 0.0000 0.0000 1600.3188 -18789.2672 150.0777 -20389.5860 -18785.8450 150.0777 237.7312 290.6983 52430.9727 237.7312 290.6983
ENERGY: 135000 3.9986 3.5435 2.4215 0.0000 -23487.3993 3645.6669 0.0000 0.0000 1879.9211 -17951.8476 176.2988 -19831.7688 -17946.5725 180.5978 -904.2697 -846.4912 52907.9212 3.8772 4.3352
ENERGY: 145000 4.0423 3.3742 3.7392 0.0000 -23652.3071 3787.9431 0.0000 0.0000 1885.8449 -17967.3635 176.8543 -19853.2084 -17961.8987 179.9152 -319.0190 -220.0185 52628.4756 1.2394 1.5293
ENERGY: 155000 4.2939 2.3876 5.3443 0.0000 -23509.1978 3693.6787 0.0000 0.0000 1922.5646 -17880.9286 180.2979 -19803.4932 -17875.9985 180.5806 -549.7069 -513.0848 52660.5736 3.0633 2.9082
ENERGY: 165000 6.0804 4.6312 1.5523 0.0000 -23749.4963 3788.1784 0.0000 0.0000 1947.4438 -18001.6101 182.6311 -19949.0539 -17998.2017 179.6099 -422.8715 -329.6366 52687.9350 -0.7713 -0.7696
ENERGY: 175000 3.4881 2.3483 3.5092 0.0000 -23804.6534 3903.9829 0.0000 0.0000 1921.4973 -17969.8275 180.1978 -19891.3249 -17965.1996 180.8361 344.4059 421.6734 52321.0847 0.5156 0.4309
TCL: Running 50000 steps at 210 kelvin.
TCL: Setting parameter langevinTemp to 210
TCL: Running for 50000 steps
ETITLE: TS BOND ANGLE DIHED IMPRP ELECT VDW BOUNDARY MISC KINETIC TOTAL TEMP POTENTIAL TOTAL3 TEMPAVG PRESSURE GPRESSURE VOLUME PRESSAVG GPRESSAVG
ENERGY: 175000 3.4881 2.3483 3.5092 0.0000 -23804.6534 3903.9829 0.0000 0.0000 1920.5585 -17970.7664 180.1098 -19891.3249 -17967.8785 180.1098 357.7633 422.0942 52321.0847 357.7633 422.0942
ENERGY: 185000 4.7543 5.3406 3.3048 0.0000 -22667.4213 3395.0726 0.0000 0.0000 2211.7828 -17047.1662 207.4207 -19258.9490 -17042.7715 210.4468 -807.4605 -734.4159 52885.0560 2.7282 2.3367
ENERGY: 195000 2.9373 2.8074 5.5387 0.0000 -22532.0370 3435.4829 0.0000 0.0000 2284.1383 -16801.1324 214.2062 -19085.2707 -16796.7789 210.8522 -62.9177 -3.5339 52693.2739 2.4525 1.9344
ENERGY: 205000 3.2261 2.6420 5.3731 0.0000 -22455.5290 3417.4610 0.0000 0.0000 2246.7691 -16780.0577 210.7018 -19026.8268 -16772.8121 211.1895 -215.4405 -104.2727 52569.3142 2.8519 3.0649
ENERGY: 215000 2.8836 5.3470 3.3343 0.0000 -22490.2306 3473.7880 0.0000 0.0000 2284.1798 -16720.6979 214.2101 -19004.8777 -16715.5056 210.7390 334.7375 443.0191 51915.7982 -1.0167 -1.1500
ENERGY: 225000 2.5529 3.2850 3.3933 0.0000 -22709.8641 3616.2075 0.0000 0.0000 2199.4391 -16884.9862 206.2632 -19084.4254 -16879.8124 210.0091 929.7597 1030.3339 51619.7247 8.6861 7.6538
TCL: Running 50000 steps at 240 kelvin.
TCL: Setting parameter langevinTemp to 240
TCL: Running for 50000 steps
ETITLE: TS BOND ANGLE DIHED IMPRP ELECT VDW BOUNDARY MISC KINETIC TOTAL TEMP POTENTIAL TOTAL3 TEMPAVG PRESSURE GPRESSURE VOLUME PRESSAVG GPRESSAVG
ENERGY: 225000 2.5529 3.2850 3.3933 0.0000 -22709.8641 3616.2075 0.0000 0.0000 2198.3439 -16886.0815 206.1604 -19084.4254 -16882.4238 206.1604 951.2984 1029.9426 51619.7247 951.2984 1029.9426
ENERGY: 235000 4.2728 2.7053 4.6748 0.0000 -21530.1633 3210.9537 0.0000 0.0000 2566.6316 -15740.9251 240.6984 -18307.5567 -15733.7211 239.8301 521.0979 587.7751 52547.4005 1.3607 1.4010
ENERGY: 245000 3.6815 4.0470 5.0012 0.0000 -21521.5542 3192.5969 0.0000 0.0000 2583.3200 -15732.9076 242.2635 -18316.2276 -15726.8466 239.1979 319.6477 436.8444 52472.7201 1.6562 1.7026
ENERGY: 255000 6.5523 5.7125 2.5017 0.0000 -21473.2618 3228.4914 0.0000 0.0000 2562.6647 -15667.3393 240.3264 -18230.0040 -15661.7345 242.7721 601.3260 663.2528 52491.7789 3.6004 3.6790
ENERGY: 265000 6.5573 3.4120 6.3657 0.0000 -21534.4003 3166.0493 0.0000 0.0000 2543.3377 -15808.6783 238.5139 -18352.0160 -15802.7754 239.6743 -177.5959 -107.1751 53218.9301 5.8027 5.9658
ENERGY: 275000 3.1118 4.2782 5.4347 0.0000 -21243.1230 2989.5761 0.0000 0.0000 2575.5998 -15665.1224 241.5395 -18240.7222 -15661.3407 239.6084 -474.1291 -401.4212 53115.4200 4.3875 3.7752
TCL: Running 50000 steps at 270 kelvin.
TCL: Setting parameter langevinTemp to 270
TCL: Running for 50000 steps
ETITLE: TS BOND ANGLE DIHED IMPRP ELECT VDW BOUNDARY MISC KINETIC TOTAL TEMP POTENTIAL TOTAL3 TEMPAVG PRESSURE GPRESSURE VOLUME PRESSAVG GPRESSAVG
ENERGY: 275000 3.1118 4.2782 5.4347 0.0000 -21243.1230 2989.5761 0.0000 0.0000 2574.3642 -15666.3580 241.4236 -18240.7222 -15661.8969 241.4236 -490.2804 -401.7293 53115.4200 -490.2804 -401.7293
ENERGY: 285000 1.8492 3.8863 5.4777 0.0000 -20485.5940 2917.5197 0.0000 0.0000 2870.3596 -14686.5016 269.1820 -17556.8612 -14682.6402 270.0284 181.5489 308.8072 53929.6306 5.9580 6.1820
ENERGY: 295000 5.1952 6.6278 6.8620 0.0000 -20393.9787 2852.1166 0.0000 0.0000 2892.0719 -14631.1052 271.2182 -17523.1771 -14624.0208 270.3042 -58.3485 32.1906 54053.1543 5.3929 5.3759
ENERGY: 305000 3.1876 3.8188 2.9950 0.0000 -20462.8028 2899.9555 0.0000 0.0000 2898.1072 -14654.7387 271.7842 -17552.8459 -14649.5945 268.9888 -41.2631 96.1810 54058.0976 3.2510 2.9969
ENERGY: 315000 6.3029 5.0020 4.0760 0.0000 -20321.8423 2776.8179 0.0000 0.0000 2874.8533 -14654.7903 269.6034 -17529.6436 -14648.6970 269.7635 -335.9733 -293.7433 53818.7128 5.6753 5.8864
ENERGY: 325000 7.6829 3.2283 3.9727 0.0000 -20449.8554 2867.3310 0.0000 0.0000 2843.3259 -14724.3146 266.6468 -17567.6405 -14719.8833 269.2390 -173.8142 -133.2305 54586.6339 1.1139 1.6812
TCL: Running 1000000 steps at 300 kelvin.
TCL: Setting parameter langevinTemp to 300
TCL: Running for 1000000 steps
ETITLE: TS BOND ANGLE DIHED IMPRP ELECT VDW BOUNDARY MISC KINETIC TOTAL TEMP POTENTIAL TOTAL3 TEMPAVG PRESSURE GPRESSURE VOLUME PRESSAVG GPRESSAVG
ENERGY: 325000 7.6829 3.2283 3.9727 0.0000 -20449.8554 2867.3310 0.0000 0.0000 2841.8493 -14725.7912 266.5083 -17567.6405 -14721.6618 266.5083 -223.8459 -133.7150 54586.6339 -223.8459 -133.7150
ENERGY: 525000 3.6487 4.6600 6.6382 0.0000 -19559.7374 2704.6920 0.0000 0.0000 3121.3986 -13718.6998 292.7244 -16840.0985 -13712.1154 300.3838 181.9398 289.6399 55308.3403 6.0355 6.1147
ENERGY: 725000 6.1406 4.0214 6.0120 0.0000 -19392.9923 2476.6263 0.0000 0.0000 3278.3949 -13621.7971 307.4475 -16900.1920 -13614.9330 299.3875 -928.7084 -833.4129 55414.7588 5.0486 4.5969
ENERGY: 925000 6.0896 4.0787 4.9328 0.0000 -19325.3711 2597.7011 0.0000 0.0000 3158.7144 -13553.8545 296.2239 -16712.5688 -13546.1430 301.8736 -226.4730 -116.6216 55474.3046 0.3536 0.3404
ENERGY: 1125000 4.4641 4.6172 6.7910 0.0000 -19395.9844 2570.5815 0.0000 0.0000 3248.2170 -13561.3136 304.6174 -16809.5306 -13552.9101 300.3124 -341.5608 -206.1515 55725.6739 0.6556 0.8165
ENERGY: 1325000 5.3151 7.5709 5.8931 0.0000 -19524.8679 2582.7751 0.0000 0.0000 3203.8347 -13719.4789 300.4553 -16923.3136 -13716.6914 298.7287 -548.9905 -489.0508 55754.3408 4.0654 4.3598
TCL: Exiting due to exit command.
