Info: SIMULATION PARAMETERS:
Info: TIMESTEP               2
Info: NUMBER OF STEPS        0
Info: STEPS PER CYCLE        10
Info: PERIODIC CELL BASIS 1  40.176 0 0
Info: PERIODIC CELL BASIS 2  0 39.303 0
Info: PERIODIC CELL BASIS 3  0 0 42.851
Info: PERIODIC CELL CENTER   0 0 0
Info: WRAPPING WATERS AROUND PERIODIC BOUNDARIES ON OUTPUT.
Info: WRAPPING ALL CLUSTERS AROUND PERIODIC BOUNDARIES ON OUTPUT.
Info: FIRST LDB TIMESTEP     50
Info: LAST LDB TIMESTEP     -1
Info: HOM BACKGROUND SCALING 1
Info: PME BACKGROUND SCALING 1
Info: MIN ATOMS PER PATCH    40
Info: EMPTY PATCH LOAD       40 ATOMS
Info: INITIAL TEMPERATURE    300
Info: CENTER OF MASS MOVING INITIALLY? NO
Info: DIELECTRIC             1
Info: EXCLUDE                SCALED ONE-FOUR
Info: 1-4 ELECTROSTATICS SCALED BY 0.833333
Info: MODIFIED 1-4 VDW PARAMETERS WILL BE USED
Info: DCD FILENAME           mobley_5072416_min.dcd
Info: DCD FREQUENCY          5000
Info: DCD FIRST STEP         5000
Info: DCD FILE WILL CONTAIN UNIT CELL DATA
Info: XST FILENAME           mobley_5072416_min.xst
Info: XST FREQUENCY          5000
Info: NO VELOCITY DCD OUTPUT
Info: NO FORCE DCD OUTPUT
Info: OUTPUT FILENAME        mobley_5072416_min
Info: BINARY OUTPUT FILES WILL BE USED
Info: RESTART FILENAME       mobley_5072416_min.restart
Info: RESTART FREQUENCY      5000
Info: BINARY RESTART FILES WILL BE USED
Info: CUTOFF                 9
Info: PAIRLIST DISTANCE      11
Info: PAIRLIST SHRINK RATE   0.01
Info: PAIRLIST GROW RATE     0.01
Info: PAIRLIST TRIGGER       0.3
Info: PAIRLISTS PER CYCLE    2
Info: PAIRLISTS ENABLED
Info: MARGIN                 8
Info: HYDROGEN GROUP CUTOFF  2.5
Info: PATCH DIMENSION        21.5
Info: ENERGY OUTPUT STEPS    5000
Info: ENERGY EVALUATION STEPS    5000
Info: OUTPUT ENERGY PRECISION 4
Info: CROSSTERM ENERGY INCLUDED IN DIHEDRAL
Info: TIMING OUTPUT STEPS    50000
Info: PRESSURE OUTPUT STEPS  5000
Info: LANGEVIN DYNAMICS ACTIVE
Info: LANGEVIN TEMPERATURE   300
Info: LANGEVIN USING BBK INTEGRATOR
Info: LANGEVIN DAMPING COEFFICIENT IS 1 INVERSE PS
Info: LANGEVIN DYNAMICS APPLIED TO HYDROGENS
Info: LANGEVIN PISTON PRESSURE CONTROL ACTIVE
Info:        TARGET PRESSURE IS 1.01325 BAR
Info:     OSCILLATION PERIOD IS 50 FS
Info:             DECAY TIME IS 25 FS
Info:     PISTON TEMPERATURE IS 300 K
Info:       PRESSURE CONTROL IS GROUP-BASED
Info:    INITIAL STRAIN RATE IS 0 0 0
Info:       CELL FLUCTUATION IS ISOTROPIC
Info: PARTICLE MESH EWALD (PME) ACTIVE
Info: PME TOLERANCE               1e-06
Info: PME EWALD COEFFICIENT       0.348832
Info: PME INTERPOLATION ORDER     4
Info: PME GRID DIMENSIONS         44 40 44
Info: PME MAXIMUM GRID SPACING    1
Info: FULL ELECTROSTATIC EVALUATION FREQUENCY      2
Info: USING VERLET I (r-RESPA) MTS SCHEME.
Info: C1 SPLITTING OF LONG RANGE ELECTROSTATICS
Info: PLACING ATOMS IN PATCHES BY HYDROGEN GROUPS
Info: RIGID BONDS TO HYDROGEN : ALL
Info:         ERROR TOLERANCE : 1e-08
Info:          MAX ITERATIONS : 100
Info: RIGID WATER USING SETTLE ALGORITHM
Info: RANDOM NUMBER SEED     1741347030
Info: USE HYDROGEN BONDS?    NO
Info: Using AMBER format force field!
Info: AMBER PARM FILE        mobley_5072416.prmtop
Info: COORDINATE PDB         mobley_5072416.pdb
Info: Exclusions will be read from PARM file!
Info: SCNB (VDW SCALING)     2
Info: USING ARITHMETIC MEAN TO COMBINE L-J SIGMA PARAMETERS
Info: SUMMARY OF PARAMETERS:
Info: 9 BONDS
Info: 9 ANGLES
Info:   9 HARMONIC
Info:   0 COSINE-BASED
Info: 5 DIHEDRAL
Info: 0 IMPROPER
Info: 0 CROSSTERM
Info: 0 VDW
Info: 45 VDW_PAIRS
Info: 0 NBTHOLE_PAIRS
Info: STRUCTURE SUMMARY:
Info: 4998 ATOMS
Info: 4998 BONDS
Info: 28 ANGLES
Info: 37 DIHEDRALS
Info: 0 IMPROPERS
Info: 0 CROSSTERMS
Info: 5056 EXCLUSIONS
Info: 4989 RIGID BONDS
Info: 10005 DEGREES OF FREEDOM
Info: 1669 HYDROGEN GROUPS
Info: 4 ATOMS IN LARGEST HYDROGEN GROUP
Info: 1669 MIGRATION GROUPS
Info: 4 ATOMS IN LARGEST MIGRATION GROUP
Info: TOTAL MASS = 30029.7 amu
Info: TOTAL CHARGE = 4.65661e-08 e
Info: MASS DENSITY = 0.736982 g/cm^3
Info: ATOM DENSITY = 0.0738657 atoms/A^3
Info: ADDED 0 IMPLICIT EXCLUSIONS
Info: NONBONDED TABLE R-SQUARED SPACING: 0.0625
Info: NONBONDED TABLE SIZE: 705 POINTS
Info: REMOVING COM VELOCITY -0.0417619 0.102217 0.0720794
TCL: Minimizing for 2000 steps
ETITLE: TS BOND ANGLE DIHED IMPRP ELECT VDW BOUNDARY MISC KINETIC TOTAL TEMP POTENTIAL TOTAL3 TEMPAVG PRESSURE GPRESSURE VOLUME PRESSAVG GPRESSAVG
ENERGY: 0 0.0705 1.0877 6.6657 0.0000 -15793.2159 1807.2029 0.0000 0.0000 0.0000 -13978.1891 0.0000 -13978.1891 -13978.1891 0.0000 11562.1019 -16308.9332 67663.3285 11562.1019 -16308.9332
ENERGY: 400 3.9962 2.3708 7.9141 0.0000 -20865.2706 2904.1252 0.0000 0.0000 0.0000 -17946.8644 0.0000 -17946.8644 -17946.8644 0.0000 15521.2722 15687.2701 67663.3285 15521.2722 15687.2701
ENERGY: 800 1.0038 1.8559 1.3665 0.0000 -22039.5202 3490.4804 0.0000 0.0000 0.0000 -18544.8136 0.0000 -18544.8136 -18544.8136 0.0000 18233.7908 18368.0440 67663.3285 18233.7908 18368.0440
ENERGY: 1200 0.5556 1.1086 1.8256 0.0000 -22581.8279 3781.2373 0.0000 0.0000 0.0000 -18797.1008 0.0000 -18797.1008 -18797.1008 0.0000 19643.7859 19758.6391 67663.3285 19643.7859 19758.6391
ENERGY: 1600 6.8482 2.6564 2.3908 0.0000 -22811.6853 3888.4223 0.0000 0.0000 0.0000 -18911.3676 0.0000 -18911.3676 -18911.3676 0.0000 20178.1015 20310.7033 67663.3285 20178.1015 20310.7033
ENERGY: 2000 0.2700 0.8913 3.2000 0.0000 -22994.7468 4001.5034 0.0000 0.0000 0.0000 -18988.8821 0.0000 -18988.8821 -18988.8821 0.0000 20790.6194 20910.6522 67663.3285 20790.6194 20910.6522
TCL: Exiting due to exit command.
Info: NAMD 3.0.1 for Linux-x86_64-multicore
Info: Please visit http://www.ks.uiuc.edu/Research/namd/
Info: for updates, documentation, and support information.
Info: Please cite Phillips et al., J. Chem. Phys. 153:044130 (2020) doi:10.1063/5.0014475
Info: in all publications reporting results obtained with NAMD.
Info: Based on Charm++/Converse 80000 for multicore-linux-x86_64-gcc
Info: Built Mon Oct 14 11:11:06 CDT 2024 by dhardy on athine.ks.uiuc.edu
Info: 1 NAMD  3.0.1  Linux-x86_64-multicore  16    k064  z5358697
Info: Running on 16 processors, 1 nodes, 1 physical nodes.
Info: CPU topology information available.
Info: Charm++/Converse parallel runtime startup completed at 0.0114778 s
Info: 1043.46 MB of memory in use based on /proc/self/stat
Info: Configuration file is mobley_5072416_equil.namd
Info: Working in the current directory /srv/scratch/z5358697/prod_prep_6/5072416
TCL: Running 25000 steps at 30 kelvin.
TCL: Suspending until startup complete.
Info: SIMULATION PARAMETERS:
Info: TIMESTEP               2
Info: NUMBER OF STEPS        0
Info: STEPS PER CYCLE        10
Info: PERIODIC CELL BASIS 1  40.176 0 0
Info: PERIODIC CELL BASIS 2  0 39.303 0
Info: PERIODIC CELL BASIS 3  0 0 42.851
Info: PERIODIC CELL CENTER   0 0 0
Info: WRAPPING WATERS AROUND PERIODIC BOUNDARIES ON OUTPUT.
Info: WRAPPING ALL CLUSTERS AROUND PERIODIC BOUNDARIES ON OUTPUT.
Info: FIRST LDB TIMESTEP     50
Info: LAST LDB TIMESTEP     -1
Info: HOM BACKGROUND SCALING 1
Info: PME BACKGROUND SCALING 1
Info: MIN ATOMS PER PATCH    40
Info: EMPTY PATCH LOAD       40 ATOMS
Info: INITIAL TEMPERATURE    300
Info: CENTER OF MASS MOVING INITIALLY? NO
Info: DIELECTRIC             1
Info: EXCLUDE                SCALED ONE-FOUR
Info: 1-4 ELECTROSTATICS SCALED BY 0.833333
Info: MODIFIED 1-4 VDW PARAMETERS WILL BE USED
Info: DCD FILENAME           mobley_5072416_equil.dcd
Info: DCD FREQUENCY          5000
Info: DCD FIRST STEP         5000
Info: DCD FILE WILL CONTAIN UNIT CELL DATA
Info: XST FILENAME           mobley_5072416_equil.xst
Info: XST FREQUENCY          5000
Info: NO VELOCITY DCD OUTPUT
Info: NO FORCE DCD OUTPUT
Info: OUTPUT FILENAME        mobley_5072416_equil
Info: BINARY OUTPUT FILES WILL BE USED
Info: RESTART FILENAME       mobley_5072416_equil.restart
Info: RESTART FREQUENCY      5000
Info: BINARY RESTART FILES WILL BE USED
Info: CUTOFF                 9
Info: PAIRLIST DISTANCE      11
Info: PAIRLIST SHRINK RATE   0.01
Info: PAIRLIST GROW RATE     0.01
Info: PAIRLIST TRIGGER       0.3
Info: PAIRLISTS PER CYCLE    2
Info: PAIRLISTS ENABLED
Info: MARGIN                 8
Info: HYDROGEN GROUP CUTOFF  2.5
Info: PATCH DIMENSION        21.5
Info: ENERGY OUTPUT STEPS    5000
Info: ENERGY EVALUATION STEPS    5000
Info: OUTPUT ENERGY PRECISION 4
Info: CROSSTERM ENERGY INCLUDED IN DIHEDRAL
Info: TIMING OUTPUT STEPS    50000
Info: PRESSURE OUTPUT STEPS  5000
Info: LANGEVIN DYNAMICS ACTIVE
Info: LANGEVIN TEMPERATURE   30
Info: LANGEVIN USING BBK INTEGRATOR
Info: LANGEVIN DAMPING COEFFICIENT IS 1 INVERSE PS
Info: LANGEVIN DYNAMICS APPLIED TO HYDROGENS
Info: LANGEVIN PISTON PRESSURE CONTROL ACTIVE
Info:        TARGET PRESSURE IS 1.01325 BAR
Info:     OSCILLATION PERIOD IS 50 FS
Info:             DECAY TIME IS 25 FS
Info:     PISTON TEMPERATURE IS 300 K
Info:       PRESSURE CONTROL IS GROUP-BASED
Info:    INITIAL STRAIN RATE IS 0 0 0
Info:       CELL FLUCTUATION IS ISOTROPIC
Info: PARTICLE MESH EWALD (PME) ACTIVE
Info: PME TOLERANCE               1e-06
Info: PME EWALD COEFFICIENT       0.348832
Info: PME INTERPOLATION ORDER     4
Info: PME GRID DIMENSIONS         44 40 44
Info: PME MAXIMUM GRID SPACING    1
Info: FULL ELECTROSTATIC EVALUATION FREQUENCY      2
Info: USING VERLET I (r-RESPA) MTS SCHEME.
Info: C1 SPLITTING OF LONG RANGE ELECTROSTATICS
Info: PLACING ATOMS IN PATCHES BY HYDROGEN GROUPS
Info: RIGID BONDS TO HYDROGEN : ALL
Info:         ERROR TOLERANCE : 1e-08
Info:          MAX ITERATIONS : 100
Info: RIGID WATER USING SETTLE ALGORITHM
Info: RANDOM NUMBER SEED     1741347046
Info: USE HYDROGEN BONDS?    NO
Info: Using AMBER format force field!
Info: AMBER PARM FILE        mobley_5072416.prmtop
Info: COORDINATE PDB         mobley_5072416.pdb
Info: Exclusions will be read from PARM file!
Info: SCNB (VDW SCALING)     2
Info: USING ARITHMETIC MEAN TO COMBINE L-J SIGMA PARAMETERS
Info: BINARY COORDINATES     mobley_5072416_min.coor
Info: SUMMARY OF PARAMETERS:
Info: 9 BONDS
Info: 9 ANGLES
Info:   9 HARMONIC
Info:   0 COSINE-BASED
Info: 5 DIHEDRAL
Info: 0 IMPROPER
Info: 0 CROSSTERM
Info: 0 VDW
Info: 45 VDW_PAIRS
Info: 0 NBTHOLE_PAIRS
Info: STRUCTURE SUMMARY:
Info: 4998 ATOMS
Info: 4998 BONDS
Info: 28 ANGLES
Info: 37 DIHEDRALS
Info: 0 IMPROPERS
Info: 0 CROSSTERMS
Info: 5056 EXCLUSIONS
Info: 4989 RIGID BONDS
Info: 10005 DEGREES OF FREEDOM
Info: 1669 HYDROGEN GROUPS
Info: 4 ATOMS IN LARGEST HYDROGEN GROUP
Info: 1669 MIGRATION GROUPS
Info: 4 ATOMS IN LARGEST MIGRATION GROUP
Info: TOTAL MASS = 30029.7 amu
Info: TOTAL CHARGE = 4.65661e-08 e
Info: MASS DENSITY = 0.736982 g/cm^3
Info: ATOM DENSITY = 0.0738657 atoms/A^3
Info: ADDED 0 IMPLICIT EXCLUSIONS
Info: NONBONDED TABLE R-SQUARED SPACING: 0.0625
Info: NONBONDED TABLE SIZE: 705 POINTS
Info: REMOVING COM VELOCITY 0.0691499 -0.0121014 0.0296636
TCL: Running for 25000 steps
ETITLE: TS BOND ANGLE DIHED IMPRP ELECT VDW BOUNDARY MISC KINETIC TOTAL TEMP POTENTIAL TOTAL3 TEMPAVG PRESSURE GPRESSURE VOLUME PRESSAVG GPRESSAVG
ENERGY: 0 0.2700 0.8913 3.2000 0.0000 -22994.7468 4001.5034 0.0000 0.0000 2986.0805 -16002.8016 300.3826 -18988.8821 -16002.1681 300.3826 498.5724 523.7192 67663.3285 498.5724 523.7192
ENERGY: 5000 0.7050 1.7668 1.4873 0.0000 -24109.6882 4192.2241 0.0000 0.0000 302.7412 -19610.7637 30.4540 -19913.5049 -19609.9494 48.2072 276.3226 315.7008 47441.4453 2.7596 2.5544
ENERGY: 10000 0.4582 0.8836 1.7287 0.0000 -24098.8903 4151.8019 0.0000 0.0000 294.9300 -19649.0878 29.6683 -19944.0178 -19648.3072 30.2781 6.8163 53.6305 47326.2139 0.4982 0.6447
ENERGY: 15000 0.7494 1.3289 2.4778 0.0000 -24165.0628 4192.7339 0.0000 0.0000 296.7106 -19671.0623 29.8474 -19967.7729 -19670.2114 30.0860 154.0965 195.0569 47293.4723 4.5678 4.3804
ENERGY: 20000 0.2562 1.0756 2.6420 0.0000 -24178.9906 4189.2316 0.0000 0.0000 303.2454 -19682.5397 30.5048 -19985.7851 -19681.5977 30.1293 102.6909 144.9498 47423.1942 -1.5052 -1.5204
ENERGY: 25000 0.5105 1.3485 2.3140 0.0000 -24103.3933 4105.6137 0.0000 0.0000 304.1536 -19689.4529 30.5961 -19993.6066 -19688.8391 30.0469 -321.2827 -256.0187 47441.2568 1.2038 1.2553
TCL: Running 25000 steps at 60 kelvin.
TCL: Setting parameter langevinTemp to 60
TCL: Running for 25000 steps
ETITLE: TS BOND ANGLE DIHED IMPRP ELECT VDW BOUNDARY MISC KINETIC TOTAL TEMP POTENTIAL TOTAL3 TEMPAVG PRESSURE GPRESSURE VOLUME PRESSAVG GPRESSAVG
ENERGY: 25000 0.5105 1.3485 2.3140 0.0000 -24103.3933 4105.6137 0.0000 0.0000 304.0080 -19689.5985 30.5815 -19993.6066 -19688.9089 30.5815 -309.1535 -256.0725 47441.2568 -309.1535 -256.0725
ENERGY: 30000 0.6511 1.5986 2.2525 0.0000 -23893.1969 4182.1445 0.0000 0.0000 620.1015 -19086.4486 62.3787 -19706.5501 -19085.0834 57.2916 676.8664 728.0228 47521.6374 5.9561 6.1218
ENERGY: 35000 0.3114 2.1722 1.6717 0.0000 -23675.5157 3951.8562 0.0000 0.0000 603.7084 -19115.7959 60.7296 -19719.5043 -19114.2771 60.3922 -501.6759 -437.6952 47856.5529 3.7823 3.6177
ENERGY: 40000 0.8133 1.5714 2.1346 0.0000 -23964.7892 4190.5854 0.0000 0.0000 617.8238 -19151.8608 62.1495 -19769.6846 -19150.3460 60.2954 624.8567 677.7508 47651.0242 0.7257 0.5657
ENERGY: 45000 1.0354 2.4690 2.3472 0.0000 -23692.2580 3930.9659 0.0000 0.0000 595.6159 -19159.8246 59.9156 -19755.4405 -19158.4787 60.4574 -732.6951 -676.5976 47987.8317 4.0119 3.8328
ENERGY: 50000 1.0269 2.2184 2.7396 0.0000 -23960.5472 4149.3475 0.0000 0.0000 605.2910 -19199.9238 60.8888 -19805.2148 -19197.8255 59.8822 250.9410 310.7100 47622.0626 4.7885 4.5033
TCL: Running 25000 steps at 90 kelvin.
TCL: Setting parameter langevinTemp to 90
TCL: Running for 25000 steps
ETITLE: TS BOND ANGLE DIHED IMPRP ELECT VDW BOUNDARY MISC KINETIC TOTAL TEMP POTENTIAL TOTAL3 TEMPAVG PRESSURE GPRESSURE VOLUME PRESSAVG GPRESSAVG
ENERGY: 50000 1.0269 2.2184 2.7396 0.0000 -23960.5472 4149.3475 0.0000 0.0000 605.0034 -19200.2113 60.8599 -19805.2148 -19198.8040 60.8599 254.9472 310.8902 47622.0626 254.9472 310.8902
ENERGY: 55000 1.4309 2.2180 3.4715 0.0000 -23571.3917 4087.9376 0.0000 0.0000 896.9946 -18579.3391 90.2325 -19476.3337 -18578.1196 87.6477 734.8281 794.2608 47866.9272 -3.0068 -3.3429
ENERGY: 60000 0.5120 1.7332 2.8851 0.0000 -23581.1764 4024.5509 0.0000 0.0000 904.0581 -18647.4370 90.9431 -19551.4952 -18644.2844 90.7651 223.0398 277.5378 47928.5840 2.2833 2.4565
ENERGY: 65000 0.9764 3.0316 4.4945 0.0000 -23550.9906 3957.2657 0.0000 0.0000 898.8513 -18686.3710 90.4193 -19585.2224 -18683.7692 89.4993 -278.8881 -210.0571 48134.4927 6.8095 6.6317
ENERGY: 70000 0.9091 2.4106 1.9480 0.0000 -23708.6129 4098.1157 0.0000 0.0000 890.4056 -18714.8238 89.5697 -19605.2294 -18712.4834 90.3443 367.7698 416.9949 48008.3209 3.9165 4.0367
ENERGY: 75000 0.8878 1.4260 2.7787 0.0000 -23567.2231 3954.8895 0.0000 0.0000 905.6697 -18701.5715 91.1052 -19607.2411 -18699.0119 90.0794 -355.9213 -258.8000 48203.7461 4.5900 4.2925
TCL: Running 25000 steps at 120 kelvin.
TCL: Setting parameter langevinTemp to 120
TCL: Running for 25000 steps
ETITLE: TS BOND ANGLE DIHED IMPRP ELECT VDW BOUNDARY MISC KINETIC TOTAL TEMP POTENTIAL TOTAL3 TEMPAVG PRESSURE GPRESSURE VOLUME PRESSAVG GPRESSAVG
ENERGY: 75000 0.8878 1.4260 2.7787 0.0000 -23567.2231 3954.8895 0.0000 0.0000 905.2129 -18702.0283 91.0592 -19607.2411 -18700.2264 91.0592 -308.4405 -258.5235 48203.7461 -308.4405 -258.5235
ENERGY: 80000 1.3428 2.5876 2.3104 0.0000 -23083.8546 3825.8650 0.0000 0.0000 1192.4314 -18059.3174 119.9518 -19251.7489 -18056.6572 118.3323 -218.1293 -135.9659 48538.5385 3.3533 3.2071
ENERGY: 85000 1.7305 1.9370 1.9509 0.0000 -23117.8694 3832.6776 0.0000 0.0000 1181.6844 -18097.8890 118.8707 -19279.5734 -18095.4075 120.6879 -319.9684 -223.6640 48624.8991 1.4047 1.8881
ENERGY: 90000 1.6553 2.4487 2.3572 0.0000 -23202.6248 3875.9428 0.0000 0.0000 1171.8722 -18148.3484 117.8836 -19320.2206 -18146.2042 120.1811 -22.2028 27.7128 48111.1068 2.2861 2.2149
ENERGY: 95000 1.6223 2.7426 3.2371 0.0000 -23128.6445 3808.7102 0.0000 0.0000 1175.2990 -18137.0333 118.2284 -19312.3323 -18134.2717 119.3361 -374.4406 -340.7998 48314.5247 11.2107 11.0635
ENERGY: 100000 1.0090 4.3539 3.8195 0.0000 -23395.5240 4032.8785 0.0000 0.0000 1204.2940 -18149.1692 121.1451 -19353.4632 -18148.1100 119.9407 677.3409 720.0901 48288.5735 3.5733 3.3581
TCL: Running 25000 steps at 150 kelvin.
TCL: Setting parameter langevinTemp to 150
TCL: Running for 25000 steps
ETITLE: TS BOND ANGLE DIHED IMPRP ELECT VDW BOUNDARY MISC KINETIC TOTAL TEMP POTENTIAL TOTAL3 TEMPAVG PRESSURE GPRESSURE VOLUME PRESSAVG GPRESSAVG
ENERGY: 100000 1.0090 4.3539 3.8195 0.0000 -23395.5240 4032.8785 0.0000 0.0000 1203.7015 -18149.7617 121.0855 -19353.4632 -18147.4860 121.0855 669.3420 719.4101 48288.5735 669.3420 719.4101
ENERGY: 105000 2.4547 3.3124 2.7321 0.0000 -22843.0983 3830.7744 0.0000 0.0000 1513.2886 -17490.5361 152.2282 -19003.8247 -17485.6742 147.3902 380.0771 428.5752 48667.4292 1.8802 1.9519
ENERGY: 110000 1.5908 4.0039 2.8507 0.0000 -22643.4793 3588.1954 0.0000 0.0000 1512.1085 -17534.7300 152.1095 -19046.8385 -17531.0539 150.7957 -1032.1440 -984.4299 49219.7591 6.9344 6.7871
ENERGY: 115000 3.6055 2.4142 3.3668 0.0000 -22746.3835 3717.9885 0.0000 0.0000 1461.8523 -17557.1562 147.0540 -19019.0085 -17551.7880 150.2313 -421.2168 -409.3593 49031.8695 5.8714 6.3762
ENERGY: 120000 2.3678 3.3405 1.5686 0.0000 -22746.7742 3656.6940 0.0000 0.0000 1509.1895 -17573.6137 151.8158 -19082.8032 -17567.2979 149.1357 -657.8266 -580.5568 48825.0956 3.2364 3.5207
ENERGY: 125000 2.4201 4.1176 3.0516 0.0000 -22681.9245 3634.7014 0.0000 0.0000 1474.2496 -17563.3841 148.3011 -19037.6338 -17560.0682 149.6521 -886.3710 -823.5915 49173.7555 1.0198 0.7214
TCL: Running 50000 steps at 180 kelvin.
TCL: Setting parameter langevinTemp to 180
TCL: Running for 50000 steps
ETITLE: TS BOND ANGLE DIHED IMPRP ELECT VDW BOUNDARY MISC KINETIC TOTAL TEMP POTENTIAL TOTAL3 TEMPAVG PRESSURE GPRESSURE VOLUME PRESSAVG GPRESSAVG
ENERGY: 125000 2.4201 4.1176 3.0516 0.0000 -22681.9245 3634.7014 0.0000 0.0000 1473.5010 -17564.1328 148.2258 -19037.6338 -17560.8573 148.2258 -877.1641 -823.3081 49173.7555 -877.1641 -823.3081
ENERGY: 135000 1.0483 3.9186 3.6807 0.0000 -22135.9800 3524.4038 0.0000 0.0000 1796.5915 -16806.3371 180.7268 -18602.9287 -16803.5133 180.2737 -243.7628 -185.3504 48847.0200 4.3911 4.2985
ENERGY: 145000 1.2609 6.8246 3.5804 0.0000 -22209.6147 3597.3590 0.0000 0.0000 1787.5085 -16813.0814 179.8131 -18600.5899 -16808.3774 179.5544 -43.0471 13.0721 49156.6278 3.0233 3.6487
ENERGY: 155000 0.9608 6.1237 2.6463 0.0000 -22107.0561 3526.0005 0.0000 0.0000 1747.6774 -16823.6475 175.8064 -18571.3249 -16820.6422 180.8032 -462.0570 -423.5585 49617.3584 0.6306 0.4082
ENERGY: 165000 0.8602 4.6332 3.0840 0.0000 -22333.6209 3691.2124 0.0000 0.0000 1758.1523 -16875.6788 176.8601 -18633.8311 -16871.2985 179.3103 271.5790 296.1757 49297.8400 3.7355 4.0629
ENERGY: 175000 1.9999 3.7012 2.3178 0.0000 -22173.7992 3560.1410 0.0000 0.0000 1840.8292 -16764.8101 185.1769 -18605.6393 -16758.6576 180.8963 -311.9156 -230.3097 49511.4284 3.4110 3.5704
TCL: Running 50000 steps at 210 kelvin.
TCL: Setting parameter langevinTemp to 210
TCL: Running for 50000 steps
ETITLE: TS BOND ANGLE DIHED IMPRP ELECT VDW BOUNDARY MISC KINETIC TOTAL TEMP POTENTIAL TOTAL3 TEMPAVG PRESSURE GPRESSURE VOLUME PRESSAVG GPRESSAVG
ENERGY: 175000 1.9999 3.7012 2.3178 0.0000 -22173.7992 3560.1410 0.0000 0.0000 1839.9674 -16765.6719 185.0902 -18605.6393 -16762.4844 185.0902 -295.3013 -228.4327 49511.4284 -295.3013 -228.4327
ENERGY: 185000 0.8895 6.7235 4.5937 0.0000 -21194.6096 3269.8646 0.0000 0.0000 2081.4938 -15831.0446 209.3864 -17912.5384 -15825.6802 209.2799 22.8718 67.2845 48824.4723 2.8387 2.5827
ENERGY: 195000 2.5022 7.0479 2.9271 0.0000 -21106.7592 3290.6211 0.0000 0.0000 2067.3876 -15736.2733 207.9674 -17803.6610 -15731.8847 211.3613 274.9211 385.4908 48704.4880 0.2646 0.0742
ENERGY: 205000 1.9142 4.9974 5.4964 0.0000 -21152.4461 3272.6241 0.0000 0.0000 2088.5126 -15778.9015 210.0924 -17867.4141 -15773.5501 207.8672 185.5887 232.2731 48580.6603 -0.0472 -0.5430
ENERGY: 215000 1.1653 5.6141 4.0879 0.0000 -21050.8220 3238.1203 0.0000 0.0000 2109.5800 -15692.2545 212.2117 -17801.8344 -15687.2690 210.0706 49.8072 99.5936 49023.8799 7.5469 6.6681
ENERGY: 225000 3.5897 4.5055 2.3529 0.0000 -20919.5689 3126.2650 0.0000 0.0000 2082.2137 -15700.6420 209.4588 -17782.8557 -15696.0300 210.4874 -361.0966 -279.2891 48968.8107 3.9323 4.5364
TCL: Running 50000 steps at 240 kelvin.
TCL: Setting parameter langevinTemp to 240
TCL: Running for 50000 steps
ETITLE: TS BOND ANGLE DIHED IMPRP ELECT VDW BOUNDARY MISC KINETIC TOTAL TEMP POTENTIAL TOTAL3 TEMPAVG PRESSURE GPRESSURE VOLUME PRESSAVG GPRESSAVG
ENERGY: 225000 3.5897 4.5055 2.3529 0.0000 -20919.5689 3126.2650 0.0000 0.0000 2081.1663 -15701.6894 209.3534 -17782.8557 -15697.3232 209.3534 -351.9315 -279.6525 48968.8107 -351.9315 -279.6525
ENERGY: 235000 1.2831 4.2393 2.4017 0.0000 -19958.9328 2860.2591 0.0000 0.0000 2355.7434 -14735.0061 236.9743 -17090.7496 -14728.1765 241.0985 -162.5534 -70.7334 49035.9543 4.5741 5.4456
ENERGY: 245000 3.7723 7.8780 3.0902 0.0000 -20034.0813 2920.8572 0.0000 0.0000 2369.9463 -14728.5373 238.4030 -17098.4836 -14724.0225 240.3033 -99.4493 -3.0102 49597.2730 1.9214 2.0788
ENERGY: 255000 2.0720 4.6660 2.9759 0.0000 -20108.7556 2987.4160 0.0000 0.0000 2413.8134 -14697.8123 242.8158 -17111.6257 -14693.2292 241.1819 381.4571 461.3056 49068.5934 5.1579 5.3708
ENERGY: 265000 3.0533 6.6844 4.3195 0.0000 -20021.4435 2932.4565 0.0000 0.0000 2369.5934 -14705.3363 238.3675 -17074.9297 -14701.2097 240.2139 -298.4182 -169.8627 49491.5271 3.9843 3.6602
ENERGY: 275000 1.5207 7.1917 3.1707 0.0000 -20096.3428 2993.5325 0.0000 0.0000 2355.1300 -14735.7972 236.9126 -17090.9272 -14729.5463 237.8626 345.1201 391.2883 49074.5707 4.2585 3.4217
TCL: Running 50000 steps at 270 kelvin.
TCL: Setting parameter langevinTemp to 270
TCL: Running for 50000 steps
ETITLE: TS BOND ANGLE DIHED IMPRP ELECT VDW BOUNDARY MISC KINETIC TOTAL TEMP POTENTIAL TOTAL3 TEMPAVG PRESSURE GPRESSURE VOLUME PRESSAVG GPRESSAVG
ENERGY: 275000 1.5207 7.1917 3.1707 0.0000 -20096.3428 2993.5325 0.0000 0.0000 2353.9074 -14737.0198 236.7896 -17090.9272 -14733.1966 236.7896 317.8646 391.7630 49074.5707 317.8646 391.7630
ENERGY: 285000 0.9689 4.8414 3.8954 0.0000 -18917.9551 2604.2563 0.0000 0.0000 2572.2471 -13731.7459 258.7533 -16303.9930 -13725.8432 268.8625 -275.1965 -205.1931 50574.5740 -4.8351 -5.3024
ENERGY: 295000 1.9276 4.9332 5.4287 0.0000 -19166.3089 2782.9052 0.0000 0.0000 2713.8363 -13657.2780 272.9964 -16371.1143 -13649.4786 271.4335 581.6519 661.3850 50246.3037 2.8462 3.0337
ENERGY: 305000 3.6712 6.5708 2.8353 0.0000 -18995.0468 2557.3210 0.0000 0.0000 2724.2380 -13700.4105 274.0428 -16424.6485 -13695.5707 269.8878 -725.1397 -621.6510 50451.8526 3.3313 2.7058
ENERGY: 315000 5.2899 3.5253 2.8516 0.0000 -19112.9369 2798.9790 0.0000 0.0000 2697.5687 -13604.7224 271.3600 -16302.2911 -13598.6353 269.9708 961.5815 1022.0619 49981.7828 2.7855 2.5230
ENERGY: 325000 1.2507 6.1111 3.3064 0.0000 -19066.8691 2648.8845 0.0000 0.0000 2723.8867 -13683.4297 274.0074 -16407.3164 -13678.5169 268.7995 -302.7258 -247.9225 50896.3270 1.6253 2.2863
TCL: Running 1000000 steps at 300 kelvin.
TCL: Setting parameter langevinTemp to 300
TCL: Running for 1000000 steps
ETITLE: TS BOND ANGLE DIHED IMPRP ELECT VDW BOUNDARY MISC KINETIC TOTAL TEMP POTENTIAL TOTAL3 TEMPAVG PRESSURE GPRESSURE VOLUME PRESSAVG GPRESSAVG
ENERGY: 325000 1.2507 6.1111 3.3064 0.0000 -19066.8691 2648.8845 0.0000 0.0000 2722.5882 -13684.7282 273.8768 -16407.3164 -13681.2677 273.8768 -327.6807 -247.2313 50896.3270 -327.6807 -247.2313
ENERGY: 525000 2.4628 7.8910 3.6913 0.0000 -18208.5205 2491.4808 0.0000 0.0000 2983.5167 -12719.4779 300.1247 -15702.9946 -12711.0825 300.2614 106.0162 223.5808 51573.9798 0.2255 1.0566
ENERGY: 725000 2.6130 5.2640 5.8022 0.0000 -18134.3686 2368.3863 0.0000 0.0000 2931.3539 -12820.9491 294.8774 -15752.3030 -12813.9112 300.6073 -353.4410 -246.2252 51381.3455 4.4809 5.2134
ENERGY: 925000 1.5684 8.7696 5.7865 0.0000 -18251.6704 2496.3194 0.0000 0.0000 2984.8083 -12754.4182 300.2546 -15739.2265 -12752.5740 301.7346 148.7667 217.1587 51713.2646 1.3811 1.3691
ENERGY: 1125000 1.7781 4.7777 7.3478 0.0000 -18361.6511 2549.8841 0.0000 0.0000 2935.1721 -12862.6912 295.2615 -15797.8633 -12857.8678 299.1923 293.4384 416.2682 51307.4632 -2.1703 -1.7772
ENERGY: 1325000 5.2919 7.9044 4.6044 0.0000 -18292.5249 2460.3438 0.0000 0.0000 2915.0784 -12899.3019 293.2402 -15814.3803 -12894.2182 299.3697 12.3573 109.9680 50662.8667 0.8287 0.8749
TCL: Exiting due to exit command.
