Info: SIMULATION PARAMETERS:
Info: TIMESTEP               2
Info: NUMBER OF STEPS        0
Info: STEPS PER CYCLE        10
Info: PERIODIC CELL BASIS 1  72.4939 0 0
Info: PERIODIC CELL BASIS 2  0 72.4939 0
Info: PERIODIC CELL BASIS 3  0 0 72.4939
Info: PERIODIC CELL CENTER   37.041 37.041 37.041
Info: WRAPPING ALL CLUSTERS AROUND PERIODIC BOUNDARIES ON OUTPUT.
Info: FIRST LDB TIMESTEP     50
Info: LAST LDB TIMESTEP     -1
Info: HOM BACKGROUND SCALING 1
Info: PME BACKGROUND SCALING 1
Info: MIN ATOMS PER PATCH    40
Info: EMPTY PATCH LOAD       40 ATOMS
Info: VELOCITY FILE          mobley_9974966_equilibrated.vel
Info: CENTER OF MASS MOVING INITIALLY? NO
Info: DIELECTRIC             1
Info: EXCLUDE                SCALED ONE-FOUR
Info: 1-4 ELECTROSTATICS SCALED BY 1
Info: MODIFIED 1-4 VDW PARAMETERS WILL BE USED
Info: DCD FILENAME           mobley_9974966_forwards.dcd
Info: DCD FREQUENCY          500
Info: DCD FIRST STEP         500
Info: DCD FILE WILL CONTAIN UNIT CELL DATA
Info: NO EXTENDED SYSTEM TRAJECTORY OUTPUT
Info: NO VELOCITY DCD OUTPUT
Info: NO FORCE DCD OUTPUT
Info: OUTPUT FILENAME        mobley_9974966_forwards
Info: BINARY OUTPUT FILES WILL BE USED
Info: NO RESTART FILE
Info: SWITCHING ACTIVE
Info: SWITCHING ON           10
Info: SWITCHING OFF          12
Info: PAIRLIST DISTANCE      14
Info: PAIRLIST SHRINK RATE   0.01
Info: PAIRLIST GROW RATE     0.01
Info: PAIRLIST TRIGGER       0.3
Info: PAIRLISTS PER CYCLE    2
Info: PAIRLISTS ENABLED
Info: MARGIN                 8
Info: HYDROGEN GROUP CUTOFF  2.5
Info: PATCH DIMENSION        24.5
Info: ENERGY OUTPUT STEPS    500
Info: ENERGY EVALUATION STEPS    500
Info: OUTPUT ENERGY PRECISION 4
Info: CROSSTERM ENERGY INCLUDED IN DIHEDRAL
Info: TIMING OUTPUT STEPS    500
Info: PRESSURE OUTPUT STEPS  500
Info: ALCHEMICAL FEP ON
Info: FEP CURRENT LAMBDA VALUE     0
Info: FEP COMPARISON LAMBDA VALUE  0.0625
Info: FEP INTRA-ALCHEMICAL NON-BONDED INTERACTIONS WILL BE DECOUPLED
Info: FEP INTRA-ALCHEMICAL BONDED INTERACTIONS WILL BE RETAINED
Info: FEP VDW SHIFTING COEFFICIENT 6
Info: FEP ELEC. ACTIVE FOR ANNIHILATED PARTICLES BETWEEN LAMBDA = 0 AND LAMBDA = 0.5
Info: FEP ELEC. ACTIVE FOR EXNIHILATED PARTICLES BETWEEN LAMBDA = 0.5 AND LAMBDA = 1
Info: FEP VDW ACTIVE FOR ANNIHILATED PARTICLES BETWEEN LAMBDA = 0 AND LAMBDA = 1
Info: FEP VDW ACTIVE FOR EXNIHILATED PARTICLES BETWEEN LAMBDA = 0 AND LAMBDA = 1
Info: FEP BOND ACTIVE FOR ANNIHILATED PARTICLES BETWEEN LAMBDA = 1 AND LAMBDA = 1
Info: FEP BOND ACTIVE FOR EXNIHILATED PARTICLES BETWEEN LAMBDA = 0 AND LAMBDA = 0
Info: LANGEVIN DYNAMICS ACTIVE
Info: LANGEVIN TEMPERATURE   298
Info: LANGEVIN USING BBK INTEGRATOR
Info: LANGEVIN DAMPING COEFFICIENT IS 1 INVERSE PS
Info: LANGEVIN DYNAMICS NOT APPLIED TO HYDROGENS
Info: LANGEVIN PISTON PRESSURE CONTROL ACTIVE
Info:        TARGET PRESSURE IS 1.01325 BAR
Info:     OSCILLATION PERIOD IS 100 FS
Info:             DECAY TIME IS 50 FS
Info:     PISTON TEMPERATURE IS 298 K
Info:       PRESSURE CONTROL IS GROUP-BASED
Info:    INITIAL STRAIN RATE IS 2.69991e-05 2.69991e-05 2.69991e-05
Info:       CELL FLUCTUATION IS ISOTROPIC
Info: PARTICLE MESH EWALD (PME) ACTIVE
Info: PME TOLERANCE               1e-05
Info: PME EWALD COEFFICIENT       0.226635
Info: PME INTERPOLATION ORDER     4
Info: PME GRID DIMENSIONS         80 80 80
Info: PME MAXIMUM GRID SPACING    1
Info: FULL ELECTROSTATIC EVALUATION FREQUENCY      1
Info: USING VERLET I (r-RESPA) MTS SCHEME.
Info: C1 SPLITTING OF LONG RANGE ELECTROSTATICS
Info: PLACING ATOMS IN PATCHES BY HYDROGEN GROUPS
Info: RIGID BONDS TO HYDROGEN : ALL
Info:         ERROR TOLERANCE : 1e-08
Info:          MAX ITERATIONS : 100
Info: RIGID WATER USING SETTLE ALGORITHM
Info: RANDOM NUMBER SEED     1740655114
Info: USE HYDROGEN BONDS?    NO
Info: COORDINATE PDB         mobley_9974966.pdb
Info: STRUCTURE FILE         mobley_9974966.psf
Info: PARAMETER file: CHARMM format!
Info: PARAMETERS             ../common/par_all27_prot_lipid.inp
Info: PARAMETERS             mobley_9974966.prm
Info: USING ARITHMETIC MEAN TO COMBINE L-J SIGMA PARAMETERS
Info: BINARY COORDINATES     mobley_9974966_equilibrated.coor
Info: SUMMARY OF PARAMETERS:
Info: 184 BONDS
Info: 454 ANGLES
Info: 571 DIHEDRAL
Info: 46 IMPROPER
Info: 6 CROSSTERM
Info: 123 VDW
Info: 0 VDW_PAIRS
Info: 0 NBTHOLE_PAIRS
Info: To read alchdata from file: mobley_9974966.pdb
Info: To read alchflag data from column: 5
Info: STRUCTURE SUMMARY:
Info: 5013 ATOMS
Info: 3348 BONDS
Info: 1701 ANGLES
Info: 42 DIHEDRALS
Info: 0 IMPROPERS
Info: 0 CROSSTERMS
Info: 0 EXCLUSIONS
Info: 5006 RIGID BONDS
Info: ALCH: 0 ATOMS TO DISAPPEAR IN FINAL STATE
Info: ALCH: 21 ATOMS TO APPEAR IN FINAL STATE
Info: 10033 DEGREES OF FREEDOM
Info: 1671 HYDROGEN GROUPS
Info: 4 ATOMS IN LARGEST HYDROGEN GROUP
Info: 1671 MIGRATION GROUPS
Info: 4 ATOMS IN LARGEST MIGRATION GROUP
Info: TOTAL MASS = 30095.9 amu
Info: TOTAL CHARGE = 0 e
Info: MASS DENSITY = 0.131178 g/cm^3
Info: ATOM DENSITY = 0.0131581 atoms/A^3
Info: ADDED 5091 IMPLICIT EXCLUSIONS
Info: NONBONDED TABLE R-SQUARED SPACING: 0.0625
Info: NONBONDED TABLE SIZE: 769 POINTS
Info: REMOVING COM VELOCITY 0.156335 0.114569 0.00900006
TCL: Running for 5000 steps
ETITLE: TS BOND ANGLE DIHED IMPRP ELECT VDW BOUNDARY MISC KINETIC TOTAL TEMP POTENTIAL TOTAL3 TEMPAVG PRESSURE GPRESSURE VOLUME PRESSAVG GPRESSAVG
ENERGY: 0 2.4153 10.3762 1.9635 0.0000 -17229.7856 1765.0939 0.0000 0.0000 2944.2211 -12505.7157 295.3453 -15449.9368 -12499.9353 295.3453 -60.6036 -60.3617 380982.5766 -60.6036 -60.3617
ENERGY: 1000 0.3716 14.2918 2.6772 0.0000 -17329.0568 1871.8530 0.0000 0.0000 2861.4891 -12578.3742 287.0461 -15439.8633 -12571.7628 294.8740 0.1465 1.0558 376086.5478 -0.2682 -0.2407
ENERGY: 2000 2.8105 11.0913 2.3704 0.0000 -17340.5580 1840.6340 0.0000 0.0000 2959.3138 -12524.3379 296.8593 -15483.6517 -12518.1535 294.8959 -2.6781 -2.8343 368350.8516 2.0086 2.0109
ENERGY: 3000 1.0080 12.3913 1.8044 0.0000 -17296.7776 1867.3974 0.0000 0.0000 2999.6616 -12414.5149 300.9067 -15414.1765 -12409.2419 298.2196 34.7122 35.7980 357167.4845 3.5137 3.5662
ENERGY: 4000 1.1844 9.3709 1.1057 0.0000 -17241.0562 1748.2045 0.0000 0.0000 3044.0999 -12437.0909 305.3644 -15481.1908 -12429.9262 300.6020 -60.1330 -62.4832 365060.2870 2.1233 2.0758
ENERGY: 5000 0.9405 7.0395 0.3737 0.0000 -17455.3443 1869.7424 0.0000 0.0000 2957.1682 -12620.0800 296.6440 -15577.2481 -12617.9515 295.9739 34.7420 35.5428 355706.9161 1.4508 1.5238
TCL: Running FEP window   2: Lambda1 0.0625 Lambda2 0.125  [dLambda 0.0625]
TCL: Setting parameter firsttimestep to 0
TCL: Setting parameter alchLambda to 0.0625
Info: NONBONDED TABLE R-SQUARED SPACING: 0.0625
Info: NONBONDED TABLE SIZE: 769 POINTS
TCL: Setting parameter alchLambda2 to 0.125
Info: NONBONDED TABLE R-SQUARED SPACING: 0.0625
Info: NONBONDED TABLE SIZE: 769 POINTS
TCL: Running for 5000 steps
ETITLE: TS BOND ANGLE DIHED IMPRP ELECT VDW BOUNDARY MISC KINETIC TOTAL TEMP POTENTIAL TOTAL3 TEMPAVG PRESSURE GPRESSURE VOLUME PRESSAVG GPRESSAVG
ENERGY: 0 0.9405 7.0395 0.3737 0.0000 -17455.3443 1870.6086 0.0000 0.0000 2957.0738 -12619.3081 296.6346 -15576.3820 -12613.0619 296.6346 35.2233 35.2400 355706.9161 35.2233 35.2400
ENERGY: 1000 2.5585 8.1574 0.7612 0.0000 -17472.9743 1920.3149 0.0000 0.0000 2947.6458 -12593.5366 295.6888 -15541.1824 -12588.3426 294.8534 29.3884 31.0614 368824.6523 0.5292 0.4597
ENERGY: 2000 1.1316 9.8955 1.1572 0.0000 -17346.5630 1812.5277 0.0000 0.0000 2937.2447 -12584.6063 294.6454 -15521.8511 -12578.5428 293.1472 -51.3825 -51.1942 395778.5699 -0.4106 -0.3795
ENERGY: 3000 1.2185 10.9820 0.8981 0.0000 -17349.2021 1886.7410 0.0000 0.0000 2943.3842 -12505.9785 295.2613 -15449.3627 -12501.0477 294.3409 65.6212 65.4168 400983.7401 1.1215 1.0982
ENERGY: 4000 0.8785 7.2058 0.7355 0.0000 -17345.8699 1946.5481 0.0000 0.0000 2883.9059 -12506.5961 289.2948 -15390.5020 -12503.0552 294.8999 66.5970 66.0270 412708.0403 1.1746 1.1684
ENERGY: 5000 1.1527 7.6246 1.0793 0.0000 -17231.2461 1854.7711 0.0000 0.0000 2947.7469 -12418.8715 295.6989 -15366.6184 -12413.6109 298.7939 10.2963 10.8861 417882.2166 -0.5637 -0.5520
TCL: Running FEP window   3: Lambda1 0.125  Lambda2 0.1875 [dLambda 0.0625]
TCL: Setting parameter firsttimestep to 0
TCL: Setting parameter alchLambda to 0.125
Info: NONBONDED TABLE R-SQUARED SPACING: 0.0625
Info: NONBONDED TABLE SIZE: 769 POINTS
TCL: Setting parameter alchLambda2 to 0.1875
Info: NONBONDED TABLE R-SQUARED SPACING: 0.0625
Info: NONBONDED TABLE SIZE: 769 POINTS
TCL: Running for 5000 steps
ETITLE: TS BOND ANGLE DIHED IMPRP ELECT VDW BOUNDARY MISC KINETIC TOTAL TEMP POTENTIAL TOTAL3 TEMPAVG PRESSURE GPRESSURE VOLUME PRESSAVG GPRESSAVG
ENERGY: 0 1.1527 7.6246 1.0793 0.0000 -17231.2461 1855.5817 0.0000 0.0000 2947.6502 -12418.1577 295.6892 -15365.8078 -12411.9156 295.6892 11.1988 11.2608 417882.2166 11.1988 11.2608
ENERGY: 1000 1.0513 6.6812 0.4318 0.0000 -17284.0748 1829.6983 0.0000 0.0000 2897.9679 -12548.2442 290.7054 -15446.2121 -12543.6023 295.6130 18.1029 17.6240 401587.2378 2.6908 2.6918
ENERGY: 2000 1.6509 9.1503 1.6894 0.0000 -17316.0725 1850.2742 0.0000 0.0000 2898.7308 -12554.5769 290.7820 -15453.3076 -12547.8389 293.6768 2.3953 1.6961 403323.0471 -0.8625 -0.8501
ENERGY: 3000 0.2206 7.4929 2.3265 0.0000 -17382.0934 1792.4266 0.0000 0.0000 2969.7337 -12609.8931 297.9045 -15579.6268 -12602.6373 292.6322 -44.2916 -44.3221 387521.2858 0.6681 0.6336
ENERGY: 4000 0.2812 9.5385 0.7019 0.0000 -17296.0177 1802.2707 0.0000 0.0000 2963.7423 -12519.4831 297.3035 -15483.2253 -12512.2232 296.5759 -39.0008 -39.3784 374091.6342 3.6839 3.6955
ENERGY: 5000 3.0504 9.4356 1.4570 0.0000 -17350.0880 1934.1211 0.0000 0.0000 2987.9049 -12414.1191 299.7273 -15402.0240 -12409.2424 298.2381 92.7927 94.0619 379012.9925 3.1222 3.1288
TCL: Running FEP window   4: Lambda1 0.1875 Lambda2 0.25   [dLambda 0.0625]
TCL: Setting parameter firsttimestep to 0
TCL: Setting parameter alchLambda to 0.1875
Info: NONBONDED TABLE R-SQUARED SPACING: 0.0625
Info: NONBONDED TABLE SIZE: 769 POINTS
TCL: Setting parameter alchLambda2 to 0.25
Info: NONBONDED TABLE R-SQUARED SPACING: 0.0625
Info: NONBONDED TABLE SIZE: 769 POINTS
TCL: Running for 5000 steps
ETITLE: TS BOND ANGLE DIHED IMPRP ELECT VDW BOUNDARY MISC KINETIC TOTAL TEMP POTENTIAL TOTAL3 TEMPAVG PRESSURE GPRESSURE VOLUME PRESSAVG GPRESSAVG
ENERGY: 0 3.0504 9.4356 1.4570 0.0000 -17350.0880 1935.6444 0.0000 0.0000 2987.8138 -12412.6869 299.7182 -15400.5007 -12407.2267 299.7182 94.6293 94.3882 379012.9925 94.6293 94.3882
ENERGY: 1000 0.9618 7.6875 1.0001 0.0000 -17184.4007 1868.3602 0.0000 0.0000 2930.0814 -12376.3096 293.9268 -15306.3910 -12370.5025 299.2182 66.9665 66.4003 398891.8808 2.3174 2.3112
ENERGY: 2000 0.9479 9.1338 1.7581 0.0000 -17256.8811 1812.6123 0.0000 0.0000 2993.2988 -12439.1302 300.2684 -15432.4290 -12432.1160 298.3944 -6.8657 -6.7647 401980.9743 1.4080 1.3776
ENERGY: 3000 0.7555 8.3194 1.1807 0.0000 -17333.6132 1834.4897 0.0000 0.0000 3009.1038 -12479.7641 301.8539 -15488.8679 -12474.3576 299.9225 -0.9141 -0.0761 384285.6101 2.0132 1.9911
ENERGY: 4000 3.1797 9.0846 2.0815 0.0000 -17194.6156 1750.1686 0.0000 0.0000 2986.3390 -12443.7622 299.5702 -15430.1012 -12437.5633 299.1464 -73.3869 -73.2596 398009.5124 -0.6906 -0.6608
ENERGY: 5000 3.0993 8.4512 1.0795 0.0000 -17324.9733 1913.2426 0.0000 0.0000 2915.4926 -12483.6080 292.4634 -15399.1006 -12479.5896 297.0368 58.7334 58.6918 389072.6092 3.3832 3.3429
TCL: Running FEP window   5: Lambda1 0.25   Lambda2 0.3125 [dLambda 0.0625]
TCL: Setting parameter firsttimestep to 0
TCL: Setting parameter alchLambda to 0.25
Info: NONBONDED TABLE R-SQUARED SPACING: 0.0625
Info: NONBONDED TABLE SIZE: 769 POINTS
TCL: Setting parameter alchLambda2 to 0.3125
Info: NONBONDED TABLE R-SQUARED SPACING: 0.0625
Info: NONBONDED TABLE SIZE: 769 POINTS
TCL: Running for 5000 steps
ETITLE: TS BOND ANGLE DIHED IMPRP ELECT VDW BOUNDARY MISC KINETIC TOTAL TEMP POTENTIAL TOTAL3 TEMPAVG PRESSURE GPRESSURE VOLUME PRESSAVG GPRESSAVG
ENERGY: 0 3.0993 8.4512 1.0795 0.0000 -17324.9733 1913.8652 0.0000 0.0000 2915.4001 -12483.0779 292.4541 -15398.4780 -12477.4860 292.4541 58.8846 58.7220 389072.6092 58.8846 58.7220
ENERGY: 1000 0.6680 8.1565 2.2782 0.0000 -17257.4752 1803.6618 0.0000 0.0000 2906.5374 -12536.1731 291.5651 -15442.7106 -12531.2891 297.4337 -15.7455 -16.3519 392070.8857 4.3601 4.3430
ENERGY: 2000 0.7262 10.1612 2.0084 0.0000 -17411.2871 1943.6307 0.0000 0.0000 2892.1919 -12562.5687 290.1260 -15454.7606 -12558.3463 296.5602 103.5038 103.3878 373378.4199 -0.3131 -0.2724
ENERGY: 3000 1.6842 14.1146 1.5700 0.0000 -17373.1952 1845.3502 0.0000 0.0000 2923.9515 -12586.5247 293.3119 -15510.4762 -12580.2817 293.0329 19.4637 20.9981 372684.6644 2.4975 2.5183
ENERGY: 4000 1.5791 11.2368 3.2410 0.0000 -17345.9928 1857.6184 0.0000 0.0000 2891.0602 -12581.2574 290.0125 -15472.3175 -12576.7495 294.7368 -6.1162 -6.3834 384331.5854 0.6028 0.6039
ENERGY: 5000 1.1901 12.5818 2.4344 0.0000 -17396.9447 1886.1211 0.0000 0.0000 2942.0175 -12552.5999 295.1242 -15494.6174 -12544.6338 296.4490 37.1982 35.8882 389362.5086 1.3787 1.3614
TCL: Running FEP window   6: Lambda1 0.3125 Lambda2 0.375  [dLambda 0.0625]
TCL: Setting parameter firsttimestep to 0
TCL: Setting parameter alchLambda to 0.3125
Info: NONBONDED TABLE R-SQUARED SPACING: 0.0625
Info: NONBONDED TABLE SIZE: 769 POINTS
TCL: Setting parameter alchLambda2 to 0.375
Info: NONBONDED TABLE R-SQUARED SPACING: 0.0625
Info: NONBONDED TABLE SIZE: 769 POINTS
TCL: Running for 5000 steps
ETITLE: TS BOND ANGLE DIHED IMPRP ELECT VDW BOUNDARY MISC KINETIC TOTAL TEMP POTENTIAL TOTAL3 TEMPAVG PRESSURE GPRESSURE VOLUME PRESSAVG GPRESSAVG
ENERGY: 0 1.1901 12.5818 2.4344 0.0000 -17396.9447 1885.8958 0.0000 0.0000 2941.9200 -12552.9226 295.1144 -15494.8427 -12547.4291 295.1144 36.5463 36.2751 389362.5086 36.5463 36.2751
ENERGY: 1000 3.6331 13.1098 0.8963 0.0000 -17411.8017 1883.9172 0.0000 0.0000 2950.7579 -12559.4874 296.0010 -15510.2454 -12552.4914 294.9620 40.1347 40.7671 383824.8110 0.6830 0.6737
ENERGY: 2000 0.9823 9.6276 2.6974 0.0000 -17321.7582 1837.5039 0.0000 0.0000 2919.9924 -12550.9546 292.9148 -15470.9470 -12545.5594 293.1529 4.5536 3.8522 391761.9192 1.6200 1.6381
ENERGY: 3000 2.8500 13.5068 2.1158 0.0000 -17176.9500 1772.7622 0.0000 0.0000 2929.2441 -12456.4712 293.8429 -15385.7153 -12450.5233 298.2820 -20.6213 -21.8647 399770.0737 4.1505 4.1149
ENERGY: 4000 4.4248 6.6745 3.9041 0.0000 -17238.6235 1786.8351 0.0000 0.0000 2933.7634 -12503.0216 294.2962 -15436.7850 -12497.1536 297.2823 -21.9374 -22.0685 400516.1179 -1.2227 -1.2022
ENERGY: 5000 1.8677 10.9010 4.5844 0.0000 -17161.1398 1772.0128 0.0000 0.0000 2903.8819 -12467.8920 291.2987 -15371.7738 -12463.5519 298.1409 -31.9593 -32.8414 398101.0680 3.3997 3.3953
TCL: Running FEP window   7: Lambda1 0.375  Lambda2 0.4375 [dLambda 0.0625]
TCL: Setting parameter firsttimestep to 0
TCL: Setting parameter alchLambda to 0.375
Info: NONBONDED TABLE R-SQUARED SPACING: 0.0625
Info: NONBONDED TABLE SIZE: 769 POINTS
TCL: Setting parameter alchLambda2 to 0.4375
Info: NONBONDED TABLE R-SQUARED SPACING: 0.0625
Info: NONBONDED TABLE SIZE: 769 POINTS
TCL: Running for 5000 steps
ETITLE: TS BOND ANGLE DIHED IMPRP ELECT VDW BOUNDARY MISC KINETIC TOTAL TEMP POTENTIAL TOTAL3 TEMPAVG PRESSURE GPRESSURE VOLUME PRESSAVG GPRESSAVG
ENERGY: 0 1.8677 10.9010 4.5844 0.0000 -17161.1398 1771.6506 0.0000 0.0000 2903.7886 -12468.3475 291.2893 -15372.1361 -12462.5482 291.2893 -33.0806 -33.0114 398101.0680 -33.0806 -33.0114
ENERGY: 1000 0.9201 7.6129 2.1135 0.0000 -17315.2935 1872.4002 0.0000 0.0000 2907.9605 -12524.2862 291.7078 -15432.2467 -12520.5364 294.2432 20.3188 21.4429 393314.5296 3.3072 3.3185
ENERGY: 2000 1.8927 6.7984 2.2414 0.0000 -17364.9640 1896.2185 0.0000 0.0000 2937.1907 -12520.6223 294.6400 -15457.8130 -12514.3718 292.4991 29.3272 30.3371 372809.3832 1.6821 1.6940
ENERGY: 3000 0.8952 8.7819 3.8353 0.0000 -17355.1386 1796.6229 0.0000 0.0000 2904.8249 -12640.1785 291.3933 -15545.0034 -12635.7055 294.2760 -29.2197 -30.1169 368582.8884 1.0565 1.0258
ENERGY: 4000 1.1717 11.4573 0.6323 0.0000 -17252.3260 1755.7390 0.0000 0.0000 2955.2974 -12528.0284 296.4564 -15483.3257 -12523.0939 296.8921 -63.0161 -62.6947 365287.6019 2.5918 2.5950
ENERGY: 5000 1.4587 9.0735 4.1506 0.0000 -17312.5045 1818.5305 0.0000 0.0000 3014.1946 -12465.0966 302.3645 -15479.2912 -12459.9163 294.0048 -16.2770 -16.1141 366678.3890 2.1476 2.1945
TCL: Running FEP window   8: Lambda1 0.4375 Lambda2 0.5    [dLambda 0.0625]
TCL: Setting parameter firsttimestep to 0
TCL: Setting parameter alchLambda to 0.4375
Info: NONBONDED TABLE R-SQUARED SPACING: 0.0625
Info: NONBONDED TABLE SIZE: 769 POINTS
TCL: Setting parameter alchLambda2 to 0.5
Info: NONBONDED TABLE R-SQUARED SPACING: 0.0625
Info: NONBONDED TABLE SIZE: 769 POINTS
TCL: Running for 5000 steps
ETITLE: TS BOND ANGLE DIHED IMPRP ELECT VDW BOUNDARY MISC KINETIC TOTAL TEMP POTENTIAL TOTAL3 TEMPAVG PRESSURE GPRESSURE VOLUME PRESSAVG GPRESSAVG
ENERGY: 0 1.4587 9.0735 4.1506 0.0000 -17312.5045 1818.2390 0.0000 0.0000 3014.1043 -12465.4784 302.3555 -15479.5827 -12459.9698 302.3555 -16.0740 -16.1754 366678.3890 -16.0740 -16.1754
ENERGY: 1000 0.9115 8.9109 2.7737 0.0000 -17266.5879 1861.5428 0.0000 0.0000 2958.4164 -12434.0326 296.7692 -15392.4490 -12427.2644 298.7871 31.8532 32.2608 368992.0083 4.0603 4.0307
ENERGY: 2000 1.0795 11.3860 2.0817 0.0000 -17080.3171 1734.9985 0.0000 0.0000 2907.2141 -12423.5574 291.6329 -15330.7715 -12417.6561 299.0407 -59.9846 -61.2639 363949.0111 -2.2816 -2.2636
ENERGY: 3000 1.8565 13.5773 2.4758 0.0000 -17179.1754 1808.0616 0.0000 0.0000 2967.6398 -12385.5643 297.6945 -15353.2041 -12378.4560 300.8997 6.2799 5.8323 364734.3359 2.4614 2.4912
ENERGY: 4000 2.0214 13.3807 1.7728 0.0000 -17241.0460 1745.8321 0.0000 0.0000 2993.7786 -12484.2604 300.3165 -15478.0390 -12477.1062 295.3491 -91.7436 -92.8795 366057.1698 1.3611 1.3634
ENERGY: 5000 1.5876 13.8488 3.0332 0.0000 -17282.0540 1763.0547 0.0000 0.0000 2893.8686 -12606.6612 290.2942 -15500.5298 -12601.2239 294.8386 -47.1866 -47.0453 362694.1430 -2.3756 -2.4158
TCL: Running FEP window   9: Lambda1 0.5    Lambda2 0.5625 [dLambda 0.0625]
TCL: Setting parameter firsttimestep to 0
TCL: Setting parameter alchLambda to 0.5
Info: NONBONDED TABLE R-SQUARED SPACING: 0.0625
Info: NONBONDED TABLE SIZE: 769 POINTS
TCL: Setting parameter alchLambda2 to 0.5625
Info: NONBONDED TABLE R-SQUARED SPACING: 0.0625
Info: NONBONDED TABLE SIZE: 769 POINTS
TCL: Running for 5000 steps
ETITLE: TS BOND ANGLE DIHED IMPRP ELECT VDW BOUNDARY MISC KINETIC TOTAL TEMP POTENTIAL TOTAL3 TEMPAVG PRESSURE GPRESSURE VOLUME PRESSAVG GPRESSAVG
ENERGY: 0 1.5876 13.8488 3.0332 0.0000 -17282.0540 1762.8998 0.0000 0.0000 2893.7787 -12606.9061 290.2852 -15500.6847 -12601.5115 290.2852 -46.7122 -46.6939 362694.1430 -46.7122 -46.6939
ENERGY: 1000 1.3168 8.2330 2.4278 0.0000 -17362.7723 1894.6017 0.0000 0.0000 2902.9710 -12553.2219 291.2073 -15456.1929 -12547.8890 292.5209 66.0702 66.6449 357363.1485 4.5324 4.5394
ENERGY: 2000 3.0300 6.9419 1.6284 0.0000 -17206.9750 1732.6379 0.0000 0.0000 2915.9423 -12546.7945 292.5085 -15462.7368 -12539.4682 295.3168 -70.4378 -70.6545 357355.7750 2.7123 2.7274
ENERGY: 3000 1.5350 7.5377 1.4948 0.0000 -17248.9587 1770.4007 0.0000 0.0000 2968.5962 -12499.3942 297.7904 -15467.9905 -12493.0695 297.1394 -27.4428 -26.4330 354744.7020 -0.0631 -0.0851
ENERGY: 4000 1.4663 12.4664 3.9264 0.0000 -17413.2068 1889.9568 0.0000 0.0000 3010.7118 -12494.6791 302.0152 -15505.3909 -12488.6929 296.2430 42.1681 43.3354 364840.2829 -1.1468 -1.1034
ENERGY: 5000 0.9524 8.9907 1.1232 0.0000 -17396.6042 1946.8203 0.0000 0.0000 2923.2140 -12515.5036 293.2380 -15438.7176 -12508.5343 296.0347 76.0187 77.0018 369460.6893 0.5430 0.5394
TCL: Running FEP window  10: Lambda1 0.5625 Lambda2 0.625  [dLambda 0.0625]
TCL: Setting parameter firsttimestep to 0
TCL: Setting parameter alchLambda to 0.5625
Info: NONBONDED TABLE R-SQUARED SPACING: 0.0625
Info: NONBONDED TABLE SIZE: 769 POINTS
TCL: Setting parameter alchLambda2 to 0.625
Info: NONBONDED TABLE R-SQUARED SPACING: 0.0625
Info: NONBONDED TABLE SIZE: 769 POINTS
TCL: Running for 5000 steps
ETITLE: TS BOND ANGLE DIHED IMPRP ELECT VDW BOUNDARY MISC KINETIC TOTAL TEMP POTENTIAL TOTAL3 TEMPAVG PRESSURE GPRESSURE VOLUME PRESSAVG GPRESSAVG
ENERGY: 0 0.9524 8.9907 1.1232 0.0000 -17398.3203 1946.7558 0.0000 0.0000 2923.1218 -12517.3764 293.2287 -15440.4982 -12511.6198 293.2287 77.1369 77.1239 369460.6893 77.1369 77.1239
ENERGY: 1000 2.2482 6.8288 2.0456 0.0000 -17172.8693 1764.2751 0.0000 0.0000 2947.7500 -12449.7216 295.6993 -15397.4716 -12443.8699 299.5938 -46.0686 -46.8346 371017.5191 1.2962 1.3445
ENERGY: 2000 2.4099 7.5687 1.7948 0.0000 -17247.7638 1779.9435 0.0000 0.0000 2960.0679 -12495.9788 296.9349 -15456.0468 -12488.2035 299.8568 -24.7562 -24.9515 356330.0109 2.3947 2.3366
ENERGY: 3000 5.2026 8.3537 4.3499 0.0000 -17138.8961 1764.5257 0.0000 0.0000 2914.7183 -12441.7460 292.3857 -15356.4643 -12440.6429 297.3883 -12.8429 -12.8191 333155.6911 0.3816 0.4022
ENERGY: 4000 0.6964 8.6798 3.1323 0.0000 -17229.4802 1780.6667 0.0000 0.0000 2996.4264 -12439.8786 300.5822 -15436.3050 -12435.1596 300.0340 -44.3644 -42.7442 319792.1124 -1.2334 -1.2657
ENERGY: 5000 2.8879 11.7323 4.0047 0.0000 -17192.7948 1768.5795 0.0000 0.0000 2999.5066 -12406.0837 300.8911 -15405.5903 -12400.3403 299.6091 -55.9862 -55.6462 312137.5742 2.5639 2.6266
TCL: Running FEP window  11: Lambda1 0.625  Lambda2 0.6875 [dLambda 0.0625]
TCL: Setting parameter firsttimestep to 0
TCL: Setting parameter alchLambda to 0.625
Info: NONBONDED TABLE R-SQUARED SPACING: 0.0625
Info: NONBONDED TABLE SIZE: 769 POINTS
TCL: Setting parameter alchLambda2 to 0.6875
Info: NONBONDED TABLE R-SQUARED SPACING: 0.0625
Info: NONBONDED TABLE SIZE: 769 POINTS
TCL: Running for 5000 steps
ETITLE: TS BOND ANGLE DIHED IMPRP ELECT VDW BOUNDARY MISC KINETIC TOTAL TEMP POTENTIAL TOTAL3 TEMPAVG PRESSURE GPRESSURE VOLUME PRESSAVG GPRESSAVG
ENERGY: 0 2.8879 11.7323 4.0047 0.0000 -17194.4536 1768.5191 0.0000 0.0000 2999.4148 -12407.8946 300.8819 -15407.3095 -12401.9114 300.8819 -55.8367 -55.7024 312137.5742 -55.8367 -55.7024
ENERGY: 1000 0.5317 11.8542 1.9583 0.0000 -17179.4069 1765.2919 0.0000 0.0000 3021.4523 -12378.3185 303.0926 -15399.7708 -12372.5815 302.0195 -34.1937 -35.0842 304014.6166 4.2624 4.2532
ENERGY: 2000 3.1334 9.6058 1.6189 0.0000 -17305.5008 1904.3357 0.0000 0.0000 2996.3062 -12390.5007 300.5701 -15386.8069 -12386.4123 299.3913 91.5175 90.8246 300019.3601 1.6120 1.6109
ENERGY: 3000 1.0870 18.2306 3.1661 0.0000 -17317.7637 1864.0810 0.0000 0.0000 2992.6343 -12438.5647 300.2017 -15431.1990 -12434.4389 299.0608 41.8897 42.3304 286678.8657 1.7493 1.7808
ENERGY: 4000 0.7467 8.2274 1.6829 0.0000 -17322.1663 1838.2920 0.0000 0.0000 2870.2982 -12602.9190 287.9298 -15473.2173 -12598.6338 295.1232 -4.6166 -3.8147 285768.0308 -0.7142 -0.7430
ENERGY: 5000 0.6394 12.8125 3.9145 0.0000 -17286.5964 1753.3636 0.0000 0.0000 3008.0880 -12507.7785 301.7520 -15515.8664 -12502.8471 295.5932 -44.9708 -45.1796 265335.9505 3.6091 3.7128
TCL: Running FEP window  12: Lambda1 0.6875 Lambda2 0.75   [dLambda 0.0625]
TCL: Setting parameter firsttimestep to 0
TCL: Setting parameter alchLambda to 0.6875
Info: NONBONDED TABLE R-SQUARED SPACING: 0.0625
Info: NONBONDED TABLE SIZE: 769 POINTS
TCL: Setting parameter alchLambda2 to 0.75
Info: NONBONDED TABLE R-SQUARED SPACING: 0.0625
Info: NONBONDED TABLE SIZE: 769 POINTS
TCL: Running for 5000 steps
ETITLE: TS BOND ANGLE DIHED IMPRP ELECT VDW BOUNDARY MISC KINETIC TOTAL TEMP POTENTIAL TOTAL3 TEMPAVG PRESSURE GPRESSURE VOLUME PRESSAVG GPRESSAVG
ENERGY: 0 0.6394 12.8125 3.9145 0.0000 -17288.4492 1754.0027 0.0000 0.0000 3007.9967 -12509.0833 301.7428 -15517.0801 -12503.1857 301.7428 -44.3088 -44.1363 265335.9505 -44.3088 -44.1363
ENERGY: 1000 1.6255 9.7099 1.3972 0.0000 -17226.8706 1814.4454 0.0000 0.0000 2935.4592 -12464.2334 294.4663 -15399.6926 -12459.7929 296.2059 -4.5296 -5.3415 263813.6819 0.7271 0.7582
ENERGY: 2000 2.2114 7.4128 3.0954 0.0000 -17339.4237 1873.3968 0.0000 0.0000 2896.3508 -12556.9565 290.5432 -15453.3074 -12552.4382 294.3287 32.6162 33.8520 252327.0821 -3.6369 -3.6706
ENERGY: 3000 1.5439 7.1011 2.1468 0.0000 -17358.6041 1831.1367 0.0000 0.0000 2988.2081 -12528.4676 299.7577 -15516.6757 -12521.8686 296.2960 28.7840 28.7908 237871.9164 5.2594 5.2636
ENERGY: 4000 1.3264 10.8064 3.3715 0.0000 -17320.3381 1786.5017 0.0000 0.0000 2957.9760 -12560.3560 296.7251 -15518.3321 -12554.5074 294.1149 -68.7985 -66.4279 234275.6042 -1.8258 -1.8307
ENERGY: 5000 1.3308 6.8213 4.1799 0.0000 -17164.9453 1825.6015 0.0000 0.0000 2911.2463 -12415.7655 292.0374 -15327.0118 -12409.3723 300.9257 49.1015 51.5364 227235.9271 1.6598 1.6410
TCL: Running FEP window  13: Lambda1 0.75   Lambda2 0.8125 [dLambda 0.0625]
TCL: Setting parameter firsttimestep to 0
TCL: Setting parameter alchLambda to 0.75
Info: NONBONDED TABLE R-SQUARED SPACING: 0.0625
Info: NONBONDED TABLE SIZE: 769 POINTS
TCL: Setting parameter alchLambda2 to 0.8125
Info: NONBONDED TABLE R-SQUARED SPACING: 0.0625
Info: NONBONDED TABLE SIZE: 769 POINTS
TCL: Running for 5000 steps
ETITLE: TS BOND ANGLE DIHED IMPRP ELECT VDW BOUNDARY MISC KINETIC TOTAL TEMP POTENTIAL TOTAL3 TEMPAVG PRESSURE GPRESSURE VOLUME PRESSAVG GPRESSAVG
ENERGY: 0 1.3308 6.8213 4.1799 0.0000 -17166.7904 1825.5405 0.0000 0.0000 2911.1576 -12417.7603 292.0285 -15328.9179 -12412.5234 292.0285 51.9248 52.4233 227235.9271 51.9248 52.4233
ENERGY: 1000 3.4422 10.5644 2.3832 0.0000 -17326.3621 1865.7050 0.0000 0.0000 2973.4873 -12470.7801 298.2810 -15444.2674 -12462.7204 299.6002 100.9499 97.5181 216664.1595 2.0426 1.9990
ENERGY: 2000 3.3744 10.7410 2.9579 0.0000 -17258.0194 1797.6759 0.0000 0.0000 2940.6327 -12502.6375 294.9853 -15443.2702 -12497.6913 296.5661 -6.4802 -5.5188 214293.3477 0.1928 0.2232
ENERGY: 3000 1.3855 15.1716 2.3073 0.0000 -17208.6093 1790.1088 0.0000 0.0000 2878.2990 -12521.3371 288.7324 -15399.6361 -12513.8467 294.0999 -37.6161 -38.4661 206981.4568 -0.4384 -0.4762
ENERGY: 4000 2.5352 8.1027 1.8800 0.0000 -17319.1532 1834.4651 0.0000 0.0000 2986.5248 -12485.6453 299.5889 -15472.1701 -12480.3614 297.1283 14.0661 12.8505 198764.4482 0.1468 0.1413
ENERGY: 5000 3.5427 10.6433 1.9396 0.0000 -17317.9538 1775.4986 0.0000 0.0000 3009.0858 -12517.2438 301.8521 -15526.3296 -12510.6624 298.9282 -107.6974 -108.4371 209973.8115 5.0541 4.9918
TCL: Running FEP window  14: Lambda1 0.8125 Lambda2 0.875  [dLambda 0.0625]
TCL: Setting parameter firsttimestep to 0
TCL: Setting parameter alchLambda to 0.8125
Info: NONBONDED TABLE R-SQUARED SPACING: 0.0625
Info: NONBONDED TABLE SIZE: 769 POINTS
TCL: Setting parameter alchLambda2 to 0.875
Info: NONBONDED TABLE R-SQUARED SPACING: 0.0625
Info: NONBONDED TABLE SIZE: 769 POINTS
TCL: Running for 5000 steps
ETITLE: TS BOND ANGLE DIHED IMPRP ELECT VDW BOUNDARY MISC KINETIC TOTAL TEMP POTENTIAL TOTAL3 TEMPAVG PRESSURE GPRESSURE VOLUME PRESSAVG GPRESSAVG
ENERGY: 0 3.5427 10.6433 1.9396 0.0000 -17319.9163 1775.6135 0.0000 0.0000 3008.9965 -12519.1807 301.8431 -15528.1772 -12513.2934 301.8431 -108.0037 -107.6362 209973.8115 -108.0037 -107.6362
ENERGY: 1000 2.5513 7.8425 0.9069 0.0000 -17258.9192 1823.8226 0.0000 0.0000 3000.1695 -12423.6264 300.9576 -15423.7959 -12417.3822 300.8238 2.0493 0.1622 204746.5579 1.5706 1.6183
ENERGY: 2000 0.5009 10.1671 0.4244 0.0000 -17254.1706 1871.7943 0.0000 0.0000 3044.6385 -12326.6453 305.4185 -15371.2838 -12321.7247 301.4257 125.9093 124.9261 200308.4833 -6.1464 -6.0981
ENERGY: 3000 1.9902 16.6171 1.3110 0.0000 -17227.6101 1825.0107 0.0000 0.0000 3031.3273 -12351.3537 304.0832 -15382.6811 -12344.8468 299.0925 77.1413 75.2575 197952.9508 0.6333 0.6501
ENERGY: 4000 0.9621 11.7265 2.4428 0.0000 -17228.0076 1808.7641 0.0000 0.0000 2941.8158 -12462.2965 295.1040 -15404.1122 -12455.9305 298.4222 9.1416 8.9797 196989.3643 2.7109 2.7523
ENERGY: 5000 0.9175 12.0655 3.3840 0.0000 -17199.4513 1713.7115 0.0000 0.0000 3009.6122 -12459.7606 301.9049 -15469.3727 -12449.7664 299.1618 -206.6272 -208.8263 200101.1547 4.6896 4.6057
TCL: Running FEP window  15: Lambda1 0.875  Lambda2 0.9375 [dLambda 0.0625]
TCL: Setting parameter firsttimestep to 0
TCL: Setting parameter alchLambda to 0.875
Info: NONBONDED TABLE R-SQUARED SPACING: 0.0625
Info: NONBONDED TABLE SIZE: 769 POINTS
TCL: Setting parameter alchLambda2 to 0.9375
Info: NONBONDED TABLE R-SQUARED SPACING: 0.0625
Info: NONBONDED TABLE SIZE: 769 POINTS
TCL: Running for 5000 steps
ETITLE: TS BOND ANGLE DIHED IMPRP ELECT VDW BOUNDARY MISC KINETIC TOTAL TEMP POTENTIAL TOTAL3 TEMPAVG PRESSURE GPRESSURE VOLUME PRESSAVG GPRESSAVG
ENERGY: 0 0.9175 12.0655 3.3840 0.0000 -17201.1688 1714.1101 0.0000 0.0000 3009.5216 -12461.1701 301.8958 -15470.6917 -12454.3955 301.8958 -207.4498 -206.9263 200101.1547 -207.4498 -206.9263
ENERGY: 1000 1.5191 7.8444 1.0693 0.0000 -17320.3754 1815.3116 0.0000 0.0000 2967.8971 -12526.7339 297.7203 -15494.6310 -12520.4159 294.8990 -21.8598 -22.5937 193702.5468 -0.9260 -0.9447
ENERGY: 2000 3.0444 13.4690 2.7214 0.0000 -17187.9736 1728.5398 0.0000 0.0000 2965.0185 -12475.1805 297.4315 -15440.1990 -12468.9883 295.4672 -87.8830 -88.6448 190621.4864 4.7415 4.7471
ENERGY: 3000 0.9011 9.9327 2.9555 0.0000 -17300.5346 1854.3055 0.0000 0.0000 2950.1560 -12482.2838 295.9406 -15432.4398 -12477.3962 296.5707 36.0111 36.6847 193197.2779 3.0878 3.1233
ENERGY: 4000 1.0032 11.5690 1.8864 0.0000 -17520.5715 2008.2140 0.0000 0.0000 2994.1729 -12503.7260 300.3561 -15497.8989 -12497.0822 297.9019 205.8937 205.8671 196402.2133 -2.3402 -2.3025
ENERGY: 5000 1.0814 8.5765 4.2212 0.0000 -17247.5159 1805.4962 0.0000 0.0000 2981.9471 -12446.1934 299.1297 -15428.1405 -12439.2546 298.6116 -75.1997 -74.3866 198831.2685 4.0180 4.0868
TCL: Running FEP window  16: Lambda1 0.9375 Lambda2 1.0    [dLambda 0.0625]
TCL: Setting parameter firsttimestep to 0
TCL: Setting parameter alchLambda to 0.9375
Info: NONBONDED TABLE R-SQUARED SPACING: 0.0625
Info: NONBONDED TABLE SIZE: 769 POINTS
TCL: Setting parameter alchLambda2 to 1.0
Info: NONBONDED TABLE R-SQUARED SPACING: 0.0625
Info: NONBONDED TABLE SIZE: 769 POINTS
TCL: Running for 5000 steps
ETITLE: TS BOND ANGLE DIHED IMPRP ELECT VDW BOUNDARY MISC KINETIC TOTAL TEMP POTENTIAL TOTAL3 TEMPAVG PRESSURE GPRESSURE VOLUME PRESSAVG GPRESSAVG
ENERGY: 0 1.0814 8.5765 4.2212 0.0000 -17249.3030 1805.6966 0.0000 0.0000 2981.8577 -12447.8696 299.1207 -15429.7273 -12441.9017 299.1207 -73.3531 -73.1999 198831.2685 -73.3531 -73.1999
ENERGY: 1000 2.4950 8.9371 1.7524 0.0000 -17203.9698 1792.9535 0.0000 0.0000 2945.8973 -12451.9345 295.5134 -15397.8319 -12444.6110 298.4932 -60.4751 -59.7223 204101.8501 0.6956 0.7121
ENERGY: 2000 2.4271 9.3019 0.4676 0.0000 -17177.3333 1776.8515 0.0000 0.0000 2937.9127 -12450.3725 294.7124 -15388.2852 -12443.6083 298.9744 -53.4817 -51.6265 206933.6794 5.0751 5.1948
ENERGY: 3000 0.5320 10.2983 1.0380 0.0000 -17241.1890 1794.8679 0.0000 0.0000 2936.7170 -12497.7358 294.5925 -15434.4528 -12493.1246 298.5605 -77.8236 -77.3953 206298.2082 4.1025 4.1304
ENERGY: 4000 0.6101 10.4423 2.1815 0.0000 -17205.2076 1796.6731 0.0000 0.0000 3006.3846 -12388.9159 301.5811 -15395.3005 -12383.5106 298.5834 -40.2375 -38.2267 205283.9641 2.9789 2.9287
ENERGY: 5000 2.7643 9.8377 4.6074 0.0000 -17182.2029 1758.4903 0.0000 0.0000 3000.9499 -12405.5532 301.0359 -15406.5031 -12400.7207 302.8915 -57.5263 -57.2802 213113.2250 -3.0312 -3.0735
