Info: SIMULATION PARAMETERS:
Info: TIMESTEP               2
Info: NUMBER OF STEPS        0
Info: STEPS PER CYCLE        10
Info: PERIODIC CELL BASIS 1  44.537 0 0
Info: PERIODIC CELL BASIS 2  0 43.772 0
Info: PERIODIC CELL BASIS 3  0 0 43.557
Info: PERIODIC CELL CENTER   0 0 0
Info: WRAPPING WATERS AROUND PERIODIC BOUNDARIES ON OUTPUT.
Info: WRAPPING ALL CLUSTERS AROUND PERIODIC BOUNDARIES ON OUTPUT.
Info: FIRST LDB TIMESTEP     50
Info: LAST LDB TIMESTEP     -1
Info: HOM BACKGROUND SCALING 1
Info: PME BACKGROUND SCALING 1
Info: MIN ATOMS PER PATCH    40
Info: EMPTY PATCH LOAD       40 ATOMS
Info: INITIAL TEMPERATURE    300
Info: CENTER OF MASS MOVING INITIALLY? NO
Info: DIELECTRIC             1
Info: EXCLUDE                SCALED ONE-FOUR
Info: 1-4 ELECTROSTATICS SCALED BY 0.833333
Info: MODIFIED 1-4 VDW PARAMETERS WILL BE USED
Info: DCD FILENAME           mobley_2316618_min.dcd
Info: DCD FREQUENCY          5000
Info: DCD FIRST STEP         5000
Info: DCD FILE WILL CONTAIN UNIT CELL DATA
Info: XST FILENAME           mobley_2316618_min.xst
Info: XST FREQUENCY          5000
Info: NO VELOCITY DCD OUTPUT
Info: NO FORCE DCD OUTPUT
Info: OUTPUT FILENAME        mobley_2316618_min
Info: BINARY OUTPUT FILES WILL BE USED
Info: RESTART FILENAME       mobley_2316618_min.restart
Info: RESTART FREQUENCY      5000
Info: BINARY RESTART FILES WILL BE USED
Info: CUTOFF                 9
Info: PAIRLIST DISTANCE      11
Info: PAIRLIST SHRINK RATE   0.01
Info: PAIRLIST GROW RATE     0.01
Info: PAIRLIST TRIGGER       0.3
Info: PAIRLISTS PER CYCLE    2
Info: PAIRLISTS ENABLED
Info: MARGIN                 8
Info: HYDROGEN GROUP CUTOFF  2.5
Info: PATCH DIMENSION        21.5
Info: ENERGY OUTPUT STEPS    5000
Info: ENERGY EVALUATION STEPS    5000
Info: OUTPUT ENERGY PRECISION 4
Info: CROSSTERM ENERGY INCLUDED IN DIHEDRAL
Info: TIMING OUTPUT STEPS    50000
Info: PRESSURE OUTPUT STEPS  5000
Info: LANGEVIN DYNAMICS ACTIVE
Info: LANGEVIN TEMPERATURE   300
Info: LANGEVIN USING BBK INTEGRATOR
Info: LANGEVIN DAMPING COEFFICIENT IS 1 INVERSE PS
Info: LANGEVIN DYNAMICS APPLIED TO HYDROGENS
Info: LANGEVIN PISTON PRESSURE CONTROL ACTIVE
Info:        TARGET PRESSURE IS 1.01325 BAR
Info:     OSCILLATION PERIOD IS 50 FS
Info:             DECAY TIME IS 25 FS
Info:     PISTON TEMPERATURE IS 300 K
Info:       PRESSURE CONTROL IS GROUP-BASED
Info:    INITIAL STRAIN RATE IS 0 0 0
Info:       CELL FLUCTUATION IS ISOTROPIC
Info: PARTICLE MESH EWALD (PME) ACTIVE
Info: PME TOLERANCE               1e-06
Info: PME EWALD COEFFICIENT       0.348832
Info: PME INTERPOLATION ORDER     4
Info: PME GRID DIMENSIONS         48 44 44
Info: PME MAXIMUM GRID SPACING    1
Info: FULL ELECTROSTATIC EVALUATION FREQUENCY      2
Info: USING VERLET I (r-RESPA) MTS SCHEME.
Info: C1 SPLITTING OF LONG RANGE ELECTROSTATICS
Info: PLACING ATOMS IN PATCHES BY HYDROGEN GROUPS
Info: RIGID BONDS TO HYDROGEN : ALL
Info:         ERROR TOLERANCE : 1e-08
Info:          MAX ITERATIONS : 100
Info: RIGID WATER USING SETTLE ALGORITHM
Info: RANDOM NUMBER SEED     1741319191
Info: USE HYDROGEN BONDS?    NO
Info: Using AMBER format force field!
Info: AMBER PARM FILE        mobley_2316618.prmtop
Info: COORDINATE PDB         mobley_2316618.pdb
Info: Exclusions will be read from PARM file!
Info: SCNB (VDW SCALING)     2
Info: USING ARITHMETIC MEAN TO COMBINE L-J SIGMA PARAMETERS
Info: SUMMARY OF PARAMETERS:
Info: 13 BONDS
Info: 16 ANGLES
Info:   16 HARMONIC
Info:   0 COSINE-BASED
Info: 14 DIHEDRAL
Info: 0 IMPROPER
Info: 0 CROSSTERM
Info: 0 VDW
Info: 66 VDW_PAIRS
Info: 0 NBTHOLE_PAIRS
Info: STRUCTURE SUMMARY:
Info: 6228 ATOMS
Info: 6230 BONDS
Info: 58 ANGLES
Info: 97 DIHEDRALS
Info: 0 IMPROPERS
Info: 0 CROSSTERMS
Info: 6365 EXCLUSIONS
Info: 6208 RIGID BONDS
Info: 12476 DEGREES OF FREEDOM
Info: 2085 HYDROGEN GROUPS
Info: 3 ATOMS IN LARGEST HYDROGEN GROUP
Info: 2085 MIGRATION GROUPS
Info: 3 ATOMS IN LARGEST MIGRATION GROUP
Info: TOTAL MASS = 37470.3 amu
Info: TOTAL CHARGE = -0.000299998 e
Info: MASS DENSITY = 0.732776 g/cm^3
Info: ATOM DENSITY = 0.0733455 atoms/A^3
Info: ADDED 0 IMPLICIT EXCLUSIONS
Info: NONBONDED TABLE R-SQUARED SPACING: 0.0625
Info: NONBONDED TABLE SIZE: 705 POINTS
Info: REMOVING COM VELOCITY -0.0454274 -0.0671841 0.0604857
TCL: Minimizing for 2000 steps
ETITLE: TS BOND ANGLE DIHED IMPRP ELECT VDW BOUNDARY MISC KINETIC TOTAL TEMP POTENTIAL TOTAL3 TEMPAVG PRESSURE GPRESSURE VOLUME PRESSAVG GPRESSAVG
ENERGY: 0 0.5683 2.3040 0.7235 0.0000 -19348.0182 2202.6782 0.0000 0.0000 0.0000 -17141.7442 0.0000 -17141.7442 -17141.7442 0.0000 11434.8362 -15924.0022 84913.2200 11434.8362 -15924.0022
ENERGY: 400 3.2316 4.9474 2.6266 0.0000 -25831.2105 3715.1479 0.0000 0.0000 0.0000 -22105.2570 0.0000 -22105.2570 -22105.2570 0.0000 15774.3684 15928.2468 84913.2200 15774.3684 15928.2468
ENERGY: 800 3.1118 1.9671 2.8697 0.0000 -27297.2968 4391.3098 0.0000 0.0000 0.0000 -22898.0385 0.0000 -22898.0385 -22898.0385 0.0000 18227.8128 18365.3784 84913.2200 18227.8128 18365.3784
ENERGY: 1200 2.6666 2.2752 2.8638 0.0000 -27857.1995 4608.8939 0.0000 0.0000 0.0000 -23240.4999 0.0000 -23240.4999 -23240.4999 0.0000 19146.2132 19264.1854 84913.2200 19146.2132 19264.1854
ENERGY: 1600 1.6851 1.5896 2.5825 0.0000 -28150.2322 4722.3805 0.0000 0.0000 0.0000 -23421.9945 0.0000 -23421.9945 -23421.9945 0.0000 19589.7224 19709.8653 84913.2200 19589.7224 19709.8653
ENERGY: 2000 1.6399 1.5286 2.5352 0.0000 -28341.9487 4816.7487 0.0000 0.0000 0.0000 -23519.4964 0.0000 -23519.4964 -23519.4964 0.0000 19958.3564 20078.1083 84913.2200 19958.3564 20078.1083
TCL: Exiting due to exit command.
Info: NAMD 3.0.1 for Linux-x86_64-multicore
Info: Please visit http://www.ks.uiuc.edu/Research/namd/
Info: for updates, documentation, and support information.
Info: Please cite Phillips et al., J. Chem. Phys. 153:044130 (2020) doi:10.1063/5.0014475
Info: in all publications reporting results obtained with NAMD.
Info: Based on Charm++/Converse 80000 for multicore-linux-x86_64-gcc
Info: Built Mon Oct 14 11:11:06 CDT 2024 by dhardy on athine.ks.uiuc.edu
Info: 1 NAMD  3.0.1  Linux-x86_64-multicore  16    k006  z5358697
Info: Running on 16 processors, 1 nodes, 1 physical nodes.
Info: CPU topology information available.
Info: Charm++/Converse parallel runtime startup completed at 0.0096692 s
Info: 1043.45 MB of memory in use based on /proc/self/stat
Info: Configuration file is mobley_2316618_equil.namd
Info: Working in the current directory /srv/scratch/z5358697/prod_prep_2/2316618
TCL: Running 25000 steps at 30 kelvin.
TCL: Suspending until startup complete.
Info: SIMULATION PARAMETERS:
Info: TIMESTEP               2
Info: NUMBER OF STEPS        0
Info: STEPS PER CYCLE        10
Info: PERIODIC CELL BASIS 1  44.537 0 0
Info: PERIODIC CELL BASIS 2  0 43.772 0
Info: PERIODIC CELL BASIS 3  0 0 43.557
Info: PERIODIC CELL CENTER   0 0 0
Info: WRAPPING WATERS AROUND PERIODIC BOUNDARIES ON OUTPUT.
Info: WRAPPING ALL CLUSTERS AROUND PERIODIC BOUNDARIES ON OUTPUT.
Info: FIRST LDB TIMESTEP     50
Info: LAST LDB TIMESTEP     -1
Info: HOM BACKGROUND SCALING 1
Info: PME BACKGROUND SCALING 1
Info: MIN ATOMS PER PATCH    40
Info: EMPTY PATCH LOAD       40 ATOMS
Info: INITIAL TEMPERATURE    300
Info: CENTER OF MASS MOVING INITIALLY? NO
Info: DIELECTRIC             1
Info: EXCLUDE                SCALED ONE-FOUR
Info: 1-4 ELECTROSTATICS SCALED BY 0.833333
Info: MODIFIED 1-4 VDW PARAMETERS WILL BE USED
Info: DCD FILENAME           mobley_2316618_equil.dcd
Info: DCD FREQUENCY          5000
Info: DCD FIRST STEP         5000
Info: DCD FILE WILL CONTAIN UNIT CELL DATA
Info: XST FILENAME           mobley_2316618_equil.xst
Info: XST FREQUENCY          5000
Info: NO VELOCITY DCD OUTPUT
Info: NO FORCE DCD OUTPUT
Info: OUTPUT FILENAME        mobley_2316618_equil
Info: BINARY OUTPUT FILES WILL BE USED
Info: RESTART FILENAME       mobley_2316618_equil.restart
Info: RESTART FREQUENCY      5000
Info: BINARY RESTART FILES WILL BE USED
Info: CUTOFF                 9
Info: PAIRLIST DISTANCE      11
Info: PAIRLIST SHRINK RATE   0.01
Info: PAIRLIST GROW RATE     0.01
Info: PAIRLIST TRIGGER       0.3
Info: PAIRLISTS PER CYCLE    2
Info: PAIRLISTS ENABLED
Info: MARGIN                 8
Info: HYDROGEN GROUP CUTOFF  2.5
Info: PATCH DIMENSION        21.5
Info: ENERGY OUTPUT STEPS    5000
Info: ENERGY EVALUATION STEPS    5000
Info: OUTPUT ENERGY PRECISION 4
Info: CROSSTERM ENERGY INCLUDED IN DIHEDRAL
Info: TIMING OUTPUT STEPS    50000
Info: PRESSURE OUTPUT STEPS  5000
Info: LANGEVIN DYNAMICS ACTIVE
Info: LANGEVIN TEMPERATURE   30
Info: LANGEVIN USING BBK INTEGRATOR
Info: LANGEVIN DAMPING COEFFICIENT IS 1 INVERSE PS
Info: LANGEVIN DYNAMICS APPLIED TO HYDROGENS
Info: LANGEVIN PISTON PRESSURE CONTROL ACTIVE
Info:        TARGET PRESSURE IS 1.01325 BAR
Info:     OSCILLATION PERIOD IS 50 FS
Info:             DECAY TIME IS 25 FS
Info:     PISTON TEMPERATURE IS 300 K
Info:       PRESSURE CONTROL IS GROUP-BASED
Info:    INITIAL STRAIN RATE IS 0 0 0
Info:       CELL FLUCTUATION IS ISOTROPIC
Info: PARTICLE MESH EWALD (PME) ACTIVE
Info: PME TOLERANCE               1e-06
Info: PME EWALD COEFFICIENT       0.348832
Info: PME INTERPOLATION ORDER     4
Info: PME GRID DIMENSIONS         48 44 44
Info: PME MAXIMUM GRID SPACING    1
Info: FULL ELECTROSTATIC EVALUATION FREQUENCY      2
Info: USING VERLET I (r-RESPA) MTS SCHEME.
Info: C1 SPLITTING OF LONG RANGE ELECTROSTATICS
Info: PLACING ATOMS IN PATCHES BY HYDROGEN GROUPS
Info: RIGID BONDS TO HYDROGEN : ALL
Info:         ERROR TOLERANCE : 1e-08
Info:          MAX ITERATIONS : 100
Info: RIGID WATER USING SETTLE ALGORITHM
Info: RANDOM NUMBER SEED     1741319215
Info: USE HYDROGEN BONDS?    NO
Info: Using AMBER format force field!
Info: AMBER PARM FILE        mobley_2316618.prmtop
Info: COORDINATE PDB         mobley_2316618.pdb
Info: Exclusions will be read from PARM file!
Info: SCNB (VDW SCALING)     2
Info: USING ARITHMETIC MEAN TO COMBINE L-J SIGMA PARAMETERS
Info: BINARY COORDINATES     mobley_2316618_min.coor
Info: SUMMARY OF PARAMETERS:
Info: 13 BONDS
Info: 16 ANGLES
Info:   16 HARMONIC
Info:   0 COSINE-BASED
Info: 14 DIHEDRAL
Info: 0 IMPROPER
Info: 0 CROSSTERM
Info: 0 VDW
Info: 66 VDW_PAIRS
Info: 0 NBTHOLE_PAIRS
Info: STRUCTURE SUMMARY:
Info: 6228 ATOMS
Info: 6230 BONDS
Info: 58 ANGLES
Info: 97 DIHEDRALS
Info: 0 IMPROPERS
Info: 0 CROSSTERMS
Info: 6365 EXCLUSIONS
Info: 6208 RIGID BONDS
Info: 12476 DEGREES OF FREEDOM
Info: 2085 HYDROGEN GROUPS
Info: 3 ATOMS IN LARGEST HYDROGEN GROUP
Info: 2085 MIGRATION GROUPS
Info: 3 ATOMS IN LARGEST MIGRATION GROUP
Info: TOTAL MASS = 37470.3 amu
Info: TOTAL CHARGE = -0.000299998 e
Info: MASS DENSITY = 0.732776 g/cm^3
Info: ATOM DENSITY = 0.0733455 atoms/A^3
Info: ADDED 0 IMPLICIT EXCLUSIONS
Info: NONBONDED TABLE R-SQUARED SPACING: 0.0625
Info: NONBONDED TABLE SIZE: 705 POINTS
Info: REMOVING COM VELOCITY -0.0169177 0.0624265 -0.146959
TCL: Running for 25000 steps
ETITLE: TS BOND ANGLE DIHED IMPRP ELECT VDW BOUNDARY MISC KINETIC TOTAL TEMP POTENTIAL TOTAL3 TEMPAVG PRESSURE GPRESSURE VOLUME PRESSAVG GPRESSAVG
ENERGY: 0 1.6399 1.5286 2.5352 0.0000 -28341.9487 4816.7487 0.0000 0.0000 3633.2796 -19886.2167 293.0987 -23519.4964 -19885.4870 293.0987 17.3527 54.2717 84913.2200 17.3527 54.2717
ENERGY: 5000 2.0608 2.8139 3.4096 0.0000 -29649.4650 5009.8355 0.0000 0.0000 388.5865 -24242.7587 31.3475 -24631.3452 -24241.6055 47.2170 -487.9418 -453.3647 60463.9473 6.6024 6.5511
ENERGY: 10000 2.5734 3.0994 4.0716 0.0000 -29636.6540 4937.5925 0.0000 0.0000 378.1567 -24311.1604 30.5061 -24689.3171 -24310.2593 30.2721 -945.9069 -905.1079 60631.1234 1.0001 0.8528
ENERGY: 15000 1.4393 3.1510 3.5508 0.0000 -30090.8704 5357.6110 0.0000 0.0000 370.0522 -24355.0661 29.8523 -24725.1183 -24354.0157 30.1609 757.9851 818.6493 60007.1738 2.5757 2.5389
ENERGY: 20000 1.5077 2.8805 3.0275 0.0000 -30012.2382 5270.5134 0.0000 0.0000 373.1011 -24361.2079 30.0983 -24734.3090 -24360.4324 29.9453 379.6241 440.1979 60026.2248 2.9907 2.8281
ENERGY: 25000 1.9274 2.4693 3.5902 0.0000 -29810.2351 5051.3540 0.0000 0.0000 373.7226 -24377.1717 30.1484 -24750.8943 -24376.2148 30.1173 -577.5149 -529.9911 60467.0810 4.4545 4.4570
TCL: Running 25000 steps at 60 kelvin.
TCL: Setting parameter langevinTemp to 60
TCL: Running for 25000 steps
ETITLE: TS BOND ANGLE DIHED IMPRP ELECT VDW BOUNDARY MISC KINETIC TOTAL TEMP POTENTIAL TOTAL3 TEMPAVG PRESSURE GPRESSURE VOLUME PRESSAVG GPRESSAVG
ENERGY: 25000 1.9274 2.4693 3.5902 0.0000 -29810.2351 5051.3540 0.0000 0.0000 373.5370 -24377.3573 30.1334 -24750.8943 -24376.4439 30.1334 -580.8131 -529.9680 60467.0810 -580.8131 -529.9680
ENERGY: 30000 4.0082 3.9374 3.6615 0.0000 -29133.0795 4684.5882 0.0000 0.0000 737.4484 -23699.4357 59.4904 -24436.8841 -23697.4465 57.1776 -1521.4526 -1461.6777 60932.6158 -0.1493 0.1584
ENERGY: 35000 2.7208 2.6860 4.7930 0.0000 -29695.3244 5188.1203 0.0000 0.0000 751.4603 -23745.5439 60.6207 -24497.0042 -23743.3474 60.4149 629.5953 691.4589 59673.8075 5.0931 5.0578
ENERGY: 40000 2.1677 3.2812 3.7530 0.0000 -29637.1879 5095.8965 0.0000 0.0000 727.7266 -23804.3629 58.7061 -24532.0895 -23802.9976 60.2057 61.1125 134.3128 60102.4881 2.2446 2.3736
ENERGY: 45000 2.1120 3.1421 2.5866 0.0000 -29704.0541 5108.4755 0.0000 0.0000 748.6502 -23839.0877 60.3940 -24587.7378 -23836.5919 59.7524 86.3850 129.6668 60019.3161 0.1918 0.1735
ENERGY: 50000 3.7810 3.6492 3.7065 0.0000 -29666.0056 5065.8492 0.0000 0.0000 736.8456 -23852.1741 59.4417 -24589.0197 -23849.7308 60.0845 -123.8656 -69.8343 60070.8207 6.4869 6.5032
TCL: Running 25000 steps at 90 kelvin.
TCL: Setting parameter langevinTemp to 90
TCL: Running for 25000 steps
ETITLE: TS BOND ANGLE DIHED IMPRP ELECT VDW BOUNDARY MISC KINETIC TOTAL TEMP POTENTIAL TOTAL3 TEMPAVG PRESSURE GPRESSURE VOLUME PRESSAVG GPRESSAVG
ENERGY: 50000 3.7810 3.6492 3.7065 0.0000 -29666.0056 5065.8492 0.0000 0.0000 736.4761 -23852.5435 59.4119 -24589.0197 -23851.1800 59.4119 -126.8627 -69.4167 60070.8207 -126.8627 -69.4167
ENERGY: 55000 2.3812 4.1309 4.6795 0.0000 -29080.2346 4867.9860 0.0000 0.0000 1103.8603 -23097.1967 89.0490 -24201.0570 -23094.7424 86.9375 -144.5696 -103.8964 60188.9337 4.8118 4.8087
ENERGY: 60000 4.6791 4.0242 4.5701 0.0000 -29061.2549 4801.9127 0.0000 0.0000 1113.8437 -23132.2251 89.8544 -24246.0688 -23128.6683 90.6303 -564.9339 -517.8915 60449.7083 1.6817 1.4513
ENERGY: 65000 4.4730 4.6119 4.2074 0.0000 -29228.7425 4909.5609 0.0000 0.0000 1117.3812 -23188.5081 90.1398 -24305.8893 -23186.3232 90.6191 -149.7947 -104.0677 59991.5897 5.0491 5.0214
ENERGY: 70000 1.5321 5.8436 4.0836 0.0000 -29354.1822 5018.0636 0.0000 0.0000 1147.9205 -23176.7388 92.6034 -24324.6592 -23173.4737 90.4223 331.0524 367.6534 59811.0725 -3.7618 -3.8766
ENERGY: 75000 2.6809 4.5247 5.4376 0.0000 -29352.9455 4985.1960 0.0000 0.0000 1127.4418 -23227.6645 90.9513 -24355.1063 -23224.8378 89.9250 13.2533 71.0207 60019.9615 2.3660 2.1575
TCL: Running 25000 steps at 120 kelvin.
TCL: Setting parameter langevinTemp to 120
TCL: Running for 25000 steps
ETITLE: TS BOND ANGLE DIHED IMPRP ELECT VDW BOUNDARY MISC KINETIC TOTAL TEMP POTENTIAL TOTAL3 TEMPAVG PRESSURE GPRESSURE VOLUME PRESSAVG GPRESSAVG
ENERGY: 75000 2.6809 4.5247 5.4376 0.0000 -29352.9455 4985.1960 0.0000 0.0000 1126.8902 -23228.2161 90.9068 -24355.1063 -23225.8104 90.9068 24.1836 71.2846 60019.9615 24.1836 71.2846
ENERGY: 80000 3.6717 5.3717 6.7778 0.0000 -28758.1316 4813.1782 0.0000 0.0000 1483.2189 -22445.9133 119.6521 -23929.1321 -22443.1633 117.1082 7.9489 68.6011 60400.7282 -1.7016 -1.2817
ENERGY: 85000 2.6012 5.1892 6.6211 0.0000 -28658.9941 4673.4493 0.0000 0.0000 1523.5683 -22447.5649 122.9071 -23971.1332 -22443.1881 120.6241 -456.3943 -435.3686 60346.5315 3.2534 3.0715
ENERGY: 90000 4.5352 6.3894 5.5051 0.0000 -28770.5032 4775.9317 0.0000 0.0000 1510.1812 -22467.9606 121.8272 -23978.1418 -22462.9370 120.0846 -196.9379 -111.7421 60219.2251 -1.2928 -1.2613
ENERGY: 95000 4.9530 6.1507 6.0892 0.0000 -28597.3100 4613.9177 0.0000 0.0000 1495.7395 -22470.4598 120.6621 -23966.1994 -22466.9742 120.3982 -927.8593 -847.5634 60810.9853 0.4910 0.3615
ENERGY: 100000 3.0728 7.1289 5.6166 0.0000 -28976.5107 4938.9396 0.0000 0.0000 1488.6011 -22533.1516 120.0863 -24021.7528 -22529.4692 120.1261 406.5323 446.9870 60138.4388 4.0714 3.9721
TCL: Running 25000 steps at 150 kelvin.
TCL: Setting parameter langevinTemp to 150
TCL: Running for 25000 steps
ETITLE: TS BOND ANGLE DIHED IMPRP ELECT VDW BOUNDARY MISC KINETIC TOTAL TEMP POTENTIAL TOTAL3 TEMPAVG PRESSURE GPRESSURE VOLUME PRESSAVG GPRESSAVG
ENERGY: 100000 3.0728 7.1289 5.6166 0.0000 -28976.5107 4938.9396 0.0000 0.0000 1487.8465 -22533.9062 120.0254 -24021.7528 -22530.7124 120.0254 392.4073 446.8206 60138.4388 392.4073 446.8206
ENERGY: 105000 5.0248 5.2804 6.1454 0.0000 -28202.7249 4621.1853 0.0000 0.0000 1879.6097 -21685.4792 151.6292 -23565.0889 -21680.5644 146.3041 -119.4788 -53.7523 60822.0405 8.3056 7.9506
ENERGY: 110000 9.0437 7.3062 6.3296 0.0000 -28032.5227 4522.1528 0.0000 0.0000 1821.9746 -21665.7158 146.9797 -23487.6904 -21661.8055 150.9361 -508.1093 -474.1226 60972.6732 2.8974 2.9081
ENERGY: 115000 5.2923 6.2393 7.3753 0.0000 -28320.8397 4762.2379 0.0000 0.0000 1853.7272 -21685.9675 149.5412 -23539.6948 -21680.0053 151.7913 372.6744 441.4350 60910.3231 2.3290 2.2992
ENERGY: 120000 6.0847 4.9739 7.4065 0.0000 -28265.6314 4668.5853 0.0000 0.0000 1880.5886 -21697.9923 151.7081 -23578.5809 -21693.2032 151.1945 -112.6538 -44.1013 60805.2755 1.1237 1.1134
ENERGY: 125000 8.6390 6.3213 8.3512 0.0000 -28173.9667 4506.1189 0.0000 0.0000 1852.9798 -21791.5566 149.4809 -23644.5363 -21785.1248 149.6585 -925.6016 -902.3244 61314.6324 3.5595 3.5180
TCL: Running 50000 steps at 180 kelvin.
TCL: Setting parameter langevinTemp to 180
TCL: Running for 50000 steps
ETITLE: TS BOND ANGLE DIHED IMPRP ELECT VDW BOUNDARY MISC KINETIC TOTAL TEMP POTENTIAL TOTAL3 TEMPAVG PRESSURE GPRESSURE VOLUME PRESSAVG GPRESSAVG
ENERGY: 125000 8.6390 6.3213 8.3512 0.0000 -28173.9667 4506.1189 0.0000 0.0000 1852.0713 -21792.4650 149.4076 -23644.5363 -21788.0064 149.4076 -968.2081 -902.2092 61314.6324 -968.2081 -902.2092
ENERGY: 135000 5.9817 7.4401 7.1188 0.0000 -27377.7912 4348.9361 0.0000 0.0000 2269.2844 -20739.0301 183.0644 -23008.3145 -20734.9146 180.3208 -441.4166 -412.8500 61506.3880 2.9712 2.9288
ENERGY: 145000 4.9260 9.6887 6.8860 0.0000 -27425.1457 4259.5824 0.0000 0.0000 2180.0603 -20964.0022 175.8667 -23144.0625 -20956.8261 179.4236 -931.0637 -840.8221 61342.5463 7.1905 7.0999
ENERGY: 155000 3.8112 7.9062 5.8811 0.0000 -27512.6921 4433.4999 0.0000 0.0000 2213.5779 -20848.0159 178.5705 -23061.5938 -20842.7312 181.2861 -134.1320 -83.8382 61460.8486 0.9426 0.5665
ENERGY: 165000 7.1525 6.4096 4.4748 0.0000 -27868.6685 4637.8811 0.0000 0.0000 2192.3439 -21020.4066 176.8576 -23212.7505 -21015.3402 179.5854 506.8903 567.0916 60937.8113 3.8244 3.6120
ENERGY: 175000 5.2631 10.7676 4.3462 0.0000 -27636.5282 4473.6288 0.0000 0.0000 2260.5593 -20881.9633 182.3606 -23142.5226 -20875.1536 180.2266 -66.2402 -3.2206 61037.2798 5.4224 5.6377
TCL: Running 50000 steps at 210 kelvin.
TCL: Setting parameter langevinTemp to 210
TCL: Running for 50000 steps
ETITLE: TS BOND ANGLE DIHED IMPRP ELECT VDW BOUNDARY MISC KINETIC TOTAL TEMP POTENTIAL TOTAL3 TEMPAVG PRESSURE GPRESSURE VOLUME PRESSAVG GPRESSAVG
ENERGY: 175000 5.2631 10.7676 4.3462 0.0000 -27636.5282 4473.6288 0.0000 0.0000 2259.4677 -20883.0549 182.2725 -23142.5226 -20878.8865 182.2725 -64.3712 -3.2779 61037.2798 -64.3712 -3.2779
ENERGY: 185000 4.9789 10.8547 7.7006 0.0000 -26328.6700 4052.1741 0.0000 0.0000 2596.3625 -19656.5991 209.4500 -22252.9616 -19650.4084 207.6128 -109.8930 -4.3170 60728.8273 4.6337 4.3812
ENERGY: 195000 5.3341 7.7415 5.6499 0.0000 -26134.9435 3929.4928 0.0000 0.0000 2634.2951 -19552.4301 212.5100 -22186.7252 -19543.4793 210.1999 -387.1161 -270.9318 60811.3672 3.5024 3.4292
ENERGY: 205000 4.4940 4.7540 7.5012 0.0000 -26194.1684 4016.6253 0.0000 0.0000 2611.9226 -19548.8713 210.7052 -22160.7939 -19541.8669 210.9451 -74.9723 -2.9064 60960.9116 7.5751 7.2740
ENERGY: 215000 5.8742 7.8999 4.7927 0.0000 -26219.0674 4077.9129 0.0000 0.0000 2606.3831 -19516.2045 210.2584 -22122.5877 -19510.6421 210.3739 403.6982 447.4183 60568.2117 -0.7531 -0.8758
ENERGY: 225000 3.9740 4.2349 8.2918 0.0000 -26168.7047 4017.0753 0.0000 0.0000 2582.9706 -19552.1582 208.3697 -22135.1288 -19545.9688 210.9683 11.2180 85.8828 61049.8447 0.3015 0.9221
TCL: Running 50000 steps at 240 kelvin.
TCL: Setting parameter langevinTemp to 240
TCL: Running for 50000 steps
ETITLE: TS BOND ANGLE DIHED IMPRP ELECT VDW BOUNDARY MISC KINETIC TOTAL TEMP POTENTIAL TOTAL3 TEMPAVG PRESSURE GPRESSURE VOLUME PRESSAVG GPRESSAVG
ENERGY: 225000 3.9740 4.2349 8.2918 0.0000 -26168.7047 4017.0753 0.0000 0.0000 2581.6819 -19553.4469 208.2657 -22135.1288 -19548.7015 208.2657 14.0747 86.1111 61049.8447 14.0747 86.1111
ENERGY: 235000 4.2044 9.0098 5.6443 0.0000 -24937.0175 3698.9665 0.0000 0.0000 3024.1585 -18195.0341 243.9605 -21219.1926 -18186.9753 239.9284 279.3296 363.6662 61341.3634 3.2943 3.1493
ENERGY: 245000 6.7885 8.6994 7.3124 0.0000 -24868.8934 3661.1114 0.0000 0.0000 2957.3230 -18227.6586 238.5689 -21184.9816 -18223.0131 240.3927 97.5602 183.3764 61680.4394 1.1736 1.7190
ENERGY: 255000 5.4927 11.6154 9.6926 0.0000 -24906.5298 3679.0219 0.0000 0.0000 2972.2070 -18228.5002 239.7696 -21200.7072 -18222.5311 240.9800 380.2499 470.3516 60755.2771 0.1522 0.3096
ENERGY: 265000 2.6782 12.6232 10.1161 0.0000 -24840.7411 3604.5646 0.0000 0.0000 2938.9965 -18271.7626 237.0905 -21210.7590 -18266.2916 240.2536 -113.7264 -10.5912 61699.8810 2.0934 2.0559
ENERGY: 275000 6.0754 11.1347 7.4327 0.0000 -24696.8843 3503.6385 0.0000 0.0000 3014.2508 -18154.3521 243.1613 -21168.6030 -18147.5410 241.6757 -485.4846 -342.9983 61511.3326 0.1651 0.2663
TCL: Running 50000 steps at 270 kelvin.
TCL: Setting parameter langevinTemp to 270
TCL: Running for 50000 steps
ETITLE: TS BOND ANGLE DIHED IMPRP ELECT VDW BOUNDARY MISC KINETIC TOTAL TEMP POTENTIAL TOTAL3 TEMPAVG PRESSURE GPRESSURE VOLUME PRESSAVG GPRESSAVG
ENERGY: 275000 6.0754 11.1347 7.4327 0.0000 -24696.8843 3503.6385 0.0000 0.0000 3012.7725 -18155.8305 243.0420 -21168.6030 -18150.8547 243.0420 -425.1059 -342.2380 61511.3326 -425.1059 -342.2380
ENERGY: 285000 6.2629 9.3379 8.9387 0.0000 -23712.6538 3256.7029 0.0000 0.0000 3321.1652 -17110.2462 267.9202 -20431.4114 -17104.0443 269.1924 -112.7548 -22.1649 61584.4476 6.3572 5.9224
ENERGY: 295000 6.6907 8.6294 7.6493 0.0000 -23580.0831 3206.6620 0.0000 0.0000 3368.1934 -16982.2584 271.7140 -20350.4517 -16972.5095 270.1395 -302.9797 -232.9402 62095.2867 3.3229 3.5442
ENERGY: 305000 6.0522 11.0770 8.1025 0.0000 -23538.3487 3197.7853 0.0000 0.0000 3286.1690 -17029.1627 265.0971 -20315.3318 -17022.2793 270.0391 -377.6118 -350.3210 63028.7165 3.8199 3.7471
ENERGY: 315000 2.8338 15.3354 9.3848 0.0000 -23730.9209 3319.2644 0.0000 0.0000 3302.7230 -17081.3795 266.4325 -20384.1025 -17073.9762 268.0443 -187.8357 -80.1126 63045.4685 -6.7518 -6.0458
ENERGY: 325000 12.0182 14.7798 5.5042 0.0000 -23799.9158 3356.6686 0.0000 0.0000 3392.9297 -17018.0153 273.7095 -20410.9451 -17009.9806 271.7232 5.3919 83.3599 62437.3980 -1.7251 -1.6054
TCL: Running 1000000 steps at 300 kelvin.
TCL: Setting parameter langevinTemp to 300
TCL: Running for 1000000 steps
ETITLE: TS BOND ANGLE DIHED IMPRP ELECT VDW BOUNDARY MISC KINETIC TOTAL TEMP POTENTIAL TOTAL3 TEMPAVG PRESSURE GPRESSURE VOLUME PRESSAVG GPRESSAVG
ENERGY: 325000 12.0182 14.7798 5.5042 0.0000 -23799.9158 3356.6686 0.0000 0.0000 3391.2989 -17019.6462 273.5779 -20410.9451 -17014.9311 273.5779 6.3764 84.6958 62437.3980 6.3764 84.6958
ENERGY: 525000 8.5837 7.2883 11.6813 0.0000 -22470.1462 3026.6125 0.0000 0.0000 3726.1512 -15689.8293 300.5907 -19415.9805 -15678.9871 300.8885 8.7482 72.2285 64333.3946 1.5206 1.1117
ENERGY: 725000 9.8490 11.4452 8.7697 0.0000 -22324.0565 2898.3145 0.0000 0.0000 3692.7254 -15702.9528 297.8942 -19395.6782 -15697.3040 300.6701 -411.2560 -386.1487 64443.8593 -3.4180 -2.9846
ENERGY: 925000 8.6873 11.3400 9.3450 0.0000 -22290.3344 2824.8532 0.0000 0.0000 3760.8151 -15675.2938 303.3870 -19436.1089 -15666.2218 299.5405 -975.8850 -875.3598 64939.1252 2.9402 3.5657
ENERGY: 1125000 4.1497 11.9115 9.1819 0.0000 -22513.6643 3018.9013 0.0000 0.0000 3692.2027 -15777.3172 297.8520 -19469.5199 -15769.0751 300.6276 -22.3940 77.3846 64211.0302 2.3430 2.7094
ENERGY: 1325000 8.8800 17.0835 11.2103 0.0000 -22440.8380 2914.6181 0.0000 0.0000 3771.2920 -15717.7541 304.2322 -19489.0461 -15708.3200 301.3217 -672.4848 -594.0959 65062.3879 3.8061 3.7393
TCL: Exiting due to exit command.
