Info: SIMULATION PARAMETERS:
Info: TIMESTEP               2
Info: NUMBER OF STEPS        0
Info: STEPS PER CYCLE        10
Info: PERIODIC CELL BASIS 1  40.176 0 0
Info: PERIODIC CELL BASIS 2  0 39.93 0
Info: PERIODIC CELL BASIS 3  0 0 39.527
Info: PERIODIC CELL CENTER   0 0 0
Info: WRAPPING WATERS AROUND PERIODIC BOUNDARIES ON OUTPUT.
Info: WRAPPING ALL CLUSTERS AROUND PERIODIC BOUNDARIES ON OUTPUT.
Info: FIRST LDB TIMESTEP     50
Info: LAST LDB TIMESTEP     -1
Info: HOM BACKGROUND SCALING 1
Info: PME BACKGROUND SCALING 1
Info: MIN ATOMS PER PATCH    40
Info: EMPTY PATCH LOAD       40 ATOMS
Info: INITIAL TEMPERATURE    300
Info: CENTER OF MASS MOVING INITIALLY? NO
Info: DIELECTRIC             1
Info: EXCLUDE                SCALED ONE-FOUR
Info: 1-4 ELECTROSTATICS SCALED BY 0.833333
Info: MODIFIED 1-4 VDW PARAMETERS WILL BE USED
Info: DCD FILENAME           mobley_7047032_min.dcd
Info: DCD FREQUENCY          5000
Info: DCD FIRST STEP         5000
Info: DCD FILE WILL CONTAIN UNIT CELL DATA
Info: XST FILENAME           mobley_7047032_min.xst
Info: XST FREQUENCY          5000
Info: NO VELOCITY DCD OUTPUT
Info: NO FORCE DCD OUTPUT
Info: OUTPUT FILENAME        mobley_7047032_min
Info: BINARY OUTPUT FILES WILL BE USED
Info: RESTART FILENAME       mobley_7047032_min.restart
Info: RESTART FREQUENCY      5000
Info: BINARY RESTART FILES WILL BE USED
Info: CUTOFF                 9
Info: PAIRLIST DISTANCE      11
Info: PAIRLIST SHRINK RATE   0.01
Info: PAIRLIST GROW RATE     0.01
Info: PAIRLIST TRIGGER       0.3
Info: PAIRLISTS PER CYCLE    2
Info: PAIRLISTS ENABLED
Info: MARGIN                 8
Info: HYDROGEN GROUP CUTOFF  2.5
Info: PATCH DIMENSION        21.5
Info: ENERGY OUTPUT STEPS    5000
Info: ENERGY EVALUATION STEPS    5000
Info: OUTPUT ENERGY PRECISION 4
Info: CROSSTERM ENERGY INCLUDED IN DIHEDRAL
Info: TIMING OUTPUT STEPS    50000
Info: PRESSURE OUTPUT STEPS  5000
Info: LANGEVIN DYNAMICS ACTIVE
Info: LANGEVIN TEMPERATURE   300
Info: LANGEVIN USING BBK INTEGRATOR
Info: LANGEVIN DAMPING COEFFICIENT IS 1 INVERSE PS
Info: LANGEVIN DYNAMICS APPLIED TO HYDROGENS
Info: LANGEVIN PISTON PRESSURE CONTROL ACTIVE
Info:        TARGET PRESSURE IS 1.01325 BAR
Info:     OSCILLATION PERIOD IS 50 FS
Info:             DECAY TIME IS 25 FS
Info:     PISTON TEMPERATURE IS 300 K
Info:       PRESSURE CONTROL IS GROUP-BASED
Info:    INITIAL STRAIN RATE IS 0 0 0
Info:       CELL FLUCTUATION IS ISOTROPIC
Info: PARTICLE MESH EWALD (PME) ACTIVE
Info: PME TOLERANCE               1e-06
Info: PME EWALD COEFFICIENT       0.348832
Info: PME INTERPOLATION ORDER     4
Info: PME GRID DIMENSIONS         44 40 40
Info: PME MAXIMUM GRID SPACING    1
Info: FULL ELECTROSTATIC EVALUATION FREQUENCY      2
Info: USING VERLET I (r-RESPA) MTS SCHEME.
Info: C1 SPLITTING OF LONG RANGE ELECTROSTATICS
Info: PLACING ATOMS IN PATCHES BY HYDROGEN GROUPS
Info: RIGID BONDS TO HYDROGEN : ALL
Info:         ERROR TOLERANCE : 1e-08
Info:          MAX ITERATIONS : 100
Info: RIGID WATER USING SETTLE ALGORITHM
Info: RANDOM NUMBER SEED     1741386607
Info: USE HYDROGEN BONDS?    NO
Info: Using AMBER format force field!
Info: AMBER PARM FILE        mobley_7047032.prmtop
Info: COORDINATE PDB         mobley_7047032.pdb
Info: Exclusions will be read from PARM file!
Info: SCNB (VDW SCALING)     2
Info: USING ARITHMETIC MEAN TO COMBINE L-J SIGMA PARAMETERS
Info: SUMMARY OF PARAMETERS:
Info: 5 BONDS
Info: 4 ANGLES
Info:   4 HARMONIC
Info:   0 COSINE-BASED
Info: 2 DIHEDRAL
Info: 0 IMPROPER
Info: 0 CROSSTERM
Info: 0 VDW
Info: 15 VDW_PAIRS
Info: 0 NBTHOLE_PAIRS
Info: STRUCTURE SUMMARY:
Info: 4640 ATOMS
Info: 4639 BONDS
Info: 24 ANGLES
Info: 27 DIHEDRALS
Info: 0 IMPROPERS
Info: 0 CROSSTERMS
Info: 4690 EXCLUSIONS
Info: 4635 RIGID BONDS
Info: 9285 DEGREES OF FREEDOM
Info: 1547 HYDROGEN GROUPS
Info: 4 ATOMS IN LARGEST HYDROGEN GROUP
Info: 1547 MIGRATION GROUPS
Info: 4 ATOMS IN LARGEST MIGRATION GROUP
Info: TOTAL MASS = 27873.2 amu
Info: TOTAL CHARGE = 0.000100009 e
Info: MASS DENSITY = 0.729939 g/cm^3
Info: ATOM DENSITY = 0.0731742 atoms/A^3
Info: ADDED 0 IMPLICIT EXCLUSIONS
Info: NONBONDED TABLE R-SQUARED SPACING: 0.0625
Info: NONBONDED TABLE SIZE: 705 POINTS
Info: REMOVING COM VELOCITY 0.0175716 -0.0554181 0.125316
TCL: Minimizing for 2000 steps
ETITLE: TS BOND ANGLE DIHED IMPRP ELECT VDW BOUNDARY MISC KINETIC TOTAL TEMP POTENTIAL TOTAL3 TEMPAVG PRESSURE GPRESSURE VOLUME PRESSAVG GPRESSAVG
ENERGY: 0 0.0471 0.7900 0.0140 0.0000 -14542.2737 1652.7546 0.0000 0.0000 0.0000 -12888.6680 0.0000 -12888.6680 -12888.6680 0.0000 11252.0319 -16151.0396 63410.3075 11252.0319 -16151.0396
ENERGY: 400 1.2422 2.5015 0.0345 0.0000 -19899.4258 3038.3022 0.0000 0.0000 0.0000 -16857.3454 0.0000 -16857.3454 -16857.3454 0.0000 16941.2937 17071.3096 63410.3075 16941.2937 17071.3096
ENERGY: 800 8.6183 4.2778 0.0543 0.0000 -20815.8389 3462.6629 0.0000 0.0000 0.0000 -17340.2257 0.0000 -17340.2257 -17340.2257 0.0000 19146.2808 19260.3255 63410.3075 19146.2808 19260.3255
ENERGY: 1200 0.1630 1.3227 0.0360 0.0000 -21129.4082 3597.2071 0.0000 0.0000 0.0000 -17530.6793 0.0000 -17530.6793 -17530.6793 0.0000 19897.7695 19998.7635 63410.3075 19897.7695 19998.7635
ENERGY: 1600 0.0996 0.7692 0.0200 0.0000 -21320.9550 3687.1227 0.0000 0.0000 0.0000 -17632.9435 0.0000 -17632.9435 -17632.9435 0.0000 20384.8564 20485.4202 63410.3075 20384.8564 20485.4202
ENERGY: 2000 0.1607 0.8297 0.0180 0.0000 -21470.2251 3766.7171 0.0000 0.0000 0.0000 -17702.4997 0.0000 -17702.4997 -17702.4997 0.0000 20818.3858 20921.6389 63410.3075 20818.3858 20921.6389
TCL: Exiting due to exit command.
Info: NAMD 3.0.1 for Linux-x86_64-multicore
Info: Please visit http://www.ks.uiuc.edu/Research/namd/
Info: for updates, documentation, and support information.
Info: Please cite Phillips et al., J. Chem. Phys. 153:044130 (2020) doi:10.1063/5.0014475
Info: in all publications reporting results obtained with NAMD.
Info: Based on Charm++/Converse 80000 for multicore-linux-x86_64-gcc
Info: Built Mon Oct 14 11:11:06 CDT 2024 by dhardy on athine.ks.uiuc.edu
Info: 1 NAMD  3.0.1  Linux-x86_64-multicore  16    k025  z5358697
Info: Running on 16 processors, 1 nodes, 1 physical nodes.
Info: CPU topology information available.
Info: Charm++/Converse parallel runtime startup completed at 0.00766699 s
Info: 1043.46 MB of memory in use based on /proc/self/stat
Info: Configuration file is mobley_7047032_equil.namd
Info: Working in the current directory /srv/scratch/z5358697/prod_prep_9/7047032
TCL: Running 25000 steps at 30 kelvin.
TCL: Suspending until startup complete.
Info: SIMULATION PARAMETERS:
Info: TIMESTEP               2
Info: NUMBER OF STEPS        0
Info: STEPS PER CYCLE        10
Info: PERIODIC CELL BASIS 1  40.176 0 0
Info: PERIODIC CELL BASIS 2  0 39.93 0
Info: PERIODIC CELL BASIS 3  0 0 39.527
Info: PERIODIC CELL CENTER   0 0 0
Info: WRAPPING WATERS AROUND PERIODIC BOUNDARIES ON OUTPUT.
Info: WRAPPING ALL CLUSTERS AROUND PERIODIC BOUNDARIES ON OUTPUT.
Info: FIRST LDB TIMESTEP     50
Info: LAST LDB TIMESTEP     -1
Info: HOM BACKGROUND SCALING 1
Info: PME BACKGROUND SCALING 1
Info: MIN ATOMS PER PATCH    40
Info: EMPTY PATCH LOAD       40 ATOMS
Info: INITIAL TEMPERATURE    300
Info: CENTER OF MASS MOVING INITIALLY? NO
Info: DIELECTRIC             1
Info: EXCLUDE                SCALED ONE-FOUR
Info: 1-4 ELECTROSTATICS SCALED BY 0.833333
Info: MODIFIED 1-4 VDW PARAMETERS WILL BE USED
Info: DCD FILENAME           mobley_7047032_equil.dcd
Info: DCD FREQUENCY          5000
Info: DCD FIRST STEP         5000
Info: DCD FILE WILL CONTAIN UNIT CELL DATA
Info: XST FILENAME           mobley_7047032_equil.xst
Info: XST FREQUENCY          5000
Info: NO VELOCITY DCD OUTPUT
Info: NO FORCE DCD OUTPUT
Info: OUTPUT FILENAME        mobley_7047032_equil
Info: BINARY OUTPUT FILES WILL BE USED
Info: RESTART FILENAME       mobley_7047032_equil.restart
Info: RESTART FREQUENCY      5000
Info: BINARY RESTART FILES WILL BE USED
Info: CUTOFF                 9
Info: PAIRLIST DISTANCE      11
Info: PAIRLIST SHRINK RATE   0.01
Info: PAIRLIST GROW RATE     0.01
Info: PAIRLIST TRIGGER       0.3
Info: PAIRLISTS PER CYCLE    2
Info: PAIRLISTS ENABLED
Info: MARGIN                 8
Info: HYDROGEN GROUP CUTOFF  2.5
Info: PATCH DIMENSION        21.5
Info: ENERGY OUTPUT STEPS    5000
Info: ENERGY EVALUATION STEPS    5000
Info: OUTPUT ENERGY PRECISION 4
Info: CROSSTERM ENERGY INCLUDED IN DIHEDRAL
Info: TIMING OUTPUT STEPS    50000
Info: PRESSURE OUTPUT STEPS  5000
Info: LANGEVIN DYNAMICS ACTIVE
Info: LANGEVIN TEMPERATURE   30
Info: LANGEVIN USING BBK INTEGRATOR
Info: LANGEVIN DAMPING COEFFICIENT IS 1 INVERSE PS
Info: LANGEVIN DYNAMICS APPLIED TO HYDROGENS
Info: LANGEVIN PISTON PRESSURE CONTROL ACTIVE
Info:        TARGET PRESSURE IS 1.01325 BAR
Info:     OSCILLATION PERIOD IS 50 FS
Info:             DECAY TIME IS 25 FS
Info:     PISTON TEMPERATURE IS 300 K
Info:       PRESSURE CONTROL IS GROUP-BASED
Info:    INITIAL STRAIN RATE IS 0 0 0
Info:       CELL FLUCTUATION IS ISOTROPIC
Info: PARTICLE MESH EWALD (PME) ACTIVE
Info: PME TOLERANCE               1e-06
Info: PME EWALD COEFFICIENT       0.348832
Info: PME INTERPOLATION ORDER     4
Info: PME GRID DIMENSIONS         44 40 40
Info: PME MAXIMUM GRID SPACING    1
Info: FULL ELECTROSTATIC EVALUATION FREQUENCY      2
Info: USING VERLET I (r-RESPA) MTS SCHEME.
Info: C1 SPLITTING OF LONG RANGE ELECTROSTATICS
Info: PLACING ATOMS IN PATCHES BY HYDROGEN GROUPS
Info: RIGID BONDS TO HYDROGEN : ALL
Info:         ERROR TOLERANCE : 1e-08
Info:          MAX ITERATIONS : 100
Info: RIGID WATER USING SETTLE ALGORITHM
Info: RANDOM NUMBER SEED     1741386626
Info: USE HYDROGEN BONDS?    NO
Info: Using AMBER format force field!
Info: AMBER PARM FILE        mobley_7047032.prmtop
Info: COORDINATE PDB         mobley_7047032.pdb
Info: Exclusions will be read from PARM file!
Info: SCNB (VDW SCALING)     2
Info: USING ARITHMETIC MEAN TO COMBINE L-J SIGMA PARAMETERS
Info: BINARY COORDINATES     mobley_7047032_min.coor
Info: SUMMARY OF PARAMETERS:
Info: 5 BONDS
Info: 4 ANGLES
Info:   4 HARMONIC
Info:   0 COSINE-BASED
Info: 2 DIHEDRAL
Info: 0 IMPROPER
Info: 0 CROSSTERM
Info: 0 VDW
Info: 15 VDW_PAIRS
Info: 0 NBTHOLE_PAIRS
Info: STRUCTURE SUMMARY:
Info: 4640 ATOMS
Info: 4639 BONDS
Info: 24 ANGLES
Info: 27 DIHEDRALS
Info: 0 IMPROPERS
Info: 0 CROSSTERMS
Info: 4690 EXCLUSIONS
Info: 4635 RIGID BONDS
Info: 9285 DEGREES OF FREEDOM
Info: 1547 HYDROGEN GROUPS
Info: 4 ATOMS IN LARGEST HYDROGEN GROUP
Info: 1547 MIGRATION GROUPS
Info: 4 ATOMS IN LARGEST MIGRATION GROUP
Info: TOTAL MASS = 27873.2 amu
Info: TOTAL CHARGE = 0.000100009 e
Info: MASS DENSITY = 0.729939 g/cm^3
Info: ATOM DENSITY = 0.0731742 atoms/A^3
Info: ADDED 0 IMPLICIT EXCLUSIONS
Info: NONBONDED TABLE R-SQUARED SPACING: 0.0625
Info: NONBONDED TABLE SIZE: 705 POINTS
Info: REMOVING COM VELOCITY 0.0102419 0.111479 0.0840137
TCL: Running for 25000 steps
ETITLE: TS BOND ANGLE DIHED IMPRP ELECT VDW BOUNDARY MISC KINETIC TOTAL TEMP POTENTIAL TOTAL3 TEMPAVG PRESSURE GPRESSURE VOLUME PRESSAVG GPRESSAVG
ENERGY: 0 0.1607 0.8297 0.0180 0.0000 -21470.2251 3766.7171 0.0000 0.0000 2742.6391 -14959.8605 297.2878 -17702.4997 -14959.3124 297.2878 541.7559 576.0968 63410.3075 541.7559 576.0968
ENERGY: 5000 0.1136 1.1487 0.1673 0.0000 -22351.4127 3885.5865 0.0000 0.0000 284.7929 -18179.6037 30.8701 -18464.3966 -18178.9678 47.4250 81.3361 139.6879 44685.9426 -0.7706 -0.6527
ENERGY: 10000 0.3381 0.9519 0.0587 0.0000 -22390.9134 3888.2254 0.0000 0.0000 280.8731 -18220.4662 30.4452 -18501.3393 -18219.7541 30.4443 12.2795 72.4760 44642.8002 3.4457 3.4677
ENERGY: 15000 0.0222 1.1658 0.0583 0.0000 -22420.3314 3909.6309 0.0000 0.0000 281.0812 -18228.3730 30.4677 -18509.4542 -18227.7661 30.0362 176.2947 219.0480 44566.1870 8.5946 8.5503
ENERGY: 20000 0.0695 1.1506 0.0448 0.0000 -22327.3569 3809.6419 0.0000 0.0000 271.9944 -18244.4556 29.4828 -18516.4501 -18243.7290 29.9713 -415.4044 -379.0909 44636.2716 4.1635 4.1663
ENERGY: 25000 0.1977 1.1031 0.0397 0.0000 -22507.7789 3982.4663 0.0000 0.0000 273.0371 -18250.9352 29.5958 -18523.9722 -18250.3209 29.9325 527.8851 568.7607 44405.3855 -0.2656 -0.2611
TCL: Running 25000 steps at 60 kelvin.
TCL: Setting parameter langevinTemp to 60
TCL: Running for 25000 steps
ETITLE: TS BOND ANGLE DIHED IMPRP ELECT VDW BOUNDARY MISC KINETIC TOTAL TEMP POTENTIAL TOTAL3 TEMPAVG PRESSURE GPRESSURE VOLUME PRESSAVG GPRESSAVG
ENERGY: 25000 0.1977 1.1031 0.0397 0.0000 -22507.7789 3982.4663 0.0000 0.0000 272.8996 -18251.0726 29.5809 -18523.9722 -18250.5574 29.5809 524.7398 568.8845 44405.3855 524.7398 568.8845
ENERGY: 30000 0.3025 1.8469 0.1650 0.0000 -22083.0256 3807.1502 0.0000 0.0000 550.1169 -17723.4441 59.6298 -18273.5609 -17722.2212 56.8563 253.9440 290.2342 44523.8416 3.5667 3.7379
ENERGY: 35000 0.4239 1.5210 0.1756 0.0000 -21880.7518 3580.6479 0.0000 0.0000 563.0318 -17734.9517 61.0297 -18297.9835 -17733.7219 60.2354 -1153.1584 -1116.7387 45224.0573 2.2601 2.2982
ENERGY: 40000 0.2327 1.9936 0.0764 0.0000 -21833.7942 3521.0941 0.0000 0.0000 564.0504 -17746.3470 61.1401 -18310.3973 -17744.9525 59.8716 -1426.5697 -1382.4632 44964.7905 9.2421 9.3876
ENERGY: 45000 0.9124 1.5169 0.0474 0.0000 -22066.9629 3718.6763 0.0000 0.0000 560.4836 -17785.3263 60.7535 -18345.8099 -17783.4323 60.5005 -448.3853 -415.6837 44572.1604 7.1526 7.0966
ENERGY: 50000 0.2966 2.2584 0.1268 0.0000 -22222.7769 3846.7390 0.0000 0.0000 542.3179 -17831.0380 58.7844 -18373.3559 -17829.7431 60.2420 208.7622 278.1556 44297.7531 4.1004 4.1979
TCL: Running 25000 steps at 90 kelvin.
TCL: Setting parameter langevinTemp to 90
TCL: Running for 25000 steps
ETITLE: TS BOND ANGLE DIHED IMPRP ELECT VDW BOUNDARY MISC KINETIC TOTAL TEMP POTENTIAL TOTAL3 TEMPAVG PRESSURE GPRESSURE VOLUME PRESSAVG GPRESSAVG
ENERGY: 50000 0.2966 2.2584 0.1268 0.0000 -22222.7769 3846.7390 0.0000 0.0000 542.0422 -17831.3138 58.7546 -18373.3559 -17830.1318 58.7546 237.0141 277.8900 44297.7531 237.0141 277.8900
ENERGY: 55000 0.6480 1.7215 0.2479 0.0000 -21899.0449 3786.4367 0.0000 0.0000 825.8977 -17284.0932 89.5230 -18109.9909 -17282.2228 86.8349 480.5558 527.1759 44629.6536 1.4558 1.5138
ENERGY: 60000 0.0083 2.5449 0.3702 0.0000 -21895.9545 3769.3341 0.0000 0.0000 830.3837 -17293.3132 90.0093 -18123.6968 -17291.7955 90.4480 453.4798 503.6791 44537.5135 2.7774 2.9063
ENERGY: 65000 0.2338 2.4813 0.2084 0.0000 -21830.1039 3671.0815 0.0000 0.0000 850.6584 -17305.4405 92.2070 -18156.0989 -17303.3586 90.3182 -233.8494 -183.2553 44820.0900 -1.8002 -2.0457
ENERGY: 70000 0.2805 2.2205 0.0912 0.0000 -21853.7307 3686.6891 0.0000 0.0000 812.4816 -17351.9678 88.0688 -18164.4494 -17349.8627 89.9316 -208.3243 -160.9149 44871.1832 0.4244 0.4470
ENERGY: 75000 0.2242 1.9973 0.1143 0.0000 -21983.4178 3789.7410 0.0000 0.0000 812.3320 -17379.0090 88.0526 -18191.3410 -17376.0449 90.0361 307.5528 349.0127 44559.8509 0.4320 0.1095
TCL: Running 25000 steps at 120 kelvin.
TCL: Setting parameter langevinTemp to 120
TCL: Running for 25000 steps
ETITLE: TS BOND ANGLE DIHED IMPRP ELECT VDW BOUNDARY MISC KINETIC TOTAL TEMP POTENTIAL TOTAL3 TEMPAVG PRESSURE GPRESSURE VOLUME PRESSAVG GPRESSAVG
ENERGY: 75000 0.2242 1.9973 0.1143 0.0000 -21983.4178 3789.7410 0.0000 0.0000 811.9088 -17379.4321 88.0067 -18191.3410 -17377.8804 88.0067 310.9114 349.6953 44559.8509 310.9114 349.6953
ENERGY: 80000 0.1316 2.7695 0.3874 0.0000 -21612.0675 3748.2843 0.0000 0.0000 1103.3912 -16757.1034 119.6019 -17860.4946 -16753.0281 117.6614 847.9245 880.7645 44972.9313 1.5718 1.4691
ENERGY: 85000 0.1883 2.4638 0.2055 0.0000 -21626.8635 3734.2750 0.0000 0.0000 1120.9399 -16768.7910 121.5041 -17889.7309 -16765.5141 120.5135 701.8367 735.0526 44951.6092 -1.4761 -1.3594
ENERGY: 90000 0.4808 2.8277 0.2493 0.0000 -21579.8964 3657.0331 0.0000 0.0000 1143.1494 -16776.1561 123.9115 -17919.3055 -16772.8165 121.3294 212.0438 270.8289 45136.2980 3.7236 3.5057
ENERGY: 95000 0.4209 3.6435 0.4096 0.0000 -21480.4346 3551.0091 0.0000 0.0000 1100.7069 -16824.2447 119.3109 -17924.9515 -16822.2640 119.7719 -392.0415 -344.8462 45271.8848 2.6351 2.8591
ENERGY: 100000 0.0936 2.5621 0.3644 0.0000 -21734.5576 3812.5048 0.0000 0.0000 1132.7373 -16786.2954 122.7828 -17919.0327 -16782.8973 119.9818 1053.3869 1082.5162 44898.9062 5.0281 5.4546
TCL: Running 25000 steps at 150 kelvin.
TCL: Setting parameter langevinTemp to 150
TCL: Running for 25000 steps
ETITLE: TS BOND ANGLE DIHED IMPRP ELECT VDW BOUNDARY MISC KINETIC TOTAL TEMP POTENTIAL TOTAL3 TEMPAVG PRESSURE GPRESSURE VOLUME PRESSAVG GPRESSAVG
ENERGY: 100000 0.0936 2.5621 0.3644 0.0000 -21734.5576 3812.5048 0.0000 0.0000 1132.1750 -16786.8577 122.7219 -17919.0327 -16784.8419 122.7219 1031.3381 1082.9546 44898.9062 1031.3381 1082.9546
ENERGY: 105000 1.2565 6.1659 0.1956 0.0000 -21070.9233 3504.9449 0.0000 0.0000 1367.2554 -16191.1051 148.2034 -17558.3605 -16187.9804 146.6545 6.9254 73.7893 45638.8685 9.0557 9.2554
ENERGY: 110000 0.8431 2.2964 0.0555 0.0000 -21102.4645 3458.6817 0.0000 0.0000 1411.1390 -16229.4488 152.9601 -17640.5878 -16225.9777 149.9822 -286.9448 -235.9984 45773.7841 1.7581 1.5552
ENERGY: 115000 0.5051 3.1743 0.2821 0.0000 -21227.2057 3615.3710 0.0000 0.0000 1377.6348 -16230.2384 149.3285 -17607.8732 -16227.8086 151.0602 724.0094 740.4833 45371.8960 3.7207 3.5714
ENERGY: 120000 0.3363 1.9440 0.3302 0.0000 -21200.6153 3549.1052 0.0000 0.0000 1406.7821 -16242.1174 152.4879 -17648.8995 -16240.0151 150.3045 181.7984 247.7503 45420.9865 9.8611 9.6212
ENERGY: 125000 0.7030 5.1245 0.3824 0.0000 -21137.2518 3454.1325 0.0000 0.0000 1399.6066 -16277.3027 151.7101 -17676.9093 -16272.7643 150.3809 -327.3441 -268.3926 45461.5528 -2.3056 -2.0045
TCL: Running 50000 steps at 180 kelvin.
TCL: Setting parameter langevinTemp to 180
TCL: Running for 50000 steps
ETITLE: TS BOND ANGLE DIHED IMPRP ELECT VDW BOUNDARY MISC KINETIC TOTAL TEMP POTENTIAL TOTAL3 TEMPAVG PRESSURE GPRESSURE VOLUME PRESSAVG GPRESSAVG
ENERGY: 125000 0.7030 5.1245 0.3824 0.0000 -21137.2518 3454.1325 0.0000 0.0000 1398.9171 -16277.9923 151.6353 -17676.9093 -16275.0174 151.6353 -333.8641 -267.0109 45461.5528 -333.8641 -267.0109
ENERGY: 135000 0.2225 3.8607 0.5255 0.0000 -20652.1456 3417.9114 0.0000 0.0000 1668.1429 -15561.4825 180.8180 -17229.6254 -15557.8862 180.0645 368.5069 439.2277 45794.2038 -3.1012 -3.3951
ENERGY: 145000 0.0092 3.0333 0.3470 0.0000 -20729.1923 3489.5314 0.0000 0.0000 1661.8356 -15574.4358 180.1343 -17236.2713 -15570.3294 179.2237 997.9953 1041.7073 45135.5514 5.7944 5.5345
ENERGY: 155000 0.6579 3.6636 0.4670 0.0000 -20483.8413 3196.7542 0.0000 0.0000 1660.0511 -15622.2476 179.9409 -17282.2987 -15619.1086 180.2620 -1069.0541 -965.2752 46104.2676 -0.7898 -1.1836
ENERGY: 165000 0.9332 6.0617 0.2066 0.0000 -20787.7610 3476.8768 0.0000 0.0000 1645.2511 -15658.4317 178.3367 -17303.6828 -15656.4248 180.6291 856.3217 883.6341 45006.3052 -4.2379 -4.7117
ENERGY: 175000 0.7889 2.3392 2.1608 0.0000 -20538.3781 3243.3329 0.0000 0.0000 1688.9572 -15600.7991 183.0742 -17289.7563 -15596.7891 182.1241 -442.9114 -400.8359 45513.3219 2.0435 1.9365
TCL: Running 50000 steps at 210 kelvin.
TCL: Setting parameter langevinTemp to 210
TCL: Running for 50000 steps
ETITLE: TS BOND ANGLE DIHED IMPRP ELECT VDW BOUNDARY MISC KINETIC TOTAL TEMP POTENTIAL TOTAL3 TEMPAVG PRESSURE GPRESSURE VOLUME PRESSAVG GPRESSAVG
ENERGY: 175000 0.7889 2.3392 2.1608 0.0000 -20538.3781 3243.3329 0.0000 0.0000 1688.1111 -15601.6452 182.9825 -17289.7563 -15598.2098 182.9825 -456.3394 -400.4245 45513.3219 -456.3394 -400.4245
ENERGY: 185000 1.0433 5.9538 0.5283 0.0000 -19851.9095 3182.9666 0.0000 0.0000 1963.2744 -14698.1432 212.8087 -16661.4175 -14693.6045 210.2221 712.8360 795.7470 45200.0382 4.4940 4.4980
ENERGY: 195000 0.4863 3.6559 0.7126 0.0000 -19547.1066 2999.4813 0.0000 0.0000 1935.7477 -14607.0227 209.8250 -16542.7705 -14601.3226 209.7980 -6.4743 116.2175 45214.5617 5.3152 5.1877
ENERGY: 205000 0.3159 2.8464 0.2468 0.0000 -19686.7263 3093.5616 0.0000 0.0000 1898.4920 -14691.2637 205.7867 -16589.7557 -14688.0609 209.9947 323.6099 424.6080 45451.4499 4.1139 4.1209
ENERGY: 215000 0.8730 4.2794 0.2123 0.0000 -19689.2119 3166.0696 0.0000 0.0000 1969.9141 -14547.8635 213.5285 -16517.7775 -14544.1414 211.0217 1070.3132 1196.7098 44733.0880 3.4903 3.8336
ENERGY: 225000 0.6093 3.7331 0.3454 0.0000 -19371.0129 2840.9866 0.0000 0.0000 1912.5283 -14612.8103 207.3081 -16525.3386 -14609.1776 210.3912 -886.2671 -757.9086 45453.4588 -1.2043 -1.6396
TCL: Running 50000 steps at 240 kelvin.
TCL: Setting parameter langevinTemp to 240
TCL: Running for 50000 steps
ETITLE: TS BOND ANGLE DIHED IMPRP ELECT VDW BOUNDARY MISC KINETIC TOTAL TEMP POTENTIAL TOTAL3 TEMPAVG PRESSURE GPRESSURE VOLUME PRESSAVG GPRESSAVG
ENERGY: 225000 0.6093 3.7331 0.3454 0.0000 -19371.0129 2840.9866 0.0000 0.0000 1911.5523 -14613.7863 207.2023 -16525.3386 -14610.5571 207.2023 -826.8480 -758.4471 45453.4588 -826.8480 -758.4471
ENERGY: 235000 1.0538 5.2814 0.6221 0.0000 -18580.5487 2732.6334 0.0000 0.0000 2236.1351 -13604.8229 242.3854 -15840.9580 -13601.5513 240.5945 -119.5205 -23.4910 46274.3843 0.1176 -0.1823
ENERGY: 245000 1.7051 3.5858 1.1570 0.0000 -18611.1713 2716.4255 0.0000 0.0000 2175.3572 -13712.9407 235.7974 -15888.2978 -13707.5465 239.1279 28.5443 101.2224 45538.9719 1.5481 2.2465
ENERGY: 255000 0.1385 4.5813 0.2270 0.0000 -18621.8197 2710.4693 0.0000 0.0000 2247.8093 -13658.5942 243.6509 -15906.4035 -13656.7106 239.8457 8.4237 123.9094 45441.3522 2.6558 3.0756
ENERGY: 265000 0.2396 5.9267 0.9882 0.0000 -18581.0086 2705.5439 0.0000 0.0000 2229.8209 -13638.4894 241.7010 -15868.3102 -13635.4142 239.9435 -89.4585 -12.0923 45754.0486 7.1926 8.1647
ENERGY: 275000 1.5119 7.5061 0.6852 0.0000 -18544.4802 2695.2025 0.0000 0.0000 2175.2641 -13664.3103 235.7873 -15839.5744 -13659.4045 238.9383 -297.7868 -227.6100 46231.7381 -1.1331 -1.7188
TCL: Running 50000 steps at 270 kelvin.
TCL: Setting parameter langevinTemp to 270
TCL: Running for 50000 steps
ETITLE: TS BOND ANGLE DIHED IMPRP ELECT VDW BOUNDARY MISC KINETIC TOTAL TEMP POTENTIAL TOTAL3 TEMPAVG PRESSURE GPRESSURE VOLUME PRESSAVG GPRESSAVG
ENERGY: 275000 1.5119 7.5061 0.6852 0.0000 -18544.4802 2695.2025 0.0000 0.0000 2174.1410 -13665.4334 235.6656 -15839.5744 -13661.6214 235.6656 -314.1021 -227.1334 46231.7381 -314.1021 -227.1334
ENERGY: 285000 0.5293 4.1989 0.3215 0.0000 -17613.4035 2358.5112 0.0000 0.0000 2538.7028 -12711.1398 275.1822 -15249.8426 -12706.7345 270.6988 -594.9506 -507.2447 46668.8306 4.7201 4.8435
ENERGY: 295000 1.5473 5.8136 0.8010 0.0000 -17625.3170 2414.1380 0.0000 0.0000 2545.2597 -12657.7574 275.8929 -15203.0171 -12651.7003 269.8904 -371.7539 -273.2946 46944.1591 0.9889 0.5271
ENERGY: 305000 2.6737 5.6522 0.9956 0.0000 -17646.4534 2466.7486 0.0000 0.0000 2454.4381 -12715.9452 266.0483 -15170.3832 -12709.9868 270.3268 96.9053 153.6967 46442.3054 2.1110 2.3395
ENERGY: 315000 1.3495 3.4373 2.5136 0.0000 -17789.8559 2605.6958 0.0000 0.0000 2524.9569 -12651.9027 273.6922 -15176.8596 -12648.0291 271.1398 797.3976 856.7736 46424.9507 1.3501 1.1168
ENERGY: 325000 1.8587 5.0868 0.3878 0.0000 -17605.3712 2381.3332 0.0000 0.0000 2448.9370 -12767.7677 265.4521 -15216.7047 -12760.5139 268.9247 -466.1705 -399.3873 46612.9739 2.1146 2.4528
TCL: Running 1000000 steps at 300 kelvin.
TCL: Setting parameter langevinTemp to 300
TCL: Running for 1000000 steps
ETITLE: TS BOND ANGLE DIHED IMPRP ELECT VDW BOUNDARY MISC KINETIC TOTAL TEMP POTENTIAL TOTAL3 TEMPAVG PRESSURE GPRESSURE VOLUME PRESSAVG GPRESSAVG
ENERGY: 325000 1.8587 5.0868 0.3878 0.0000 -17605.3712 2381.3332 0.0000 0.0000 2447.6977 -12769.0070 265.3177 -15216.7047 -12764.9676 265.3177 -472.8840 -396.7810 46612.9739 -472.8840 -396.7810
ENERGY: 525000 0.4712 5.2726 0.3117 0.0000 -16884.4113 2275.9853 0.0000 0.0000 2703.4857 -11898.8848 293.0438 -14602.3705 -11889.4206 298.4576 -19.3767 76.1697 47595.7230 2.5361 2.0255
ENERGY: 725000 0.1377 4.4326 0.4923 0.0000 -16831.2930 2288.6495 0.0000 0.0000 2784.7138 -11752.8671 301.8485 -14537.5809 -11747.8018 300.4748 275.8165 330.7670 47587.6295 -0.1711 -0.1232
ENERGY: 925000 0.7776 2.6919 0.7332 0.0000 -16932.0941 2292.8679 0.0000 0.0000 2801.2119 -11833.8116 303.6368 -14635.0235 -11827.9224 300.6804 294.3486 369.8099 47214.9987 3.6156 3.2468
ENERGY: 1125000 1.0123 5.5024 0.8624 0.0000 -16761.8069 2226.0923 0.0000 0.0000 2730.4409 -11797.8967 295.9656 -14528.3376 -11795.1528 297.7614 -351.8026 -262.0762 48368.0794 5.4382 5.4087
ENERGY: 1325000 0.5805 6.1793 0.6805 0.0000 -16771.3080 2201.1124 0.0000 0.0000 2706.4275 -11856.3278 293.3627 -14562.7553 -11851.6544 297.9751 -483.5295 -430.0462 48079.3858 0.6387 0.9913
TCL: Exiting due to exit command.
