Info: SIMULATION PARAMETERS:
Info: TIMESTEP               2
Info: NUMBER OF STEPS        0
Info: STEPS PER CYCLE        10
Info: PERIODIC CELL BASIS 1  38.861 0 0
Info: PERIODIC CELL BASIS 2  0 39.115 0
Info: PERIODIC CELL BASIS 3  0 0 40.47
Info: PERIODIC CELL CENTER   0 0 0
Info: WRAPPING WATERS AROUND PERIODIC BOUNDARIES ON OUTPUT.
Info: WRAPPING ALL CLUSTERS AROUND PERIODIC BOUNDARIES ON OUTPUT.
Info: FIRST LDB TIMESTEP     50
Info: LAST LDB TIMESTEP     -1
Info: HOM BACKGROUND SCALING 1
Info: PME BACKGROUND SCALING 1
Info: MIN ATOMS PER PATCH    40
Info: EMPTY PATCH LOAD       40 ATOMS
Info: INITIAL TEMPERATURE    300
Info: CENTER OF MASS MOVING INITIALLY? NO
Info: DIELECTRIC             1
Info: EXCLUDE                SCALED ONE-FOUR
Info: 1-4 ELECTROSTATICS SCALED BY 0.833333
Info: MODIFIED 1-4 VDW PARAMETERS WILL BE USED
Info: DCD FILENAME           mobley_1977493_min.dcd
Info: DCD FREQUENCY          5000
Info: DCD FIRST STEP         5000
Info: DCD FILE WILL CONTAIN UNIT CELL DATA
Info: XST FILENAME           mobley_1977493_min.xst
Info: XST FREQUENCY          5000
Info: NO VELOCITY DCD OUTPUT
Info: NO FORCE DCD OUTPUT
Info: OUTPUT FILENAME        mobley_1977493_min
Info: BINARY OUTPUT FILES WILL BE USED
Info: RESTART FILENAME       mobley_1977493_min.restart
Info: RESTART FREQUENCY      5000
Info: BINARY RESTART FILES WILL BE USED
Info: CUTOFF                 9
Info: PAIRLIST DISTANCE      11
Info: PAIRLIST SHRINK RATE   0.01
Info: PAIRLIST GROW RATE     0.01
Info: PAIRLIST TRIGGER       0.3
Info: PAIRLISTS PER CYCLE    2
Info: PAIRLISTS ENABLED
Info: MARGIN                 8
Info: HYDROGEN GROUP CUTOFF  2.5
Info: PATCH DIMENSION        21.5
Info: ENERGY OUTPUT STEPS    5000
Info: ENERGY EVALUATION STEPS    5000
Info: OUTPUT ENERGY PRECISION 4
Info: CROSSTERM ENERGY INCLUDED IN DIHEDRAL
Info: TIMING OUTPUT STEPS    50000
Info: PRESSURE OUTPUT STEPS  5000
Info: LANGEVIN DYNAMICS ACTIVE
Info: LANGEVIN TEMPERATURE   300
Info: LANGEVIN USING BBK INTEGRATOR
Info: LANGEVIN DAMPING COEFFICIENT IS 1 INVERSE PS
Info: LANGEVIN DYNAMICS APPLIED TO HYDROGENS
Info: LANGEVIN PISTON PRESSURE CONTROL ACTIVE
Info:        TARGET PRESSURE IS 1.01325 BAR
Info:     OSCILLATION PERIOD IS 50 FS
Info:             DECAY TIME IS 25 FS
Info:     PISTON TEMPERATURE IS 300 K
Info:       PRESSURE CONTROL IS GROUP-BASED
Info:    INITIAL STRAIN RATE IS 0 0 0
Info:       CELL FLUCTUATION IS ISOTROPIC
Info: PARTICLE MESH EWALD (PME) ACTIVE
Info: PME TOLERANCE               1e-06
Info: PME EWALD COEFFICIENT       0.348832
Info: PME INTERPOLATION ORDER     4
Info: PME GRID DIMENSIONS         40 40 44
Info: PME MAXIMUM GRID SPACING    1
Info: FULL ELECTROSTATIC EVALUATION FREQUENCY      2
Info: USING VERLET I (r-RESPA) MTS SCHEME.
Info: C1 SPLITTING OF LONG RANGE ELECTROSTATICS
Info: PLACING ATOMS IN PATCHES BY HYDROGEN GROUPS
Info: RIGID BONDS TO HYDROGEN : ALL
Info:         ERROR TOLERANCE : 1e-08
Info:          MAX ITERATIONS : 100
Info: RIGID WATER USING SETTLE ALGORITHM
Info: RANDOM NUMBER SEED     1741317196
Info: USE HYDROGEN BONDS?    NO
Info: Using AMBER format force field!
Info: AMBER PARM FILE        mobley_1977493.prmtop
Info: COORDINATE PDB         mobley_1977493.pdb
Info: Exclusions will be read from PARM file!
Info: SCNB (VDW SCALING)     2
Info: USING ARITHMETIC MEAN TO COMBINE L-J SIGMA PARAMETERS
Info: SUMMARY OF PARAMETERS:
Info: 6 BONDS
Info: 7 ANGLES
Info: 4 DIHEDRAL
Info: 0 IMPROPER
Info: 0 CROSSTERM
Info: 0 VDW
Info: 21 VDW_PAIRS
Info: 0 NBTHOLE_PAIRS
Info: STRUCTURE SUMMARY:
Info: 4373 ATOMS
Info: 4372 BONDS
Info: 18 ANGLES
Info: 18 DIHEDRALS
Info: 0 IMPROPERS
Info: 0 CROSSTERMS
Info: 4408 EXCLUSIONS
Info: 4369 RIGID BONDS
Info: 8750 DEGREES OF FREEDOM
Info: 1458 HYDROGEN GROUPS
Info: 4 ATOMS IN LARGEST HYDROGEN GROUP
Info: 1458 MIGRATION GROUPS
Info: 4 ATOMS IN LARGEST MIGRATION GROUP
Info: TOTAL MASS = 26273.8 amu
Info: TOTAL CHARGE = -0.000100009 e
Info: MASS DENSITY = 0.709237 g/cm^3
Info: ATOM DENSITY = 0.0710868 atoms/A^3
Info: ADDED 0 IMPLICIT EXCLUSIONS
Info: NONBONDED TABLE R-SQUARED SPACING: 0.0625
Info: NONBONDED TABLE SIZE: 705 POINTS
Info: REMOVING COM VELOCITY -0.189898 0.0843213 -0.0620289
TCL: Minimizing for 2000 steps
ETITLE: TS BOND ANGLE DIHED IMPRP ELECT VDW BOUNDARY MISC KINETIC TOTAL TEMP POTENTIAL TOTAL3 TEMPAVG PRESSURE GPRESSURE VOLUME PRESSAVG GPRESSAVG
ENERGY: 0 0.2312 0.2683 0.0151 0.0000 -13549.8692 1565.2234 0.0000 0.0000 0.0000 -11984.1313 0.0000 -11984.1313 -11984.1313 0.0000 11058.1083 -15283.1179 61516.3432 11058.1083 -15283.1179
ENERGY: 400 1.9027 1.0763 0.0824 0.0000 -18484.4126 2781.5483 0.0000 0.0000 0.0000 -15699.8029 0.0000 -15699.8029 -15699.8029 0.0000 16146.2971 16265.4767 61516.3432 16146.2971 16265.4767
ENERGY: 800 0.7090 0.6690 0.0642 0.0000 -19500.5201 3236.6864 0.0000 0.0000 0.0000 -16262.3915 0.0000 -16262.3915 -16262.3915 0.0000 18543.6050 18657.1065 61516.3432 18543.6050 18657.1065
ENERGY: 1200 2.3758 1.3314 0.0463 0.0000 -19830.0786 3356.7499 0.0000 0.0000 0.0000 -16469.5752 0.0000 -16469.5752 -16469.5752 0.0000 19211.3546 19318.6074 61516.3432 19211.3546 19318.6074
ENERGY: 1600 0.1411 0.2373 0.0133 0.0000 -20070.3784 3493.2234 0.0000 0.0000 0.0000 -16576.7633 0.0000 -16576.7633 -16576.7633 0.0000 19993.3485 20072.6988 61516.3432 19993.3485 20072.6988
ENERGY: 2000 0.1054 0.1803 0.0090 0.0000 -20131.0732 3492.3056 0.0000 0.0000 0.0000 -16638.4729 0.0000 -16638.4729 -16638.4729 0.0000 20006.6470 20078.4513 61516.3432 20006.6470 20078.4513
TCL: Exiting due to exit command.
Info: NAMD 3.0.1 for Linux-x86_64-multicore
Info: Please visit http://www.ks.uiuc.edu/Research/namd/
Info: for updates, documentation, and support information.
Info: Please cite Phillips et al., J. Chem. Phys. 153:044130 (2020) doi:10.1063/5.0014475
Info: in all publications reporting results obtained with NAMD.
Info: Based on Charm++/Converse 80000 for multicore-linux-x86_64-gcc
Info: Built Mon Oct 14 11:11:06 CDT 2024 by dhardy on athine.ks.uiuc.edu
Info: 1 NAMD  3.0.1  Linux-x86_64-multicore  16    k008  z5358697
Info: Running on 16 processors, 1 nodes, 1 physical nodes.
Info: CPU topology information available.
Info: Charm++/Converse parallel runtime startup completed at 0.00952383 s
Info: 1043.45 MB of memory in use based on /proc/self/stat
Info: Configuration file is mobley_1977493_equil.namd
Info: Working in the current directory /srv/scratch/z5358697/prod_prep_1/1977493
TCL: Running 25000 steps at 30 kelvin.
TCL: Suspending until startup complete.
Info: SIMULATION PARAMETERS:
Info: TIMESTEP               2
Info: NUMBER OF STEPS        0
Info: STEPS PER CYCLE        10
Info: PERIODIC CELL BASIS 1  38.861 0 0
Info: PERIODIC CELL BASIS 2  0 39.115 0
Info: PERIODIC CELL BASIS 3  0 0 40.47
Info: PERIODIC CELL CENTER   0 0 0
Info: WRAPPING WATERS AROUND PERIODIC BOUNDARIES ON OUTPUT.
Info: WRAPPING ALL CLUSTERS AROUND PERIODIC BOUNDARIES ON OUTPUT.
Info: FIRST LDB TIMESTEP     50
Info: LAST LDB TIMESTEP     -1
Info: HOM BACKGROUND SCALING 1
Info: PME BACKGROUND SCALING 1
Info: MIN ATOMS PER PATCH    40
Info: EMPTY PATCH LOAD       40 ATOMS
Info: INITIAL TEMPERATURE    300
Info: CENTER OF MASS MOVING INITIALLY? NO
Info: DIELECTRIC             1
Info: EXCLUDE                SCALED ONE-FOUR
Info: 1-4 ELECTROSTATICS SCALED BY 0.833333
Info: MODIFIED 1-4 VDW PARAMETERS WILL BE USED
Info: DCD FILENAME           mobley_1977493_equil.dcd
Info: DCD FREQUENCY          5000
Info: DCD FIRST STEP         5000
Info: DCD FILE WILL CONTAIN UNIT CELL DATA
Info: XST FILENAME           mobley_1977493_equil.xst
Info: XST FREQUENCY          5000
Info: NO VELOCITY DCD OUTPUT
Info: NO FORCE DCD OUTPUT
Info: OUTPUT FILENAME        mobley_1977493_equil
Info: BINARY OUTPUT FILES WILL BE USED
Info: RESTART FILENAME       mobley_1977493_equil.restart
Info: RESTART FREQUENCY      5000
Info: BINARY RESTART FILES WILL BE USED
Info: CUTOFF                 9
Info: PAIRLIST DISTANCE      11
Info: PAIRLIST SHRINK RATE   0.01
Info: PAIRLIST GROW RATE     0.01
Info: PAIRLIST TRIGGER       0.3
Info: PAIRLISTS PER CYCLE    2
Info: PAIRLISTS ENABLED
Info: MARGIN                 8
Info: HYDROGEN GROUP CUTOFF  2.5
Info: PATCH DIMENSION        21.5
Info: ENERGY OUTPUT STEPS    5000
Info: ENERGY EVALUATION STEPS    5000
Info: OUTPUT ENERGY PRECISION 4
Info: CROSSTERM ENERGY INCLUDED IN DIHEDRAL
Info: TIMING OUTPUT STEPS    50000
Info: PRESSURE OUTPUT STEPS  5000
Info: LANGEVIN DYNAMICS ACTIVE
Info: LANGEVIN TEMPERATURE   30
Info: LANGEVIN USING BBK INTEGRATOR
Info: LANGEVIN DAMPING COEFFICIENT IS 1 INVERSE PS
Info: LANGEVIN DYNAMICS APPLIED TO HYDROGENS
Info: LANGEVIN PISTON PRESSURE CONTROL ACTIVE
Info:        TARGET PRESSURE IS 1.01325 BAR
Info:     OSCILLATION PERIOD IS 50 FS
Info:             DECAY TIME IS 25 FS
Info:     PISTON TEMPERATURE IS 300 K
Info:       PRESSURE CONTROL IS GROUP-BASED
Info:    INITIAL STRAIN RATE IS 0 0 0
Info:       CELL FLUCTUATION IS ISOTROPIC
Info: PARTICLE MESH EWALD (PME) ACTIVE
Info: PME TOLERANCE               1e-06
Info: PME EWALD COEFFICIENT       0.348832
Info: PME INTERPOLATION ORDER     4
Info: PME GRID DIMENSIONS         40 40 44
Info: PME MAXIMUM GRID SPACING    1
Info: FULL ELECTROSTATIC EVALUATION FREQUENCY      2
Info: USING VERLET I (r-RESPA) MTS SCHEME.
Info: C1 SPLITTING OF LONG RANGE ELECTROSTATICS
Info: PLACING ATOMS IN PATCHES BY HYDROGEN GROUPS
Info: RIGID BONDS TO HYDROGEN : ALL
Info:         ERROR TOLERANCE : 1e-08
Info:          MAX ITERATIONS : 100
Info: RIGID WATER USING SETTLE ALGORITHM
Info: RANDOM NUMBER SEED     1741317209
Info: USE HYDROGEN BONDS?    NO
Info: Using AMBER format force field!
Info: AMBER PARM FILE        mobley_1977493.prmtop
Info: COORDINATE PDB         mobley_1977493.pdb
Info: Exclusions will be read from PARM file!
Info: SCNB (VDW SCALING)     2
Info: USING ARITHMETIC MEAN TO COMBINE L-J SIGMA PARAMETERS
Info: BINARY COORDINATES     mobley_1977493_min.coor
Info: SUMMARY OF PARAMETERS:
Info: 6 BONDS
Info: 7 ANGLES
Info: 4 DIHEDRAL
Info: 0 IMPROPER
Info: 0 CROSSTERM
Info: 0 VDW
Info: 21 VDW_PAIRS
Info: 0 NBTHOLE_PAIRS
Info: STRUCTURE SUMMARY:
Info: 4373 ATOMS
Info: 4372 BONDS
Info: 18 ANGLES
Info: 18 DIHEDRALS
Info: 0 IMPROPERS
Info: 0 CROSSTERMS
Info: 4408 EXCLUSIONS
Info: 4369 RIGID BONDS
Info: 8750 DEGREES OF FREEDOM
Info: 1458 HYDROGEN GROUPS
Info: 4 ATOMS IN LARGEST HYDROGEN GROUP
Info: 1458 MIGRATION GROUPS
Info: 4 ATOMS IN LARGEST MIGRATION GROUP
Info: TOTAL MASS = 26273.8 amu
Info: TOTAL CHARGE = -0.000100009 e
Info: MASS DENSITY = 0.709237 g/cm^3
Info: ATOM DENSITY = 0.0710868 atoms/A^3
Info: ADDED 0 IMPLICIT EXCLUSIONS
Info: NONBONDED TABLE R-SQUARED SPACING: 0.0625
Info: NONBONDED TABLE SIZE: 705 POINTS
Info: REMOVING COM VELOCITY -0.0626644 0.00873405 0.11537
TCL: Running for 25000 steps
ETITLE: TS BOND ANGLE DIHED IMPRP ELECT VDW BOUNDARY MISC KINETIC TOTAL TEMP POTENTIAL TOTAL3 TEMPAVG PRESSURE GPRESSURE VOLUME PRESSAVG GPRESSAVG
ENERGY: 0 0.1054 0.1803 0.0090 0.0000 -20131.0732 3492.3056 0.0000 0.0000 2564.0445 -14074.4284 294.9225 -16638.4729 -14073.9138 294.9225 434.1418 465.5156 61516.3432 434.1418 465.5156
ENERGY: 5000 0.0562 0.6463 0.0440 0.0000 -20862.2834 3547.5303 0.0000 0.0000 270.1079 -17043.8986 31.0685 -17314.0066 -17043.1972 46.8741 -231.4459 -155.4874 42619.4056 4.1416 4.2818
ENERGY: 10000 0.2084 0.6543 0.0498 0.0000 -21164.8570 3807.6526 0.0000 0.0000 257.5255 -17098.7665 29.6212 -17356.2920 -17098.0811 30.3012 1178.4579 1242.5330 42079.4458 4.2335 4.1086
ENERGY: 15000 0.0926 0.5090 0.0451 0.0000 -21046.1313 3665.4574 0.0000 0.0000 266.2990 -17113.7284 30.6303 -17380.0273 -17113.2163 30.2668 335.6053 395.0172 42129.8397 6.5107 6.7603
ENERGY: 20000 0.0367 0.8982 0.2163 0.0000 -20833.1464 3433.2651 0.0000 0.0000 262.0436 -17136.6865 30.1409 -17398.7301 -17135.8760 30.2964 -1069.9748 -1022.7479 42422.2258 9.3043 9.6097
ENERGY: 25000 0.0005 0.8005 0.3146 0.0000 -21084.3948 3667.7320 0.0000 0.0000 261.7434 -17153.8037 30.1064 -17415.5472 -17152.9316 30.0551 299.1752 355.4349 41876.2072 4.2327 4.1591
TCL: Running 25000 steps at 60 kelvin.
TCL: Setting parameter langevinTemp to 60
TCL: Running for 25000 steps
ETITLE: TS BOND ANGLE DIHED IMPRP ELECT VDW BOUNDARY MISC KINETIC TOTAL TEMP POTENTIAL TOTAL3 TEMPAVG PRESSURE GPRESSURE VOLUME PRESSAVG GPRESSAVG
ENERGY: 25000 0.0005 0.8005 0.3146 0.0000 -21084.3948 3667.7320 0.0000 0.0000 261.6157 -17153.9315 30.0917 -17415.5472 -17153.3763 30.0917 296.2094 355.6181 41876.2072 296.2094 355.6181
ENERGY: 30000 0.5753 0.7603 0.0078 0.0000 -20533.8064 3369.0702 0.0000 0.0000 516.7144 -16646.6784 59.4337 -17163.3928 -16645.3372 56.5923 -741.9801 -694.2940 42260.9348 -2.0408 -1.8623
ENERGY: 35000 0.2512 0.9643 0.1620 0.0000 -20710.2103 3509.6328 0.0000 0.0000 533.5958 -16665.6042 61.3755 -17199.2000 -16664.9767 60.4423 -8.0640 51.2435 41957.0007 9.0862 9.2373
ENERGY: 40000 0.6558 0.5673 0.2857 0.0000 -20777.6403 3544.7716 0.0000 0.0000 525.7149 -16705.6449 60.4690 -17231.3598 -16703.8983 60.7951 85.9535 137.5057 41995.9849 3.7536 3.6904
ENERGY: 45000 0.2433 0.7923 0.0250 0.0000 -20852.1679 3605.7972 0.0000 0.0000 530.5778 -16714.7323 61.0283 -17245.3101 -16713.3697 60.2074 389.1963 452.7321 41971.7181 3.0414 3.1091
ENERGY: 50000 0.0324 0.6660 0.1078 0.0000 -20841.7218 3566.3823 0.0000 0.0000 528.9067 -16745.6266 60.8361 -17274.5334 -16744.3550 60.6062 96.5923 163.5273 41976.1134 1.4454 1.1940
TCL: Running 25000 steps at 90 kelvin.
TCL: Setting parameter langevinTemp to 90
TCL: Running for 25000 steps
ETITLE: TS BOND ANGLE DIHED IMPRP ELECT VDW BOUNDARY MISC KINETIC TOTAL TEMP POTENTIAL TOTAL3 TEMPAVG PRESSURE GPRESSURE VOLUME PRESSAVG GPRESSAVG
ENERGY: 50000 0.0324 0.6660 0.1078 0.0000 -20841.7218 3566.3823 0.0000 0.0000 528.6448 -16745.8886 60.8060 -17274.5334 -16744.6509 60.8060 115.9474 163.4782 41976.1134 115.9474 163.4782
ENERGY: 55000 0.1420 2.0732 0.1909 0.0000 -20483.2711 3497.8423 0.0000 0.0000 798.1222 -16184.9005 91.8019 -16983.0227 -16183.1386 87.7320 504.5797 560.8269 42074.2724 5.0466 5.4187
ENERGY: 60000 0.1698 0.9481 0.0522 0.0000 -20550.2451 3513.6736 0.0000 0.0000 804.7892 -16230.6122 92.5688 -17035.4015 -16228.1591 90.3990 379.7842 437.4272 42121.4496 1.0230 1.3176
ENERGY: 65000 0.1741 2.2127 0.3347 0.0000 -20320.7298 3276.1047 0.0000 0.0000 768.2693 -16273.6344 88.3682 -17041.9037 -16272.1955 89.8586 -963.5675 -920.9860 42369.4575 2.9837 3.1740
ENERGY: 70000 0.3034 2.0053 0.2553 0.0000 -20574.5135 3482.4312 0.0000 0.0000 800.8053 -16288.7130 92.1105 -17089.5183 -16286.5403 90.1789 106.2146 148.5966 41966.3992 4.4920 4.3933
ENERGY: 75000 0.3208 1.0534 0.0402 0.0000 -20512.4919 3367.6325 0.0000 0.0000 767.5687 -16375.8763 88.2876 -17143.4450 -16374.1067 90.3777 -759.5052 -699.3872 42137.9601 4.5260 4.3901
TCL: Running 25000 steps at 120 kelvin.
TCL: Setting parameter langevinTemp to 120
TCL: Running for 25000 steps
ETITLE: TS BOND ANGLE DIHED IMPRP ELECT VDW BOUNDARY MISC KINETIC TOTAL TEMP POTENTIAL TOTAL3 TEMPAVG PRESSURE GPRESSURE VOLUME PRESSAVG GPRESSAVG
ENERGY: 75000 0.3208 1.0534 0.0402 0.0000 -20512.4919 3367.6325 0.0000 0.0000 767.1700 -16376.2749 88.2417 -17143.4450 -16374.4269 88.2417 -744.4048 -699.7348 42137.9601 -744.4048 -699.7348
ENERGY: 80000 0.3050 2.2291 0.0926 0.0000 -20265.6529 3441.7915 0.0000 0.0000 1070.5470 -15750.6878 123.1369 -16821.2348 -15748.3698 117.3738 459.6089 517.0826 42297.0239 -1.7036 -2.0949
ENERGY: 85000 0.3785 1.5464 0.0827 0.0000 -20231.0508 3350.7436 0.0000 0.0000 1034.5343 -15843.7653 118.9946 -16878.2996 -15842.7069 120.6796 -94.7289 -64.7950 42251.1927 3.8206 3.5922
ENERGY: 90000 0.1481 2.8155 0.1461 0.0000 -20150.1711 3250.2211 0.0000 0.0000 1042.4882 -15854.3521 119.9095 -16896.8403 -15853.3064 120.3665 -653.9400 -565.9096 42199.9120 -0.4894 -0.9038
ENERGY: 95000 0.4897 1.5635 0.2619 0.0000 -20273.2142 3377.2709 0.0000 0.0000 1039.5877 -15854.0405 119.5758 -16893.6282 -15851.7619 120.1120 92.6662 92.9625 42134.9986 12.0023 12.2713
ENERGY: 100000 0.3779 1.5541 0.1201 0.0000 -20276.2063 3335.3092 0.0000 0.0000 1028.3368 -15910.5082 118.2817 -16938.8450 -15908.5849 119.6920 -317.9808 -283.9457 42227.2259 1.3004 1.3479
TCL: Running 25000 steps at 150 kelvin.
TCL: Setting parameter langevinTemp to 150
TCL: Running for 25000 steps
ETITLE: TS BOND ANGLE DIHED IMPRP ELECT VDW BOUNDARY MISC KINETIC TOTAL TEMP POTENTIAL TOTAL3 TEMPAVG PRESSURE GPRESSURE VOLUME PRESSAVG GPRESSAVG
ENERGY: 100000 0.3779 1.5541 0.1201 0.0000 -20276.2063 3335.3092 0.0000 0.0000 1027.8004 -15911.0446 118.2200 -16938.8450 -15909.2355 118.2200 -345.6800 -284.0997 42227.2259 -345.6800 -284.0997
ENERGY: 105000 0.1425 3.4867 1.3854 0.0000 -19783.4482 3209.7635 0.0000 0.0000 1273.8934 -15294.7766 146.5262 -16568.6701 -15290.7104 146.6014 -131.5170 -72.4722 42482.3755 1.9017 1.9951
ENERGY: 110000 1.0234 4.0811 0.2766 0.0000 -20126.2434 3464.9978 0.0000 0.0000 1305.3352 -15350.5293 150.1428 -16655.8645 -15349.5336 148.7128 1136.4028 1183.4249 42155.4407 2.9870 3.1412
ENERGY: 115000 0.9220 1.8367 0.1371 0.0000 -19870.2437 3237.0201 0.0000 0.0000 1311.4498 -15318.8781 150.8461 -16630.3279 -15315.3569 149.2228 -291.4434 -228.2792 42782.6943 9.0652 9.4649
ENERGY: 120000 0.5012 2.6651 0.2530 0.0000 -20006.8813 3400.0121 0.0000 0.0000 1283.9548 -15319.4951 147.6835 -16603.4499 -15316.2492 150.3059 520.6978 617.5378 42524.2097 -0.7361 -0.9074
ENERGY: 125000 0.2047 1.7170 0.2278 0.0000 -19964.0456 3296.2110 0.0000 0.0000 1300.2367 -15365.4486 149.5563 -16665.6852 -15360.1178 149.9844 -39.9845 7.5487 42541.4937 3.8201 4.2581
TCL: Running 50000 steps at 180 kelvin.
TCL: Setting parameter langevinTemp to 180
TCL: Running for 50000 steps
ETITLE: TS BOND ANGLE DIHED IMPRP ELECT VDW BOUNDARY MISC KINETIC TOTAL TEMP POTENTIAL TOTAL3 TEMPAVG PRESSURE GPRESSURE VOLUME PRESSAVG GPRESSAVG
ENERGY: 125000 0.2047 1.7170 0.2278 0.0000 -19964.0456 3296.2110 0.0000 0.0000 1299.5898 -15366.0954 149.4819 -16665.6852 -15363.2477 149.4819 -60.1889 8.0027 42541.4937 -60.1889 8.0027
ENERGY: 135000 0.3744 1.9286 0.0375 0.0000 -19212.6077 2959.4780 0.0000 0.0000 1564.5294 -14686.2598 179.9559 -16250.7892 -14683.5937 179.4012 -1144.4532 -1073.3445 43256.8017 3.3592 3.3211
ENERGY: 145000 1.3966 1.7488 0.2649 0.0000 -19452.8962 3185.3248 0.0000 0.0000 1574.0238 -14690.1373 181.0480 -16264.1611 -14686.5933 179.5745 142.8473 177.1693 43149.2542 -0.7174 -0.5145
ENERGY: 155000 0.5308 3.7370 1.4466 0.0000 -19607.5214 3275.4474 0.0000 0.0000 1595.5418 -14730.8180 183.5230 -16326.3597 -14726.4516 180.1236 598.7170 638.4788 42908.2984 -2.6300 -2.5301
ENERGY: 165000 0.2778 2.8186 0.3040 0.0000 -19420.0807 3078.4758 0.0000 0.0000 1581.7020 -14756.5027 181.9311 -16338.2047 -14753.9437 178.5955 -418.7976 -370.8449 42912.2229 5.3509 5.6557
ENERGY: 175000 1.0509 1.1807 0.4748 0.0000 -19401.1747 3138.7851 0.0000 0.0000 1576.9110 -14682.7723 181.3800 -16259.6832 -14680.2153 181.1337 93.9587 149.3495 42624.7066 6.4608 5.8474
TCL: Running 50000 steps at 210 kelvin.
TCL: Setting parameter langevinTemp to 210
TCL: Running for 50000 steps
ETITLE: TS BOND ANGLE DIHED IMPRP ELECT VDW BOUNDARY MISC KINETIC TOTAL TEMP POTENTIAL TOTAL3 TEMPAVG PRESSURE GPRESSURE VOLUME PRESSAVG GPRESSAVG
ENERGY: 175000 1.0509 1.1807 0.4748 0.0000 -19401.1747 3138.7851 0.0000 0.0000 1576.1218 -14683.5614 181.2893 -16259.6832 -14680.7023 181.2893 80.0489 147.8243 42624.7066 80.0489 147.8243
ENERGY: 185000 0.3650 0.9649 0.2563 0.0000 -18447.7082 2855.2195 0.0000 0.0000 1802.2090 -13788.6935 207.2944 -15590.9025 -13786.4201 209.3835 390.7027 439.2847 42275.3923 3.1591 4.0435
ENERGY: 195000 0.1964 4.4169 0.2500 0.0000 -18235.1775 2714.6192 0.0000 0.0000 1777.1440 -13738.5509 204.4113 -15515.6950 -13735.4256 208.4681 -511.9058 -417.9787 42860.8161 4.6306 3.7039
ENERGY: 205000 1.4291 5.5309 0.5054 0.0000 -18462.2648 2902.3720 0.0000 0.0000 1814.5522 -13737.8751 208.7141 -15552.4274 -13734.5100 210.1368 601.6457 680.4167 42567.2486 0.0449 0.0713
ENERGY: 215000 0.4043 4.7267 0.1896 0.0000 -18500.8222 2863.2396 0.0000 0.0000 1799.1717 -13833.0903 206.9450 -15632.2620 -13829.4820 210.1985 170.9933 202.2401 42668.5505 -3.7085 -3.7950
ENERGY: 225000 0.6456 5.6544 0.3887 0.0000 -18325.0770 2819.4941 0.0000 0.0000 1809.1641 -13689.7301 208.0944 -15498.8943 -13685.1145 210.2860 271.8578 339.1532 42530.2371 1.5655 1.1897
TCL: Running 50000 steps at 240 kelvin.
TCL: Setting parameter langevinTemp to 240
TCL: Running for 50000 steps
ETITLE: TS BOND ANGLE DIHED IMPRP ELECT VDW BOUNDARY MISC KINETIC TOTAL TEMP POTENTIAL TOTAL3 TEMPAVG PRESSURE GPRESSURE VOLUME PRESSAVG GPRESSAVG
ENERGY: 225000 0.6456 5.6544 0.3887 0.0000 -18325.0770 2819.4941 0.0000 0.0000 1808.2771 -13690.6171 207.9923 -15498.8943 -13687.6135 207.9923 252.7741 339.7827 42530.2371 252.7741 339.7827
ENERGY: 235000 0.1252 2.4182 1.2760 0.0000 -17578.7234 2604.0507 0.0000 0.0000 2016.5863 -12954.2670 231.9525 -14970.8533 -12948.4500 238.8938 242.0610 360.0144 42835.5911 2.2116 2.2512
ENERGY: 245000 0.4327 6.4260 0.2547 0.0000 -17669.7783 2657.4523 0.0000 0.0000 2131.4635 -12873.7492 245.1660 -15005.2127 -12869.0123 243.0397 561.1717 629.7432 42931.2633 1.2101 0.5190
ENERGY: 255000 0.1846 5.8834 0.4128 0.0000 -17330.7434 2345.2550 0.0000 0.0000 2085.7322 -12893.2753 239.9059 -14979.0075 -12887.6461 239.3731 -969.9599 -934.8760 42666.7300 1.4559 1.1921
ENERGY: 265000 2.3572 3.6966 1.7651 0.0000 -17543.6378 2618.5038 0.0000 0.0000 2007.9314 -12909.3837 230.9570 -14917.3150 -12905.7158 238.6032 122.8237 223.8426 43262.6249 3.1030 3.0079
ENERGY: 275000 0.8834 5.0808 0.8667 0.0000 -17594.9025 2578.5575 0.0000 0.0000 2053.5413 -12955.9728 236.2032 -15009.5141 -12951.9343 239.5840 -276.9350 -188.2823 43545.2586 -0.8884 -0.1959
TCL: Running 50000 steps at 270 kelvin.
TCL: Setting parameter langevinTemp to 270
TCL: Running for 50000 steps
ETITLE: TS BOND ANGLE DIHED IMPRP ELECT VDW BOUNDARY MISC KINETIC TOTAL TEMP POTENTIAL TOTAL3 TEMPAVG PRESSURE GPRESSURE VOLUME PRESSAVG GPRESSAVG
ENERGY: 275000 0.8834 5.0808 0.8667 0.0000 -17594.9025 2578.5575 0.0000 0.0000 2052.4869 -12957.0272 236.0819 -15009.5141 -12953.7728 236.0819 -257.3983 -188.0079 43545.2586 -257.3983 -188.0079
ENERGY: 285000 0.0686 4.0482 0.2767 0.0000 -16690.0109 2372.0359 0.0000 0.0000 2368.5130 -11945.0684 272.4320 -14313.5815 -11940.0158 271.2120 391.3235 450.1531 43543.3791 5.1510 4.4911
ENERGY: 295000 0.0167 3.9201 0.0776 0.0000 -16640.4060 2330.5668 0.0000 0.0000 2342.2248 -11963.6000 269.4083 -14305.8248 -11957.1855 269.9321 193.6669 273.7573 43541.3217 2.6738 2.4026
ENERGY: 305000 0.5744 6.5451 0.2576 0.0000 -16826.9882 2465.2205 0.0000 0.0000 2378.6262 -11975.7644 273.5952 -14354.3905 -11972.5023 272.1436 713.0924 823.4767 43668.5716 -0.7842 -0.6207
ENERGY: 315000 0.2312 7.1659 0.3051 0.0000 -16564.3501 2255.6193 0.0000 0.0000 2325.4572 -11975.5714 267.4796 -14301.0286 -11971.1726 270.2949 -503.6686 -445.8908 44451.9981 0.3776 1.1178
ENERGY: 325000 0.0602 3.5410 0.8158 0.0000 -16659.8539 2295.5487 0.0000 0.0000 2404.4037 -11955.4845 276.5602 -14359.8882 -11947.9700 269.7665 -268.4392 -143.9571 44048.7543 6.2129 6.4925
TCL: Running 1000000 steps at 300 kelvin.
TCL: Setting parameter langevinTemp to 300
TCL: Running for 1000000 steps
ETITLE: TS BOND ANGLE DIHED IMPRP ELECT VDW BOUNDARY MISC KINETIC TOTAL TEMP POTENTIAL TOTAL3 TEMPAVG PRESSURE GPRESSURE VOLUME PRESSAVG GPRESSAVG
ENERGY: 325000 0.0602 3.5410 0.8158 0.0000 -16659.8539 2295.5487 0.0000 0.0000 2403.2901 -11956.5981 276.4321 -14359.8882 -11953.6840 276.4321 -214.1756 -141.8397 44048.7543 -214.1756 -141.8397
ENERGY: 525000 0.4372 3.6663 0.4687 0.0000 -15953.1239 2173.6953 0.0000 0.0000 2689.9694 -11084.8870 309.4067 -13774.8564 -11078.2996 302.0767 126.6671 209.6164 45232.4053 2.7065 3.0006
ENERGY: 725000 0.0967 4.6295 0.1185 0.0000 -15627.0483 2005.9113 0.0000 0.0000 2609.9506 -11006.3417 300.2027 -13616.2923 -10998.2754 300.7125 -374.6407 -336.4400 45424.9134 2.0431 2.5510
ENERGY: 925000 0.9275 5.1201 0.0898 0.0000 -15786.5975 2043.6695 0.0000 0.0000 2544.8879 -11191.9028 292.7191 -13736.7907 -11186.5095 297.8280 -676.3687 -613.1160 45475.6089 1.5926 1.4482
ENERGY: 1125000 1.9620 4.3065 0.1509 0.0000 -15925.0940 2100.5407 0.0000 0.0000 2556.2102 -11261.9237 294.0214 -13818.1340 -11257.1697 298.6064 -333.4017 -268.3956 45146.7736 7.7222 6.4344
ENERGY: 1325000 3.1621 2.7805 0.4489 0.0000 -15635.7815 2058.6275 0.0000 0.0000 2590.3762 -10980.3864 297.9512 -13570.7626 -10977.1946 301.3769 -411.6793 -341.3448 46225.5004 -0.0975 -0.1074
TCL: Exiting due to exit command.
