Info: SIMULATION PARAMETERS:
Info: TIMESTEP               2
Info: NUMBER OF STEPS        0
Info: STEPS PER CYCLE        10
Info: PERIODIC CELL BASIS 1  39.806 0 0
Info: PERIODIC CELL BASIS 2  0 40.343 0
Info: PERIODIC CELL BASIS 3  0 0 39.797
Info: PERIODIC CELL CENTER   0 0 0
Info: WRAPPING WATERS AROUND PERIODIC BOUNDARIES ON OUTPUT.
Info: WRAPPING ALL CLUSTERS AROUND PERIODIC BOUNDARIES ON OUTPUT.
Info: FIRST LDB TIMESTEP     50
Info: LAST LDB TIMESTEP     -1
Info: HOM BACKGROUND SCALING 1
Info: PME BACKGROUND SCALING 1
Info: MIN ATOMS PER PATCH    40
Info: EMPTY PATCH LOAD       40 ATOMS
Info: INITIAL TEMPERATURE    300
Info: CENTER OF MASS MOVING INITIALLY? NO
Info: DIELECTRIC             1
Info: EXCLUDE                SCALED ONE-FOUR
Info: 1-4 ELECTROSTATICS SCALED BY 0.833333
Info: MODIFIED 1-4 VDW PARAMETERS WILL BE USED
Info: DCD FILENAME           mobley_197466_min.dcd
Info: DCD FREQUENCY          5000
Info: DCD FIRST STEP         5000
Info: DCD FILE WILL CONTAIN UNIT CELL DATA
Info: XST FILENAME           mobley_197466_min.xst
Info: XST FREQUENCY          5000
Info: NO VELOCITY DCD OUTPUT
Info: NO FORCE DCD OUTPUT
Info: OUTPUT FILENAME        mobley_197466_min
Info: BINARY OUTPUT FILES WILL BE USED
Info: RESTART FILENAME       mobley_197466_min.restart
Info: RESTART FREQUENCY      5000
Info: BINARY RESTART FILES WILL BE USED
Info: CUTOFF                 9
Info: PAIRLIST DISTANCE      11
Info: PAIRLIST SHRINK RATE   0.01
Info: PAIRLIST GROW RATE     0.01
Info: PAIRLIST TRIGGER       0.3
Info: PAIRLISTS PER CYCLE    2
Info: PAIRLISTS ENABLED
Info: MARGIN                 8
Info: HYDROGEN GROUP CUTOFF  2.5
Info: PATCH DIMENSION        21.5
Info: ENERGY OUTPUT STEPS    5000
Info: ENERGY EVALUATION STEPS    5000
Info: OUTPUT ENERGY PRECISION 4
Info: CROSSTERM ENERGY INCLUDED IN DIHEDRAL
Info: TIMING OUTPUT STEPS    50000
Info: PRESSURE OUTPUT STEPS  5000
Info: LANGEVIN DYNAMICS ACTIVE
Info: LANGEVIN TEMPERATURE   300
Info: LANGEVIN USING BBK INTEGRATOR
Info: LANGEVIN DAMPING COEFFICIENT IS 1 INVERSE PS
Info: LANGEVIN DYNAMICS APPLIED TO HYDROGENS
Info: LANGEVIN PISTON PRESSURE CONTROL ACTIVE
Info:        TARGET PRESSURE IS 1.01325 BAR
Info:     OSCILLATION PERIOD IS 50 FS
Info:             DECAY TIME IS 25 FS
Info:     PISTON TEMPERATURE IS 300 K
Info:       PRESSURE CONTROL IS GROUP-BASED
Info:    INITIAL STRAIN RATE IS 0 0 0
Info:       CELL FLUCTUATION IS ISOTROPIC
Info: PARTICLE MESH EWALD (PME) ACTIVE
Info: PME TOLERANCE               1e-06
Info: PME EWALD COEFFICIENT       0.348832
Info: PME INTERPOLATION ORDER     4
Info: PME GRID DIMENSIONS         40 44 40
Info: PME MAXIMUM GRID SPACING    1
Info: FULL ELECTROSTATIC EVALUATION FREQUENCY      2
Info: USING VERLET I (r-RESPA) MTS SCHEME.
Info: C1 SPLITTING OF LONG RANGE ELECTROSTATICS
Info: PLACING ATOMS IN PATCHES BY HYDROGEN GROUPS
Info: RIGID BONDS TO HYDROGEN : ALL
Info:         ERROR TOLERANCE : 1e-08
Info:          MAX ITERATIONS : 100
Info: RIGID WATER USING SETTLE ALGORITHM
Info: RANDOM NUMBER SEED     1741316968
Info: USE HYDROGEN BONDS?    NO
Info: Using AMBER format force field!
Info: AMBER PARM FILE        mobley_197466.prmtop
Info: COORDINATE PDB         mobley_197466.pdb
Info: Exclusions will be read from PARM file!
Info: SCNB (VDW SCALING)     2
Info: USING ARITHMETIC MEAN TO COMBINE L-J SIGMA PARAMETERS
Info: SUMMARY OF PARAMETERS:
Info: 8 BONDS
Info: 10 ANGLES
Info:   10 HARMONIC
Info:   0 COSINE-BASED
Info: 5 DIHEDRAL
Info: 0 IMPROPER
Info: 0 CROSSTERM
Info: 0 VDW
Info: 21 VDW_PAIRS
Info: 0 NBTHOLE_PAIRS
Info: STRUCTURE SUMMARY:
Info: 4700 ATOMS
Info: 4700 BONDS
Info: 27 ANGLES
Info: 40 DIHEDRALS
Info: 0 IMPROPERS
Info: 0 CROSSTERMS
Info: 4748 EXCLUSIONS
Info: 4694 RIGID BONDS
Info: 9406 DEGREES OF FREEDOM
Info: 1568 HYDROGEN GROUPS
Info: 4 ATOMS IN LARGEST HYDROGEN GROUP
Info: 1568 MIGRATION GROUPS
Info: 4 ATOMS IN LARGEST MIGRATION GROUP
Info: TOTAL MASS = 28225.1 amu
Info: TOTAL CHARGE = 9.99719e-05 e
Info: MASS DENSITY = 0.733378 g/cm^3
Info: ATOM DENSITY = 0.0735412 atoms/A^3
Info: ADDED 0 IMPLICIT EXCLUSIONS
Info: NONBONDED TABLE R-SQUARED SPACING: 0.0625
Info: NONBONDED TABLE SIZE: 705 POINTS
Info: REMOVING COM VELOCITY -0.0380394 0.0505145 -0.0635381
TCL: Minimizing for 2000 steps
ETITLE: TS BOND ANGLE DIHED IMPRP ELECT VDW BOUNDARY MISC KINETIC TOTAL TEMP POTENTIAL TOTAL3 TEMPAVG PRESSURE GPRESSURE VOLUME PRESSAVG GPRESSAVG
ENERGY: 0 0.5509 0.3629 29.6254 0.0000 -14708.0449 1674.2384 0.0000 0.0000 0.0000 -13003.2673 0.0000 -13003.2673 -13003.2673 0.0000 11316.4912 -16156.1380 63909.7419 11316.4912 -16156.1380
ENERGY: 400 2.5144 2.5688 29.2319 0.0000 -19574.4457 2804.7737 0.0000 0.0000 0.0000 -16735.3570 0.0000 -16735.3570 -16735.3570 0.0000 15695.3459 15502.9113 63909.7419 15695.3459 15502.9113
ENERGY: 800 29.7870 9.8359 29.6542 0.0000 -20673.9213 3294.8032 0.0000 0.0000 0.0000 -17309.8410 0.0000 -17309.8410 -17309.8410 0.0000 18129.4742 17901.4812 63909.7419 18129.4742 17901.4812
ENERGY: 1200 3.1750 1.1852 28.1497 0.0000 -21183.6537 3551.5371 0.0000 0.0000 0.0000 -17599.6066 0.0000 -17599.6066 -17599.6066 0.0000 19366.2409 19140.6262 63909.7419 19366.2409 19140.6262
ENERGY: 1600 0.2446 1.3225 27.8229 0.0000 -21371.2758 3624.6687 0.0000 0.0000 0.0000 -17717.2172 0.0000 -17717.2172 -17717.2172 0.0000 19735.6465 19497.6690 63909.7419 19735.6465 19497.6690
ENERGY: 2000 0.1601 1.0235 28.0513 0.0000 -21550.2899 3707.7604 0.0000 0.0000 0.0000 -17813.2946 0.0000 -17813.2946 -17813.2946 0.0000 20210.9879 19951.5689 63909.7419 20210.9879 19951.5689
TCL: Exiting due to exit command.
Info: NAMD 3.0.1 for Linux-x86_64-multicore
Info: Please visit http://www.ks.uiuc.edu/Research/namd/
Info: for updates, documentation, and support information.
Info: Please cite Phillips et al., J. Chem. Phys. 153:044130 (2020) doi:10.1063/5.0014475
Info: in all publications reporting results obtained with NAMD.
Info: Based on Charm++/Converse 80000 for multicore-linux-x86_64-gcc
Info: Built Mon Oct 14 11:11:06 CDT 2024 by dhardy on athine.ks.uiuc.edu
Info: 1 NAMD  3.0.1  Linux-x86_64-multicore  16    k068  z5358697
Info: Running on 16 processors, 1 nodes, 1 physical nodes.
Info: CPU topology information available.
Info: Charm++/Converse parallel runtime startup completed at 0.00714628 s
Info: 1043.48 MB of memory in use based on /proc/self/stat
Info: Configuration file is mobley_197466_equil.namd
Info: Working in the current directory /srv/scratch/z5358697/prod_prep_1/197466
TCL: Running 25000 steps at 30 kelvin.
TCL: Suspending until startup complete.
Info: SIMULATION PARAMETERS:
Info: TIMESTEP               2
Info: NUMBER OF STEPS        0
Info: STEPS PER CYCLE        10
Info: PERIODIC CELL BASIS 1  39.806 0 0
Info: PERIODIC CELL BASIS 2  0 40.343 0
Info: PERIODIC CELL BASIS 3  0 0 39.797
Info: PERIODIC CELL CENTER   0 0 0
Info: WRAPPING WATERS AROUND PERIODIC BOUNDARIES ON OUTPUT.
Info: WRAPPING ALL CLUSTERS AROUND PERIODIC BOUNDARIES ON OUTPUT.
Info: FIRST LDB TIMESTEP     50
Info: LAST LDB TIMESTEP     -1
Info: HOM BACKGROUND SCALING 1
Info: PME BACKGROUND SCALING 1
Info: MIN ATOMS PER PATCH    40
Info: EMPTY PATCH LOAD       40 ATOMS
Info: INITIAL TEMPERATURE    300
Info: CENTER OF MASS MOVING INITIALLY? NO
Info: DIELECTRIC             1
Info: EXCLUDE                SCALED ONE-FOUR
Info: 1-4 ELECTROSTATICS SCALED BY 0.833333
Info: MODIFIED 1-4 VDW PARAMETERS WILL BE USED
Info: DCD FILENAME           mobley_197466_equil.dcd
Info: DCD FREQUENCY          5000
Info: DCD FIRST STEP         5000
Info: DCD FILE WILL CONTAIN UNIT CELL DATA
Info: XST FILENAME           mobley_197466_equil.xst
Info: XST FREQUENCY          5000
Info: NO VELOCITY DCD OUTPUT
Info: NO FORCE DCD OUTPUT
Info: OUTPUT FILENAME        mobley_197466_equil
Info: BINARY OUTPUT FILES WILL BE USED
Info: RESTART FILENAME       mobley_197466_equil.restart
Info: RESTART FREQUENCY      5000
Info: BINARY RESTART FILES WILL BE USED
Info: CUTOFF                 9
Info: PAIRLIST DISTANCE      11
Info: PAIRLIST SHRINK RATE   0.01
Info: PAIRLIST GROW RATE     0.01
Info: PAIRLIST TRIGGER       0.3
Info: PAIRLISTS PER CYCLE    2
Info: PAIRLISTS ENABLED
Info: MARGIN                 8
Info: HYDROGEN GROUP CUTOFF  2.5
Info: PATCH DIMENSION        21.5
Info: ENERGY OUTPUT STEPS    5000
Info: ENERGY EVALUATION STEPS    5000
Info: OUTPUT ENERGY PRECISION 4
Info: CROSSTERM ENERGY INCLUDED IN DIHEDRAL
Info: TIMING OUTPUT STEPS    50000
Info: PRESSURE OUTPUT STEPS  5000
Info: LANGEVIN DYNAMICS ACTIVE
Info: LANGEVIN TEMPERATURE   30
Info: LANGEVIN USING BBK INTEGRATOR
Info: LANGEVIN DAMPING COEFFICIENT IS 1 INVERSE PS
Info: LANGEVIN DYNAMICS APPLIED TO HYDROGENS
Info: LANGEVIN PISTON PRESSURE CONTROL ACTIVE
Info:        TARGET PRESSURE IS 1.01325 BAR
Info:     OSCILLATION PERIOD IS 50 FS
Info:             DECAY TIME IS 25 FS
Info:     PISTON TEMPERATURE IS 300 K
Info:       PRESSURE CONTROL IS GROUP-BASED
Info:    INITIAL STRAIN RATE IS 0 0 0
Info:       CELL FLUCTUATION IS ISOTROPIC
Info: PARTICLE MESH EWALD (PME) ACTIVE
Info: PME TOLERANCE               1e-06
Info: PME EWALD COEFFICIENT       0.348832
Info: PME INTERPOLATION ORDER     4
Info: PME GRID DIMENSIONS         40 44 40
Info: PME MAXIMUM GRID SPACING    1
Info: FULL ELECTROSTATIC EVALUATION FREQUENCY      2
Info: USING VERLET I (r-RESPA) MTS SCHEME.
Info: C1 SPLITTING OF LONG RANGE ELECTROSTATICS
Info: PLACING ATOMS IN PATCHES BY HYDROGEN GROUPS
Info: RIGID BONDS TO HYDROGEN : ALL
Info:         ERROR TOLERANCE : 1e-08
Info:          MAX ITERATIONS : 100
Info: RIGID WATER USING SETTLE ALGORITHM
Info: RANDOM NUMBER SEED     1741316987
Info: USE HYDROGEN BONDS?    NO
Info: Using AMBER format force field!
Info: AMBER PARM FILE        mobley_197466.prmtop
Info: COORDINATE PDB         mobley_197466.pdb
Info: Exclusions will be read from PARM file!
Info: SCNB (VDW SCALING)     2
Info: USING ARITHMETIC MEAN TO COMBINE L-J SIGMA PARAMETERS
Info: BINARY COORDINATES     mobley_197466_min.coor
Info: SUMMARY OF PARAMETERS:
Info: 8 BONDS
Info: 10 ANGLES
Info: 5 DIHEDRAL
Info: 0 IMPROPER
Info: 0 CROSSTERM
Info: 0 VDW
Info: 21 VDW_PAIRS
Info: 0 NBTHOLE_PAIRS
Info: STRUCTURE SUMMARY:
Info: 4700 ATOMS
Info: 4700 BONDS
Info: 27 ANGLES
Info: 40 DIHEDRALS
Info: 0 IMPROPERS
Info: 0 CROSSTERMS
Info: 4748 EXCLUSIONS
Info: 4694 RIGID BONDS
Info: 9406 DEGREES OF FREEDOM
Info: 1568 HYDROGEN GROUPS
Info: 4 ATOMS IN LARGEST HYDROGEN GROUP
Info: 1568 MIGRATION GROUPS
Info: 4 ATOMS IN LARGEST MIGRATION GROUP
Info: TOTAL MASS = 28225.1 amu
Info: TOTAL CHARGE = 9.99719e-05 e
Info: MASS DENSITY = 0.733378 g/cm^3
Info: ATOM DENSITY = 0.0735412 atoms/A^3
Info: ADDED 0 IMPLICIT EXCLUSIONS
Info: NONBONDED TABLE R-SQUARED SPACING: 0.0625
Info: NONBONDED TABLE SIZE: 705 POINTS
Info: REMOVING COM VELOCITY 0.0440031 -0.142574 0.011177
TCL: Running for 25000 steps
ETITLE: TS BOND ANGLE DIHED IMPRP ELECT VDW BOUNDARY MISC KINETIC TOTAL TEMP POTENTIAL TOTAL3 TEMPAVG PRESSURE GPRESSURE VOLUME PRESSAVG GPRESSAVG
ENERGY: 0 0.1601 1.0235 28.0513 0.0000 -21550.2899 3707.7604 0.0000 0.0000 2774.0363 -15039.2583 296.8230 -17813.2947 -15038.6687 296.8230 -12.6842 25.7623 63909.7419 -12.6842 25.7623
ENERGY: 5000 0.3115 1.8777 27.7487 0.0000 -22663.7450 3968.2618 0.0000 0.0000 279.4690 -18386.0764 29.9033 -18665.5453 -18385.7483 47.6801 213.2979 257.8609 45400.3897 -1.0312 -0.7559
ENERGY: 10000 0.5026 1.6571 27.7224 0.0000 -22570.0625 3818.6320 0.0000 0.0000 282.7883 -18438.7602 30.2585 -18721.5485 -18438.0889 30.2514 -654.6477 -580.5725 45260.6060 6.9352 6.9337
ENERGY: 15000 0.0842 2.1627 27.7617 0.0000 -22653.1983 3891.0229 0.0000 0.0000 280.6009 -18451.5660 30.0244 -18732.1669 -18451.0068 30.1883 -281.8577 -226.6794 45111.8798 -2.6518 -2.7525
ENERGY: 20000 0.3846 1.2235 28.4336 0.0000 -22697.0802 3923.0362 0.0000 0.0000 277.4208 -18466.5813 29.6841 -18744.0021 -18465.8147 29.9230 -152.2184 -95.1458 45164.7075 0.2100 0.0685
ENERGY: 25000 0.1026 1.6979 28.4373 0.0000 -22676.1554 3907.6143 0.0000 0.0000 280.8336 -18457.4698 30.0493 -18738.3034 -18456.9477 30.0470 -188.9485 -141.1835 45212.5480 7.2319 7.1128
TCL: Running 25000 steps at 60 kelvin.
TCL: Setting parameter langevinTemp to 60
TCL: Running for 25000 steps
ETITLE: TS BOND ANGLE DIHED IMPRP ELECT VDW BOUNDARY MISC KINETIC TOTAL TEMP POTENTIAL TOTAL3 TEMPAVG PRESSURE GPRESSURE VOLUME PRESSAVG GPRESSAVG
ENERGY: 25000 0.1026 1.6979 28.4373 0.0000 -22676.1554 3907.6143 0.0000 0.0000 280.6865 -18457.6169 30.0336 -18738.3034 -18457.0582 30.0336 -195.5501 -141.3355 45212.5480 -195.5501 -141.3355
ENERGY: 30000 0.2398 2.4646 29.0888 0.0000 -22219.3059 3710.7385 0.0000 0.0000 551.5612 -17925.2131 59.0173 -18476.7743 -17923.6912 56.8960 -690.4888 -615.6361 45680.2896 2.6855 2.8715
ENERGY: 35000 0.6281 1.8243 27.9177 0.0000 -22291.0068 3751.1039 0.0000 0.0000 556.7160 -17952.8167 59.5688 -18509.5328 -17951.1199 60.4227 -540.6854 -511.0244 45605.6416 5.0940 5.0933
ENERGY: 40000 0.4357 3.0422 28.7911 0.0000 -22430.1949 3861.7635 0.0000 0.0000 570.9301 -17965.2324 61.0897 -18536.1625 -17963.8894 60.3802 -2.0172 38.2734 45480.9622 -1.3048 -1.1453
ENERGY: 45000 0.1835 2.2311 28.3901 0.0000 -22489.0469 3891.2261 0.0000 0.0000 542.0860 -18024.9302 58.0034 -18567.0162 -18023.7984 60.4562 175.9716 228.8304 45289.2574 2.4860 2.7327
ENERGY: 50000 0.5771 3.0115 27.3238 0.0000 -22231.0922 3632.8645 0.0000 0.0000 571.3384 -17995.9769 61.1334 -18567.3153 -17994.0440 60.0090 -1246.5072 -1199.4647 45550.8178 1.5430 1.3788
TCL: Running 25000 steps at 90 kelvin.
TCL: Setting parameter langevinTemp to 90
TCL: Running for 25000 steps
ETITLE: TS BOND ANGLE DIHED IMPRP ELECT VDW BOUNDARY MISC KINETIC TOTAL TEMP POTENTIAL TOTAL3 TEMPAVG PRESSURE GPRESSURE VOLUME PRESSAVG GPRESSAVG
ENERGY: 50000 0.5771 3.0115 27.3238 0.0000 -22231.0922 3632.8645 0.0000 0.0000 571.0674 -17996.2478 61.1044 -18567.3153 -17995.0094 61.1044 -1251.7238 -1199.1532 45550.8178 -1251.7238 -1199.1532
ENERGY: 55000 0.4014 2.5813 28.8017 0.0000 -21915.8987 3600.1201 0.0000 0.0000 837.4029 -17446.5913 89.6024 -18283.9942 -17444.6193 86.9839 -794.6107 -733.4878 45781.0839 8.0643 8.4133
ENERGY: 60000 0.2776 4.0852 27.3047 0.0000 -22171.6383 3845.7499 0.0000 0.0000 856.8985 -17437.3224 91.6885 -18294.2210 -17435.2713 89.6821 660.3381 705.7488 45076.1238 3.9075 3.8841
ENERGY: 65000 0.6161 5.0887 26.4469 0.0000 -22232.1411 3854.0584 0.0000 0.0000 835.4546 -17510.4763 89.3940 -18345.9310 -17507.6372 90.6714 641.3360 723.5720 44958.9337 5.8005 6.2716
ENERGY: 70000 0.3994 3.6692 27.2965 0.0000 -22045.0837 3652.0502 0.0000 0.0000 845.5976 -17516.0708 90.4793 -18361.6684 -17513.7462 89.5947 -462.4991 -435.5418 45463.5686 3.3966 2.9956
ENERGY: 75000 0.2556 2.9304 28.8985 0.0000 -22080.9845 3675.4666 0.0000 0.0000 832.3479 -17541.0855 89.0616 -18373.4334 -17538.4034 91.2930 -406.3119 -411.1244 45369.1586 -0.3071 -0.3495
TCL: Running 25000 steps at 120 kelvin.
TCL: Setting parameter langevinTemp to 120
TCL: Running for 25000 steps
ETITLE: TS BOND ANGLE DIHED IMPRP ELECT VDW BOUNDARY MISC KINETIC TOTAL TEMP POTENTIAL TOTAL3 TEMPAVG PRESSURE GPRESSURE VOLUME PRESSAVG GPRESSAVG
ENERGY: 75000 0.2556 2.9304 28.8985 0.0000 -22080.9845 3675.4666 0.0000 0.0000 831.9339 -17541.4995 89.0173 -18373.4334 -17539.4154 89.0173 -455.3549 -411.4030 45369.1586 -455.3549 -411.4030
ENERGY: 80000 0.7921 3.4150 28.4718 0.0000 -21761.2490 3678.1337 0.0000 0.0000 1103.9048 -16946.5317 118.1183 -18050.4365 -16944.9586 117.2206 243.8910 304.3397 45534.1485 1.5679 1.6488
ENERGY: 85000 0.2770 3.3191 29.6495 0.0000 -21778.6570 3681.6593 0.0000 0.0000 1128.3150 -16935.4372 120.7302 -18063.7522 -16932.7584 120.6171 251.1467 325.2302 45633.9399 -1.7736 -1.8971
ENERGY: 90000 0.9455 2.7653 28.6661 0.0000 -21612.2180 3481.3528 0.0000 0.0000 1120.9707 -16977.5176 119.9443 -18098.4882 -16975.1871 120.0775 -851.6098 -830.8879 45885.6850 8.5854 8.2977
ENERGY: 95000 0.3517 3.6224 28.8924 0.0000 -21887.4237 3721.6039 0.0000 0.0000 1130.2717 -17002.6816 120.9395 -18132.9533 -16999.9449 119.9498 265.7608 284.9050 45612.6518 3.1339 3.1734
ENERGY: 100000 0.7545 2.9615 29.2585 0.0000 -21750.2972 3540.4785 0.0000 0.0000 1121.9246 -17054.9195 120.0464 -18176.8441 -17052.6962 119.7949 -780.0027 -732.6093 45984.2088 1.0935 1.4571
TCL: Running 25000 steps at 150 kelvin.
TCL: Setting parameter langevinTemp to 150
TCL: Running for 25000 steps
ETITLE: TS BOND ANGLE DIHED IMPRP ELECT VDW BOUNDARY MISC KINETIC TOTAL TEMP POTENTIAL TOTAL3 TEMPAVG PRESSURE GPRESSURE VOLUME PRESSAVG GPRESSAVG
ENERGY: 100000 0.7545 2.9615 29.2585 0.0000 -21750.2972 3540.4785 0.0000 0.0000 1121.3653 -17055.4788 119.9865 -18176.8441 -17053.1299 119.9865 -780.1413 -732.6410 45984.2088 -780.1413 -732.6410
ENERGY: 105000 0.4222 5.1552 27.8335 0.0000 -21277.9431 3450.5313 0.0000 0.0000 1407.4920 -16386.5088 150.6022 -17794.0008 -16382.0948 146.5841 -459.0710 -412.2425 46188.8951 2.1928 2.0312
ENERGY: 110000 0.7657 4.2622 30.2428 0.0000 -21354.4522 3493.5740 0.0000 0.0000 1423.3456 -16402.2620 152.2986 -17825.6076 -16399.9005 149.9661 -262.6557 -171.5311 45986.1530 2.0902 1.7072
ENERGY: 115000 0.7035 2.4265 29.9065 0.0000 -21414.9244 3585.4950 0.0000 0.0000 1421.7579 -16374.6350 152.1287 -17796.3929 -16371.4800 150.6170 291.8390 348.2348 45864.6152 2.4008 2.8531
ENERGY: 120000 0.6182 1.7354 29.5364 0.0000 -21290.0316 3447.4888 0.0000 0.0000 1431.3704 -16379.2824 153.1572 -17810.6528 -16378.3250 151.0182 -403.2438 -349.0087 45981.3672 0.1926 -0.2557
ENERGY: 125000 1.1870 3.5908 28.7167 0.0000 -21491.4179 3571.9398 0.0000 0.0000 1427.3467 -16458.6369 152.7267 -17885.9836 -16455.4453 150.6528 154.6952 246.9859 45505.4851 1.8274 1.6612
TCL: Running 50000 steps at 180 kelvin.
TCL: Setting parameter langevinTemp to 180
TCL: Running for 50000 steps
ETITLE: TS BOND ANGLE DIHED IMPRP ELECT VDW BOUNDARY MISC KINETIC TOTAL TEMP POTENTIAL TOTAL3 TEMPAVG PRESSURE GPRESSURE VOLUME PRESSAVG GPRESSAVG
ENERGY: 125000 1.1870 3.5908 28.7167 0.0000 -21491.4179 3571.9398 0.0000 0.0000 1426.6635 -16459.3201 152.6536 -17885.9836 -16456.4537 152.6536 198.0192 247.2462 45505.4851 198.0192 247.2462
ENERGY: 135000 1.7558 4.8794 28.8440 0.0000 -20700.4712 3241.7751 0.0000 0.0000 1642.3944 -15780.8226 175.7369 -17423.2169 -15778.7677 179.5977 -615.3853 -564.3905 46023.4281 3.9193 4.1795
ENERGY: 145000 1.7893 4.2314 28.4132 0.0000 -20886.4874 3354.2938 0.0000 0.0000 1671.1328 -15826.6269 178.8119 -17497.7596 -15824.9057 180.1940 -30.7252 95.5871 45441.2909 2.6068 2.3089
ENERGY: 155000 1.5392 6.4482 28.1072 0.0000 -20971.9879 3434.2851 0.0000 0.0000 1724.3323 -15777.2758 184.5042 -17501.6081 -15774.1866 180.1818 691.8473 726.5195 45190.9657 2.5381 2.4433
ENERGY: 165000 0.2630 5.2260 29.3994 0.0000 -21040.0057 3509.3373 0.0000 0.0000 1701.9762 -15793.8038 182.1121 -17495.7800 -15790.2526 180.3197 812.5252 880.3044 45485.3159 1.8813 1.8842
ENERGY: 175000 0.5160 3.0949 28.6718 0.0000 -20868.2796 3324.6678 0.0000 0.0000 1678.8577 -15832.4714 179.6385 -17511.3291 -15828.5447 180.3000 -388.5811 -325.4993 46089.7890 1.8028 1.7350
TCL: Running 50000 steps at 210 kelvin.
TCL: Setting parameter langevinTemp to 210
TCL: Running for 50000 steps
ETITLE: TS BOND ANGLE DIHED IMPRP ELECT VDW BOUNDARY MISC KINETIC TOTAL TEMP POTENTIAL TOTAL3 TEMPAVG PRESSURE GPRESSURE VOLUME PRESSAVG GPRESSAVG
ENERGY: 175000 0.5160 3.0949 28.6718 0.0000 -20868.2796 3324.6678 0.0000 0.0000 1678.0130 -15833.3160 179.5481 -17511.3291 -15829.7575 179.5481 -395.9386 -325.6426 46089.7890 -395.9386 -325.6426
ENERGY: 185000 1.2401 6.1354 28.4523 0.0000 -19987.9841 3111.8414 0.0000 0.0000 1943.9980 -14896.3169 208.0086 -16840.3149 -14893.4776 209.8492 268.1484 341.3927 45748.8202 4.7237 4.5068
ENERGY: 195000 1.1369 8.5869 26.8380 0.0000 -19653.4944 2914.7751 0.0000 0.0000 1943.5029 -14758.6545 207.9556 -16702.1575 -14754.2871 210.5503 -677.8166 -590.7063 46199.2181 8.1543 7.4472
ENERGY: 205000 2.3372 6.9775 27.1807 0.0000 -19916.6410 3103.8449 0.0000 0.0000 1954.4541 -14821.8466 209.1274 -16776.3007 -14818.7405 211.3199 361.9177 392.6766 45921.5932 0.8604 0.9104
ENERGY: 215000 1.2316 4.0208 27.6178 0.0000 -19677.9620 2908.2847 0.0000 0.0000 1966.4301 -14770.3769 210.4088 -16736.8070 -14765.9172 208.7868 -725.5592 -637.9208 46151.3129 2.0341 1.3603
ENERGY: 225000 2.1529 5.2672 29.4688 0.0000 -19808.4935 2976.1095 0.0000 0.0000 1950.3423 -14845.1528 208.6874 -16795.4952 -14842.4535 209.2342 -285.4417 -200.9485 45437.8593 4.1677 4.4448
TCL: Running 50000 steps at 240 kelvin.
TCL: Setting parameter langevinTemp to 240
TCL: Running for 50000 steps
ETITLE: TS BOND ANGLE DIHED IMPRP ELECT VDW BOUNDARY MISC KINETIC TOTAL TEMP POTENTIAL TOTAL3 TEMPAVG PRESSURE GPRESSURE VOLUME PRESSAVG GPRESSAVG
ENERGY: 225000 2.1529 5.2672 29.4688 0.0000 -19808.4935 2976.1095 0.0000 0.0000 1949.3519 -14846.1433 208.5814 -16795.4952 -14842.9537 208.5814 -277.1513 -202.1560 45437.8593 -277.1513 -202.1560
ENERGY: 235000 0.8245 6.9522 29.2358 0.0000 -18860.3368 2733.5892 0.0000 0.0000 2245.5054 -13844.2297 240.2700 -16089.7351 -13839.0657 240.3844 -226.4352 -108.1264 46325.8498 -3.0480 -3.2720
ENERGY: 245000 1.4690 7.4762 28.0443 0.0000 -18858.2457 2774.0193 0.0000 0.0000 2182.1912 -13865.0457 233.4953 -16047.2369 -13861.3649 240.5784 -120.8482 -40.4049 46785.1430 1.4983 1.8661
ENERGY: 255000 0.7341 6.7998 28.9165 0.0000 -18724.8000 2651.9944 0.0000 0.0000 2187.2023 -13849.1529 234.0315 -16036.3552 -13844.1526 241.7689 -713.2870 -582.3577 46877.0537 4.9402 5.5246
ENERGY: 265000 2.5707 5.1091 27.1356 0.0000 -18596.9242 2543.6968 0.0000 0.0000 2235.9453 -13782.4667 239.2470 -16018.4120 -13776.8103 239.8071 -987.3483 -923.7554 46548.0031 4.6761 4.4873
ENERGY: 275000 0.9235 4.7165 28.1288 0.0000 -18734.9413 2710.6759 0.0000 0.0000 2254.5237 -13735.9729 241.2349 -15990.4965 -13730.4811 240.9419 -198.7101 -94.0954 46428.4331 -0.8648 -1.1007
TCL: Running 50000 steps at 270 kelvin.
TCL: Setting parameter langevinTemp to 270
TCL: Running for 50000 steps
ETITLE: TS BOND ANGLE DIHED IMPRP ELECT VDW BOUNDARY MISC KINETIC TOTAL TEMP POTENTIAL TOTAL3 TEMPAVG PRESSURE GPRESSURE VOLUME PRESSAVG GPRESSAVG
ENERGY: 275000 0.9235 4.7165 28.1288 0.0000 -18734.9413 2710.6759 0.0000 0.0000 2253.4119 -13737.0846 241.1160 -15990.4965 -13732.6502 241.1160 -191.9623 -94.2175 46428.4331 -191.9623 -94.2175
ENERGY: 285000 2.0803 6.3021 29.0042 0.0000 -17715.3675 2329.6797 0.0000 0.0000 2548.4225 -12799.8787 272.6822 -15348.3012 -12793.5947 268.8927 -1122.2515 -1061.2923 47996.3121 -3.9252 -3.9781
ENERGY: 295000 0.7392 5.4458 29.7163 0.0000 -17779.4001 2454.2729 0.0000 0.0000 2499.5643 -12789.6616 267.4544 -15289.2259 -12786.0863 271.1620 -154.0121 -88.1591 47580.7893 6.5345 6.8915
ENERGY: 305000 2.3352 12.6556 26.2321 0.0000 -17761.9418 2441.9962 0.0000 0.0000 2532.6676 -12746.0550 270.9965 -15278.7227 -12739.7202 271.2787 -413.7878 -339.3473 48162.3305 -1.9473 -1.4237
ENERGY: 315000 1.4595 7.4191 29.0020 0.0000 -17937.7353 2558.8625 0.0000 0.0000 2605.4045 -12735.5876 278.7793 -15340.9922 -12730.8786 271.3415 379.1244 459.1390 47062.4158 5.5777 5.2731
ENERGY: 325000 1.6608 4.5480 28.3801 0.0000 -17946.1269 2539.8780 0.0000 0.0000 2474.9911 -12896.6689 264.8250 -15371.6600 -12889.5006 270.0389 14.9835 170.0842 46951.5336 1.0536 1.3317
TCL: Running 1000000 steps at 300 kelvin.
TCL: Setting parameter langevinTemp to 300
TCL: Running for 1000000 steps
ETITLE: TS BOND ANGLE DIHED IMPRP ELECT VDW BOUNDARY MISC KINETIC TOTAL TEMP POTENTIAL TOTAL3 TEMPAVG PRESSURE GPRESSURE VOLUME PRESSAVG GPRESSAVG
ENERGY: 325000 1.6608 4.5480 28.3801 0.0000 -17946.1269 2539.8780 0.0000 0.0000 2473.7497 -12897.9103 264.6922 -15371.6600 -12894.7530 264.6922 80.9788 172.4087 46951.5336 80.9788 172.4087
ENERGY: 525000 1.6993 2.6896 28.3155 0.0000 -17254.6949 2420.9671 0.0000 0.0000 2871.6385 -11929.3848 307.2665 -14801.0233 -11927.8594 300.5330 443.4832 521.3260 48275.4193 4.1859 4.1962
ENERGY: 725000 1.9338 3.7906 29.0579 0.0000 -17090.8609 2372.4249 0.0000 0.0000 2790.0536 -11893.6002 298.5369 -14683.6537 -11887.6799 298.9703 500.3539 616.0162 48013.4918 1.1508 1.5402
ENERGY: 925000 0.1125 6.4042 30.4084 0.0000 -17032.2118 2273.6753 0.0000 0.0000 2781.0791 -11940.5322 297.5766 -14721.6113 -11934.8370 301.2227 -284.6245 -235.5987 49233.0911 4.2041 4.0830
ENERGY: 1125000 0.5537 6.6098 28.3676 0.0000 -17132.7686 2263.9448 0.0000 0.0000 2854.8142 -11978.4785 305.4663 -14833.2927 -11973.3198 299.6642 -295.3262 -158.4023 47933.6292 0.8795 0.9220
ENERGY: 1325000 0.5577 4.7531 29.2441 0.0000 -16948.3915 2277.8959 0.0000 0.0000 2863.1993 -11772.7415 306.3635 -14635.9408 -11769.5598 300.0446 115.8025 210.4412 48386.3394 2.1223 1.6947
TCL: Exiting due to exit command.
