Info: SIMULATION PARAMETERS:
Info: TIMESTEP               2
Info: NUMBER OF STEPS        0
Info: STEPS PER CYCLE        10
Info: PERIODIC CELL BASIS 1  43.777 0 0
Info: PERIODIC CELL BASIS 2  0 39.757 0
Info: PERIODIC CELL BASIS 3  0 0 42.851
Info: PERIODIC CELL CENTER   0 0 0
Info: WRAPPING WATERS AROUND PERIODIC BOUNDARIES ON OUTPUT.
Info: WRAPPING ALL CLUSTERS AROUND PERIODIC BOUNDARIES ON OUTPUT.
Info: FIRST LDB TIMESTEP     50
Info: LAST LDB TIMESTEP     -1
Info: HOM BACKGROUND SCALING 1
Info: PME BACKGROUND SCALING 1
Info: MIN ATOMS PER PATCH    40
Info: EMPTY PATCH LOAD       40 ATOMS
Info: INITIAL TEMPERATURE    300
Info: CENTER OF MASS MOVING INITIALLY? NO
Info: DIELECTRIC             1
Info: EXCLUDE                SCALED ONE-FOUR
Info: 1-4 ELECTROSTATICS SCALED BY 0.833333
Info: MODIFIED 1-4 VDW PARAMETERS WILL BE USED
Info: DCD FILENAME           mobley_5079234_min.dcd
Info: DCD FREQUENCY          5000
Info: DCD FIRST STEP         5000
Info: DCD FILE WILL CONTAIN UNIT CELL DATA
Info: XST FILENAME           mobley_5079234_min.xst
Info: XST FREQUENCY          5000
Info: NO VELOCITY DCD OUTPUT
Info: NO FORCE DCD OUTPUT
Info: OUTPUT FILENAME        mobley_5079234_min
Info: BINARY OUTPUT FILES WILL BE USED
Info: RESTART FILENAME       mobley_5079234_min.restart
Info: RESTART FREQUENCY      5000
Info: BINARY RESTART FILES WILL BE USED
Info: CUTOFF                 9
Info: PAIRLIST DISTANCE      11
Info: PAIRLIST SHRINK RATE   0.01
Info: PAIRLIST GROW RATE     0.01
Info: PAIRLIST TRIGGER       0.3
Info: PAIRLISTS PER CYCLE    2
Info: PAIRLISTS ENABLED
Info: MARGIN                 8
Info: HYDROGEN GROUP CUTOFF  2.5
Info: PATCH DIMENSION        21.5
Info: ENERGY OUTPUT STEPS    5000
Info: ENERGY EVALUATION STEPS    5000
Info: OUTPUT ENERGY PRECISION 4
Info: CROSSTERM ENERGY INCLUDED IN DIHEDRAL
Info: TIMING OUTPUT STEPS    50000
Info: PRESSURE OUTPUT STEPS  5000
Info: LANGEVIN DYNAMICS ACTIVE
Info: LANGEVIN TEMPERATURE   300
Info: LANGEVIN USING BBK INTEGRATOR
Info: LANGEVIN DAMPING COEFFICIENT IS 1 INVERSE PS
Info: LANGEVIN DYNAMICS APPLIED TO HYDROGENS
Info: LANGEVIN PISTON PRESSURE CONTROL ACTIVE
Info:        TARGET PRESSURE IS 1.01325 BAR
Info:     OSCILLATION PERIOD IS 50 FS
Info:             DECAY TIME IS 25 FS
Info:     PISTON TEMPERATURE IS 300 K
Info:       PRESSURE CONTROL IS GROUP-BASED
Info:    INITIAL STRAIN RATE IS 0 0 0
Info:       CELL FLUCTUATION IS ISOTROPIC
Info: PARTICLE MESH EWALD (PME) ACTIVE
Info: PME TOLERANCE               1e-06
Info: PME EWALD COEFFICIENT       0.348832
Info: PME INTERPOLATION ORDER     4
Info: PME GRID DIMENSIONS         44 40 44
Info: PME MAXIMUM GRID SPACING    1
Info: FULL ELECTROSTATIC EVALUATION FREQUENCY      2
Info: USING VERLET I (r-RESPA) MTS SCHEME.
Info: C1 SPLITTING OF LONG RANGE ELECTROSTATICS
Info: PLACING ATOMS IN PATCHES BY HYDROGEN GROUPS
Info: RIGID BONDS TO HYDROGEN : ALL
Info:         ERROR TOLERANCE : 1e-08
Info:          MAX ITERATIONS : 100
Info: RIGID WATER USING SETTLE ALGORITHM
Info: RANDOM NUMBER SEED     1741347134
Info: USE HYDROGEN BONDS?    NO
Info: Using AMBER format force field!
Info: AMBER PARM FILE        mobley_5079234.prmtop
Info: COORDINATE PDB         mobley_5079234.pdb
Info: Exclusions will be read from PARM file!
Info: SCNB (VDW SCALING)     2
Info: USING ARITHMETIC MEAN TO COMBINE L-J SIGMA PARAMETERS
Info: SUMMARY OF PARAMETERS:
Info: 7 BONDS
Info: 8 ANGLES
Info:   8 HARMONIC
Info:   0 COSINE-BASED
Info: 8 DIHEDRAL
Info: 0 IMPROPER
Info: 0 CROSSTERM
Info: 0 VDW
Info: 28 VDW_PAIRS
Info: 0 NBTHOLE_PAIRS
Info: STRUCTURE SUMMARY:
Info: 5352 ATOMS
Info: 5351 BONDS
Info: 43 ANGLES
Info: 57 DIHEDRALS
Info: 0 IMPROPERS
Info: 0 CROSSTERMS
Info: 5451 EXCLUSIONS
Info: 5344 RIGID BONDS
Info: 10712 DEGREES OF FREEDOM
Info: 1784 HYDROGEN GROUPS
Info: 4 ATOMS IN LARGEST HYDROGEN GROUP
Info: 1784 MIGRATION GROUPS
Info: 4 ATOMS IN LARGEST MIGRATION GROUP
Info: TOTAL MASS = 32112.6 amu
Info: TOTAL CHARGE = -0.000200018 e
Info: MASS DENSITY = 0.715014 g/cm^3
Info: ATOM DENSITY = 0.0717622 atoms/A^3
Info: ADDED 0 IMPLICIT EXCLUSIONS
Info: NONBONDED TABLE R-SQUARED SPACING: 0.0625
Info: NONBONDED TABLE SIZE: 705 POINTS
Info: REMOVING COM VELOCITY -0.0187271 -0.0302276 0.0036355
TCL: Minimizing for 2000 steps
ETITLE: TS BOND ANGLE DIHED IMPRP ELECT VDW BOUNDARY MISC KINETIC TOTAL TEMP POTENTIAL TOTAL3 TEMPAVG PRESSURE GPRESSURE VOLUME PRESSAVG GPRESSAVG
ENERGY: 0 0.1222 0.5350 0.0369 0.0000 -16775.8161 1922.8768 0.0000 0.0000 0.0000 -14852.2452 0.0000 -14852.2452 -14852.2452 0.0000 11186.2577 -15499.3312 74579.6882 11186.2577 -15499.3312
ENERGY: 400 6.2947 3.8145 0.0834 0.0000 -22650.0461 3388.7569 0.0000 0.0000 0.0000 -19251.0966 0.0000 -19251.0966 -19251.0966 0.0000 16191.0248 15741.6060 74579.6882 16191.0248 15741.6060
ENERGY: 800 1.0034 0.8832 0.0911 0.0000 -23666.3659 3849.7258 0.0000 0.0000 0.0000 -19814.6624 0.0000 -19814.6624 -19814.6624 0.0000 18185.5228 17663.9205 74579.6882 18185.5228 17663.9205
ENERGY: 1200 1.3023 0.6838 0.0838 0.0000 -24035.3179 4002.5146 0.0000 0.0000 0.0000 -20030.7334 0.0000 -20030.7334 -20030.7334 0.0000 18891.4340 18297.7657 74579.6882 18891.4340 18297.7657
ENERGY: 1600 4.3549 2.6545 0.1641 0.0000 -24341.2593 4171.1798 0.0000 0.0000 0.0000 -20162.9059 0.0000 -20162.9059 -20162.9059 0.0000 19680.4790 19085.9111 74579.6882 19680.4790 19085.9111
ENERGY: 2000 0.3053 0.2852 0.1419 0.0000 -24436.3423 4197.8891 0.0000 0.0000 0.0000 -20237.7208 0.0000 -20237.7208 -20237.7208 0.0000 19812.3807 19283.4257 74579.6882 19812.3807 19283.4257
TCL: Exiting due to exit command.
Info: NAMD 3.0.1 for Linux-x86_64-multicore
Info: Please visit http://www.ks.uiuc.edu/Research/namd/
Info: for updates, documentation, and support information.
Info: Please cite Phillips et al., J. Chem. Phys. 153:044130 (2020) doi:10.1063/5.0014475
Info: in all publications reporting results obtained with NAMD.
Info: Based on Charm++/Converse 80000 for multicore-linux-x86_64-gcc
Info: Built Mon Oct 14 11:11:06 CDT 2024 by dhardy on athine.ks.uiuc.edu
Info: 1 NAMD  3.0.1  Linux-x86_64-multicore  16    k062  z5358697
Info: Running on 16 processors, 1 nodes, 1 physical nodes.
Info: CPU topology information available.
Info: Charm++/Converse parallel runtime startup completed at 0.00957964 s
Info: 1043.46 MB of memory in use based on /proc/self/stat
Info: Configuration file is mobley_5079234_equil.namd
Info: Working in the current directory /srv/scratch/z5358697/prod_prep_6/5079234
TCL: Running 25000 steps at 30 kelvin.
TCL: Suspending until startup complete.
Info: SIMULATION PARAMETERS:
Info: TIMESTEP               2
Info: NUMBER OF STEPS        0
Info: STEPS PER CYCLE        10
Info: PERIODIC CELL BASIS 1  43.777 0 0
Info: PERIODIC CELL BASIS 2  0 39.757 0
Info: PERIODIC CELL BASIS 3  0 0 42.851
Info: PERIODIC CELL CENTER   0 0 0
Info: WRAPPING WATERS AROUND PERIODIC BOUNDARIES ON OUTPUT.
Info: WRAPPING ALL CLUSTERS AROUND PERIODIC BOUNDARIES ON OUTPUT.
Info: FIRST LDB TIMESTEP     50
Info: LAST LDB TIMESTEP     -1
Info: HOM BACKGROUND SCALING 1
Info: PME BACKGROUND SCALING 1
Info: MIN ATOMS PER PATCH    40
Info: EMPTY PATCH LOAD       40 ATOMS
Info: INITIAL TEMPERATURE    300
Info: CENTER OF MASS MOVING INITIALLY? NO
Info: DIELECTRIC             1
Info: EXCLUDE                SCALED ONE-FOUR
Info: 1-4 ELECTROSTATICS SCALED BY 0.833333
Info: MODIFIED 1-4 VDW PARAMETERS WILL BE USED
Info: DCD FILENAME           mobley_5079234_equil.dcd
Info: DCD FREQUENCY          5000
Info: DCD FIRST STEP         5000
Info: DCD FILE WILL CONTAIN UNIT CELL DATA
Info: XST FILENAME           mobley_5079234_equil.xst
Info: XST FREQUENCY          5000
Info: NO VELOCITY DCD OUTPUT
Info: NO FORCE DCD OUTPUT
Info: OUTPUT FILENAME        mobley_5079234_equil
Info: BINARY OUTPUT FILES WILL BE USED
Info: RESTART FILENAME       mobley_5079234_equil.restart
Info: RESTART FREQUENCY      5000
Info: BINARY RESTART FILES WILL BE USED
Info: CUTOFF                 9
Info: PAIRLIST DISTANCE      11
Info: PAIRLIST SHRINK RATE   0.01
Info: PAIRLIST GROW RATE     0.01
Info: PAIRLIST TRIGGER       0.3
Info: PAIRLISTS PER CYCLE    2
Info: PAIRLISTS ENABLED
Info: MARGIN                 8
Info: HYDROGEN GROUP CUTOFF  2.5
Info: PATCH DIMENSION        21.5
Info: ENERGY OUTPUT STEPS    5000
Info: ENERGY EVALUATION STEPS    5000
Info: OUTPUT ENERGY PRECISION 4
Info: CROSSTERM ENERGY INCLUDED IN DIHEDRAL
Info: TIMING OUTPUT STEPS    50000
Info: PRESSURE OUTPUT STEPS  5000
Info: LANGEVIN DYNAMICS ACTIVE
Info: LANGEVIN TEMPERATURE   30
Info: LANGEVIN USING BBK INTEGRATOR
Info: LANGEVIN DAMPING COEFFICIENT IS 1 INVERSE PS
Info: LANGEVIN DYNAMICS APPLIED TO HYDROGENS
Info: LANGEVIN PISTON PRESSURE CONTROL ACTIVE
Info:        TARGET PRESSURE IS 1.01325 BAR
Info:     OSCILLATION PERIOD IS 50 FS
Info:             DECAY TIME IS 25 FS
Info:     PISTON TEMPERATURE IS 300 K
Info:       PRESSURE CONTROL IS GROUP-BASED
Info:    INITIAL STRAIN RATE IS 0 0 0
Info:       CELL FLUCTUATION IS ISOTROPIC
Info: PARTICLE MESH EWALD (PME) ACTIVE
Info: PME TOLERANCE               1e-06
Info: PME EWALD COEFFICIENT       0.348832
Info: PME INTERPOLATION ORDER     4
Info: PME GRID DIMENSIONS         44 40 44
Info: PME MAXIMUM GRID SPACING    1
Info: FULL ELECTROSTATIC EVALUATION FREQUENCY      2
Info: USING VERLET I (r-RESPA) MTS SCHEME.
Info: C1 SPLITTING OF LONG RANGE ELECTROSTATICS
Info: PLACING ATOMS IN PATCHES BY HYDROGEN GROUPS
Info: RIGID BONDS TO HYDROGEN : ALL
Info:         ERROR TOLERANCE : 1e-08
Info:          MAX ITERATIONS : 100
Info: RIGID WATER USING SETTLE ALGORITHM
Info: RANDOM NUMBER SEED     1741347151
Info: USE HYDROGEN BONDS?    NO
Info: Using AMBER format force field!
Info: AMBER PARM FILE        mobley_5079234.prmtop
Info: COORDINATE PDB         mobley_5079234.pdb
Info: Exclusions will be read from PARM file!
Info: SCNB (VDW SCALING)     2
Info: USING ARITHMETIC MEAN TO COMBINE L-J SIGMA PARAMETERS
Info: BINARY COORDINATES     mobley_5079234_min.coor
Info: SUMMARY OF PARAMETERS:
Info: 7 BONDS
Info: 8 ANGLES
Info:   8 HARMONIC
Info:   0 COSINE-BASED
Info: 8 DIHEDRAL
Info: 0 IMPROPER
Info: 0 CROSSTERM
Info: 0 VDW
Info: 28 VDW_PAIRS
Info: 0 NBTHOLE_PAIRS
Info: STRUCTURE SUMMARY:
Info: 5352 ATOMS
Info: 5351 BONDS
Info: 43 ANGLES
Info: 57 DIHEDRALS
Info: 0 IMPROPERS
Info: 0 CROSSTERMS
Info: 5451 EXCLUSIONS
Info: 5344 RIGID BONDS
Info: 10712 DEGREES OF FREEDOM
Info: 1784 HYDROGEN GROUPS
Info: 4 ATOMS IN LARGEST HYDROGEN GROUP
Info: 1784 MIGRATION GROUPS
Info: 4 ATOMS IN LARGEST MIGRATION GROUP
Info: TOTAL MASS = 32112.6 amu
Info: TOTAL CHARGE = -0.000200018 e
Info: MASS DENSITY = 0.715014 g/cm^3
Info: ATOM DENSITY = 0.0717622 atoms/A^3
Info: ADDED 0 IMPLICIT EXCLUSIONS
Info: NONBONDED TABLE R-SQUARED SPACING: 0.0625
Info: NONBONDED TABLE SIZE: 705 POINTS
Info: REMOVING COM VELOCITY 0.134854 0.0160028 -0.0950293
TCL: Running for 25000 steps
ETITLE: TS BOND ANGLE DIHED IMPRP ELECT VDW BOUNDARY MISC KINETIC TOTAL TEMP POTENTIAL TOTAL3 TEMPAVG PRESSURE GPRESSURE VOLUME PRESSAVG GPRESSAVG
ENERGY: 0 0.3053 0.2852 0.1419 0.0000 -24436.3423 4197.8891 0.0000 0.0000 3140.8314 -17096.8894 295.0968 -20237.7208 -17096.2602 295.0968 203.0044 238.4380 74579.6882 203.0044 238.4380
ENERGY: 5000 0.0502 1.5723 0.7133 0.0000 -25580.3874 4451.9696 0.0000 0.0000 320.2154 -20805.8666 30.0858 -21126.0820 -20804.9302 47.3111 135.6328 199.5613 52993.6091 1.1374 1.2383
ENERGY: 10000 0.1574 0.9273 0.3860 0.0000 -25595.0431 4410.8137 0.0000 0.0000 320.5846 -20862.1742 30.1205 -21182.7588 -20860.9990 30.1205 -188.3501 -114.7876 52722.5642 3.7911 3.5382
ENERGY: 15000 0.1703 1.2674 0.3168 0.0000 -25629.4398 4417.7529 0.0000 0.0000 322.7055 -20887.2270 30.3198 -21209.9325 -20886.3190 30.3172 -190.0918 -104.0535 52623.9334 3.9928 3.9635
ENERGY: 20000 0.4694 1.4329 0.3330 0.0000 -25713.4949 4449.6003 0.0000 0.0000 317.8554 -20943.8039 29.8641 -21261.6594 -20942.8757 30.2543 -111.8256 -33.4720 52332.2855 3.9541 3.8801
ENERGY: 25000 0.2006 1.0809 0.4662 0.0000 -25927.8659 4653.4689 0.0000 0.0000 319.9560 -20952.6933 30.0615 -21272.6492 -20951.9633 30.2543 854.0712 925.0820 52012.0667 1.5274 1.5114
TCL: Running 25000 steps at 60 kelvin.
TCL: Setting parameter langevinTemp to 60
TCL: Running for 25000 steps
ETITLE: TS BOND ANGLE DIHED IMPRP ELECT VDW BOUNDARY MISC KINETIC TOTAL TEMP POTENTIAL TOTAL3 TEMPAVG PRESSURE GPRESSURE VOLUME PRESSAVG GPRESSAVG
ENERGY: 25000 0.2006 1.0809 0.4662 0.0000 -25927.8659 4653.4689 0.0000 0.0000 319.8011 -20952.8481 30.0469 -21272.6492 -20952.2171 30.0469 855.6959 924.8652 52012.0667 855.6959 924.8652
ENERGY: 30000 0.3248 2.9654 0.5538 0.0000 -25467.9480 4491.4384 0.0000 0.0000 647.2848 -20325.3808 60.8156 -20972.6657 -20324.3397 57.4188 735.9895 821.9281 51985.5100 2.8988 3.1435
ENERGY: 35000 0.5186 2.8556 0.2948 0.0000 -25401.6887 4361.9419 0.0000 0.0000 639.0926 -20396.9852 60.0459 -21036.0777 -20395.5024 60.3787 33.2646 93.6784 51939.9306 6.7372 6.5125
ENERGY: 40000 1.3652 2.8170 0.4520 0.0000 -25395.2229 4337.6077 0.0000 0.0000 640.6628 -20412.3182 60.1935 -21052.9810 -20410.7579 60.4704 -130.1399 -69.2905 51886.8881 -2.6856 -2.3600
ENERGY: 45000 0.3399 2.9068 0.3635 0.0000 -25177.2669 4091.0974 0.0000 0.0000 645.0383 -20437.5210 60.6046 -21082.5593 -20435.1602 60.2659 -1273.6213 -1224.0598 52208.4337 2.6328 2.6856
ENERGY: 50000 1.1765 2.5610 0.4616 0.0000 -25320.2334 4219.0414 0.0000 0.0000 620.1744 -20476.8185 58.2685 -21096.9929 -20475.1099 59.9755 -814.9592 -762.1061 52145.3998 4.5375 4.5283
TCL: Running 25000 steps at 90 kelvin.
TCL: Setting parameter langevinTemp to 90
TCL: Running for 25000 steps
ETITLE: TS BOND ANGLE DIHED IMPRP ELECT VDW BOUNDARY MISC KINETIC TOTAL TEMP POTENTIAL TOTAL3 TEMPAVG PRESSURE GPRESSURE VOLUME PRESSAVG GPRESSAVG
ENERGY: 50000 1.1765 2.5610 0.4616 0.0000 -25320.2334 4219.0414 0.0000 0.0000 619.8511 -20477.1418 58.2381 -21096.9929 -20475.6687 58.2381 -821.1014 -762.1399 52145.3998 -821.1014 -762.1399
ENERGY: 55000 0.8701 3.9322 0.2418 0.0000 -25134.2552 4344.3765 0.0000 0.0000 958.9969 -19825.8378 90.1025 -20784.8347 -19823.5265 86.8696 600.6892 663.2505 51659.9922 2.3730 2.7523
ENERGY: 60000 0.8855 2.6752 1.4010 0.0000 -24959.9320 4131.2692 0.0000 0.0000 962.1143 -19861.5867 90.3954 -20823.7010 -19858.6257 89.8179 -542.1759 -485.9079 52103.0350 -1.5056 -1.5696
ENERGY: 65000 0.4527 3.6661 0.9608 0.0000 -24930.2930 4063.8580 0.0000 0.0000 971.3667 -19889.9887 91.2647 -20861.3554 -19886.5161 90.0803 -924.4143 -858.7530 52089.6878 1.9168 1.7893
ENERGY: 70000 1.0387 4.3784 1.5702 0.0000 -25070.0355 4196.1693 0.0000 0.0000 976.9331 -19889.9458 91.7877 -20866.8789 -19887.4880 90.9217 -157.9102 -98.4602 51418.8394 -4.5316 -3.9973
ENERGY: 75000 1.3011 4.1654 0.5569 0.0000 -25090.3808 4182.7322 0.0000 0.0000 963.9532 -19937.6719 90.5682 -20901.6252 -19934.8265 89.5786 -377.6418 -323.5967 51737.7998 2.7902 2.7050
TCL: Running 25000 steps at 120 kelvin.
TCL: Setting parameter langevinTemp to 120
TCL: Running for 25000 steps
ETITLE: TS BOND ANGLE DIHED IMPRP ELECT VDW BOUNDARY MISC KINETIC TOTAL TEMP POTENTIAL TOTAL3 TEMPAVG PRESSURE GPRESSURE VOLUME PRESSAVG GPRESSAVG
ENERGY: 75000 1.3011 4.1654 0.5569 0.0000 -25090.3808 4182.7322 0.0000 0.0000 963.4849 -19938.1403 90.5242 -20901.6252 -19936.0850 90.5242 -384.7543 -323.2352 51737.7998 -384.7543 -323.2352
ENERGY: 80000 1.3286 5.5084 0.3908 0.0000 -24474.2914 3949.6184 0.0000 0.0000 1245.8496 -19271.5955 117.0538 -20517.4451 -19270.0045 116.6200 -662.3121 -645.6085 51965.7202 -0.4893 -0.3213
ENERGY: 85000 1.3285 5.4692 1.3309 0.0000 -24698.4785 4134.2211 0.0000 0.0000 1292.9069 -19263.2219 121.4750 -20556.1288 -19259.4857 120.4452 128.6418 197.6308 51669.8615 -2.7773 -2.7814
ENERGY: 90000 0.6784 3.3963 0.3698 0.0000 -24657.2930 4049.2764 0.0000 0.0000 1299.0959 -19304.4762 122.0565 -20603.5721 -19302.1716 120.5128 -256.9081 -221.5358 51640.8234 0.0160 -0.1977
ENERGY: 95000 1.8265 3.5473 0.7258 0.0000 -24721.0763 4064.8502 0.0000 0.0000 1274.5015 -19375.6250 119.7458 -20650.1265 -19371.5804 120.2188 -439.8715 -376.4420 51677.9498 2.4773 2.2832
ENERGY: 100000 1.7440 3.5915 1.0096 0.0000 -24840.5271 4153.2785 0.0000 0.0000 1301.0548 -19379.8487 122.2406 -20680.9034 -19376.9809 119.9854 -12.9119 41.4571 51583.2265 0.5790 0.5580
TCL: Running 25000 steps at 150 kelvin.
TCL: Setting parameter langevinTemp to 150
TCL: Running for 25000 steps
ETITLE: TS BOND ANGLE DIHED IMPRP ELECT VDW BOUNDARY MISC KINETIC TOTAL TEMP POTENTIAL TOTAL3 TEMPAVG PRESSURE GPRESSURE VOLUME PRESSAVG GPRESSAVG
ENERGY: 100000 1.7440 3.5915 1.0096 0.0000 -24840.5271 4153.2785 0.0000 0.0000 1300.4208 -19380.4826 122.1810 -20680.9034 -19378.0820 122.1810 -14.5841 41.2479 51583.2265 -14.5841 41.2479
ENERGY: 105000 1.3416 6.1908 1.5834 0.0000 -24374.3610 4072.8324 0.0000 0.0000 1618.6042 -18673.8087 152.0759 -20292.4129 -18670.1312 146.0929 503.2898 552.1741 51689.6794 5.0219 5.4538
ENERGY: 110000 0.6022 5.2991 0.6599 0.0000 -24286.8386 3970.5850 0.0000 0.0000 1613.5533 -18696.1392 151.6014 -20309.6924 -18692.4796 150.8510 -74.8360 -71.8380 52008.4910 2.5957 2.5504
ENERGY: 115000 0.8045 3.5848 0.7519 0.0000 -24424.1049 4098.9014 0.0000 0.0000 1593.1068 -18726.9555 149.6803 -20320.0623 -18724.5701 150.2205 421.8876 448.5636 52074.4214 1.5995 1.5067
ENERGY: 120000 1.4041 5.7617 1.9520 0.0000 -24360.9469 3976.0816 0.0000 0.0000 1605.2954 -18770.4522 150.8255 -20375.7476 -18766.5805 150.2709 -348.4002 -301.8433 52191.2439 3.8389 3.7648
ENERGY: 125000 0.2687 4.5101 0.5303 0.0000 -24254.2491 3902.6794 0.0000 0.0000 1624.5640 -18721.6966 152.6359 -20346.2606 -18715.7246 150.2756 -507.8933 -429.4020 52054.6408 4.1758 4.2597
TCL: Running 50000 steps at 180 kelvin.
TCL: Setting parameter langevinTemp to 180
TCL: Running for 50000 steps
ETITLE: TS BOND ANGLE DIHED IMPRP ELECT VDW BOUNDARY MISC KINETIC TOTAL TEMP POTENTIAL TOTAL3 TEMPAVG PRESSURE GPRESSURE VOLUME PRESSAVG GPRESSAVG
ENERGY: 125000 0.2687 4.5101 0.5303 0.0000 -24254.2491 3902.6794 0.0000 0.0000 1623.7979 -18722.4627 152.5639 -20346.2606 -18719.2914 152.5639 -496.6731 -429.3353 52054.6408 -496.6731 -429.3353
ENERGY: 135000 2.9888 6.5412 1.2247 0.0000 -23507.0091 3642.4401 0.0000 0.0000 1940.1837 -17913.6305 182.2899 -19853.8142 -17909.0150 180.6090 -967.2128 -907.0665 52856.4793 0.2664 1.1323
ENERGY: 145000 1.2689 6.6356 2.6238 0.0000 -23668.7279 3791.4533 0.0000 0.0000 1912.6956 -17954.0506 179.7073 -19866.7462 -17949.7093 180.7802 -154.4669 -66.0922 52156.3020 5.1987 4.8373
ENERGY: 155000 1.7314 8.8124 1.6574 0.0000 -23716.4365 3845.1952 0.0000 0.0000 1899.7622 -17959.2779 178.4921 -19859.0401 -17953.2056 179.5016 74.3218 157.0959 52182.6717 4.0865 3.9790
ENERGY: 165000 1.2000 5.0632 0.5185 0.0000 -23896.7570 3987.6909 0.0000 0.0000 1923.8009 -17978.4834 180.7507 -19902.2843 -17975.9036 181.5372 793.0012 876.3464 51811.6149 6.6453 6.3760
ENERGY: 175000 1.9369 5.1733 1.8143 0.0000 -23852.3601 3924.5201 0.0000 0.0000 1961.8289 -17957.0866 184.3236 -19918.9155 -17953.1354 180.0817 422.6340 505.0555 51945.4716 5.2297 5.3451
TCL: Running 50000 steps at 210 kelvin.
TCL: Setting parameter langevinTemp to 210
TCL: Running for 50000 steps
ETITLE: TS BOND ANGLE DIHED IMPRP ELECT VDW BOUNDARY MISC KINETIC TOTAL TEMP POTENTIAL TOTAL3 TEMPAVG PRESSURE GPRESSURE VOLUME PRESSAVG GPRESSAVG
ENERGY: 175000 1.9369 5.1733 1.8143 0.0000 -23852.3601 3924.5201 0.0000 0.0000 1960.8814 -17958.0341 184.2346 -19918.9155 -17954.0582 184.2346 438.9594 503.3132 51945.4716 438.9594 503.3132
ENERGY: 185000 1.3956 6.7045 0.8317 0.0000 -22824.8415 3654.9194 0.0000 0.0000 2290.0876 -16870.9028 215.1651 -19160.9904 -16863.0190 210.4825 682.8691 772.9179 52433.9623 3.9743 3.7906
ENERGY: 195000 0.5714 7.3731 0.5109 0.0000 -22388.8680 3327.7745 0.0000 0.0000 2234.7691 -16817.8689 209.9677 -19052.6381 -16813.0624 210.2042 -507.9868 -450.6213 52412.5710 5.1983 5.3991
ENERGY: 205000 2.7287 5.2373 0.3339 0.0000 -22743.6050 3526.7751 0.0000 0.0000 2230.3465 -16978.1835 209.5522 -19208.5300 -16970.3599 209.7341 53.4893 128.9612 52160.8698 2.4755 2.3954
ENERGY: 215000 0.4757 9.2787 1.7139 0.0000 -22648.1281 3462.1052 0.0000 0.0000 2252.8085 -16921.7461 211.6626 -19174.5547 -16915.3473 209.1172 -128.9826 -27.8512 52190.0550 9.9703 9.8995
ENERGY: 225000 0.6445 5.9388 0.9347 0.0000 -22544.4573 3487.8878 0.0000 0.0000 2294.8872 -16754.1642 215.6161 -19049.0514 -16748.1510 210.1501 267.4332 379.1624 51975.6596 2.8638 2.8377
TCL: Running 50000 steps at 240 kelvin.
TCL: Setting parameter langevinTemp to 240
TCL: Running for 50000 steps
ETITLE: TS BOND ANGLE DIHED IMPRP ELECT VDW BOUNDARY MISC KINETIC TOTAL TEMP POTENTIAL TOTAL3 TEMPAVG PRESSURE GPRESSURE VOLUME PRESSAVG GPRESSAVG
ENERGY: 225000 0.6445 5.9388 0.9347 0.0000 -22544.4573 3487.8878 0.0000 0.0000 2293.7802 -16755.2712 215.5121 -19049.0514 -16750.8006 215.5121 305.2017 378.7052 51975.6596 305.2017 378.7052
ENERGY: 235000 3.2949 5.1760 2.3562 0.0000 -21583.7296 3292.6747 0.0000 0.0000 2555.6264 -15724.6014 240.1138 -18280.2279 -15719.0593 240.9935 611.3398 711.8877 53008.8799 -0.2297 0.1634
ENERGY: 245000 1.3137 8.2046 1.5530 0.0000 -21552.1051 3238.6829 0.0000 0.0000 2570.9336 -15731.4173 241.5520 -18302.3509 -15728.4586 239.7808 624.6119 693.6330 52254.3405 2.4173 2.7621
ENERGY: 255000 1.2503 7.3996 1.8358 0.0000 -21492.7028 3243.4019 0.0000 0.0000 2552.1647 -15686.6505 239.7886 -18238.8152 -15679.6191 239.3730 712.6876 821.4357 52295.9058 5.2412 4.9923
ENERGY: 265000 0.8983 9.4044 1.8800 0.0000 -21360.7719 3164.7961 0.0000 0.0000 2577.1027 -15606.6903 242.1316 -18183.7930 -15601.8976 240.3428 484.1321 560.1388 52629.2907 3.2727 2.8750
ENERGY: 275000 1.3877 9.5906 2.0486 0.0000 -21481.2070 3154.9167 0.0000 0.0000 2548.0518 -15765.2115 239.4022 -18313.2634 -15761.7577 241.1482 56.0402 103.1256 52660.6266 2.2527 1.7504
TCL: Running 50000 steps at 270 kelvin.
TCL: Setting parameter langevinTemp to 270
TCL: Running for 50000 steps
ETITLE: TS BOND ANGLE DIHED IMPRP ELECT VDW BOUNDARY MISC KINETIC TOTAL TEMP POTENTIAL TOTAL3 TEMPAVG PRESSURE GPRESSURE VOLUME PRESSAVG GPRESSAVG
ENERGY: 275000 1.3877 9.5906 2.0486 0.0000 -21481.2070 3154.9167 0.0000 0.0000 2546.7575 -15766.5059 239.2806 -18313.2634 -15763.1500 239.2806 16.4837 102.7109 52660.6266 16.4837 102.7109
ENERGY: 285000 1.2649 8.4641 1.8590 0.0000 -20508.2885 2966.0702 0.0000 0.0000 2854.4174 -14676.2129 268.1867 -17530.6302 -14671.2366 270.2282 721.8735 782.0481 53130.6671 3.7081 3.9178
ENERGY: 295000 3.5426 10.6990 1.7527 0.0000 -20209.1004 2778.9369 0.0000 0.0000 2819.4005 -14594.7686 264.8967 -17414.1691 -14591.5649 268.6013 -207.8607 -98.2616 53738.5642 0.0836 -0.0209
ENERGY: 305000 2.6409 7.1500 1.6376 0.0000 -20595.3711 2919.9279 0.0000 0.0000 2819.7647 -14844.2500 264.9309 -17664.0147 -14836.2443 269.5358 158.5081 242.5871 53059.9070 3.1731 3.1305
ENERGY: 315000 1.9548 13.2272 2.8311 0.0000 -20380.8522 2763.9286 0.0000 0.0000 2886.0355 -14712.8751 271.1574 -17598.9106 -14706.2677 269.7418 -569.1881 -531.0669 53945.8175 3.5418 3.5238
ENERGY: 325000 1.0066 6.1631 2.2555 0.0000 -20282.8298 2783.9992 0.0000 0.0000 2841.9613 -14647.4442 267.0164 -17489.4055 -14641.2486 269.7752 -403.4179 -285.6457 54026.3636 2.2706 2.0009
TCL: Running 1000000 steps at 300 kelvin.
TCL: Setting parameter langevinTemp to 300
TCL: Running for 1000000 steps
ETITLE: TS BOND ANGLE DIHED IMPRP ELECT VDW BOUNDARY MISC KINETIC TOTAL TEMP POTENTIAL TOTAL3 TEMPAVG PRESSURE GPRESSURE VOLUME PRESSAVG GPRESSAVG
ENERGY: 325000 1.0066 6.1631 2.2555 0.0000 -20282.8298 2783.9992 0.0000 0.0000 2840.5168 -14648.8887 266.8807 -17489.4055 -14644.9435 266.8807 -372.6733 -285.2177 54026.3636 -372.6733 -285.2177
ENERGY: 525000 1.8742 16.1636 1.0941 0.0000 -19282.5246 2529.2325 0.0000 0.0000 3219.9889 -13514.1714 302.5340 -16734.1603 -13507.8021 303.0074 -461.1945 -345.8045 55633.0964 3.1928 2.8768
ENERGY: 725000 1.9650 10.0524 5.1961 0.0000 -19444.0578 2640.8184 0.0000 0.0000 3222.9035 -13563.1223 302.8078 -16786.0258 -13555.7829 300.6376 229.3260 327.6423 54635.1233 3.1036 2.6263
ENERGY: 925000 2.9395 9.6656 1.7079 0.0000 -19413.8612 2629.3089 0.0000 0.0000 3255.8337 -13514.4057 305.9018 -16770.2394 -13507.2773 301.7792 182.2783 281.2132 54933.8964 2.8273 2.3902
ENERGY: 1125000 1.7229 10.8966 2.4869 0.0000 -19336.8486 2553.8336 0.0000 0.0000 3250.9268 -13516.9818 305.4408 -16767.9086 -13513.4742 299.8842 -74.6577 -70.9128 54753.7020 0.5390 0.5059
ENERGY: 1325000 2.2294 12.7549 1.7927 0.0000 -19401.5221 2559.5037 0.0000 0.0000 3277.2743 -13547.9671 307.9162 -16825.2414 -13541.4993 301.4983 -295.1132 -194.9249 55174.5962 6.5441 5.9967
TCL: Exiting due to exit command.
