Info: SIMULATION PARAMETERS:
Info: TIMESTEP               2
Info: NUMBER OF STEPS        0
Info: STEPS PER CYCLE        10
Info: PERIODIC CELL BASIS 1  42.113 0 0
Info: PERIODIC CELL BASIS 2  0 45.969 0
Info: PERIODIC CELL BASIS 3  0 0 43.557
Info: PERIODIC CELL CENTER   0 0 0
Info: WRAPPING WATERS AROUND PERIODIC BOUNDARIES ON OUTPUT.
Info: WRAPPING ALL CLUSTERS AROUND PERIODIC BOUNDARIES ON OUTPUT.
Info: FIRST LDB TIMESTEP     50
Info: LAST LDB TIMESTEP     -1
Info: HOM BACKGROUND SCALING 1
Info: PME BACKGROUND SCALING 1
Info: MIN ATOMS PER PATCH    40
Info: EMPTY PATCH LOAD       40 ATOMS
Info: INITIAL TEMPERATURE    300
Info: CENTER OF MASS MOVING INITIALLY? NO
Info: DIELECTRIC             1
Info: EXCLUDE                SCALED ONE-FOUR
Info: 1-4 ELECTROSTATICS SCALED BY 0.833333
Info: MODIFIED 1-4 VDW PARAMETERS WILL BE USED
Info: DCD FILENAME           mobley_9617923_min.dcd
Info: DCD FREQUENCY          5000
Info: DCD FIRST STEP         5000
Info: DCD FILE WILL CONTAIN UNIT CELL DATA
Info: XST FILENAME           mobley_9617923_min.xst
Info: XST FREQUENCY          5000
Info: NO VELOCITY DCD OUTPUT
Info: NO FORCE DCD OUTPUT
Info: OUTPUT FILENAME        mobley_9617923_min
Info: BINARY OUTPUT FILES WILL BE USED
Info: RESTART FILENAME       mobley_9617923_min.restart
Info: RESTART FREQUENCY      5000
Info: BINARY RESTART FILES WILL BE USED
Info: CUTOFF                 9
Info: PAIRLIST DISTANCE      11
Info: PAIRLIST SHRINK RATE   0.01
Info: PAIRLIST GROW RATE     0.01
Info: PAIRLIST TRIGGER       0.3
Info: PAIRLISTS PER CYCLE    2
Info: PAIRLISTS ENABLED
Info: MARGIN                 8
Info: HYDROGEN GROUP CUTOFF  2.5
Info: PATCH DIMENSION        21.5
Info: ENERGY OUTPUT STEPS    5000
Info: ENERGY EVALUATION STEPS    5000
Info: OUTPUT ENERGY PRECISION 4
Info: CROSSTERM ENERGY INCLUDED IN DIHEDRAL
Info: TIMING OUTPUT STEPS    50000
Info: PRESSURE OUTPUT STEPS  5000
Info: LANGEVIN DYNAMICS ACTIVE
Info: LANGEVIN TEMPERATURE   300
Info: LANGEVIN USING BBK INTEGRATOR
Info: LANGEVIN DAMPING COEFFICIENT IS 1 INVERSE PS
Info: LANGEVIN DYNAMICS APPLIED TO HYDROGENS
Info: LANGEVIN PISTON PRESSURE CONTROL ACTIVE
Info:        TARGET PRESSURE IS 1.01325 BAR
Info:     OSCILLATION PERIOD IS 50 FS
Info:             DECAY TIME IS 25 FS
Info:     PISTON TEMPERATURE IS 300 K
Info:       PRESSURE CONTROL IS GROUP-BASED
Info:    INITIAL STRAIN RATE IS 0 0 0
Info:       CELL FLUCTUATION IS ISOTROPIC
Info: PARTICLE MESH EWALD (PME) ACTIVE
Info: PME TOLERANCE               1e-06
Info: PME EWALD COEFFICIENT       0.348832
Info: PME INTERPOLATION ORDER     4
Info: PME GRID DIMENSIONS         44 48 44
Info: PME MAXIMUM GRID SPACING    1
Info: FULL ELECTROSTATIC EVALUATION FREQUENCY      2
Info: USING VERLET I (r-RESPA) MTS SCHEME.
Info: C1 SPLITTING OF LONG RANGE ELECTROSTATICS
Info: PLACING ATOMS IN PATCHES BY HYDROGEN GROUPS
Info: RIGID BONDS TO HYDROGEN : ALL
Info:         ERROR TOLERANCE : 1e-08
Info:          MAX ITERATIONS : 100
Info: RIGID WATER USING SETTLE ALGORITHM
Info: RANDOM NUMBER SEED     1741403445
Info: USE HYDROGEN BONDS?    NO
Info: Using AMBER format force field!
Info: AMBER PARM FILE        mobley_9617923.prmtop
Info: COORDINATE PDB         mobley_9617923.pdb
Info: Exclusions will be read from PARM file!
Info: SCNB (VDW SCALING)     2
Info: USING ARITHMETIC MEAN TO COMBINE L-J SIGMA PARAMETERS
Info: SUMMARY OF PARAMETERS:
Info: 6 BONDS
Info: 7 ANGLES
Info:   7 HARMONIC
Info:   0 COSINE-BASED
Info: 15 DIHEDRAL
Info: 0 IMPROPER
Info: 0 CROSSTERM
Info: 0 VDW
Info: 21 VDW_PAIRS
Info: 0 NBTHOLE_PAIRS
Info: STRUCTURE SUMMARY:
Info: 6169 ATOMS
Info: 6168 BONDS
Info: 57 ANGLES
Info: 85 DIHEDRALS
Info: 0 IMPROPERS
Info: 0 CROSSTERMS
Info: 6300 EXCLUSIONS
Info: 6158 RIGID BONDS
Info: 12349 DEGREES OF FREEDOM
Info: 2057 HYDROGEN GROUPS
Info: 4 ATOMS IN LARGEST HYDROGEN GROUP
Info: 2057 MIGRATION GROUPS
Info: 4 ATOMS IN LARGEST MIGRATION GROUP
Info: TOTAL MASS = 37017 amu
Info: TOTAL CHARGE = 0.0002 e
Info: MASS DENSITY = 0.728989 g/cm^3
Info: ATOM DENSITY = 0.0731603 atoms/A^3
Info: ADDED 0 IMPLICIT EXCLUSIONS
Info: NONBONDED TABLE R-SQUARED SPACING: 0.0625
Info: NONBONDED TABLE SIZE: 705 POINTS
Info: REMOVING COM VELOCITY -0.0103778 0.0762739 -0.0114717
TCL: Minimizing for 2000 steps
ETITLE: TS BOND ANGLE DIHED IMPRP ELECT VDW BOUNDARY MISC KINETIC TOTAL TEMP POTENTIAL TOTAL3 TEMPAVG PRESSURE GPRESSURE VOLUME PRESSAVG GPRESSAVG
ENERGY: 0 0.3002 0.5456 39.9791 0.0000 -19335.8036 2157.5115 0.0000 0.0000 0.0000 -17137.4672 0.0000 -17137.4672 -17137.4672 0.0000 11321.4886 -16367.0826 84321.6695 11321.4886 -16367.0826
ENERGY: 400 4.9162 5.8391 36.7873 0.0000 -25838.8382 3707.6715 0.0000 0.0000 0.0000 -22083.6241 0.0000 -22083.6241 -22083.6241 0.0000 15910.4605 16044.4698 84321.6695 15910.4605 16044.4698
ENERGY: 800 5.0495 3.7951 36.7698 0.0000 -27432.8768 4523.2429 0.0000 0.0000 0.0000 -22864.0195 0.0000 -22864.0195 -22864.0195 0.0000 18941.4609 19053.1487 84321.6695 18941.4609 19053.1487
ENERGY: 1200 0.3534 2.7417 36.8751 0.0000 -27808.6908 4600.7333 0.0000 0.0000 0.0000 -23167.9874 0.0000 -23167.9874 -23167.9874 0.0000 19251.0329 19354.1383 84321.6695 19251.0329 19354.1383
ENERGY: 1600 0.4842 2.2129 36.9777 0.0000 -28101.4417 4753.1184 0.0000 0.0000 0.0000 -23308.6485 0.0000 -23308.6485 -23308.6485 0.0000 19876.0563 19986.4762 84321.6695 19876.0563 19986.4762
ENERGY: 2000 0.3929 1.9603 37.0878 0.0000 -28261.8639 4835.0131 0.0000 0.0000 0.0000 -23387.4098 0.0000 -23387.4098 -23387.4098 0.0000 20187.0853 20291.9595 84321.6695 20187.0853 20291.9595
TCL: Exiting due to exit command.
Info: NAMD 3.0.1 for Linux-x86_64-multicore
Info: Please visit http://www.ks.uiuc.edu/Research/namd/
Info: for updates, documentation, and support information.
Info: Please cite Phillips et al., J. Chem. Phys. 153:044130 (2020) doi:10.1063/5.0014475
Info: in all publications reporting results obtained with NAMD.
Info: Based on Charm++/Converse 80000 for multicore-linux-x86_64-gcc
Info: Built Mon Oct 14 11:11:06 CDT 2024 by dhardy on athine.ks.uiuc.edu
Info: 1 NAMD  3.0.1  Linux-x86_64-multicore  16    k002  z5358697
Info: Running on 16 processors, 1 nodes, 1 physical nodes.
Info: CPU topology information available.
Info: Charm++/Converse parallel runtime startup completed at 0.00661009 s
Info: 1043.46 MB of memory in use based on /proc/self/stat
Info: Configuration file is mobley_9617923_equil.namd
Info: Working in the current directory /srv/scratch/z5358697/prod_prep_12/9617923
TCL: Running 25000 steps at 30 kelvin.
TCL: Suspending until startup complete.
Info: SIMULATION PARAMETERS:
Info: TIMESTEP               2
Info: NUMBER OF STEPS        0
Info: STEPS PER CYCLE        10
Info: PERIODIC CELL BASIS 1  42.113 0 0
Info: PERIODIC CELL BASIS 2  0 45.969 0
Info: PERIODIC CELL BASIS 3  0 0 43.557
Info: PERIODIC CELL CENTER   0 0 0
Info: WRAPPING WATERS AROUND PERIODIC BOUNDARIES ON OUTPUT.
Info: WRAPPING ALL CLUSTERS AROUND PERIODIC BOUNDARIES ON OUTPUT.
Info: FIRST LDB TIMESTEP     50
Info: LAST LDB TIMESTEP     -1
Info: HOM BACKGROUND SCALING 1
Info: PME BACKGROUND SCALING 1
Info: MIN ATOMS PER PATCH    40
Info: EMPTY PATCH LOAD       40 ATOMS
Info: INITIAL TEMPERATURE    300
Info: CENTER OF MASS MOVING INITIALLY? NO
Info: DIELECTRIC             1
Info: EXCLUDE                SCALED ONE-FOUR
Info: 1-4 ELECTROSTATICS SCALED BY 0.833333
Info: MODIFIED 1-4 VDW PARAMETERS WILL BE USED
Info: DCD FILENAME           mobley_9617923_equil.dcd
Info: DCD FREQUENCY          5000
Info: DCD FIRST STEP         5000
Info: DCD FILE WILL CONTAIN UNIT CELL DATA
Info: XST FILENAME           mobley_9617923_equil.xst
Info: XST FREQUENCY          5000
Info: NO VELOCITY DCD OUTPUT
Info: NO FORCE DCD OUTPUT
Info: OUTPUT FILENAME        mobley_9617923_equil
Info: BINARY OUTPUT FILES WILL BE USED
Info: RESTART FILENAME       mobley_9617923_equil.restart
Info: RESTART FREQUENCY      5000
Info: BINARY RESTART FILES WILL BE USED
Info: CUTOFF                 9
Info: PAIRLIST DISTANCE      11
Info: PAIRLIST SHRINK RATE   0.01
Info: PAIRLIST GROW RATE     0.01
Info: PAIRLIST TRIGGER       0.3
Info: PAIRLISTS PER CYCLE    2
Info: PAIRLISTS ENABLED
Info: MARGIN                 8
Info: HYDROGEN GROUP CUTOFF  2.5
Info: PATCH DIMENSION        21.5
Info: ENERGY OUTPUT STEPS    5000
Info: ENERGY EVALUATION STEPS    5000
Info: OUTPUT ENERGY PRECISION 4
Info: CROSSTERM ENERGY INCLUDED IN DIHEDRAL
Info: TIMING OUTPUT STEPS    50000
Info: PRESSURE OUTPUT STEPS  5000
Info: LANGEVIN DYNAMICS ACTIVE
Info: LANGEVIN TEMPERATURE   30
Info: LANGEVIN USING BBK INTEGRATOR
Info: LANGEVIN DAMPING COEFFICIENT IS 1 INVERSE PS
Info: LANGEVIN DYNAMICS APPLIED TO HYDROGENS
Info: LANGEVIN PISTON PRESSURE CONTROL ACTIVE
Info:        TARGET PRESSURE IS 1.01325 BAR
Info:     OSCILLATION PERIOD IS 50 FS
Info:             DECAY TIME IS 25 FS
Info:     PISTON TEMPERATURE IS 300 K
Info:       PRESSURE CONTROL IS GROUP-BASED
Info:    INITIAL STRAIN RATE IS 0 0 0
Info:       CELL FLUCTUATION IS ISOTROPIC
Info: PARTICLE MESH EWALD (PME) ACTIVE
Info: PME TOLERANCE               1e-06
Info: PME EWALD COEFFICIENT       0.348832
Info: PME INTERPOLATION ORDER     4
Info: PME GRID DIMENSIONS         44 48 44
Info: PME MAXIMUM GRID SPACING    1
Info: FULL ELECTROSTATIC EVALUATION FREQUENCY      2
Info: USING VERLET I (r-RESPA) MTS SCHEME.
Info: C1 SPLITTING OF LONG RANGE ELECTROSTATICS
Info: PLACING ATOMS IN PATCHES BY HYDROGEN GROUPS
Info: RIGID BONDS TO HYDROGEN : ALL
Info:         ERROR TOLERANCE : 1e-08
Info:          MAX ITERATIONS : 100
Info: RIGID WATER USING SETTLE ALGORITHM
Info: RANDOM NUMBER SEED     1741403462
Info: USE HYDROGEN BONDS?    NO
Info: Using AMBER format force field!
Info: AMBER PARM FILE        mobley_9617923.prmtop
Info: COORDINATE PDB         mobley_9617923.pdb
Info: Exclusions will be read from PARM file!
Info: SCNB (VDW SCALING)     2
Info: USING ARITHMETIC MEAN TO COMBINE L-J SIGMA PARAMETERS
Info: BINARY COORDINATES     mobley_9617923_min.coor
Info: SUMMARY OF PARAMETERS:
Info: 6 BONDS
Info: 7 ANGLES
Info:   7 HARMONIC
Info:   0 COSINE-BASED
Info: 15 DIHEDRAL
Info: 0 IMPROPER
Info: 0 CROSSTERM
Info: 0 VDW
Info: 21 VDW_PAIRS
Info: 0 NBTHOLE_PAIRS
Info: STRUCTURE SUMMARY:
Info: 6169 ATOMS
Info: 6168 BONDS
Info: 57 ANGLES
Info: 85 DIHEDRALS
Info: 0 IMPROPERS
Info: 0 CROSSTERMS
Info: 6300 EXCLUSIONS
Info: 6158 RIGID BONDS
Info: 12349 DEGREES OF FREEDOM
Info: 2057 HYDROGEN GROUPS
Info: 4 ATOMS IN LARGEST HYDROGEN GROUP
Info: 2057 MIGRATION GROUPS
Info: 4 ATOMS IN LARGEST MIGRATION GROUP
Info: TOTAL MASS = 37017 amu
Info: TOTAL CHARGE = 0.0002 e
Info: MASS DENSITY = 0.728989 g/cm^3
Info: ATOM DENSITY = 0.0731603 atoms/A^3
Info: ADDED 0 IMPLICIT EXCLUSIONS
Info: NONBONDED TABLE R-SQUARED SPACING: 0.0625
Info: NONBONDED TABLE SIZE: 705 POINTS
Info: REMOVING COM VELOCITY -0.0604389 -0.00951134 0.172549
TCL: Running for 25000 steps
ETITLE: TS BOND ANGLE DIHED IMPRP ELECT VDW BOUNDARY MISC KINETIC TOTAL TEMP POTENTIAL TOTAL3 TEMPAVG PRESSURE GPRESSURE VOLUME PRESSAVG GPRESSAVG
ENERGY: 0 0.3929 1.9603 37.0878 0.0000 -28261.8639 4835.0131 0.0000 0.0000 3704.0618 -19683.3480 301.8817 -23387.4098 -19682.6221 301.8817 194.2655 231.8765 84321.6695 194.2655 231.8765
ENERGY: 5000 0.7474 2.8291 36.6169 0.0000 -29489.7186 5026.0110 0.0000 0.0000 378.5142 -24045.0000 30.8490 -24423.5142 -24043.8629 47.7485 -328.0872 -271.3208 59791.8090 2.2917 2.4001
ENERGY: 10000 0.8098 2.2551 36.8704 0.0000 -29514.4930 4984.0669 0.0000 0.0000 375.3428 -24115.1479 30.5905 -24490.4908 -24114.0579 30.3455 -596.5144 -542.2906 59723.8818 2.3425 2.3409
ENERGY: 15000 0.6862 2.9035 35.6123 0.0000 -29512.9245 4954.6097 0.0000 0.0000 372.3265 -24146.7863 30.3447 -24519.1128 -24145.6068 30.0563 -764.2823 -706.9955 59714.9712 0.0569 0.2537
ENERGY: 20000 0.8354 2.3579 36.0225 0.0000 -29673.9165 5098.8502 0.0000 0.0000 374.5151 -24161.3354 30.5231 -24535.8505 -24160.1596 30.0934 -150.6049 -97.2971 59420.5068 3.3787 3.4337
ENERGY: 25000 0.6785 2.9181 37.2333 0.0000 -29691.3947 5110.3865 0.0000 0.0000 362.7745 -24177.4038 29.5662 -24540.1783 -24176.2402 29.9587 -160.6876 -117.2629 59606.1114 5.9313 5.8024
TCL: Running 25000 steps at 60 kelvin.
TCL: Setting parameter langevinTemp to 60
TCL: Running for 25000 steps
ETITLE: TS BOND ANGLE DIHED IMPRP ELECT VDW BOUNDARY MISC KINETIC TOTAL TEMP POTENTIAL TOTAL3 TEMPAVG PRESSURE GPRESSURE VOLUME PRESSAVG GPRESSAVG
ENERGY: 25000 0.6785 2.9181 37.2333 0.0000 -29691.3947 5110.3865 0.0000 0.0000 362.5925 -24177.5858 29.5514 -24540.1783 -24176.7908 29.5514 -167.9460 -117.3131 59606.1114 -167.9460 -117.3131
ENERGY: 30000 0.4513 4.4131 36.9345 0.0000 -29142.8877 4873.1312 0.0000 0.0000 737.2558 -23490.7018 60.0865 -24227.9577 -23488.8361 57.3556 -596.1288 -525.5123 60108.6401 3.1845 3.2590
ENERGY: 35000 0.5868 2.8314 37.4080 0.0000 -29416.9255 5105.5983 0.0000 0.0000 742.4085 -23528.0924 60.5064 -24270.5009 -23526.0319 60.2025 240.6887 301.6730 59926.0198 6.3006 6.2027
ENERGY: 40000 0.8343 4.5181 36.1168 0.0000 -29364.3795 5038.7320 0.0000 0.0000 741.2967 -23542.8816 60.4158 -24284.1783 -23541.1978 59.9496 -8.5185 32.3721 59918.3917 3.7322 3.8922
ENERGY: 45000 0.9399 3.5856 37.2624 0.0000 -29200.5994 4868.8383 0.0000 0.0000 737.9808 -23551.9924 60.1456 -24289.9732 -23550.4001 59.9584 -620.7147 -588.7022 59862.1776 -1.7523 -1.5991
ENERGY: 50000 0.7163 3.4858 36.8528 0.0000 -29606.4790 5253.1277 0.0000 0.0000 738.6111 -23573.6853 60.1969 -24312.2964 -23572.1622 60.2688 896.4067 964.4402 59312.6398 1.6753 1.4921
TCL: Running 25000 steps at 90 kelvin.
TCL: Setting parameter langevinTemp to 90
TCL: Running for 25000 steps
ETITLE: TS BOND ANGLE DIHED IMPRP ELECT VDW BOUNDARY MISC KINETIC TOTAL TEMP POTENTIAL TOTAL3 TEMPAVG PRESSURE GPRESSURE VOLUME PRESSAVG GPRESSAVG
ENERGY: 50000 0.7163 3.4858 36.8528 0.0000 -29606.4790 5253.1277 0.0000 0.0000 738.2513 -23574.0451 60.1676 -24312.2964 -23572.7087 60.1676 911.3379 964.2470 59312.6398 911.3379 964.2470
ENERGY: 55000 1.1599 8.2222 34.8283 0.0000 -28972.2015 4977.0617 0.0000 0.0000 1099.3805 -22851.5489 89.5997 -23950.9294 -22849.9065 87.2622 423.3032 473.2545 59822.7998 9.1342 8.8948
ENERGY: 60000 0.3043 4.9820 37.1608 0.0000 -28818.4596 4791.4948 0.0000 0.0000 1107.7782 -22876.7396 90.2841 -23984.5177 -22872.9293 90.1602 -437.7298 -388.4140 60207.0047 1.3078 1.2773
ENERGY: 65000 0.5409 5.3474 37.1470 0.0000 -28849.5892 4808.3895 0.0000 0.0000 1106.2128 -22891.9515 90.1565 -23998.1643 -22889.7693 90.1134 -368.4355 -341.3839 60076.8189 -0.0196 -0.0492
ENERGY: 70000 0.7881 3.6995 38.0659 0.0000 -29059.2484 5034.0123 0.0000 0.0000 1087.6608 -22895.0217 88.6446 -23982.6825 -22893.3508 90.4397 478.7306 563.7999 59841.5089 0.4333 0.1929
ENERGY: 75000 1.3186 3.7275 37.1045 0.0000 -29043.2724 4960.9616 0.0000 0.0000 1103.6753 -22936.4849 89.9497 -24040.1601 -22935.1780 89.6680 102.4486 152.3469 59918.6163 7.3026 7.0366
TCL: Running 25000 steps at 120 kelvin.
TCL: Setting parameter langevinTemp to 120
TCL: Running for 25000 steps
ETITLE: TS BOND ANGLE DIHED IMPRP ELECT VDW BOUNDARY MISC KINETIC TOTAL TEMP POTENTIAL TOTAL3 TEMPAVG PRESSURE GPRESSURE VOLUME PRESSAVG GPRESSAVG
ENERGY: 75000 1.3186 3.7275 37.1045 0.0000 -29043.2724 4960.9616 0.0000 0.0000 1103.1250 -22937.0352 89.9049 -24040.1601 -22934.6753 89.9049 102.3164 152.2003 59918.6163 102.3164 152.2003
ENERGY: 80000 1.1916 9.1848 36.3896 0.0000 -28609.9809 4914.7720 0.0000 0.0000 1494.5619 -22153.8811 121.8071 -23648.4429 -22150.6341 116.1367 806.3929 875.4528 59570.8650 4.4277 4.6130
ENERGY: 85000 0.9470 7.2019 36.6025 0.0000 -28306.8744 4638.7433 0.0000 0.0000 1452.7308 -22170.6489 118.3978 -23623.3797 -22166.7983 119.7792 -331.8102 -312.3069 60178.8606 1.6241 1.3448
ENERGY: 90000 0.7799 6.3236 37.8463 0.0000 -28740.0323 4996.7864 0.0000 0.0000 1463.5017 -22234.7944 119.2757 -23698.2961 -22230.1985 119.7288 1022.3874 1049.7762 59658.6830 1.8735 1.8454
ENERGY: 95000 1.3789 4.8825 37.9896 0.0000 -28406.3981 4662.7215 0.0000 0.0000 1497.6302 -22201.7954 122.0571 -23699.4256 -22197.8645 120.3231 -393.3984 -364.2275 60246.1486 7.5540 7.4119
ENERGY: 100000 1.1523 7.2804 38.2304 0.0000 -28530.0762 4758.9564 0.0000 0.0000 1430.7213 -22293.7354 116.6041 -23724.4567 -22290.5920 120.0189 -129.1875 -83.1032 59888.4686 2.9255 3.0518
TCL: Running 25000 steps at 150 kelvin.
TCL: Setting parameter langevinTemp to 150
TCL: Running for 25000 steps
ETITLE: TS BOND ANGLE DIHED IMPRP ELECT VDW BOUNDARY MISC KINETIC TOTAL TEMP POTENTIAL TOTAL3 TEMPAVG PRESSURE GPRESSURE VOLUME PRESSAVG GPRESSAVG
ENERGY: 100000 1.1523 7.2804 38.2304 0.0000 -28530.0762 4758.9564 0.0000 0.0000 1430.0005 -22294.4562 116.5453 -23724.4567 -22291.6785 116.5453 -135.4900 -82.8878 59888.4686 -135.4900 -82.8878
ENERGY: 105000 1.2330 10.1661 36.9829 0.0000 -27771.4621 4475.2208 0.0000 0.0000 1807.8083 -21440.0509 147.3367 -23247.8592 -21437.3333 147.2433 -422.6737 -368.6257 60389.2712 2.8796 2.9259
ENERGY: 110000 1.8549 6.5854 39.4918 0.0000 -27880.3040 4502.2155 0.0000 0.0000 1815.8368 -21514.3196 147.9910 -23330.1564 -21508.9080 149.7410 -473.4809 -412.2052 60323.2126 5.6878 5.6681
ENERGY: 115000 2.1947 6.5129 37.6742 0.0000 -28026.2550 4570.6384 0.0000 0.0000 1872.8851 -21536.3497 152.6405 -23409.2348 -21530.3754 149.9344 -253.0638 -217.6482 60372.9601 3.6180 3.9024
ENERGY: 120000 1.0728 9.3555 39.2686 0.0000 -28015.7515 4589.9192 0.0000 0.0000 1820.3380 -21555.7974 148.3579 -23376.1355 -21550.1364 150.4711 -139.9214 -78.8563 60320.6267 -1.6630 -1.2687
ENERGY: 125000 0.7868 8.7828 36.8814 0.0000 -27932.6151 4503.0680 0.0000 0.0000 1832.9644 -21550.1318 149.3869 -23383.0962 -21544.5181 150.0881 -635.8057 -559.4824 60581.6037 5.1180 5.0155
TCL: Running 50000 steps at 180 kelvin.
TCL: Setting parameter langevinTemp to 180
TCL: Running for 50000 steps
ETITLE: TS BOND ANGLE DIHED IMPRP ELECT VDW BOUNDARY MISC KINETIC TOTAL TEMP POTENTIAL TOTAL3 TEMPAVG PRESSURE GPRESSURE VOLUME PRESSAVG GPRESSAVG
ENERGY: 125000 0.7868 8.7828 36.8814 0.0000 -27932.6151 4503.0680 0.0000 0.0000 1832.0159 -21551.0803 149.3096 -23383.0962 -21546.8869 149.3096 -626.8329 -559.6972 60581.6037 -626.8329 -559.6972
ENERGY: 135000 4.5416 7.2781 38.4719 0.0000 -27223.1691 4346.2915 0.0000 0.0000 2194.9275 -20631.6584 178.8870 -22826.5860 -20627.4841 178.9540 -152.1034 -95.2369 60448.0551 1.1191 1.0912
ENERGY: 145000 2.1435 8.1207 37.8595 0.0000 -27248.8966 4318.0012 0.0000 0.0000 2203.7765 -20678.9952 179.6082 -22882.7717 -20674.5204 178.7606 -423.9041 -364.0369 60536.3452 -1.5859 -1.7746
ENERGY: 155000 1.1891 10.3478 38.3485 0.0000 -27029.7855 4187.0520 0.0000 0.0000 2223.1612 -20569.6869 181.1881 -22792.8481 -20564.8984 180.7146 -767.3562 -720.4657 60712.8518 5.2277 5.0480
ENERGY: 165000 1.4865 10.8909 39.2947 0.0000 -27359.2661 4429.7574 0.0000 0.0000 2253.6835 -20624.1531 183.6756 -22877.8366 -20619.6344 179.7419 208.0577 254.6202 59821.5331 0.5237 0.1250
ENERGY: 175000 2.1400 15.6361 36.8070 0.0000 -27312.6166 4370.4540 0.0000 0.0000 2194.8935 -20692.6859 178.8842 -22887.5793 -20688.1937 180.0986 -189.7861 -157.1834 60381.6088 2.1547 2.6004
TCL: Running 50000 steps at 210 kelvin.
TCL: Setting parameter langevinTemp to 210
TCL: Running for 50000 steps
ETITLE: TS BOND ANGLE DIHED IMPRP ELECT VDW BOUNDARY MISC KINETIC TOTAL TEMP POTENTIAL TOTAL3 TEMPAVG PRESSURE GPRESSURE VOLUME PRESSAVG GPRESSAVG
ENERGY: 175000 2.1400 15.6361 36.8070 0.0000 -27312.6166 4370.4540 0.0000 0.0000 2193.7304 -20693.8490 178.7894 -22887.5793 -20689.3951 178.7894 -219.5985 -157.1205 60381.6088 -219.5985 -157.1205
ENERGY: 185000 1.5032 11.4441 39.7548 0.0000 -26014.8535 3952.0054 0.0000 0.0000 2550.4497 -19459.6962 207.8621 -22010.1460 -19453.8019 209.1659 -264.4648 -225.1440 60497.2125 1.0185 0.2862
ENERGY: 195000 3.0189 8.4506 40.9061 0.0000 -26053.4462 4021.2592 0.0000 0.0000 2555.0190 -19424.7925 208.2345 -21979.8114 -19417.4365 209.5086 290.7278 346.8402 60072.9479 1.6686 2.2934
ENERGY: 205000 2.4453 10.6005 38.3165 0.0000 -26040.7209 3941.4292 0.0000 0.0000 2571.5028 -19476.4266 209.5780 -22047.9294 -19469.9478 209.3391 -454.6329 -374.7799 60546.3016 3.4975 3.7466
ENERGY: 215000 1.7045 9.7330 39.7384 0.0000 -25881.2511 3907.0014 0.0000 0.0000 2571.6969 -19351.3769 209.5938 -21923.0738 -19345.2452 210.6499 -266.8511 -159.4048 60323.3661 4.9718 5.7445
ENERGY: 225000 1.9326 11.8102 38.4313 0.0000 -25971.7478 3912.1556 0.0000 0.0000 2607.2949 -19400.1232 212.4950 -22007.4180 -19394.5053 210.8972 -358.1783 -261.8641 60071.2228 3.9072 4.0284
TCL: Running 50000 steps at 240 kelvin.
TCL: Setting parameter langevinTemp to 240
TCL: Running for 50000 steps
ETITLE: TS BOND ANGLE DIHED IMPRP ELECT VDW BOUNDARY MISC KINETIC TOTAL TEMP POTENTIAL TOTAL3 TEMPAVG PRESSURE GPRESSURE VOLUME PRESSAVG GPRESSAVG
ENERGY: 225000 1.9326 11.8102 38.4313 0.0000 -25971.7478 3912.1556 0.0000 0.0000 2606.0048 -19401.4133 212.3899 -22007.4180 -19396.2412 212.3899 -348.6085 -261.9625 60071.2228 -348.6085 -261.9625
ENERGY: 235000 3.4933 16.6750 39.6410 0.0000 -24703.5338 3520.3467 0.0000 0.0000 2912.5719 -18210.8059 237.3751 -21123.3778 -18205.2885 240.6534 -506.7547 -381.9848 61007.5000 2.5344 2.5605
ENERGY: 245000 0.8450 10.2105 39.7752 0.0000 -24736.2562 3624.5396 0.0000 0.0000 2916.7913 -18144.0947 237.7190 -21060.8860 -18138.5079 239.5226 75.4180 212.5351 60484.1642 -0.6334 -0.1981
ENERGY: 255000 2.3297 8.4738 36.8453 0.0000 -24456.7281 3471.5278 0.0000 0.0000 2956.9859 -17980.5655 240.9949 -20937.5514 -17973.9185 240.0270 -458.5921 -412.6716 61243.1171 2.1991 1.9428
ENERGY: 265000 7.7248 17.2449 36.3297 0.0000 -24629.1643 3573.9731 0.0000 0.0000 2930.0086 -18063.8832 238.7962 -20993.8919 -18057.6115 240.1872 -100.9654 -27.2559 60910.8425 -0.0729 0.1406
ENERGY: 275000 0.8189 10.4418 38.5946 0.0000 -24545.3792 3480.0304 0.0000 0.0000 2955.5026 -18059.9908 240.8740 -21015.4934 -18053.7352 239.5210 -432.4012 -340.1298 60824.4764 1.6968 1.7557
TCL: Running 50000 steps at 270 kelvin.
TCL: Setting parameter langevinTemp to 270
TCL: Running for 50000 steps
ETITLE: TS BOND ANGLE DIHED IMPRP ELECT VDW BOUNDARY MISC KINETIC TOTAL TEMP POTENTIAL TOTAL3 TEMPAVG PRESSURE GPRESSURE VOLUME PRESSAVG GPRESSAVG
ENERGY: 275000 0.8189 10.4418 38.5946 0.0000 -24545.3792 3480.0304 0.0000 0.0000 2954.0244 -18061.4690 240.7535 -21015.4934 -18056.5261 240.7535 -426.2434 -339.5012 60824.4764 -426.2434 -339.5012
ENERGY: 285000 3.7076 14.4450 38.5800 0.0000 -23569.7619 3356.5392 0.0000 0.0000 3338.8418 -16817.6484 272.1162 -20156.4902 -16809.0391 271.4683 350.9393 416.3014 61557.2805 1.0984 1.5328
ENERGY: 295000 3.7149 14.8166 37.5764 0.0000 -23364.4912 3282.6403 0.0000 0.0000 3295.2019 -16730.5412 268.5596 -20025.7430 -16723.7666 272.6293 47.0928 215.6664 61940.3563 5.7498 4.6686
ENERGY: 305000 1.2757 14.4493 41.3548 0.0000 -23431.7406 3178.7763 0.0000 0.0000 3305.5073 -16890.3773 269.3995 -20195.8846 -16882.9109 267.7480 -428.2521 -354.4842 61969.5051 4.2612 4.2726
ENERGY: 315000 2.8341 11.4107 36.7361 0.0000 -23435.0254 3154.4735 0.0000 0.0000 3347.9934 -16881.5776 272.8621 -20229.5710 -16873.0013 270.2915 -616.0089 -536.6840 62137.2828 5.0824 4.8175
ENERGY: 325000 3.4055 15.4323 39.0335 0.0000 -23411.1242 3321.8549 0.0000 0.0000 3366.8770 -16664.5210 274.4011 -20031.3980 -16658.8372 268.7346 429.3483 506.5118 61623.8534 1.6467 1.7999
TCL: Running 1000000 steps at 300 kelvin.
TCL: Setting parameter langevinTemp to 300
TCL: Running for 1000000 steps
ETITLE: TS BOND ANGLE DIHED IMPRP ELECT VDW BOUNDARY MISC KINETIC TOTAL TEMP POTENTIAL TOTAL3 TEMPAVG PRESSURE GPRESSURE VOLUME PRESSAVG GPRESSAVG
ENERGY: 325000 3.4055 15.4323 39.0335 0.0000 -23411.1242 3321.8549 0.0000 0.0000 3365.2004 -16666.1976 274.2645 -20031.3980 -16661.1063 274.2645 420.0962 506.3305 61623.8534 420.0962 506.3305
ENERGY: 525000 2.6322 11.7094 37.5830 0.0000 -22261.1856 2947.8906 0.0000 0.0000 3659.6567 -15601.7138 298.2627 -19261.3705 -15596.5228 300.9099 -138.0494 -83.6119 63820.4093 1.7907 1.3191
ENERGY: 725000 1.6131 16.4117 41.7182 0.0000 -22188.2740 2902.3927 0.0000 0.0000 3641.6097 -15584.5287 296.7919 -19226.1384 -15578.5995 301.4135 -467.6495 -374.8888 64260.8540 -0.2548 -0.3775
ENERGY: 925000 1.4630 18.2414 37.9135 0.0000 -22305.4210 2955.3628 0.0000 0.0000 3639.5321 -15652.9082 296.6225 -19292.4403 -15642.5916 300.5612 -73.6795 -28.6084 63510.9107 4.4876 4.3673
ENERGY: 1125000 5.4399 12.2965 39.7293 0.0000 -22317.3384 2994.1141 0.0000 0.0000 3678.5503 -15587.2082 299.8025 -19265.7585 -15579.8471 299.5817 -1.7697 116.2447 63713.5589 1.3199 1.2553
ENERGY: 1325000 6.5624 17.6315 38.3734 0.0000 -22251.9963 2981.2515 0.0000 0.0000 3654.5835 -15553.5940 297.8492 -19208.1775 -15546.6549 301.2504 -148.1194 -65.8738 64015.6683 2.9000 2.0167
TCL: Exiting due to exit command.
