Info: SIMULATION PARAMETERS:
Info: TIMESTEP               2
Info: NUMBER OF STEPS        0
Info: STEPS PER CYCLE        10
Info: PERIODIC CELL BASIS 1  32.1369 0 0
Info: PERIODIC CELL BASIS 2  0 31.4229 0
Info: PERIODIC CELL BASIS 3  0 0 30.2742
Info: PERIODIC CELL CENTER   0 0 0
Info: WRAPPING WATERS AROUND PERIODIC BOUNDARIES ON OUTPUT.
Info: WRAPPING ALL CLUSTERS AROUND PERIODIC BOUNDARIES ON OUTPUT.
Info: FIRST LDB TIMESTEP     50
Info: LAST LDB TIMESTEP     -1
Info: HOM BACKGROUND SCALING 1
Info: PME BACKGROUND SCALING 1
Info: MIN ATOMS PER PATCH    40
Info: EMPTY PATCH LOAD       40 ATOMS
Info: VELOCITY FILE          mobley_3211679_equil.vel
Info: CENTER OF MASS MOVING INITIALLY? NO
Info: DIELECTRIC             1
Info: EXCLUDE                SCALED ONE-FOUR
Info: 1-4 ELECTROSTATICS SCALED BY 0.833333
Info: MODIFIED 1-4 VDW PARAMETERS WILL BE USED
Info: DCD FILENAME           mobley_3211679_prod.dcd
Info: DCD FREQUENCY          100000
Info: DCD FIRST STEP         100000
Info: DCD FILE WILL CONTAIN UNIT CELL DATA
Info: XST FILENAME           mobley_3211679_prod.xst
Info: XST FREQUENCY          100000
Info: NO VELOCITY DCD OUTPUT
Info: NO FORCE DCD OUTPUT
Info: OUTPUT FILENAME        mobley_3211679_prod
Info: BINARY OUTPUT FILES WILL BE USED
Info: RESTART FILENAME       mobley_3211679_prod.restart
Info: RESTART FREQUENCY      100000
Info: BINARY RESTART FILES WILL BE USED
Info: CUTOFF                 9
Info: PAIRLIST DISTANCE      11
Info: PAIRLIST SHRINK RATE   0.01
Info: PAIRLIST GROW RATE     0.01
Info: PAIRLIST TRIGGER       0.3
Info: PAIRLISTS PER CYCLE    2
Info: PAIRLISTS ENABLED
Info: MARGIN                 2
Info: HYDROGEN GROUP CUTOFF  2.5
Info: PATCH DIMENSION        15.5
Info: ENERGY OUTPUT STEPS    100000
Info: ENERGY EVALUATION STEPS    100000
Info: OUTPUT ENERGY PRECISION 4
Info: CROSSTERM ENERGY INCLUDED IN DIHEDRAL
Info: TIMING OUTPUT STEPS    1000000
Info: PRESSURE OUTPUT STEPS  100000
Info: ALCHEMICAL FEP ON
Info: FEP CURRENT LAMBDA VALUE     1
Info: FEP COMPARISON LAMBDA VALUE  0.95
Info: FEP INTRA-ALCHEMICAL NON-BONDED INTERACTIONS WILL BE RETAINED
Info: FEP INTRA-ALCHEMICAL BONDED INTERACTIONS WILL BE RETAINED
Info: FEP VDW SHIFTING COEFFICIENT 5
Info: FEP ELEC. ACTIVE FOR ANNIHILATED PARTICLES BETWEEN LAMBDA = 0 AND LAMBDA = 0.5
Info: FEP ELEC. ACTIVE FOR EXNIHILATED PARTICLES BETWEEN LAMBDA = 0.5 AND LAMBDA = 1
Info: FEP VDW ACTIVE FOR ANNIHILATED PARTICLES BETWEEN LAMBDA = 0 AND LAMBDA = 1
Info: FEP VDW ACTIVE FOR EXNIHILATED PARTICLES BETWEEN LAMBDA = 0 AND LAMBDA = 1
Info: FEP BOND ACTIVE FOR ANNIHILATED PARTICLES BETWEEN LAMBDA = 1 AND LAMBDA = 1
Info: FEP BOND ACTIVE FOR EXNIHILATED PARTICLES BETWEEN LAMBDA = 0 AND LAMBDA = 0
Info: LANGEVIN DYNAMICS ACTIVE
Info: LANGEVIN TEMPERATURE   300
Info: LANGEVIN USING BBK INTEGRATOR
Info: LANGEVIN DAMPING COEFFICIENT IS 1 INVERSE PS
Info: LANGEVIN DYNAMICS APPLIED TO HYDROGENS
Info: LANGEVIN PISTON PRESSURE CONTROL ACTIVE
Info:        TARGET PRESSURE IS 1.01325 BAR
Info:     OSCILLATION PERIOD IS 50 FS
Info:             DECAY TIME IS 25 FS
Info:     PISTON TEMPERATURE IS 300 K
Info:       PRESSURE CONTROL IS GROUP-BASED
Info:    INITIAL STRAIN RATE IS 0.00017308 0.00017308 0.00017308
Info:       CELL FLUCTUATION IS ISOTROPIC
Info: PARTICLE MESH EWALD (PME) ACTIVE
Info: PME TOLERANCE               1e-06
Info: PME EWALD COEFFICIENT       0.348832
Info: PME INTERPOLATION ORDER     4
Info: PME GRID DIMENSIONS         36 32 32
Info: PME MAXIMUM GRID SPACING    1
Info: PME CALCULATION WILL BE PERFORMED ON GPU
Info: FULL ELECTROSTATIC EVALUATION FREQUENCY      2
Info: USING VERLET I (r-RESPA) MTS SCHEME.
Info: C1 SPLITTING OF LONG RANGE ELECTROSTATICS
Info: PLACING ATOMS IN PATCHES BY HYDROGEN GROUPS
Info: RIGID BONDS TO HYDROGEN : ALL
Info:         ERROR TOLERANCE : 1e-08
Info:          MAX ITERATIONS : 100
Info: RIGID WATER USING SETTLE ALGORITHM
Info: RANDOM NUMBER SEED     1742345758
Info: USE HYDROGEN BONDS?    NO
Info: Using AMBER format force field!
Info: AMBER PARM FILE        mobley_3211679.prmtop
Info: COORDINATE PDB         mobley_3211679.pdb
Info: Exclusions will be read from PARM file!
Info: SCNB (VDW SCALING)     2
Info: USING ARITHMETIC MEAN TO COMBINE L-J SIGMA PARAMETERS
Info: BINARY COORDINATES     mobley_3211679_equil.coor
Info: SUMMARY OF PARAMETERS:
Info: 7 BONDS
Info: 8 ANGLES
Info:   8 HARMONIC
Info:   0 COSINE-BASED
Info: 10 DIHEDRAL
Info: 0 IMPROPER
Info: 0 CROSSTERM
Info: 0 VDW
Info: 21 VDW_PAIRS
Info: 0 NBTHOLE_PAIRS
Info: To read alchdata from file: mobley_3211679.pdb
Info: To read alchflag data from column: 5
Info: STRUCTURE SUMMARY:
Info: 2983 ATOMS
Info: 2983 BONDS
Info: 30 ANGLES
Info: 45 DIHEDRALS
Info: 0 IMPROPERS
Info: 0 CROSSTERMS
Info: 3053 EXCLUSIONS
Info: 2977 RIGID BONDS
Info: ALCH: 0 ATOMS TO DISAPPEAR IN FINAL STATE
Info: ALCH: 16 ATOMS TO APPEAR IN FINAL STATE
Info: 5972 DEGREES OF FREEDOM
Info: 995 HYDROGEN GROUPS
Info: 3 ATOMS IN LARGEST HYDROGEN GROUP
Info: 995 MIGRATION GROUPS
Info: 3 ATOMS IN LARGEST MIGRATION GROUP
Info: TOTAL MASS = 17900 amu
Info: TOTAL CHARGE = -0.000200011 e
Info: MASS DENSITY = 0.972274 g/cm^3
Info: ATOM DENSITY = 0.0975732 atoms/A^3
Info: ADDED 0 IMPLICIT EXCLUSIONS
Info: NONBONDED TABLE R-SQUARED SPACING: 0.0625
Info: NONBONDED TABLE SIZE: 705 POINTS
Info: REMOVING COM VELOCITY -0.0330627 0.0741016 -0.0661518
Info: Use 3D box decompostion in PME FFT.
Info: Updated CUDA force table with 4096 elements.
Info: Updated CUDA LJ table with 6 x 6 elements.
Info: Found 18 unique exclusion lists needing 44 bytes
TCL: Running for 1500000 steps
ETITLE: TS BOND ANGLE DIHED IMPRP ELECT VDW BOUNDARY MISC KINETIC TOTAL TEMP POTENTIAL TOTALAVG TEMPAVG PRESSURE GPRESSURE VOLUME PRESSAVG GPRESSAVG
ENERGY: 0 1.3446 8.2856 2.5435 0.0000 -10908.7060 1465.7033 0.0000 0.0000 1762.2438 -7668.5853 296.9864 -9430.8291 -7668.5853 296.9864 -105.8978 -31.5156 30571.9265 -105.8978 -31.5156
ENERGY: 300000 4.2660 8.4525 3.0597 0.0000 -10891.7947 1491.8543 0.0000 0.0000 1792.7356 -7591.4266 302.1251 -9384.1622 -7575.2193 300.1389 -99.7251 -38.1885 30755.7004 -53.3850 -2.1972
ENERGY: 600000 1.2921 3.7680 3.1399 0.0000 -10776.9984 1431.0842 0.0000 0.0000 1783.1286 -7554.5856 300.5061 -9337.7142 -7582.7511 300.1730 -141.1034 -52.3391 30721.4103 -88.2858 -36.7255
ENERGY: 900000 3.6294 5.5118 3.1216 0.0000 -10786.7924 1429.3243 0.0000 0.0000 1761.8390 -7583.3661 296.9182 -9345.2051 -7579.4145 298.3358 -227.9417 -114.0062 30534.2965 -70.4441 -13.5778
ENERGY: 1200000 1.5206 5.6809 2.1666 0.0000 -10781.4339 1354.2398 0.0000 0.0000 1778.9931 -7638.8330 299.8091 -9417.8261 -7590.4837 297.6901 -1133.6279 -1092.8211 30887.1788 -93.2753 -30.9505
ENERGY: 1500000 1.6150 6.7726 2.9310 0.0000 -10728.2442 1389.1372 0.0000 0.0000 1817.1085 -7510.6798 306.2326 -9327.7884 -7578.9124 298.7231 -439.5702 -364.5926 30712.3860 -128.8002 -68.0707
TCL: Running FEP window   2: Lambda1 0.95   Lambda2 0.8999999999999999 [dLambda -0.050000000000000044]
TCL: Setting parameter firsttimestep to 0
TCL: Setting parameter alchLambda to 0.95
Info: NONBONDED TABLE R-SQUARED SPACING: 0.0625
Info: NONBONDED TABLE SIZE: 705 POINTS
TCL: Setting parameter alchLambda2 to 0.8999999999999999
Info: NONBONDED TABLE R-SQUARED SPACING: 0.0625
Info: NONBONDED TABLE SIZE: 705 POINTS
TCL: Running for 1500000 steps
ETITLE: TS BOND ANGLE DIHED IMPRP ELECT VDW BOUNDARY MISC KINETIC TOTAL TEMP POTENTIAL TOTALAVG TEMPAVG PRESSURE GPRESSURE VOLUME PRESSAVG GPRESSAVG
ENERGY: 0 1.6150 6.7726 2.9310 0.0000 -10728.2751 1389.5548 0.0000 0.0000 1816.2127 -7511.1890 306.0816 -9327.4017 -7511.1890 306.0816 -467.1729 -370.8550 30712.3860 -467.1729 -370.8550
ENERGY: 300000 4.5465 6.6901 4.5350 0.0000 -10871.1354 1470.6013 0.0000 0.0000 1816.7563 -7568.0062 306.1733 -9384.7625 -7563.9890 300.3527 124.6715 163.5130 30568.2188 192.1712 256.0844
ENERGY: 600000 1.0639 7.5519 3.5146 0.0000 -10742.4879 1431.3935 0.0000 0.0000 1774.2268 -7524.7371 299.0059 -9298.9639 -7555.4928 300.2307 -64.5895 34.6358 30605.8502 44.0515 122.6385
ENERGY: 900000 3.0229 5.9485 2.0199 0.0000 -10856.2511 1488.4449 0.0000 0.0000 1790.7644 -7566.0505 301.7929 -9356.8148 -7551.1989 300.5379 323.6151 326.9797 30626.0730 -95.9152 -32.0832
ENERGY: 1200000 1.6325 5.0074 2.9186 0.0000 -10771.3770 1447.5965 0.0000 0.0000 1776.8866 -7537.3355 299.4541 -9314.2221 -7549.2795 301.0423 75.4915 137.0671 30894.6972 -108.7807 -47.0146
ENERGY: 1500000 2.2072 9.5894 2.0292 0.0000 -10792.9196 1391.6373 0.0000 0.0000 1770.3423 -7617.1141 298.3512 -9387.4564 -7549.3626 301.2858 -661.6991 -608.0793 30625.0463 -158.9334 -103.8310
TCL: Running FEP window   3: Lambda1 0.8999999999999999 Lambda2 0.8499999999999999 [dLambda -0.050000000000000044]
TCL: Setting parameter firsttimestep to 0
TCL: Setting parameter alchLambda to 0.8999999999999999
Info: NONBONDED TABLE R-SQUARED SPACING: 0.0625
Info: NONBONDED TABLE SIZE: 705 POINTS
TCL: Setting parameter alchLambda2 to 0.8499999999999999
Info: NONBONDED TABLE R-SQUARED SPACING: 0.0625
Info: NONBONDED TABLE SIZE: 705 POINTS
TCL: Running for 1500000 steps
ETITLE: TS BOND ANGLE DIHED IMPRP ELECT VDW BOUNDARY MISC KINETIC TOTAL TEMP POTENTIAL TOTALAVG TEMPAVG PRESSURE GPRESSURE VOLUME PRESSAVG GPRESSAVG
ENERGY: 0 2.2072 9.5894 2.0292 0.0000 -10792.6765 1391.6094 0.0000 0.0000 1769.4614 -7617.7799 298.2028 -9387.2413 -7617.7799 298.2028 -720.3417 -620.9091 30625.0463 -720.3417 -620.9091
ENERGY: 300000 2.3253 6.7166 2.0784 0.0000 -10893.6019 1529.3750 0.0000 0.0000 1784.2146 -7568.8919 300.6891 -9353.1066 -7592.7092 299.9978 560.3559 639.0231 30754.2422 -175.1674 -120.0111
ENERGY: 600000 1.6017 9.2259 1.6064 0.0000 -10740.8820 1467.0521 0.0000 0.0000 1788.1610 -7473.2348 301.3542 -9261.3958 -7584.9436 300.4677 299.6201 317.6549 31000.6466 -100.0721 -54.3229
ENERGY: 900000 1.5150 9.2182 1.7326 0.0000 -10824.4875 1410.3143 0.0000 0.0000 1819.6857 -7582.0217 306.6669 -9401.7074 -7595.0549 299.8921 -599.8006 -536.5375 31000.7375 -101.0045 -57.8775
ENERGY: 1200000 1.1338 5.9656 2.9612 0.0000 -10875.5093 1512.5808 0.0000 0.0000 1773.1021 -7579.7658 298.8163 -9352.8679 -7591.6062 299.5886 624.9928 620.3965 30441.8353 -52.2786 -11.7337
ENERGY: 1500000 1.9948 5.9201 2.9889 0.0000 -10811.8247 1474.1177 0.0000 0.0000 1796.6982 -7530.1049 302.7929 -9326.8031 -7582.7306 300.0531 251.3414 316.1637 30519.7239 -82.0913 -39.9030
TCL: Running FEP window   4: Lambda1 0.8499999999999999 Lambda2 0.7999999999999998 [dLambda -0.050000000000000044]
TCL: Setting parameter firsttimestep to 0
TCL: Setting parameter alchLambda to 0.8499999999999999
Info: NONBONDED TABLE R-SQUARED SPACING: 0.0625
Info: NONBONDED TABLE SIZE: 705 POINTS
TCL: Setting parameter alchLambda2 to 0.7999999999999998
Info: NONBONDED TABLE R-SQUARED SPACING: 0.0625
Info: NONBONDED TABLE SIZE: 705 POINTS
TCL: Running for 1500000 steps
ETITLE: TS BOND ANGLE DIHED IMPRP ELECT VDW BOUNDARY MISC KINETIC TOTAL TEMP POTENTIAL TOTALAVG TEMPAVG PRESSURE GPRESSURE VOLUME PRESSAVG GPRESSAVG
ENERGY: 0 1.9948 5.9201 2.9889 0.0000 -10811.6785 1474.3535 0.0000 0.0000 1795.8102 -7530.6110 302.6433 -9326.4212 -7530.6110 302.6433 212.7274 309.9927 30519.7239 212.7274 309.9927
ENERGY: 300000 0.6516 6.6255 2.6399 0.0000 -10838.0788 1484.1153 0.0000 0.0000 1802.9535 -7541.0929 303.8471 -9344.0464 -7516.3897 302.5029 331.8970 372.4931 30515.5851 58.2601 126.4395
ENERGY: 600000 0.7314 5.8090 3.0195 0.0000 -10795.2416 1461.3406 0.0000 0.0000 1824.9206 -7499.4205 307.5492 -9324.3411 -7492.9498 304.0423 165.5439 193.1430 30659.7259 185.1362 236.3465
ENERGY: 900000 2.3349 8.1693 1.9779 0.0000 -10891.9385 1568.6697 0.0000 0.0000 1770.3404 -7540.4463 298.3509 -9310.7867 -7504.3083 303.5052 810.7653 909.0204 30866.5745 295.1407 351.1446
ENERGY: 1200000 2.3056 4.8919 2.8302 0.0000 -10719.1790 1394.7880 0.0000 0.0000 1726.1935 -7588.1698 290.9109 -9314.3633 -7528.0310 301.6013 -562.0298 -476.8861 31171.6855 147.7714 206.8572
ENERGY: 1500000 3.3019 5.0972 3.1608 0.0000 -10884.3149 1483.0571 0.0000 0.0000 1744.4870 -7645.2108 293.9939 -9389.6979 -7547.6575 300.2044 -231.2194 -217.1304 31136.6822 100.6941 153.7533
TCL: Running FEP window   5: Lambda1 0.7999999999999998 Lambda2 0.7499999999999998 [dLambda -0.050000000000000044]
TCL: Setting parameter firsttimestep to 0
TCL: Setting parameter alchLambda to 0.7999999999999998
Info: NONBONDED TABLE R-SQUARED SPACING: 0.0625
Info: NONBONDED TABLE SIZE: 705 POINTS
TCL: Setting parameter alchLambda2 to 0.7499999999999998
Info: NONBONDED TABLE R-SQUARED SPACING: 0.0625
Info: NONBONDED TABLE SIZE: 705 POINTS
TCL: Running for 1500000 steps
ETITLE: TS BOND ANGLE DIHED IMPRP ELECT VDW BOUNDARY MISC KINETIC TOTAL TEMP POTENTIAL TOTALAVG TEMPAVG PRESSURE GPRESSURE VOLUME PRESSAVG GPRESSAVG
ENERGY: 0 3.3019 5.0972 3.1608 0.0000 -10884.2324 1482.8755 0.0000 0.0000 1743.5991 -7646.1979 293.8443 -9389.7970 -7646.1979 293.8443 -309.2818 -227.5212 31136.6822 -309.2818 -227.5212
ENERGY: 300000 4.6093 6.7195 4.5593 0.0000 -10868.9840 1462.8486 0.0000 0.0000 1820.2387 -7570.0086 306.7601 -9390.2473 -7569.9827 300.0105 -191.8175 -217.2542 31050.6570 -207.5603 -162.8174
ENERGY: 600000 1.1812 5.0769 2.4302 0.0000 -10740.0604 1461.7376 0.0000 0.0000 1833.4971 -7436.1374 308.9945 -9269.6345 -7550.1965 300.1415 462.6565 442.5514 30496.3730 69.9301 103.1753
ENERGY: 900000 0.7479 4.2594 2.3048 0.0000 -10627.9507 1368.4694 0.0000 0.0000 1801.7527 -7450.4165 303.6447 -9252.1691 -7527.7210 299.8985 -510.7776 -450.0759 30807.9894 54.9745 96.2241
ENERGY: 1200000 2.3068 9.4372 2.3762 0.0000 -10642.8910 1409.6136 0.0000 0.0000 1793.6756 -7425.4816 302.2835 -9219.1572 -7516.0247 300.8306 -166.2313 -28.8097 30791.6285 69.9222 124.4447
ENERGY: 1500000 2.0180 2.9025 1.9366 0.0000 -10762.6971 1413.5722 0.0000 0.0000 1802.9173 -7539.3503 303.8410 -9342.2676 -7516.3543 301.1612 -489.0602 -366.1785 31053.4026 -7.8056 55.7718
TCL: Running FEP window   6: Lambda1 0.7499999999999998 Lambda2 0.6999999999999997 [dLambda -0.050000000000000044]
TCL: Setting parameter firsttimestep to 0
TCL: Setting parameter alchLambda to 0.7499999999999998
Info: NONBONDED TABLE R-SQUARED SPACING: 0.0625
Info: NONBONDED TABLE SIZE: 705 POINTS
TCL: Setting parameter alchLambda2 to 0.6999999999999997
Info: NONBONDED TABLE R-SQUARED SPACING: 0.0625
Info: NONBONDED TABLE SIZE: 705 POINTS
TCL: Running for 1500000 steps
ETITLE: TS BOND ANGLE DIHED IMPRP ELECT VDW BOUNDARY MISC KINETIC TOTAL TEMP POTENTIAL TOTALAVG TEMPAVG PRESSURE GPRESSURE VOLUME PRESSAVG GPRESSAVG
ENERGY: 0 2.0180 2.9025 1.9366 0.0000 -10762.6746 1414.1582 0.0000 0.0000 1802.0343 -7539.6249 303.6922 -9341.6592 -7539.6249 303.6922 -453.1357 -369.5063 31053.4026 -453.1357 -369.5063
ENERGY: 300000 2.8120 4.6233 2.5388 0.0000 -10984.1742 1528.7345 0.0000 0.0000 1806.6372 -7638.8284 304.4679 -9445.4657 -7614.6319 299.0061 463.1369 494.7379 30319.6088 -47.7676 0.7061
ENERGY: 600000 1.4282 6.4466 4.7016 0.0000 -10733.2344 1389.0966 0.0000 0.0000 1839.7353 -7491.8261 310.0458 -9331.5614 -7550.6025 301.4430 -468.6602 -394.4483 30840.7215 -122.8962 -71.5437
ENERGY: 900000 2.5384 8.4399 1.9745 0.0000 -10725.6427 1344.1113 0.0000 0.0000 1741.2195 -7627.3591 293.4432 -9368.5786 -7569.5523 300.5256 -941.6194 -877.4692 30824.2006 -153.5503 -104.0073
ENERGY: 1200000 2.2272 8.1840 3.1882 0.0000 -10841.4126 1516.5085 0.0000 0.0000 1764.5628 -7546.7419 297.3772 -9311.3047 -7573.3837 300.0060 565.4257 652.3471 30388.3630 8.1953 63.9123
ENERGY: 1500000 1.0224 9.5559 3.1204 0.0000 -10883.6176 1489.9772 0.0000 0.0000 1814.8739 -7565.0678 305.8560 -9379.9417 -7568.7742 300.6568 96.9477 129.2633 30775.9047 90.0704 140.4732
TCL: Running FEP window   7: Lambda1 0.6999999999999997 Lambda2 0.6499999999999997 [dLambda -0.050000000000000044]
TCL: Setting parameter firsttimestep to 0
TCL: Setting parameter alchLambda to 0.6999999999999997
Info: NONBONDED TABLE R-SQUARED SPACING: 0.0625
Info: NONBONDED TABLE SIZE: 705 POINTS
TCL: Setting parameter alchLambda2 to 0.6499999999999997
Info: NONBONDED TABLE R-SQUARED SPACING: 0.0625
Info: NONBONDED TABLE SIZE: 705 POINTS
TCL: Running for 1500000 steps
ETITLE: TS BOND ANGLE DIHED IMPRP ELECT VDW BOUNDARY MISC KINETIC TOTAL TEMP POTENTIAL TOTALAVG TEMPAVG PRESSURE GPRESSURE VOLUME PRESSAVG GPRESSAVG
ENERGY: 0 1.0224 9.5559 3.1204 0.0000 -10883.4072 1490.2313 0.0000 0.0000 1813.9730 -7565.5042 305.7042 -9379.4772 -7565.5042 305.7042 51.6144 124.6787 30775.9047 51.6144 124.6787
ENERGY: 300000 1.3846 9.3159 4.3685 0.0000 -10706.7387 1396.1893 0.0000 0.0000 1729.4404 -7566.0399 291.4581 -9295.4804 -7585.7497 299.6836 -487.5798 -362.7762 30811.6601 -96.7008 -17.8813
ENERGY: 600000 3.2081 6.5552 2.8420 0.0000 -11019.8385 1582.8790 0.0000 0.0000 1775.5683 -7648.7859 299.2320 -9424.3543 -7578.6216 301.0014 657.4823 756.9097 30383.3389 59.8512 140.4242
ENERGY: 900000 0.9514 7.0991 1.7034 0.0000 -10788.9213 1471.5348 0.0000 0.0000 1752.6662 -7554.9665 295.3723 -9307.6327 -7570.1769 300.9844 175.1388 246.9597 30737.0313 159.8162 244.1542
ENERGY: 1200000 0.8407 5.9857 2.5620 0.0000 -10770.0078 1414.6138 0.0000 0.0000 1757.8885 -7588.1171 296.2524 -9346.0056 -7566.5761 301.4623 -39.0965 -18.2411 30477.5202 107.5064 187.4441
ENERGY: 1500000 0.8952 10.7489 1.4518 0.0000 -10881.8680 1568.9581 0.0000 0.0000 1766.3520 -7533.4621 297.6788 -9299.8141 -7563.4760 300.7244 891.4204 988.1052 30705.4062 93.7486 172.7557
TCL: Running FEP window   8: Lambda1 0.6499999999999997 Lambda2 0.5999999999999996 [dLambda -0.050000000000000044]
TCL: Setting parameter firsttimestep to 0
TCL: Setting parameter alchLambda to 0.6499999999999997
Info: NONBONDED TABLE R-SQUARED SPACING: 0.0625
Info: NONBONDED TABLE SIZE: 705 POINTS
TCL: Setting parameter alchLambda2 to 0.5999999999999996
Info: NONBONDED TABLE R-SQUARED SPACING: 0.0625
Info: NONBONDED TABLE SIZE: 705 POINTS
TCL: Running for 1500000 steps
ETITLE: TS BOND ANGLE DIHED IMPRP ELECT VDW BOUNDARY MISC KINETIC TOTAL TEMP POTENTIAL TOTALAVG TEMPAVG PRESSURE GPRESSURE VOLUME PRESSAVG GPRESSAVG
ENERGY: 0 0.8952 10.7488 1.4518 0.0000 -10881.4682 1568.8050 0.0000 0.0000 1765.5041 -7534.0633 297.5359 -9299.5674 -7534.0633 297.5359 895.6361 979.5417 30705.4062 895.6361 979.5417
ENERGY: 300000 2.0451 5.1914 1.9663 0.0000 -10737.6418 1358.9331 0.0000 0.0000 1737.5484 -7631.9574 292.8246 -9369.5059 -7579.5302 295.2435 -922.9753 -787.2346 30563.2323 -192.2576 -104.3527
ENERGY: 600000 3.3964 10.8904 2.8211 0.0000 -10900.4356 1522.5433 0.0000 0.0000 1826.9864 -7533.7979 307.8973 -9360.7843 -7578.5378 298.6044 282.4169 411.5861 30708.1026 -198.8691 -111.9690
ENERGY: 900000 2.3906 6.9039 3.5074 0.0000 -10863.9579 1481.2419 0.0000 0.0000 1759.6857 -7610.2284 296.5553 -9369.9141 -7583.1553 297.7690 -53.2247 19.3810 30852.3539 -92.9340 -11.2267
ENERGY: 1200000 1.7088 9.1715 1.7093 0.0000 -10721.8238 1353.0570 0.0000 0.0000 1819.1080 -7537.0690 306.5696 -9356.1770 -7577.2611 299.1201 -924.0971 -834.5375 31008.0895 -74.5608 4.2162
ENERGY: 1500000 1.6906 6.1352 1.7271 0.0000 -10628.6453 1311.6471 0.0000 0.0000 1767.8063 -7539.6390 297.9238 -9307.4453 -7566.5465 300.0641 -1054.7904 -984.8129 30802.5946 -100.6838 -22.3528
TCL: Running FEP window   9: Lambda1 0.5999999999999996 Lambda2 0.5499999999999996 [dLambda -0.050000000000000044]
TCL: Setting parameter firsttimestep to 0
TCL: Setting parameter alchLambda to 0.5999999999999996
Info: NONBONDED TABLE R-SQUARED SPACING: 0.0625
Info: NONBONDED TABLE SIZE: 705 POINTS
TCL: Setting parameter alchLambda2 to 0.5499999999999996
Info: NONBONDED TABLE R-SQUARED SPACING: 0.0625
Info: NONBONDED TABLE SIZE: 705 POINTS
TCL: Running for 1500000 steps
ETITLE: TS BOND ANGLE DIHED IMPRP ELECT VDW BOUNDARY MISC KINETIC TOTAL TEMP POTENTIAL TOTALAVG TEMPAVG PRESSURE GPRESSURE VOLUME PRESSAVG GPRESSAVG
ENERGY: 0 1.6906 6.1352 1.7271 0.0000 -10628.5921 1312.0389 0.0000 0.0000 1766.9732 -7540.0271 297.7834 -9307.0003 -7540.0271 297.7834 -1063.8397 -988.2887 30802.5946 -1063.8397 -988.2887
ENERGY: 300000 0.9983 4.5087 2.4891 0.0000 -10886.0862 1505.2243 0.0000 0.0000 1757.5701 -7615.2956 296.1988 -9372.8658 -7560.8638 300.1181 150.0899 169.9848 30916.5622 -165.7788 -108.8375
ENERGY: 600000 0.7297 5.5668 1.9782 0.0000 -10901.7777 1523.2245 0.0000 0.0000 1761.0867 -7609.1918 296.7914 -9370.2785 -7573.5807 299.6733 373.9865 447.1282 30875.2742 -138.5105 -79.0401
ENERGY: 900000 1.3096 7.4786 2.1156 0.0000 -10816.4532 1432.5519 0.0000 0.0000 1768.8408 -7604.1568 298.0982 -9372.9975 -7575.2027 299.8602 -14.4414 44.6956 30403.2622 -129.3346 -65.3456
ENERGY: 1200000 1.2195 6.0624 3.0681 0.0000 -10896.9601 1476.6114 0.0000 0.0000 1760.8442 -7649.1544 296.7505 -9409.9986 -7571.9690 300.1425 -187.0061 -128.1586 31015.2391 -172.9770 -110.1395
ENERGY: 1500000 2.4410 9.4497 2.7681 0.0000 -10737.9811 1398.6609 0.0000 0.0000 1760.8164 -7563.8450 296.7459 -9324.6614 -7579.6841 299.4880 -496.8277 -461.1238 30825.3642 -163.1807 -104.1655
TCL: Running FEP window  10: Lambda1 0.5499999999999996 Lambda2 0.4999999999999996 [dLambda -0.04999999999999999]
TCL: Setting parameter firsttimestep to 0
TCL: Setting parameter alchLambda to 0.5499999999999996
Info: NONBONDED TABLE R-SQUARED SPACING: 0.0625
Info: NONBONDED TABLE SIZE: 705 POINTS
TCL: Setting parameter alchLambda2 to 0.4999999999999996
Info: NONBONDED TABLE R-SQUARED SPACING: 0.0625
Info: NONBONDED TABLE SIZE: 705 POINTS
TCL: Running for 1500000 steps
ETITLE: TS BOND ANGLE DIHED IMPRP ELECT VDW BOUNDARY MISC KINETIC TOTAL TEMP POTENTIAL TOTALAVG TEMPAVG PRESSURE GPRESSURE VOLUME PRESSAVG GPRESSAVG
ENERGY: 0 2.4410 9.4497 2.7681 0.0000 -10737.8254 1398.4831 0.0000 0.0000 1759.9673 -7564.7162 296.6028 -9324.6835 -7564.7162 296.6028 -562.0648 -468.8272 30825.3642 -562.0648 -468.8272
ENERGY: 300000 2.8618 6.5577 3.0049 0.0000 -10868.9301 1529.3975 0.0000 0.0000 1733.8108 -7593.2974 292.1947 -9327.1082 -7583.9877 294.9479 393.6313 476.5035 30746.5971 -339.6574 -272.9878
ENERGY: 600000 1.9405 5.3723 5.1980 0.0000 -10759.5151 1425.1662 0.0000 0.0000 1713.3039 -7608.5341 288.7387 -9321.8380 -7574.3456 295.2051 -294.8847 -163.0805 30674.5165 -278.0668 -208.3358
ENERGY: 900000 1.4758 4.0725 2.7328 0.0000 -10708.0687 1344.8069 0.0000 0.0000 1803.6293 -7551.3514 303.9610 -9354.9806 -7568.4495 296.9464 -915.4990 -850.4077 30723.4096 -237.9314 -170.6410
ENERGY: 1200000 4.4928 9.9828 2.7353 0.0000 -10737.3403 1447.0408 0.0000 0.0000 1756.7930 -7516.2957 296.0678 -9273.0886 -7560.4458 296.7390 -182.1776 -119.8710 31196.9785 -226.8433 -160.9219
ENERGY: 1500000 1.0139 4.0639 2.9493 0.0000 -10680.6254 1392.6028 0.0000 0.0000 1800.9607 -7479.0348 303.5113 -9279.9955 -7547.5938 297.8483 -382.6804 -301.7314 30676.0615 -257.3820 -187.8949
TCL: Running FEP window  11: Lambda1 0.4999999999999996 Lambda2 0.4499999999999996 [dLambda -0.04999999999999999]
TCL: Setting parameter firsttimestep to 0
TCL: Setting parameter alchLambda to 0.4999999999999996
Info: NONBONDED TABLE R-SQUARED SPACING: 0.0625
Info: NONBONDED TABLE SIZE: 705 POINTS
TCL: Setting parameter alchLambda2 to 0.4499999999999996
Info: NONBONDED TABLE R-SQUARED SPACING: 0.0625
Info: NONBONDED TABLE SIZE: 705 POINTS
TCL: Running for 1500000 steps
ETITLE: TS BOND ANGLE DIHED IMPRP ELECT VDW BOUNDARY MISC KINETIC TOTAL TEMP POTENTIAL TOTALAVG TEMPAVG PRESSURE GPRESSURE VOLUME PRESSAVG GPRESSAVG
ENERGY: 0 1.0139 4.0639 2.9493 0.0000 -10680.5201 1392.9282 0.0000 0.0000 1800.0615 -7479.5033 303.3597 -9279.5648 -7479.5033 303.3597 -395.6404 -303.7968 30676.0615 -395.6404 -303.7968
ENERGY: 300000 2.3696 8.2947 2.3727 0.0000 -10725.0172 1422.3819 0.0000 0.0000 1778.3135 -7511.2849 299.6946 -9289.5983 -7515.8919 302.3389 -537.7482 -462.8235 31207.0967 -457.3760 -384.9196
ENERGY: 600000 1.1797 5.1935 1.5315 0.0000 -10853.0625 1510.3963 0.0000 0.0000 1782.1706 -7552.5909 300.3446 -9334.7615 -7549.2501 299.3422 654.1887 652.6157 30232.2121 -270.4056 -211.3405
ENERGY: 900000 3.4676 5.1274 2.3623 0.0000 -10857.0601 1471.7215 0.0000 0.0000 1774.9772 -7599.4041 299.1323 -9374.3813 -7555.5552 298.1129 -26.7430 -28.8396 30589.3793 -132.5071 -77.9593
ENERGY: 1200000 1.7028 6.4628 2.5925 0.0000 -10876.1553 1469.9287 0.0000 0.0000 1792.1479 -7603.3206 302.0261 -9395.4685 -7564.6072 299.4000 305.1690 327.7505 30128.6585 -130.9443 -75.0858
ENERGY: 1500000 1.1959 4.8848 2.3551 0.0000 -10753.5563 1391.2501 0.0000 0.0000 1748.3715 -7605.4989 294.6486 -9353.8704 -7569.4489 298.8787 -465.4704 -358.2039 30366.5558 -171.7520 -113.3284
TCL: Running FEP window  12: Lambda1 0.4499999999999996 Lambda2 0.39999999999999963 [dLambda -0.04999999999999999]
TCL: Setting parameter firsttimestep to 0
TCL: Setting parameter alchLambda to 0.4499999999999996
Info: NONBONDED TABLE R-SQUARED SPACING: 0.0625
Info: NONBONDED TABLE SIZE: 705 POINTS
TCL: Setting parameter alchLambda2 to 0.39999999999999963
Info: NONBONDED TABLE R-SQUARED SPACING: 0.0625
Info: NONBONDED TABLE SIZE: 705 POINTS
TCL: Running for 1500000 steps
ETITLE: TS BOND ANGLE DIHED IMPRP ELECT VDW BOUNDARY MISC KINETIC TOTAL TEMP POTENTIAL TOTALAVG TEMPAVG PRESSURE GPRESSURE VOLUME PRESSAVG GPRESSAVG
ENERGY: 0 1.1959 4.8848 2.3551 0.0000 -10753.5567 1391.6410 0.0000 0.0000 1747.4820 -7605.9979 294.4986 -9353.4799 -7605.9979 294.4986 -456.2074 -361.1646 30366.5558 -456.2074 -361.1646
ENERGY: 300000 2.2888 4.2254 3.2159 0.0000 -10803.4559 1386.1496 0.0000 0.0000 1767.0457 -7640.5304 297.7957 -9407.5761 -7593.5184 298.4756 -917.5829 -789.3836 30618.9446 -613.4692 -520.7469
ENERGY: 600000 4.2838 11.2553 1.9592 0.0000 -10968.1816 1527.9746 0.0000 0.0000 1746.9723 -7675.7363 294.4127 -9422.7086 -7590.1544 297.8946 371.6468 399.8602 30289.9650 -104.4364 -32.3571
ENERGY: 900000 0.7266 8.5427 3.1267 0.0000 -10852.4853 1472.1539 0.0000 0.0000 1778.9813 -7588.9541 299.8071 -9367.9354 -7576.7533 298.8064 202.1949 288.1844 30270.3456 -163.3687 -83.4170
ENERGY: 1200000 1.5144 4.4889 2.9146 0.0000 -10828.8830 1476.8036 0.0000 0.0000 1832.9992 -7510.1623 308.9106 -9343.1615 -7581.4878 299.2548 -326.2651 -207.2684 31450.6153 -192.6376 -110.9860
ENERGY: 1500000 2.9920 5.1871 3.4936 0.0000 -10854.7238 1490.2257 0.0000 0.0000 1752.6412 -7600.1842 295.3681 -9352.8253 -7579.4921 299.1823 233.7796 330.5428 30307.7293 -167.5875 -91.3503
TCL: Running FEP window  13: Lambda1 0.39999999999999963 Lambda2 0.34999999999999964 [dLambda -0.04999999999999999]
TCL: Setting parameter firsttimestep to 0
TCL: Setting parameter alchLambda to 0.39999999999999963
Info: NONBONDED TABLE R-SQUARED SPACING: 0.0625
Info: NONBONDED TABLE SIZE: 705 POINTS
TCL: Setting parameter alchLambda2 to 0.34999999999999964
Info: NONBONDED TABLE R-SQUARED SPACING: 0.0625
Info: NONBONDED TABLE SIZE: 705 POINTS
TCL: Running for 1500000 steps
ETITLE: TS BOND ANGLE DIHED IMPRP ELECT VDW BOUNDARY MISC KINETIC TOTAL TEMP POTENTIAL TOTALAVG TEMPAVG PRESSURE GPRESSURE VOLUME PRESSAVG GPRESSAVG
ENERGY: 0 2.9920 5.1871 3.4936 0.0000 -10854.7234 1490.4489 0.0000 0.0000 1751.7600 -7600.8417 295.2196 -9352.6017 -7600.8417 295.2196 224.9048 328.5184 30307.7293 224.9048 328.5184
ENERGY: 300000 1.6739 7.7681 5.4210 0.0000 -10798.5527 1443.9644 0.0000 0.0000 1734.6618 -7605.0634 292.3381 -9339.7252 -7559.6483 298.7201 -148.3620 -158.3007 30896.3102 79.0234 132.4264
ENERGY: 600000 0.6548 7.9318 2.5554 0.0000 -10841.0802 1469.7421 0.0000 0.0000 1749.6062 -7610.5899 294.8566 -9360.1961 -7566.8572 297.7984 133.2971 100.0802 30722.0553 -19.7861 41.1496
ENERGY: 900000 2.7596 7.1098 2.5661 0.0000 -10840.2189 1468.0399 0.0000 0.0000 1839.8143 -7519.9292 310.0592 -9359.7435 -7558.4167 300.4620 -4.3113 23.1529 30584.9213 -47.8434 12.6186
ENERGY: 1200000 2.3067 7.8677 3.7011 0.0000 -10735.7175 1379.0643 0.0000 0.0000 1782.9438 -7559.8339 300.4749 -9342.7777 -7557.3894 300.0681 -764.9098 -740.7203 31179.0238 -89.5020 -35.6996
ENERGY: 1500000 2.0129 7.2457 3.1442 0.0000 -10662.0462 1413.2773 0.0000 0.0000 1779.6488 -7456.7174 299.9196 -9236.3662 -7553.5787 299.5989 -175.9910 -111.5998 31132.2368 -134.2283 -72.2727
TCL: Running FEP window  14: Lambda1 0.34999999999999964 Lambda2 0.29999999999999966 [dLambda -0.04999999999999999]
TCL: Setting parameter firsttimestep to 0
TCL: Setting parameter alchLambda to 0.34999999999999964
Info: NONBONDED TABLE R-SQUARED SPACING: 0.0625
Info: NONBONDED TABLE SIZE: 705 POINTS
TCL: Setting parameter alchLambda2 to 0.29999999999999966
Info: NONBONDED TABLE R-SQUARED SPACING: 0.0625
Info: NONBONDED TABLE SIZE: 705 POINTS
TCL: Running for 1500000 steps
ETITLE: TS BOND ANGLE DIHED IMPRP ELECT VDW BOUNDARY MISC KINETIC TOTAL TEMP POTENTIAL TOTALAVG TEMPAVG PRESSURE GPRESSURE VOLUME PRESSAVG GPRESSAVG
ENERGY: 0 2.0129 7.2457 3.1442 0.0000 -10662.0462 1413.1019 0.0000 0.0000 1778.7778 -7457.7637 299.7728 -9236.5415 -7457.7637 299.7728 -188.4138 -115.4880 31132.2368 -188.4138 -115.4880
ENERGY: 300000 1.0016 7.7270 1.9649 0.0000 -10635.0682 1333.8846 0.0000 0.0000 1788.2809 -7502.2092 301.3744 -9290.4901 -7536.5046 299.9402 -777.2391 -752.5765 30817.1120 -342.9000 -285.2250
ENERGY: 600000 3.0663 7.6907 2.8186 0.0000 -10646.2564 1305.6286 0.0000 0.0000 1717.3324 -7609.7199 289.4176 -9327.0523 -7548.1364 298.5655 -1286.2683 -1265.4503 30874.2137 -486.9357 -440.9672
ENERGY: 900000 0.6665 4.5873 2.2888 0.0000 -10807.8944 1400.1614 0.0000 0.0000 1755.2282 -7644.9623 295.8041 -9400.1904 -7579.5758 298.0297 -596.8971 -609.1343 30770.9352 -383.8779 -335.0241
ENERGY: 1200000 2.6627 3.8814 3.1288 0.0000 -10784.3926 1410.0653 0.0000 0.0000 1740.4498 -7624.2046 293.3135 -9364.6543 -7586.0525 297.6538 -521.5086 -426.0213 30781.6384 -412.0207 -354.0366
ENERGY: 1500000 2.8793 5.0095 1.7590 0.0000 -10778.2591 1388.0622 0.0000 0.0000 1784.4877 -7596.0615 300.7351 -9380.5492 -7580.8322 297.9578 -790.1461 -710.3670 30791.6577 -334.7077 -274.9756
TCL: Running FEP window  15: Lambda1 0.29999999999999966 Lambda2 0.24999999999999967 [dLambda -0.04999999999999999]
TCL: Setting parameter firsttimestep to 0
TCL: Setting parameter alchLambda to 0.29999999999999966
Info: NONBONDED TABLE R-SQUARED SPACING: 0.0625
Info: NONBONDED TABLE SIZE: 705 POINTS
TCL: Setting parameter alchLambda2 to 0.24999999999999967
Info: NONBONDED TABLE R-SQUARED SPACING: 0.0625
Info: NONBONDED TABLE SIZE: 705 POINTS
TCL: Running for 1500000 steps
ETITLE: TS BOND ANGLE DIHED IMPRP ELECT VDW BOUNDARY MISC KINETIC TOTAL TEMP POTENTIAL TOTALAVG TEMPAVG PRESSURE GPRESSURE VOLUME PRESSAVG GPRESSAVG
ENERGY: 0 2.8793 5.0095 1.7590 0.0000 -10778.2601 1388.4511 0.0000 0.0000 1783.5874 -7596.5738 300.5834 -9380.1612 -7596.5738 300.5834 -782.5887 -711.8988 30791.6577 -782.5887 -711.8988
ENERGY: 300000 0.3838 8.7072 2.1748 0.0000 -10509.1728 1317.8078 0.0000 0.0000 1806.9736 -7373.1256 304.5246 -9180.0992 -7530.8673 299.9864 -638.4006 -569.2390 30834.0305 -521.3512 -455.8963
ENERGY: 600000 0.8365 5.0208 1.9120 0.0000 -10665.4492 1348.0170 0.0000 0.0000 1772.8330 -7536.8299 298.7710 -9309.6629 -7558.8357 298.9421 -575.2683 -515.8856 30372.0869 -516.7191 -456.1262
ENERGY: 900000 1.5448 12.3904 3.9400 0.0000 -10795.4847 1468.6738 0.0000 0.0000 1748.1122 -7560.8234 294.6049 -9308.9356 -7557.4400 299.5340 130.5376 192.2253 30543.9565 -422.3506 -359.1651
ENERGY: 1200000 2.5419 8.5429 2.2998 0.0000 -10778.9754 1470.6159 0.0000 0.0000 1730.7118 -7564.2632 291.6724 -9294.9749 -7570.1571 297.6242 250.2832 405.4191 30207.4419 -364.7386 -291.0342
ENERGY: 1500000 1.7813 7.3338 3.4195 0.0000 -10736.5108 1408.4379 0.0000 0.0000 1817.5585 -7497.9798 306.3085 -9315.5383 -7565.3386 297.9508 -296.5283 -281.7176 30526.5550 -328.4881 -259.7527
TCL: Running FEP window  16: Lambda1 0.24999999999999967 Lambda2 0.19999999999999968 [dLambda -0.04999999999999999]
TCL: Setting parameter firsttimestep to 0
TCL: Setting parameter alchLambda to 0.24999999999999967
Info: NONBONDED TABLE R-SQUARED SPACING: 0.0625
Info: NONBONDED TABLE SIZE: 705 POINTS
TCL: Setting parameter alchLambda2 to 0.19999999999999968
Info: NONBONDED TABLE R-SQUARED SPACING: 0.0625
Info: NONBONDED TABLE SIZE: 705 POINTS
TCL: Running for 1500000 steps
ETITLE: TS BOND ANGLE DIHED IMPRP ELECT VDW BOUNDARY MISC KINETIC TOTAL TEMP POTENTIAL TOTALAVG TEMPAVG PRESSURE GPRESSURE VOLUME PRESSAVG GPRESSAVG
ENERGY: 0 1.7813 7.3338 3.4195 0.0000 -10736.5109 1408.8820 0.0000 0.0000 1816.6733 -7498.4211 306.1593 -9315.0943 -7498.4211 306.1593 -357.9172 -280.9800 30526.5550 -357.9172 -280.9800
ENERGY: 300000 2.9631 12.4420 3.9248 0.0000 -10816.5599 1452.3500 0.0000 0.0000 1770.1922 -7574.6877 298.3259 -9344.8800 -7534.4181 303.0222 -42.6255 -18.3834 30437.1481 -310.6579 -240.7458
ENERGY: 600000 2.2343 10.0729 1.5224 0.0000 -10706.0967 1422.7707 0.0000 0.0000 1817.4753 -7452.0212 306.2944 -9269.4964 -7522.0256 303.7409 -61.1309 61.4253 30667.3660 -320.6601 -240.8726
ENERGY: 900000 1.5943 4.2199 1.9220 0.0000 -10733.5016 1418.0628 0.0000 0.0000 1763.4156 -7544.2870 297.1839 -9307.7026 -7530.7413 302.0600 -71.0023 -57.0161 30382.7892 -184.5924 -114.4370
ENERGY: 1200000 0.4931 8.7247 2.7129 0.0000 -10741.4558 1420.0236 0.0000 0.0000 1788.6760 -7520.8255 301.4410 -9309.5015 -7527.7122 301.7913 -363.1591 -342.6851 31097.8246 -173.4418 -104.3024
ENERGY: 1500000 2.4170 10.2198 4.1471 0.0000 -10795.1284 1429.8186 0.0000 0.0000 1750.6369 -7597.8890 295.0303 -9348.5259 -7532.5477 301.2753 -132.8406 -44.5360 30579.6745 -177.7559 -111.9542
TCL: Running FEP window  17: Lambda1 0.19999999999999968 Lambda2 0.1499999999999997 [dLambda -0.04999999999999999]
TCL: Setting parameter firsttimestep to 0
TCL: Setting parameter alchLambda to 0.19999999999999968
Info: NONBONDED TABLE R-SQUARED SPACING: 0.0625
Info: NONBONDED TABLE SIZE: 705 POINTS
TCL: Setting parameter alchLambda2 to 0.1499999999999997
Info: NONBONDED TABLE R-SQUARED SPACING: 0.0625
Info: NONBONDED TABLE SIZE: 705 POINTS
TCL: Running for 1500000 steps
ETITLE: TS BOND ANGLE DIHED IMPRP ELECT VDW BOUNDARY MISC KINETIC TOTAL TEMP POTENTIAL TOTALAVG TEMPAVG PRESSURE GPRESSURE VOLUME PRESSAVG GPRESSAVG
ENERGY: 0 2.4170 10.2198 4.1471 0.0000 -10795.1281 1429.7173 0.0000 0.0000 1749.7567 -7598.8703 294.8820 -9348.6269 -7598.8703 294.8820 -122.5976 -50.6352 30579.6745 -122.5976 -50.6352
ENERGY: 300000 0.6018 6.8846 2.9637 0.0000 -11024.5058 1546.8676 0.0000 0.0000 1737.2872 -7729.9010 292.7805 -9467.1882 -7611.4289 297.2333 510.1955 622.8793 30122.2998 24.0929 81.0313
ENERGY: 600000 1.7111 7.9508 3.4223 0.0000 -10745.0088 1417.9914 0.0000 0.0000 1807.1422 -7506.7910 304.5530 -9313.9332 -7552.3486 302.8137 -297.4545 -204.6053 30475.1663 16.4081 76.0280
ENERGY: 900000 1.6641 5.2867 3.4652 0.0000 -10741.7226 1483.0005 0.0000 0.0000 1788.6856 -7459.6205 301.4426 -9248.3061 -7544.2770 302.8670 450.4160 558.9687 30376.5084 87.7620 151.4496
ENERGY: 1200000 3.2481 5.1875 1.9577 0.0000 -10742.1056 1413.9895 0.0000 0.0000 1803.1225 -7514.6002 303.8756 -9317.7227 -7538.9191 302.2789 -616.8319 -548.9977 31087.9264 12.8705 77.0265
ENERGY: 1500000 1.7616 8.9532 2.3876 0.0000 -10786.3427 1460.0324 0.0000 0.0000 1749.4556 -7563.7523 294.8312 -9313.2078 -7544.2875 301.2329 205.3498 264.7238 30272.8118 40.3586 108.6224
TCL: Running FEP window  18: Lambda1 0.1499999999999997 Lambda2 0.09999999999999969 [dLambda -0.05 ]
TCL: Setting parameter firsttimestep to 0
TCL: Setting parameter alchLambda to 0.1499999999999997
Info: NONBONDED TABLE R-SQUARED SPACING: 0.0625
Info: NONBONDED TABLE SIZE: 705 POINTS
TCL: Setting parameter alchLambda2 to 0.09999999999999969
Info: NONBONDED TABLE R-SQUARED SPACING: 0.0625
Info: NONBONDED TABLE SIZE: 705 POINTS
TCL: Running for 1500000 steps
ETITLE: TS BOND ANGLE DIHED IMPRP ELECT VDW BOUNDARY MISC KINETIC TOTAL TEMP POTENTIAL TOTALAVG TEMPAVG PRESSURE GPRESSURE VOLUME PRESSAVG GPRESSAVG
ENERGY: 0 1.7616 8.9532 2.3876 0.0000 -10786.3437 1460.1920 0.0000 0.0000 1748.5815 -7564.4678 294.6839 -9313.0493 -7564.4678 294.6839 185.5862 265.3295 30272.8118 185.5862 265.3295
ENERGY: 300000 0.5564 4.2918 3.3944 0.0000 -10692.8097 1397.7895 0.0000 0.0000 1790.3229 -7496.4547 301.7185 -9286.7775 -7517.6371 301.3026 -489.6208 -359.4815 31013.9631 40.8295 119.4978
ENERGY: 600000 3.6092 6.5971 1.6378 0.0000 -10801.4441 1458.3794 0.0000 0.0000 1782.3067 -7548.9139 300.3676 -9331.2206 -7525.5260 299.0457 -337.6344 -209.2953 31035.9977 -32.2532 55.8029
ENERGY: 900000 1.0495 6.5101 2.2538 0.0000 -10883.7353 1477.4193 0.0000 0.0000 1776.5571 -7619.9455 299.3986 -9396.5025 -7544.7193 298.5847 327.2001 395.9096 29881.9818 4.4255 73.3885
ENERGY: 1200000 1.0864 6.5879 2.8948 0.0000 -10832.9723 1498.3076 0.0000 0.0000 1758.7599 -7565.3358 296.3993 -9324.0957 -7532.3574 299.4456 322.5062 424.6093 30542.8924 -46.4877 23.2707
ENERGY: 1500000 2.5589 4.8861 4.4380 0.0000 -10709.9187 1406.4344 0.0000 0.0000 1802.3416 -7489.2597 303.7440 -9291.6013 -7537.5173 300.0348 -480.4448 -399.4237 30908.0613 -83.4128 -10.4112
TCL: Running FEP window  19: Lambda1 0.09999999999999969 Lambda2 0.049999999999999684 [dLambda -0.05 ]
TCL: Setting parameter firsttimestep to 0
TCL: Setting parameter alchLambda to 0.09999999999999969
Info: NONBONDED TABLE R-SQUARED SPACING: 0.0625
Info: NONBONDED TABLE SIZE: 705 POINTS
TCL: Setting parameter alchLambda2 to 0.049999999999999684
Info: NONBONDED TABLE R-SQUARED SPACING: 0.0625
Info: NONBONDED TABLE SIZE: 705 POINTS
TCL: Running for 1500000 steps
ETITLE: TS BOND ANGLE DIHED IMPRP ELECT VDW BOUNDARY MISC KINETIC TOTAL TEMP POTENTIAL TOTALAVG TEMPAVG PRESSURE GPRESSURE VOLUME PRESSAVG GPRESSAVG
ENERGY: 0 2.5589 4.8861 4.4380 0.0000 -10709.9177 1406.4079 0.0000 0.0000 1801.4691 -7490.1576 303.5970 -9291.6267 -7490.1576 303.5970 -475.6235 -400.5966 30908.0613 -475.6235 -400.5966
ENERGY: 300000 2.0475 7.4384 3.2785 0.0000 -10903.7199 1503.9837 0.0000 0.0000 1790.0764 -7596.8956 301.6770 -9386.9720 -7575.7073 300.3446 641.0322 716.5407 29938.5994 -49.4165 -3.3063
ENERGY: 600000 2.7133 7.4061 2.1371 0.0000 -10828.7773 1501.3997 0.0000 0.0000 1718.2756 -7596.8454 289.5766 -9315.1211 -7575.6542 299.1324 187.5739 227.3922 30790.8484 -76.8195 -28.2312
ENERGY: 900000 1.5576 5.9477 2.9874 0.0000 -11011.0473 1560.7155 0.0000 0.0000 1748.8596 -7690.9794 294.7308 -9439.8390 -7586.3932 298.0794 617.1298 653.3496 30356.9486 -147.4747 -101.5712
ENERGY: 1200000 2.4684 7.3130 3.2993 0.0000 -10788.5176 1467.8956 0.0000 0.0000 1803.3563 -7504.1849 303.9150 -9307.5412 -7581.2252 298.3851 353.0001 366.1837 30120.6038 -107.7675 -58.6165
ENERGY: 1500000 2.5209 11.7593 2.9637 0.0000 -10733.2523 1399.2529 0.0000 0.0000 1764.9595 -7551.7960 297.4441 -9316.7555 -7571.8682 298.0611 -458.1358 -375.5023 30634.8113 -147.2514 -92.1689
TCL: Running FEP window  20: Lambda1 0.049999999999999684 Lambda2 0.0    [dLambda -0.049999999999999684]
TCL: Setting parameter firsttimestep to 0
TCL: Setting parameter alchLambda to 0.049999999999999684
Info: NONBONDED TABLE R-SQUARED SPACING: 0.0625
Info: NONBONDED TABLE SIZE: 705 POINTS
TCL: Setting parameter alchLambda2 to 0.0
Info: NONBONDED TABLE R-SQUARED SPACING: 0.0625
Info: NONBONDED TABLE SIZE: 705 POINTS
TCL: Running for 1500000 steps
ETITLE: TS BOND ANGLE DIHED IMPRP ELECT VDW BOUNDARY MISC KINETIC TOTAL TEMP POTENTIAL TOTALAVG TEMPAVG PRESSURE GPRESSURE VOLUME PRESSAVG GPRESSAVG
ENERGY: 0 2.5209 11.7593 2.9637 0.0000 -10733.2527 1398.8560 0.0000 0.0000 1764.0913 -7553.0614 297.2978 -9317.1527 -7553.0614 297.2978 -452.8079 -381.5012 30634.8113 -452.8079 -381.5012
ENERGY: 300000 1.0690 5.5602 2.6930 0.0000 -10812.7177 1464.7776 0.0000 0.0000 1783.8756 -7554.7422 300.6320 -9338.6179 -7557.8089 297.6408 258.0904 334.6214 30214.7077 -127.7636 -85.3062
ENERGY: 600000 2.3337 6.4491 3.8100 0.0000 -10853.4181 1497.7726 0.0000 0.0000 1719.8701 -7623.1826 289.8453 -9343.0528 -7550.4132 297.8898 320.3771 392.0403 30394.9284 -25.5200 24.0343
ENERGY: 900000 0.4572 5.9729 1.8848 0.0000 -10820.6940 1510.3597 0.0000 0.0000 1799.9095 -7502.1098 303.3341 -9302.0193 -7543.9077 298.6720 363.4753 419.3787 30891.4915 124.5715 176.2388
ENERGY: 1200000 0.8072 3.2296 1.6802 0.0000 -10862.6915 1566.3385 0.0000 0.0000 1828.6511 -7461.9849 308.1779 -9290.6360 -7538.1299 299.4649 1103.6722 1187.7567 30269.2536 209.8732 256.3799
ENERGY: 1500000 2.0641 3.5478 2.8467 0.0000 -10900.1631 1499.8373 0.0000 0.0000 1769.4637 -7622.4036 298.2032 -9391.8673 -7547.9104 299.7625 308.8826 375.8869 30415.4316 179.6155 226.7984
TCL: Exiting due to exit command.
