Info: SIMULATION PARAMETERS:
Info: TIMESTEP               2
Info: NUMBER OF STEPS        0
Info: STEPS PER CYCLE        10
Info: PERIODIC CELL BASIS 1  34.986 0 0
Info: PERIODIC CELL BASIS 2  0 33.404 0
Info: PERIODIC CELL BASIS 3  0 0 37.195
Info: PERIODIC CELL CENTER   0 0 0
Info: WRAPPING WATERS AROUND PERIODIC BOUNDARIES ON OUTPUT.
Info: WRAPPING ALL CLUSTERS AROUND PERIODIC BOUNDARIES ON OUTPUT.
Info: FIRST LDB TIMESTEP     50
Info: LAST LDB TIMESTEP     -1
Info: HOM BACKGROUND SCALING 1
Info: PME BACKGROUND SCALING 1
Info: MIN ATOMS PER PATCH    40
Info: EMPTY PATCH LOAD       40 ATOMS
Info: INITIAL TEMPERATURE    300
Info: CENTER OF MASS MOVING INITIALLY? NO
Info: DIELECTRIC             1
Info: EXCLUDE                SCALED ONE-FOUR
Info: 1-4 ELECTROSTATICS SCALED BY 0.833333
Info: MODIFIED 1-4 VDW PARAMETERS WILL BE USED
Info: DCD FILENAME           mobley_4483973_equil.dcd
Info: DCD FREQUENCY          100000
Info: DCD FIRST STEP         100000
Info: DCD FILE WILL CONTAIN UNIT CELL DATA
Info: XST FILENAME           mobley_4483973_equil.xst
Info: XST FREQUENCY          100000
Info: NO VELOCITY DCD OUTPUT
Info: NO FORCE DCD OUTPUT
Info: OUTPUT FILENAME        mobley_4483973_equil
Info: BINARY OUTPUT FILES WILL BE USED
Info: RESTART FILENAME       mobley_4483973_equil.restart
Info: RESTART FREQUENCY      100000
Info: BINARY RESTART FILES WILL BE USED
Info: CUTOFF                 9
Info: PAIRLIST DISTANCE      11
Info: PAIRLIST SHRINK RATE   0.01
Info: PAIRLIST GROW RATE     0.01
Info: PAIRLIST TRIGGER       0.3
Info: PAIRLISTS PER CYCLE    2
Info: PAIRLISTS ENABLED
Info: MARGIN                 8
Info: HYDROGEN GROUP CUTOFF  2.5
Info: PATCH DIMENSION        21.5
Info: ENERGY OUTPUT STEPS    100000
Info: ENERGY EVALUATION STEPS    100000
Info: OUTPUT ENERGY PRECISION 4
Info: CROSSTERM ENERGY INCLUDED IN DIHEDRAL
Info: TIMING OUTPUT STEPS    1000000
Info: PRESSURE OUTPUT STEPS  100000
Info: LANGEVIN DYNAMICS ACTIVE
Info: LANGEVIN TEMPERATURE   30
Info: LANGEVIN USING BBK INTEGRATOR
Info: LANGEVIN DAMPING COEFFICIENT IS 1 INVERSE PS
Info: LANGEVIN DYNAMICS APPLIED TO HYDROGENS
Info: LANGEVIN PISTON PRESSURE CONTROL ACTIVE
Info:        TARGET PRESSURE IS 1.01325 BAR
Info:     OSCILLATION PERIOD IS 50 FS
Info:             DECAY TIME IS 25 FS
Info:     PISTON TEMPERATURE IS 300 K
Info:       PRESSURE CONTROL IS GROUP-BASED
Info:    INITIAL STRAIN RATE IS 0 0 0
Info:       CELL FLUCTUATION IS ISOTROPIC
Info: PARTICLE MESH EWALD (PME) ACTIVE
Info: PME TOLERANCE               1e-06
Info: PME EWALD COEFFICIENT       0.348832
Info: PME INTERPOLATION ORDER     4
Info: PME GRID DIMENSIONS         36 36 40
Info: PME MAXIMUM GRID SPACING    1
Info: FULL ELECTROSTATIC EVALUATION FREQUENCY      2
Info: USING VERLET I (r-RESPA) MTS SCHEME.
Info: C1 SPLITTING OF LONG RANGE ELECTROSTATICS
Info: PLACING ATOMS IN PATCHES BY HYDROGEN GROUPS
Info: RIGID BONDS TO HYDROGEN : ALL
Info:         ERROR TOLERANCE : 1e-08
Info:          MAX ITERATIONS : 100
Info: RIGID WATER USING SETTLE ALGORITHM
Info: RANDOM NUMBER SEED     1742143577
Info: USE HYDROGEN BONDS?    NO
Info: Using AMBER format force field!
Info: AMBER PARM FILE        mobley_4483973.prmtop
Info: COORDINATE PDB         mobley_4483973.pdb
Info: Exclusions will be read from PARM file!
Info: SCNB (VDW SCALING)     2
Info: USING ARITHMETIC MEAN TO COMBINE L-J SIGMA PARAMETERS
Info: BINARY COORDINATES     mobley_4483973_min.coor
Info: SUMMARY OF PARAMETERS:
Info: 5 BONDS
Info: 3 ANGLES
Info:   3 HARMONIC
Info:   0 COSINE-BASED
Info: 2 DIHEDRAL
Info: 0 IMPROPER
Info: 0 CROSSTERM
Info: 0 VDW
Info: 15 VDW_PAIRS
Info: 0 NBTHOLE_PAIRS
Info: STRUCTURE SUMMARY:
Info: 2934 ATOMS
Info: 2934 BONDS
Info: 18 ANGLES
Info: 30 DIHEDRALS
Info: 0 IMPROPERS
Info: 0 CROSSTERMS
Info: 2973 EXCLUSIONS
Info: 2927 RIGID BONDS
Info: 5875 DEGREES OF FREEDOM
Info: 981 HYDROGEN GROUPS
Info: 3 ATOMS IN LARGEST HYDROGEN GROUP
Info: 981 MIGRATION GROUPS
Info: 3 ATOMS IN LARGEST MIGRATION GROUP
Info: TOTAL MASS = 17643.7 amu
Info: TOTAL CHARGE = 0 e
Info: MASS DENSITY = 0.674018 g/cm^3
Info: ATOM DENSITY = 0.0674967 atoms/A^3
Info: ADDED 0 IMPLICIT EXCLUSIONS
Info: NONBONDED TABLE R-SQUARED SPACING: 0.0625
Info: NONBONDED TABLE SIZE: 705 POINTS
Info: REMOVING COM VELOCITY 0.195349 0.0678059 0.0101199
TCL: Running for 100000 steps
ETITLE: TS BOND ANGLE DIHED IMPRP ELECT VDW BOUNDARY MISC KINETIC TOTAL TEMP POTENTIAL TOTAL3 TEMPAVG PRESSURE GPRESSURE VOLUME PRESSAVG GPRESSAVG
ENERGY: 0 0.1020 0.0572 0.0302 0.0000 -13613.7543 2436.3445 0.0000 0.0000 1734.5720 -9442.6485 297.1494 -11177.2205 -9442.2879 297.1494 686.5201 729.6130 43468.7678 686.5201 729.6130
ENERGY: 100000 0.3412 0.2104 0.2808 0.0000 -14208.5114 2506.2402 0.0000 0.0000 179.1920 -11522.2467 30.6974 -11701.4388 -11521.9105 30.8916 50.0425 119.3749 28750.4033 3.9698 3.9987
TCL: Running 100000 steps at 60 kelvin.
TCL: Setting parameter langevinTemp to 60
TCL: Running for 100000 steps
ETITLE: TS BOND ANGLE DIHED IMPRP ELECT VDW BOUNDARY MISC KINETIC TOTAL TEMP POTENTIAL TOTAL3 TEMPAVG PRESSURE GPRESSURE VOLUME PRESSAVG GPRESSAVG
ENERGY: 100000 0.3412 0.2104 0.2808 0.0000 -14208.5114 2506.2402 0.0000 0.0000 179.1038 -11522.3349 30.6823 -11701.4388 -11521.8637 30.6823 60.8552 119.0921 28750.4033 60.8552 119.0921
ENERGY: 200000 0.6869 0.4532 0.2728 0.0000 -14107.4416 2482.9992 0.0000 0.0000 343.1464 -11279.8831 58.7844 -11623.0296 -11279.3821 59.9679 188.6908 280.2764 28752.5155 4.1626 4.0793
TCL: Running 100000 steps at 90 kelvin.
TCL: Setting parameter langevinTemp to 90
TCL: Running for 100000 steps
ETITLE: TS BOND ANGLE DIHED IMPRP ELECT VDW BOUNDARY MISC KINETIC TOTAL TEMP POTENTIAL TOTAL3 TEMPAVG PRESSURE GPRESSURE VOLUME PRESSAVG GPRESSAVG
ENERGY: 200000 0.6869 0.4532 0.2728 0.0000 -14107.4416 2482.9992 0.0000 0.0000 342.9768 -11280.0528 58.7553 -11623.0296 -11279.3625 58.7553 224.8768 280.2748 28752.5155 224.8768 280.2748
ENERGY: 300000 0.3977 0.7348 0.7113 0.0000 -13964.3758 2443.7629 0.0000 0.0000 516.4547 -11002.3144 88.4738 -11518.7691 -11000.4755 89.8306 541.8763 622.2921 28450.1234 4.3355 4.3113
TCL: Running 100000 steps at 120 kelvin.
TCL: Setting parameter langevinTemp to 120
TCL: Running for 100000 steps
ETITLE: TS BOND ANGLE DIHED IMPRP ELECT VDW BOUNDARY MISC KINETIC TOTAL TEMP POTENTIAL TOTAL3 TEMPAVG PRESSURE GPRESSURE VOLUME PRESSAVG GPRESSAVG
ENERGY: 300000 0.3977 0.7348 0.7113 0.0000 -13964.3758 2443.7629 0.0000 0.0000 516.1900 -11002.5791 88.4285 -11518.7691 -11001.3849 88.4285 562.8483 622.5956 28450.1234 562.8483 622.5956
ENERGY: 400000 0.6159 1.3851 0.5734 0.0000 -13617.3744 2226.4370 0.0000 0.0000 718.6853 -10669.6777 123.1179 -11388.3630 -10667.8989 119.9992 -722.4648 -710.4118 28670.3031 3.1525 3.1098
TCL: Running 100000 steps at 150 kelvin.
TCL: Setting parameter langevinTemp to 150
TCL: Running for 100000 steps
ETITLE: TS BOND ANGLE DIHED IMPRP ELECT VDW BOUNDARY MISC KINETIC TOTAL TEMP POTENTIAL TOTAL3 TEMPAVG PRESSURE GPRESSURE VOLUME PRESSAVG GPRESSAVG
ENERGY: 400000 0.6159 1.3851 0.5734 0.0000 -13617.3744 2226.4370 0.0000 0.0000 718.3274 -10670.0357 123.0566 -11388.3630 -10668.3537 123.0566 -760.2013 -710.8179 28670.3031 -760.2013 -710.8179
ENERGY: 500000 0.9349 2.4194 1.3594 0.0000 -13534.8869 2294.4279 0.0000 0.0000 893.3463 -10342.3990 153.0391 -11235.7453 -10340.7514 150.0218 685.4199 699.2084 28240.0042 2.6932 2.7480
TCL: Running 100000 steps at 180 kelvin.
TCL: Setting parameter langevinTemp to 180
TCL: Running for 100000 steps
ETITLE: TS BOND ANGLE DIHED IMPRP ELECT VDW BOUNDARY MISC KINETIC TOTAL TEMP POTENTIAL TOTAL3 TEMPAVG PRESSURE GPRESSURE VOLUME PRESSAVG GPRESSAVG
ENERGY: 500000 0.9349 2.4194 1.3594 0.0000 -13534.8868 2294.4279 0.0000 0.0000 892.9104 -10342.8349 152.9644 -11235.7453 -10341.2882 152.9644 641.6091 699.4607 28240.0042 641.6091 699.4607
ENERGY: 600000 0.9081 4.2773 0.8529 0.0000 -13140.5124 2188.5975 0.0000 0.0000 1068.2451 -9877.6315 183.0010 -10945.8765 -9874.0099 180.2750 742.6638 827.5610 28478.4783 3.1512 3.1436
TCL: Running 100000 steps at 210 kelvin.
TCL: Setting parameter langevinTemp to 210
TCL: Running for 100000 steps
ETITLE: TS BOND ANGLE DIHED IMPRP ELECT VDW BOUNDARY MISC KINETIC TOTAL TEMP POTENTIAL TOTAL3 TEMPAVG PRESSURE GPRESSURE VOLUME PRESSAVG GPRESSAVG
ENERGY: 600000 0.9081 4.2773 0.8529 0.0000 -13140.5124 2188.5975 0.0000 0.0000 1067.7209 -9878.1556 182.9112 -10945.8765 -9876.5257 182.9112 771.4986 827.3640 28478.4783 771.4986 827.3640
ENERGY: 700000 1.0438 2.3771 1.3634 0.0000 -12285.6273 1869.2078 0.0000 0.0000 1197.6193 -9214.0159 205.1641 -10411.6352 -9212.3699 210.2493 83.9062 198.3990 28270.7585 1.8121 2.0436
TCL: Running 100000 steps at 240 kelvin.
TCL: Setting parameter langevinTemp to 240
TCL: Running for 100000 steps
ETITLE: TS BOND ANGLE DIHED IMPRP ELECT VDW BOUNDARY MISC KINETIC TOTAL TEMP POTENTIAL TOTAL3 TEMPAVG PRESSURE GPRESSURE VOLUME PRESSAVG GPRESSAVG
ENERGY: 700000 1.0438 2.3771 1.3634 0.0000 -12285.6273 1869.2078 0.0000 0.0000 1197.0166 -9214.6186 205.0608 -10411.6352 -9212.7753 205.0608 113.5087 198.6716 28270.7585 113.5087 198.6716
ENERGY: 800000 2.1887 2.2510 1.8925 0.0000 -11643.8097 1705.7113 0.0000 0.0000 1364.6502 -8567.1161 233.7781 -9931.7663 -8564.3435 239.7891 75.4590 166.5262 29003.3473 5.4573 5.4642
TCL: Running 100000 steps at 270 kelvin.
TCL: Setting parameter langevinTemp to 270
TCL: Running for 100000 steps
ETITLE: TS BOND ANGLE DIHED IMPRP ELECT VDW BOUNDARY MISC KINETIC TOTAL TEMP POTENTIAL TOTAL3 TEMPAVG PRESSURE GPRESSURE VOLUME PRESSAVG GPRESSAVG
ENERGY: 800000 2.1887 2.2510 1.8925 0.0000 -11643.8097 1705.7113 0.0000 0.0000 1363.9693 -8567.7970 233.6615 -9931.7663 -8566.1228 233.6615 87.1901 166.7948 29003.3473 87.1901 166.7948
ENERGY: 900000 1.0561 3.1893 3.7305 0.0000 -11229.4414 1628.9054 0.0000 0.0000 1537.7980 -8054.7621 263.4400 -9592.5601 -8052.0330 269.6223 569.1252 684.4845 29389.3278 2.9786 2.9960
TCL: Running 1000000 steps at 300 kelvin.
TCL: Setting parameter langevinTemp to 300
TCL: Running for 1000000 steps
ETITLE: TS BOND ANGLE DIHED IMPRP ELECT VDW BOUNDARY MISC KINETIC TOTAL TEMP POTENTIAL TOTAL3 TEMPAVG PRESSURE GPRESSURE VOLUME PRESSAVG GPRESSAVG
ENERGY: 900000 1.0561 3.1893 3.7305 0.0000 -11229.4414 1628.9054 0.0000 0.0000 1536.9846 -8055.5755 263.3007 -9592.5601 -8054.2194 263.3007 606.7894 686.4730 29389.3278 606.7894 686.4730
ENERGY: 1100000 1.3651 3.7869 3.4825 0.0000 -10681.0569 1511.5716 0.0000 0.0000 1725.9517 -7434.8991 295.6726 -9160.8508 -7432.9326 300.3124 717.7485 844.5979 30188.9456 3.3744 3.4592
ENERGY: 1300000 1.5555 1.8577 1.6015 0.0000 -10672.2493 1462.2990 0.0000 0.0000 1721.4122 -7483.5233 294.8950 -9204.9355 -7478.9914 299.6700 213.3082 281.2975 30323.7002 2.4644 2.3619
ENERGY: 1500000 3.1579 3.4291 6.8974 0.0000 -10644.6984 1442.1483 0.0000 0.0000 1770.2791 -7418.7865 303.2664 -9189.0657 -7413.7120 299.9698 75.9604 150.1541 30330.4016 2.8309 2.8961
ENERGY: 1700000 0.8584 5.0473 1.4800 0.0000 -10669.2759 1397.7104 0.0000 0.0000 1693.9554 -7570.2243 290.1914 -9264.1797 -7564.9891 299.6102 -491.7447 -485.5689 30323.6470 3.1575 2.9665
ENERGY: 1900000 1.6912 3.9413 3.4243 0.0000 -10564.1571 1376.3544 0.0000 0.0000 1691.9913 -7486.7545 289.8549 -9178.7458 -7483.1961 300.8084 -471.8335 -456.5249 30728.8448 3.3252 3.2979
TCL: Exiting due to exit command.
