Info: SIMULATION PARAMETERS:
Info: TIMESTEP               2
Info: NUMBER OF STEPS        0
Info: STEPS PER CYCLE        10
Info: PERIODIC CELL BASIS 1  39.806 0 0
Info: PERIODIC CELL BASIS 2  0 39.303 0
Info: PERIODIC CELL BASIS 3  0 0 44.171
Info: PERIODIC CELL CENTER   0 0 0
Info: WRAPPING WATERS AROUND PERIODIC BOUNDARIES ON OUTPUT.
Info: WRAPPING ALL CLUSTERS AROUND PERIODIC BOUNDARIES ON OUTPUT.
Info: FIRST LDB TIMESTEP     50
Info: LAST LDB TIMESTEP     -1
Info: HOM BACKGROUND SCALING 1
Info: PME BACKGROUND SCALING 1
Info: MIN ATOMS PER PATCH    40
Info: EMPTY PATCH LOAD       40 ATOMS
Info: INITIAL TEMPERATURE    300
Info: CENTER OF MASS MOVING INITIALLY? NO
Info: DIELECTRIC             1
Info: EXCLUDE                SCALED ONE-FOUR
Info: 1-4 ELECTROSTATICS SCALED BY 0.833333
Info: MODIFIED 1-4 VDW PARAMETERS WILL BE USED
Info: DCD FILENAME           mobley_349850_min.dcd
Info: DCD FREQUENCY          5000
Info: DCD FIRST STEP         5000
Info: DCD FILE WILL CONTAIN UNIT CELL DATA
Info: XST FILENAME           mobley_349850_min.xst
Info: XST FREQUENCY          5000
Info: NO VELOCITY DCD OUTPUT
Info: NO FORCE DCD OUTPUT
Info: OUTPUT FILENAME        mobley_349850_min
Info: BINARY OUTPUT FILES WILL BE USED
Info: RESTART FILENAME       mobley_349850_min.restart
Info: RESTART FREQUENCY      5000
Info: BINARY RESTART FILES WILL BE USED
Info: CUTOFF                 9
Info: PAIRLIST DISTANCE      11
Info: PAIRLIST SHRINK RATE   0.01
Info: PAIRLIST GROW RATE     0.01
Info: PAIRLIST TRIGGER       0.3
Info: PAIRLISTS PER CYCLE    2
Info: PAIRLISTS ENABLED
Info: MARGIN                 8
Info: HYDROGEN GROUP CUTOFF  2.5
Info: PATCH DIMENSION        21.5
Info: ENERGY OUTPUT STEPS    5000
Info: ENERGY EVALUATION STEPS    5000
Info: OUTPUT ENERGY PRECISION 4
Info: CROSSTERM ENERGY INCLUDED IN DIHEDRAL
Info: TIMING OUTPUT STEPS    50000
Info: PRESSURE OUTPUT STEPS  5000
Info: LANGEVIN DYNAMICS ACTIVE
Info: LANGEVIN TEMPERATURE   300
Info: LANGEVIN USING BBK INTEGRATOR
Info: LANGEVIN DAMPING COEFFICIENT IS 1 INVERSE PS
Info: LANGEVIN DYNAMICS APPLIED TO HYDROGENS
Info: LANGEVIN PISTON PRESSURE CONTROL ACTIVE
Info:        TARGET PRESSURE IS 1.01325 BAR
Info:     OSCILLATION PERIOD IS 50 FS
Info:             DECAY TIME IS 25 FS
Info:     PISTON TEMPERATURE IS 300 K
Info:       PRESSURE CONTROL IS GROUP-BASED
Info:    INITIAL STRAIN RATE IS 0 0 0
Info:       CELL FLUCTUATION IS ISOTROPIC
Info: PARTICLE MESH EWALD (PME) ACTIVE
Info: PME TOLERANCE               1e-06
Info: PME EWALD COEFFICIENT       0.348832
Info: PME INTERPOLATION ORDER     4
Info: PME GRID DIMENSIONS         40 40 48
Info: PME MAXIMUM GRID SPACING    1
Info: FULL ELECTROSTATIC EVALUATION FREQUENCY      2
Info: USING VERLET I (r-RESPA) MTS SCHEME.
Info: C1 SPLITTING OF LONG RANGE ELECTROSTATICS
Info: PLACING ATOMS IN PATCHES BY HYDROGEN GROUPS
Info: RIGID BONDS TO HYDROGEN : ALL
Info:         ERROR TOLERANCE : 1e-08
Info:          MAX ITERATIONS : 100
Info: RIGID WATER USING SETTLE ALGORITHM
Info: RANDOM NUMBER SEED     1741332305
Info: USE HYDROGEN BONDS?    NO
Info: Using AMBER format force field!
Info: AMBER PARM FILE        mobley_349850.prmtop
Info: COORDINATE PDB         mobley_349850.pdb
Info: Exclusions will be read from PARM file!
Info: SCNB (VDW SCALING)     2
Info: USING ARITHMETIC MEAN TO COMBINE L-J SIGMA PARAMETERS
Info: SUMMARY OF PARAMETERS:
Info: 9 BONDS
Info: 10 ANGLES
Info:   10 HARMONIC
Info:   0 COSINE-BASED
Info: 9 DIHEDRAL
Info: 0 IMPROPER
Info: 0 CROSSTERM
Info: 0 VDW
Info: 28 VDW_PAIRS
Info: 0 NBTHOLE_PAIRS
Info: STRUCTURE SUMMARY:
Info: 4982 ATOMS
Info: 4982 BONDS
Info: 33 ANGLES
Info: 49 DIHEDRALS
Info: 0 IMPROPERS
Info: 0 CROSSTERMS
Info: 5052 EXCLUSIONS
Info: 4972 RIGID BONDS
Info: 9974 DEGREES OF FREEDOM
Info: 1664 HYDROGEN GROUPS
Info: 4 ATOMS IN LARGEST HYDROGEN GROUP
Info: 1664 MIGRATION GROUPS
Info: 4 ATOMS IN LARGEST MIGRATION GROUP
Info: TOTAL MASS = 29932.6 amu
Info: TOTAL CHARGE = -0.000100061 e
Info: MASS DENSITY = 0.719271 g/cm^3
Info: ATOM DENSITY = 0.0720929 atoms/A^3
Info: ADDED 0 IMPLICIT EXCLUSIONS
Info: NONBONDED TABLE R-SQUARED SPACING: 0.0625
Info: NONBONDED TABLE SIZE: 705 POINTS
Info: REMOVING COM VELOCITY 0.0730184 0.0238823 0.00187575
TCL: Minimizing for 2000 steps
ETITLE: TS BOND ANGLE DIHED IMPRP ELECT VDW BOUNDARY MISC KINETIC TOTAL TEMP POTENTIAL TOTAL3 TEMPAVG PRESSURE GPRESSURE VOLUME PRESSAVG GPRESSAVG
ENERGY: 0 0.7854 2.0219 25.0609 0.0000 -15470.8502 1760.9436 0.0000 0.0000 0.0000 -13682.0384 0.0000 -13682.0384 -13682.0384 0.0000 11119.4852 -15399.4325 69105.3183 11119.4852 -15399.4325
ENERGY: 400 67.9169 18.4900 25.8093 0.0000 -21074.4515 3156.8278 0.0000 0.0000 0.0000 -17805.4073 0.0000 -17805.4073 -17805.4073 0.0000 16296.5378 10986.1886 69105.3183 16296.5378 10986.1886
ENERGY: 800 1.2848 1.8445 22.1439 0.0000 -22113.9955 3664.8331 0.0000 0.0000 0.0000 -18423.8892 0.0000 -18423.8892 -18423.8892 0.0000 18573.6255 12852.3312 69105.3183 18573.6255 12852.3312
ENERGY: 1200 0.7725 1.5103 21.7506 0.0000 -22553.8656 3864.5783 0.0000 0.0000 0.0000 -18665.2539 0.0000 -18665.2539 -18665.2539 0.0000 19560.8427 13658.8178 69105.3183 19560.8427 13658.8178
ENERGY: 1600 0.6532 1.5739 21.7349 0.0000 -22694.1489 3900.3439 0.0000 0.0000 0.0000 -18769.8430 0.0000 -18769.8430 -18769.8430 0.0000 19771.9043 13950.6895 69105.3183 19771.9043 13950.6895
ENERGY: 2000 0.5052 1.3609 21.8453 0.0000 -22843.6022 3973.9447 0.0000 0.0000 0.0000 -18845.9460 0.0000 -18845.9460 -18845.9460 0.0000 20137.2370 14401.7256 69105.3183 20137.2370 14401.7256
TCL: Exiting due to exit command.
Info: NAMD 3.0.1 for Linux-x86_64-multicore
Info: Please visit http://www.ks.uiuc.edu/Research/namd/
Info: for updates, documentation, and support information.
Info: Please cite Phillips et al., J. Chem. Phys. 153:044130 (2020) doi:10.1063/5.0014475
Info: in all publications reporting results obtained with NAMD.
Info: Based on Charm++/Converse 80000 for multicore-linux-x86_64-gcc
Info: Built Mon Oct 14 11:11:06 CDT 2024 by dhardy on athine.ks.uiuc.edu
Info: 1 NAMD  3.0.1  Linux-x86_64-multicore  16    k116  z5358697
Info: Running on 16 processors, 1 nodes, 1 physical nodes.
Info: CPU topology information available.
Info: Charm++/Converse parallel runtime startup completed at 0.013207 s
Info: 1043.48 MB of memory in use based on /proc/self/stat
Info: Configuration file is mobley_349850_equil.namd
Info: Working in the current directory /srv/scratch/z5358697/prod_prep_4/349850
TCL: Running 25000 steps at 30 kelvin.
TCL: Suspending until startup complete.
Info: SIMULATION PARAMETERS:
Info: TIMESTEP               2
Info: NUMBER OF STEPS        0
Info: STEPS PER CYCLE        10
Info: PERIODIC CELL BASIS 1  39.806 0 0
Info: PERIODIC CELL BASIS 2  0 39.303 0
Info: PERIODIC CELL BASIS 3  0 0 44.171
Info: PERIODIC CELL CENTER   0 0 0
Info: WRAPPING WATERS AROUND PERIODIC BOUNDARIES ON OUTPUT.
Info: WRAPPING ALL CLUSTERS AROUND PERIODIC BOUNDARIES ON OUTPUT.
Info: FIRST LDB TIMESTEP     50
Info: LAST LDB TIMESTEP     -1
Info: HOM BACKGROUND SCALING 1
Info: PME BACKGROUND SCALING 1
Info: MIN ATOMS PER PATCH    40
Info: EMPTY PATCH LOAD       40 ATOMS
Info: INITIAL TEMPERATURE    300
Info: CENTER OF MASS MOVING INITIALLY? NO
Info: DIELECTRIC             1
Info: EXCLUDE                SCALED ONE-FOUR
Info: 1-4 ELECTROSTATICS SCALED BY 0.833333
Info: MODIFIED 1-4 VDW PARAMETERS WILL BE USED
Info: DCD FILENAME           mobley_349850_equil.dcd
Info: DCD FREQUENCY          5000
Info: DCD FIRST STEP         5000
Info: DCD FILE WILL CONTAIN UNIT CELL DATA
Info: XST FILENAME           mobley_349850_equil.xst
Info: XST FREQUENCY          5000
Info: NO VELOCITY DCD OUTPUT
Info: NO FORCE DCD OUTPUT
Info: OUTPUT FILENAME        mobley_349850_equil
Info: BINARY OUTPUT FILES WILL BE USED
Info: RESTART FILENAME       mobley_349850_equil.restart
Info: RESTART FREQUENCY      5000
Info: BINARY RESTART FILES WILL BE USED
Info: CUTOFF                 9
Info: PAIRLIST DISTANCE      11
Info: PAIRLIST SHRINK RATE   0.01
Info: PAIRLIST GROW RATE     0.01
Info: PAIRLIST TRIGGER       0.3
Info: PAIRLISTS PER CYCLE    2
Info: PAIRLISTS ENABLED
Info: MARGIN                 8
Info: HYDROGEN GROUP CUTOFF  2.5
Info: PATCH DIMENSION        21.5
Info: ENERGY OUTPUT STEPS    5000
Info: ENERGY EVALUATION STEPS    5000
Info: OUTPUT ENERGY PRECISION 4
Info: CROSSTERM ENERGY INCLUDED IN DIHEDRAL
Info: TIMING OUTPUT STEPS    50000
Info: PRESSURE OUTPUT STEPS  5000
Info: LANGEVIN DYNAMICS ACTIVE
Info: LANGEVIN TEMPERATURE   30
Info: LANGEVIN USING BBK INTEGRATOR
Info: LANGEVIN DAMPING COEFFICIENT IS 1 INVERSE PS
Info: LANGEVIN DYNAMICS APPLIED TO HYDROGENS
Info: LANGEVIN PISTON PRESSURE CONTROL ACTIVE
Info:        TARGET PRESSURE IS 1.01325 BAR
Info:     OSCILLATION PERIOD IS 50 FS
Info:             DECAY TIME IS 25 FS
Info:     PISTON TEMPERATURE IS 300 K
Info:       PRESSURE CONTROL IS GROUP-BASED
Info:    INITIAL STRAIN RATE IS 0 0 0
Info:       CELL FLUCTUATION IS ISOTROPIC
Info: PARTICLE MESH EWALD (PME) ACTIVE
Info: PME TOLERANCE               1e-06
Info: PME EWALD COEFFICIENT       0.348832
Info: PME INTERPOLATION ORDER     4
Info: PME GRID DIMENSIONS         40 40 48
Info: PME MAXIMUM GRID SPACING    1
Info: FULL ELECTROSTATIC EVALUATION FREQUENCY      2
Info: USING VERLET I (r-RESPA) MTS SCHEME.
Info: C1 SPLITTING OF LONG RANGE ELECTROSTATICS
Info: PLACING ATOMS IN PATCHES BY HYDROGEN GROUPS
Info: RIGID BONDS TO HYDROGEN : ALL
Info:         ERROR TOLERANCE : 1e-08
Info:          MAX ITERATIONS : 100
Info: RIGID WATER USING SETTLE ALGORITHM
Info: RANDOM NUMBER SEED     1741332323
Info: USE HYDROGEN BONDS?    NO
Info: Using AMBER format force field!
Info: AMBER PARM FILE        mobley_349850.prmtop
Info: COORDINATE PDB         mobley_349850.pdb
Info: Exclusions will be read from PARM file!
Info: SCNB (VDW SCALING)     2
Info: USING ARITHMETIC MEAN TO COMBINE L-J SIGMA PARAMETERS
Info: BINARY COORDINATES     mobley_349850_min.coor
Info: SUMMARY OF PARAMETERS:
Info: 9 BONDS
Info: 10 ANGLES
Info:   10 HARMONIC
Info:   0 COSINE-BASED
Info: 9 DIHEDRAL
Info: 0 IMPROPER
Info: 0 CROSSTERM
Info: 0 VDW
Info: 28 VDW_PAIRS
Info: 0 NBTHOLE_PAIRS
Info: STRUCTURE SUMMARY:
Info: 4982 ATOMS
Info: 4982 BONDS
Info: 33 ANGLES
Info: 49 DIHEDRALS
Info: 0 IMPROPERS
Info: 0 CROSSTERMS
Info: 5052 EXCLUSIONS
Info: 4972 RIGID BONDS
Info: 9974 DEGREES OF FREEDOM
Info: 1664 HYDROGEN GROUPS
Info: 4 ATOMS IN LARGEST HYDROGEN GROUP
Info: 1664 MIGRATION GROUPS
Info: 4 ATOMS IN LARGEST MIGRATION GROUP
Info: TOTAL MASS = 29932.6 amu
Info: TOTAL CHARGE = -0.000100061 e
Info: MASS DENSITY = 0.719271 g/cm^3
Info: ATOM DENSITY = 0.0720929 atoms/A^3
Info: ADDED 0 IMPLICIT EXCLUSIONS
Info: NONBONDED TABLE R-SQUARED SPACING: 0.0625
Info: NONBONDED TABLE SIZE: 705 POINTS
Info: REMOVING COM VELOCITY -0.167223 -0.0768287 -0.245465
TCL: Running for 25000 steps
ETITLE: TS BOND ANGLE DIHED IMPRP ELECT VDW BOUNDARY MISC KINETIC TOTAL TEMP POTENTIAL TOTAL3 TEMPAVG PRESSURE GPRESSURE VOLUME PRESSAVG GPRESSAVG
ENERGY: 0 0.5052 1.3609 21.8453 0.0000 -22843.6022 3973.9447 0.0000 0.0000 2951.2330 -15894.7131 297.7999 -18845.9460 -15894.1470 297.7999 389.2222 424.1568 69105.3183 389.2222 424.1568
ENERGY: 5000 0.7445 2.0636 22.0362 0.0000 -23883.0170 4128.3374 0.0000 0.0000 305.6294 -19424.2060 30.8401 -19729.8354 -19423.3973 47.6201 -25.7399 34.6932 48384.3231 1.8474 1.7740
ENERGY: 10000 0.3291 2.0029 21.6627 0.0000 -23980.1398 4192.2453 0.0000 0.0000 297.3679 -19466.5318 30.0065 -19763.8997 -19465.4879 30.1080 211.1371 278.2176 48282.2723 8.1639 8.5024
ENERGY: 15000 0.7676 1.5811 21.9069 0.0000 -23950.6268 4148.0165 0.0000 0.0000 297.5350 -19480.8198 30.0233 -19778.3547 -19480.1186 29.9821 -35.2310 6.7652 48294.2637 -0.1871 -0.1287
ENERGY: 20000 0.9295 1.3165 22.4589 0.0000 -23977.9737 4164.4665 0.0000 0.0000 299.6725 -19489.1296 30.2390 -19788.8022 -19488.4766 30.0429 17.1555 68.8256 48290.3407 -4.8084 -4.9316
ENERGY: 25000 0.4662 1.7622 22.4260 0.0000 -23881.4153 4059.4472 0.0000 0.0000 298.2222 -19499.0915 30.0927 -19797.3137 -19498.0623 30.2207 -578.2363 -511.0091 48531.2302 1.7645 1.7487
TCL: Running 25000 steps at 60 kelvin.
TCL: Setting parameter langevinTemp to 60
TCL: Running for 25000 steps
ETITLE: TS BOND ANGLE DIHED IMPRP ELECT VDW BOUNDARY MISC KINETIC TOTAL TEMP POTENTIAL TOTAL3 TEMPAVG PRESSURE GPRESSURE VOLUME PRESSAVG GPRESSAVG
ENERGY: 25000 0.4662 1.7622 22.4260 0.0000 -23881.4153 4059.4472 0.0000 0.0000 298.0748 -19499.2389 30.0778 -19797.3137 -19498.6323 30.0778 -565.5781 -510.9312 48531.2302 -565.5781 -510.9312
ENERGY: 30000 0.6019 2.8249 21.4572 0.0000 -23591.1763 4052.6768 0.0000 0.0000 595.0942 -18918.5213 60.0491 -19513.6155 -18916.9883 57.0495 140.4208 180.1679 48445.3799 6.4008 6.6183
ENERGY: 35000 0.6475 2.3360 23.3445 0.0000 -23794.6022 4198.3230 0.0000 0.0000 600.5716 -18969.3795 60.6018 -19569.9511 -18968.0435 60.5625 878.4807 925.2414 47934.8889 7.2152 7.0835
ENERGY: 40000 1.3398 2.3365 22.1976 0.0000 -23750.7392 4132.8037 0.0000 0.0000 607.9083 -18984.1532 61.3422 -19592.0615 -18982.7041 60.1651 403.0073 457.9796 47957.0645 3.8849 3.7099
ENERGY: 45000 1.0165 1.9982 23.1006 0.0000 -23682.2381 4041.1911 0.0000 0.0000 596.6916 -19018.2400 60.2103 -19614.9316 -19016.9315 60.1345 -95.8087 -39.9205 48164.4496 3.0330 2.9987
ENERGY: 50000 0.5791 3.7410 22.6664 0.0000 -23872.2235 4212.1137 0.0000 0.0000 586.4684 -19046.6549 59.1787 -19633.1233 -19044.9946 60.0729 835.3347 883.7801 47853.7228 3.5460 3.1993
TCL: Running 25000 steps at 90 kelvin.
TCL: Setting parameter langevinTemp to 90
TCL: Running for 25000 steps
ETITLE: TS BOND ANGLE DIHED IMPRP ELECT VDW BOUNDARY MISC KINETIC TOTAL TEMP POTENTIAL TOTAL3 TEMPAVG PRESSURE GPRESSURE VOLUME PRESSAVG GPRESSAVG
ENERGY: 50000 0.5791 3.7410 22.6664 0.0000 -23872.2235 4212.1137 0.0000 0.0000 586.1687 -19046.9546 59.1485 -19633.1233 -19045.7540 59.1485 834.1644 884.0055 47853.7228 834.1644 884.0055
ENERGY: 55000 2.2591 3.5967 22.8915 0.0000 -23115.7378 3772.1001 0.0000 0.0000 896.4208 -18418.4696 90.4551 -19314.8904 -18415.8231 86.8797 -831.8310 -758.4418 48568.6814 -0.5762 -0.7530
ENERGY: 60000 1.3090 2.3346 23.8158 0.0000 -23190.3893 3788.4156 0.0000 0.0000 890.4730 -18484.0413 89.8549 -19374.5143 -18481.4755 90.6297 -810.9719 -766.4216 48570.1460 1.4231 1.4434
ENERGY: 65000 2.0239 2.3129 24.6434 0.0000 -23481.2112 4034.4288 0.0000 0.0000 913.1731 -18504.6290 92.1455 -19417.8021 -18501.6162 90.2979 392.1366 452.3671 48114.6094 -1.1517 -1.1752
ENERGY: 70000 1.5441 3.5735 23.8705 0.0000 -23423.5320 3963.1135 0.0000 0.0000 905.5116 -18525.9188 91.3724 -19431.4304 -18523.1246 89.6410 -30.7807 37.9302 48077.0957 3.0658 2.8438
ENERGY: 75000 1.9480 3.4648 22.6108 0.0000 -23604.4614 4138.4000 0.0000 0.0000 898.6069 -18539.4308 90.6757 -19438.0377 -18536.3642 90.3363 840.8145 900.2706 48022.5684 1.5586 1.2743
TCL: Running 25000 steps at 120 kelvin.
TCL: Setting parameter langevinTemp to 120
TCL: Running for 25000 steps
ETITLE: TS BOND ANGLE DIHED IMPRP ELECT VDW BOUNDARY MISC KINETIC TOTAL TEMP POTENTIAL TOTAL3 TEMPAVG PRESSURE GPRESSURE VOLUME PRESSAVG GPRESSAVG
ENERGY: 75000 1.9480 3.4648 22.6108 0.0000 -23604.4614 4138.4000 0.0000 0.0000 898.1631 -18539.8746 90.6309 -19438.0377 -18538.3449 90.6309 844.7809 900.9782 48022.5684 844.7809 900.9782
ENERGY: 80000 1.0009 2.6978 23.4597 0.0000 -22952.4943 3838.9842 0.0000 0.0000 1191.8460 -17894.5056 120.2655 -19086.3516 -17890.8752 117.1894 105.7411 163.2046 48391.2878 -3.9637 -3.9574
ENERGY: 85000 1.6781 3.4005 24.4296 0.0000 -22942.7671 3781.5459 0.0000 0.0000 1192.5217 -17939.1913 120.3337 -19131.7129 -17935.4912 120.4033 -368.2363 -338.4060 48680.6792 3.9229 3.5124
ENERGY: 90000 0.8417 4.2466 22.6957 0.0000 -23132.2385 3944.6068 0.0000 0.0000 1200.2156 -17959.6320 121.1101 -19159.8476 -17956.9147 119.9422 439.2683 508.1702 48435.8339 5.5191 5.2287
ENERGY: 95000 1.7557 4.0529 22.9614 0.0000 -22931.5322 3717.9981 0.0000 0.0000 1180.5647 -18004.1994 119.1272 -19184.7641 -18001.2073 120.4216 -822.4253 -757.3505 48810.1549 9.4750 9.7124
ENERGY: 100000 1.2984 3.1331 24.4583 0.0000 -23217.0648 3994.3181 0.0000 0.0000 1209.1912 -17984.6658 122.0158 -19193.8569 -17982.1746 120.1348 769.7567 810.0859 48130.4220 -0.1484 -0.5301
TCL: Running 25000 steps at 150 kelvin.
TCL: Setting parameter langevinTemp to 150
TCL: Running for 25000 steps
ETITLE: TS BOND ANGLE DIHED IMPRP ELECT VDW BOUNDARY MISC KINETIC TOTAL TEMP POTENTIAL TOTAL3 TEMPAVG PRESSURE GPRESSURE VOLUME PRESSAVG GPRESSAVG
ENERGY: 100000 1.2984 3.1331 24.4583 0.0000 -23217.0648 3994.3181 0.0000 0.0000 1208.5942 -17985.2627 121.9555 -19193.8569 -17982.9990 121.9555 763.8694 809.9517 48130.4220 763.8694 809.9517
ENERGY: 105000 2.1309 4.8640 22.2925 0.0000 -22340.0181 3558.9696 0.0000 0.0000 1471.3779 -17280.3832 148.4722 -18751.7611 -17275.7751 147.4135 -682.1498 -599.5189 48946.8946 5.0695 5.2960
ENERGY: 110000 2.2398 4.3961 23.7757 0.0000 -22481.0146 3660.3451 0.0000 0.0000 1488.1611 -17302.0969 150.1658 -18790.2579 -17298.0890 151.1525 -180.4368 -101.0492 48521.6943 2.5250 2.2639
ENERGY: 115000 1.8797 2.9869 28.7821 0.0000 -22519.0050 3663.8700 0.0000 0.0000 1516.8463 -17304.6401 153.0603 -18821.4864 -17299.8383 151.2386 -108.0800 -56.0755 48167.7012 7.8054 7.8174
ENERGY: 120000 1.4384 5.6398 26.2757 0.0000 -22504.3181 3550.2062 0.0000 0.0000 1513.1029 -17407.6552 152.6826 -18920.7581 -17404.7072 149.8531 -873.8940 -817.7602 48380.6506 4.9583 5.1311
ENERGY: 125000 2.5768 4.5184 24.2048 0.0000 -22692.7171 3715.9119 0.0000 0.0000 1501.2378 -17444.2674 151.4853 -18945.5052 -17441.5249 149.4966 -36.0191 6.6046 48163.9004 4.1211 4.5703
TCL: Running 50000 steps at 180 kelvin.
TCL: Setting parameter langevinTemp to 180
TCL: Running for 50000 steps
ETITLE: TS BOND ANGLE DIHED IMPRP ELECT VDW BOUNDARY MISC KINETIC TOTAL TEMP POTENTIAL TOTAL3 TEMPAVG PRESSURE GPRESSURE VOLUME PRESSAVG GPRESSAVG
ENERGY: 125000 2.5768 4.5184 24.2048 0.0000 -22692.7171 3715.9119 0.0000 0.0000 1500.4775 -17445.0277 151.4086 -18945.5052 -17442.0448 151.4086 -48.1880 6.1418 48163.9004 -48.1880 6.1418
ENERGY: 135000 3.3349 3.7234 24.6437 0.0000 -21771.9801 3269.6878 0.0000 0.0000 1719.6104 -16750.9798 173.5206 -18470.5902 -16747.4877 179.9514 -1397.5954 -1324.4485 48846.6117 4.5671 4.6295
ENERGY: 145000 2.6966 4.4080 23.5668 0.0000 -21841.7287 3378.9831 0.0000 0.0000 1782.5427 -16649.5315 179.8709 -18432.0742 -16646.4071 180.7059 -998.7619 -929.2631 49118.3381 6.2202 6.4157
ENERGY: 155000 2.5469 3.2664 24.0984 0.0000 -22038.2117 3508.7158 0.0000 0.0000 1775.8009 -16723.7833 179.1906 -18499.5841 -16719.9084 179.7300 -281.6859 -229.8101 48691.6301 2.9533 2.9446
ENERGY: 165000 4.7872 4.7252 22.5352 0.0000 -21986.7434 3484.4003 0.0000 0.0000 1762.5145 -16707.7810 177.8499 -18470.2955 -16703.6224 181.2747 -410.7071 -377.3901 48972.9978 0.7564 0.8002
ENERGY: 175000 4.8788 3.7409 24.0419 0.0000 -22221.3818 3681.4229 0.0000 0.0000 1742.4465 -16764.8507 175.8249 -18507.2973 -16760.9765 180.0388 291.1420 328.6490 49016.8289 2.7949 2.5454
TCL: Running 50000 steps at 210 kelvin.
TCL: Setting parameter langevinTemp to 210
TCL: Running for 50000 steps
ETITLE: TS BOND ANGLE DIHED IMPRP ELECT VDW BOUNDARY MISC KINETIC TOTAL TEMP POTENTIAL TOTAL3 TEMPAVG PRESSURE GPRESSURE VOLUME PRESSAVG GPRESSAVG
ENERGY: 175000 4.8788 3.7409 24.0419 0.0000 -22221.3818 3681.4229 0.0000 0.0000 1741.5631 -16765.7341 175.7358 -18507.2973 -16761.7683 175.7358 284.9257 328.2342 49016.8289 284.9257 328.2342
ENERGY: 185000 2.5076 6.1695 26.0579 0.0000 -20898.3776 3167.5089 0.0000 0.0000 2082.5199 -15613.6137 210.1407 -17696.1337 -15608.3265 210.1907 -325.2441 -263.0181 48825.1433 -1.0900 -0.9585
ENERGY: 195000 1.1693 4.4214 26.3758 0.0000 -21119.3186 3297.8238 0.0000 0.0000 2102.6737 -15686.8546 212.1744 -17789.5284 -15682.8366 208.9517 192.1260 284.0309 48888.0708 2.9872 3.2292
ENERGY: 205000 1.5397 7.9502 23.6310 0.0000 -21007.6125 3229.3530 0.0000 0.0000 2103.9972 -15641.1413 212.3079 -17745.1386 -15638.3104 210.6960 314.4013 378.9826 48133.7850 7.2647 7.4765
ENERGY: 215000 2.4669 5.3328 23.8115 0.0000 -20858.7603 3152.6472 0.0000 0.0000 2068.5076 -15605.9943 208.7268 -17674.5019 -15601.0999 211.5934 -100.3203 -32.7004 48748.0778 2.3691 2.3814
ENERGY: 225000 1.6645 6.6276 24.9950 0.0000 -20771.5838 3071.1895 0.0000 0.0000 2115.2490 -15551.8581 213.4433 -17667.1071 -15547.9144 211.5486 -433.3774 -325.9291 48505.5814 0.9058 0.8065
TCL: Running 50000 steps at 240 kelvin.
TCL: Setting parameter langevinTemp to 240
TCL: Running for 50000 steps
ETITLE: TS BOND ANGLE DIHED IMPRP ELECT VDW BOUNDARY MISC KINETIC TOTAL TEMP POTENTIAL TOTAL3 TEMPAVG PRESSURE GPRESSURE VOLUME PRESSAVG GPRESSAVG
ENERGY: 225000 1.6645 6.6276 24.9950 0.0000 -20771.5838 3071.1895 0.0000 0.0000 2114.2142 -15552.8930 213.3389 -17667.1071 -15549.1692 213.3389 -403.4491 -326.6245 48505.5814 -403.4491 -326.6245
ENERGY: 235000 1.7757 6.7279 23.0177 0.0000 -19775.0145 2811.8635 0.0000 0.0000 2428.7569 -14502.8729 245.0784 -16931.6297 -14495.5003 240.4132 -404.7772 -304.4205 49293.7060 5.2177 5.3907
ENERGY: 245000 1.3320 7.8245 22.1978 0.0000 -20069.3871 2997.4539 0.0000 0.0000 2361.9956 -14678.5834 238.3417 -17040.5790 -14673.6754 238.6937 319.1571 343.6500 49401.7969 5.7547 5.1188
ENERGY: 255000 3.1262 9.0731 23.7068 0.0000 -19937.1821 2852.1702 0.0000 0.0000 2316.4743 -14732.6315 233.7483 -17049.1058 -14729.8357 239.9384 -397.1799 -307.5271 48969.4335 2.8147 2.6687
ENERGY: 265000 3.6430 7.7184 24.8609 0.0000 -20101.9490 3034.9240 0.0000 0.0000 2373.9583 -14656.8444 239.5489 -17030.8027 -14650.1729 240.1646 620.4254 734.3026 48513.7093 2.4129 2.3618
ENERGY: 275000 2.5959 2.8630 25.6612 0.0000 -20121.8012 3050.4765 0.0000 0.0000 2397.1497 -14643.0549 241.8890 -17040.2046 -14637.6545 238.2942 498.1453 605.6820 49248.0889 5.7094 5.8050
TCL: Running 50000 steps at 270 kelvin.
TCL: Setting parameter langevinTemp to 270
TCL: Running for 50000 steps
ETITLE: TS BOND ANGLE DIHED IMPRP ELECT VDW BOUNDARY MISC KINETIC TOTAL TEMP POTENTIAL TOTAL3 TEMPAVG PRESSURE GPRESSURE VOLUME PRESSAVG GPRESSAVG
ENERGY: 275000 2.5959 2.8630 25.6612 0.0000 -20121.8012 3050.4765 0.0000 0.0000 2395.9861 -14644.2185 241.7716 -17040.2046 -14639.8211 241.7716 506.6903 605.0158 49248.0889 506.6903 605.0158
ENERGY: 285000 3.2025 7.1117 25.1945 0.0000 -19127.2359 2730.5270 0.0000 0.0000 2698.1835 -13663.0168 272.2654 -16361.2003 -13659.7409 269.7553 440.1558 517.7164 49383.9434 5.3192 5.2655
ENERGY: 295000 3.0023 6.2307 27.5900 0.0000 -18980.0181 2628.2810 0.0000 0.0000 2694.2723 -13620.6418 271.8708 -16314.9141 -13614.6634 272.1757 29.5025 109.6695 49304.0556 4.1400 4.0083
ENERGY: 305000 1.5817 5.2682 29.2350 0.0000 -18852.2472 2582.1326 0.0000 0.0000 2664.4775 -13569.5521 268.8643 -16234.0296 -13563.8935 269.2084 -336.2610 -236.2913 50347.0504 5.7395 5.5597
ENERGY: 315000 6.4946 4.2708 23.8217 0.0000 -18949.9632 2624.0964 0.0000 0.0000 2710.2411 -13581.0386 273.4821 -16291.2798 -13570.7933 271.1905 -154.6650 -62.9955 49792.3757 5.0643 5.0600
ENERGY: 325000 2.5827 2.8235 24.3646 0.0000 -18793.5652 2493.3513 0.0000 0.0000 2681.7394 -13588.7037 270.6061 -16270.4431 -13586.5880 271.0334 -839.5066 -752.3060 50355.9947 0.8720 1.1754
TCL: Running 1000000 steps at 300 kelvin.
TCL: Setting parameter langevinTemp to 300
TCL: Running for 1000000 steps
ETITLE: TS BOND ANGLE DIHED IMPRP ELECT VDW BOUNDARY MISC KINETIC TOTAL TEMP POTENTIAL TOTAL3 TEMPAVG PRESSURE GPRESSURE VOLUME PRESSAVG GPRESSAVG
ENERGY: 325000 2.5827 2.8235 24.3646 0.0000 -18793.5652 2493.3513 0.0000 0.0000 2680.4253 -13590.0178 270.4735 -16270.4431 -13586.1112 270.4735 -845.3186 -752.5298 50355.9947 -845.3186 -752.5298
ENERGY: 525000 1.3774 5.7129 28.2650 0.0000 -17945.0654 2338.7728 0.0000 0.0000 2998.4565 -12572.4808 302.5651 -15570.9372 -12563.8124 301.2095 -567.0149 -467.1149 52259.1010 6.4694 6.6300
ENERGY: 725000 4.2145 3.5039 29.9040 0.0000 -18043.5579 2419.7179 0.0000 0.0000 2963.2231 -12622.9944 299.0098 -15586.2175 -12616.3830 301.0463 165.2030 238.2918 50562.6886 3.4128 3.0716
ENERGY: 925000 0.7033 7.1762 26.4527 0.0000 -18229.0308 2496.4306 0.0000 0.0000 2975.8314 -12722.4367 300.2820 -15698.2681 -12718.0432 298.9310 315.7692 421.5384 50767.5176 2.0606 1.8361
ENERGY: 1125000 5.3524 8.7163 28.9995 0.0000 -17924.6838 2361.5059 0.0000 0.0000 3013.4465 -12506.6633 304.0776 -15520.1097 -12501.0729 300.7440 -224.8570 -149.8005 51170.0100 1.3252 1.6146
ENERGY: 1325000 3.2608 12.3961 24.9869 0.0000 -18073.2180 2494.9105 0.0000 0.0000 2944.3305 -12593.3332 297.1034 -15537.6637 -12586.9092 300.6718 361.9924 497.5310 51324.6890 -2.9689 -3.7158
TCL: Exiting due to exit command.
