Info: SIMULATION PARAMETERS:
Info: TIMESTEP               2
Info: NUMBER OF STEPS        0
Info: STEPS PER CYCLE        10
Info: PERIODIC CELL BASIS 1  44.537 0 0
Info: PERIODIC CELL BASIS 2  0 42.118 0
Info: PERIODIC CELL BASIS 3  0 0 39.797
Info: PERIODIC CELL CENTER   0 0 0
Info: WRAPPING WATERS AROUND PERIODIC BOUNDARIES ON OUTPUT.
Info: WRAPPING ALL CLUSTERS AROUND PERIODIC BOUNDARIES ON OUTPUT.
Info: FIRST LDB TIMESTEP     50
Info: LAST LDB TIMESTEP     -1
Info: HOM BACKGROUND SCALING 1
Info: PME BACKGROUND SCALING 1
Info: MIN ATOMS PER PATCH    40
Info: EMPTY PATCH LOAD       40 ATOMS
Info: INITIAL TEMPERATURE    300
Info: CENTER OF MASS MOVING INITIALLY? NO
Info: DIELECTRIC             1
Info: EXCLUDE                SCALED ONE-FOUR
Info: 1-4 ELECTROSTATICS SCALED BY 0.833333
Info: MODIFIED 1-4 VDW PARAMETERS WILL BE USED
Info: DCD FILENAME           mobley_5110043_min.dcd
Info: DCD FREQUENCY          5000
Info: DCD FIRST STEP         5000
Info: DCD FILE WILL CONTAIN UNIT CELL DATA
Info: XST FILENAME           mobley_5110043_min.xst
Info: XST FREQUENCY          5000
Info: NO VELOCITY DCD OUTPUT
Info: NO FORCE DCD OUTPUT
Info: OUTPUT FILENAME        mobley_5110043_min
Info: BINARY OUTPUT FILES WILL BE USED
Info: RESTART FILENAME       mobley_5110043_min.restart
Info: RESTART FREQUENCY      5000
Info: BINARY RESTART FILES WILL BE USED
Info: CUTOFF                 9
Info: PAIRLIST DISTANCE      11
Info: PAIRLIST SHRINK RATE   0.01
Info: PAIRLIST GROW RATE     0.01
Info: PAIRLIST TRIGGER       0.3
Info: PAIRLISTS PER CYCLE    2
Info: PAIRLISTS ENABLED
Info: MARGIN                 8
Info: HYDROGEN GROUP CUTOFF  2.5
Info: PATCH DIMENSION        21.5
Info: ENERGY OUTPUT STEPS    5000
Info: ENERGY EVALUATION STEPS    5000
Info: OUTPUT ENERGY PRECISION 4
Info: CROSSTERM ENERGY INCLUDED IN DIHEDRAL
Info: TIMING OUTPUT STEPS    50000
Info: PRESSURE OUTPUT STEPS  5000
Info: LANGEVIN DYNAMICS ACTIVE
Info: LANGEVIN TEMPERATURE   300
Info: LANGEVIN USING BBK INTEGRATOR
Info: LANGEVIN DAMPING COEFFICIENT IS 1 INVERSE PS
Info: LANGEVIN DYNAMICS APPLIED TO HYDROGENS
Info: LANGEVIN PISTON PRESSURE CONTROL ACTIVE
Info:        TARGET PRESSURE IS 1.01325 BAR
Info:     OSCILLATION PERIOD IS 50 FS
Info:             DECAY TIME IS 25 FS
Info:     PISTON TEMPERATURE IS 300 K
Info:       PRESSURE CONTROL IS GROUP-BASED
Info:    INITIAL STRAIN RATE IS 0 0 0
Info:       CELL FLUCTUATION IS ISOTROPIC
Info: PARTICLE MESH EWALD (PME) ACTIVE
Info: PME TOLERANCE               1e-06
Info: PME EWALD COEFFICIENT       0.348832
Info: PME INTERPOLATION ORDER     4
Info: PME GRID DIMENSIONS         48 44 40
Info: PME MAXIMUM GRID SPACING    1
Info: FULL ELECTROSTATIC EVALUATION FREQUENCY      2
Info: USING VERLET I (r-RESPA) MTS SCHEME.
Info: C1 SPLITTING OF LONG RANGE ELECTROSTATICS
Info: PLACING ATOMS IN PATCHES BY HYDROGEN GROUPS
Info: RIGID BONDS TO HYDROGEN : ALL
Info:         ERROR TOLERANCE : 1e-08
Info:          MAX ITERATIONS : 100
Info: RIGID WATER USING SETTLE ALGORITHM
Info: RANDOM NUMBER SEED     1741352335
Info: USE HYDROGEN BONDS?    NO
Info: Using AMBER format force field!
Info: AMBER PARM FILE        mobley_5110043.prmtop
Info: COORDINATE PDB         mobley_5110043.pdb
Info: Exclusions will be read from PARM file!
Info: SCNB (VDW SCALING)     2
Info: USING ARITHMETIC MEAN TO COMBINE L-J SIGMA PARAMETERS
Info: SUMMARY OF PARAMETERS:
Info: 6 BONDS
Info: 5 ANGLES
Info:   5 HARMONIC
Info:   0 COSINE-BASED
Info: 3 DIHEDRAL
Info: 0 IMPROPER
Info: 0 CROSSTERM
Info: 0 VDW
Info: 21 VDW_PAIRS
Info: 0 NBTHOLE_PAIRS
Info: STRUCTURE SUMMARY:
Info: 5421 ATOMS
Info: 5422 BONDS
Info: 42 ANGLES
Info: 64 DIHEDRALS
Info: 0 IMPROPERS
Info: 0 CROSSTERMS
Info: 5514 EXCLUSIONS
Info: 5409 RIGID BONDS
Info: 10854 DEGREES OF FREEDOM
Info: 1811 HYDROGEN GROUPS
Info: 4 ATOMS IN LARGEST HYDROGEN GROUP
Info: 1811 MIGRATION GROUPS
Info: 4 ATOMS IN LARGEST MIGRATION GROUP
Info: TOTAL MASS = 32567 amu
Info: TOTAL CHARGE = -9.99793e-05 e
Info: MASS DENSITY = 0.724433 g/cm^3
Info: ATOM DENSITY = 0.0726173 atoms/A^3
Info: ADDED 0 IMPLICIT EXCLUSIONS
Info: NONBONDED TABLE R-SQUARED SPACING: 0.0625
Info: NONBONDED TABLE SIZE: 705 POINTS
Info: REMOVING COM VELOCITY 0.0909953 -0.122978 0.0163809
TCL: Minimizing for 2000 steps
ETITLE: TS BOND ANGLE DIHED IMPRP ELECT VDW BOUNDARY MISC KINETIC TOTAL TEMP POTENTIAL TOTAL3 TEMPAVG PRESSURE GPRESSURE VOLUME PRESSAVG GPRESSAVG
ENERGY: 0 0.4747 0.3497 0.0004 0.0000 -16691.9316 1854.4452 0.0000 0.0000 0.0000 -14836.6616 0.0000 -14836.6616 -14836.6616 0.0000 10897.7319 -15521.6046 74651.5853 10897.7319 -15521.6046
ENERGY: 400 3.6476 2.2250 0.4235 0.0000 -22580.7343 3330.6397 0.0000 0.0000 0.0000 -19243.7984 0.0000 -19243.7984 -19243.7984 0.0000 15848.2038 15934.5617 74651.5853 15848.2038 15934.5617
ENERGY: 800 1.5132 0.9136 0.1246 0.0000 -23574.8766 3694.9352 0.0000 0.0000 0.0000 -19877.3901 0.0000 -19877.3901 -19877.3901 0.0000 17381.8752 17420.7812 74651.5853 17381.8752 17420.7812
ENERGY: 1200 12.8407 4.5209 0.4399 0.0000 -24140.9402 3965.6072 0.0000 0.0000 0.0000 -20157.5314 0.0000 -20157.5314 -20157.5314 0.0000 18518.7161 18590.0388 74651.5853 18518.7161 18590.0388
ENERGY: 1600 5.1111 2.5054 0.1100 0.0000 -24367.5651 4040.4548 0.0000 0.0000 0.0000 -20319.3838 0.0000 -20319.3838 -20319.3838 0.0000 18901.4254 18943.4008 74651.5853 18901.4254 18943.4008
ENERGY: 2000 0.5538 0.2477 0.2565 0.0000 -24556.1573 4127.1562 0.0000 0.0000 0.0000 -20427.9432 0.0000 -20427.9432 -20427.9432 0.0000 19306.9665 19358.9840 74651.5853 19306.9665 19358.9840
TCL: Exiting due to exit command.
Info: NAMD 3.0.1 for Linux-x86_64-multicore
Info: Please visit http://www.ks.uiuc.edu/Research/namd/
Info: for updates, documentation, and support information.
Info: Please cite Phillips et al., J. Chem. Phys. 153:044130 (2020) doi:10.1063/5.0014475
Info: in all publications reporting results obtained with NAMD.
Info: Based on Charm++/Converse 80000 for multicore-linux-x86_64-gcc
Info: Built Mon Oct 14 11:11:06 CDT 2024 by dhardy on athine.ks.uiuc.edu
Info: 1 NAMD  3.0.1  Linux-x86_64-multicore  16    k006  z5358697
Info: Running on 16 processors, 1 nodes, 1 physical nodes.
Info: CPU topology information available.
Info: Charm++/Converse parallel runtime startup completed at 0.00886491 s
Info: 1043.45 MB of memory in use based on /proc/self/stat
Info: Configuration file is mobley_5110043_equil.namd
Info: Working in the current directory /srv/scratch/z5358697/prod_prep_6/5110043
TCL: Running 25000 steps at 30 kelvin.
TCL: Suspending until startup complete.
Info: SIMULATION PARAMETERS:
Info: TIMESTEP               2
Info: NUMBER OF STEPS        0
Info: STEPS PER CYCLE        10
Info: PERIODIC CELL BASIS 1  44.537 0 0
Info: PERIODIC CELL BASIS 2  0 42.118 0
Info: PERIODIC CELL BASIS 3  0 0 39.797
Info: PERIODIC CELL CENTER   0 0 0
Info: WRAPPING WATERS AROUND PERIODIC BOUNDARIES ON OUTPUT.
Info: WRAPPING ALL CLUSTERS AROUND PERIODIC BOUNDARIES ON OUTPUT.
Info: FIRST LDB TIMESTEP     50
Info: LAST LDB TIMESTEP     -1
Info: HOM BACKGROUND SCALING 1
Info: PME BACKGROUND SCALING 1
Info: MIN ATOMS PER PATCH    40
Info: EMPTY PATCH LOAD       40 ATOMS
Info: INITIAL TEMPERATURE    300
Info: CENTER OF MASS MOVING INITIALLY? NO
Info: DIELECTRIC             1
Info: EXCLUDE                SCALED ONE-FOUR
Info: 1-4 ELECTROSTATICS SCALED BY 0.833333
Info: MODIFIED 1-4 VDW PARAMETERS WILL BE USED
Info: DCD FILENAME           mobley_5110043_equil.dcd
Info: DCD FREQUENCY          5000
Info: DCD FIRST STEP         5000
Info: DCD FILE WILL CONTAIN UNIT CELL DATA
Info: XST FILENAME           mobley_5110043_equil.xst
Info: XST FREQUENCY          5000
Info: NO VELOCITY DCD OUTPUT
Info: NO FORCE DCD OUTPUT
Info: OUTPUT FILENAME        mobley_5110043_equil
Info: BINARY OUTPUT FILES WILL BE USED
Info: RESTART FILENAME       mobley_5110043_equil.restart
Info: RESTART FREQUENCY      5000
Info: BINARY RESTART FILES WILL BE USED
Info: CUTOFF                 9
Info: PAIRLIST DISTANCE      11
Info: PAIRLIST SHRINK RATE   0.01
Info: PAIRLIST GROW RATE     0.01
Info: PAIRLIST TRIGGER       0.3
Info: PAIRLISTS PER CYCLE    2
Info: PAIRLISTS ENABLED
Info: MARGIN                 8
Info: HYDROGEN GROUP CUTOFF  2.5
Info: PATCH DIMENSION        21.5
Info: ENERGY OUTPUT STEPS    5000
Info: ENERGY EVALUATION STEPS    5000
Info: OUTPUT ENERGY PRECISION 4
Info: CROSSTERM ENERGY INCLUDED IN DIHEDRAL
Info: TIMING OUTPUT STEPS    50000
Info: PRESSURE OUTPUT STEPS  5000
Info: LANGEVIN DYNAMICS ACTIVE
Info: LANGEVIN TEMPERATURE   30
Info: LANGEVIN USING BBK INTEGRATOR
Info: LANGEVIN DAMPING COEFFICIENT IS 1 INVERSE PS
Info: LANGEVIN DYNAMICS APPLIED TO HYDROGENS
Info: LANGEVIN PISTON PRESSURE CONTROL ACTIVE
Info:        TARGET PRESSURE IS 1.01325 BAR
Info:     OSCILLATION PERIOD IS 50 FS
Info:             DECAY TIME IS 25 FS
Info:     PISTON TEMPERATURE IS 300 K
Info:       PRESSURE CONTROL IS GROUP-BASED
Info:    INITIAL STRAIN RATE IS 0 0 0
Info:       CELL FLUCTUATION IS ISOTROPIC
Info: PARTICLE MESH EWALD (PME) ACTIVE
Info: PME TOLERANCE               1e-06
Info: PME EWALD COEFFICIENT       0.348832
Info: PME INTERPOLATION ORDER     4
Info: PME GRID DIMENSIONS         48 44 40
Info: PME MAXIMUM GRID SPACING    1
Info: FULL ELECTROSTATIC EVALUATION FREQUENCY      2
Info: USING VERLET I (r-RESPA) MTS SCHEME.
Info: C1 SPLITTING OF LONG RANGE ELECTROSTATICS
Info: PLACING ATOMS IN PATCHES BY HYDROGEN GROUPS
Info: RIGID BONDS TO HYDROGEN : ALL
Info:         ERROR TOLERANCE : 1e-08
Info:          MAX ITERATIONS : 100
Info: RIGID WATER USING SETTLE ALGORITHM
Info: RANDOM NUMBER SEED     1741352363
Info: USE HYDROGEN BONDS?    NO
Info: Using AMBER format force field!
Info: AMBER PARM FILE        mobley_5110043.prmtop
Info: COORDINATE PDB         mobley_5110043.pdb
Info: Exclusions will be read from PARM file!
Info: SCNB (VDW SCALING)     2
Info: USING ARITHMETIC MEAN TO COMBINE L-J SIGMA PARAMETERS
Info: BINARY COORDINATES     mobley_5110043_min.coor
Info: SUMMARY OF PARAMETERS:
Info: 6 BONDS
Info: 5 ANGLES
Info:   5 HARMONIC
Info:   0 COSINE-BASED
Info: 3 DIHEDRAL
Info: 0 IMPROPER
Info: 0 CROSSTERM
Info: 0 VDW
Info: 21 VDW_PAIRS
Info: 0 NBTHOLE_PAIRS
Info: STRUCTURE SUMMARY:
Info: 5421 ATOMS
Info: 5422 BONDS
Info: 42 ANGLES
Info: 64 DIHEDRALS
Info: 0 IMPROPERS
Info: 0 CROSSTERMS
Info: 5514 EXCLUSIONS
Info: 5409 RIGID BONDS
Info: 10854 DEGREES OF FREEDOM
Info: 1811 HYDROGEN GROUPS
Info: 4 ATOMS IN LARGEST HYDROGEN GROUP
Info: 1811 MIGRATION GROUPS
Info: 4 ATOMS IN LARGEST MIGRATION GROUP
Info: TOTAL MASS = 32567 amu
Info: TOTAL CHARGE = -9.99793e-05 e
Info: MASS DENSITY = 0.724433 g/cm^3
Info: ATOM DENSITY = 0.0726173 atoms/A^3
Info: ADDED 0 IMPLICIT EXCLUSIONS
Info: NONBONDED TABLE R-SQUARED SPACING: 0.0625
Info: NONBONDED TABLE SIZE: 705 POINTS
Info: REMOVING COM VELOCITY 0.0266295 -0.0172661 0.147544
TCL: Running for 25000 steps
ETITLE: TS BOND ANGLE DIHED IMPRP ELECT VDW BOUNDARY MISC KINETIC TOTAL TEMP POTENTIAL TOTAL3 TEMPAVG PRESSURE GPRESSURE VOLUME PRESSAVG GPRESSAVG
ENERGY: 0 0.5538 0.2477 0.2565 0.0000 -24556.1573 4127.1562 0.0000 0.0000 3181.8996 -17246.0436 295.0442 -20427.9432 -17245.4473 295.0442 -292.1415 -244.2612 74651.5853 -292.1415 -244.2612
ENERGY: 5000 0.9205 0.4788 0.3913 0.0000 -25905.3998 4429.7838 0.0000 0.0000 331.7133 -21142.1121 30.7584 -21473.8254 -21141.3320 47.9306 -183.0419 -135.7228 52459.7212 3.6257 3.7465
ENERGY: 10000 1.7108 0.7636 0.3784 0.0000 -25822.7303 4298.3049 0.0000 0.0000 330.1363 -21191.4363 30.6121 -21521.5726 -21190.7953 30.2452 -916.2687 -859.3840 52467.5023 0.4536 0.4121
ENERGY: 15000 0.5602 0.6916 0.6648 0.0000 -26081.0092 4534.2051 0.0000 0.0000 317.7883 -21227.0993 29.4672 -21544.8875 -21225.9822 30.3281 253.1895 305.5114 52098.5099 0.3593 0.3474
ENERGY: 20000 0.4968 1.0543 0.4167 0.0000 -26069.2931 4523.4861 0.0000 0.0000 321.7707 -21222.0686 29.8364 -21543.8393 -21221.2559 29.9282 279.8225 317.8742 51909.2967 0.9586 0.8124
ENERGY: 25000 0.6383 0.9611 0.4985 0.0000 -26006.8352 4453.0885 0.0000 0.0000 323.0908 -21228.5580 29.9589 -21551.6489 -21227.5750 30.1475 -137.6068 -63.3333 52011.5869 1.2569 1.1272
TCL: Running 25000 steps at 60 kelvin.
TCL: Setting parameter langevinTemp to 60
TCL: Running for 25000 steps
ETITLE: TS BOND ANGLE DIHED IMPRP ELECT VDW BOUNDARY MISC KINETIC TOTAL TEMP POTENTIAL TOTAL3 TEMPAVG PRESSURE GPRESSURE VOLUME PRESSAVG GPRESSAVG
ENERGY: 25000 0.6383 0.9611 0.4985 0.0000 -26006.8352 4453.0885 0.0000 0.0000 322.9319 -21228.7169 29.9441 -21551.6489 -21228.0067 29.9441 -120.6155 -63.1512 52011.5869 -120.6155 -63.1512
ENERGY: 30000 0.4478 1.2202 0.9704 0.0000 -25312.8778 4045.8167 0.0000 0.0000 654.0323 -20610.3904 60.6457 -21264.4226 -20608.3020 57.2145 -1390.3038 -1330.7462 52400.8037 3.7019 4.1742
ENERGY: 35000 0.6978 1.3077 1.2937 0.0000 -25704.6748 4377.0996 0.0000 0.0000 646.5657 -20677.7101 59.9533 -21324.2759 -20675.8955 60.2701 59.8672 104.7318 51736.4782 6.4059 6.5751
ENERGY: 40000 0.6470 1.3571 1.4465 0.0000 -25937.8145 4542.4638 0.0000 0.0000 646.1053 -20745.7949 59.9106 -21391.9001 -20744.9400 60.3385 810.1139 845.7253 51320.8839 3.2201 3.3699
ENERGY: 45000 0.7269 3.0221 0.7106 0.0000 -25847.5136 4433.0296 0.0000 0.0000 664.6090 -20745.4154 61.6264 -21410.0244 -20744.1005 60.0637 249.7717 305.0716 51369.4093 3.4337 3.3668
ENERGY: 50000 1.2540 1.6804 0.5600 0.0000 -25726.8358 4297.6143 0.0000 0.0000 642.2534 -20783.4737 59.5535 -21425.7271 -20781.4817 59.9389 -517.7473 -431.7926 51671.1734 7.3519 7.6328
TCL: Running 25000 steps at 90 kelvin.
TCL: Setting parameter langevinTemp to 90
TCL: Running for 25000 steps
ETITLE: TS BOND ANGLE DIHED IMPRP ELECT VDW BOUNDARY MISC KINETIC TOTAL TEMP POTENTIAL TOTAL3 TEMPAVG PRESSURE GPRESSURE VOLUME PRESSAVG GPRESSAVG
ENERGY: 50000 1.2540 1.6804 0.5600 0.0000 -25726.8358 4297.6143 0.0000 0.0000 641.9327 -20783.7945 59.5237 -21425.7271 -20782.3821 59.5237 -492.1128 -431.7703 51671.1734 -492.1128 -431.7703
ENERGY: 55000 1.3355 2.1198 1.0632 0.0000 -25480.8630 4370.8334 0.0000 0.0000 978.3487 -20127.1624 90.7182 -21105.5110 -20125.2068 86.6185 553.1969 626.9425 51792.8705 2.8898 2.4128
ENERGY: 60000 2.4949 2.1147 0.8986 0.0000 -25220.8664 4109.3694 0.0000 0.0000 967.5705 -20138.4183 89.7187 -21105.9888 -20135.6990 90.2372 -773.3879 -681.6353 52108.8731 3.1392 3.2404
ENERGY: 65000 2.1159 1.7567 1.8790 0.0000 -25180.8905 4054.8037 0.0000 0.0000 995.0787 -20125.2567 92.2695 -21120.3353 -20122.7747 90.6201 -996.0642 -925.3808 52024.4136 -1.8343 -1.5927
ENERGY: 70000 0.9590 1.7974 1.4945 0.0000 -25438.9196 4276.0571 0.0000 0.0000 1001.3878 -20157.2239 92.8545 -21158.6118 -20155.4917 90.3519 35.8416 61.9137 51826.3196 3.7290 3.6563
ENERGY: 75000 2.5982 3.1706 1.8139 0.0000 -25347.4829 4170.0087 0.0000 0.0000 976.1628 -20193.7287 90.5155 -21169.8914 -20191.4136 90.0053 -623.6428 -559.5436 52045.6345 7.1779 7.1242
TCL: Running 25000 steps at 120 kelvin.
TCL: Setting parameter langevinTemp to 120
TCL: Running for 25000 steps
ETITLE: TS BOND ANGLE DIHED IMPRP ELECT VDW BOUNDARY MISC KINETIC TOTAL TEMP POTENTIAL TOTAL3 TEMPAVG PRESSURE GPRESSURE VOLUME PRESSAVG GPRESSAVG
ENERGY: 75000 2.5982 3.1706 1.8139 0.0000 -25347.4829 4170.0087 0.0000 0.0000 975.6882 -20194.2032 90.4715 -21169.8914 -20192.1683 90.4715 -612.5451 -559.6499 52045.6345 -612.5451 -559.6499
ENERGY: 80000 3.2245 4.2906 2.3764 0.0000 -24872.7182 4046.2861 0.0000 0.0000 1274.7368 -19541.8038 118.2010 -20816.5406 -19538.2142 116.4914 -495.3397 -416.6651 52455.4306 8.5743 8.6560
ENERGY: 85000 2.5078 2.1375 2.3386 0.0000 -24758.7761 3937.9866 0.0000 0.0000 1295.1463 -19518.6593 120.0935 -20813.8055 -19513.9491 120.0607 -983.2592 -951.4112 52545.9001 2.7642 3.0566
ENERGY: 90000 1.6118 2.6837 2.9134 0.0000 -25098.5173 4205.2844 0.0000 0.0000 1299.4426 -19586.5813 120.4918 -20886.0239 -19583.7303 120.6759 159.9200 188.9903 52480.8741 2.3837 2.0016
ENERGY: 95000 1.9886 2.3896 0.9510 0.0000 -25099.4744 4195.3131 0.0000 0.0000 1328.9639 -19569.8682 123.2292 -20898.8321 -19566.7530 120.1679 112.2781 146.5773 52354.7102 2.3140 2.1480
ENERGY: 100000 2.4890 3.2206 2.6620 0.0000 -25134.8392 4223.3282 0.0000 0.0000 1305.8658 -19597.2737 121.0874 -20903.1395 -19593.5791 120.6870 136.9903 187.4639 52223.8192 2.5973 2.5806
TCL: Running 25000 steps at 150 kelvin.
TCL: Setting parameter langevinTemp to 150
TCL: Running for 25000 steps
ETITLE: TS BOND ANGLE DIHED IMPRP ELECT VDW BOUNDARY MISC KINETIC TOTAL TEMP POTENTIAL TOTAL3 TEMPAVG PRESSURE GPRESSURE VOLUME PRESSAVG GPRESSAVG
ENERGY: 100000 2.4890 3.2206 2.6620 0.0000 -25134.8392 4223.3282 0.0000 0.0000 1305.2176 -19597.9218 121.0273 -20903.1395 -19594.8600 121.0273 150.9916 187.4579 52223.8192 150.9916 187.4579
ENERGY: 105000 2.7329 5.8739 1.3819 0.0000 -24633.0369 4111.0689 0.0000 0.0000 1610.0377 -18901.9417 149.2920 -20511.9793 -18897.1984 146.6041 456.4576 491.5628 52335.6621 5.9451 5.5993
ENERGY: 110000 2.4817 2.7202 4.9188 0.0000 -24583.3015 4058.9985 0.0000 0.0000 1628.3901 -18885.7923 150.9938 -20514.1824 -18880.9229 149.8298 102.7150 152.9626 52609.5656 3.9012 3.7244
ENERGY: 115000 1.7553 2.8669 1.0117 0.0000 -24715.1140 4102.8015 0.0000 0.0000 1598.4793 -19008.1992 148.2203 -20606.6785 -19004.6706 149.8389 219.9081 266.6619 52364.9801 1.2956 1.4528
ENERGY: 120000 0.8907 2.2354 2.1803 0.0000 -24585.8972 4005.3199 0.0000 0.0000 1642.4183 -18932.8525 152.2945 -20575.2708 -18928.2441 149.7953 -217.8841 -166.7299 52681.9289 4.5755 5.0334
ENERGY: 125000 3.5451 2.2242 1.5815 0.0000 -24574.2267 3964.5870 0.0000 0.0000 1621.8110 -18980.4778 150.3837 -20602.2888 -18975.9268 149.2422 -686.3441 -606.6366 53053.5234 5.9924 6.2128
TCL: Running 50000 steps at 180 kelvin.
TCL: Setting parameter langevinTemp to 180
TCL: Running for 50000 steps
ETITLE: TS BOND ANGLE DIHED IMPRP ELECT VDW BOUNDARY MISC KINETIC TOTAL TEMP POTENTIAL TOTAL3 TEMPAVG PRESSURE GPRESSURE VOLUME PRESSAVG GPRESSAVG
ENERGY: 125000 3.5451 2.2242 1.5815 0.0000 -24574.2267 3964.5870 0.0000 0.0000 1621.0170 -18981.2718 150.3101 -20602.2888 -18977.8478 150.3101 -660.0302 -606.2832 53053.5234 -660.0302 -606.2832
ENERGY: 135000 3.8815 5.3424 2.7460 0.0000 -23944.3712 3808.0509 0.0000 0.0000 1961.0634 -18163.2869 181.8412 -20124.3503 -18157.8104 178.6043 -115.8686 -56.4385 52798.9873 -0.8294 -0.9317
ENERGY: 145000 4.1985 2.8245 1.6084 0.0000 -24093.7391 3957.7332 0.0000 0.0000 1949.7478 -18177.6267 180.7919 -20127.3745 -18171.4093 179.3615 431.4246 521.6367 52345.9458 0.2241 0.7451
ENERGY: 155000 2.8452 6.4338 0.8650 0.0000 -24214.1763 4072.7253 0.0000 0.0000 1914.9797 -18216.3273 177.5680 -20131.3070 -18211.7045 179.3360 933.3015 1012.1067 52477.1187 1.8369 1.6124
ENERGY: 165000 2.1893 4.4614 4.1653 0.0000 -23914.4152 3741.5385 0.0000 0.0000 1988.2041 -18173.8566 184.3578 -20162.0607 -18167.9146 178.9005 -668.3597 -564.8883 53248.6584 0.5106 0.6633
ENERGY: 175000 0.9983 3.7189 2.6479 0.0000 -24171.2893 4006.4066 0.0000 0.0000 1945.1046 -18212.4129 180.3614 -20157.5175 -18208.5430 179.4705 682.7287 748.3786 52537.9778 1.2907 1.0824
TCL: Running 50000 steps at 210 kelvin.
TCL: Setting parameter langevinTemp to 210
TCL: Running for 50000 steps
ETITLE: TS BOND ANGLE DIHED IMPRP ELECT VDW BOUNDARY MISC KINETIC TOTAL TEMP POTENTIAL TOTAL3 TEMPAVG PRESSURE GPRESSURE VOLUME PRESSAVG GPRESSAVG
ENERGY: 175000 0.9983 3.7189 2.6479 0.0000 -24171.2893 4006.4066 0.0000 0.0000 1944.1385 -18213.3791 180.2718 -20157.5175 -18209.7375 180.2718 686.9304 748.3112 52537.9778 686.9304 748.3112
ENERGY: 185000 2.0997 4.1698 3.1507 0.0000 -22841.3480 3513.0538 0.0000 0.0000 2214.3814 -17104.4926 205.3303 -19318.8740 -17101.8890 209.6237 90.8519 165.4904 52716.4085 4.5065 4.0721
ENERGY: 195000 5.3076 4.3872 3.7780 0.0000 -23023.5345 3623.5119 0.0000 0.0000 2256.2096 -17130.3401 209.2088 -19386.5497 -17124.4784 208.8819 417.0416 519.1159 52917.5782 5.1746 5.0059
ENERGY: 205000 4.0916 5.0838 3.3349 0.0000 -22783.0755 3453.4576 0.0000 0.0000 2319.6641 -16997.4434 215.0927 -19317.1075 -16993.5503 210.1056 -122.4333 -25.0775 52542.5813 4.2074 4.2159
ENERGY: 215000 2.0201 3.5830 3.0753 0.0000 -22781.8870 3450.9349 0.0000 0.0000 2297.2495 -17025.0241 213.0143 -19322.2737 -17018.7599 210.2819 -97.4316 24.6923 52609.6826 4.2586 5.1457
ENERGY: 225000 5.1739 5.9400 1.5250 0.0000 -22921.9040 3562.7715 0.0000 0.0000 2253.3382 -17093.1553 208.9426 -19346.4936 -17090.4955 208.6051 148.6879 261.5359 52992.4438 1.9640 1.8824
TCL: Running 50000 steps at 240 kelvin.
TCL: Setting parameter langevinTemp to 240
TCL: Running for 50000 steps
ETITLE: TS BOND ANGLE DIHED IMPRP ELECT VDW BOUNDARY MISC KINETIC TOTAL TEMP POTENTIAL TOTAL3 TEMPAVG PRESSURE GPRESSURE VOLUME PRESSAVG GPRESSAVG
ENERGY: 225000 5.1739 5.9400 1.5250 0.0000 -22921.9040 3562.7715 0.0000 0.0000 2252.2167 -17094.2769 208.8386 -19346.4936 -17090.7854 208.8386 186.1638 259.9763 52992.4438 186.1638 259.9763
ENERGY: 235000 3.8552 6.6462 4.5408 0.0000 -21635.7506 3068.4502 0.0000 0.0000 2566.8085 -15985.4495 238.0094 -18552.2581 -15978.5818 240.4362 -513.4039 -468.3954 53367.7264 3.9135 4.8221
ENERGY: 245000 3.9988 5.7742 3.9824 0.0000 -21801.4096 3299.6871 0.0000 0.0000 2543.5312 -15944.4359 235.8509 -18487.9670 -15937.3592 239.6511 777.6127 833.5095 53022.4726 0.1932 -0.0387
ENERGY: 255000 2.5345 5.0665 4.1189 0.0000 -21718.9817 3186.0904 0.0000 0.0000 2587.4302 -15933.7413 239.9215 -18521.1714 -15929.0368 239.8062 161.3846 227.0500 53297.1828 2.7912 2.8622
ENERGY: 265000 1.6972 4.1082 2.2349 0.0000 -21715.1977 3215.1567 0.0000 0.0000 2648.6088 -15843.3920 245.5944 -18492.0008 -15839.1684 241.1589 416.0721 479.4144 53009.9560 3.6085 4.1265
ENERGY: 275000 2.0423 9.1354 1.9357 0.0000 -21776.5617 3286.2216 0.0000 0.0000 2576.9504 -15900.2764 238.9498 -18477.2268 -15894.8211 238.5396 699.8985 740.4477 53303.0526 -0.2624 -0.0892
TCL: Running 50000 steps at 270 kelvin.
TCL: Setting parameter langevinTemp to 270
TCL: Running for 50000 steps
ETITLE: TS BOND ANGLE DIHED IMPRP ELECT VDW BOUNDARY MISC KINETIC TOTAL TEMP POTENTIAL TOTAL3 TEMPAVG PRESSURE GPRESSURE VOLUME PRESSAVG GPRESSAVG
ENERGY: 275000 2.0423 9.1354 1.9357 0.0000 -21776.5617 3286.2216 0.0000 0.0000 2575.6650 -15901.5618 238.8306 -18477.2268 -15897.5782 238.8306 656.0782 739.6671 53303.0526 656.0782 739.6671
ENERGY: 285000 5.2975 5.7780 5.4626 0.0000 -20569.3768 2813.8005 0.0000 0.0000 2910.5197 -14828.5185 269.8803 -17739.0382 -14818.6015 270.5650 -337.2044 -229.3604 54353.2717 0.1508 0.3212
ENERGY: 295000 1.3921 5.4819 1.6513 0.0000 -20669.5197 2803.4010 0.0000 0.0000 2946.7387 -14910.8545 273.2387 -17857.5933 -14903.9663 268.1840 -666.0424 -590.1971 54892.9120 1.4029 1.3548
ENERGY: 305000 2.0093 8.2440 2.8953 0.0000 -20577.1722 2820.5903 0.0000 0.0000 2870.2812 -14873.1520 266.1491 -17743.4333 -14867.2803 268.9201 -283.2362 -239.4917 54294.7979 6.7212 6.5190
ENERGY: 315000 4.6254 5.1533 4.3397 0.0000 -20619.3384 2861.9706 0.0000 0.0000 3004.8437 -14738.4057 278.6265 -17743.2494 -14734.2550 270.5601 -68.7251 16.3294 54498.4683 0.5598 1.1298
ENERGY: 325000 5.1681 7.8050 3.2738 0.0000 -20517.3317 2826.5240 0.0000 0.0000 2981.5596 -14693.0012 276.4675 -17674.5608 -14687.6026 271.1759 -174.3173 -107.8374 54306.8249 0.9195 0.6204
TCL: Running 1000000 steps at 300 kelvin.
TCL: Setting parameter langevinTemp to 300
TCL: Running for 1000000 steps
ETITLE: TS BOND ANGLE DIHED IMPRP ELECT VDW BOUNDARY MISC KINETIC TOTAL TEMP POTENTIAL TOTAL3 TEMPAVG PRESSURE GPRESSURE VOLUME PRESSAVG GPRESSAVG
ENERGY: 325000 5.1681 7.8050 3.2738 0.0000 -20517.3317 2826.5240 0.0000 0.0000 2980.1338 -14694.4270 276.3353 -17674.5608 -14690.8385 276.3353 -197.3821 -106.7500 54306.8249 -197.3821 -106.7500
ENERGY: 525000 7.7385 6.7709 4.9058 0.0000 -19726.9632 2649.4915 0.0000 0.0000 3275.5212 -13782.5353 303.7253 -17058.0565 -13774.0736 299.0159 -51.0301 23.1031 55718.0310 3.4827 4.0153
ENERGY: 725000 3.9048 8.6280 4.4629 0.0000 -19783.8495 2656.8029 0.0000 0.0000 3275.8442 -13834.2067 303.7553 -17110.0509 -13825.5806 299.3215 -85.5345 26.3312 55327.3527 0.0825 0.2251
ENERGY: 925000 4.2992 5.5140 3.8577 0.0000 -19829.1546 2729.5937 0.0000 0.0000 3222.0683 -13863.8218 298.7688 -17085.8900 -13857.0242 299.3488 305.7621 381.1205 55418.9103 2.4444 2.7165
ENERGY: 1125000 4.6712 10.4475 7.7245 0.0000 -19731.1511 2679.7272 0.0000 0.0000 3279.6724 -13748.9082 304.1102 -17028.5807 -13745.5341 300.9485 -4.1627 68.6012 55758.6987 5.4161 5.3917
ENERGY: 1325000 5.4121 7.8254 5.1512 0.0000 -19632.0553 2550.7112 0.0000 0.0000 3190.6097 -13872.3458 295.8518 -17062.9554 -13866.2494 299.6379 -591.8491 -512.3882 55872.7969 -1.0181 -1.1863
TCL: Exiting due to exit command.
