Info: SIMULATION PARAMETERS:
Info: TIMESTEP               1
Info: NUMBER OF STEPS        0
Info: STEPS PER CYCLE        10
Info: PERIODIC CELL BASIS 1  30 0 0
Info: PERIODIC CELL BASIS 2  0 30 0
Info: PERIODIC CELL BASIS 3  0 0 30
Info: PERIODIC CELL CENTER   0 0 0
Info: WRAPPING ALL CLUSTERS AROUND PERIODIC BOUNDARIES ON OUTPUT.
Info: FIRST LDB TIMESTEP     50
Info: LAST LDB TIMESTEP     -1
Info: HOM BACKGROUND SCALING 1
Info: MIN ATOMS PER PATCH    40
Info: EMPTY PATCH LOAD       40 ATOMS
Info: INITIAL TEMPERATURE    298
Info: CENTER OF MASS MOVING INITIALLY? NO
Info: DIELECTRIC             1
Info: EXCLUDE                SCALED ONE-FOUR
Info: 1-4 ELECTROSTATICS SCALED BY 1
Info: MODIFIED 1-4 VDW PARAMETERS WILL BE USED
Info: DCD FILENAME           output.dcd
Info: DCD FREQUENCY          50
Info: DCD FIRST STEP         50
Info: DCD FILE WILL CONTAIN UNIT CELL DATA
Info: NO EXTENDED SYSTEM TRAJECTORY OUTPUT
Info: NO VELOCITY DCD OUTPUT
Info: NO FORCE DCD OUTPUT
Info: OUTPUT FILENAME        output
Info: BINARY OUTPUT FILES WILL BE USED
Info: NO RESTART FILE
Info: SWITCHING ACTIVE
Info: SWITCHING ON           10
Info: SWITCHING OFF          12
Info: PAIRLIST DISTANCE      14
Info: PAIRLIST SHRINK RATE   0.01
Info: PAIRLIST GROW RATE     0.01
Info: PAIRLIST TRIGGER       0.3
Info: PAIRLISTS PER CYCLE    2
Info: PAIRLISTS ENABLED
Info: MARGIN                 0
Info: HYDROGEN GROUP CUTOFF  2.5
Info: PATCH DIMENSION        16.5
Info: ENERGY OUTPUT STEPS    50
Info: ENERGY EVALUATION STEPS    50
Info: OUTPUT ENERGY PRECISION 4
Info: CROSSTERM ENERGY INCLUDED IN DIHEDRAL
Info: TIMING OUTPUT STEPS    50
Info: LANGEVIN DYNAMICS ACTIVE
Info: LANGEVIN TEMPERATURE   298
Info: LANGEVIN USING BBK INTEGRATOR
Info: LANGEVIN DAMPING COEFFICIENT IS 4 INVERSE PS
Info: LANGEVIN DYNAMICS NOT APPLIED TO HYDROGENS
Info: MULTILEVEL SUMMATION METHOD (MSM) FOR ELECTROSTATICS ACTIVE
Info: MSM WITH C1 CUBIC INTERPOLATION AND C2 TAYLOR SPLITTING
Info: FULL ELECTROSTATIC EVALUATION FREQUENCY      1
Info: USING VERLET I (r-RESPA) MTS SCHEME.
Info: C1 SPLITTING OF LONG RANGE ELECTROSTATICS
Info: PLACING ATOMS IN PATCHES BY HYDROGEN GROUPS
Info: RIGID BONDS TO HYDROGEN : ALL
Info:         ERROR TOLERANCE : 1e-08
Info:          MAX ITERATIONS : 100
Info: RIGID WATER USING SETTLE ALGORITHM
Info: RANDOM NUMBER SEED     1740236738
Info: USE HYDROGEN BONDS?    NO
Info: COORDINATE PDB         ionized.pdb
Info: STRUCTURE FILE         ionized.psf
Info: PARAMETER file: CHARMM format!
Info: PARAMETERS             par_all27_prot_lipid.inp
Info: USING ARITHMETIC MEAN TO COMBINE L-J SIGMA PARAMETERS
Info: SUMMARY OF PARAMETERS:
Info: 180 BONDS
Info: 447 ANGLES
Info: 566 DIHEDRAL
Info: 46 IMPROPER
Info: 6 CROSSTERM
Info: 119 VDW
Info: 0 VDW_PAIRS
Info: 0 NBTHOLE_PAIRS
Info: STRUCTURE SUMMARY:
Info: 2476 ATOMS
Info: 1650 BONDS
Info: 825 ANGLES
Info: 0 DIHEDRALS
Info: 0 IMPROPERS
Info: 0 CROSSTERMS
Info: 0 EXCLUSIONS
Info: 2475 RIGID BONDS
Info: 4953 DEGREES OF FREEDOM
Info: 826 HYDROGEN GROUPS
Info: 3 ATOMS IN LARGEST HYDROGEN GROUP
Info: 826 MIGRATION GROUPS
Info: 3 ATOMS IN LARGEST MIGRATION GROUP
Info: TOTAL MASS = 14885.7 amu
Info: TOTAL CHARGE = 1 e
Info: MASS DENSITY = 0.915513 g/cm^3
Info: ATOM DENSITY = 0.0917037 atoms/A^3
Info: ADDED 2475 IMPLICIT EXCLUSIONS
Info: NONBONDED TABLE R-SQUARED SPACING: 0.0625
Info: NONBONDED TABLE SIZE: 769 POINTS
Info: REMOVING COM VELOCITY 0.203968 -0.0238694 -0.0780195
Info: MSM using C1 cubic interpolation
Info: MSM using C2 Taylor splitting function
Info: MSM block size decomposition along X is 8 grid points
Info: MSM block size decomposition along Y is 8 grid points
Info: MSM block size decomposition along Z is 8 grid points
Info: MSM grid spacing along X is 2.5 A
Info: MSM grid spacing along Y is 2.5 A
Info: MSM grid spacing along Z is 2.5 A
Info: MSM using 3 levels
Info:     level 0:  [0..11] x [0..11] x [0..11]
Info:     level 1:  [0..5] x [0..5] x [0..5]
Info:     level 2:  [0..2] x [0..2] x [0..2]
Info: MSM finished calculating stencils
Info: MSM finished creating map for grid levels
Info: MSM finished creating map for patches
Info: MSM has 9 interpolation / anterpolation objects (one per patch)
Info: MSM grid level 0 decomposed into 8 blocks ( 2 x 2 x 2 )
Info: MSM grid level 1 decomposed into 1 block ( 1 x 1 x 1 )
Info: MSM grid level 2 decomposed into 1 block ( 1 x 1 x 1 )
Info: MSM grid cutoff calculation decomposed into 783 work objects
TCL: Minimizing for 100 steps
ETITLE: TS BOND ANGLE DIHED IMPRP ELECT VDW BOUNDARY MISC KINETIC TOTAL TEMP POTENTIAL TOTAL3 TEMPAVG PRESSURE GPRESSURE VOLUME PRESSAVG GPRESSAVG
ENERGY: 0 0.0000 0.0000 0.0000 0.0000 -7348.6497 6353.7252 0.0000 0.0000 0.0000 -994.9245 0.0000 -994.9245 -994.9245 0.0000 75204.0846 46356.0498 27000.0000 75204.0846 46356.0498
ENERGY: 20 0.0000 0.0000 0.0000 0.0000 -8744.5976 644.7588 0.0000 0.0000 0.0000 -8099.8388 0.0000 -8099.8388 -8099.8388 0.0000 14286.6723 -2608.4245 27000.0000 14286.6723 -2608.4245
ENERGY: 40 0.0000 0.0000 0.0000 0.0000 -9255.3678 673.7887 0.0000 0.0000 0.0000 -8581.5790 0.0000 -8581.5790 -8581.5790 0.0000 14306.7123 -3612.4723 27000.0000 14306.7123 -3612.4723
ENERGY: 60 0.0000 0.0000 0.0000 0.0000 -9570.7005 738.1055 0.0000 0.0000 0.0000 -8832.5951 0.0000 -8832.5951 -8832.5951 0.0000 14889.9946 -3661.0806 27000.0000 14889.9946 -3661.0806
ENERGY: 80 0.0000 0.0000 0.0000 0.0000 -9709.9008 782.3654 0.0000 0.0000 0.0000 -8927.5354 0.0000 -8927.5354 -8927.5354 0.0000 15330.7101 -3519.6603 27000.0000 15330.7101 -3519.6603
ENERGY: 100 0.0000 0.0000 0.0000 0.0000 -9872.7763 825.2767 0.0000 0.0000 0.0000 -9047.4996 0.0000 -9047.4996 -9047.4996 0.0000 15763.5987 15684.9520 27000.0000 15763.5987 15684.9520
TCL: Running for 10000 steps
ETITLE: TS BOND ANGLE DIHED IMPRP ELECT VDW BOUNDARY MISC KINETIC TOTAL TEMP POTENTIAL TOTAL3 TEMPAVG PRESSURE GPRESSURE VOLUME PRESSAVG GPRESSAVG
ENERGY: 100 0.0000 0.0000 0.0000 0.0000 -9872.7764 825.2767 0.0000 0.0000 1457.3664 -7590.1333 296.1357 -9047.4996 -7590.3686 296.1357 -4756.5635 -4756.5635 27000.0000 -4756.5635 -4756.5635
ENERGY: 2100 0.0000 0.0000 0.0000 0.0000 -9013.7282 901.0371 0.0000 0.0000 1369.5955 -6743.0956 278.3008 -8112.6911 -6744.6720 279.5828 -1072.6240 -1070.7670 27000.0000 -874.9921 -875.0675
ENERGY: 4100 0.0000 0.0000 0.0000 0.0000 -8971.7595 854.8432 0.0000 0.0000 1448.3658 -6668.5504 294.3068 -8116.9163 -6666.6467 290.0310 -1681.9706 -1659.6444 27000.0000 -1693.8899 -1695.1469
ENERGY: 6100 0.0000 0.0000 0.0000 0.0000 -8803.2684 800.4841 0.0000 0.0000 1510.7396 -6492.0447 306.9811 -8002.7843 -6490.3281 301.1796 -1524.4669 -1523.7040 27000.0000 -1467.8611 -1463.7806
ENERGY: 8100 0.0000 0.0000 0.0000 0.0000 -8719.7352 803.3561 0.0000 0.0000 1434.5115 -6481.8677 291.4916 -7916.3791 -6482.3175 291.6208 -1645.7914 -1664.3571 27000.0000 -1996.9711 -1994.2511
ENERGY: 10100 0.0000 0.0000 0.0000 0.0000 -8645.9626 767.7639 0.0000 0.0000 1448.7908 -6429.4079 294.3932 -7878.1987 -6427.6121 297.6860 -1648.9774 -1641.4004 27000.0000 -1714.4860 -1715.1951
