Info: SIMULATION PARAMETERS:
Info: TIMESTEP               2
Info: NUMBER OF STEPS        0
Info: STEPS PER CYCLE        10
Info: PERIODIC CELL BASIS 1  30.6997 0 0
Info: PERIODIC CELL BASIS 2  0 31.3955 0
Info: PERIODIC CELL BASIS 3  0 0 31.1647
Info: PERIODIC CELL CENTER   0 0 0
Info: WRAPPING WATERS AROUND PERIODIC BOUNDARIES ON OUTPUT.
Info: WRAPPING ALL CLUSTERS AROUND PERIODIC BOUNDARIES ON OUTPUT.
Info: FIRST LDB TIMESTEP     50
Info: LAST LDB TIMESTEP     -1
Info: HOM BACKGROUND SCALING 1
Info: PME BACKGROUND SCALING 1
Info: MIN ATOMS PER PATCH    40
Info: EMPTY PATCH LOAD       40 ATOMS
Info: VELOCITY FILE          mobley_7532833_equil.vel
Info: CENTER OF MASS MOVING INITIALLY? NO
Info: DIELECTRIC             1
Info: EXCLUDE                SCALED ONE-FOUR
Info: 1-4 ELECTROSTATICS SCALED BY 0.833333
Info: MODIFIED 1-4 VDW PARAMETERS WILL BE USED
Info: DCD FILENAME           mobley_7532833_prod.dcd
Info: DCD FREQUENCY          100000
Info: DCD FIRST STEP         100000
Info: DCD FILE WILL CONTAIN UNIT CELL DATA
Info: XST FILENAME           mobley_7532833_prod.xst
Info: XST FREQUENCY          100000
Info: NO VELOCITY DCD OUTPUT
Info: NO FORCE DCD OUTPUT
Info: OUTPUT FILENAME        mobley_7532833_prod
Info: BINARY OUTPUT FILES WILL BE USED
Info: RESTART FILENAME       mobley_7532833_prod.restart
Info: RESTART FREQUENCY      100000
Info: BINARY RESTART FILES WILL BE USED
Info: CUTOFF                 9
Info: PAIRLIST DISTANCE      11
Info: PAIRLIST SHRINK RATE   0.01
Info: PAIRLIST GROW RATE     0.01
Info: PAIRLIST TRIGGER       0.3
Info: PAIRLISTS PER CYCLE    2
Info: PAIRLISTS ENABLED
Info: MARGIN                 2
Info: HYDROGEN GROUP CUTOFF  2.5
Info: PATCH DIMENSION        15.5
Info: ENERGY OUTPUT STEPS    100000
Info: ENERGY EVALUATION STEPS    100000
Info: OUTPUT ENERGY PRECISION 4
Info: CROSSTERM ENERGY INCLUDED IN DIHEDRAL
Info: TIMING OUTPUT STEPS    1000000
Info: PRESSURE OUTPUT STEPS  100000
Info: ALCHEMICAL FEP ON
Info: FEP CURRENT LAMBDA VALUE     0
Info: FEP COMPARISON LAMBDA VALUE  0.05
Info: FEP INTRA-ALCHEMICAL NON-BONDED INTERACTIONS WILL BE RETAINED
Info: FEP INTRA-ALCHEMICAL BONDED INTERACTIONS WILL BE RETAINED
Info: FEP VDW SHIFTING COEFFICIENT 5
Info: FEP ELEC. ACTIVE FOR ANNIHILATED PARTICLES BETWEEN LAMBDA = 0 AND LAMBDA = 0.5
Info: FEP ELEC. ACTIVE FOR EXNIHILATED PARTICLES BETWEEN LAMBDA = 0.5 AND LAMBDA = 1
Info: FEP VDW ACTIVE FOR ANNIHILATED PARTICLES BETWEEN LAMBDA = 0 AND LAMBDA = 1
Info: FEP VDW ACTIVE FOR EXNIHILATED PARTICLES BETWEEN LAMBDA = 0 AND LAMBDA = 1
Info: FEP BOND ACTIVE FOR ANNIHILATED PARTICLES BETWEEN LAMBDA = 1 AND LAMBDA = 1
Info: FEP BOND ACTIVE FOR EXNIHILATED PARTICLES BETWEEN LAMBDA = 0 AND LAMBDA = 0
Info: LANGEVIN DYNAMICS ACTIVE
Info: LANGEVIN TEMPERATURE   300
Info: LANGEVIN USING BBK INTEGRATOR
Info: LANGEVIN DAMPING COEFFICIENT IS 1 INVERSE PS
Info: LANGEVIN DYNAMICS APPLIED TO HYDROGENS
Info: LANGEVIN PISTON PRESSURE CONTROL ACTIVE
Info:        TARGET PRESSURE IS 1.01325 BAR
Info:     OSCILLATION PERIOD IS 50 FS
Info:             DECAY TIME IS 25 FS
Info:     PISTON TEMPERATURE IS 300 K
Info:       PRESSURE CONTROL IS GROUP-BASED
Info:    INITIAL STRAIN RATE IS -0.000230316 -0.000230316 -0.000230316
Info:       CELL FLUCTUATION IS ISOTROPIC
Info: PARTICLE MESH EWALD (PME) ACTIVE
Info: PME TOLERANCE               1e-06
Info: PME EWALD COEFFICIENT       0.348832
Info: PME INTERPOLATION ORDER     4
Info: PME GRID DIMENSIONS         32 32 32
Info: PME MAXIMUM GRID SPACING    1
Info: PME CALCULATION WILL BE PERFORMED ON GPU
Info: FULL ELECTROSTATIC EVALUATION FREQUENCY      2
Info: USING VERLET I (r-RESPA) MTS SCHEME.
Info: C1 SPLITTING OF LONG RANGE ELECTROSTATICS
Info: PLACING ATOMS IN PATCHES BY HYDROGEN GROUPS
Info: RIGID BONDS TO HYDROGEN : ALL
Info:         ERROR TOLERANCE : 1e-08
Info:          MAX ITERATIONS : 100
Info: RIGID WATER USING SETTLE ALGORITHM
Info: RANDOM NUMBER SEED     1742471896
Info: USE HYDROGEN BONDS?    NO
Info: Using AMBER format force field!
Info: AMBER PARM FILE        mobley_7532833.prmtop
Info: COORDINATE PDB         mobley_7532833.pdb
Info: Exclusions will be read from PARM file!
Info: SCNB (VDW SCALING)     2
Info: USING ARITHMETIC MEAN TO COMBINE L-J SIGMA PARAMETERS
Info: BINARY COORDINATES     mobley_7532833_equil.coor
Info: SUMMARY OF PARAMETERS:
Info: 5 BONDS
Info: 3 ANGLES
Info:   3 HARMONIC
Info:   0 COSINE-BASED
Info: 1 DIHEDRAL
Info: 0 IMPROPER
Info: 0 CROSSTERM
Info: 0 VDW
Info: 21 VDW_PAIRS
Info: 0 NBTHOLE_PAIRS
Info: To read alchdata from file: mobley_7532833.pdb
Info: To read alchflag data from column: 5
Info: STRUCTURE SUMMARY:
Info: 2946 ATOMS
Info: 2945 BONDS
Info: 7 ANGLES
Info: 3 DIHEDRALS
Info: 0 IMPROPERS
Info: 0 CROSSTERMS
Info: 2955 EXCLUSIONS
Info: 2943 RIGID BONDS
Info: ALCH: 0 ATOMS TO DISAPPEAR IN FINAL STATE
Info: ALCH: 6 ATOMS TO APPEAR IN FINAL STATE
Info: 5895 DEGREES OF FREEDOM
Info: 983 HYDROGEN GROUPS
Info: 4 ATOMS IN LARGEST HYDROGEN GROUP
Info: 983 MIGRATION GROUPS
Info: 4 ATOMS IN LARGEST MIGRATION GROUP
Info: TOTAL MASS = 17696.7 amu
Info: TOTAL CHARGE = 0.000100002 e
Info: MASS DENSITY = 0.978337 g/cm^3
Info: ATOM DENSITY = 0.0980773 atoms/A^3
Info: ADDED 0 IMPLICIT EXCLUSIONS
Info: NONBONDED TABLE R-SQUARED SPACING: 0.0625
Info: NONBONDED TABLE SIZE: 705 POINTS
Info: REMOVING COM VELOCITY -0.0582516 -0.00199017 -0.0792612
Info: Use 3D box decompostion in PME FFT.
Info: Updated CUDA force table with 4096 elements.
Info: Updated CUDA LJ table with 6 x 6 elements.
Info: Found 8 unique exclusion lists needing 8 bytes
TCL: Running for 1500000 steps
ETITLE: TS BOND ANGLE DIHED IMPRP ELECT VDW BOUNDARY MISC KINETIC TOTAL TEMP POTENTIAL TOTALAVG TEMPAVG PRESSURE GPRESSURE VOLUME PRESSAVG GPRESSAVG
ENERGY: 0 0.0033 0.3265 0.0000 0.0000 -10682.3257 1443.5324 0.0000 0.0000 1817.4833 -7420.9803 310.2966 -9238.4636 -7420.9803 310.2966 146.1939 234.7423 30037.5208 146.1939 234.7423
ENERGY: 300000 0.0086 2.5186 0.0000 0.0000 -10609.1519 1394.4389 0.0000 0.0000 1741.7545 -7470.4312 297.3675 -9212.1857 -7468.6695 302.0930 -63.8119 -62.3928 30192.5162 -17.2583 28.4010
ENERGY: 600000 0.9515 5.1039 0.0000 0.0000 -10796.5807 1459.8105 0.0000 0.0000 1745.3918 -7585.3230 297.9885 -9330.7148 -7486.9042 300.9248 -113.2589 -10.3552 30295.3099 -85.0771 -16.9277
ENERGY: 900000 0.1205 2.4176 0.0000 0.0000 -10714.4495 1372.7616 0.0000 0.0000 1775.5647 -7563.5852 303.1399 -9339.1499 -7496.4343 300.5450 -862.1891 -756.8170 30429.3346 -126.9855 -49.3758
ENERGY: 1200000 0.3913 1.7197 0.0000 0.0000 -10811.6014 1472.4954 0.0000 0.0000 1745.5636 -7591.4314 298.0178 -9336.9950 -7504.7029 299.6838 41.7139 65.8204 30205.1320 -145.8332 -77.4181
ENERGY: 1500000 0.4948 5.5773 0.0000 0.0000 -10772.8071 1483.6971 0.0000 0.0000 1712.4113 -7570.6266 292.3578 -9283.0379 -7517.3570 298.8378 536.5082 533.9243 29968.4627 -46.5338 17.8550
TCL: Running FEP window   2: Lambda1 0.05   Lambda2 0.1    [dLambda 0.05  ]
TCL: Setting parameter firsttimestep to 0
TCL: Setting parameter alchLambda to 0.05
Info: NONBONDED TABLE R-SQUARED SPACING: 0.0625
Info: NONBONDED TABLE SIZE: 705 POINTS
TCL: Setting parameter alchLambda2 to 0.1
Info: NONBONDED TABLE R-SQUARED SPACING: 0.0625
Info: NONBONDED TABLE SIZE: 705 POINTS
TCL: Running for 1500000 steps
ETITLE: TS BOND ANGLE DIHED IMPRP ELECT VDW BOUNDARY MISC KINETIC TOTAL TEMP POTENTIAL TOTALAVG TEMPAVG PRESSURE GPRESSURE VOLUME PRESSAVG GPRESSAVG
ENERGY: 0 0.4948 5.5773 0.0000 0.0000 -10772.8082 1483.8974 0.0000 0.0000 1711.5018 -7571.3368 292.2025 -9282.8387 -7571.3368 292.2025 449.3645 535.8847 29968.4627 449.3645 535.8847
ENERGY: 300000 0.4934 1.3296 0.0000 0.0000 -10773.3850 1468.8489 0.0000 0.0000 1724.2189 -7578.4941 294.3737 -9302.7130 -7552.4551 297.3392 41.5848 137.1067 30133.3391 254.5333 322.7432
ENERGY: 600000 0.3182 5.1615 0.0000 0.0000 -10818.1613 1501.5718 0.0000 0.0000 1770.9622 -7540.1475 302.3541 -9311.1097 -7544.4558 296.6374 537.8480 494.0631 30131.9709 114.7819 157.0772
ENERGY: 900000 1.2204 2.2455 0.0000 0.0000 -10738.4675 1478.5821 0.0000 0.0000 1769.3871 -7487.0325 302.0852 -9256.4196 -7525.4821 297.7306 388.9741 420.3639 30366.3601 117.0727 163.0867
ENERGY: 1200000 1.3434 1.3353 0.0000 0.0000 -10686.9810 1402.2677 0.0000 0.0000 1767.5411 -7514.4936 301.7700 -9282.0347 -7536.6149 298.1811 -374.8415 -312.1566 30286.6149 84.0462 132.3217
ENERGY: 1500000 0.4485 3.9650 0.0000 0.0000 -10797.3272 1483.5894 0.0000 0.0000 1751.1544 -7558.1698 298.9723 -9309.3243 -7532.9444 298.7203 239.8474 276.5131 30163.4841 37.1647 84.4405
TCL: Running FEP window   3: Lambda1 0.1    Lambda2 0.15000000000000002 [dLambda 0.05000000000000002]
TCL: Setting parameter firsttimestep to 0
TCL: Setting parameter alchLambda to 0.1
Info: NONBONDED TABLE R-SQUARED SPACING: 0.0625
Info: NONBONDED TABLE SIZE: 705 POINTS
TCL: Setting parameter alchLambda2 to 0.15000000000000002
Info: NONBONDED TABLE R-SQUARED SPACING: 0.0625
Info: NONBONDED TABLE SIZE: 705 POINTS
TCL: Running for 1500000 steps
ETITLE: TS BOND ANGLE DIHED IMPRP ELECT VDW BOUNDARY MISC KINETIC TOTAL TEMP POTENTIAL TOTALAVG TEMPAVG PRESSURE GPRESSURE VOLUME PRESSAVG GPRESSAVG
ENERGY: 0 0.4485 3.9650 0.0000 0.0000 -10797.3250 1486.3027 0.0000 0.0000 1750.3014 -7556.3075 298.8267 -9306.6088 -7556.3075 298.8267 204.4135 285.2992 30163.4841 204.4135 285.2992
ENERGY: 300000 3.6489 1.9569 0.0000 0.0000 -10722.1398 1415.3321 0.0000 0.0000 1731.8875 -7569.3145 295.6829 -9301.2019 -7548.8341 294.5200 -529.6238 -442.3512 30617.8542 -235.6172 -163.6867
ENERGY: 600000 2.5029 0.4903 0.0000 0.0000 -10707.9438 1412.2645 0.0000 0.0000 1690.0998 -7602.5863 288.5486 -9292.6860 -7526.2395 295.8884 -315.1347 -201.8707 30125.2330 -189.5189 -121.1110
ENERGY: 900000 2.0029 1.8446 0.0000 0.0000 -10675.7588 1429.1602 0.0000 0.0000 1704.3658 -7538.3853 290.9842 -9242.7511 -7530.6205 296.0263 5.8481 42.4884 30220.5418 -57.0742 7.5989
ENERGY: 1200000 1.3698 0.9591 0.0000 0.0000 -10809.7660 1485.0810 0.0000 0.0000 1821.4696 -7500.8865 310.9772 -9322.3561 -7522.9808 298.1022 187.0975 235.4536 30593.0291 -17.7205 49.6819
ENERGY: 1500000 0.4605 1.1228 0.0000 0.0000 -10635.1565 1384.1684 0.0000 0.0000 1802.4851 -7446.9197 307.7360 -9249.4048 -7519.2069 299.0194 -490.3685 -468.2496 30676.6184 -46.6813 12.6298
TCL: Running FEP window   4: Lambda1 0.15000000000000002 Lambda2 0.2    [dLambda 0.04999999999999999]
TCL: Setting parameter firsttimestep to 0
TCL: Setting parameter alchLambda to 0.15000000000000002
Info: NONBONDED TABLE R-SQUARED SPACING: 0.0625
Info: NONBONDED TABLE SIZE: 705 POINTS
TCL: Setting parameter alchLambda2 to 0.2
Info: NONBONDED TABLE R-SQUARED SPACING: 0.0625
Info: NONBONDED TABLE SIZE: 705 POINTS
TCL: Running for 1500000 steps
ETITLE: TS BOND ANGLE DIHED IMPRP ELECT VDW BOUNDARY MISC KINETIC TOTAL TEMP POTENTIAL TOTALAVG TEMPAVG PRESSURE GPRESSURE VOLUME PRESSAVG GPRESSAVG
ENERGY: 0 0.4605 1.1228 0.0000 0.0000 -10635.1570 1384.4443 0.0000 0.0000 1801.5657 -7447.5638 307.5790 -9249.1295 -7447.5638 307.5790 -548.2808 -465.9766 30676.6184 -548.2808 -465.9766
ENERGY: 300000 0.1618 2.9363 0.0000 0.0000 -10862.8094 1521.8952 0.0000 0.0000 1744.3135 -7593.5027 297.8044 -9337.8161 -7550.6994 301.5552 752.1583 846.0226 29552.9013 25.7533 110.1076
ENERGY: 600000 2.2514 1.9583 0.0000 0.0000 -10760.8501 1462.9415 0.0000 0.0000 1748.4295 -7545.2693 298.5071 -9293.6988 -7519.5235 300.9182 260.6469 336.5492 29916.6622 206.3273 290.6955
ENERGY: 900000 2.7977 0.8096 0.0000 0.0000 -10854.4712 1489.2861 0.0000 0.0000 1700.6087 -7660.9691 290.3427 -9361.5778 -7528.7886 298.7232 -31.4094 59.6998 30268.6187 122.4633 208.2024
ENERGY: 1200000 0.5872 1.1418 0.0000 0.0000 -10954.7503 1605.5388 0.0000 0.0000 1757.7329 -7589.7495 300.0955 -9347.4824 -7524.8983 298.8654 1246.5759 1331.3151 29777.6515 83.6002 165.7834
ENERGY: 1500000 0.5291 3.0705 0.0000 0.0000 -10619.8374 1364.0240 0.0000 0.0000 1728.6194 -7523.5945 295.1250 -9252.2139 -7515.6619 299.2193 -756.6845 -687.5990 30668.8533 -41.2928 30.7484
TCL: Running FEP window   5: Lambda1 0.2    Lambda2 0.25   [dLambda 0.04999999999999999]
TCL: Setting parameter firsttimestep to 0
TCL: Setting parameter alchLambda to 0.2
Info: NONBONDED TABLE R-SQUARED SPACING: 0.0625
Info: NONBONDED TABLE SIZE: 705 POINTS
TCL: Setting parameter alchLambda2 to 0.25
Info: NONBONDED TABLE R-SQUARED SPACING: 0.0625
Info: NONBONDED TABLE SIZE: 705 POINTS
TCL: Running for 1500000 steps
ETITLE: TS BOND ANGLE DIHED IMPRP ELECT VDW BOUNDARY MISC KINETIC TOTAL TEMP POTENTIAL TOTALAVG TEMPAVG PRESSURE GPRESSURE VOLUME PRESSAVG GPRESSAVG
ENERGY: 0 0.5291 3.0705 0.0000 0.0000 -10619.8376 1364.4578 0.0000 0.0000 1727.7596 -7524.0207 294.9782 -9251.7802 -7524.0207 294.9782 -761.2435 -685.4820 30668.8533 -761.2435 -685.4820
ENERGY: 300000 1.0036 2.2288 0.0000 0.0000 -10773.4549 1496.8782 0.0000 0.0000 1692.0950 -7581.2493 288.8892 -9273.3443 -7530.1895 296.3017 473.0590 545.7743 29893.4549 -250.4839 -188.6093
ENERGY: 600000 0.3512 1.6513 0.0000 0.0000 -10491.9611 1271.5187 0.0000 0.0000 1772.4278 -7446.0121 302.6043 -9218.4399 -7528.1597 298.7915 -1372.5659 -1282.5070 30646.5494 -301.6584 -251.1250
ENERGY: 900000 0.6141 0.9532 0.0000 0.0000 -10688.0907 1421.6891 0.0000 0.0000 1730.8175 -7534.0168 295.5002 -9264.8343 -7521.5727 299.1127 -201.9023 -157.1503 30168.2019 -272.8925 -235.0827
ENERGY: 1200000 1.0594 1.6280 0.0000 0.0000 -10731.7063 1432.9986 0.0000 0.0000 1712.9788 -7583.0415 292.4547 -9296.0203 -7523.8658 299.6707 11.9226 99.8916 29816.4721 -115.9637 -72.1112
ENERGY: 1500000 0.2869 1.3487 0.0000 0.0000 -10668.6552 1391.4461 0.0000 0.0000 1764.7247 -7510.8488 301.2892 -9275.5735 -7522.9969 300.3993 -471.4085 -356.3732 30220.6491 -168.2443 -124.8219
TCL: Running FEP window   6: Lambda1 0.25   Lambda2 0.3    [dLambda 0.04999999999999999]
TCL: Setting parameter firsttimestep to 0
TCL: Setting parameter alchLambda to 0.25
Info: NONBONDED TABLE R-SQUARED SPACING: 0.0625
Info: NONBONDED TABLE SIZE: 705 POINTS
TCL: Setting parameter alchLambda2 to 0.3
Info: NONBONDED TABLE R-SQUARED SPACING: 0.0625
Info: NONBONDED TABLE SIZE: 705 POINTS
TCL: Running for 1500000 steps
ETITLE: TS BOND ANGLE DIHED IMPRP ELECT VDW BOUNDARY MISC KINETIC TOTAL TEMP POTENTIAL TOTALAVG TEMPAVG PRESSURE GPRESSURE VOLUME PRESSAVG GPRESSAVG
ENERGY: 0 0.2869 1.3487 0.0000 0.0000 -10668.6554 1392.4823 0.0000 0.0000 1763.8780 -7510.6596 301.1446 -9274.5376 -7510.6596 301.1446 -444.5749 -350.1858 30220.6491 -444.5749 -350.1858
ENERGY: 300000 0.0078 3.4995 0.0000 0.0000 -10717.2310 1442.8971 0.0000 0.0000 1813.0783 -7457.7483 309.5445 -9270.8266 -7560.8921 301.6275 -129.8531 -11.1741 30385.7592 -323.1858 -245.2479
ENERGY: 600000 0.8456 1.6722 0.0000 0.0000 -10625.3102 1369.8702 0.0000 0.0000 1760.9216 -7492.0006 300.6399 -9252.9222 -7532.5345 300.0794 -499.8500 -400.2051 30282.4023 -320.5417 -241.1090
ENERGY: 900000 1.6988 1.7296 0.0000 0.0000 -10782.6886 1481.0663 0.0000 0.0000 1750.7372 -7547.4567 298.9011 -9298.1938 -7544.2999 298.8514 449.9973 542.2524 29967.2849 -140.3671 -66.1540
ENERGY: 1200000 1.3147 0.8455 0.0000 0.0000 -10828.6604 1506.2587 0.0000 0.0000 1771.5378 -7548.7038 302.4524 -9320.2416 -7537.9701 299.9143 615.6240 623.4025 29860.1564 -52.5065 18.8614
ENERGY: 1500000 0.7218 1.9871 0.0000 0.0000 -10684.4474 1357.4300 0.0000 0.0000 1753.0277 -7571.2807 299.2922 -9324.3084 -7542.9498 298.8784 -793.6161 -716.5907 30134.5144 -101.9220 -31.5744
TCL: Running FEP window   7: Lambda1 0.3    Lambda2 0.35   [dLambda 0.04999999999999999]
TCL: Setting parameter firsttimestep to 0
TCL: Setting parameter alchLambda to 0.3
Info: NONBONDED TABLE R-SQUARED SPACING: 0.0625
Info: NONBONDED TABLE SIZE: 705 POINTS
TCL: Setting parameter alchLambda2 to 0.35
Info: NONBONDED TABLE R-SQUARED SPACING: 0.0625
Info: NONBONDED TABLE SIZE: 705 POINTS
TCL: Running for 1500000 steps
ETITLE: TS BOND ANGLE DIHED IMPRP ELECT VDW BOUNDARY MISC KINETIC TOTAL TEMP POTENTIAL TOTALAVG TEMPAVG PRESSURE GPRESSURE VOLUME PRESSAVG GPRESSAVG
ENERGY: 0 0.7218 1.9871 0.0000 0.0000 -10684.4487 1357.1644 0.0000 0.0000 1752.1737 -7572.4016 299.1464 -9324.5753 -7572.4016 299.1464 -794.0700 -712.8377 30134.5144 -794.0700 -712.8377
ENERGY: 300000 0.1020 1.7048 0.0000 0.0000 -10648.5485 1403.1151 0.0000 0.0000 1656.8492 -7586.7773 282.8717 -9243.6265 -7587.6175 293.7156 -565.2608 -482.6960 30714.6761 -244.5541 -164.1195
ENERGY: 600000 0.7898 0.9714 0.0000 0.0000 -10841.6198 1502.7249 0.0000 0.0000 1768.3878 -7568.7459 301.9146 -9337.1337 -7545.8750 297.1628 186.8676 310.9928 30051.0485 -215.7127 -130.3889
ENERGY: 900000 1.0713 3.3029 0.0000 0.0000 -10548.4106 1357.4173 0.0000 0.0000 1760.4265 -7426.1927 300.5554 -9186.6192 -7530.6114 298.1486 -477.6149 -448.8472 30562.1053 -251.1805 -185.1852
ENERGY: 1200000 0.2380 0.4271 0.0000 0.0000 -10684.4841 1413.2452 0.0000 0.0000 1744.6613 -7525.9125 297.8638 -9270.5737 -7522.6835 298.7218 -182.5757 -110.6962 30214.5583 -257.4040 -191.9035
ENERGY: 1500000 0.8123 1.3992 0.0000 0.0000 -10822.2103 1488.0970 0.0000 0.0000 1789.7264 -7542.1754 305.5577 -9331.9018 -7517.0129 299.6976 444.1742 475.7686 29885.6685 -157.7374 -94.9938
TCL: Running FEP window   8: Lambda1 0.35   Lambda2 0.39999999999999997 [dLambda 0.04999999999999999]
TCL: Setting parameter firsttimestep to 0
TCL: Setting parameter alchLambda to 0.35
Info: NONBONDED TABLE R-SQUARED SPACING: 0.0625
Info: NONBONDED TABLE SIZE: 705 POINTS
TCL: Setting parameter alchLambda2 to 0.39999999999999997
Info: NONBONDED TABLE R-SQUARED SPACING: 0.0625
Info: NONBONDED TABLE SIZE: 705 POINTS
TCL: Running for 1500000 steps
ETITLE: TS BOND ANGLE DIHED IMPRP ELECT VDW BOUNDARY MISC KINETIC TOTAL TEMP POTENTIAL TOTALAVG TEMPAVG PRESSURE GPRESSURE VOLUME PRESSAVG GPRESSAVG
ENERGY: 0 0.8123 1.3992 0.0000 0.0000 -10822.2119 1487.8860 0.0000 0.0000 1788.8940 -7543.2204 305.4156 -9332.1144 -7543.2204 305.4156 383.7822 475.1887 29885.6685 383.7822 475.1887
ENERGY: 300000 0.9409 1.6953 0.0000 0.0000 -10722.9437 1393.1202 0.0000 0.0000 1752.5560 -7574.6313 299.2116 -9327.1873 -7547.8455 299.3930 -571.7923 -494.6446 30278.8242 -6.3255 87.1504
ENERGY: 600000 0.5893 3.4071 0.0000 0.0000 -10616.3964 1372.6473 0.0000 0.0000 1762.2364 -7477.5163 300.8644 -9239.7527 -7508.8420 300.8086 -582.2254 -506.1541 30509.4150 71.9627 150.5237
ENERGY: 900000 0.5787 1.0444 0.0000 0.0000 -10660.3131 1412.6665 0.0000 0.0000 1745.3880 -7500.6355 297.9879 -9246.0235 -7509.9652 300.1788 -0.1301 34.1121 30229.0640 76.7224 148.5733
ENERGY: 1200000 0.4987 2.3671 0.0000 0.0000 -10725.7402 1448.4408 0.0000 0.0000 1707.4441 -7566.9896 291.5097 -9274.4336 -7525.4311 298.2298 -113.1021 -20.8572 30373.8798 82.2984 149.9148
ENERGY: 1500000 0.6256 0.8501 0.0000 0.0000 -10802.8553 1474.3598 0.0000 0.0000 1798.9915 -7528.0283 307.1395 -9327.0197 -7528.4364 299.3307 479.8717 467.4119 29610.6235 70.1855 128.4469
TCL: Running FEP window   9: Lambda1 0.39999999999999997 Lambda2 0.44999999999999996 [dLambda 0.04999999999999999]
TCL: Setting parameter firsttimestep to 0
TCL: Setting parameter alchLambda to 0.39999999999999997
Info: NONBONDED TABLE R-SQUARED SPACING: 0.0625
Info: NONBONDED TABLE SIZE: 705 POINTS
TCL: Setting parameter alchLambda2 to 0.44999999999999996
Info: NONBONDED TABLE R-SQUARED SPACING: 0.0625
Info: NONBONDED TABLE SIZE: 705 POINTS
TCL: Running for 1500000 steps
ETITLE: TS BOND ANGLE DIHED IMPRP ELECT VDW BOUNDARY MISC KINETIC TOTAL TEMP POTENTIAL TOTALAVG TEMPAVG PRESSURE GPRESSURE VOLUME PRESSAVG GPRESSAVG
ENERGY: 0 0.6256 0.8501 0.0000 0.0000 -10802.8553 1474.3527 0.0000 0.0000 1798.0854 -7528.9414 306.9848 -9327.0268 -7528.9414 306.9848 387.2998 472.1787 29610.6235 387.2998 472.1787
ENERGY: 300000 0.2856 1.8288 0.0000 0.0000 -10699.2018 1459.5229 0.0000 0.0000 1780.1117 -7457.4528 303.9162 -9237.5645 -7513.7930 300.9394 154.0591 234.0132 30515.4395 -23.2409 70.1285
ENERGY: 600000 0.1771 2.3460 0.0000 0.0000 -10736.3022 1459.4890 0.0000 0.0000 1726.7783 -7547.5118 294.8106 -9274.2901 -7505.9382 299.9326 -232.5017 -161.3115 30902.9072 -102.0824 -23.2171
ENERGY: 900000 0.4425 1.0095 0.0000 0.0000 -10803.2251 1501.7409 0.0000 0.0000 1756.1858 -7543.8463 299.8313 -9300.0322 -7496.6678 300.8433 353.7481 440.7713 30208.9337 -31.6532 47.2676
ENERGY: 1200000 0.6209 4.1411 0.0000 0.0000 -10794.3097 1496.4062 0.0000 0.0000 1810.8256 -7482.3159 309.1599 -9293.1415 -7493.7127 301.8656 617.1046 679.1931 29805.7466 70.6027 149.8648
ENERGY: 1500000 0.7005 4.7579 0.0000 0.0000 -10711.2183 1425.6430 0.0000 0.0000 1788.7468 -7491.3701 305.3905 -9280.1169 -7493.2618 302.1803 163.6162 169.7488 29896.7041 16.7727 84.7555
TCL: Running FEP window  10: Lambda1 0.44999999999999996 Lambda2 0.49999999999999994 [dLambda 0.04999999999999999]
TCL: Setting parameter firsttimestep to 0
TCL: Setting parameter alchLambda to 0.44999999999999996
Info: NONBONDED TABLE R-SQUARED SPACING: 0.0625
Info: NONBONDED TABLE SIZE: 705 POINTS
TCL: Setting parameter alchLambda2 to 0.49999999999999994
Info: NONBONDED TABLE R-SQUARED SPACING: 0.0625
Info: NONBONDED TABLE SIZE: 705 POINTS
TCL: Running for 1500000 steps
ETITLE: TS BOND ANGLE DIHED IMPRP ELECT VDW BOUNDARY MISC KINETIC TOTAL TEMP POTENTIAL TOTALAVG TEMPAVG PRESSURE GPRESSURE VOLUME PRESSAVG GPRESSAVG
ENERGY: 0 0.7005 4.7579 0.0000 0.0000 -10711.2201 1426.2233 0.0000 0.0000 1787.8959 -7491.6425 305.2452 -9279.5384 -7491.6425 305.2452 92.5448 177.0473 29896.7041 92.5448 177.0473
ENERGY: 300000 0.0318 1.7044 0.0000 0.0000 -10596.1515 1366.2017 0.0000 0.0000 1762.4699 -7465.7437 300.9042 -9228.2136 -7482.2586 301.9535 -321.6783 -366.4166 30287.5442 -105.4191 -63.9276
ENERGY: 600000 0.5425 2.7764 0.0000 0.0000 -10641.4723 1392.1753 0.0000 0.0000 1817.1498 -7428.8283 310.2397 -9245.9781 -7487.2413 303.2257 -205.0138 -203.3315 30620.9058 -232.0799 -194.1782
ENERGY: 900000 1.6592 3.0872 0.0000 0.0000 -10681.5162 1390.0000 0.0000 0.0000 1735.2151 -7551.5547 296.2510 -9286.7698 -7511.5980 300.3935 -508.6286 -458.4354 30494.1611 -254.0415 -210.9048
ENERGY: 1200000 1.3473 1.3557 0.0000 0.0000 -10609.4488 1406.5391 0.0000 0.0000 1718.8035 -7481.4032 293.4491 -9200.2067 -7506.8809 299.9351 -162.0315 -88.7802 30408.0092 -230.6974 -186.0884
ENERGY: 1500000 0.5195 3.2611 0.0000 0.0000 -10511.4046 1288.8857 0.0000 0.0000 1773.0835 -7445.6548 302.7163 -9218.7383 -7505.2991 300.3087 -816.9837 -761.1643 30113.8795 -222.5023 -171.0077
TCL: Running FEP window  11: Lambda1 0.49999999999999994 Lambda2 0.5499999999999999 [dLambda 0.04999999999999999]
TCL: Setting parameter firsttimestep to 0
TCL: Setting parameter alchLambda to 0.49999999999999994
Info: NONBONDED TABLE R-SQUARED SPACING: 0.0625
Info: NONBONDED TABLE SIZE: 705 POINTS
TCL: Setting parameter alchLambda2 to 0.5499999999999999
Info: NONBONDED TABLE R-SQUARED SPACING: 0.0625
Info: NONBONDED TABLE SIZE: 705 POINTS
TCL: Running for 1500000 steps
ETITLE: TS BOND ANGLE DIHED IMPRP ELECT VDW BOUNDARY MISC KINETIC TOTAL TEMP POTENTIAL TOTALAVG TEMPAVG PRESSURE GPRESSURE VOLUME PRESSAVG GPRESSAVG
ENERGY: 0 0.5195 3.2611 0.0000 0.0000 -10511.4050 1289.0874 0.0000 0.0000 1772.2275 -7446.3096 302.5701 -9218.5371 -7446.3096 302.5701 -851.9974 -754.2073 30113.8795 -851.9974 -754.2073
ENERGY: 300000 0.4365 2.2990 0.0000 0.0000 -10693.2154 1473.2529 0.0000 0.0000 1769.3592 -7447.8678 302.0804 -9217.2270 -7506.9172 300.0487 404.4829 418.4949 30220.4535 -47.7576 2.7387
ENERGY: 600000 0.3153 2.5641 0.0000 0.0000 -10566.7688 1353.0608 0.0000 0.0000 1763.2025 -7447.6261 301.0293 -9210.8286 -7483.2569 301.3706 -485.3323 -469.8199 30687.9026 -116.7747 -75.6404
ENERGY: 900000 0.9208 2.3582 0.0000 0.0000 -10664.0296 1441.4349 0.0000 0.0000 1713.8032 -7505.5124 292.5954 -9219.3157 -7498.0756 299.4778 384.8473 441.5689 29898.1942 -70.7838 -23.0595
ENERGY: 1200000 0.3979 0.8694 0.0000 0.0000 -10695.0005 1468.0376 0.0000 0.0000 1810.6048 -7415.0908 309.1222 -9225.6956 -7495.2122 300.2116 426.8073 472.5512 30323.4080 44.7195 89.0494
ENERGY: 1500000 1.0448 1.5032 0.0000 0.0000 -10872.5619 1554.9513 0.0000 0.0000 1733.4257 -7581.6369 295.9455 -9315.0626 -7505.2139 299.9132 758.5186 830.0956 30380.8472 94.5961 143.1307
TCL: Running FEP window  12: Lambda1 0.5499999999999999 Lambda2 0.6    [dLambda 0.050000000000000044]
TCL: Setting parameter firsttimestep to 0
TCL: Setting parameter alchLambda to 0.5499999999999999
Info: NONBONDED TABLE R-SQUARED SPACING: 0.0625
Info: NONBONDED TABLE SIZE: 705 POINTS
TCL: Setting parameter alchLambda2 to 0.6
Info: NONBONDED TABLE R-SQUARED SPACING: 0.0625
Info: NONBONDED TABLE SIZE: 705 POINTS
TCL: Running for 1500000 steps
ETITLE: TS BOND ANGLE DIHED IMPRP ELECT VDW BOUNDARY MISC KINETIC TOTAL TEMP POTENTIAL TOTALAVG TEMPAVG PRESSURE GPRESSURE VOLUME PRESSAVG GPRESSAVG
ENERGY: 0 1.0448 1.5032 0.0000 0.0000 -10872.6175 1554.7178 0.0000 0.0000 1732.5294 -7582.8223 295.7925 -9315.3517 -7582.8223 295.7925 745.7362 829.8859 30380.8472 745.7362 829.8859
ENERGY: 300000 1.0055 1.1363 0.0000 0.0000 -10726.4628 1437.0576 0.0000 0.0000 1795.6957 -7491.5677 306.5768 -9287.2634 -7529.1211 301.9872 -162.7027 -22.9396 30314.7259 102.9565 189.6944
ENERGY: 600000 1.1664 1.7209 0.0000 0.0000 -10606.2703 1369.8697 0.0000 0.0000 1723.5062 -7510.0071 294.2520 -9233.5132 -7518.2886 299.6524 -347.4679 -309.6179 30488.7841 -49.2407 11.8400
ENERGY: 900000 0.3471 2.6859 0.0000 0.0000 -10647.4481 1375.4084 0.0000 0.0000 1753.6972 -7515.3095 299.4065 -9269.0067 -7513.3074 300.4465 -743.9557 -708.7141 30691.5601 -46.1144 15.5770
ENERGY: 1200000 1.2238 3.3007 0.0000 0.0000 -10606.8574 1404.1093 0.0000 0.0000 1797.2600 -7400.9636 306.8439 -9198.2236 -7503.3526 300.5393 -64.4692 -113.9477 30619.1720 -106.8376 -54.1678
ENERGY: 1500000 0.9606 0.1901 0.0000 0.0000 -10622.4353 1370.3038 0.0000 0.0000 1786.5011 -7464.4797 305.0070 -9250.9808 -7499.0289 300.2888 -192.8946 -167.0419 29863.1983 -81.6976 -24.8485
TCL: Running FEP window  13: Lambda1 0.6    Lambda2 0.65   [dLambda 0.050000000000000044]
TCL: Setting parameter firsttimestep to 0
TCL: Setting parameter alchLambda to 0.6
Info: NONBONDED TABLE R-SQUARED SPACING: 0.0625
Info: NONBONDED TABLE SIZE: 705 POINTS
TCL: Setting parameter alchLambda2 to 0.65
Info: NONBONDED TABLE R-SQUARED SPACING: 0.0625
Info: NONBONDED TABLE SIZE: 705 POINTS
TCL: Running for 1500000 steps
ETITLE: TS BOND ANGLE DIHED IMPRP ELECT VDW BOUNDARY MISC KINETIC TOTAL TEMP POTENTIAL TOTALAVG TEMPAVG PRESSURE GPRESSURE VOLUME PRESSAVG GPRESSAVG
ENERGY: 0 0.9606 0.1901 0.0000 0.0000 -10622.6404 1370.9164 0.0000 0.0000 1785.6159 -7464.9574 304.8559 -9250.5733 -7464.9574 304.8559 -232.3736 -157.0537 29863.1983 -232.3736 -157.0537
ENERGY: 300000 0.5807 2.3636 0.0000 0.0000 -10845.1778 1500.2701 0.0000 0.0000 1777.7137 -7564.2495 303.5068 -9341.9633 -7492.8619 302.3120 291.1380 348.0872 30031.2905 -45.4420 17.7274
ENERGY: 600000 0.1596 3.2444 0.0000 0.0000 -10671.2472 1405.8967 0.0000 0.0000 1728.6477 -7533.2989 295.1298 -9261.9465 -7503.5134 300.5990 -350.0342 -340.6265 30416.2745 -229.1920 -177.9791
ENERGY: 900000 2.7413 2.1782 0.0000 0.0000 -10760.8753 1448.0047 0.0000 0.0000 1710.2931 -7597.6580 291.9962 -9307.9511 -7518.4003 298.6977 -198.2953 -98.2041 30605.4242 -169.0481 -111.1771
ENERGY: 1200000 1.1210 1.8822 0.0000 0.0000 -10672.2570 1408.8578 0.0000 0.0000 1697.3879 -7563.0081 289.7929 -9260.3960 -7532.4617 297.2929 -228.7475 -187.7280 30222.7822 -165.4344 -102.7651
ENERGY: 1500000 0.2029 2.0496 0.0000 0.0000 -10718.5899 1487.2803 0.0000 0.0000 1763.6860 -7465.3712 301.1118 -9229.0572 -7534.2512 297.0860 503.0927 636.5139 30004.2649 -126.5860 -61.2328
TCL: Running FEP window  14: Lambda1 0.65   Lambda2 0.7000000000000001 [dLambda 0.050000000000000044]
TCL: Setting parameter firsttimestep to 0
TCL: Setting parameter alchLambda to 0.65
Info: NONBONDED TABLE R-SQUARED SPACING: 0.0625
Info: NONBONDED TABLE SIZE: 705 POINTS
TCL: Setting parameter alchLambda2 to 0.7000000000000001
Info: NONBONDED TABLE R-SQUARED SPACING: 0.0625
Info: NONBONDED TABLE SIZE: 705 POINTS
TCL: Running for 1500000 steps
ETITLE: TS BOND ANGLE DIHED IMPRP ELECT VDW BOUNDARY MISC KINETIC TOTAL TEMP POTENTIAL TOTALAVG TEMPAVG PRESSURE GPRESSURE VOLUME PRESSAVG GPRESSAVG
ENERGY: 0 0.2029 2.0496 0.0000 0.0000 -10719.2485 1487.2513 0.0000 0.0000 1762.8471 -7466.8976 300.9686 -9229.7447 -7466.8976 300.9686 553.9584 636.0650 30004.2649 553.9584 636.0650
ENERGY: 300000 0.1315 3.5800 0.0000 0.0000 -10797.1215 1550.4515 0.0000 0.0000 1803.3316 -7439.6269 307.8805 -9242.9585 -7491.9300 303.8052 853.2168 958.1726 30600.7026 650.0050 720.4051
ENERGY: 600000 0.0479 2.8844 0.0000 0.0000 -10874.1100 1548.0437 0.0000 0.0000 1711.9006 -7611.2334 292.2706 -9323.1340 -7517.2336 299.8530 611.2422 717.3726 30020.5438 533.9956 596.8424
ENERGY: 900000 0.1469 3.3249 0.0000 0.0000 -10810.3587 1456.9998 0.0000 0.0000 1753.4725 -7596.4146 299.3681 -9349.8871 -7513.5287 300.7067 -317.8414 -230.2969 30573.9604 339.2956 406.8267
ENERGY: 1200000 0.4420 1.6876 0.0000 0.0000 -10522.3170 1339.7543 0.0000 0.0000 1795.6048 -7384.8284 306.5613 -9180.4332 -7502.5971 301.3065 -334.2056 -290.3609 30201.3443 263.0673 321.7837
ENERGY: 1500000 0.7097 3.6812 0.0000 0.0000 -10637.3739 1401.3438 0.0000 0.0000 1774.6112 -7457.0281 302.9771 -9231.6393 -7501.4337 301.2632 -199.3983 -165.5659 30544.5144 183.3895 238.6481
TCL: Running FEP window  15: Lambda1 0.7000000000000001 Lambda2 0.7500000000000001 [dLambda 0.050000000000000044]
TCL: Setting parameter firsttimestep to 0
TCL: Setting parameter alchLambda to 0.7000000000000001
Info: NONBONDED TABLE R-SQUARED SPACING: 0.0625
Info: NONBONDED TABLE SIZE: 705 POINTS
TCL: Setting parameter alchLambda2 to 0.7500000000000001
Info: NONBONDED TABLE R-SQUARED SPACING: 0.0625
Info: NONBONDED TABLE SIZE: 705 POINTS
TCL: Running for 1500000 steps
ETITLE: TS BOND ANGLE DIHED IMPRP ELECT VDW BOUNDARY MISC KINETIC TOTAL TEMP POTENTIAL TOTALAVG TEMPAVG PRESSURE GPRESSURE VOLUME PRESSAVG GPRESSAVG
ENERGY: 0 0.7097 3.6812 0.0000 0.0000 -10637.7146 1401.3172 0.0000 0.0000 1773.7448 -7458.2617 302.8292 -9232.0065 -7458.2617 302.8292 -247.3951 -159.1916 30544.5144 -247.3951 -159.1916
ENERGY: 300000 1.5666 1.7198 0.0000 0.0000 -10523.3944 1301.6836 0.0000 0.0000 1747.3768 -7471.0476 298.3274 -9218.4244 -7462.1845 300.3488 -900.8519 -877.6384 30599.2857 -605.4203 -543.8527
ENERGY: 600000 0.0079 1.0416 0.0000 0.0000 -10842.1407 1453.6283 0.0000 0.0000 1760.6225 -7626.8404 300.5888 -9387.4629 -7475.6468 300.6034 98.1420 142.2013 29558.2777 -391.9559 -339.6171
ENERGY: 900000 0.1654 2.4245 0.0000 0.0000 -10631.2036 1405.1435 0.0000 0.0000 1740.7007 -7482.7694 297.1876 -9223.4701 -7486.5355 298.6524 -152.7814 -63.9926 30543.5627 -333.2890 -272.1013
ENERGY: 1200000 0.5680 3.6233 0.0000 0.0000 -10580.1297 1353.9946 0.0000 0.0000 1796.9818 -7424.9621 306.7964 -9221.9439 -7486.4872 298.9891 -596.7693 -577.5964 30606.0667 -312.0886 -256.5763
ENERGY: 1500000 0.8993 1.3448 0.0000 0.0000 -10603.7700 1349.3072 0.0000 0.0000 1726.8325 -7525.3862 294.8199 -9252.2187 -7495.8543 298.2963 -692.2106 -646.3549 30369.9022 -320.3368 -265.6485
TCL: Running FEP window  16: Lambda1 0.7500000000000001 Lambda2 0.8000000000000002 [dLambda 0.050000000000000044]
TCL: Setting parameter firsttimestep to 0
TCL: Setting parameter alchLambda to 0.7500000000000001
Info: NONBONDED TABLE R-SQUARED SPACING: 0.0625
Info: NONBONDED TABLE SIZE: 705 POINTS
TCL: Setting parameter alchLambda2 to 0.8000000000000002
Info: NONBONDED TABLE R-SQUARED SPACING: 0.0625
Info: NONBONDED TABLE SIZE: 705 POINTS
TCL: Running for 1500000 steps
ETITLE: TS BOND ANGLE DIHED IMPRP ELECT VDW BOUNDARY MISC KINETIC TOTAL TEMP POTENTIAL TOTALAVG TEMPAVG PRESSURE GPRESSURE VOLUME PRESSAVG GPRESSAVG
ENERGY: 0 0.8993 1.3448 0.0000 0.0000 -10604.2934 1349.7392 0.0000 0.0000 1725.9908 -7526.3193 294.6762 -9252.3100 -7526.3193 294.6762 -727.5344 -636.3273 30369.9022 -727.5344 -636.3273
ENERGY: 300000 0.7340 3.2320 0.0000 0.0000 -10695.2789 1401.1470 0.0000 0.0000 1760.3418 -7529.8241 300.5409 -9290.1659 -7543.9885 296.3373 -608.7043 -459.8232 30671.0379 -220.1467 -122.3279
ENERGY: 600000 0.1833 1.9693 0.0000 0.0000 -10728.1439 1454.0350 0.0000 0.0000 1752.5130 -7519.4432 299.2043 -9271.9562 -7504.3703 298.9936 85.6020 134.6052 30369.7511 -168.6184 -75.3820
ENERGY: 900000 0.1703 0.6054 0.0000 0.0000 -10698.5043 1387.9997 0.0000 0.0000 1765.3702 -7544.3588 301.3994 -9309.7289 -7513.3490 300.0663 -477.5231 -404.4228 30311.3689 -205.3298 -123.4049
ENERGY: 1200000 0.0034 1.0646 0.0000 0.0000 -10621.5115 1362.1424 0.0000 0.0000 1710.5181 -7547.7830 292.0346 -9258.3011 -7520.2507 298.9880 -731.5128 -676.8811 30716.6020 -171.6156 -96.2761
ENERGY: 1500000 1.0394 1.7094 0.0000 0.0000 -10696.8719 1415.2933 0.0000 0.0000 1829.8264 -7449.0033 312.4039 -9278.8297 -7517.8774 300.2062 -51.0518 -8.8647 30087.8162 -83.9261 -10.8265
TCL: Running FEP window  17: Lambda1 0.8000000000000002 Lambda2 0.8500000000000002 [dLambda 0.050000000000000044]
TCL: Setting parameter firsttimestep to 0
TCL: Setting parameter alchLambda to 0.8000000000000002
Info: NONBONDED TABLE R-SQUARED SPACING: 0.0625
Info: NONBONDED TABLE SIZE: 705 POINTS
TCL: Setting parameter alchLambda2 to 0.8500000000000002
Info: NONBONDED TABLE R-SQUARED SPACING: 0.0625
Info: NONBONDED TABLE SIZE: 705 POINTS
TCL: Running for 1500000 steps
ETITLE: TS BOND ANGLE DIHED IMPRP ELECT VDW BOUNDARY MISC KINETIC TOTAL TEMP POTENTIAL TOTALAVG TEMPAVG PRESSURE GPRESSURE VOLUME PRESSAVG GPRESSAVG
ENERGY: 0 1.0394 1.7094 0.0000 0.0000 -10697.0643 1415.4986 0.0000 0.0000 1828.9530 -7449.8638 312.2548 -9278.8168 -7449.8638 312.2548 -83.9120 -2.1175 30087.8162 -83.9120 -2.1175
ENERGY: 300000 0.4219 1.7980 0.0000 0.0000 -10719.3132 1406.7801 0.0000 0.0000 1835.6286 -7474.6845 313.3945 -9310.3131 -7485.1846 306.9503 -281.4076 -243.1073 30257.0972 -240.7374 -166.2980
ENERGY: 600000 1.0582 1.1958 0.0000 0.0000 -10666.8404 1390.8562 0.0000 0.0000 1786.4374 -7487.2928 304.9962 -9273.7302 -7491.3319 304.7850 -451.0159 -394.1676 30605.4564 -155.2131 -77.4157
ENERGY: 900000 1.2137 1.4132 0.0000 0.0000 -10661.8154 1418.1488 0.0000 0.0000 1813.2875 -7427.7521 309.5803 -9241.0397 -7486.7181 304.3872 196.7475 225.2874 30009.8068 -156.8617 -89.1303
ENERGY: 1200000 0.3160 1.1748 0.0000 0.0000 -10860.3688 1510.9572 0.0000 0.0000 1775.1535 -7572.7673 303.0697 -9347.9208 -7493.3314 302.9797 212.4776 265.1940 30509.3818 -85.8127 -16.6845
ENERGY: 1500000 0.2182 2.7153 0.0000 0.0000 -10679.2315 1458.7406 0.0000 0.0000 1757.9341 -7459.6233 300.1298 -9217.5574 -7496.1263 302.3498 180.1793 294.1357 30434.7938 -60.2747 7.7148
TCL: Running FEP window  18: Lambda1 0.8500000000000002 Lambda2 0.9000000000000002 [dLambda 0.050000000000000044]
TCL: Setting parameter firsttimestep to 0
TCL: Setting parameter alchLambda to 0.8500000000000002
Info: NONBONDED TABLE R-SQUARED SPACING: 0.0625
Info: NONBONDED TABLE SIZE: 705 POINTS
TCL: Setting parameter alchLambda2 to 0.9000000000000002
Info: NONBONDED TABLE R-SQUARED SPACING: 0.0625
Info: NONBONDED TABLE SIZE: 705 POINTS
TCL: Running for 1500000 steps
ETITLE: TS BOND ANGLE DIHED IMPRP ELECT VDW BOUNDARY MISC KINETIC TOTAL TEMP POTENTIAL TOTALAVG TEMPAVG PRESSURE GPRESSURE VOLUME PRESSAVG GPRESSAVG
ENERGY: 0 0.2182 2.7153 0.0000 0.0000 -10679.6752 1458.4500 0.0000 0.0000 1757.0590 -7461.2328 299.9804 -9218.2917 -7461.2328 299.9804 212.7022 296.5124 30434.7938 212.7022 296.5124
ENERGY: 300000 0.2605 1.6143 0.0000 0.0000 -10793.0280 1442.7711 0.0000 0.0000 1783.3887 -7564.9934 304.4757 -9348.3821 -7498.8568 304.2950 -253.9000 -189.7596 30500.8557 -114.8004 -60.9361
ENERGY: 600000 1.0537 1.2160 0.0000 0.0000 -10727.3106 1477.3521 0.0000 0.0000 1733.9920 -7513.6968 296.0422 -9247.6889 -7512.8022 299.8217 140.2852 176.0683 30524.6379 -190.3352 -130.4651
ENERGY: 900000 2.4304 3.8490 0.0000 0.0000 -10684.2619 1382.8757 0.0000 0.0000 1755.1706 -7539.9362 299.6580 -9295.1067 -7519.7521 300.3548 -619.7141 -551.2874 30373.8503 -211.3088 -152.7846
ENERGY: 1200000 0.9996 2.5732 0.0000 0.0000 -10791.2786 1450.7271 0.0000 0.0000 1791.4161 -7545.5626 305.8462 -9336.9787 -7528.2217 301.0902 46.5345 100.7163 29989.0492 20.7802 74.4818
ENERGY: 1500000 0.9936 6.2166 0.0000 0.0000 -10630.1761 1361.9796 0.0000 0.0000 1732.6810 -7528.3053 295.8184 -9260.9863 -7533.5511 300.3896 -557.8681 -587.4943 30387.7087 1.5066 54.8601
TCL: Running FEP window  19: Lambda1 0.9000000000000002 Lambda2 0.9500000000000003 [dLambda 0.050000000000000044]
TCL: Setting parameter firsttimestep to 0
TCL: Setting parameter alchLambda to 0.9000000000000002
Info: NONBONDED TABLE R-SQUARED SPACING: 0.0625
Info: NONBONDED TABLE SIZE: 705 POINTS
TCL: Setting parameter alchLambda2 to 0.9500000000000003
Info: NONBONDED TABLE R-SQUARED SPACING: 0.0625
Info: NONBONDED TABLE SIZE: 705 POINTS
TCL: Running for 1500000 steps
ETITLE: TS BOND ANGLE DIHED IMPRP ELECT VDW BOUNDARY MISC KINETIC TOTAL TEMP POTENTIAL TOTALAVG TEMPAVG PRESSURE GPRESSURE VOLUME PRESSAVG GPRESSAVG
ENERGY: 0 0.9936 6.2166 0.0000 0.0000 -10631.3794 1362.2534 0.0000 0.0000 1731.7879 -7530.1279 295.6659 -9261.9159 -7530.1279 295.6659 -648.1565 -579.4209 30387.7087 -648.1565 -579.4209
ENERGY: 300000 1.0560 2.2849 0.0000 0.0000 -10766.2618 1466.3450 0.0000 0.0000 1788.6138 -7507.9621 305.3677 -9296.5759 -7490.2775 299.4657 93.4145 145.9237 30349.7733 -76.9325 -10.4345
ENERGY: 600000 1.4246 2.6802 0.0000 0.0000 -10725.0441 1468.5233 0.0000 0.0000 1779.8970 -7472.5190 303.8795 -9252.4161 -7483.9480 299.8490 492.8537 607.3310 29932.5904 -24.9328 45.4850
ENERGY: 900000 1.1616 2.9842 0.0000 0.0000 -10877.3686 1528.7048 0.0000 0.0000 1761.3766 -7583.1414 300.7176 -9344.5180 -7503.4361 300.4435 389.9188 443.9861 30341.1286 -12.1631 59.6983
ENERGY: 1200000 0.3872 2.3157 0.0000 0.0000 -10533.7431 1351.0295 0.0000 0.0000 1767.3051 -7412.7056 301.7297 -9180.0107 -7501.6555 300.8679 -494.3469 -355.3196 30450.1212 -101.0330 -20.3622
ENERGY: 1500000 0.1675 2.7598 0.0000 0.0000 -10753.2425 1508.0426 0.0000 0.0000 1738.4563 -7503.8163 296.8044 -9242.2726 -7502.4826 300.6247 725.8350 839.5398 30145.1389 -154.8089 -79.7964
TCL: Running FEP window  20: Lambda1 0.9500000000000003 Lambda2 1.0    [dLambda 0.04999999999999971]
TCL: Setting parameter firsttimestep to 0
TCL: Setting parameter alchLambda to 0.9500000000000003
Info: NONBONDED TABLE R-SQUARED SPACING: 0.0625
Info: NONBONDED TABLE SIZE: 705 POINTS
TCL: Setting parameter alchLambda2 to 1.0
Info: NONBONDED TABLE R-SQUARED SPACING: 0.0625
Info: NONBONDED TABLE SIZE: 705 POINTS
TCL: Running for 1500000 steps
ETITLE: TS BOND ANGLE DIHED IMPRP ELECT VDW BOUNDARY MISC KINETIC TOTAL TEMP POTENTIAL TOTALAVG TEMPAVG PRESSURE GPRESSURE VOLUME PRESSAVG GPRESSAVG
ENERGY: 0 0.1675 2.7598 0.0000 0.0000 -10754.3255 1509.1158 0.0000 0.0000 1737.6056 -7504.6768 296.6592 -9242.2824 -7504.6768 296.6592 790.8598 859.4627 30145.1389 790.8598 859.4627
ENERGY: 300000 0.2056 1.7674 0.0000 0.0000 -10702.5124 1425.3187 0.0000 0.0000 1738.0251 -7537.1956 296.7308 -9275.2207 -7523.1029 297.5568 -295.3972 -255.6467 30694.8170 166.7623 239.9602
ENERGY: 600000 0.7738 2.0752 0.0000 0.0000 -10819.3509 1519.2413 0.0000 0.0000 1758.0091 -7539.2515 300.1426 -9297.2606 -7532.0774 297.4783 775.2272 823.1326 29832.7749 103.3568 162.9288
ENERGY: 900000 0.4174 2.6835 0.0000 0.0000 -10595.1581 1382.1316 0.0000 0.0000 1740.4424 -7469.4832 297.1435 -9209.9256 -7522.4066 299.0797 -279.0155 -206.3111 30486.8452 -43.0165 12.6983
ENERGY: 1200000 0.9177 6.1942 0.0000 0.0000 -10755.0102 1481.0197 0.0000 0.0000 1743.6718 -7523.2069 297.6948 -9266.8787 -7525.2323 299.5733 304.9049 385.7257 30411.1170 79.8382 142.4009
ENERGY: 1500000 0.4149 2.6764 0.0000 0.0000 -10656.1570 1400.2803 0.0000 0.0000 1768.9707 -7483.8147 302.0141 -9252.7854 -7525.3683 299.8346 -341.3568 -318.6086 30625.2272 91.6347 155.0261
TCL: Exiting due to exit command.
