Info: SIMULATION PARAMETERS:
Info: TIMESTEP               2
Info: NUMBER OF STEPS        0
Info: STEPS PER CYCLE        10
Info: PERIODIC CELL BASIS 1  31.1257 0 0
Info: PERIODIC CELL BASIS 2  0 31.4822 0
Info: PERIODIC CELL BASIS 3  0 0 31.6893
Info: PERIODIC CELL CENTER   0 0 0
Info: WRAPPING WATERS AROUND PERIODIC BOUNDARIES ON OUTPUT.
Info: WRAPPING ALL CLUSTERS AROUND PERIODIC BOUNDARIES ON OUTPUT.
Info: FIRST LDB TIMESTEP     50
Info: LAST LDB TIMESTEP     -1
Info: HOM BACKGROUND SCALING 1
Info: PME BACKGROUND SCALING 1
Info: MIN ATOMS PER PATCH    40
Info: EMPTY PATCH LOAD       40 ATOMS
Info: VELOCITY FILE          mobley_5631798_equil.vel
Info: CENTER OF MASS MOVING INITIALLY? NO
Info: DIELECTRIC             1
Info: EXCLUDE                SCALED ONE-FOUR
Info: 1-4 ELECTROSTATICS SCALED BY 0.833333
Info: MODIFIED 1-4 VDW PARAMETERS WILL BE USED
Info: DCD FILENAME           mobley_5631798_prod.dcd
Info: DCD FREQUENCY          100000
Info: DCD FIRST STEP         100000
Info: DCD FILE WILL CONTAIN UNIT CELL DATA
Info: XST FILENAME           mobley_5631798_prod.xst
Info: XST FREQUENCY          100000
Info: NO VELOCITY DCD OUTPUT
Info: NO FORCE DCD OUTPUT
Info: OUTPUT FILENAME        mobley_5631798_prod
Info: BINARY OUTPUT FILES WILL BE USED
Info: RESTART FILENAME       mobley_5631798_prod.restart
Info: RESTART FREQUENCY      100000
Info: BINARY RESTART FILES WILL BE USED
Info: CUTOFF                 9
Info: PAIRLIST DISTANCE      11
Info: PAIRLIST SHRINK RATE   0.01
Info: PAIRLIST GROW RATE     0.01
Info: PAIRLIST TRIGGER       0.3
Info: PAIRLISTS PER CYCLE    2
Info: PAIRLISTS ENABLED
Info: MARGIN                 2
Info: HYDROGEN GROUP CUTOFF  2.5
Info: PATCH DIMENSION        15.5
Info: ENERGY OUTPUT STEPS    100000
Info: ENERGY EVALUATION STEPS    100000
Info: OUTPUT ENERGY PRECISION 4
Info: CROSSTERM ENERGY INCLUDED IN DIHEDRAL
Info: TIMING OUTPUT STEPS    1000000
Info: PRESSURE OUTPUT STEPS  100000
Info: ALCHEMICAL FEP ON
Info: FEP CURRENT LAMBDA VALUE     1
Info: FEP COMPARISON LAMBDA VALUE  0.95
Info: FEP INTRA-ALCHEMICAL NON-BONDED INTERACTIONS WILL BE RETAINED
Info: FEP INTRA-ALCHEMICAL BONDED INTERACTIONS WILL BE RETAINED
Info: FEP VDW SHIFTING COEFFICIENT 5
Info: FEP ELEC. ACTIVE FOR ANNIHILATED PARTICLES BETWEEN LAMBDA = 0 AND LAMBDA = 0.5
Info: FEP ELEC. ACTIVE FOR EXNIHILATED PARTICLES BETWEEN LAMBDA = 0.5 AND LAMBDA = 1
Info: FEP VDW ACTIVE FOR ANNIHILATED PARTICLES BETWEEN LAMBDA = 0 AND LAMBDA = 1
Info: FEP VDW ACTIVE FOR EXNIHILATED PARTICLES BETWEEN LAMBDA = 0 AND LAMBDA = 1
Info: FEP BOND ACTIVE FOR ANNIHILATED PARTICLES BETWEEN LAMBDA = 1 AND LAMBDA = 1
Info: FEP BOND ACTIVE FOR EXNIHILATED PARTICLES BETWEEN LAMBDA = 0 AND LAMBDA = 0
Info: LANGEVIN DYNAMICS ACTIVE
Info: LANGEVIN TEMPERATURE   300
Info: LANGEVIN USING BBK INTEGRATOR
Info: LANGEVIN DAMPING COEFFICIENT IS 1 INVERSE PS
Info: LANGEVIN DYNAMICS APPLIED TO HYDROGENS
Info: LANGEVIN PISTON PRESSURE CONTROL ACTIVE
Info:        TARGET PRESSURE IS 1.01325 BAR
Info:     OSCILLATION PERIOD IS 50 FS
Info:             DECAY TIME IS 25 FS
Info:     PISTON TEMPERATURE IS 300 K
Info:       PRESSURE CONTROL IS GROUP-BASED
Info:    INITIAL STRAIN RATE IS -4.96e-05 -4.96e-05 -4.96e-05
Info:       CELL FLUCTUATION IS ISOTROPIC
Info: PARTICLE MESH EWALD (PME) ACTIVE
Info: PME TOLERANCE               1e-06
Info: PME EWALD COEFFICIENT       0.348832
Info: PME INTERPOLATION ORDER     4
Info: PME GRID DIMENSIONS         32 32 32
Info: PME MAXIMUM GRID SPACING    1
Info: PME CALCULATION WILL BE PERFORMED ON GPU
Info: FULL ELECTROSTATIC EVALUATION FREQUENCY      2
Info: USING VERLET I (r-RESPA) MTS SCHEME.
Info: C1 SPLITTING OF LONG RANGE ELECTROSTATICS
Info: PLACING ATOMS IN PATCHES BY HYDROGEN GROUPS
Info: RIGID BONDS TO HYDROGEN : ALL
Info:         ERROR TOLERANCE : 1e-08
Info:          MAX ITERATIONS : 100
Info: RIGID WATER USING SETTLE ALGORITHM
Info: RANDOM NUMBER SEED     1741957800
Info: USE HYDROGEN BONDS?    NO
Info: Using AMBER format force field!
Info: AMBER PARM FILE        mobley_5631798.prmtop
Info: COORDINATE PDB         mobley_5631798.pdb
Info: Exclusions will be read from PARM file!
Info: SCNB (VDW SCALING)     2
Info: USING ARITHMETIC MEAN TO COMBINE L-J SIGMA PARAMETERS
Info: BINARY COORDINATES     mobley_5631798_equil.coor
Info: SUMMARY OF PARAMETERS:
Info: 3 BONDS
Info: 1 ANGLES
Info:   1 HARMONIC
Info:   0 COSINE-BASED
Info: 0 DIHEDRAL
Info: 0 IMPROPER
Info: 0 CROSSTERM
Info: 0 VDW
Info: 10 VDW_PAIRS
Info: 0 NBTHOLE_PAIRS
Info: To read alchdata from file: mobley_5631798.pdb
Info: To read alchflag data from column: 5
Info: STRUCTURE SUMMARY:
Info: 2974 ATOMS
Info: 2973 BONDS
Info: 3 ANGLES
Info: 0 DIHEDRALS
Info: 0 IMPROPERS
Info: 0 CROSSTERMS
Info: 2976 EXCLUSIONS
Info: 2973 RIGID BONDS
Info: ALCH: 0 ATOMS TO DISAPPEAR IN FINAL STATE
Info: ALCH: 4 ATOMS TO APPEAR IN FINAL STATE
Info: 5949 DEGREES OF FREEDOM
Info: 991 HYDROGEN GROUPS
Info: 4 ATOMS IN LARGEST HYDROGEN GROUP
Info: 991 MIGRATION GROUPS
Info: 4 ATOMS IN LARGEST MIGRATION GROUP
Info: TOTAL MASS = 17852.9 amu
Info: TOTAL CHARGE = 9.99868e-05 e
Info: MASS DENSITY = 0.954708 g/cm^3
Info: ATOM DENSITY = 0.0957733 atoms/A^3
Info: ADDED 0 IMPLICIT EXCLUSIONS
Info: NONBONDED TABLE R-SQUARED SPACING: 0.0625
Info: NONBONDED TABLE SIZE: 705 POINTS
Info: REDUCING NUMBER OF PATCHES TO IMPROVE LOAD BALANCE
Info: REMOVING COM VELOCITY 0.166531 -0.0258424 0.173507
Info: Use 3D box decompostion in PME FFT.
Info: Updated CUDA force table with 4096 elements.
Info: Updated CUDA LJ table with 4 x 4 elements.
Info: Found 7 unique exclusion lists needing 8 bytes
TCL: Running for 1500000 steps
ETITLE: TS BOND ANGLE DIHED IMPRP ELECT VDW BOUNDARY MISC KINETIC TOTAL TEMP POTENTIAL TOTALAVG TEMPAVG PRESSURE GPRESSURE VOLUME PRESSAVG GPRESSAVG
ENERGY: 0 0.0000 0.9354 0.0000 0.0000 -10698.8512 1389.4323 0.0000 0.0000 1841.4325 -7467.0509 311.5317 -9308.4834 -7467.0509 311.5317 -498.5503 -413.4675 31052.5082 -498.5503 -413.4675
ENERGY: 300000 0.0000 0.5486 0.0000 0.0000 -10916.1977 1464.6158 0.0000 0.0000 1724.3920 -7726.6412 291.7309 -9451.0333 -7541.3548 302.8875 -324.7623 -165.7009 30385.6014 -161.8379 -74.8796
ENERGY: 600000 0.0000 0.2344 0.0000 0.0000 -10657.4066 1316.8889 0.0000 0.0000 1804.4568 -7535.8265 305.2762 -9340.2832 -7541.7394 303.5716 -1168.2295 -1073.9011 30978.6739 -277.2661 -194.5255
ENERGY: 900000 0.0000 0.4050 0.0000 0.0000 -10901.9794 1535.5823 0.0000 0.0000 1755.2335 -7610.7586 296.9486 -9365.9921 -7556.1145 301.7559 745.3341 748.8221 30372.8377 -118.6843 -32.0532
ENERGY: 1200000 0.0000 5.4141 0.0000 0.0000 -10878.9418 1503.4831 0.0000 0.0000 1819.1901 -7550.8546 307.7687 -9370.0447 -7548.1868 302.3592 506.0204 543.8007 30321.9641 -103.7501 -31.1556
ENERGY: 1500000 0.0000 1.2017 0.0000 0.0000 -10938.8195 1513.4497 0.0000 0.0000 1817.6623 -7606.5058 307.5103 -9424.1681 -7569.4429 301.6760 274.6640 337.2291 30523.8238 -115.1854 -46.6862
TCL: Running FEP window   2: Lambda1 0.95   Lambda2 0.8999999999999999 [dLambda -0.050000000000000044]
TCL: Setting parameter firsttimestep to 0
TCL: Setting parameter alchLambda to 0.95
Info: NONBONDED TABLE R-SQUARED SPACING: 0.0625
Info: NONBONDED TABLE SIZE: 705 POINTS
TCL: Setting parameter alchLambda2 to 0.8999999999999999
Info: NONBONDED TABLE R-SQUARED SPACING: 0.0625
Info: NONBONDED TABLE SIZE: 705 POINTS
TCL: Running for 1500000 steps
ETITLE: TS BOND ANGLE DIHED IMPRP ELECT VDW BOUNDARY MISC KINETIC TOTAL TEMP POTENTIAL TOTALAVG TEMPAVG PRESSURE GPRESSURE VOLUME PRESSAVG GPRESSAVG
ENERGY: 0 0.0000 1.2017 0.0000 0.0000 -10936.9203 1512.3460 0.0000 0.0000 1816.7716 -7606.6010 307.3596 -9423.3727 -7606.6010 307.3596 243.3468 326.4351 30523.8238 243.3468 326.4351
ENERGY: 300000 0.0000 1.8099 0.0000 0.0000 -10703.3157 1403.1251 0.0000 0.0000 1781.8505 -7516.5302 301.4517 -9298.3807 -7588.4156 301.2933 -371.1605 -276.3200 30819.4246 -62.0903 14.3503
ENERGY: 600000 0.0000 1.4053 0.0000 0.0000 -10878.1520 1468.8124 0.0000 0.0000 1746.7241 -7661.2103 295.5090 -9407.9344 -7579.7802 301.3678 145.1260 176.3712 30149.5213 -51.3987 9.6932
ENERGY: 900000 0.0000 1.2660 0.0000 0.0000 -10897.1613 1464.3988 0.0000 0.0000 1735.2751 -7696.2213 293.5721 -9431.4964 -7585.8802 300.4620 -252.8081 -102.4493 30378.9614 -69.4143 2.1684
ENERGY: 1200000 0.0000 0.4483 0.0000 0.0000 -10889.5885 1505.8098 0.0000 0.0000 1844.8100 -7538.5204 312.1031 -9383.3304 -7580.1686 301.2842 413.5486 393.9499 30535.5213 -15.5063 45.0930
ENERGY: 1500000 0.0000 1.4363 0.0000 0.0000 -10855.5088 1512.4772 0.0000 0.0000 1742.2610 -7599.3343 294.7540 -9341.5953 -7584.7132 300.9333 450.4020 513.1802 30743.3065 48.7979 109.5786
TCL: Running FEP window   3: Lambda1 0.8999999999999999 Lambda2 0.8499999999999999 [dLambda -0.050000000000000044]
TCL: Setting parameter firsttimestep to 0
TCL: Setting parameter alchLambda to 0.8999999999999999
Info: NONBONDED TABLE R-SQUARED SPACING: 0.0625
Info: NONBONDED TABLE SIZE: 705 POINTS
TCL: Setting parameter alchLambda2 to 0.8499999999999999
Info: NONBONDED TABLE R-SQUARED SPACING: 0.0625
Info: NONBONDED TABLE SIZE: 705 POINTS
TCL: Running for 1500000 steps
ETITLE: TS BOND ANGLE DIHED IMPRP ELECT VDW BOUNDARY MISC KINETIC TOTAL TEMP POTENTIAL TOTALAVG TEMPAVG PRESSURE GPRESSURE VOLUME PRESSAVG GPRESSAVG
ENERGY: 0 0.0000 1.4363 0.0000 0.0000 -10853.4516 1511.5134 0.0000 0.0000 1741.3766 -7599.1252 294.6043 -9340.5018 -7599.1252 294.6043 432.4704 505.7529 30743.3065 432.4704 505.7529
ENERGY: 300000 0.0000 0.0176 0.0000 0.0000 -10904.0589 1498.9745 0.0000 0.0000 1819.0462 -7586.0206 307.7444 -9405.0668 -7565.7240 302.8840 219.0759 294.6155 30640.3844 468.4939 540.3722
ENERGY: 600000 0.0000 3.4687 0.0000 0.0000 -10825.7162 1389.2556 0.0000 0.0000 1745.4512 -7687.5405 295.2937 -9432.9918 -7567.2195 301.4001 -648.0193 -550.5461 30275.4655 192.8014 263.6104
ENERGY: 900000 0.0000 1.6485 0.0000 0.0000 -10832.6762 1474.5210 0.0000 0.0000 1808.9202 -7547.5865 306.0313 -9356.5067 -7568.4250 302.3226 233.8187 281.3658 30761.7625 233.0220 298.3569
ENERGY: 1200000 0.0000 1.4995 0.0000 0.0000 -10547.7426 1286.8442 0.0000 0.0000 1805.6223 -7453.7766 305.4733 -9259.3989 -7561.0426 301.1541 -888.0989 -939.6809 30826.5344 134.8910 188.4390
ENERGY: 1500000 0.0000 0.1363 0.0000 0.0000 -10789.3005 1498.3064 0.0000 0.0000 1715.3961 -7575.4617 290.2090 -9290.8578 -7568.0538 300.7447 436.1475 507.6283 30635.5345 169.5335 231.8274
TCL: Running FEP window   4: Lambda1 0.8499999999999999 Lambda2 0.7999999999999998 [dLambda -0.050000000000000044]
TCL: Setting parameter firsttimestep to 0
TCL: Setting parameter alchLambda to 0.8499999999999999
Info: NONBONDED TABLE R-SQUARED SPACING: 0.0625
Info: NONBONDED TABLE SIZE: 705 POINTS
TCL: Setting parameter alchLambda2 to 0.7999999999999998
Info: NONBONDED TABLE R-SQUARED SPACING: 0.0625
Info: NONBONDED TABLE SIZE: 705 POINTS
TCL: Running for 1500000 steps
ETITLE: TS BOND ANGLE DIHED IMPRP ELECT VDW BOUNDARY MISC KINETIC TOTAL TEMP POTENTIAL TOTALAVG TEMPAVG PRESSURE GPRESSURE VOLUME PRESSAVG GPRESSAVG
ENERGY: 0 0.0000 0.1363 0.0000 0.0000 -10787.0742 1496.6436 0.0000 0.0000 1714.5574 -7575.7370 290.0671 -9290.2944 -7575.7370 290.0671 424.2687 495.6337 30635.5345 424.2687 495.6337
ENERGY: 300000 0.0000 0.8035 0.0000 0.0000 -10728.8313 1380.5148 0.0000 0.0000 1834.4988 -7513.0142 310.3586 -9347.5130 -7520.3622 303.8719 -620.5782 -491.2831 30802.1815 -53.4712 32.7926
ENERGY: 600000 0.0000 1.2655 0.0000 0.0000 -10782.5500 1477.7168 0.0000 0.0000 1792.3003 -7511.2673 303.2195 -9303.5676 -7517.4175 304.7398 7.0002 158.8408 31033.2285 -161.4618 -77.4277
ENERGY: 900000 0.0000 1.1437 0.0000 0.0000 -10747.1882 1430.5061 0.0000 0.0000 1808.1670 -7507.3714 305.9039 -9315.5384 -7541.4340 303.8975 -46.0373 -1.9003 30357.9133 -137.6366 -70.6503
ENERGY: 1200000 0.0000 1.4997 0.0000 0.0000 -10553.5729 1316.2328 0.0000 0.0000 1784.0386 -7451.8018 301.8218 -9235.8404 -7544.2721 303.4340 -886.0503 -795.3725 30983.6550 -76.3504 -10.9156
ENERGY: 1500000 0.0000 1.9911 0.0000 0.0000 -10830.7234 1467.0146 0.0000 0.0000 1763.7934 -7597.9243 298.3968 -9361.7177 -7550.4479 302.4183 -82.1522 -52.4032 30994.0890 -77.2788 -11.2420
TCL: Running FEP window   5: Lambda1 0.7999999999999998 Lambda2 0.7499999999999998 [dLambda -0.050000000000000044]
TCL: Setting parameter firsttimestep to 0
TCL: Setting parameter alchLambda to 0.7999999999999998
Info: NONBONDED TABLE R-SQUARED SPACING: 0.0625
Info: NONBONDED TABLE SIZE: 705 POINTS
TCL: Setting parameter alchLambda2 to 0.7499999999999998
Info: NONBONDED TABLE R-SQUARED SPACING: 0.0625
Info: NONBONDED TABLE SIZE: 705 POINTS
TCL: Running for 1500000 steps
ETITLE: TS BOND ANGLE DIHED IMPRP ELECT VDW BOUNDARY MISC KINETIC TOTAL TEMP POTENTIAL TOTALAVG TEMPAVG PRESSURE GPRESSURE VOLUME PRESSAVG GPRESSAVG
ENERGY: 0 0.0000 1.9911 0.0000 0.0000 -10829.0746 1466.2393 0.0000 0.0000 1762.8933 -7597.9508 298.2445 -9360.8441 -7597.9508 298.2445 -135.8920 -57.8812 30994.0890 -135.8920 -57.8812
ENERGY: 300000 0.0000 0.4060 0.0000 0.0000 -11024.6930 1551.6118 0.0000 0.0000 1769.3253 -7703.3499 299.3327 -9472.6753 -7616.0971 297.4661 418.7696 497.4414 30337.4021 -12.1404 70.9466
ENERGY: 600000 0.0000 0.2623 0.0000 0.0000 -10802.8857 1460.2578 0.0000 0.0000 1807.2138 -7535.1518 305.7426 -9342.3656 -7591.3533 301.3084 -40.7051 82.0651 30744.0703 -149.8878 -59.8162
ENERGY: 900000 0.0000 0.1564 0.0000 0.0000 -10722.2734 1391.0181 0.0000 0.0000 1749.0696 -7582.0294 295.9058 -9331.0990 -7574.7447 300.9136 -314.8864 -214.1123 30256.7740 -347.4731 -256.1802
ENERGY: 1200000 0.0000 0.4969 0.0000 0.0000 -10918.6197 1551.2067 0.0000 0.0000 1813.1232 -7553.7928 306.7423 -9366.9160 -7569.3659 301.6242 855.5332 892.5678 30344.7371 -239.7283 -160.8001
ENERGY: 1500000 0.0000 0.4939 0.0000 0.0000 -10868.6963 1414.7800 0.0000 0.0000 1790.6902 -7662.7323 302.9471 -9453.4224 -7586.5291 301.0013 -686.1724 -629.3021 30712.5601 -306.2853 -226.5372
TCL: Running FEP window   6: Lambda1 0.7499999999999998 Lambda2 0.6999999999999997 [dLambda -0.050000000000000044]
TCL: Setting parameter firsttimestep to 0
TCL: Setting parameter alchLambda to 0.7499999999999998
Info: NONBONDED TABLE R-SQUARED SPACING: 0.0625
Info: NONBONDED TABLE SIZE: 705 POINTS
TCL: Setting parameter alchLambda2 to 0.6999999999999997
Info: NONBONDED TABLE R-SQUARED SPACING: 0.0625
Info: NONBONDED TABLE SIZE: 705 POINTS
TCL: Running for 1500000 steps
ETITLE: TS BOND ANGLE DIHED IMPRP ELECT VDW BOUNDARY MISC KINETIC TOTAL TEMP POTENTIAL TOTALAVG TEMPAVG PRESSURE GPRESSURE VOLUME PRESSAVG GPRESSAVG
ENERGY: 0 0.0000 0.4939 0.0000 0.0000 -10867.5977 1414.5236 0.0000 0.0000 1789.8027 -7662.7775 302.7970 -9452.5802 -7662.7775 302.7970 -727.3961 -629.2756 30712.5601 -727.3961 -629.2756
ENERGY: 300000 0.0000 0.5357 0.0000 0.0000 -10697.9662 1409.5991 0.0000 0.0000 1822.7777 -7465.0537 308.3757 -9287.8314 -7569.3838 300.6956 -272.4330 -200.5692 30694.9485 -343.2968 -279.7186
ENERGY: 600000 0.0000 0.6982 0.0000 0.0000 -10767.5592 1398.5385 0.0000 0.0000 1765.1580 -7603.1645 298.6276 -9368.3225 -7569.9208 299.4655 -468.4588 -442.3998 30574.7083 -221.8385 -158.7019
ENERGY: 900000 0.0000 1.4798 0.0000 0.0000 -10864.5643 1451.3800 0.0000 0.0000 1781.7969 -7629.9075 301.4426 -9411.7044 -7585.1332 299.3696 -268.2143 -74.2533 30318.0991 -122.0034 -43.3222
ENERGY: 1200000 0.0000 0.4252 0.0000 0.0000 -10864.3990 1517.3516 0.0000 0.0000 1804.0167 -7542.6055 305.2017 -9346.6222 -7577.1084 300.0784 437.2513 455.6995 30641.5652 -49.8812 21.8055
ENERGY: 1500000 0.0000 3.0741 0.0000 0.0000 -10866.9355 1494.1072 0.0000 0.0000 1750.0625 -7619.6916 296.0738 -9369.7542 -7575.4592 300.0760 104.6003 111.5386 30745.0096 -55.4155 3.2596
TCL: Running FEP window   7: Lambda1 0.6999999999999997 Lambda2 0.6499999999999997 [dLambda -0.050000000000000044]
TCL: Setting parameter firsttimestep to 0
TCL: Setting parameter alchLambda to 0.6999999999999997
Info: NONBONDED TABLE R-SQUARED SPACING: 0.0625
Info: NONBONDED TABLE SIZE: 705 POINTS
TCL: Setting parameter alchLambda2 to 0.6499999999999997
Info: NONBONDED TABLE R-SQUARED SPACING: 0.0625
Info: NONBONDED TABLE SIZE: 705 POINTS
TCL: Running for 1500000 steps
ETITLE: TS BOND ANGLE DIHED IMPRP ELECT VDW BOUNDARY MISC KINETIC TOTAL TEMP POTENTIAL TOTALAVG TEMPAVG PRESSURE GPRESSURE VOLUME PRESSAVG GPRESSAVG
ENERGY: 0 0.0000 3.0741 0.0000 0.0000 -10865.1552 1493.7170 0.0000 0.0000 1749.1442 -7619.2199 295.9184 -9368.3641 -7619.2199 295.9184 13.9870 112.4364 30745.0096 13.9870 112.4364
ENERGY: 300000 0.0000 1.0701 0.0000 0.0000 -10797.1264 1401.6390 0.0000 0.0000 1781.6359 -7612.7814 301.4153 -9394.4173 -7609.3987 302.7254 -535.5263 -487.9835 30715.9571 -240.5088 -149.2003
ENERGY: 600000 0.0000 0.8212 0.0000 0.0000 -10822.6507 1456.6831 0.0000 0.0000 1734.0502 -7631.0962 293.3648 -9365.1463 -7596.3416 300.8106 -358.8850 -274.8949 30962.9131 -192.7101 -120.4612
ENERGY: 900000 0.0000 0.3572 0.0000 0.0000 -10726.7650 1396.0473 0.0000 0.0000 1807.6964 -7522.6641 305.8242 -9330.3605 -7579.5567 300.8000 -275.9702 -195.5970 30540.9225 -152.2881 -83.8685
ENERGY: 1200000 0.0000 0.3171 0.0000 0.0000 -10810.7275 1502.4605 0.0000 0.0000 1758.7125 -7549.2374 297.5372 -9307.9499 -7576.1401 301.2867 601.0966 682.6581 30536.4625 -112.9149 -49.2675
ENERGY: 1500000 0.0000 0.1877 0.0000 0.0000 -10692.6950 1335.4347 0.0000 0.0000 1733.6284 -7623.4442 293.2935 -9357.0726 -7579.2468 300.4189 -989.9023 -924.8889 30816.1422 -188.7026 -122.0427
TCL: Running FEP window   8: Lambda1 0.6499999999999997 Lambda2 0.5999999999999996 [dLambda -0.050000000000000044]
TCL: Setting parameter firsttimestep to 0
TCL: Setting parameter alchLambda to 0.6499999999999997
Info: NONBONDED TABLE R-SQUARED SPACING: 0.0625
Info: NONBONDED TABLE SIZE: 705 POINTS
TCL: Setting parameter alchLambda2 to 0.5999999999999996
Info: NONBONDED TABLE R-SQUARED SPACING: 0.0625
Info: NONBONDED TABLE SIZE: 705 POINTS
TCL: Running for 1500000 steps
ETITLE: TS BOND ANGLE DIHED IMPRP ELECT VDW BOUNDARY MISC KINETIC TOTAL TEMP POTENTIAL TOTALAVG TEMPAVG PRESSURE GPRESSURE VOLUME PRESSAVG GPRESSAVG
ENERGY: 0 0.0000 0.1877 0.0000 0.0000 -10692.7332 1335.3392 0.0000 0.0000 1732.7471 -7624.4592 293.1444 -9357.2063 -7624.4592 293.1444 -1025.7817 -930.2239 30816.1422 -1025.7817 -930.2239
ENERGY: 300000 0.0000 1.7767 0.0000 0.0000 -10870.4191 1515.3823 0.0000 0.0000 1817.2940 -7535.9661 307.4480 -9353.2600 -7568.3614 300.9122 539.1072 640.8824 30399.3731 -233.8475 -179.3283
ENERGY: 600000 0.0000 0.1199 0.0000 0.0000 -10823.7367 1444.9540 0.0000 0.0000 1764.6329 -7614.0299 298.5388 -9378.6629 -7574.0093 301.0994 -252.9245 -138.6128 30760.3098 -26.8819 39.9316
ENERGY: 900000 0.0000 0.0112 0.0000 0.0000 -10837.9594 1460.8214 0.0000 0.0000 1733.4166 -7643.7102 293.2577 -9377.1269 -7604.4678 298.6142 -172.1143 -88.6271 30806.7463 -101.3485 -25.0666
ENERGY: 1200000 0.0000 0.1200 0.0000 0.0000 -10796.2146 1434.6586 0.0000 0.0000 1775.6037 -7585.8323 300.3948 -9361.4360 -7596.7480 299.6709 -189.4889 -47.6381 30572.7590 -58.6441 17.7861
ENERGY: 1500000 0.0000 1.3024 0.0000 0.0000 -10840.0050 1428.4939 0.0000 0.0000 1771.4446 -7638.7641 299.6912 -9410.2087 -7599.9007 299.5095 -612.6932 -554.9615 31003.5337 -95.4586 -24.8893
TCL: Running FEP window   9: Lambda1 0.5999999999999996 Lambda2 0.5499999999999996 [dLambda -0.050000000000000044]
TCL: Setting parameter firsttimestep to 0
TCL: Setting parameter alchLambda to 0.5999999999999996
Info: NONBONDED TABLE R-SQUARED SPACING: 0.0625
Info: NONBONDED TABLE SIZE: 705 POINTS
TCL: Setting parameter alchLambda2 to 0.5499999999999996
Info: NONBONDED TABLE R-SQUARED SPACING: 0.0625
Info: NONBONDED TABLE SIZE: 705 POINTS
TCL: Running for 1500000 steps
ETITLE: TS BOND ANGLE DIHED IMPRP ELECT VDW BOUNDARY MISC KINETIC TOTAL TEMP POTENTIAL TOTALAVG TEMPAVG PRESSURE GPRESSURE VOLUME PRESSAVG GPRESSAVG
ENERGY: 0 0.0000 1.3024 0.0000 0.0000 -10839.6923 1428.4535 0.0000 0.0000 1770.5865 -7639.3498 299.5460 -9409.9364 -7639.3498 299.5460 -632.5015 -555.9516 31003.5337 -632.5015 -555.9516
ENERGY: 300000 0.0000 1.9564 0.0000 0.0000 -10694.3945 1390.1465 0.0000 0.0000 1797.3807 -7504.9108 304.0790 -9302.2916 -7583.4499 300.2322 -285.7779 -204.1193 30517.7321 -170.9870 -102.1335
ENERGY: 600000 0.0000 0.5891 0.0000 0.0000 -10806.8804 1376.0470 0.0000 0.0000 1797.5291 -7632.7151 304.1042 -9430.2442 -7597.1136 300.0921 -1009.0897 -927.6968 30787.5958 -308.1747 -237.6838
ENERGY: 900000 0.0000 0.8438 0.0000 0.0000 -10794.5217 1430.7040 0.0000 0.0000 1768.3641 -7594.6097 299.1701 -9362.9738 -7579.6530 300.6330 -804.4971 -721.7364 31907.9507 -289.2610 -218.2681
ENERGY: 1200000 0.0000 0.6212 0.0000 0.0000 -10738.3028 1400.6779 0.0000 0.0000 1791.2274 -7545.7763 303.0380 -9337.0037 -7584.2524 299.6200 -300.7335 -308.2406 30794.8299 -264.9871 -202.7108
ENERGY: 1500000 0.0000 1.0614 0.0000 0.0000 -10798.3220 1495.5328 0.0000 0.0000 1742.9651 -7558.7628 294.8731 -9301.7279 -7583.8748 299.6470 394.5835 406.6363 30706.9825 -188.1050 -128.4449
TCL: Running FEP window  10: Lambda1 0.5499999999999996 Lambda2 0.4999999999999996 [dLambda -0.04999999999999999]
TCL: Setting parameter firsttimestep to 0
TCL: Setting parameter alchLambda to 0.5499999999999996
Info: NONBONDED TABLE R-SQUARED SPACING: 0.0625
Info: NONBONDED TABLE SIZE: 705 POINTS
TCL: Setting parameter alchLambda2 to 0.4999999999999996
Info: NONBONDED TABLE R-SQUARED SPACING: 0.0625
Info: NONBONDED TABLE SIZE: 705 POINTS
TCL: Running for 1500000 steps
ETITLE: TS BOND ANGLE DIHED IMPRP ELECT VDW BOUNDARY MISC KINETIC TOTAL TEMP POTENTIAL TOTALAVG TEMPAVG PRESSURE GPRESSURE VOLUME PRESSAVG GPRESSAVG
ENERGY: 0 0.0000 1.0614 0.0000 0.0000 -10797.8302 1495.3448 0.0000 0.0000 1742.0951 -7559.3289 294.7259 -9301.4240 -7559.3289 294.7259 330.0796 404.0864 30706.9825 330.0796 404.0864
ENERGY: 300000 0.0000 0.3041 0.0000 0.0000 -10832.8501 1495.6300 0.0000 0.0000 1789.1070 -7547.8090 302.6793 -9336.9160 -7565.5236 295.9153 288.2826 372.9638 30797.8094 191.6555 261.8071
ENERGY: 600000 0.0000 0.7232 0.0000 0.0000 -10814.0910 1468.0990 0.0000 0.0000 1813.4350 -7531.8337 306.7951 -9345.2688 -7569.5667 297.5972 4.2699 135.5444 30712.2807 386.8823 451.2211
ENERGY: 900000 0.0000 0.5325 0.0000 0.0000 -10788.2263 1390.7446 0.0000 0.0000 1787.3585 -7609.5907 302.3835 -9396.9492 -7579.7600 299.7810 -759.9236 -673.3045 30699.6377 191.9660 259.4208
ENERGY: 1200000 0.0000 0.2094 0.0000 0.0000 -10747.8317 1370.2470 0.0000 0.0000 1732.9830 -7644.3923 293.1843 -9377.3753 -7576.5908 299.0723 -841.9281 -795.9137 30840.3127 -47.9924 18.5931
ENERGY: 1500000 0.0000 1.0499 0.0000 0.0000 -10904.5763 1523.4560 0.0000 0.0000 1752.9078 -7627.1627 296.5552 -9380.0704 -7584.6345 298.6734 390.6977 507.9583 30430.5544 -94.9341 -22.1018
TCL: Running FEP window  11: Lambda1 0.4999999999999996 Lambda2 0.4499999999999996 [dLambda -0.04999999999999999]
TCL: Setting parameter firsttimestep to 0
TCL: Setting parameter alchLambda to 0.4999999999999996
Info: NONBONDED TABLE R-SQUARED SPACING: 0.0625
Info: NONBONDED TABLE SIZE: 705 POINTS
TCL: Setting parameter alchLambda2 to 0.4499999999999996
Info: NONBONDED TABLE R-SQUARED SPACING: 0.0625
Info: NONBONDED TABLE SIZE: 705 POINTS
TCL: Running for 1500000 steps
ETITLE: TS BOND ANGLE DIHED IMPRP ELECT VDW BOUNDARY MISC KINETIC TOTAL TEMP POTENTIAL TOTALAVG TEMPAVG PRESSURE GPRESSURE VOLUME PRESSAVG GPRESSAVG
ENERGY: 0 0.0000 1.0499 0.0000 0.0000 -10904.3021 1523.3126 0.0000 0.0000 1752.0145 -7627.9252 296.4040 -9379.9397 -7627.9252 296.4040 408.6358 503.9830 30430.5544 408.6358 503.9830
ENERGY: 300000 0.0000 1.2007 0.0000 0.0000 -10841.0091 1457.7362 0.0000 0.0000 1735.2314 -7646.8408 293.5647 -9382.0722 -7617.7795 294.6075 -124.4629 -93.7832 30672.5619 28.5118 80.7777
ENERGY: 600000 0.0000 0.5107 0.0000 0.0000 -10760.3185 1389.8648 0.0000 0.0000 1766.9127 -7603.0304 298.9245 -9369.9431 -7613.4540 296.0513 -457.1288 -354.9612 30197.2404 -148.9851 -89.2480
ENERGY: 900000 0.0000 1.4287 0.0000 0.0000 -10865.1199 1533.8630 0.0000 0.0000 1740.3513 -7589.4769 294.4309 -9329.8282 -7612.4533 297.0496 693.0587 742.6334 30520.6235 -66.6272 -5.0082
ENERGY: 1200000 0.0000 0.2354 0.0000 0.0000 -10722.3939 1390.9208 0.0000 0.0000 1781.6585 -7549.5791 301.4192 -9331.2377 -7601.3751 297.7509 -483.0701 -383.0139 30543.6000 -12.2332 54.4584
ENERGY: 1500000 0.0000 1.8924 0.0000 0.0000 -10688.2862 1336.4166 0.0000 0.0000 1762.4854 -7587.4918 298.1755 -9349.9772 -7601.4092 297.9740 -872.7854 -832.3980 30572.9802 -11.9080 52.0060
TCL: Running FEP window  12: Lambda1 0.4499999999999996 Lambda2 0.39999999999999963 [dLambda -0.04999999999999999]
TCL: Setting parameter firsttimestep to 0
TCL: Setting parameter alchLambda to 0.4499999999999996
Info: NONBONDED TABLE R-SQUARED SPACING: 0.0625
Info: NONBONDED TABLE SIZE: 705 POINTS
TCL: Setting parameter alchLambda2 to 0.39999999999999963
Info: NONBONDED TABLE R-SQUARED SPACING: 0.0625
Info: NONBONDED TABLE SIZE: 705 POINTS
TCL: Running for 1500000 steps
ETITLE: TS BOND ANGLE DIHED IMPRP ELECT VDW BOUNDARY MISC KINETIC TOTAL TEMP POTENTIAL TOTALAVG TEMPAVG PRESSURE GPRESSURE VOLUME PRESSAVG GPRESSAVG
ENERGY: 0 0.0000 1.8924 0.0000 0.0000 -10688.2854 1336.3224 0.0000 0.0000 1761.6044 -7588.4662 298.0264 -9350.0706 -7588.4662 298.0264 -918.7298 -833.5549 30572.9802 -918.7298 -833.5549
ENERGY: 300000 0.0000 0.3437 0.0000 0.0000 -10745.8758 1364.3312 0.0000 0.0000 1725.8581 -7655.3428 291.9789 -9381.2009 -7611.1091 296.1504 -998.5390 -899.6391 30873.5682 -331.3919 -246.4146
ENERGY: 600000 0.0000 2.4383 0.0000 0.0000 -10765.2367 1349.7620 0.0000 0.0000 1712.0174 -7701.0191 289.6374 -9413.0365 -7604.9192 297.9300 -830.1325 -761.1844 30303.2142 -109.2419 -15.1521
ENERGY: 900000 0.0000 0.0252 0.0000 0.0000 -10726.7813 1410.3838 0.0000 0.0000 1729.0677 -7587.3046 292.5219 -9316.3723 -7595.8582 299.6236 -477.7023 -466.4538 31140.8855 -105.3537 -29.8536
ENERGY: 1200000 0.0000 0.3824 0.0000 0.0000 -10741.5855 1421.4877 0.0000 0.0000 1777.7340 -7541.9814 300.7552 -9319.7154 -7585.7219 300.7326 -397.6006 -327.8238 30896.7259 -72.5551 0.2409
ENERGY: 1500000 0.0000 1.9784 0.0000 0.0000 -10793.3711 1402.2915 0.0000 0.0000 1755.0249 -7634.0764 296.9133 -9389.1013 -7584.6385 300.5663 -577.4951 -491.0083 30588.3711 -96.3552 -26.5578
TCL: Running FEP window  13: Lambda1 0.39999999999999963 Lambda2 0.34999999999999964 [dLambda -0.04999999999999999]
TCL: Setting parameter firsttimestep to 0
TCL: Setting parameter alchLambda to 0.39999999999999963
Info: NONBONDED TABLE R-SQUARED SPACING: 0.0625
Info: NONBONDED TABLE SIZE: 705 POINTS
TCL: Setting parameter alchLambda2 to 0.34999999999999964
Info: NONBONDED TABLE R-SQUARED SPACING: 0.0625
Info: NONBONDED TABLE SIZE: 705 POINTS
TCL: Running for 1500000 steps
ETITLE: TS BOND ANGLE DIHED IMPRP ELECT VDW BOUNDARY MISC KINETIC TOTAL TEMP POTENTIAL TOTALAVG TEMPAVG PRESSURE GPRESSURE VOLUME PRESSAVG GPRESSAVG
ENERGY: 0 0.0000 1.9784 0.0000 0.0000 -10793.3723 1402.2909 0.0000 0.0000 1754.1589 -7634.9441 296.7668 -9389.1030 -7634.9441 296.7668 -578.8320 -489.7186 30588.3711 -578.8320 -489.7186
ENERGY: 300000 0.0000 0.1363 0.0000 0.0000 -10887.2109 1517.0908 0.0000 0.0000 1793.1342 -7576.8496 303.3606 -9369.9838 -7574.0915 301.8332 486.9464 565.5372 30425.4089 108.3220 184.4977
ENERGY: 600000 0.0000 2.6470 0.0000 0.0000 -10841.5625 1484.3680 0.0000 0.0000 1779.7160 -7574.8315 301.0905 -9354.5475 -7552.8976 302.3499 490.6061 538.9577 30231.2369 204.6271 282.7591
ENERGY: 900000 0.0000 2.3281 0.0000 0.0000 -10792.1522 1459.9550 0.0000 0.0000 1833.8736 -7495.9954 310.2529 -9329.8690 -7545.0000 302.5891 248.9352 301.4255 30184.0220 140.5594 215.7384
ENERGY: 1200000 0.0000 1.2239 0.0000 0.0000 -10913.4413 1504.9992 0.0000 0.0000 1814.4443 -7592.7739 306.9658 -9407.2182 -7548.1457 303.0041 243.3051 327.5888 30537.1806 105.9791 185.2277
ENERGY: 1500000 0.0000 1.0353 0.0000 0.0000 -10765.9991 1406.7173 0.0000 0.0000 1742.9111 -7615.3353 294.8639 -9358.2464 -7551.8175 302.6148 -405.4753 -324.6856 30447.2617 21.2211 101.2558
TCL: Running FEP window  14: Lambda1 0.34999999999999964 Lambda2 0.29999999999999966 [dLambda -0.04999999999999999]
TCL: Setting parameter firsttimestep to 0
TCL: Setting parameter alchLambda to 0.34999999999999964
Info: NONBONDED TABLE R-SQUARED SPACING: 0.0625
Info: NONBONDED TABLE SIZE: 705 POINTS
TCL: Setting parameter alchLambda2 to 0.29999999999999966
Info: NONBONDED TABLE R-SQUARED SPACING: 0.0625
Info: NONBONDED TABLE SIZE: 705 POINTS
TCL: Running for 1500000 steps
ETITLE: TS BOND ANGLE DIHED IMPRP ELECT VDW BOUNDARY MISC KINETIC TOTAL TEMP POTENTIAL TOTALAVG TEMPAVG PRESSURE GPRESSURE VOLUME PRESSAVG GPRESSAVG
ENERGY: 0 0.0000 1.0353 0.0000 0.0000 -10765.9990 1406.3259 0.0000 0.0000 1742.0882 -7616.5496 294.7247 -9358.6378 -7616.5496 294.7247 -418.3882 -328.1015 30447.2617 -418.3882 -328.1015
ENERGY: 300000 0.0000 1.5083 0.0000 0.0000 -10869.9802 1473.2864 0.0000 0.0000 1881.3410 -7513.8445 318.2834 -9395.1854 -7572.5266 303.5922 373.1507 396.2274 30111.1238 -215.3200 -162.3337
ENERGY: 600000 0.0000 0.5648 0.0000 0.0000 -10803.9019 1449.0655 0.0000 0.0000 1748.6864 -7605.5852 295.8410 -9354.2716 -7586.2845 300.7404 -116.3280 -20.0352 30306.1729 -152.7235 -100.1122
ENERGY: 900000 0.0000 1.8092 0.0000 0.0000 -10890.0829 1458.0850 0.0000 0.0000 1844.3673 -7585.8214 312.0282 -9430.1887 -7586.4386 301.0595 -172.8135 -36.2807 30490.6021 -153.2999 -84.3970
ENERGY: 1200000 0.0000 1.1657 0.0000 0.0000 -10880.2981 1459.6469 0.0000 0.0000 1820.6821 -7598.8034 308.0212 -9419.4855 -7578.0963 301.5671 10.4895 32.3277 30450.9272 -40.7119 21.8550
ENERGY: 1500000 0.0000 0.4403 0.0000 0.0000 -10733.5907 1452.9871 0.0000 0.0000 1804.0052 -7476.1581 305.1998 -9280.1633 -7575.4505 301.2480 268.7060 374.3277 30446.2687 -51.5823 23.2970
TCL: Running FEP window  15: Lambda1 0.29999999999999966 Lambda2 0.24999999999999967 [dLambda -0.04999999999999999]
TCL: Setting parameter firsttimestep to 0
TCL: Setting parameter alchLambda to 0.29999999999999966
Info: NONBONDED TABLE R-SQUARED SPACING: 0.0625
Info: NONBONDED TABLE SIZE: 705 POINTS
TCL: Setting parameter alchLambda2 to 0.24999999999999967
Info: NONBONDED TABLE R-SQUARED SPACING: 0.0625
Info: NONBONDED TABLE SIZE: 705 POINTS
TCL: Running for 1500000 steps
ETITLE: TS BOND ANGLE DIHED IMPRP ELECT VDW BOUNDARY MISC KINETIC TOTAL TEMP POTENTIAL TOTALAVG TEMPAVG PRESSURE GPRESSURE VOLUME PRESSAVG GPRESSAVG
ENERGY: 0 0.0000 0.4403 0.0000 0.0000 -10733.5912 1452.9971 0.0000 0.0000 1803.1024 -7477.0514 305.0470 -9280.1538 -7477.0514 305.0470 295.5797 374.7802 30446.2687 295.5797 374.7802
ENERGY: 300000 0.0000 0.2857 0.0000 0.0000 -10846.0750 1490.6569 0.0000 0.0000 1793.0823 -7562.0501 303.3518 -9355.1324 -7574.5358 298.2812 64.7879 109.0072 31018.8831 -71.1359 -6.1870
ENERGY: 600000 0.0000 0.2526 0.0000 0.0000 -10848.4436 1479.1208 0.0000 0.0000 1813.3468 -7555.7234 306.7802 -9369.0702 -7578.9945 301.1776 127.0361 232.5820 30451.2790 -67.8696 -0.3667
ENERGY: 900000 0.0000 1.2261 0.0000 0.0000 -10754.0404 1406.2233 0.0000 0.0000 1843.9387 -7502.6522 311.9557 -9346.5910 -7577.7333 301.9602 -467.8795 -399.6201 30809.7984 -229.1153 -159.1367
ENERGY: 1200000 0.0000 0.5941 0.0000 0.0000 -10770.8398 1423.7229 0.0000 0.0000 1803.8412 -7542.6817 305.1720 -9346.5229 -7566.1151 301.8863 -383.7441 -371.0894 31031.5261 -241.8084 -176.6086
ENERGY: 1500000 0.0000 1.6256 0.0000 0.0000 -10806.5206 1435.9274 0.0000 0.0000 1777.7583 -7591.2094 300.7593 -9368.9676 -7571.6428 301.3483 -159.1062 -125.3362 30553.4954 -222.3246 -152.5507
TCL: Running FEP window  16: Lambda1 0.24999999999999967 Lambda2 0.19999999999999968 [dLambda -0.04999999999999999]
TCL: Setting parameter firsttimestep to 0
TCL: Setting parameter alchLambda to 0.24999999999999967
Info: NONBONDED TABLE R-SQUARED SPACING: 0.0625
Info: NONBONDED TABLE SIZE: 705 POINTS
TCL: Setting parameter alchLambda2 to 0.19999999999999968
Info: NONBONDED TABLE R-SQUARED SPACING: 0.0625
Info: NONBONDED TABLE SIZE: 705 POINTS
TCL: Running for 1500000 steps
ETITLE: TS BOND ANGLE DIHED IMPRP ELECT VDW BOUNDARY MISC KINETIC TOTAL TEMP POTENTIAL TOTALAVG TEMPAVG PRESSURE GPRESSURE VOLUME PRESSAVG GPRESSAVG
ENERGY: 0 0.0000 1.6256 0.0000 0.0000 -10806.5213 1435.8615 0.0000 0.0000 1776.8614 -7592.1728 300.6076 -9369.0342 -7592.1728 300.6076 -209.6397 -127.3315 30553.4954 -209.6397 -127.3315
ENERGY: 300000 0.0000 1.9901 0.0000 0.0000 -10755.4075 1442.1114 0.0000 0.0000 1710.2520 -7601.0540 289.3387 -9311.3060 -7587.7494 296.2618 188.0884 218.9604 30255.1803 -92.3560 -31.9098
ENERGY: 600000 0.0000 0.3977 0.0000 0.0000 -10711.1737 1401.9185 0.0000 0.0000 1727.1940 -7581.6635 292.2049 -9308.8575 -7596.7259 296.1579 -118.4203 -92.4196 30325.2473 -144.4201 -96.6773
ENERGY: 900000 0.0000 1.3851 0.0000 0.0000 -10841.5008 1499.0853 0.0000 0.0000 1817.3680 -7523.6624 307.4605 -9341.0304 -7574.2341 297.9248 245.4409 388.1313 30366.9364 -123.8458 -59.1603
ENERGY: 1200000 0.0000 0.4496 0.0000 0.0000 -10846.4051 1429.6672 0.0000 0.0000 1761.1876 -7655.1007 297.9559 -9416.2883 -7571.3658 298.4172 -477.3337 -407.6713 30689.2064 -101.8587 -35.4811
ENERGY: 1500000 0.0000 1.8037 0.0000 0.0000 -10867.5766 1509.6496 0.0000 0.0000 1759.7509 -7596.3724 297.7129 -9356.1233 -7576.7614 298.7997 233.0806 293.0804 30836.6459 -69.0147 -12.8080
TCL: Running FEP window  17: Lambda1 0.19999999999999968 Lambda2 0.1499999999999997 [dLambda -0.04999999999999999]
TCL: Setting parameter firsttimestep to 0
TCL: Setting parameter alchLambda to 0.19999999999999968
Info: NONBONDED TABLE R-SQUARED SPACING: 0.0625
Info: NONBONDED TABLE SIZE: 705 POINTS
TCL: Setting parameter alchLambda2 to 0.1499999999999997
Info: NONBONDED TABLE R-SQUARED SPACING: 0.0625
Info: NONBONDED TABLE SIZE: 705 POINTS
TCL: Running for 1500000 steps
ETITLE: TS BOND ANGLE DIHED IMPRP ELECT VDW BOUNDARY MISC KINETIC TOTAL TEMP POTENTIAL TOTALAVG TEMPAVG PRESSURE GPRESSURE VOLUME PRESSAVG GPRESSAVG
ENERGY: 0 0.0000 1.8037 0.0000 0.0000 -10867.5771 1509.6974 0.0000 0.0000 1758.8770 -7597.1990 297.5650 -9356.0760 -7597.1990 297.5650 211.0989 292.9373 30836.6459 211.0989 292.9373
ENERGY: 300000 0.0000 0.1980 0.0000 0.0000 -10759.3729 1430.0350 0.0000 0.0000 1702.6196 -7626.5203 288.0475 -9329.1399 -7585.6449 297.3464 -468.7445 -329.6107 30882.3012 -80.1438 26.1419
ENERGY: 600000 0.0000 1.6217 0.0000 0.0000 -10943.8129 1514.7298 0.0000 0.0000 1723.9175 -7703.5440 291.6506 -9427.4614 -7612.2290 296.6811 241.0872 284.7102 30563.1726 12.7343 95.3192
ENERGY: 900000 0.0000 0.2552 0.0000 0.0000 -10749.1138 1437.5179 0.0000 0.0000 1789.2466 -7522.0942 302.7029 -9311.3408 -7595.0122 297.7805 -150.7122 -113.8262 30834.9975 53.5676 128.1287
ENERGY: 1200000 0.0000 0.0129 0.0000 0.0000 -10730.3733 1417.5477 0.0000 0.0000 1757.9961 -7554.8165 297.4160 -9312.8126 -7602.0479 297.0132 -451.6585 -417.2799 31160.0007 -6.1026 61.4585
ENERGY: 1500000 0.0000 1.0159 0.0000 0.0000 -10845.4226 1471.9813 0.0000 0.0000 1762.4256 -7609.9998 298.1654 -9372.4254 -7597.6559 297.8932 -59.8863 43.4242 30610.9297 -28.4374 41.0879
TCL: Running FEP window  18: Lambda1 0.1499999999999997 Lambda2 0.09999999999999969 [dLambda -0.05 ]
TCL: Setting parameter firsttimestep to 0
TCL: Setting parameter alchLambda to 0.1499999999999997
Info: NONBONDED TABLE R-SQUARED SPACING: 0.0625
Info: NONBONDED TABLE SIZE: 705 POINTS
TCL: Setting parameter alchLambda2 to 0.09999999999999969
Info: NONBONDED TABLE R-SQUARED SPACING: 0.0625
Info: NONBONDED TABLE SIZE: 705 POINTS
TCL: Running for 1500000 steps
ETITLE: TS BOND ANGLE DIHED IMPRP ELECT VDW BOUNDARY MISC KINETIC TOTAL TEMP POTENTIAL TOTALAVG TEMPAVG PRESSURE GPRESSURE VOLUME PRESSAVG GPRESSAVG
ENERGY: 0 0.0000 1.0159 0.0000 0.0000 -10845.4230 1471.4336 0.0000 0.0000 1761.5603 -7611.4132 298.0190 -9372.9735 -7611.4132 298.0190 -45.9132 40.3983 30610.9297 -45.9132 40.3983
ENERGY: 300000 0.0000 1.4827 0.0000 0.0000 -10807.1842 1467.3051 0.0000 0.0000 1720.7860 -7617.6104 291.1208 -9338.3964 -7594.1553 293.8184 -228.4103 -129.8983 30891.1324 -141.7581 -75.8978
ENERGY: 600000 0.0000 2.1980 0.0000 0.0000 -10769.5184 1385.8107 0.0000 0.0000 1739.4264 -7642.0833 294.2744 -9381.5097 -7583.0324 294.1283 -719.8513 -661.0466 30856.2975 -119.5082 -45.2270
ENERGY: 900000 0.0000 2.2053 0.0000 0.0000 -10849.2313 1439.3791 0.0000 0.0000 1739.9053 -7667.7415 294.3554 -9407.6469 -7584.2579 294.6652 -455.3562 -366.5987 30626.8399 -173.9468 -99.7087
ENERGY: 1200000 0.0000 0.4174 0.0000 0.0000 -10825.1805 1459.6358 0.0000 0.0000 1808.0590 -7557.0683 305.8856 -9365.1273 -7582.8869 296.2296 -94.0950 6.0632 30743.4095 -196.3024 -123.9872
ENERGY: 1500000 0.0000 0.2603 0.0000 0.0000 -10940.6659 1579.5224 0.0000 0.0000 1770.3205 -7590.5628 299.5010 -9360.8833 -7589.7514 296.7172 884.0298 937.4270 30512.8279 -137.0643 -65.0934
TCL: Running FEP window  19: Lambda1 0.09999999999999969 Lambda2 0.049999999999999684 [dLambda -0.05 ]
TCL: Setting parameter firsttimestep to 0
TCL: Setting parameter alchLambda to 0.09999999999999969
Info: NONBONDED TABLE R-SQUARED SPACING: 0.0625
Info: NONBONDED TABLE SIZE: 705 POINTS
TCL: Setting parameter alchLambda2 to 0.049999999999999684
Info: NONBONDED TABLE R-SQUARED SPACING: 0.0625
Info: NONBONDED TABLE SIZE: 705 POINTS
TCL: Running for 1500000 steps
ETITLE: TS BOND ANGLE DIHED IMPRP ELECT VDW BOUNDARY MISC KINETIC TOTAL TEMP POTENTIAL TOTALAVG TEMPAVG PRESSURE GPRESSURE VOLUME PRESSAVG GPRESSAVG
ENERGY: 0 0.0000 0.2603 0.0000 0.0000 -10940.6650 1579.4715 0.0000 0.0000 1769.4392 -7591.4940 299.3519 -9360.9333 -7591.4940 299.3519 850.9592 936.6635 30512.8279 850.9592 936.6635
ENERGY: 300000 0.0000 0.1660 0.0000 0.0000 -10919.7351 1545.5686 0.0000 0.0000 1781.1800 -7592.8205 301.3382 -9374.0004 -7590.0165 299.5313 673.2943 725.1675 30406.8219 142.3958 225.8448
ENERGY: 600000 0.0000 0.0073 0.0000 0.0000 -10893.3759 1504.9218 0.0000 0.0000 1739.4546 -7648.9922 294.2792 -9388.4468 -7565.9760 299.6834 353.2465 391.3385 30391.1934 81.0350 145.1218
ENERGY: 900000 0.0000 0.4845 0.0000 0.0000 -10816.0852 1395.8505 0.0000 0.0000 1829.8041 -7589.9462 309.5644 -9419.7503 -7573.7397 300.7238 -682.8730 -677.4583 30850.1193 -4.0576 57.0120
ENERGY: 1200000 0.0000 0.7985 0.0000 0.0000 -10767.0211 1406.8154 0.0000 0.0000 1800.7312 -7558.6760 304.6459 -9359.4072 -7571.5735 301.1441 -395.7784 -311.5883 30617.5083 -27.2722 37.6921
ENERGY: 1500000 0.0000 1.6310 0.0000 0.0000 -10764.5504 1433.4069 0.0000 0.0000 1807.0651 -7522.4474 305.7174 -9329.5125 -7560.2989 301.6170 -235.3114 -130.2625 30807.3570 -77.1891 -4.8620
TCL: Running FEP window  20: Lambda1 0.049999999999999684 Lambda2 0.0    [dLambda -0.049999999999999684]
TCL: Setting parameter firsttimestep to 0
TCL: Setting parameter alchLambda to 0.049999999999999684
Info: NONBONDED TABLE R-SQUARED SPACING: 0.0625
Info: NONBONDED TABLE SIZE: 705 POINTS
TCL: Setting parameter alchLambda2 to 0.0
Info: NONBONDED TABLE R-SQUARED SPACING: 0.0625
Info: NONBONDED TABLE SIZE: 705 POINTS
TCL: Running for 1500000 steps
ETITLE: TS BOND ANGLE DIHED IMPRP ELECT VDW BOUNDARY MISC KINETIC TOTAL TEMP POTENTIAL TOTALAVG TEMPAVG PRESSURE GPRESSURE VOLUME PRESSAVG GPRESSAVG
ENERGY: 0 0.0000 1.6310 0.0000 0.0000 -10764.5490 1433.3324 0.0000 0.0000 1806.2007 -7523.3851 305.5712 -9329.5857 -7523.3851 305.5712 -223.0679 -129.2306 30807.3570 -223.0679 -129.2306
ENERGY: 300000 0.0000 0.4039 0.0000 0.0000 -10954.5870 1520.4530 0.0000 0.0000 1776.0851 -7657.6450 300.4763 -9433.7301 -7579.4364 300.2131 296.9910 354.4786 30458.2369 -232.2961 -185.3709
ENERGY: 600000 0.0000 0.1560 0.0000 0.0000 -10983.9593 1538.1673 0.0000 0.0000 1813.9413 -7631.6946 306.8808 -9445.6359 -7574.3500 301.5274 724.7878 767.6684 29897.3787 -132.9451 -92.5581
ENERGY: 900000 0.0000 0.3639 0.0000 0.0000 -10717.2598 1392.2323 0.0000 0.0000 1733.4459 -7591.2177 293.2626 -9324.6636 -7583.5861 299.3462 -418.7470 -347.9224 30679.2762 -129.0256 -74.8471
ENERGY: 1200000 0.0000 0.9290 0.0000 0.0000 -10944.9856 1550.7121 0.0000 0.0000 1767.3092 -7626.0353 298.9916 -9393.3445 -7587.1460 299.7953 583.1513 609.0555 30529.6328 -97.9328 -42.0299
ENERGY: 1500000 0.0000 1.2058 0.0000 0.0000 -10832.9778 1451.0841 0.0000 0.0000 1786.2211 -7594.4669 302.1911 -9380.6880 -7581.2731 299.8852 -146.5426 -46.3438 30603.1197 -137.2703 -74.5553
TCL: Exiting due to exit command.
