Info: SIMULATION PARAMETERS:
Info: TIMESTEP               2
Info: NUMBER OF STEPS        0
Info: STEPS PER CYCLE        10
Info: PERIODIC CELL BASIS 1  35.01 0 0
Info: PERIODIC CELL BASIS 2  0 34.26 0
Info: PERIODIC CELL BASIS 3  0 0 36.199
Info: PERIODIC CELL CENTER   0 0 0
Info: WRAPPING WATERS AROUND PERIODIC BOUNDARIES ON OUTPUT.
Info: WRAPPING ALL CLUSTERS AROUND PERIODIC BOUNDARIES ON OUTPUT.
Info: FIRST LDB TIMESTEP     50
Info: LAST LDB TIMESTEP     -1
Info: HOM BACKGROUND SCALING 1
Info: PME BACKGROUND SCALING 1
Info: MIN ATOMS PER PATCH    40
Info: EMPTY PATCH LOAD       40 ATOMS
Info: INITIAL TEMPERATURE    300
Info: CENTER OF MASS MOVING INITIALLY? NO
Info: DIELECTRIC             1
Info: EXCLUDE                SCALED ONE-FOUR
Info: 1-4 ELECTROSTATICS SCALED BY 0.833333
Info: MODIFIED 1-4 VDW PARAMETERS WILL BE USED
Info: DCD FILENAME           mobley_5692472_equil.dcd
Info: DCD FREQUENCY          100000
Info: DCD FIRST STEP         100000
Info: DCD FILE WILL CONTAIN UNIT CELL DATA
Info: XST FILENAME           mobley_5692472_equil.xst
Info: XST FREQUENCY          100000
Info: NO VELOCITY DCD OUTPUT
Info: NO FORCE DCD OUTPUT
Info: OUTPUT FILENAME        mobley_5692472_equil
Info: BINARY OUTPUT FILES WILL BE USED
Info: RESTART FILENAME       mobley_5692472_equil.restart
Info: RESTART FREQUENCY      100000
Info: BINARY RESTART FILES WILL BE USED
Info: CUTOFF                 9
Info: PAIRLIST DISTANCE      11
Info: PAIRLIST SHRINK RATE   0.01
Info: PAIRLIST GROW RATE     0.01
Info: PAIRLIST TRIGGER       0.3
Info: PAIRLISTS PER CYCLE    2
Info: PAIRLISTS ENABLED
Info: MARGIN                 8
Info: HYDROGEN GROUP CUTOFF  2.5
Info: PATCH DIMENSION        21.5
Info: ENERGY OUTPUT STEPS    100000
Info: ENERGY EVALUATION STEPS    100000
Info: OUTPUT ENERGY PRECISION 4
Info: CROSSTERM ENERGY INCLUDED IN DIHEDRAL
Info: TIMING OUTPUT STEPS    1000000
Info: PRESSURE OUTPUT STEPS  100000
Info: FIXED ATOMS ACTIVE
Info: LANGEVIN DYNAMICS ACTIVE
Info: LANGEVIN TEMPERATURE   30
Info: LANGEVIN USING BBK INTEGRATOR
Info: LANGEVIN DAMPING COEFFICIENT IS 1 INVERSE PS
Info: LANGEVIN DYNAMICS APPLIED TO HYDROGENS
Info: LANGEVIN PISTON PRESSURE CONTROL ACTIVE
Info:        TARGET PRESSURE IS 1.01325 BAR
Info:     OSCILLATION PERIOD IS 50 FS
Info:             DECAY TIME IS 25 FS
Info:     PISTON TEMPERATURE IS 300 K
Info:       PRESSURE CONTROL IS GROUP-BASED
Info:    INITIAL STRAIN RATE IS 0 0 0
Info:       CELL FLUCTUATION IS ISOTROPIC
Info: PARTICLE MESH EWALD (PME) ACTIVE
Info: PME TOLERANCE               1e-06
Info: PME EWALD COEFFICIENT       0.348832
Info: PME INTERPOLATION ORDER     4
Info: PME GRID DIMENSIONS         36 36 40
Info: PME MAXIMUM GRID SPACING    1
Info: FULL ELECTROSTATIC EVALUATION FREQUENCY      2
Info: USING VERLET I (r-RESPA) MTS SCHEME.
Info: C1 SPLITTING OF LONG RANGE ELECTROSTATICS
Info: PLACING ATOMS IN PATCHES BY HYDROGEN GROUPS
Info: RIGID BONDS TO HYDROGEN : ALL
Info:         ERROR TOLERANCE : 1e-08
Info:          MAX ITERATIONS : 100
Info: RIGID WATER USING SETTLE ALGORITHM
Info: RANDOM NUMBER SEED     1742451020
Info: USE HYDROGEN BONDS?    NO
Info: Using AMBER format force field!
Info: AMBER PARM FILE        mobley_5692472.prmtop
Info: COORDINATE PDB         mobley_5692472.pdb
Info: Exclusions will be read from PARM file!
Info: SCNB (VDW SCALING)     2
Info: USING ARITHMETIC MEAN TO COMBINE L-J SIGMA PARAMETERS
Info: BINARY COORDINATES     mobley_5692472_min.coor
Info: SUMMARY OF PARAMETERS:
Info: 5 BONDS
Info: 4 ANGLES
Info:   4 HARMONIC
Info:   0 COSINE-BASED
Info: 2 DIHEDRAL
Info: 0 IMPROPER
Info: 0 CROSSTERM
Info: 0 VDW
Info: 21 VDW_PAIRS
Info: 0 NBTHOLE_PAIRS
Info: STRUCTURE SUMMARY:
Info: 2941 ATOMS
Info: 2940 BONDS
Info: 15 ANGLES
Info: 12 DIHEDRALS
Info: 0 IMPROPERS
Info: 0 CROSSTERMS
Info: 2967 EXCLUSIONS
Info: 10 FIXED ATOMS
Info: 2938 RIGID BONDS
Info: 7 RIGID BONDS BETWEEN FIXED ATOMS
Info: 5862 DEGREES OF FREEDOM
Info: 980 HYDROGEN GROUPS
Info: 4 ATOMS IN LARGEST HYDROGEN GROUP
Info: 980 MIGRATION GROUPS
Info: 4 ATOMS IN LARGEST MIGRATION GROUP
Info: 3 HYDROGEN GROUPS WITH ALL ATOMS FIXED
Info: TOTAL MASS = 17646.7 amu
Info: TOTAL CHARGE = 7.45058e-09 e
Info: MASS DENSITY = 0.674912 g/cm^3
Info: ATOM DENSITY = 0.0677359 atoms/A^3
Info: ADDED 0 IMPLICIT EXCLUSIONS
Info: NONBONDED TABLE R-SQUARED SPACING: 0.0625
Info: NONBONDED TABLE SIZE: 705 POINTS
Info: REMOVING COM VELOCITY 0.089956 -0.171821 -0.123196
TCL: Running for 100000 steps
ETITLE: TS BOND ANGLE DIHED IMPRP ELECT VDW BOUNDARY MISC KINETIC TOTAL TEMP POTENTIAL TOTAL3 TEMPAVG PRESSURE GPRESSURE VOLUME PRESSAVG GPRESSAVG
ENERGY: 0 0.0000 0.0000 0.0000 0.0000 -13693.0794 2405.3006 0.0000 0.0000 1806.4511 -9481.3277 310.1493 -11287.7788 -9480.9670 310.1493 516.3911 550.3199 43418.6227 516.3911 550.3199
ENERGY: 100000 0.0000 0.0000 0.0000 0.0000 -14259.8462 2534.3523 0.0000 0.0000 173.0019 -11552.4920 29.7027 -11725.4939 -11551.9720 30.8649 733.5456 773.8484 28818.2616 3.6820 3.6187
TCL: Running 100000 steps at 60 kelvin.
TCL: Setting parameter langevinTemp to 60
TCL: Running for 100000 steps
ETITLE: TS BOND ANGLE DIHED IMPRP ELECT VDW BOUNDARY MISC KINETIC TOTAL TEMP POTENTIAL TOTAL3 TEMPAVG PRESSURE GPRESSURE VOLUME PRESSAVG GPRESSAVG
ENERGY: 100000 0.0000 0.0000 0.0000 0.0000 -14259.8462 2534.3523 0.0000 0.0000 172.9131 -11552.5808 29.6874 -11725.4939 -11552.2753 29.6874 725.0652 774.0356 28818.2616 725.0652 774.0356
ENERGY: 200000 0.0000 0.0000 0.0000 0.0000 -14047.1270 2313.2628 0.0000 0.0000 358.8194 -11375.0448 61.6056 -11733.8642 -11373.9966 59.8427 -845.5087 -789.8225 28266.0933 2.9714 2.9103
TCL: Running 100000 steps at 90 kelvin.
TCL: Setting parameter langevinTemp to 90
TCL: Running for 100000 steps
ETITLE: TS BOND ANGLE DIHED IMPRP ELECT VDW BOUNDARY MISC KINETIC TOTAL TEMP POTENTIAL TOTAL3 TEMPAVG PRESSURE GPRESSURE VOLUME PRESSAVG GPRESSAVG
ENERGY: 200000 0.0000 0.0000 0.0000 0.0000 -14047.1270 2313.2628 0.0000 0.0000 358.6412 -11375.2230 61.5750 -11733.8642 -11374.4747 61.5750 -866.4699 -789.7403 28266.0933 -866.4699 -789.7403
ENERGY: 300000 0.0000 0.0000 0.0000 0.0000 -13984.0488 2355.4894 0.0000 0.0000 528.1131 -11100.4462 90.6717 -11628.5594 -11099.0185 90.0161 -246.5367 -224.1950 28469.7324 3.5205 3.6483
TCL: Running 100000 steps at 120 kelvin.
TCL: Setting parameter langevinTemp to 120
TCL: Running for 100000 steps
ETITLE: TS BOND ANGLE DIHED IMPRP ELECT VDW BOUNDARY MISC KINETIC TOTAL TEMP POTENTIAL TOTAL3 TEMPAVG PRESSURE GPRESSURE VOLUME PRESSAVG GPRESSAVG
ENERGY: 300000 0.0000 0.0000 0.0000 0.0000 -13984.0488 2355.4894 0.0000 0.0000 527.8575 -11100.7019 90.6278 -11628.5594 -11099.7360 90.6278 -280.3477 -224.2301 28469.7324 -280.3477 -224.2301
ENERGY: 400000 0.0000 0.0000 0.0000 0.0000 -13825.4615 2330.4443 0.0000 0.0000 704.7384 -10790.2788 120.9964 -11495.0173 -10788.4859 119.9589 158.7969 178.8708 28500.0397 2.6872 2.6557
TCL: Running 100000 steps at 150 kelvin.
TCL: Setting parameter langevinTemp to 150
TCL: Running for 100000 steps
ETITLE: TS BOND ANGLE DIHED IMPRP ELECT VDW BOUNDARY MISC KINETIC TOTAL TEMP POTENTIAL TOTAL3 TEMPAVG PRESSURE GPRESSURE VOLUME PRESSAVG GPRESSAVG
ENERGY: 400000 0.0000 0.0000 0.0000 0.0000 -13825.4615 2330.4443 0.0000 0.0000 704.3848 -10790.6325 120.9357 -11495.0173 -10789.3849 120.9357 128.0410 179.8059 28500.0397 128.0410 179.8059
ENERGY: 500000 0.0000 0.0000 0.0000 0.0000 -13612.0851 2297.8619 0.0000 0.0000 893.8842 -10420.3390 153.4708 -11314.2232 -10417.8706 150.2154 541.1813 586.9333 28501.3101 4.1112 4.1384
TCL: Running 100000 steps at 180 kelvin.
TCL: Setting parameter langevinTemp to 180
TCL: Running for 100000 steps
ETITLE: TS BOND ANGLE DIHED IMPRP ELECT VDW BOUNDARY MISC KINETIC TOTAL TEMP POTENTIAL TOTAL3 TEMPAVG PRESSURE GPRESSURE VOLUME PRESSAVG GPRESSAVG
ENERGY: 500000 0.0000 0.0000 0.0000 0.0000 -13612.0851 2297.8619 0.0000 0.0000 893.4648 -10420.7584 153.3988 -11314.2232 -10419.0056 153.3988 523.0889 587.4986 28501.3101 523.0889 587.4986
ENERGY: 600000 0.0000 0.0000 0.0000 0.0000 -13094.3670 2108.4920 0.0000 0.0000 1059.8179 -9926.0571 181.9600 -10985.8750 -9923.3850 180.2916 15.3847 90.9571 28707.8410 3.8885 3.7300
TCL: Running 100000 steps at 210 kelvin.
TCL: Setting parameter langevinTemp to 210
TCL: Running for 100000 steps
ETITLE: TS BOND ANGLE DIHED IMPRP ELECT VDW BOUNDARY MISC KINETIC TOTAL TEMP POTENTIAL TOTAL3 TEMPAVG PRESSURE GPRESSURE VOLUME PRESSAVG GPRESSAVG
ENERGY: 600000 0.0000 0.0000 0.0000 0.0000 -13094.3670 2108.4920 0.0000 0.0000 1059.2962 -9926.5788 181.8704 -10985.8750 -9924.4981 181.8704 16.8351 90.4643 28707.8410 16.8351 90.4643
ENERGY: 700000 0.0000 0.0000 0.0000 0.0000 -12508.5066 1882.9412 0.0000 0.0000 1215.0031 -9410.5623 208.6037 -10625.5654 -9409.7750 210.1591 -331.1994 -226.1699 28640.7885 4.0480 3.9347
TCL: Running 100000 steps at 240 kelvin.
TCL: Setting parameter langevinTemp to 240
TCL: Running for 100000 steps
ETITLE: TS BOND ANGLE DIHED IMPRP ELECT VDW BOUNDARY MISC KINETIC TOTAL TEMP POTENTIAL TOTAL3 TEMPAVG PRESSURE GPRESSURE VOLUME PRESSAVG GPRESSAVG
ENERGY: 700000 0.0000 0.0000 0.0000 0.0000 -12508.5066 1882.9412 0.0000 0.0000 1214.3965 -9411.1689 208.4995 -10625.5654 -9409.1140 208.4995 -300.7245 -227.4882 28640.7885 -300.7245 -227.4882
ENERGY: 800000 0.0000 0.0000 0.0000 0.0000 -11817.5114 1705.2994 0.0000 0.0000 1389.9789 -8722.2331 238.6452 -10112.2120 -8717.9156 239.9281 -462.7403 -358.0839 29604.2242 2.2623 2.3332
TCL: Running 100000 steps at 270 kelvin.
TCL: Setting parameter langevinTemp to 270
TCL: Running for 100000 steps
ETITLE: TS BOND ANGLE DIHED IMPRP ELECT VDW BOUNDARY MISC KINETIC TOTAL TEMP POTENTIAL TOTAL3 TEMPAVG PRESSURE GPRESSURE VOLUME PRESSAVG GPRESSAVG
ENERGY: 800000 0.0000 0.0000 0.0000 0.0000 -11817.5114 1705.2994 0.0000 0.0000 1389.2648 -8722.9472 238.5226 -10112.2120 -8720.8497 238.5226 -449.1607 -357.1753 29604.2242 -449.1607 -357.1753
ENERGY: 900000 0.0000 0.0000 0.0000 0.0000 -11317.6630 1598.4757 0.0000 0.0000 1537.1516 -8182.0357 263.9133 -9719.1873 -8179.1196 269.5452 212.1347 337.7405 29281.4787 3.3292 3.1528
TCL: Running 1000000 steps at 300 kelvin.
TCL: Setting parameter langevinTemp to 300
TCL: Running for 1000000 steps
ETITLE: TS BOND ANGLE DIHED IMPRP ELECT VDW BOUNDARY MISC KINETIC TOTAL TEMP POTENTIAL TOTAL3 TEMPAVG PRESSURE GPRESSURE VOLUME PRESSAVG GPRESSAVG
ENERGY: 900000 0.0000 0.0000 0.0000 0.0000 -11317.6630 1598.4757 0.0000 0.0000 1536.3569 -8182.8304 263.7769 -9719.1873 -8180.8011 263.7769 249.7393 336.6175 29281.4787 249.7393 336.6175
ENERGY: 1100000 0.0000 0.0000 0.0000 0.0000 -10627.6151 1365.3285 0.0000 0.0000 1736.4178 -7525.8688 298.1253 -9262.2866 -7522.4203 299.9718 -549.7958 -522.5661 30581.3364 3.2196 3.0818
ENERGY: 1300000 0.0000 0.0000 0.0000 0.0000 -10753.5126 1477.5006 0.0000 0.0000 1771.6117 -7504.4004 304.1677 -9276.0120 -7501.3962 299.6750 461.6399 506.5055 30030.6755 3.6720 3.5206
ENERGY: 1500000 0.0000 0.0000 0.0000 0.0000 -10861.2202 1485.4102 0.0000 0.0000 1763.6941 -7612.1159 302.8083 -9375.8100 -7611.2773 300.2800 3.5506 133.9093 30456.5028 2.5832 2.6692
ENERGY: 1700000 0.0000 0.0000 0.0000 0.0000 -10683.9168 1405.9774 0.0000 0.0000 1726.2227 -7551.7167 296.3749 -9277.9394 -7549.7675 299.9503 -260.8030 -178.1648 30469.5058 5.0238 5.0028
ENERGY: 1900000 0.0000 0.0000 0.0000 0.0000 -10891.1567 1506.4573 0.0000 0.0000 1735.0368 -7649.6625 297.8882 -9384.6994 -7647.2101 300.0714 460.7865 513.2685 30095.3131 4.1327 4.2302
TCL: Exiting due to exit command.
