Info: SIMULATION PARAMETERS:
Info: TIMESTEP               2
Info: NUMBER OF STEPS        0
Info: STEPS PER CYCLE        10
Info: PERIODIC CELL BASIS 1  32.0424 0 0
Info: PERIODIC CELL BASIS 2  0 30.0003 0
Info: PERIODIC CELL BASIS 3  0 0 31.2814
Info: PERIODIC CELL CENTER   0 0 0
Info: WRAPPING WATERS AROUND PERIODIC BOUNDARIES ON OUTPUT.
Info: WRAPPING ALL CLUSTERS AROUND PERIODIC BOUNDARIES ON OUTPUT.
Info: FIRST LDB TIMESTEP     50
Info: LAST LDB TIMESTEP     -1
Info: HOM BACKGROUND SCALING 1
Info: PME BACKGROUND SCALING 1
Info: MIN ATOMS PER PATCH    40
Info: EMPTY PATCH LOAD       40 ATOMS
Info: VELOCITY FILE          mobley_4465023_equil.vel
Info: CENTER OF MASS MOVING INITIALLY? NO
Info: DIELECTRIC             1
Info: EXCLUDE                SCALED ONE-FOUR
Info: 1-4 ELECTROSTATICS SCALED BY 0.833333
Info: MODIFIED 1-4 VDW PARAMETERS WILL BE USED
Info: DCD FILENAME           mobley_4465023_prod.dcd
Info: DCD FREQUENCY          100000
Info: DCD FIRST STEP         100000
Info: DCD FILE WILL CONTAIN UNIT CELL DATA
Info: XST FILENAME           mobley_4465023_prod.xst
Info: XST FREQUENCY          100000
Info: NO VELOCITY DCD OUTPUT
Info: NO FORCE DCD OUTPUT
Info: OUTPUT FILENAME        mobley_4465023_prod
Info: BINARY OUTPUT FILES WILL BE USED
Info: RESTART FILENAME       mobley_4465023_prod.restart
Info: RESTART FREQUENCY      100000
Info: BINARY RESTART FILES WILL BE USED
Info: CUTOFF                 9
Info: PAIRLIST DISTANCE      11
Info: PAIRLIST SHRINK RATE   0.01
Info: PAIRLIST GROW RATE     0.01
Info: PAIRLIST TRIGGER       0.3
Info: PAIRLISTS PER CYCLE    2
Info: PAIRLISTS ENABLED
Info: MARGIN                 2
Info: HYDROGEN GROUP CUTOFF  2.5
Info: PATCH DIMENSION        15.5
Info: ENERGY OUTPUT STEPS    100000
Info: ENERGY EVALUATION STEPS    100000
Info: OUTPUT ENERGY PRECISION 4
Info: CROSSTERM ENERGY INCLUDED IN DIHEDRAL
Info: TIMING OUTPUT STEPS    1000000
Info: PRESSURE OUTPUT STEPS  100000
Info: ALCHEMICAL FEP ON
Info: FEP CURRENT LAMBDA VALUE     0
Info: FEP COMPARISON LAMBDA VALUE  0.05
Info: FEP INTRA-ALCHEMICAL NON-BONDED INTERACTIONS WILL BE RETAINED
Info: FEP INTRA-ALCHEMICAL BONDED INTERACTIONS WILL BE RETAINED
Info: FEP VDW SHIFTING COEFFICIENT 5
Info: FEP ELEC. ACTIVE FOR ANNIHILATED PARTICLES BETWEEN LAMBDA = 0 AND LAMBDA = 0.5
Info: FEP ELEC. ACTIVE FOR EXNIHILATED PARTICLES BETWEEN LAMBDA = 0.5 AND LAMBDA = 1
Info: FEP VDW ACTIVE FOR ANNIHILATED PARTICLES BETWEEN LAMBDA = 0 AND LAMBDA = 1
Info: FEP VDW ACTIVE FOR EXNIHILATED PARTICLES BETWEEN LAMBDA = 0 AND LAMBDA = 1
Info: FEP BOND ACTIVE FOR ANNIHILATED PARTICLES BETWEEN LAMBDA = 1 AND LAMBDA = 1
Info: FEP BOND ACTIVE FOR EXNIHILATED PARTICLES BETWEEN LAMBDA = 0 AND LAMBDA = 0
Info: LANGEVIN DYNAMICS ACTIVE
Info: LANGEVIN TEMPERATURE   300
Info: LANGEVIN USING BBK INTEGRATOR
Info: LANGEVIN DAMPING COEFFICIENT IS 1 INVERSE PS
Info: LANGEVIN DYNAMICS APPLIED TO HYDROGENS
Info: LANGEVIN PISTON PRESSURE CONTROL ACTIVE
Info:        TARGET PRESSURE IS 1.01325 BAR
Info:     OSCILLATION PERIOD IS 50 FS
Info:             DECAY TIME IS 25 FS
Info:     PISTON TEMPERATURE IS 300 K
Info:       PRESSURE CONTROL IS GROUP-BASED
Info:    INITIAL STRAIN RATE IS -0.00052272 -0.00052272 -0.00052272
Info:       CELL FLUCTUATION IS ISOTROPIC
Info: PARTICLE MESH EWALD (PME) ACTIVE
Info: PME TOLERANCE               1e-06
Info: PME EWALD COEFFICIENT       0.348832
Info: PME INTERPOLATION ORDER     4
Info: PME GRID DIMENSIONS         36 32 32
Info: PME MAXIMUM GRID SPACING    1
Info: PME CALCULATION WILL BE PERFORMED ON GPU
Info: FULL ELECTROSTATIC EVALUATION FREQUENCY      2
Info: USING VERLET I (r-RESPA) MTS SCHEME.
Info: C1 SPLITTING OF LONG RANGE ELECTROSTATICS
Info: PLACING ATOMS IN PATCHES BY HYDROGEN GROUPS
Info: RIGID BONDS TO HYDROGEN : ALL
Info:         ERROR TOLERANCE : 1e-08
Info:          MAX ITERATIONS : 100
Info: RIGID WATER USING SETTLE ALGORITHM
Info: RANDOM NUMBER SEED     1742001791
Info: USE HYDROGEN BONDS?    NO
Info: Using AMBER format force field!
Info: AMBER PARM FILE        mobley_4465023.prmtop
Info: COORDINATE PDB         mobley_4465023.pdb
Info: Exclusions will be read from PARM file!
Info: SCNB (VDW SCALING)     2
Info: USING ARITHMETIC MEAN TO COMBINE L-J SIGMA PARAMETERS
Info: BINARY COORDINATES     mobley_4465023_equil.coor
Info: SUMMARY OF PARAMETERS:
Info: 5 BONDS
Info: 3 ANGLES
Info:   3 HARMONIC
Info:   0 COSINE-BASED
Info: 1 DIHEDRAL
Info: 0 IMPROPER
Info: 0 CROSSTERM
Info: 0 VDW
Info: 15 VDW_PAIRS
Info: 0 NBTHOLE_PAIRS
Info: To read alchdata from file: mobley_4465023.pdb
Info: To read alchflag data from column: 5
Info: STRUCTURE SUMMARY:
Info: 2958 ATOMS
Info: 2957 BONDS
Info: 6 ANGLES
Info: 4 DIHEDRALS
Info: 0 IMPROPERS
Info: 0 CROSSTERMS
Info: 2967 EXCLUSIONS
Info: 2954 RIGID BONDS
Info: ALCH: 0 ATOMS TO DISAPPEAR IN FINAL STATE
Info: ALCH: 6 ATOMS TO APPEAR IN FINAL STATE
Info: 5920 DEGREES OF FREEDOM
Info: 988 HYDROGEN GROUPS
Info: 3 ATOMS IN LARGEST HYDROGEN GROUP
Info: 988 MIGRATION GROUPS
Info: 3 ATOMS IN LARGEST MIGRATION GROUP
Info: TOTAL MASS = 17824.7 amu
Info: TOTAL CHARGE = -1.49012e-08 e
Info: MASS DENSITY = 0.984337 g/cm^3
Info: ATOM DENSITY = 0.0983696 atoms/A^3
Info: ADDED 0 IMPLICIT EXCLUSIONS
Info: NONBONDED TABLE R-SQUARED SPACING: 0.0625
Info: NONBONDED TABLE SIZE: 705 POINTS
Info: REMOVING COM VELOCITY -0.0772423 -0.105656 -0.075314
Info: Use 3D box decompostion in PME FFT.
Info: Updated CUDA force table with 4096 elements.
Info: Updated CUDA LJ table with 5 x 5 elements.
Info: Found 9 unique exclusion lists needing 12 bytes
TCL: Running for 1500000 steps
ETITLE: TS BOND ANGLE DIHED IMPRP ELECT VDW BOUNDARY MISC KINETIC TOTAL TEMP POTENTIAL TOTALAVG TEMPAVG PRESSURE GPRESSURE VOLUME PRESSAVG GPRESSAVG
ENERGY: 0 0.6871 1.2703 0.2304 0.0000 -10766.0100 1428.4474 0.0000 0.0000 1766.3713 -7569.0036 300.2968 -9335.3749 -7569.0036 300.2968 -138.4273 -52.9131 30070.2747 -138.4273 -52.9131
ENERGY: 300000 0.9038 1.2349 0.1684 0.0000 -10721.8127 1353.0568 0.0000 0.0000 1741.1699 -7625.2790 296.0123 -9366.4489 -7548.9093 298.8455 -763.8357 -745.3184 30220.0997 25.0268 79.6100
ENERGY: 600000 0.0787 1.8749 0.1250 0.0000 -10720.7728 1413.0257 0.0000 0.0000 1717.2319 -7588.4365 291.9427 -9305.6684 -7560.2924 297.2774 -507.3437 -493.9432 30873.0181 52.7227 107.1755
ENERGY: 900000 0.0589 0.8129 1.6526 0.0000 -10762.9745 1434.4570 0.0000 0.0000 1751.1634 -7574.8296 297.7113 -9325.9930 -7558.2039 297.9873 -348.2509 -224.3954 30484.9576 -150.6086 -88.2670
ENERGY: 1200000 0.2532 1.6590 1.7122 0.0000 -10625.8419 1356.8890 0.0000 0.0000 1745.8300 -7519.4985 296.8046 -9265.3285 -7551.2893 298.2031 -540.2381 -483.2245 30342.1251 -141.8370 -81.0369
ENERGY: 1500000 0.0449 0.3147 2.6788 0.0000 -10679.6146 1407.4206 0.0000 0.0000 1750.5239 -7518.6317 297.6026 -9269.1556 -7542.3437 297.9886 -257.4563 -178.5812 30229.5374 -178.3709 -119.0598
TCL: Running FEP window   2: Lambda1 0.05   Lambda2 0.1    [dLambda 0.05  ]
TCL: Setting parameter firsttimestep to 0
TCL: Setting parameter alchLambda to 0.05
Info: NONBONDED TABLE R-SQUARED SPACING: 0.0625
Info: NONBONDED TABLE SIZE: 705 POINTS
TCL: Setting parameter alchLambda2 to 0.1
Info: NONBONDED TABLE R-SQUARED SPACING: 0.0625
Info: NONBONDED TABLE SIZE: 705 POINTS
TCL: Running for 1500000 steps
ETITLE: TS BOND ANGLE DIHED IMPRP ELECT VDW BOUNDARY MISC KINETIC TOTAL TEMP POTENTIAL TOTALAVG TEMPAVG PRESSURE GPRESSURE VOLUME PRESSAVG GPRESSAVG
ENERGY: 0 0.0449 0.3147 2.6788 0.0000 -10679.6141 1409.8594 0.0000 0.0000 1749.6569 -7517.0595 297.4552 -9266.7163 -7517.0595 297.4552 -271.6742 -171.9384 30229.5374 -271.6742 -171.9384
ENERGY: 300000 0.5815 0.1812 0.2143 0.0000 -10720.9503 1470.6405 0.0000 0.0000 1768.3882 -7480.9446 300.6397 -9249.3328 -7510.2147 297.9439 361.7625 393.9474 30231.5225 -81.9180 -31.3697
ENERGY: 600000 1.1860 1.5787 0.6838 0.0000 -10891.8024 1501.6530 0.0000 0.0000 1757.4187 -7629.2822 298.7748 -9386.7009 -7551.2145 296.9710 265.1532 348.5259 29962.3349 42.4129 102.9390
ENERGY: 900000 1.6615 0.2145 1.5308 0.0000 -10846.2715 1497.3015 0.0000 0.0000 1772.4756 -7573.0876 301.3346 -9345.5632 -7538.8396 298.7944 378.5939 458.3243 30260.3850 153.0820 215.9006
ENERGY: 1200000 0.9006 1.4680 0.9974 0.0000 -10766.3885 1430.6650 0.0000 0.0000 1765.9692 -7566.3884 300.2284 -9332.3576 -7548.1200 298.7076 -406.3064 -331.8486 30629.5537 68.4241 137.8633
ENERGY: 1500000 0.1079 1.8006 0.0912 0.0000 -10741.7693 1438.3318 0.0000 0.0000 1739.4595 -7561.9783 295.7216 -9301.4379 -7554.3454 299.0810 -46.6400 41.7900 30303.3566 20.1699 89.3888
TCL: Running FEP window   3: Lambda1 0.1    Lambda2 0.15000000000000002 [dLambda 0.05000000000000002]
TCL: Setting parameter firsttimestep to 0
TCL: Setting parameter alchLambda to 0.1
Info: NONBONDED TABLE R-SQUARED SPACING: 0.0625
Info: NONBONDED TABLE SIZE: 705 POINTS
TCL: Setting parameter alchLambda2 to 0.15000000000000002
Info: NONBONDED TABLE R-SQUARED SPACING: 0.0625
Info: NONBONDED TABLE SIZE: 705 POINTS
TCL: Running for 1500000 steps
ETITLE: TS BOND ANGLE DIHED IMPRP ELECT VDW BOUNDARY MISC KINETIC TOTAL TEMP POTENTIAL TOTALAVG TEMPAVG PRESSURE GPRESSURE VOLUME PRESSAVG GPRESSAVG
ENERGY: 0 0.1079 1.8006 0.0912 0.0000 -10741.7689 1438.4331 0.0000 0.0000 1738.5839 -7562.7522 295.5727 -9301.3361 -7562.7522 295.5727 -42.0157 41.6855 30303.3566 -42.0157 41.6855
ENERGY: 300000 0.7566 0.5335 0.0804 0.0000 -10761.6563 1459.4874 0.0000 0.0000 1809.2775 -7491.5208 307.5912 -9300.7984 -7474.1995 305.9107 145.3322 171.4923 30322.0998 -333.6232 -278.8828
ENERGY: 600000 1.2969 0.1076 0.1651 0.0000 -10759.1170 1454.5756 0.0000 0.0000 1744.3321 -7558.6397 296.5499 -9302.9717 -7493.6449 303.7442 311.6610 384.7297 29818.9390 -95.5848 -31.5141
ENERGY: 900000 0.1617 0.5116 0.2800 0.0000 -10886.2129 1483.5200 0.0000 0.0000 1790.6781 -7611.0616 304.4291 -9401.7396 -7512.8733 304.0276 192.9783 189.2913 30049.2743 -10.4197 54.9626
ENERGY: 1200000 0.7818 2.3143 0.0903 0.0000 -10781.4857 1464.4065 0.0000 0.0000 1781.7651 -7532.1277 302.9139 -9313.8928 -7519.6982 302.8341 134.4628 237.8291 30068.0770 -12.8491 52.6127
ENERGY: 1500000 0.6220 2.2792 2.7149 0.0000 -10733.0640 1433.0709 0.0000 0.0000 1826.1087 -7468.2684 310.4526 -9294.3770 -7513.6471 303.5004 -247.4726 -171.8439 30582.9922 -36.8879 27.7886
TCL: Running FEP window   4: Lambda1 0.15000000000000002 Lambda2 0.2    [dLambda 0.04999999999999999]
TCL: Setting parameter firsttimestep to 0
TCL: Setting parameter alchLambda to 0.15000000000000002
Info: NONBONDED TABLE R-SQUARED SPACING: 0.0625
Info: NONBONDED TABLE SIZE: 705 POINTS
TCL: Setting parameter alchLambda2 to 0.2
Info: NONBONDED TABLE R-SQUARED SPACING: 0.0625
Info: NONBONDED TABLE SIZE: 705 POINTS
TCL: Running for 1500000 steps
ETITLE: TS BOND ANGLE DIHED IMPRP ELECT VDW BOUNDARY MISC KINETIC TOTAL TEMP POTENTIAL TOTALAVG TEMPAVG PRESSURE GPRESSURE VOLUME PRESSAVG GPRESSAVG
ENERGY: 0 0.6220 2.2792 2.7149 0.0000 -10733.0639 1434.2924 0.0000 0.0000 1825.1848 -7467.9706 310.2955 -9293.1554 -7467.9706 310.2955 -258.2466 -169.1091 30582.9922 -258.2466 -169.1091
ENERGY: 300000 0.6956 1.3935 3.1590 0.0000 -10721.3000 1449.5650 0.0000 0.0000 1762.5067 -7503.9800 299.6398 -9266.4867 -7533.6293 302.2065 -46.0711 60.1705 30395.8491 1.2478 90.2914
ENERGY: 600000 1.4406 1.9369 0.3367 0.0000 -10842.4103 1514.0462 0.0000 0.0000 1744.3366 -7580.3133 296.5507 -9324.6500 -7529.1784 301.3571 244.2933 315.6780 30580.5843 -89.0921 -14.0089
ENERGY: 900000 0.0964 0.4028 0.1673 0.0000 -10850.5014 1483.1751 0.0000 0.0000 1782.5376 -7584.1221 303.0452 -9366.6597 -7521.9325 302.4495 -177.4594 -141.1612 30956.3610 -175.5901 -99.7818
ENERGY: 1200000 0.6185 1.0544 2.9336 0.0000 -10701.1606 1378.3154 0.0000 0.0000 1776.7624 -7541.4763 302.0634 -9318.2387 -7515.5295 302.9522 -393.2835 -282.4788 30062.0898 -204.3779 -127.3480
ENERGY: 1500000 0.0262 2.1828 0.6078 0.0000 -10766.1909 1472.8133 0.0000 0.0000 1771.5469 -7519.0140 301.1767 -9290.5609 -7511.6152 302.9720 370.2603 369.5602 30331.8002 -179.6657 -107.1188
TCL: Running FEP window   5: Lambda1 0.2    Lambda2 0.25   [dLambda 0.04999999999999999]
TCL: Setting parameter firsttimestep to 0
TCL: Setting parameter alchLambda to 0.2
Info: NONBONDED TABLE R-SQUARED SPACING: 0.0625
Info: NONBONDED TABLE SIZE: 705 POINTS
TCL: Setting parameter alchLambda2 to 0.25
Info: NONBONDED TABLE R-SQUARED SPACING: 0.0625
Info: NONBONDED TABLE SIZE: 705 POINTS
TCL: Running for 1500000 steps
ETITLE: TS BOND ANGLE DIHED IMPRP ELECT VDW BOUNDARY MISC KINETIC TOTAL TEMP POTENTIAL TOTALAVG TEMPAVG PRESSURE GPRESSURE VOLUME PRESSAVG GPRESSAVG
ENERGY: 0 0.0262 2.1828 0.6078 0.0000 -10766.1897 1474.1050 0.0000 0.0000 1770.6849 -7518.5831 301.0301 -9289.2680 -7518.5831 301.0301 297.6946 375.2644 30331.8002 297.6946 375.2644
ENERGY: 300000 0.9069 1.5110 1.3606 0.0000 -10687.3817 1450.9732 0.0000 0.0000 1816.3959 -7416.2341 308.8014 -9232.6300 -7521.5606 302.9768 219.0005 264.9197 30519.1779 -30.3449 42.2218
ENERGY: 600000 0.1412 0.8115 1.0412 0.0000 -10442.8519 1312.9440 0.0000 0.0000 1704.9531 -7422.9609 289.8552 -9127.9140 -7539.3424 296.0503 -774.0701 -750.6758 30821.4169 -174.1522 -114.6595
ENERGY: 900000 1.7124 1.5126 0.3197 0.0000 -10866.9812 1551.9864 0.0000 0.0000 1790.0640 -7521.3861 304.3247 -9311.4501 -7545.1576 297.1858 1106.1485 1169.6875 29778.7860 -46.2287 5.6431
ENERGY: 1200000 1.9227 3.7635 0.2903 0.0000 -10774.3137 1436.4025 0.0000 0.0000 1740.0396 -7591.8950 295.8202 -9331.9347 -7543.7567 297.8741 -217.1635 -186.0726 30354.3534 -52.3311 2.0424
ENERGY: 1500000 0.4547 0.3957 0.0764 0.0000 -10791.6798 1444.6563 0.0000 0.0000 1768.1377 -7577.9589 300.5971 -9346.0966 -7551.4505 297.9045 -316.4743 -246.5366 30729.5587 -82.4547 -24.2446
TCL: Running FEP window   6: Lambda1 0.25   Lambda2 0.3    [dLambda 0.04999999999999999]
TCL: Setting parameter firsttimestep to 0
TCL: Setting parameter alchLambda to 0.25
Info: NONBONDED TABLE R-SQUARED SPACING: 0.0625
Info: NONBONDED TABLE SIZE: 705 POINTS
TCL: Setting parameter alchLambda2 to 0.3
Info: NONBONDED TABLE R-SQUARED SPACING: 0.0625
Info: NONBONDED TABLE SIZE: 705 POINTS
TCL: Running for 1500000 steps
ETITLE: TS BOND ANGLE DIHED IMPRP ELECT VDW BOUNDARY MISC KINETIC TOTAL TEMP POTENTIAL TOTALAVG TEMPAVG PRESSURE GPRESSURE VOLUME PRESSAVG GPRESSAVG
ENERGY: 0 0.4547 0.3957 0.0764 0.0000 -10791.6795 1444.4879 0.0000 0.0000 1767.2736 -7578.9911 300.4502 -9346.2648 -7578.9911 300.4502 -329.5820 -246.5558 30729.5587 -329.5820 -246.5558
ENERGY: 300000 0.2752 1.3842 1.8951 0.0000 -10750.5766 1434.9567 0.0000 0.0000 1765.9898 -7546.0756 300.2319 -9312.0654 -7542.1187 301.0138 -281.8097 -212.4081 30826.4662 81.0674 154.8210
ENERGY: 600000 0.3226 0.6274 0.2196 0.0000 -10687.2190 1401.7990 0.0000 0.0000 1736.2432 -7548.0072 295.1748 -9284.2504 -7523.8650 300.8278 -285.3049 -254.8744 30355.3415 9.7192 69.5824
ENERGY: 900000 0.1442 3.0605 1.5314 0.0000 -10709.1878 1461.7020 0.0000 0.0000 1801.6405 -7441.1092 306.2928 -9242.7497 -7529.9850 300.4380 141.5717 229.2835 30438.3561 25.6113 97.0578
ENERGY: 1200000 0.3284 0.5442 0.6887 0.0000 -10670.7287 1352.0703 0.0000 0.0000 1735.5409 -7581.5562 295.0554 -9317.0971 -7537.7536 300.2794 -1092.7966 -1017.5694 30918.6522 -72.0714 -0.3605
ENERGY: 1500000 1.4951 1.1258 1.0478 0.0000 -10895.3452 1530.7062 0.0000 0.0000 1817.1308 -7543.8395 308.9263 -9360.9704 -7536.9223 300.7371 398.3544 448.4093 30576.7546 -43.7733 26.4492
TCL: Running FEP window   7: Lambda1 0.3    Lambda2 0.35   [dLambda 0.04999999999999999]
TCL: Setting parameter firsttimestep to 0
TCL: Setting parameter alchLambda to 0.3
Info: NONBONDED TABLE R-SQUARED SPACING: 0.0625
Info: NONBONDED TABLE SIZE: 705 POINTS
TCL: Setting parameter alchLambda2 to 0.35
Info: NONBONDED TABLE R-SQUARED SPACING: 0.0625
Info: NONBONDED TABLE SIZE: 705 POINTS
TCL: Running for 1500000 steps
ETITLE: TS BOND ANGLE DIHED IMPRP ELECT VDW BOUNDARY MISC KINETIC TOTAL TEMP POTENTIAL TOTALAVG TEMPAVG PRESSURE GPRESSURE VOLUME PRESSAVG GPRESSAVG
ENERGY: 0 1.4951 1.1258 1.0478 0.0000 -10895.3453 1531.8963 0.0000 0.0000 1816.2581 -7543.5222 308.7779 -9359.7803 -7543.5222 308.7779 370.6960 458.9325 30576.7546 370.6960 458.9325
ENERGY: 300000 1.1267 2.2043 0.0828 0.0000 -10818.5808 1499.6647 0.0000 0.0000 1700.1151 -7615.3872 289.0327 -9315.5023 -7564.0378 295.7847 139.0575 249.3146 30608.4789 16.7158 94.7947
ENERGY: 600000 3.1210 1.0030 0.7252 0.0000 -10669.2037 1343.4722 0.0000 0.0000 1788.4713 -7532.4110 304.0540 -9320.8823 -7548.1941 299.7775 -907.4375 -805.5870 30149.5090 -50.0024 35.2442
ENERGY: 900000 0.5221 1.5683 2.0369 0.0000 -10585.8680 1414.8667 0.0000 0.0000 1765.8123 -7401.0617 300.2017 -9166.8740 -7530.7737 300.2255 2.0208 114.4420 30503.7226 -31.3848 66.3981
ENERGY: 1200000 0.0426 1.1349 0.7906 0.0000 -10583.7106 1368.1484 0.0000 0.0000 1767.9950 -7445.5990 300.5728 -9213.5941 -7516.6838 300.3408 -433.3636 -396.0972 30578.1289 15.5644 106.8823
ENERGY: 1500000 1.9309 0.9863 0.2101 0.0000 -10597.5308 1406.1143 0.0000 0.0000 1832.7768 -7355.5123 311.5862 -9188.2891 -7513.9132 301.0341 -243.2464 -160.9034 31045.4256 75.9081 161.4635
TCL: Running FEP window   8: Lambda1 0.35   Lambda2 0.39999999999999997 [dLambda 0.04999999999999999]
TCL: Setting parameter firsttimestep to 0
TCL: Setting parameter alchLambda to 0.35
Info: NONBONDED TABLE R-SQUARED SPACING: 0.0625
Info: NONBONDED TABLE SIZE: 705 POINTS
TCL: Setting parameter alchLambda2 to 0.39999999999999997
Info: NONBONDED TABLE R-SQUARED SPACING: 0.0625
Info: NONBONDED TABLE SIZE: 705 POINTS
TCL: Running for 1500000 steps
ETITLE: TS BOND ANGLE DIHED IMPRP ELECT VDW BOUNDARY MISC KINETIC TOTAL TEMP POTENTIAL TOTALAVG TEMPAVG PRESSURE GPRESSURE VOLUME PRESSAVG GPRESSAVG
ENERGY: 0 1.9309 0.9863 0.2101 0.0000 -10597.5304 1407.8799 0.0000 0.0000 1831.8886 -7354.6345 311.4352 -9186.5231 -7354.6345 311.4352 -227.3622 -146.5467 31045.4256 -227.3622 -146.5467
ENERGY: 300000 2.7808 0.3948 1.5860 0.0000 -10786.4414 1458.1950 0.0000 0.0000 1785.6289 -7537.8559 303.5707 -9323.4848 -7462.5889 301.2692 -33.1450 10.5939 30361.2424 -233.5845 -164.1562
ENERGY: 600000 3.8927 2.5311 0.6812 0.0000 -10735.0114 1447.8748 0.0000 0.0000 1754.1748 -7525.8568 298.2233 -9280.0316 -7497.3820 300.3684 -37.3643 72.5328 30366.2313 -153.8429 -86.0094
ENERGY: 900000 0.2030 0.9351 1.2948 0.0000 -10581.1945 1345.5910 0.0000 0.0000 1745.9430 -7487.2276 296.8238 -9233.1707 -7500.6687 299.2867 -734.6748 -664.1893 30725.1509 -175.9188 -109.5172
ENERGY: 1200000 2.1975 0.7282 2.8294 0.0000 -10876.1939 1528.9546 0.0000 0.0000 1787.2998 -7554.1845 303.8548 -9341.4842 -7517.6478 298.5687 409.5985 394.4437 30325.2821 -84.2588 -27.0499
ENERGY: 1500000 0.9262 1.2341 0.2617 0.0000 -10648.9935 1414.8948 0.0000 0.0000 1744.3144 -7487.3624 296.5469 -9231.6768 -7519.3106 298.4371 -311.1948 -278.3246 30915.4347 -170.5660 -115.6410
TCL: Running FEP window   9: Lambda1 0.39999999999999997 Lambda2 0.44999999999999996 [dLambda 0.04999999999999999]
TCL: Setting parameter firsttimestep to 0
TCL: Setting parameter alchLambda to 0.39999999999999997
Info: NONBONDED TABLE R-SQUARED SPACING: 0.0625
Info: NONBONDED TABLE SIZE: 705 POINTS
TCL: Setting parameter alchLambda2 to 0.44999999999999996
Info: NONBONDED TABLE R-SQUARED SPACING: 0.0625
Info: NONBONDED TABLE SIZE: 705 POINTS
TCL: Running for 1500000 steps
ETITLE: TS BOND ANGLE DIHED IMPRP ELECT VDW BOUNDARY MISC KINETIC TOTAL TEMP POTENTIAL TOTALAVG TEMPAVG PRESSURE GPRESSURE VOLUME PRESSAVG GPRESSAVG
ENERGY: 0 0.9262 1.2341 0.2617 0.0000 -10648.9934 1414.8912 0.0000 0.0000 1743.4280 -7488.2523 296.3962 -9231.6803 -7488.2523 296.3962 -359.0346 -275.2836 30915.4347 -359.0346 -275.2836
ENERGY: 300000 0.3743 0.6984 0.5364 0.0000 -10633.6534 1418.3788 0.0000 0.0000 1741.1894 -7472.4762 296.0157 -9213.6656 -7490.0810 299.5664 -61.7607 32.7074 30432.5533 -51.8429 24.1876
ENERGY: 600000 0.7028 0.8586 0.0360 0.0000 -10697.4535 1371.8952 0.0000 0.0000 1764.5225 -7559.4384 299.9825 -9323.9610 -7500.0361 298.7606 -706.7611 -639.1740 30416.3526 -30.8636 29.0620
ENERGY: 900000 0.9493 0.9893 1.1762 0.0000 -10744.0715 1395.7867 0.0000 0.0000 1819.2149 -7525.9552 309.2806 -9345.1701 -7505.5022 300.0603 -340.0506 -274.8568 30042.1270 52.2978 111.0274
ENERGY: 1200000 0.4826 1.1092 1.4813 0.0000 -10673.4357 1339.2118 0.0000 0.0000 1759.0852 -7572.0658 299.0581 -9331.1509 -7514.1135 299.2079 -939.0364 -860.2310 30393.9516 -118.4218 -52.0757
ENERGY: 1500000 0.3893 0.1777 1.2097 0.0000 -10786.0835 1497.8583 0.0000 0.0000 1789.1313 -7497.3174 304.1662 -9286.4487 -7509.3636 299.9072 326.5719 339.5029 30604.6763 -49.4367 10.9971
TCL: Running FEP window  10: Lambda1 0.44999999999999996 Lambda2 0.49999999999999994 [dLambda 0.04999999999999999]
TCL: Setting parameter firsttimestep to 0
TCL: Setting parameter alchLambda to 0.44999999999999996
Info: NONBONDED TABLE R-SQUARED SPACING: 0.0625
Info: NONBONDED TABLE SIZE: 705 POINTS
TCL: Setting parameter alchLambda2 to 0.49999999999999994
Info: NONBONDED TABLE R-SQUARED SPACING: 0.0625
Info: NONBONDED TABLE SIZE: 705 POINTS
TCL: Running for 1500000 steps
ETITLE: TS BOND ANGLE DIHED IMPRP ELECT VDW BOUNDARY MISC KINETIC TOTAL TEMP POTENTIAL TOTALAVG TEMPAVG PRESSURE GPRESSURE VOLUME PRESSAVG GPRESSAVG
ENERGY: 0 0.3893 0.1777 1.2097 0.0000 -10786.0831 1498.1514 0.0000 0.0000 1788.2366 -7497.9185 304.0141 -9286.1551 -7497.9185 304.0141 261.1789 347.0646 30604.6763 261.1789 347.0646
ENERGY: 300000 0.9530 1.0289 0.6371 0.0000 -10676.3005 1363.9735 0.0000 0.0000 1702.3589 -7607.3492 289.4142 -9309.7081 -7511.0585 299.8139 -1077.9474 -1055.5681 31190.0483 -445.5031 -383.4743
ENERGY: 600000 0.9564 0.2393 0.4803 0.0000 -10758.5547 1485.8193 0.0000 0.0000 1759.0010 -7512.0584 299.0438 -9271.0594 -7522.3354 298.5710 279.0350 358.4071 30449.8843 -216.2646 -144.8454
ENERGY: 900000 0.5618 0.3990 2.4106 0.0000 -10793.3924 1464.3685 0.0000 0.0000 1770.4653 -7555.1872 300.9928 -9325.6525 -7526.7864 299.3991 28.0451 121.6310 30183.8027 -145.6293 -74.4486
ENERGY: 1200000 0.7837 2.7472 0.0954 0.0000 -10642.8114 1419.1835 0.0000 0.0000 1752.6254 -7467.3762 297.9599 -9220.0015 -7526.2747 299.4111 -138.0346 -68.2274 30893.0978 -236.4961 -163.5244
ENERGY: 1500000 1.1534 0.5490 2.1503 0.0000 -10716.5031 1414.1523 0.0000 0.0000 1764.2822 -7534.2159 299.9416 -9298.4981 -7524.8103 300.1199 -233.9055 -194.7848 30530.2004 -218.0160 -148.6229
TCL: Running FEP window  11: Lambda1 0.49999999999999994 Lambda2 0.5499999999999999 [dLambda 0.04999999999999999]
TCL: Setting parameter firsttimestep to 0
TCL: Setting parameter alchLambda to 0.49999999999999994
Info: NONBONDED TABLE R-SQUARED SPACING: 0.0625
Info: NONBONDED TABLE SIZE: 705 POINTS
TCL: Setting parameter alchLambda2 to 0.5499999999999999
Info: NONBONDED TABLE R-SQUARED SPACING: 0.0625
Info: NONBONDED TABLE SIZE: 705 POINTS
TCL: Running for 1500000 steps
ETITLE: TS BOND ANGLE DIHED IMPRP ELECT VDW BOUNDARY MISC KINETIC TOTAL TEMP POTENTIAL TOTALAVG TEMPAVG PRESSURE GPRESSURE VOLUME PRESSAVG GPRESSAVG
ENERGY: 0 1.1534 0.5490 2.1503 0.0000 -10716.5034 1414.0317 0.0000 0.0000 1763.3999 -7535.2192 299.7916 -9298.6191 -7535.2192 299.7916 -287.2923 -193.3230 30530.2004 -287.2923 -193.3230
ENERGY: 300000 4.6815 1.1626 0.1860 0.0000 -10608.5136 1416.5089 0.0000 0.0000 1792.0032 -7393.9715 304.6544 -9185.9746 -7503.1184 298.5842 177.4348 234.2971 30283.6721 -52.7494 20.8636
ENERGY: 600000 0.6368 0.6678 1.3347 0.0000 -10727.4963 1404.6035 0.0000 0.0000 1763.5290 -7556.7244 299.8136 -9320.2535 -7524.1348 298.1817 -183.7787 -144.6063 30143.7770 -149.3355 -94.2513
ENERGY: 900000 1.2875 2.2007 0.2608 0.0000 -10734.1877 1493.2923 0.0000 0.0000 1805.3064 -7431.8400 306.9160 -9237.1464 -7513.5805 299.8596 649.3464 624.8680 30283.0404 53.3095 99.4636
ENERGY: 1200000 0.2668 0.4902 0.9684 0.0000 -10657.1356 1424.0768 0.0000 0.0000 1766.1897 -7465.1437 300.2659 -9231.3334 -7508.4192 300.1097 -36.3764 -38.6389 30607.4876 20.3745 50.0797
ENERGY: 1500000 0.3048 0.7142 0.5561 0.0000 -10781.8454 1410.3157 0.0000 0.0000 1802.2877 -7567.6670 306.4028 -9369.9547 -7514.4583 300.8422 -416.0726 -396.7938 30391.0562 -13.6151 18.9428
TCL: Running FEP window  12: Lambda1 0.5499999999999999 Lambda2 0.6    [dLambda 0.050000000000000044]
TCL: Setting parameter firsttimestep to 0
TCL: Setting parameter alchLambda to 0.5499999999999999
Info: NONBONDED TABLE R-SQUARED SPACING: 0.0625
Info: NONBONDED TABLE SIZE: 705 POINTS
TCL: Setting parameter alchLambda2 to 0.6
Info: NONBONDED TABLE R-SQUARED SPACING: 0.0625
Info: NONBONDED TABLE SIZE: 705 POINTS
TCL: Running for 1500000 steps
ETITLE: TS BOND ANGLE DIHED IMPRP ELECT VDW BOUNDARY MISC KINETIC TOTAL TEMP POTENTIAL TOTALAVG TEMPAVG PRESSURE GPRESSURE VOLUME PRESSAVG GPRESSAVG
ENERGY: 0 0.3048 0.7142 0.5561 0.0000 -10781.8837 1410.3796 0.0000 0.0000 1801.4081 -7568.5209 306.2533 -9369.9290 -7568.5209 306.2533 -463.9834 -392.0743 30391.0562 -463.9834 -392.0743
ENERGY: 300000 0.6185 0.4658 0.6644 0.0000 -10741.7937 1447.8468 0.0000 0.0000 1756.3588 -7535.8394 298.5946 -9292.1982 -7527.5010 301.7948 33.0427 69.5419 30248.3195 163.7042 245.4341
ENERGY: 600000 1.6633 0.4834 0.2113 0.0000 -10837.2385 1477.4434 0.0000 0.0000 1790.3186 -7567.1186 304.3680 -9357.4372 -7514.6234 302.5783 335.9246 332.4853 30087.2757 94.5642 161.6037
ENERGY: 900000 0.8715 2.5114 0.7655 0.0000 -10695.6693 1406.7971 0.0000 0.0000 1780.8226 -7503.9011 302.7536 -9284.7237 -7525.5846 301.8242 -161.6637 -125.0782 30432.4104 47.1237 115.5633
ENERGY: 1200000 0.3150 2.8029 0.5894 0.0000 -10823.4439 1554.7819 0.0000 0.0000 1851.0809 -7413.8740 314.6981 -9264.9549 -7518.7947 303.5459 1067.9245 1186.2713 30292.9102 151.5385 213.6575
ENERGY: 1500000 1.5601 1.1622 0.0517 0.0000 -10850.1204 1495.4884 0.0000 0.0000 1820.2026 -7531.6555 309.4485 -9351.8581 -7522.5008 303.9438 218.5534 313.4466 30285.8032 70.9291 132.0734
TCL: Running FEP window  13: Lambda1 0.6    Lambda2 0.65   [dLambda 0.050000000000000044]
TCL: Setting parameter firsttimestep to 0
TCL: Setting parameter alchLambda to 0.6
Info: NONBONDED TABLE R-SQUARED SPACING: 0.0625
Info: NONBONDED TABLE SIZE: 705 POINTS
TCL: Setting parameter alchLambda2 to 0.65
Info: NONBONDED TABLE R-SQUARED SPACING: 0.0625
Info: NONBONDED TABLE SIZE: 705 POINTS
TCL: Running for 1500000 steps
ETITLE: TS BOND ANGLE DIHED IMPRP ELECT VDW BOUNDARY MISC KINETIC TOTAL TEMP POTENTIAL TOTALAVG TEMPAVG PRESSURE GPRESSURE VOLUME PRESSAVG GPRESSAVG
ENERGY: 0 1.5601 1.1622 0.0517 0.0000 -10850.1962 1495.4417 0.0000 0.0000 1819.3303 -7532.6502 309.3002 -9351.9805 -7532.6502 309.3002 217.6276 319.5986 30285.8032 217.6276 319.5986
ENERGY: 300000 0.2151 0.0448 0.1755 0.0000 -10755.0553 1506.9278 0.0000 0.0000 1737.5321 -7510.1599 295.3939 -9247.6920 -7537.3950 300.4583 789.4233 864.5933 30204.2111 319.2108 409.5070
ENERGY: 600000 0.7484 1.1457 0.6408 0.0000 -10795.8014 1475.2719 0.0000 0.0000 1781.3831 -7536.6115 302.8489 -9317.9947 -7540.6594 300.4019 421.2468 483.7397 30131.5042 242.9469 326.0467
ENERGY: 900000 1.1800 1.9446 0.1914 0.0000 -10885.4409 1475.4653 0.0000 0.0000 1790.3931 -7616.2666 304.3807 -9406.6596 -7551.8801 299.5193 56.2885 59.2430 30225.4077 121.7131 191.5850
ENERGY: 1200000 1.1745 1.3334 0.8920 0.0000 -10715.3508 1429.3688 0.0000 0.0000 1753.3950 -7529.1870 298.0907 -9282.5821 -7539.2090 299.3362 -409.0314 -344.9006 31096.8136 -5.3885 59.5030
ENERGY: 1500000 1.1059 0.7944 2.0970 0.0000 -10660.9446 1407.7789 0.0000 0.0000 1748.5765 -7500.5918 297.2715 -9249.1683 -7542.0758 298.5996 -180.3342 -95.4907 30650.1099 -7.6911 59.1840
TCL: Running FEP window  14: Lambda1 0.65   Lambda2 0.7000000000000001 [dLambda 0.050000000000000044]
TCL: Setting parameter firsttimestep to 0
TCL: Setting parameter alchLambda to 0.65
Info: NONBONDED TABLE R-SQUARED SPACING: 0.0625
Info: NONBONDED TABLE SIZE: 705 POINTS
TCL: Setting parameter alchLambda2 to 0.7000000000000001
Info: NONBONDED TABLE R-SQUARED SPACING: 0.0625
Info: NONBONDED TABLE SIZE: 705 POINTS
TCL: Running for 1500000 steps
ETITLE: TS BOND ANGLE DIHED IMPRP ELECT VDW BOUNDARY MISC KINETIC TOTAL TEMP POTENTIAL TOTALAVG TEMPAVG PRESSURE GPRESSURE VOLUME PRESSAVG GPRESSAVG
ENERGY: 0 1.1059 0.7944 2.0970 0.0000 -10661.3048 1407.6364 0.0000 0.0000 1747.6837 -7501.9874 297.1197 -9249.6711 -7501.9874 297.1197 -172.6794 -91.2976 30650.1099 -172.6794 -91.2976
ENERGY: 300000 0.6094 1.0028 0.6963 0.0000 -10578.7871 1346.8163 0.0000 0.0000 1786.5067 -7443.1557 303.7200 -9229.6624 -7515.5309 297.7276 -710.2093 -624.5856 30824.3355 -266.4474 -181.1162
ENERGY: 600000 1.6722 2.3465 1.7408 0.0000 -10614.3346 1342.4905 0.0000 0.0000 1816.1487 -7449.9359 308.7593 -9266.0846 -7493.8578 300.9232 -979.9341 -882.9318 31315.0326 -248.9731 -174.7667
ENERGY: 900000 1.5461 0.3486 0.2518 0.0000 -10721.5296 1410.5203 0.0000 0.0000 1746.8586 -7562.0042 296.9795 -9308.8628 -7522.2846 298.9388 -285.8480 -303.8363 30480.9866 -196.9090 -135.8083
ENERGY: 1200000 0.5618 0.9351 0.0417 0.0000 -10628.4972 1319.2557 0.0000 0.0000 1725.8479 -7581.8550 293.4075 -9307.7028 -7530.4921 298.3181 -1026.4486 -969.2978 30596.8949 -195.8012 -136.9195
ENERGY: 1500000 1.7481 0.3640 0.6552 0.0000 -10874.6723 1498.3199 0.0000 0.0000 1767.0104 -7606.5748 300.4054 -9373.5852 -7533.6209 299.3002 369.8824 382.0187 30135.5738 -45.9530 9.7847
TCL: Running FEP window  15: Lambda1 0.7000000000000001 Lambda2 0.7500000000000001 [dLambda 0.050000000000000044]
TCL: Setting parameter firsttimestep to 0
TCL: Setting parameter alchLambda to 0.7000000000000001
Info: NONBONDED TABLE R-SQUARED SPACING: 0.0625
Info: NONBONDED TABLE SIZE: 705 POINTS
TCL: Setting parameter alchLambda2 to 0.7500000000000001
Info: NONBONDED TABLE R-SQUARED SPACING: 0.0625
Info: NONBONDED TABLE SIZE: 705 POINTS
TCL: Running for 1500000 steps
ETITLE: TS BOND ANGLE DIHED IMPRP ELECT VDW BOUNDARY MISC KINETIC TOTAL TEMP POTENTIAL TOTALAVG TEMPAVG PRESSURE GPRESSURE VOLUME PRESSAVG GPRESSAVG
ENERGY: 0 1.7481 0.3640 0.6552 0.0000 -10875.1461 1498.1520 0.0000 0.0000 1766.1329 -7608.0939 300.2563 -9374.2268 -7608.0939 300.2563 307.6631 384.7940 30135.5738 307.6631 384.7940
ENERGY: 300000 2.3314 1.1999 0.7641 0.0000 -10781.9142 1481.2332 0.0000 0.0000 1771.1158 -7525.2699 301.1034 -9296.3857 -7558.0728 299.5543 283.8022 346.4240 30286.5620 35.2842 112.5903
ENERGY: 600000 0.1945 1.1306 1.0129 0.0000 -10677.7977 1379.0604 0.0000 0.0000 1765.0996 -7531.2997 300.0806 -9296.3993 -7546.5904 301.9457 -399.1095 -368.0329 30348.3658 -21.8127 31.3715
ENERGY: 900000 0.1930 2.8356 0.9464 0.0000 -10637.9523 1361.8864 0.0000 0.0000 1746.9212 -7525.1698 296.9901 -9272.0910 -7543.8273 301.3946 -725.8868 -640.6602 30997.4093 32.6064 78.7148
ENERGY: 1200000 0.5157 3.5750 0.8419 0.0000 -10814.8202 1510.8899 0.0000 0.0000 1751.4994 -7547.4984 297.7684 -9298.9978 -7528.4409 301.2311 584.9950 596.1050 30231.0570 131.2406 175.9594
ENERGY: 1500000 0.9402 1.1611 0.4881 0.0000 -10738.2945 1478.0261 0.0000 0.0000 1717.7289 -7539.9501 292.0272 -9257.6790 -7534.1714 299.6941 244.8419 326.2765 30488.8259 149.1506 204.0191
TCL: Running FEP window  16: Lambda1 0.7500000000000001 Lambda2 0.8000000000000002 [dLambda 0.050000000000000044]
TCL: Setting parameter firsttimestep to 0
TCL: Setting parameter alchLambda to 0.7500000000000001
Info: NONBONDED TABLE R-SQUARED SPACING: 0.0625
Info: NONBONDED TABLE SIZE: 705 POINTS
TCL: Setting parameter alchLambda2 to 0.8000000000000002
Info: NONBONDED TABLE R-SQUARED SPACING: 0.0625
Info: NONBONDED TABLE SIZE: 705 POINTS
TCL: Running for 1500000 steps
ETITLE: TS BOND ANGLE DIHED IMPRP ELECT VDW BOUNDARY MISC KINETIC TOTAL TEMP POTENTIAL TOTALAVG TEMPAVG PRESSURE GPRESSURE VOLUME PRESSAVG GPRESSAVG
ENERGY: 0 0.9402 1.1611 0.4881 0.0000 -10738.5685 1477.6702 0.0000 0.0000 1716.9187 -7541.3902 291.8895 -9258.3089 -7541.3902 291.8895 246.9414 326.8272 30488.8259 246.9414 326.8272
ENERGY: 300000 0.3600 0.7508 0.3174 0.0000 -10620.4516 1370.1826 0.0000 0.0000 1757.7750 -7491.0658 298.8353 -9248.8408 -7488.8621 299.0962 -239.9493 -197.4651 30320.3635 250.8871 321.0970
ENERGY: 600000 0.7039 2.6465 1.0284 0.0000 -10807.5305 1449.4535 0.0000 0.0000 1776.1714 -7577.5268 301.9629 -9353.6982 -7518.8366 300.0330 -211.3913 -131.2111 30498.7627 155.9542 235.9232
ENERGY: 900000 2.1767 1.9801 0.4540 0.0000 -10695.6524 1393.0392 0.0000 0.0000 1769.8033 -7528.1991 300.8802 -9298.0024 -7521.2861 300.3460 -424.2265 -352.4845 30675.9316 39.8598 114.4544
ENERGY: 1200000 0.4093 1.1796 1.4092 0.0000 -10742.2905 1410.6634 0.0000 0.0000 1734.6044 -7594.0246 294.8962 -9328.6290 -7516.2705 300.2857 -296.5611 -214.0123 30378.1673 1.6832 74.7450
ENERGY: 1500000 0.0696 0.1867 0.2883 0.0000 -10707.6473 1381.3838 0.0000 0.0000 1757.1085 -7568.6104 298.7220 -9325.7189 -7517.4061 300.5650 -751.2536 -587.3475 30545.5275 -1.8479 72.6054
TCL: Running FEP window  17: Lambda1 0.8000000000000002 Lambda2 0.8500000000000002 [dLambda 0.050000000000000044]
TCL: Setting parameter firsttimestep to 0
TCL: Setting parameter alchLambda to 0.8000000000000002
Info: NONBONDED TABLE R-SQUARED SPACING: 0.0625
Info: NONBONDED TABLE SIZE: 705 POINTS
TCL: Setting parameter alchLambda2 to 0.8500000000000002
Info: NONBONDED TABLE R-SQUARED SPACING: 0.0625
Info: NONBONDED TABLE SIZE: 705 POINTS
TCL: Running for 1500000 steps
ETITLE: TS BOND ANGLE DIHED IMPRP ELECT VDW BOUNDARY MISC KINETIC TOTAL TEMP POTENTIAL TOTALAVG TEMPAVG PRESSURE GPRESSURE VOLUME PRESSAVG GPRESSAVG
ENERGY: 0 0.0696 0.1867 0.2883 0.0000 -10707.8083 1381.2291 0.0000 0.0000 1756.2639 -7569.7707 298.5785 -9326.0346 -7569.7707 298.5785 -675.4421 -582.0469 30545.5275 -675.4421 -582.0469
ENERGY: 300000 0.4626 0.7869 0.9935 0.0000 -10680.6085 1440.5878 0.0000 0.0000 1714.1747 -7523.6030 291.4230 -9237.7777 -7539.5753 296.5395 30.1455 71.9805 30648.6644 60.6958 129.7606
ENERGY: 600000 1.3627 2.2993 1.4531 0.0000 -10628.8202 1352.8976 0.0000 0.0000 1790.3070 -7480.5005 304.3660 -9270.8075 -7544.6900 297.1936 -837.4782 -821.1482 31048.4180 -137.7773 -88.7951
ENERGY: 900000 1.9899 1.7054 0.1981 0.0000 -10667.8225 1424.2355 0.0000 0.0000 1763.1039 -7476.5897 299.7413 -9239.6936 -7542.6118 297.0809 -55.3749 -30.3903 30809.5062 -58.6443 -4.1466
ENERGY: 1200000 0.4468 3.0819 0.4698 0.0000 -10693.3962 1426.5211 0.0000 0.0000 1798.3837 -7464.4929 305.7391 -9262.8766 -7534.7658 297.7212 109.2263 163.4777 30190.9028 -175.3989 -118.7639
ENERGY: 1500000 2.2961 0.2478 1.0149 0.0000 -10688.0064 1416.3268 0.0000 0.0000 1727.7949 -7540.3258 293.7385 -9268.1207 -7538.2974 297.5396 -401.3416 -316.1658 30931.5614 -211.0022 -152.4693
TCL: Running FEP window  18: Lambda1 0.8500000000000002 Lambda2 0.9000000000000002 [dLambda 0.050000000000000044]
TCL: Setting parameter firsttimestep to 0
TCL: Setting parameter alchLambda to 0.8500000000000002
Info: NONBONDED TABLE R-SQUARED SPACING: 0.0625
Info: NONBONDED TABLE SIZE: 705 POINTS
TCL: Setting parameter alchLambda2 to 0.9000000000000002
Info: NONBONDED TABLE R-SQUARED SPACING: 0.0625
Info: NONBONDED TABLE SIZE: 705 POINTS
TCL: Running for 1500000 steps
ETITLE: TS BOND ANGLE DIHED IMPRP ELECT VDW BOUNDARY MISC KINETIC TOTAL TEMP POTENTIAL TOTALAVG TEMPAVG PRESSURE GPRESSURE VOLUME PRESSAVG GPRESSAVG
ENERGY: 0 2.2961 0.2478 1.0149 0.0000 -10687.9423 1416.7173 0.0000 0.0000 1726.9335 -7540.7325 293.5921 -9267.6660 -7540.7325 293.5921 -395.1581 -304.1912 30931.5614 -395.1581 -304.1912
ENERGY: 300000 0.8928 2.4628 0.4171 0.0000 -10634.9753 1390.2469 0.0000 0.0000 1772.4276 -7468.5282 301.3264 -9240.9557 -7523.5929 299.3967 -279.1112 -238.8707 30632.8345 -147.5660 -60.7689
ENERGY: 600000 0.9045 0.4237 0.0350 0.0000 -10706.9499 1399.6279 0.0000 0.0000 1759.2303 -7546.7285 299.0828 -9305.9588 -7526.6283 299.1155 -211.1017 -163.6039 30463.1248 -167.9883 -92.8181
ENERGY: 900000 2.0802 1.4966 1.4732 0.0000 -10742.0160 1498.1446 0.0000 0.0000 1749.7747 -7489.0467 297.4752 -9238.8214 -7498.7825 299.8194 957.9307 1004.4478 29969.2071 -5.3024 62.1318
ENERGY: 1200000 0.7737 0.3110 0.1821 0.0000 -10761.2897 1419.1128 0.0000 0.0000 1750.7179 -7590.1923 297.6356 -9340.9101 -7527.4034 298.8148 -378.2622 -343.3280 30765.7961 -61.5831 2.7760
ENERGY: 1500000 2.0398 0.5457 0.1187 0.0000 -10729.3522 1401.0373 0.0000 0.0000 1790.0747 -7535.5360 304.3265 -9325.6107 -7525.7497 298.8970 -311.8729 -239.1033 30269.8398 -100.7525 -35.5934
TCL: Running FEP window  19: Lambda1 0.9000000000000002 Lambda2 0.9500000000000003 [dLambda 0.050000000000000044]
TCL: Setting parameter firsttimestep to 0
TCL: Setting parameter alchLambda to 0.9000000000000002
Info: NONBONDED TABLE R-SQUARED SPACING: 0.0625
Info: NONBONDED TABLE SIZE: 705 POINTS
TCL: Setting parameter alchLambda2 to 0.9500000000000003
Info: NONBONDED TABLE R-SQUARED SPACING: 0.0625
Info: NONBONDED TABLE SIZE: 705 POINTS
TCL: Running for 1500000 steps
ETITLE: TS BOND ANGLE DIHED IMPRP ELECT VDW BOUNDARY MISC KINETIC TOTAL TEMP POTENTIAL TOTALAVG TEMPAVG PRESSURE GPRESSURE VOLUME PRESSAVG GPRESSAVG
ENERGY: 0 2.0398 0.5457 0.1187 0.0000 -10729.6486 1401.3655 0.0000 0.0000 1789.2145 -7536.3644 304.1803 -9325.5790 -7536.3644 304.1803 -325.2522 -225.9405 30269.8398 -325.2522 -225.9405
ENERGY: 300000 0.5582 1.1934 0.7983 0.0000 -10699.7320 1402.6040 0.0000 0.0000 1759.5316 -7535.0464 299.1340 -9294.5780 -7519.1083 303.2866 -387.8180 -295.1355 30710.3210 -203.3381 -128.6468
ENERGY: 600000 0.0337 0.5895 0.2522 0.0000 -10692.9250 1401.2747 0.0000 0.0000 1783.4454 -7507.3295 303.1995 -9290.7749 -7519.3178 302.8505 -440.1878 -361.5477 30698.3361 -100.8247 -19.8595
ENERGY: 900000 1.1463 1.3409 2.9420 0.0000 -10568.4421 1348.3221 0.0000 0.0000 1744.5503 -7470.1404 296.5870 -9214.6907 -7517.8072 302.2185 -716.5236 -590.4372 30746.8335 -238.2512 -144.6142
ENERGY: 1200000 0.5184 0.9130 0.3721 0.0000 -10784.4867 1407.6109 0.0000 0.0000 1775.5445 -7599.5277 301.8563 -9375.0722 -7531.4361 301.8571 -190.5674 -178.6037 30037.3024 -300.7540 -229.0485
ENERGY: 1500000 1.9410 0.0621 0.1834 0.0000 -10538.1701 1325.5194 0.0000 0.0000 1707.1879 -7503.2763 290.2351 -9210.4642 -7523.1779 301.5923 -1021.6987 -941.9537 31264.1202 -280.2395 -210.5493
TCL: Running FEP window  20: Lambda1 0.9500000000000003 Lambda2 1.0    [dLambda 0.04999999999999971]
TCL: Setting parameter firsttimestep to 0
TCL: Setting parameter alchLambda to 0.9500000000000003
Info: NONBONDED TABLE R-SQUARED SPACING: 0.0625
Info: NONBONDED TABLE SIZE: 705 POINTS
TCL: Setting parameter alchLambda2 to 1.0
Info: NONBONDED TABLE R-SQUARED SPACING: 0.0625
Info: NONBONDED TABLE SIZE: 705 POINTS
TCL: Running for 1500000 steps
ETITLE: TS BOND ANGLE DIHED IMPRP ELECT VDW BOUNDARY MISC KINETIC TOTAL TEMP POTENTIAL TOTALAVG TEMPAVG PRESSURE GPRESSURE VOLUME PRESSAVG GPRESSAVG
ENERGY: 0 1.9410 0.0621 0.1834 0.0000 -10538.6057 1325.5271 0.0000 0.0000 1706.3148 -7504.5773 290.0867 -9210.8921 -7504.5773 290.0867 -1016.5583 -936.4484 31264.1202 -1016.5583 -936.4484
ENERGY: 300000 0.6179 1.2278 1.4300 0.0000 -10696.8077 1427.1811 0.0000 0.0000 1794.7084 -7471.6425 305.1143 -9266.3509 -7474.0130 300.8566 -113.5104 -21.0692 30532.8547 -487.6796 -440.4131
ENERGY: 600000 0.9588 0.6131 1.2995 0.0000 -10597.5183 1397.1709 0.0000 0.0000 1728.2717 -7469.2044 293.8195 -9197.4761 -7496.9968 298.7062 -316.0077 -197.2241 30888.9842 -269.0549 -195.6005
ENERGY: 900000 0.2607 1.8279 1.6804 0.0000 -10694.5392 1481.4536 0.0000 0.0000 1746.2097 -7463.1068 296.8692 -9209.3165 -7496.0256 298.5791 264.9057 324.5039 30929.3155 -172.6178 -113.1360
ENERGY: 1200000 0.5752 1.3449 1.1687 0.0000 -10734.2046 1411.5652 0.0000 0.0000 1797.7089 -7521.8416 305.6244 -9319.5505 -7506.5276 299.5027 -485.0076 -426.4071 30770.9499 -188.9188 -131.0633
ENERGY: 1500000 1.2689 1.4760 1.0006 0.0000 -10714.8058 1429.9549 0.0000 0.0000 1762.5659 -7518.5395 299.6498 -9281.1054 -7511.2765 300.6976 6.2744 50.7925 30252.2143 -142.3325 -77.5359
TCL: Exiting due to exit command.
