Info: SIMULATION PARAMETERS:
Info: TIMESTEP               2
Info: NUMBER OF STEPS        0
Info: STEPS PER CYCLE        10
Info: PERIODIC CELL BASIS 1  41.123 0 0
Info: PERIODIC CELL BASIS 2  0 39.303 0
Info: PERIODIC CELL BASIS 3  0 0 42.009
Info: PERIODIC CELL CENTER   0 0 0
Info: WRAPPING WATERS AROUND PERIODIC BOUNDARIES ON OUTPUT.
Info: WRAPPING ALL CLUSTERS AROUND PERIODIC BOUNDARIES ON OUTPUT.
Info: FIRST LDB TIMESTEP     50
Info: LAST LDB TIMESTEP     -1
Info: HOM BACKGROUND SCALING 1
Info: PME BACKGROUND SCALING 1
Info: MIN ATOMS PER PATCH    40
Info: EMPTY PATCH LOAD       40 ATOMS
Info: INITIAL TEMPERATURE    300
Info: CENTER OF MASS MOVING INITIALLY? NO
Info: DIELECTRIC             1
Info: EXCLUDE                SCALED ONE-FOUR
Info: 1-4 ELECTROSTATICS SCALED BY 0.833333
Info: MODIFIED 1-4 VDW PARAMETERS WILL BE USED
Info: DCD FILENAME           mobley_1755375_min.dcd
Info: DCD FREQUENCY          5000
Info: DCD FIRST STEP         5000
Info: DCD FILE WILL CONTAIN UNIT CELL DATA
Info: XST FILENAME           mobley_1755375_min.xst
Info: XST FREQUENCY          5000
Info: NO VELOCITY DCD OUTPUT
Info: NO FORCE DCD OUTPUT
Info: OUTPUT FILENAME        mobley_1755375_min
Info: BINARY OUTPUT FILES WILL BE USED
Info: RESTART FILENAME       mobley_1755375_min.restart
Info: RESTART FREQUENCY      5000
Info: BINARY RESTART FILES WILL BE USED
Info: CUTOFF                 9
Info: PAIRLIST DISTANCE      11
Info: PAIRLIST SHRINK RATE   0.01
Info: PAIRLIST GROW RATE     0.01
Info: PAIRLIST TRIGGER       0.3
Info: PAIRLISTS PER CYCLE    2
Info: PAIRLISTS ENABLED
Info: MARGIN                 8
Info: HYDROGEN GROUP CUTOFF  2.5
Info: PATCH DIMENSION        21.5
Info: ENERGY OUTPUT STEPS    5000
Info: ENERGY EVALUATION STEPS    5000
Info: OUTPUT ENERGY PRECISION 4
Info: CROSSTERM ENERGY INCLUDED IN DIHEDRAL
Info: TIMING OUTPUT STEPS    50000
Info: PRESSURE OUTPUT STEPS  5000
Info: LANGEVIN DYNAMICS ACTIVE
Info: LANGEVIN TEMPERATURE   300
Info: LANGEVIN USING BBK INTEGRATOR
Info: LANGEVIN DAMPING COEFFICIENT IS 1 INVERSE PS
Info: LANGEVIN DYNAMICS APPLIED TO HYDROGENS
Info: LANGEVIN PISTON PRESSURE CONTROL ACTIVE
Info:        TARGET PRESSURE IS 1.01325 BAR
Info:     OSCILLATION PERIOD IS 50 FS
Info:             DECAY TIME IS 25 FS
Info:     PISTON TEMPERATURE IS 300 K
Info:       PRESSURE CONTROL IS GROUP-BASED
Info:    INITIAL STRAIN RATE IS 0 0 0
Info:       CELL FLUCTUATION IS ISOTROPIC
Info: PARTICLE MESH EWALD (PME) ACTIVE
Info: PME TOLERANCE               1e-06
Info: PME EWALD COEFFICIENT       0.348832
Info: PME INTERPOLATION ORDER     4
Info: PME GRID DIMENSIONS         44 40 44
Info: PME MAXIMUM GRID SPACING    1
Info: FULL ELECTROSTATIC EVALUATION FREQUENCY      2
Info: USING VERLET I (r-RESPA) MTS SCHEME.
Info: C1 SPLITTING OF LONG RANGE ELECTROSTATICS
Info: PLACING ATOMS IN PATCHES BY HYDROGEN GROUPS
Info: RIGID BONDS TO HYDROGEN : ALL
Info:         ERROR TOLERANCE : 1e-08
Info:          MAX ITERATIONS : 100
Info: RIGID WATER USING SETTLE ALGORITHM
Info: RANDOM NUMBER SEED     1741342436
Info: USE HYDROGEN BONDS?    NO
Info: Using AMBER format force field!
Info: AMBER PARM FILE        mobley_1755375.prmtop
Info: COORDINATE PDB         mobley_1755375.pdb
Info: Exclusions will be read from PARM file!
Info: SCNB (VDW SCALING)     2
Info: USING ARITHMETIC MEAN TO COMBINE L-J SIGMA PARAMETERS
Info: SUMMARY OF PARAMETERS:
Info: 8 BONDS
Info: 7 ANGLES
Info:   7 HARMONIC
Info:   0 COSINE-BASED
Info: 4 DIHEDRAL
Info: 0 IMPROPER
Info: 0 CROSSTERM
Info: 0 VDW
Info: 36 VDW_PAIRS
Info: 0 NBTHOLE_PAIRS
Info: STRUCTURE SUMMARY:
Info: 4903 ATOMS
Info: 4903 BONDS
Info: 31 ANGLES
Info: 43 DIHEDRALS
Info: 0 IMPROPERS
Info: 0 CROSSTERMS
Info: 4969 EXCLUSIONS
Info: 4894 RIGID BONDS
Info: 9815 DEGREES OF FREEDOM
Info: 1637 HYDROGEN GROUPS
Info: 4 ATOMS IN LARGEST HYDROGEN GROUP
Info: 1637 MIGRATION GROUPS
Info: 4 ATOMS IN LARGEST MIGRATION GROUP
Info: TOTAL MASS = 29452.2 amu
Info: TOTAL CHARGE = -9.99272e-05 e
Info: MASS DENSITY = 0.720318 g/cm^3
Info: ATOM DENSITY = 0.0722119 atoms/A^3
Info: ADDED 0 IMPLICIT EXCLUSIONS
Info: NONBONDED TABLE R-SQUARED SPACING: 0.0625
Info: NONBONDED TABLE SIZE: 705 POINTS
Info: REMOVING COM VELOCITY 0.147686 0.0636397 0.0639082
TCL: Minimizing for 2000 steps
ETITLE: TS BOND ANGLE DIHED IMPRP ELECT VDW BOUNDARY MISC KINETIC TOTAL TEMP POTENTIAL TOTAL3 TEMPAVG PRESSURE GPRESSURE VOLUME PRESSAVG GPRESSAVG
ENERGY: 0 0.2492 0.2381 0.0002 0.0000 -15297.5530 1775.8775 0.0000 0.0000 0.0000 -13521.1879 0.0000 -13521.1879 -13521.1879 0.0000 11308.2390 -15555.7741 67897.3516 11308.2390 -15555.7741
ENERGY: 400 6.1634 2.3363 0.0541 0.0000 -20499.7507 2947.3938 0.0000 0.0000 0.0000 -17543.8032 0.0000 -17543.8032 -17543.8032 0.0000 15558.4785 15720.8781 67897.3516 15558.4785 15720.8781
ENERGY: 800 1.3204 0.2946 0.0933 0.0000 -21620.7100 3499.4299 0.0000 0.0000 0.0000 -18119.5718 0.0000 -18119.5718 -18119.5718 0.0000 18060.0731 18191.7886 67897.3516 18060.0731 18191.7886
ENERGY: 1200 0.5631 0.2818 0.0865 0.0000 -22091.4965 3704.6681 0.0000 0.0000 0.0000 -18385.8970 0.0000 -18385.8970 -18385.8970 0.0000 19033.9822 19155.5152 67897.3516 19033.9822 19155.5152
ENERGY: 1600 0.3768 0.3425 0.0254 0.0000 -22281.3760 3771.3854 0.0000 0.0000 0.0000 -18509.2460 0.0000 -18509.2460 -18509.2460 0.0000 19383.6040 19500.6047 67897.3516 19383.6040 19500.6047
ENERGY: 2000 0.3553 0.2433 0.0316 0.0000 -22388.2302 3798.5374 0.0000 0.0000 0.0000 -18589.0628 0.0000 -18589.0628 -18589.0628 0.0000 19557.7975 19671.1931 67897.3516 19557.7975 19671.1931
TCL: Exiting due to exit command.
Info: NAMD 3.0.1 for Linux-x86_64-multicore
Info: Please visit http://www.ks.uiuc.edu/Research/namd/
Info: for updates, documentation, and support information.
Info: Please cite Phillips et al., J. Chem. Phys. 153:044130 (2020) doi:10.1063/5.0014475
Info: in all publications reporting results obtained with NAMD.
Info: Based on Charm++/Converse 80000 for multicore-linux-x86_64-gcc
Info: Built Mon Oct 14 11:11:06 CDT 2024 by dhardy on athine.ks.uiuc.edu
Info: 1 NAMD  3.0.1  Linux-x86_64-multicore  16    k005  z5358697
Info: Running on 16 processors, 1 nodes, 1 physical nodes.
Info: CPU topology information available.
Info: Charm++/Converse parallel runtime startup completed at 0.00985813 s
Info: 1043.45 MB of memory in use based on /proc/self/stat
Info: Configuration file is mobley_1755375_equil.namd
Info: Working in the current directory /srv/scratch/z5358697/prod_prep_1/1755375
TCL: Running 25000 steps at 30 kelvin.
TCL: Suspending until startup complete.
Info: SIMULATION PARAMETERS:
Info: TIMESTEP               2
Info: NUMBER OF STEPS        0
Info: STEPS PER CYCLE        10
Info: PERIODIC CELL BASIS 1  41.123 0 0
Info: PERIODIC CELL BASIS 2  0 39.303 0
Info: PERIODIC CELL BASIS 3  0 0 42.009
Info: PERIODIC CELL CENTER   0 0 0
Info: WRAPPING WATERS AROUND PERIODIC BOUNDARIES ON OUTPUT.
Info: WRAPPING ALL CLUSTERS AROUND PERIODIC BOUNDARIES ON OUTPUT.
Info: FIRST LDB TIMESTEP     50
Info: LAST LDB TIMESTEP     -1
Info: HOM BACKGROUND SCALING 1
Info: PME BACKGROUND SCALING 1
Info: MIN ATOMS PER PATCH    40
Info: EMPTY PATCH LOAD       40 ATOMS
Info: INITIAL TEMPERATURE    300
Info: CENTER OF MASS MOVING INITIALLY? NO
Info: DIELECTRIC             1
Info: EXCLUDE                SCALED ONE-FOUR
Info: 1-4 ELECTROSTATICS SCALED BY 0.833333
Info: MODIFIED 1-4 VDW PARAMETERS WILL BE USED
Info: DCD FILENAME           mobley_1755375_equil.dcd
Info: DCD FREQUENCY          5000
Info: DCD FIRST STEP         5000
Info: DCD FILE WILL CONTAIN UNIT CELL DATA
Info: XST FILENAME           mobley_1755375_equil.xst
Info: XST FREQUENCY          5000
Info: NO VELOCITY DCD OUTPUT
Info: NO FORCE DCD OUTPUT
Info: OUTPUT FILENAME        mobley_1755375_equil
Info: BINARY OUTPUT FILES WILL BE USED
Info: RESTART FILENAME       mobley_1755375_equil.restart
Info: RESTART FREQUENCY      5000
Info: BINARY RESTART FILES WILL BE USED
Info: CUTOFF                 9
Info: PAIRLIST DISTANCE      11
Info: PAIRLIST SHRINK RATE   0.01
Info: PAIRLIST GROW RATE     0.01
Info: PAIRLIST TRIGGER       0.3
Info: PAIRLISTS PER CYCLE    2
Info: PAIRLISTS ENABLED
Info: MARGIN                 8
Info: HYDROGEN GROUP CUTOFF  2.5
Info: PATCH DIMENSION        21.5
Info: ENERGY OUTPUT STEPS    5000
Info: ENERGY EVALUATION STEPS    5000
Info: OUTPUT ENERGY PRECISION 4
Info: CROSSTERM ENERGY INCLUDED IN DIHEDRAL
Info: TIMING OUTPUT STEPS    50000
Info: PRESSURE OUTPUT STEPS  5000
Info: LANGEVIN DYNAMICS ACTIVE
Info: LANGEVIN TEMPERATURE   30
Info: LANGEVIN USING BBK INTEGRATOR
Info: LANGEVIN DAMPING COEFFICIENT IS 1 INVERSE PS
Info: LANGEVIN DYNAMICS APPLIED TO HYDROGENS
Info: LANGEVIN PISTON PRESSURE CONTROL ACTIVE
Info:        TARGET PRESSURE IS 1.01325 BAR
Info:     OSCILLATION PERIOD IS 50 FS
Info:             DECAY TIME IS 25 FS
Info:     PISTON TEMPERATURE IS 300 K
Info:       PRESSURE CONTROL IS GROUP-BASED
Info:    INITIAL STRAIN RATE IS 0 0 0
Info:       CELL FLUCTUATION IS ISOTROPIC
Info: PARTICLE MESH EWALD (PME) ACTIVE
Info: PME TOLERANCE               1e-06
Info: PME EWALD COEFFICIENT       0.348832
Info: PME INTERPOLATION ORDER     4
Info: PME GRID DIMENSIONS         44 40 44
Info: PME MAXIMUM GRID SPACING    1
Info: FULL ELECTROSTATIC EVALUATION FREQUENCY      2
Info: USING VERLET I (r-RESPA) MTS SCHEME.
Info: C1 SPLITTING OF LONG RANGE ELECTROSTATICS
Info: PLACING ATOMS IN PATCHES BY HYDROGEN GROUPS
Info: RIGID BONDS TO HYDROGEN : ALL
Info:         ERROR TOLERANCE : 1e-08
Info:          MAX ITERATIONS : 100
Info: RIGID WATER USING SETTLE ALGORITHM
Info: RANDOM NUMBER SEED     1741342453
Info: USE HYDROGEN BONDS?    NO
Info: Using AMBER format force field!
Info: AMBER PARM FILE        mobley_1755375.prmtop
Info: COORDINATE PDB         mobley_1755375.pdb
Info: Exclusions will be read from PARM file!
Info: SCNB (VDW SCALING)     2
Info: USING ARITHMETIC MEAN TO COMBINE L-J SIGMA PARAMETERS
Info: BINARY COORDINATES     mobley_1755375_min.coor
Info: SUMMARY OF PARAMETERS:
Info: 8 BONDS
Info: 7 ANGLES
Info:   7 HARMONIC
Info:   0 COSINE-BASED
Info: 4 DIHEDRAL
Info: 0 IMPROPER
Info: 0 CROSSTERM
Info: 0 VDW
Info: 36 VDW_PAIRS
Info: 0 NBTHOLE_PAIRS
Info: STRUCTURE SUMMARY:
Info: 4903 ATOMS
Info: 4903 BONDS
Info: 31 ANGLES
Info: 43 DIHEDRALS
Info: 0 IMPROPERS
Info: 0 CROSSTERMS
Info: 4969 EXCLUSIONS
Info: 4894 RIGID BONDS
Info: 9815 DEGREES OF FREEDOM
Info: 1637 HYDROGEN GROUPS
Info: 4 ATOMS IN LARGEST HYDROGEN GROUP
Info: 1637 MIGRATION GROUPS
Info: 4 ATOMS IN LARGEST MIGRATION GROUP
Info: TOTAL MASS = 29452.2 amu
Info: TOTAL CHARGE = -9.99272e-05 e
Info: MASS DENSITY = 0.720318 g/cm^3
Info: ATOM DENSITY = 0.0722119 atoms/A^3
Info: ADDED 0 IMPLICIT EXCLUSIONS
Info: NONBONDED TABLE R-SQUARED SPACING: 0.0625
Info: NONBONDED TABLE SIZE: 705 POINTS
Info: REMOVING COM VELOCITY 0.0226292 0.0334414 -0.0476315
TCL: Running for 25000 steps
ETITLE: TS BOND ANGLE DIHED IMPRP ELECT VDW BOUNDARY MISC KINETIC TOTAL TEMP POTENTIAL TOTAL3 TEMPAVG PRESSURE GPRESSURE VOLUME PRESSAVG GPRESSAVG
ENERGY: 0 0.3553 0.2433 0.0316 0.0000 -22388.2302 3798.5374 0.0000 0.0000 2883.9890 -15705.0738 295.7288 -18589.0627 -15704.4976 295.7288 -137.8969 -103.0390 67897.3516 -137.8969 -103.0390
ENERGY: 5000 0.3630 1.0696 0.7096 0.0000 -23352.8586 3974.9305 0.0000 0.0000 303.8752 -19071.9107 31.1599 -19375.7859 -19070.9894 47.1932 -487.6437 -445.4685 48696.3607 3.3352 3.2657
ENERGY: 10000 0.5268 0.6822 0.9184 0.0000 -23366.4590 3974.4054 0.0000 0.0000 289.3206 -19100.6056 29.6674 -19389.9262 -19099.8772 30.1137 -552.3361 -501.1081 48614.4475 3.5335 3.6071
ENERGY: 15000 0.7021 0.9261 0.7659 0.0000 -23618.5045 4186.0092 0.0000 0.0000 296.9811 -19133.1201 30.4529 -19430.1012 -19132.2395 30.1869 520.1975 578.6586 48085.0692 2.1052 2.1156
ENERGY: 20000 0.8537 0.5654 1.2894 0.0000 -23509.7390 4064.3828 0.0000 0.0000 289.4874 -19153.1603 29.6845 -19442.6477 -19152.4770 30.0844 -188.6195 -131.8041 48185.5807 0.6748 0.7759
ENERGY: 25000 0.3500 0.4789 1.1221 0.0000 -23687.1373 4238.8344 0.0000 0.0000 287.3400 -19159.0117 29.4643 -19446.3517 -19158.5329 30.1569 698.6102 758.7411 47958.0377 0.7600 0.8207
TCL: Running 25000 steps at 60 kelvin.
TCL: Setting parameter langevinTemp to 60
TCL: Running for 25000 steps
ETITLE: TS BOND ANGLE DIHED IMPRP ELECT VDW BOUNDARY MISC KINETIC TOTAL TEMP POTENTIAL TOTAL3 TEMPAVG PRESSURE GPRESSURE VOLUME PRESSAVG GPRESSAVG
ENERGY: 25000 0.3500 0.4789 1.1221 0.0000 -23687.1373 4238.8344 0.0000 0.0000 287.1978 -19159.1539 29.4497 -19446.3517 -19158.5885 29.4497 705.5297 758.6845 47958.0377 705.5297 758.6845
ENERGY: 30000 0.6535 1.9022 1.7028 0.0000 -23191.8226 4025.1829 0.0000 0.0000 592.7057 -18569.6755 60.7770 -19162.3812 -18568.6582 56.5151 283.6632 349.0014 48352.3389 0.5138 0.6576
ENERGY: 35000 0.6604 1.1029 1.5620 0.0000 -23227.2167 3984.2608 0.0000 0.0000 583.1136 -18656.5171 59.7934 -19239.6307 -18655.3776 60.5297 -127.0510 -62.1238 48212.5038 6.0616 6.2540
ENERGY: 40000 0.6225 1.6338 2.4979 0.0000 -23197.2668 3903.3802 0.0000 0.0000 576.8304 -18712.3020 59.1491 -19289.1324 -18710.6579 59.8427 -640.2544 -593.5894 48448.6924 -0.1671 -0.1823
ENERGY: 45000 0.6215 2.0941 2.1896 0.0000 -23150.6075 3847.3621 0.0000 0.0000 593.9309 -18704.4093 60.9026 -19298.3402 -18701.9391 60.0580 -1018.2516 -955.2382 48499.9776 8.6743 8.6217
ENERGY: 50000 0.9368 1.0877 2.8984 0.0000 -23479.9842 4159.6356 0.0000 0.0000 603.8074 -18711.6183 61.9154 -19315.4257 -18709.8587 60.1720 573.7455 630.8095 47956.4661 5.0393 4.9039
TCL: Running 25000 steps at 90 kelvin.
TCL: Setting parameter langevinTemp to 90
TCL: Running for 25000 steps
ETITLE: TS BOND ANGLE DIHED IMPRP ELECT VDW BOUNDARY MISC KINETIC TOTAL TEMP POTENTIAL TOTAL3 TEMPAVG PRESSURE GPRESSURE VOLUME PRESSAVG GPRESSAVG
ENERGY: 50000 0.9368 1.0877 2.8984 0.0000 -23479.9842 4159.6356 0.0000 0.0000 603.5146 -18711.9111 61.8854 -19315.4257 -18710.6309 61.8854 577.0643 630.9720 47956.4661 577.0643 630.9720
ENERGY: 55000 0.6953 1.2671 1.8637 0.0000 -22938.9010 3922.6341 0.0000 0.0000 886.3157 -18126.1251 90.8842 -19012.4408 -18124.3703 86.5163 -12.3088 78.6854 48541.9380 -4.8305 -4.7629
ENERGY: 60000 0.9309 2.4467 2.5229 0.0000 -22989.7469 3914.1050 0.0000 0.0000 906.4373 -18163.3040 92.9475 -19069.7413 -18160.9170 90.1352 -152.2432 -71.9951 48548.9749 7.1560 6.9692
ENERGY: 65000 1.4428 1.8021 3.8956 0.0000 -23081.6845 3974.1380 0.0000 0.0000 881.4852 -18218.9208 90.3889 -19100.4060 -18217.2105 90.7277 32.0268 110.7227 48513.4349 0.4331 0.7465
ENERGY: 70000 1.0811 2.0227 2.2808 0.0000 -23023.8124 3882.0219 0.0000 0.0000 907.1412 -18229.2647 93.0197 -19136.4059 -18227.2786 89.9055 -415.3332 -367.2299 48538.7162 6.7895 6.8509
ENERGY: 75000 1.3792 3.6019 2.6254 0.0000 -23132.5065 3993.7108 0.0000 0.0000 884.0739 -18247.1152 90.6544 -19131.1892 -18245.4939 90.2258 195.4264 251.4664 48289.7530 3.9499 4.2594
TCL: Running 25000 steps at 120 kelvin.
TCL: Setting parameter langevinTemp to 120
TCL: Running for 25000 steps
ETITLE: TS BOND ANGLE DIHED IMPRP ELECT VDW BOUNDARY MISC KINETIC TOTAL TEMP POTENTIAL TOTAL3 TEMPAVG PRESSURE GPRESSURE VOLUME PRESSAVG GPRESSAVG
ENERGY: 75000 1.3792 3.6019 2.6254 0.0000 -23132.5065 3993.7108 0.0000 0.0000 883.6331 -18247.5561 90.6091 -19131.1892 -18245.4234 90.6091 200.5595 251.2038 48289.7530 200.5595 251.2038
ENERGY: 80000 1.4936 2.5911 2.2045 0.0000 -22582.7338 3760.9994 0.0000 0.0000 1179.1221 -17636.3232 120.9091 -18815.4453 -17631.7495 116.6464 -261.0906 -207.9098 48534.6919 2.8187 2.7847
ENERGY: 85000 0.4408 1.3872 2.7570 0.0000 -22692.1807 3850.0620 0.0000 0.0000 1177.0539 -17660.4798 120.6970 -18837.5337 -17656.2555 120.6136 147.2692 165.6986 48439.8318 2.5277 2.6075
ENERGY: 90000 1.3049 2.5575 3.7997 0.0000 -22951.0238 4062.7207 0.0000 0.0000 1190.7116 -17689.9293 122.0975 -18880.6409 -17687.9900 120.6163 1159.9015 1220.3312 47935.4816 7.3308 7.4425
ENERGY: 95000 1.4379 4.2595 3.9595 0.0000 -22715.9220 3804.8534 0.0000 0.0000 1186.5363 -17714.8754 121.6693 -18901.4117 -17711.6370 121.1093 -340.9491 -264.5615 48536.3575 6.6856 6.5716
ENERGY: 100000 1.9302 2.9940 3.0473 0.0000 -22687.5364 3780.9771 0.0000 0.0000 1174.4001 -17724.1876 120.4249 -18898.5878 -17720.5823 120.3840 -432.3205 -385.1922 48638.0464 5.7898 5.3265
TCL: Running 25000 steps at 150 kelvin.
TCL: Setting parameter langevinTemp to 150
TCL: Running for 25000 steps
ETITLE: TS BOND ANGLE DIHED IMPRP ELECT VDW BOUNDARY MISC KINETIC TOTAL TEMP POTENTIAL TOTAL3 TEMPAVG PRESSURE GPRESSURE VOLUME PRESSAVG GPRESSAVG
ENERGY: 100000 1.9302 2.9940 3.0473 0.0000 -22687.5364 3780.9771 0.0000 0.0000 1173.8244 -17724.7633 120.3658 -18898.5878 -17722.2971 120.3658 -443.4252 -384.8282 48638.0464 -443.4252 -384.8282
ENERGY: 105000 0.3006 3.2476 2.6113 0.0000 -22324.4557 3744.7846 0.0000 0.0000 1473.8803 -17099.6312 151.1340 -18573.5116 -17097.5251 147.3126 193.8963 282.6084 48594.2597 -0.2466 0.1593
ENERGY: 110000 1.9064 4.4592 2.6276 0.0000 -22440.5831 3844.9460 0.0000 0.0000 1483.1389 -17103.5050 152.0834 -18586.6439 -17100.2912 151.0890 584.1169 615.1314 48482.5593 1.5314 1.5627
ENERGY: 115000 4.1597 2.2429 2.0742 0.0000 -22408.7854 3771.6435 0.0000 0.0000 1481.4805 -17147.1846 151.9134 -18628.6651 -17143.4102 149.6897 184.7085 242.1428 48518.0426 1.7162 2.1040
ENERGY: 120000 1.2357 3.2059 1.8076 0.0000 -22321.0801 3686.0405 0.0000 0.0000 1521.2369 -17107.5535 155.9901 -18628.7904 -17103.6018 150.4669 -197.6609 -143.8667 48607.5313 4.8880 4.9158
ENERGY: 125000 1.0364 4.4173 2.7570 0.0000 -22379.5986 3759.0043 0.0000 0.0000 1471.4034 -17140.9803 150.8801 -18612.3837 -17135.3911 151.3299 207.6747 267.0170 48458.4103 -1.0910 -1.3690
TCL: Running 50000 steps at 180 kelvin.
TCL: Setting parameter langevinTemp to 180
TCL: Running for 50000 steps
ETITLE: TS BOND ANGLE DIHED IMPRP ELECT VDW BOUNDARY MISC KINETIC TOTAL TEMP POTENTIAL TOTAL3 TEMPAVG PRESSURE GPRESSURE VOLUME PRESSAVG GPRESSAVG
ENERGY: 125000 1.0364 4.4173 2.7570 0.0000 -22379.5986 3759.0043 0.0000 0.0000 1470.6635 -17141.7202 150.8042 -18612.3837 -17138.8862 150.8042 209.3743 267.8060 48458.4103 209.3743 267.8060
ENERGY: 135000 1.9028 3.1028 1.2833 0.0000 -21848.3609 3609.9138 0.0000 0.0000 1737.8427 -16494.3156 178.2012 -18232.1583 -16489.0687 178.5373 432.0146 456.2364 48097.6390 2.7471 3.2726
ENERGY: 145000 2.5478 4.1086 2.6311 0.0000 -21455.6684 3293.0249 0.0000 0.0000 1765.5584 -16387.7977 181.0432 -18153.3560 -16384.1405 181.3675 -998.6598 -871.5478 48070.5917 4.9634 4.8360
ENERGY: 155000 1.1293 2.3759 0.8739 0.0000 -21800.7042 3613.5378 0.0000 0.0000 1793.7462 -16389.0412 183.9336 -18182.7873 -16386.2862 179.7551 775.0996 853.0600 47708.3336 3.0768 2.7465
ENERGY: 165000 0.5775 2.4868 1.2202 0.0000 -21810.2383 3589.9957 0.0000 0.0000 1809.2021 -16406.7561 185.5185 -18215.9581 -16402.6146 181.1302 440.3502 498.9025 48056.6278 1.3917 2.0884
ENERGY: 175000 2.9619 3.6414 5.7143 0.0000 -21859.3857 3614.2971 0.0000 0.0000 1775.3384 -16457.4326 182.0460 -18232.7710 -16453.2670 179.5335 581.0321 650.0714 47633.4689 1.1831 0.3637
TCL: Running 50000 steps at 210 kelvin.
TCL: Setting parameter langevinTemp to 210
TCL: Running for 50000 steps
ETITLE: TS BOND ANGLE DIHED IMPRP ELECT VDW BOUNDARY MISC KINETIC TOTAL TEMP POTENTIAL TOTAL3 TEMPAVG PRESSURE GPRESSURE VOLUME PRESSAVG GPRESSAVG
ENERGY: 175000 2.9619 3.6414 5.7143 0.0000 -21859.3857 3614.2971 0.0000 0.0000 1774.4588 -16458.3121 181.9558 -18232.7710 -16455.2544 181.9558 575.5856 649.8407 47633.4689 575.5856 649.8407
ENERGY: 185000 2.2039 4.5798 1.5461 0.0000 -20942.6390 3343.5263 0.0000 0.0000 2071.0113 -15519.7716 212.3648 -17590.7830 -15517.5058 209.6901 752.1681 839.1202 47605.6748 1.8783 2.3049
ENERGY: 195000 2.6058 3.5891 2.2206 0.0000 -20559.3801 3077.3025 0.0000 0.0000 2057.9617 -15415.7004 211.0267 -17473.6621 -15411.8944 209.5841 -469.5970 -425.2352 48081.3305 2.5379 2.4806
ENERGY: 205000 0.7505 4.7843 1.7216 0.0000 -20619.3614 3129.5525 0.0000 0.0000 2038.3986 -15444.1541 209.0206 -17482.5527 -15440.2822 209.7115 -7.4315 71.8229 47412.3002 6.1205 6.4469
ENERGY: 215000 2.8775 3.2897 2.1537 0.0000 -20506.5370 3015.0050 0.0000 0.0000 2018.6786 -15464.5326 206.9985 -17483.2111 -15460.0861 210.0179 -993.6608 -890.8825 48504.3613 2.0923 2.1124
ENERGY: 225000 1.1514 1.9038 1.1243 0.0000 -20617.4098 3087.7291 0.0000 0.0000 1991.9947 -15533.5064 204.2623 -17525.5012 -15528.6102 208.6210 -517.4489 -408.8007 47813.7147 4.3173 4.1448
TCL: Running 50000 steps at 240 kelvin.
TCL: Setting parameter langevinTemp to 240
TCL: Running for 50000 steps
ETITLE: TS BOND ANGLE DIHED IMPRP ELECT VDW BOUNDARY MISC KINETIC TOTAL TEMP POTENTIAL TOTAL3 TEMPAVG PRESSURE GPRESSURE VOLUME PRESSAVG GPRESSAVG
ENERGY: 225000 1.1514 1.9038 1.1243 0.0000 -20617.4098 3087.7291 0.0000 0.0000 1990.9684 -15534.5328 204.1571 -17525.5012 -15530.1389 204.1571 -479.2590 -408.4478 47813.7147 -479.2590 -408.4478
ENERGY: 235000 2.4229 2.4372 1.8852 0.0000 -19590.6876 2851.8951 0.0000 0.0000 2297.8980 -14434.1492 235.6301 -16732.0472 -14428.3415 239.9302 -21.7208 85.3159 48328.9830 3.6738 4.1834
ENERGY: 245000 1.6384 5.3184 1.1390 0.0000 -19728.8410 2943.2362 0.0000 0.0000 2373.7587 -14403.7504 243.4090 -16777.5090 -14397.7751 240.0369 347.0930 441.3395 48542.3557 1.0298 1.1449
ENERGY: 255000 5.5472 4.4158 1.1104 0.0000 -19369.1375 2686.9591 0.0000 0.0000 2343.3393 -14327.7656 240.2898 -16671.1049 -14322.7828 241.0337 -892.6050 -819.7287 48829.3816 3.9865 3.9891
ENERGY: 265000 3.1842 4.2071 5.7485 0.0000 -19487.3745 2759.4152 0.0000 0.0000 2399.9819 -14314.8377 246.0980 -16714.8195 -14309.7348 240.6305 -544.4173 -439.7620 48618.2426 2.9583 2.9671
ENERGY: 275000 2.0138 5.5053 2.4638 0.0000 -19446.8245 2740.0357 0.0000 0.0000 2324.5519 -14372.2540 238.3633 -16696.8058 -14365.6163 238.6088 -608.3789 -577.5110 48672.3162 0.8957 1.9139
TCL: Running 50000 steps at 270 kelvin.
TCL: Setting parameter langevinTemp to 270
TCL: Running for 50000 steps
ETITLE: TS BOND ANGLE DIHED IMPRP ELECT VDW BOUNDARY MISC KINETIC TOTAL TEMP POTENTIAL TOTAL3 TEMPAVG PRESSURE GPRESSURE VOLUME PRESSAVG GPRESSAVG
ENERGY: 275000 2.0138 5.5053 2.4638 0.0000 -19446.8245 2740.0357 0.0000 0.0000 2323.3994 -14373.4064 238.2451 -16696.8058 -14369.8394 238.2451 -648.3980 -576.2384 48672.3162 -648.3980 -576.2384
ENERGY: 285000 3.3015 5.3498 3.2786 0.0000 -18503.6799 2482.7535 0.0000 0.0000 2667.2248 -13341.7717 273.5015 -16008.9965 -13335.6240 271.4397 -448.6657 -369.9955 49208.0235 8.9345 8.7740
ENERGY: 295000 3.3598 6.7274 8.2555 0.0000 -18560.5844 2509.9061 0.0000 0.0000 2657.8310 -13374.5046 272.5382 -16032.3356 -13371.6351 270.1934 -430.1147 -382.6857 49623.7791 2.2028 2.4828
ENERGY: 305000 1.9244 4.2034 4.6933 0.0000 -18496.5501 2452.9274 0.0000 0.0000 2696.6928 -13336.1087 276.5232 -16032.8015 -13331.7417 269.5750 -810.9830 -710.7838 49741.8071 2.6025 2.4092
ENERGY: 315000 3.0011 3.5365 4.3669 0.0000 -18595.7960 2582.8397 0.0000 0.0000 2672.3939 -13329.6579 274.0315 -16002.0518 -13324.5841 272.0114 -303.6669 -250.8564 50146.6056 -0.6023 -0.0192
ENERGY: 325000 1.6835 5.9683 4.6556 0.0000 -18590.3121 2447.2753 0.0000 0.0000 2699.5774 -13431.1519 276.8190 -16130.7294 -13423.3500 270.4492 -960.3204 -875.0863 49594.9033 7.5020 7.6111
TCL: Running 1000000 steps at 300 kelvin.
TCL: Setting parameter langevinTemp to 300
TCL: Running for 1000000 steps
ETITLE: TS BOND ANGLE DIHED IMPRP ELECT VDW BOUNDARY MISC KINETIC TOTAL TEMP POTENTIAL TOTAL3 TEMPAVG PRESSURE GPRESSURE VOLUME PRESSAVG GPRESSAVG
ENERGY: 325000 1.6835 5.9683 4.6556 0.0000 -18590.3121 2447.2753 0.0000 0.0000 2698.2497 -13432.4797 276.6828 -16130.7294 -13427.9259 276.6828 -952.7817 -874.5765 49594.9033 -952.7817 -874.5765
ENERGY: 525000 4.3711 6.8151 5.6662 0.0000 -17670.4673 2321.8443 0.0000 0.0000 2952.0189 -12379.7517 302.7047 -15331.7706 -12373.9644 301.9429 -292.3593 -215.1750 50549.6158 6.3050 5.9973
ENERGY: 725000 2.7127 5.3509 0.9060 0.0000 -17871.7504 2428.9712 0.0000 0.0000 2869.0456 -12564.7640 294.1965 -15433.8096 -12556.8216 299.9716 -181.2978 -42.9259 50769.1204 6.5836 6.2889
ENERGY: 925000 5.4382 10.6297 3.9644 0.0000 -17683.9664 2311.9156 0.0000 0.0000 2953.5100 -12398.5086 302.8576 -15352.0185 -12392.0492 300.3732 -476.3057 -389.0716 50907.6188 -3.0517 -2.7503
ENERGY: 1125000 1.6756 10.6157 2.6280 0.0000 -17852.4213 2478.7249 0.0000 0.0000 2922.7902 -12435.9869 299.7076 -15358.7771 -12431.9561 301.3086 345.3658 419.5678 50460.0934 4.4335 4.8105
ENERGY: 1325000 2.2873 8.7219 0.5569 0.0000 -17680.0846 2306.2118 0.0000 0.0000 2885.7463 -12476.5604 295.9090 -15362.3066 -12468.7255 300.8889 -471.9508 -402.9575 50825.8243 4.3697 4.0330
TCL: Exiting due to exit command.
