Info: SIMULATION PARAMETERS:
Info: TIMESTEP               1
Info: NUMBER OF STEPS        0
Info: STEPS PER CYCLE        10
Info: PERIODIC CELL BASIS 1  30 0 0
Info: PERIODIC CELL BASIS 2  0 30 0
Info: PERIODIC CELL BASIS 3  0 0 30
Info: PERIODIC CELL CENTER   0 0 0
Info: WRAPPING ALL CLUSTERS AROUND PERIODIC BOUNDARIES ON OUTPUT.
Info: FIRST LDB TIMESTEP     50
Info: LAST LDB TIMESTEP     -1
Info: HOM BACKGROUND SCALING 1
Info: MIN ATOMS PER PATCH    40
Info: EMPTY PATCH LOAD       40 ATOMS
Info: INITIAL TEMPERATURE    298
Info: CENTER OF MASS MOVING INITIALLY? NO
Info: DIELECTRIC             1
Info: EXCLUDE                SCALED ONE-FOUR
Info: 1-4 ELECTROSTATICS SCALED BY 1
Info: MODIFIED 1-4 VDW PARAMETERS WILL BE USED
Info: DCD FILENAME           output.dcd
Info: DCD FREQUENCY          50
Info: DCD FIRST STEP         50
Info: DCD FILE WILL CONTAIN UNIT CELL DATA
Info: NO EXTENDED SYSTEM TRAJECTORY OUTPUT
Info: NO VELOCITY DCD OUTPUT
Info: NO FORCE DCD OUTPUT
Info: OUTPUT FILENAME        output
Info: BINARY OUTPUT FILES WILL BE USED
Info: NO RESTART FILE
Info: SWITCHING ACTIVE
Info: SWITCHING ON           10
Info: SWITCHING OFF          12
Info: PAIRLIST DISTANCE      14
Info: PAIRLIST SHRINK RATE   0.01
Info: PAIRLIST GROW RATE     0.01
Info: PAIRLIST TRIGGER       0.3
Info: PAIRLISTS PER CYCLE    2
Info: PAIRLISTS ENABLED
Info: MARGIN                 0.495
Info: HYDROGEN GROUP CUTOFF  2.5
Info: PATCH DIMENSION        16.995
Info: ENERGY OUTPUT STEPS    50
Info: ENERGY EVALUATION STEPS    50
Info: OUTPUT ENERGY PRECISION 4
Info: CROSSTERM ENERGY INCLUDED IN DIHEDRAL
Info: TIMING OUTPUT STEPS    50
Info: LANGEVIN DYNAMICS ACTIVE
Info: LANGEVIN TEMPERATURE   298
Info: LANGEVIN USING BBK INTEGRATOR
Info: LANGEVIN DAMPING COEFFICIENT IS 1 INVERSE PS
Info: LANGEVIN DYNAMICS NOT APPLIED TO HYDROGENS
Info: LANGEVIN PISTON PRESSURE CONTROL ACTIVE
Info:        TARGET PRESSURE IS 1.01325 BAR
Info:     OSCILLATION PERIOD IS 100 FS
Info:             DECAY TIME IS 50 FS
Info:     PISTON TEMPERATURE IS 298 K
Info:       PRESSURE CONTROL IS GROUP-BASED
Info:    INITIAL STRAIN RATE IS 0 0 0
Info:       CELL FLUCTUATION IS ISOTROPIC
Info: MULTILEVEL SUMMATION METHOD (MSM) FOR ELECTROSTATICS ACTIVE
Info: MSM WITH C1 CUBIC INTERPOLATION AND C2 TAYLOR SPLITTING
Info: FULL ELECTROSTATIC EVALUATION FREQUENCY      1
Info: USING VERLET I (r-RESPA) MTS SCHEME.
Info: C1 SPLITTING OF LONG RANGE ELECTROSTATICS
Info: PLACING ATOMS IN PATCHES BY HYDROGEN GROUPS
Info: RIGID BONDS TO HYDROGEN : ALL
Info:         ERROR TOLERANCE : 1e-08
Info:          MAX ITERATIONS : 100
Info: RIGID WATER USING SETTLE ALGORITHM
Info: RANDOM NUMBER SEED     1740284813
Info: USE HYDROGEN BONDS?    NO
Info: COORDINATE PDB         ionized.pdb
Info: STRUCTURE FILE         ionized.psf
Info: PARAMETER file: CHARMM format!
Info: PARAMETERS             par_all27_prot_lipid.inp
Info: USING ARITHMETIC MEAN TO COMBINE L-J SIGMA PARAMETERS
Info: SUMMARY OF PARAMETERS:
Info: 180 BONDS
Info: 447 ANGLES
Info: 566 DIHEDRAL
Info: 46 IMPROPER
Info: 6 CROSSTERM
Info: 119 VDW
Info: 0 VDW_PAIRS
Info: 0 NBTHOLE_PAIRS
Info: STRUCTURE SUMMARY:
Info: 2476 ATOMS
Info: 1650 BONDS
Info: 825 ANGLES
Info: 0 DIHEDRALS
Info: 0 IMPROPERS
Info: 0 CROSSTERMS
Info: 0 EXCLUSIONS
Info: 2475 RIGID BONDS
Info: 4953 DEGREES OF FREEDOM
Info: 826 HYDROGEN GROUPS
Info: 3 ATOMS IN LARGEST HYDROGEN GROUP
Info: 826 MIGRATION GROUPS
Info: 3 ATOMS IN LARGEST MIGRATION GROUP
Info: TOTAL MASS = 14885.7 amu
Info: TOTAL CHARGE = 1 e
Info: MASS DENSITY = 0.915513 g/cm^3
Info: ATOM DENSITY = 0.0917037 atoms/A^3
Info: ADDED 2475 IMPLICIT EXCLUSIONS
Info: NONBONDED TABLE R-SQUARED SPACING: 0.0625
Info: NONBONDED TABLE SIZE: 769 POINTS
Info: REMOVING COM VELOCITY -0.0220544 0.0674888 0.0605256
Info: MSM using C1 cubic interpolation
Info: MSM using C2 Taylor splitting function
Info: MSM block size decomposition along X is 8 grid points
Info: MSM block size decomposition along Y is 8 grid points
Info: MSM block size decomposition along Z is 8 grid points
Info: MSM grid spacing along X is 2.5 A
Info: MSM grid spacing along Y is 2.5 A
Info: MSM grid spacing along Z is 2.5 A
Info: MSM using 3 levels
Info:     level 0:  [0..11] x [0..11] x [0..11]
Info:     level 1:  [0..5] x [0..5] x [0..5]
Info:     level 2:  [0..2] x [0..2] x [0..2]
Info: MSM finished calculating stencils
Info: MSM finished creating map for grid levels
Info: MSM finished creating map for patches
Info: MSM has 9 interpolation / anterpolation objects (one per patch)
Info: MSM grid level 0 decomposed into 8 blocks ( 2 x 2 x 2 )
Info: MSM grid level 1 decomposed into 1 block ( 1 x 1 x 1 )
Info: MSM grid level 2 decomposed into 1 block ( 1 x 1 x 1 )
Info: MSM grid cutoff calculation decomposed into 783 work objects
TCL: Minimizing for 1000 steps
ETITLE: TS BOND ANGLE DIHED IMPRP ELECT VDW BOUNDARY MISC KINETIC TOTAL TEMP POTENTIAL TOTAL3 TEMPAVG PRESSURE GPRESSURE VOLUME PRESSAVG GPRESSAVG
ENERGY: 0 0.0000 0.0000 0.0000 0.0000 -7348.6497 6353.7252 0.0000 0.0000 0.0000 -994.9245 0.0000 -994.9245 -994.9245 0.0000 75204.0846 46356.0498 27000.0000 75204.0846 46356.0498
ENERGY: 200 0.0000 0.0000 0.0000 0.0000 -10362.2443 998.4435 0.0000 0.0000 0.0000 -9363.8009 0.0000 -9363.8009 -9363.8009 0.0000 17607.3413 17545.4581 27000.0000 17607.3413 17545.4581
ENERGY: 400 0.0000 0.0000 0.0000 0.0000 -10896.8169 1242.4030 0.0000 0.0000 0.0000 -9654.4138 0.0000 -9654.4138 -9654.4138 0.0000 20341.9429 20251.9289 27000.0000 20341.9429 20251.9289
ENERGY: 600 0.0000 0.0000 0.0000 0.0000 -11064.0016 1286.4453 0.0000 0.0000 0.0000 -9777.5563 0.0000 -9777.5563 -9777.5563 0.0000 20858.4961 20774.5436 27000.0000 20858.4961 20774.5436
ENERGY: 800 0.0000 0.0000 0.0000 0.0000 -11185.3234 1324.8379 0.0000 0.0000 0.0000 -9860.4855 0.0000 -9860.4855 -9860.4855 0.0000 21278.5801 21221.3750 27000.0000 21278.5801 21221.3750
ENERGY: 1000 0.0000 0.0000 0.0000 0.0000 -11259.8987 1340.1871 0.0000 0.0000 0.0000 -9919.7116 0.0000 -9919.7116 -9919.7116 0.0000 21453.0633 21381.3984 27000.0000 21453.0633 21381.3984
TCL: Running for 10000 steps
ETITLE: TS BOND ANGLE DIHED IMPRP ELECT VDW BOUNDARY MISC KINETIC TOTAL TEMP POTENTIAL TOTAL3 TEMPAVG PRESSURE GPRESSURE VOLUME PRESSAVG GPRESSAVG
ENERGY: 1000 0.0000 0.0000 0.0000 0.0000 -11259.8987 1340.1871 0.0000 0.0000 1474.7891 -8444.9225 299.6760 -9919.7116 -8445.1524 299.6760 -2561.8928 -2561.8928 27000.0000 -2561.8928 -2561.8928
ENERGY: 3000 0.0000 0.0000 0.0000 0.0000 -9855.0960 1068.0724 0.0000 0.0000 1088.6816 -7698.3420 221.2193 -8787.0236 -7697.9793 222.6614 -478.6627 -483.4396 24280.0244 91.1130 88.5180
ENERGY: 5000 0.0000 0.0000 0.0000 0.0000 -9533.3894 967.2294 0.0000 0.0000 1256.1585 -7310.0015 255.2504 -8566.1600 -7309.9558 258.1521 -352.5471 -360.2607 23816.1803 -132.7177 -132.1486
ENERGY: 7000 0.0000 0.0000 0.0000 0.0000 -9365.3826 932.0717 0.0000 0.0000 1330.4283 -7102.8826 270.3420 -8433.3109 -7102.1419 269.8095 6.1453 -12.0098 23707.8397 32.2527 33.3900
ENERGY: 9000 0.0000 0.0000 0.0000 0.0000 -9226.9990 923.1684 0.0000 0.0000 1337.8998 -6965.9309 271.8602 -8303.8306 -6965.8404 275.9917 342.5204 346.8413 23888.8632 -11.7045 -11.7293
ENERGY: 11000 0.0000 0.0000 0.0000 0.0000 -9079.6517 872.9198 0.0000 0.0000 1399.4320 -6807.2999 284.3635 -8206.7319 -6806.4051 290.4448 -219.8694 -217.1474 24446.3571 -10.8124 -9.0549
