Info: SIMULATION PARAMETERS:
Info: TIMESTEP               2
Info: NUMBER OF STEPS        0
Info: STEPS PER CYCLE        10
Info: PERIODIC CELL BASIS 1  41.123 0 0
Info: PERIODIC CELL BASIS 2  0 40.343 0
Info: PERIODIC CELL BASIS 3  0 0 39.527
Info: PERIODIC CELL CENTER   0 0 0
Info: WRAPPING WATERS AROUND PERIODIC BOUNDARIES ON OUTPUT.
Info: WRAPPING ALL CLUSTERS AROUND PERIODIC BOUNDARIES ON OUTPUT.
Info: FIRST LDB TIMESTEP     50
Info: LAST LDB TIMESTEP     -1
Info: HOM BACKGROUND SCALING 1
Info: PME BACKGROUND SCALING 1
Info: MIN ATOMS PER PATCH    40
Info: EMPTY PATCH LOAD       40 ATOMS
Info: INITIAL TEMPERATURE    300
Info: CENTER OF MASS MOVING INITIALLY? NO
Info: DIELECTRIC             1
Info: EXCLUDE                SCALED ONE-FOUR
Info: 1-4 ELECTROSTATICS SCALED BY 0.833333
Info: MODIFIED 1-4 VDW PARAMETERS WILL BE USED
Info: DCD FILENAME           mobley_6929123_min.dcd
Info: DCD FREQUENCY          5000
Info: DCD FIRST STEP         5000
Info: DCD FILE WILL CONTAIN UNIT CELL DATA
Info: XST FILENAME           mobley_6929123_min.xst
Info: XST FREQUENCY          5000
Info: NO VELOCITY DCD OUTPUT
Info: NO FORCE DCD OUTPUT
Info: OUTPUT FILENAME        mobley_6929123_min
Info: BINARY OUTPUT FILES WILL BE USED
Info: RESTART FILENAME       mobley_6929123_min.restart
Info: RESTART FREQUENCY      5000
Info: BINARY RESTART FILES WILL BE USED
Info: CUTOFF                 9
Info: PAIRLIST DISTANCE      11
Info: PAIRLIST SHRINK RATE   0.01
Info: PAIRLIST GROW RATE     0.01
Info: PAIRLIST TRIGGER       0.3
Info: PAIRLISTS PER CYCLE    2
Info: PAIRLISTS ENABLED
Info: MARGIN                 8
Info: HYDROGEN GROUP CUTOFF  2.5
Info: PATCH DIMENSION        21.5
Info: ENERGY OUTPUT STEPS    5000
Info: ENERGY EVALUATION STEPS    5000
Info: OUTPUT ENERGY PRECISION 4
Info: CROSSTERM ENERGY INCLUDED IN DIHEDRAL
Info: TIMING OUTPUT STEPS    50000
Info: PRESSURE OUTPUT STEPS  5000
Info: LANGEVIN DYNAMICS ACTIVE
Info: LANGEVIN TEMPERATURE   300
Info: LANGEVIN USING BBK INTEGRATOR
Info: LANGEVIN DAMPING COEFFICIENT IS 1 INVERSE PS
Info: LANGEVIN DYNAMICS APPLIED TO HYDROGENS
Info: LANGEVIN PISTON PRESSURE CONTROL ACTIVE
Info:        TARGET PRESSURE IS 1.01325 BAR
Info:     OSCILLATION PERIOD IS 50 FS
Info:             DECAY TIME IS 25 FS
Info:     PISTON TEMPERATURE IS 300 K
Info:       PRESSURE CONTROL IS GROUP-BASED
Info:    INITIAL STRAIN RATE IS 0 0 0
Info:       CELL FLUCTUATION IS ISOTROPIC
Info: PARTICLE MESH EWALD (PME) ACTIVE
Info: PME TOLERANCE               1e-06
Info: PME EWALD COEFFICIENT       0.348832
Info: PME INTERPOLATION ORDER     4
Info: PME GRID DIMENSIONS         44 44 40
Info: PME MAXIMUM GRID SPACING    1
Info: FULL ELECTROSTATIC EVALUATION FREQUENCY      2
Info: USING VERLET I (r-RESPA) MTS SCHEME.
Info: C1 SPLITTING OF LONG RANGE ELECTROSTATICS
Info: PLACING ATOMS IN PATCHES BY HYDROGEN GROUPS
Info: RIGID BONDS TO HYDROGEN : ALL
Info:         ERROR TOLERANCE : 1e-08
Info:          MAX ITERATIONS : 100
Info: RIGID WATER USING SETTLE ALGORITHM
Info: RANDOM NUMBER SEED     1741394519
Info: USE HYDROGEN BONDS?    NO
Info: Using AMBER format force field!
Info: AMBER PARM FILE        mobley_6929123.prmtop
Info: COORDINATE PDB         mobley_6929123.pdb
Info: Exclusions will be read from PARM file!
Info: SCNB (VDW SCALING)     2
Info: USING ARITHMETIC MEAN TO COMBINE L-J SIGMA PARAMETERS
Info: SUMMARY OF PARAMETERS:
Info: 8 BONDS
Info: 9 ANGLES
Info:   9 HARMONIC
Info:   0 COSINE-BASED
Info: 10 DIHEDRAL
Info: 0 IMPROPER
Info: 0 CROSSTERM
Info: 0 VDW
Info: 36 VDW_PAIRS
Info: 0 NBTHOLE_PAIRS
Info: STRUCTURE SUMMARY:
Info: 4757 ATOMS
Info: 4756 BONDS
Info: 16 ANGLES
Info: 17 DIHEDRALS
Info: 0 IMPROPERS
Info: 0 CROSSTERMS
Info: 4783 EXCLUSIONS
Info: 4751 RIGID BONDS
Info: 9520 DEGREES OF FREEDOM
Info: 1588 HYDROGEN GROUPS
Info: 4 ATOMS IN LARGEST HYDROGEN GROUP
Info: 1588 MIGRATION GROUPS
Info: 4 ATOMS IN LARGEST MIGRATION GROUP
Info: TOTAL MASS = 28609.8 amu
Info: TOTAL CHARGE = -0.000200043 e
Info: MASS DENSITY = 0.724482 g/cm^3
Info: ATOM DENSITY = 0.0725415 atoms/A^3
Info: ADDED 0 IMPLICIT EXCLUSIONS
Info: NONBONDED TABLE R-SQUARED SPACING: 0.0625
Info: NONBONDED TABLE SIZE: 705 POINTS
Info: REMOVING COM VELOCITY -0.125628 -0.0345896 -0.0277338
TCL: Minimizing for 2000 steps
ETITLE: TS BOND ANGLE DIHED IMPRP ELECT VDW BOUNDARY MISC KINETIC TOTAL TEMP POTENTIAL TOTAL3 TEMPAVG PRESSURE GPRESSURE VOLUME PRESSAVG GPRESSAVG
ENERGY: 0 0.3767 0.7902 4.6076 0.0000 -14922.2211 1686.8435 0.0000 0.0000 0.0000 -13229.6032 0.0000 -13229.6032 -13229.6032 0.0000 11095.1929 -16020.5443 65576.2886 11095.1929 -16020.5443
ENERGY: 400 2.9159 2.0608 4.9706 0.0000 -20089.2085 2949.5115 0.0000 0.0000 0.0000 -17129.7497 0.0000 -17129.7497 -17129.7497 0.0000 16009.6792 15842.7587 65576.2886 16009.6792 15842.7587
ENERGY: 800 4.3069 1.2066 4.6837 0.0000 -21037.5588 3401.7566 0.0000 0.0000 0.0000 -17625.6049 0.0000 -17625.6049 -17625.6049 0.0000 18198.2821 18008.1515 65576.2886 18198.2821 18008.1515
ENERGY: 1200 0.5933 0.5964 4.6469 0.0000 -21438.3739 3591.0657 0.0000 0.0000 0.0000 -17841.4716 0.0000 -17841.4716 -17841.4716 0.0000 19151.0284 18879.4236 65576.2886 19151.0284 18879.4236
ENERGY: 1600 6.3773 1.6606 4.6725 0.0000 -21639.1132 3680.1610 0.0000 0.0000 0.0000 -17946.2419 0.0000 -17946.2419 -17946.2419 0.0000 19572.0130 19292.4152 65576.2886 19572.0130 19292.4152
ENERGY: 2000 0.1210 0.4526 4.7506 0.0000 -21756.4210 3738.4581 0.0000 0.0000 0.0000 -18012.6387 0.0000 -18012.6387 -18012.6387 0.0000 19908.0758 19637.7514 65576.2886 19908.0758 19637.7514
TCL: Exiting due to exit command.
Info: NAMD 3.0.1 for Linux-x86_64-multicore
Info: Please visit http://www.ks.uiuc.edu/Research/namd/
Info: for updates, documentation, and support information.
Info: Please cite Phillips et al., J. Chem. Phys. 153:044130 (2020) doi:10.1063/5.0014475
Info: in all publications reporting results obtained with NAMD.
Info: Based on Charm++/Converse 80000 for multicore-linux-x86_64-gcc
Info: Built Mon Oct 14 11:11:06 CDT 2024 by dhardy on athine.ks.uiuc.edu
Info: 1 NAMD  3.0.1  Linux-x86_64-multicore  16    k061  z5358697
Info: Running on 16 processors, 1 nodes, 1 physical nodes.
Info: CPU topology information available.
Info: Charm++/Converse parallel runtime startup completed at 0.0080854 s
Info: 1043.46 MB of memory in use based on /proc/self/stat
Info: Configuration file is mobley_6929123_equil.namd
Info: Working in the current directory /srv/scratch/z5358697/prod_prep_8/6929123
TCL: Running 25000 steps at 30 kelvin.
TCL: Suspending until startup complete.
Info: SIMULATION PARAMETERS:
Info: TIMESTEP               2
Info: NUMBER OF STEPS        0
Info: STEPS PER CYCLE        10
Info: PERIODIC CELL BASIS 1  41.123 0 0
Info: PERIODIC CELL BASIS 2  0 40.343 0
Info: PERIODIC CELL BASIS 3  0 0 39.527
Info: PERIODIC CELL CENTER   0 0 0
Info: WRAPPING WATERS AROUND PERIODIC BOUNDARIES ON OUTPUT.
Info: WRAPPING ALL CLUSTERS AROUND PERIODIC BOUNDARIES ON OUTPUT.
Info: FIRST LDB TIMESTEP     50
Info: LAST LDB TIMESTEP     -1
Info: HOM BACKGROUND SCALING 1
Info: PME BACKGROUND SCALING 1
Info: MIN ATOMS PER PATCH    40
Info: EMPTY PATCH LOAD       40 ATOMS
Info: INITIAL TEMPERATURE    300
Info: CENTER OF MASS MOVING INITIALLY? NO
Info: DIELECTRIC             1
Info: EXCLUDE                SCALED ONE-FOUR
Info: 1-4 ELECTROSTATICS SCALED BY 0.833333
Info: MODIFIED 1-4 VDW PARAMETERS WILL BE USED
Info: DCD FILENAME           mobley_6929123_equil.dcd
Info: DCD FREQUENCY          5000
Info: DCD FIRST STEP         5000
Info: DCD FILE WILL CONTAIN UNIT CELL DATA
Info: XST FILENAME           mobley_6929123_equil.xst
Info: XST FREQUENCY          5000
Info: NO VELOCITY DCD OUTPUT
Info: NO FORCE DCD OUTPUT
Info: OUTPUT FILENAME        mobley_6929123_equil
Info: BINARY OUTPUT FILES WILL BE USED
Info: RESTART FILENAME       mobley_6929123_equil.restart
Info: RESTART FREQUENCY      5000
Info: BINARY RESTART FILES WILL BE USED
Info: CUTOFF                 9
Info: PAIRLIST DISTANCE      11
Info: PAIRLIST SHRINK RATE   0.01
Info: PAIRLIST GROW RATE     0.01
Info: PAIRLIST TRIGGER       0.3
Info: PAIRLISTS PER CYCLE    2
Info: PAIRLISTS ENABLED
Info: MARGIN                 8
Info: HYDROGEN GROUP CUTOFF  2.5
Info: PATCH DIMENSION        21.5
Info: ENERGY OUTPUT STEPS    5000
Info: ENERGY EVALUATION STEPS    5000
Info: OUTPUT ENERGY PRECISION 4
Info: CROSSTERM ENERGY INCLUDED IN DIHEDRAL
Info: TIMING OUTPUT STEPS    50000
Info: PRESSURE OUTPUT STEPS  5000
Info: LANGEVIN DYNAMICS ACTIVE
Info: LANGEVIN TEMPERATURE   30
Info: LANGEVIN USING BBK INTEGRATOR
Info: LANGEVIN DAMPING COEFFICIENT IS 1 INVERSE PS
Info: LANGEVIN DYNAMICS APPLIED TO HYDROGENS
Info: LANGEVIN PISTON PRESSURE CONTROL ACTIVE
Info:        TARGET PRESSURE IS 1.01325 BAR
Info:     OSCILLATION PERIOD IS 50 FS
Info:             DECAY TIME IS 25 FS
Info:     PISTON TEMPERATURE IS 300 K
Info:       PRESSURE CONTROL IS GROUP-BASED
Info:    INITIAL STRAIN RATE IS 0 0 0
Info:       CELL FLUCTUATION IS ISOTROPIC
Info: PARTICLE MESH EWALD (PME) ACTIVE
Info: PME TOLERANCE               1e-06
Info: PME EWALD COEFFICIENT       0.348832
Info: PME INTERPOLATION ORDER     4
Info: PME GRID DIMENSIONS         44 44 40
Info: PME MAXIMUM GRID SPACING    1
Info: FULL ELECTROSTATIC EVALUATION FREQUENCY      2
Info: USING VERLET I (r-RESPA) MTS SCHEME.
Info: C1 SPLITTING OF LONG RANGE ELECTROSTATICS
Info: PLACING ATOMS IN PATCHES BY HYDROGEN GROUPS
Info: RIGID BONDS TO HYDROGEN : ALL
Info:         ERROR TOLERANCE : 1e-08
Info:          MAX ITERATIONS : 100
Info: RIGID WATER USING SETTLE ALGORITHM
Info: RANDOM NUMBER SEED     1741394537
Info: USE HYDROGEN BONDS?    NO
Info: Using AMBER format force field!
Info: AMBER PARM FILE        mobley_6929123.prmtop
Info: COORDINATE PDB         mobley_6929123.pdb
Info: Exclusions will be read from PARM file!
Info: SCNB (VDW SCALING)     2
Info: USING ARITHMETIC MEAN TO COMBINE L-J SIGMA PARAMETERS
Info: BINARY COORDINATES     mobley_6929123_min.coor
Info: SUMMARY OF PARAMETERS:
Info: 8 BONDS
Info: 9 ANGLES
Info:   9 HARMONIC
Info:   0 COSINE-BASED
Info: 10 DIHEDRAL
Info: 0 IMPROPER
Info: 0 CROSSTERM
Info: 0 VDW
Info: 36 VDW_PAIRS
Info: 0 NBTHOLE_PAIRS
Info: STRUCTURE SUMMARY:
Info: 4757 ATOMS
Info: 4756 BONDS
Info: 16 ANGLES
Info: 17 DIHEDRALS
Info: 0 IMPROPERS
Info: 0 CROSSTERMS
Info: 4783 EXCLUSIONS
Info: 4751 RIGID BONDS
Info: 9520 DEGREES OF FREEDOM
Info: 1588 HYDROGEN GROUPS
Info: 4 ATOMS IN LARGEST HYDROGEN GROUP
Info: 1588 MIGRATION GROUPS
Info: 4 ATOMS IN LARGEST MIGRATION GROUP
Info: TOTAL MASS = 28609.8 amu
Info: TOTAL CHARGE = -0.000200043 e
Info: MASS DENSITY = 0.724482 g/cm^3
Info: ATOM DENSITY = 0.0725415 atoms/A^3
Info: ADDED 0 IMPLICIT EXCLUSIONS
Info: NONBONDED TABLE R-SQUARED SPACING: 0.0625
Info: NONBONDED TABLE SIZE: 705 POINTS
Info: REMOVING COM VELOCITY 0.0865078 -0.0658908 -0.0404491
TCL: Running for 25000 steps
ETITLE: TS BOND ANGLE DIHED IMPRP ELECT VDW BOUNDARY MISC KINETIC TOTAL TEMP POTENTIAL TOTAL3 TEMPAVG PRESSURE GPRESSURE VOLUME PRESSAVG GPRESSAVG
ENERGY: 0 0.1210 0.4526 4.7506 0.0000 -21756.4210 3738.4581 0.0000 0.0000 2791.0146 -15221.6241 295.0635 -18012.6387 -15221.0822 295.0635 48.2708 92.9388 65576.2886 48.2708 92.9388
ENERGY: 5000 0.2335 0.6444 5.1433 0.0000 -22940.1065 3941.2059 0.0000 0.0000 283.1774 -18709.7019 29.9373 -18992.8793 -18708.9299 48.3110 -97.3475 -36.6170 45222.0270 -0.9273 -0.9382
ENERGY: 10000 0.3161 0.4463 5.1048 0.0000 -22971.3004 3939.6240 0.0000 0.0000 285.9345 -18739.8747 30.2287 -19025.8092 -18739.0273 30.2818 -159.8903 -117.2184 45190.3808 2.2223 2.1179
ENERGY: 15000 0.3942 1.0141 5.4044 0.0000 -23094.1709 4037.8179 0.0000 0.0000 285.3010 -18764.2394 30.1618 -19049.5403 -18763.6342 30.2007 338.2215 395.8850 45014.9184 2.0794 1.9279
ENERGY: 20000 0.9153 0.6330 5.3436 0.0000 -22827.3565 3771.1280 0.0000 0.0000 286.7631 -18762.5734 30.3163 -19049.3366 -18761.6319 30.1406 -1125.0935 -1074.2141 45431.9909 5.8271 5.7166
ENERGY: 25000 0.1592 0.8333 5.3256 0.0000 -23050.6132 3980.0826 0.0000 0.0000 281.2662 -18782.9463 29.7352 -19064.2125 -18782.1343 30.0023 11.1437 59.8373 45086.1766 3.4540 3.2548
TCL: Running 25000 steps at 60 kelvin.
TCL: Setting parameter langevinTemp to 60
TCL: Running for 25000 steps
ETITLE: TS BOND ANGLE DIHED IMPRP ELECT VDW BOUNDARY MISC KINETIC TOTAL TEMP POTENTIAL TOTAL3 TEMPAVG PRESSURE GPRESSURE VOLUME PRESSAVG GPRESSAVG
ENERGY: 25000 0.1592 0.8333 5.3256 0.0000 -23050.6132 3980.0826 0.0000 0.0000 281.1245 -18783.0880 29.7202 -19064.2125 -18782.4750 29.7202 12.4362 60.0428 45086.1766 12.4362 60.0428
ENERGY: 30000 0.3466 1.4102 5.8495 0.0000 -22640.1533 3850.5236 0.0000 0.0000 560.3450 -18221.6783 59.2392 -18782.0233 -18220.2900 57.2189 34.8490 72.8699 45075.4721 5.5024 5.3805
ENERGY: 35000 0.4017 1.9310 5.3731 0.0000 -22604.7316 3784.0144 0.0000 0.0000 563.2873 -18249.7241 59.5502 -18813.0114 -18248.1745 60.3713 -398.1257 -352.7333 45198.3528 4.3878 4.3868
ENERGY: 40000 0.4725 1.4087 6.2170 0.0000 -22699.6138 3841.3001 0.0000 0.0000 581.1752 -18269.0402 61.4413 -18850.2154 -18267.6841 60.6838 -229.1753 -153.8098 45209.5874 3.3215 3.6053
ENERGY: 45000 0.7446 0.8875 5.5774 0.0000 -22739.4124 3867.4780 0.0000 0.0000 571.0024 -18293.7225 60.3659 -18864.7249 -18293.2683 59.9283 -166.1759 -111.0989 45258.2508 1.8127 2.0110
ENERGY: 50000 0.2195 1.2071 5.1109 0.0000 -22858.6961 3967.6308 0.0000 0.0000 571.8441 -18312.6838 60.4548 -18884.5279 -18311.3988 60.1322 322.5173 375.8233 45167.9194 -0.8422 -0.9349
TCL: Running 25000 steps at 90 kelvin.
TCL: Setting parameter langevinTemp to 90
TCL: Running for 25000 steps
ETITLE: TS BOND ANGLE DIHED IMPRP ELECT VDW BOUNDARY MISC KINETIC TOTAL TEMP POTENTIAL TOTAL3 TEMPAVG PRESSURE GPRESSURE VOLUME PRESSAVG GPRESSAVG
ENERGY: 50000 0.2195 1.2071 5.1109 0.0000 -22858.6961 3967.6308 0.0000 0.0000 571.5563 -18312.9716 60.4244 -18884.5279 -18311.8305 60.4244 314.0662 375.6816 45167.9194 314.0662 375.6816
ENERGY: 55000 1.0726 1.4846 5.7895 0.0000 -22338.6560 3757.5867 0.0000 0.0000 882.2173 -17690.5053 93.2672 -18572.7226 -17688.7674 87.0495 -60.2230 1.1240 45478.5210 3.9996 3.8106
ENERGY: 60000 0.2001 1.7470 5.9481 0.0000 -22245.3223 3652.4455 0.0000 0.0000 846.3415 -17738.6401 89.4745 -18584.9816 -17736.8273 90.4096 -601.0980 -558.4828 45636.6850 -0.2063 -0.5583
ENERGY: 65000 0.2162 0.8011 6.1614 0.0000 -22310.7585 3715.3960 0.0000 0.0000 859.7848 -17728.3989 90.8957 -18588.1837 -17726.2399 90.1291 -345.3431 -256.5350 45586.9237 2.3252 2.2151
ENERGY: 70000 0.7475 1.7212 5.9608 0.0000 -22638.6979 3987.5616 0.0000 0.0000 863.6088 -17779.0980 91.2999 -18642.7068 -17776.5636 90.4315 1032.2784 1094.1731 45249.0636 -1.4690 -1.7086
ENERGY: 75000 0.2822 1.1463 5.8576 0.0000 -22334.7423 3702.4392 0.0000 0.0000 845.0442 -17779.9728 89.3373 -18625.0170 -17778.0948 89.8012 -590.5807 -514.5692 45878.5341 3.4072 3.4731
TCL: Running 25000 steps at 120 kelvin.
TCL: Setting parameter langevinTemp to 120
TCL: Running for 25000 steps
ETITLE: TS BOND ANGLE DIHED IMPRP ELECT VDW BOUNDARY MISC KINETIC TOTAL TEMP POTENTIAL TOTAL3 TEMPAVG PRESSURE GPRESSURE VOLUME PRESSAVG GPRESSAVG
ENERGY: 75000 0.2822 1.1463 5.8576 0.0000 -22334.7423 3702.4392 0.0000 0.0000 844.6155 -17780.4015 89.2920 -18625.0170 -17778.1958 89.2920 -571.2724 -515.4583 45878.5341 -571.2724 -515.4583
ENERGY: 80000 1.3048 0.9767 5.7821 0.0000 -22037.5514 3696.7658 0.0000 0.0000 1131.4975 -17201.2246 119.6209 -18332.7221 -17198.8534 117.5505 81.7226 91.4781 46104.9179 3.9911 3.5986
ENERGY: 85000 0.7764 1.8736 6.0083 0.0000 -22116.5312 3760.8542 0.0000 0.0000 1143.0166 -17204.0022 120.8387 -18347.0188 -17199.4972 119.9560 365.5849 420.7393 46007.4500 6.7826 6.9932
ENERGY: 90000 0.3093 2.8766 6.5827 0.0000 -22059.2438 3676.7878 0.0000 0.0000 1096.1201 -17276.5673 115.8808 -18372.6874 -17273.8633 119.6450 -183.1839 -111.5241 46062.5495 -1.6302 -1.6370
ENERGY: 95000 0.7901 1.2557 5.6261 0.0000 -22219.3519 3785.4514 0.0000 0.0000 1100.0150 -17326.2135 116.2926 -18426.2285 -17324.1751 119.2158 372.9435 422.3205 45689.9673 -0.1034 0.1086
ENERGY: 100000 0.6729 1.5995 6.1680 0.0000 -22179.0697 3762.2047 0.0000 0.0000 1135.5962 -17272.8284 120.0542 -18408.4247 -17269.9489 120.2141 240.6162 294.1661 45868.5858 1.6927 1.8455
TCL: Running 25000 steps at 150 kelvin.
TCL: Setting parameter langevinTemp to 150
TCL: Running for 25000 steps
ETITLE: TS BOND ANGLE DIHED IMPRP ELECT VDW BOUNDARY MISC KINETIC TOTAL TEMP POTENTIAL TOTAL3 TEMPAVG PRESSURE GPRESSURE VOLUME PRESSAVG GPRESSAVG
ENERGY: 100000 0.6729 1.5995 6.1680 0.0000 -22179.0697 3762.2047 0.0000 0.0000 1135.0364 -17273.3882 119.9950 -18408.4247 -17271.5656 119.9950 239.0857 295.0736 45868.5858 239.0857 295.0736
ENERGY: 105000 0.8177 3.0166 5.4483 0.0000 -21573.5830 3531.9079 0.0000 0.0000 1388.3330 -16644.0595 146.7733 -18032.3925 -16640.1257 146.1812 -152.5318 -86.9986 46467.1189 -0.8213 -0.4550
ENERGY: 110000 0.5134 0.8827 6.3885 0.0000 -21640.2172 3534.9308 0.0000 0.0000 1410.0131 -16687.4887 149.0653 -18097.5018 -16683.9645 150.3157 -161.4556 -85.2146 46260.3268 4.2711 4.4647
ENERGY: 115000 0.8009 1.2049 5.7138 0.0000 -21710.4332 3614.4826 0.0000 0.0000 1436.9883 -16651.2427 151.9171 -18088.2310 -16647.8369 150.1114 172.5092 233.7640 46278.8617 0.1163 0.0229
ENERGY: 120000 0.4626 2.0244 6.2220 0.0000 -21683.2150 3531.3555 0.0000 0.0000 1439.6859 -16703.4646 152.2023 -18143.1505 -16700.4519 150.5542 -426.2088 -366.5200 46564.4466 2.0972 2.2050
ENERGY: 125000 0.3448 3.3592 6.2729 0.0000 -21810.3233 3662.7549 0.0000 0.0000 1411.1584 -16726.4331 149.1864 -18137.5915 -16723.2385 149.7485 259.7597 293.7031 46383.5325 9.4692 8.9162
TCL: Running 50000 steps at 180 kelvin.
TCL: Setting parameter langevinTemp to 180
TCL: Running for 50000 steps
ETITLE: TS BOND ANGLE DIHED IMPRP ELECT VDW BOUNDARY MISC KINETIC TOTAL TEMP POTENTIAL TOTAL3 TEMPAVG PRESSURE GPRESSURE VOLUME PRESSAVG GPRESSAVG
ENERGY: 125000 0.3448 3.3592 6.2729 0.0000 -21810.3233 3662.7549 0.0000 0.0000 1410.4589 -16727.1326 149.1124 -18137.5915 -16725.2669 149.1124 221.5427 294.1077 46383.5325 221.5427 294.1077
ENERGY: 135000 0.5059 2.4342 4.7251 0.0000 -21124.4442 3482.0605 0.0000 0.0000 1738.6421 -15896.0764 183.8077 -17634.7184 -15893.1513 180.9842 376.0356 447.0924 46837.2764 3.1455 3.2295
ENERGY: 145000 1.6873 4.6225 4.9060 0.0000 -21177.8393 3427.2452 0.0000 0.0000 1705.3030 -16034.0753 180.2831 -17739.3783 -16029.0989 179.7407 -103.3080 -1.7621 46742.3487 2.3467 1.9804
ENERGY: 155000 1.7919 2.6337 4.6947 0.0000 -21223.4650 3467.1628 0.0000 0.0000 1723.9422 -16023.2398 182.2536 -17747.1820 -16020.6017 179.7188 27.0661 56.7299 46946.5380 1.0531 0.5492
ENERGY: 165000 2.1903 2.4922 4.9778 0.0000 -21142.9772 3421.8582 0.0000 0.0000 1705.1840 -16006.2748 180.2705 -17711.4587 -16001.5846 178.0214 -145.2666 -54.2154 46789.7264 2.7710 2.2767
ENERGY: 175000 0.2432 1.2262 5.8325 0.0000 -21142.6911 3430.6779 0.0000 0.0000 1682.1073 -16022.6040 177.8309 -17704.7113 -16017.0453 179.1252 -27.0231 65.3301 46750.0055 1.1512 1.1728
TCL: Running 50000 steps at 210 kelvin.
TCL: Setting parameter langevinTemp to 210
TCL: Running for 50000 steps
ETITLE: TS BOND ANGLE DIHED IMPRP ELECT VDW BOUNDARY MISC KINETIC TOTAL TEMP POTENTIAL TOTAL3 TEMPAVG PRESSURE GPRESSURE VOLUME PRESSAVG GPRESSAVG
ENERGY: 175000 0.2432 1.2262 5.8325 0.0000 -21142.6911 3430.6779 0.0000 0.0000 1681.2397 -16023.4715 177.7391 -17704.7113 -16020.0434 177.7391 -9.0968 65.8079 46750.0055 -9.0968 65.8079
ENERGY: 185000 0.7761 7.7757 5.0603 0.0000 -20003.3210 3010.5590 0.0000 0.0000 1954.5012 -15024.6487 206.6281 -16979.1499 -15021.1561 210.5103 -304.0160 -204.4954 46315.5594 0.7290 0.7112
ENERGY: 195000 0.3279 3.4068 5.6370 0.0000 -20079.4473 3031.4764 0.0000 0.0000 1956.7417 -15081.8575 206.8650 -17038.5993 -15078.3832 209.4797 -201.5925 -118.8360 46110.4900 0.2408 0.0075
ENERGY: 205000 0.2236 1.2667 5.8040 0.0000 -19791.4331 2806.1233 0.0000 0.0000 1972.2317 -15005.7837 208.5025 -16978.0154 -15001.0763 211.0148 -1342.6074 -1264.4941 46773.7860 6.2088 5.9567
ENERGY: 215000 0.4648 2.4448 6.0053 0.0000 -19753.7766 2815.0930 0.0000 0.0000 1979.1522 -14950.6165 209.2342 -16929.7687 -14947.5484 210.0334 -1285.3764 -1179.7448 46932.0630 5.4134 5.0705
ENERGY: 225000 3.6201 5.0064 5.1234 0.0000 -20266.7218 3178.0833 0.0000 0.0000 1990.4292 -15084.4593 210.4264 -17074.8885 -15081.0488 210.5163 377.3374 418.5664 46487.6538 2.5066 2.1233
TCL: Running 50000 steps at 240 kelvin.
TCL: Setting parameter langevinTemp to 240
TCL: Running for 50000 steps
ETITLE: TS BOND ANGLE DIHED IMPRP ELECT VDW BOUNDARY MISC KINETIC TOTAL TEMP POTENTIAL TOTAL3 TEMPAVG PRESSURE GPRESSURE VOLUME PRESSAVG GPRESSAVG
ENERGY: 225000 3.6201 5.0064 5.1234 0.0000 -20266.7218 3178.0833 0.0000 0.0000 1989.4430 -15085.4454 210.3221 -17074.8885 -15082.0300 210.3221 352.4709 416.7513 46487.6538 352.4709 416.7513
ENERGY: 235000 1.0949 2.5246 5.2210 0.0000 -18998.9684 2719.0832 0.0000 0.0000 2258.5198 -14012.5249 238.7687 -16271.0447 -14008.2294 238.4471 -298.8722 -224.3936 47242.7979 2.9403 3.5112
ENERGY: 245000 0.3461 3.5955 7.0050 0.0000 -18948.9687 2733.3416 0.0000 0.0000 2234.7426 -13969.9380 236.2550 -16204.6805 -13964.2867 240.7894 -64.7046 29.1948 46874.0907 2.8905 3.0583
ENERGY: 255000 0.6027 5.5575 5.0342 0.0000 -18856.7460 2643.3762 0.0000 0.0000 2307.5771 -13894.5983 243.9550 -16202.1754 -13889.7494 239.5282 -563.5133 -476.9018 46886.9925 0.7386 0.6169
ENERGY: 265000 2.0768 1.6863 5.4743 0.0000 -19042.5326 2723.8226 0.0000 0.0000 2235.8686 -14073.6040 236.3740 -16309.4726 -14069.6815 239.9510 -776.7928 -673.4036 47871.4698 4.0347 3.9562
ENERGY: 275000 0.4205 5.7347 7.7327 0.0000 -19136.9813 2808.6728 0.0000 0.0000 2307.2811 -14007.1394 243.9237 -16314.4206 -14003.5048 238.7227 -35.4555 73.4523 47118.3073 3.1801 3.1848
TCL: Running 50000 steps at 270 kelvin.
TCL: Setting parameter langevinTemp to 270
TCL: Running for 50000 steps
ETITLE: TS BOND ANGLE DIHED IMPRP ELECT VDW BOUNDARY MISC KINETIC TOTAL TEMP POTENTIAL TOTAL3 TEMPAVG PRESSURE GPRESSURE VOLUME PRESSAVG GPRESSAVG
ENERGY: 275000 0.4205 5.7347 7.7327 0.0000 -19136.9813 2808.6728 0.0000 0.0000 2306.1732 -14008.2474 243.8065 -16314.4206 -14004.3957 243.8065 -7.2062 73.4838 47118.3073 -7.2062 73.4838
ENERGY: 285000 1.6946 7.6610 6.0307 0.0000 -18257.5621 2599.9933 0.0000 0.0000 2595.3397 -13046.8428 274.3770 -15642.1825 -13041.7619 271.1918 150.3597 228.1435 47957.1732 4.9623 4.8008
ENERGY: 295000 0.4683 3.0804 6.0352 0.0000 -17990.8504 2457.4666 0.0000 0.0000 2551.0553 -12972.7447 269.6953 -15523.8000 -12969.5106 268.7972 -273.7315 -187.5405 48125.2873 5.1911 5.1366
ENERGY: 305000 0.3791 2.3135 5.1647 0.0000 -18256.1742 2644.5471 0.0000 0.0000 2555.3121 -13048.4577 270.1453 -15603.7698 -13042.7659 269.8954 473.5034 560.4431 47973.0327 2.9456 2.7095
ENERGY: 315000 0.8608 4.9316 5.7039 0.0000 -18296.2876 2622.3978 0.0000 0.0000 2546.1568 -13116.2367 269.1774 -15662.3935 -13109.5783 270.2957 264.7632 315.3001 48089.4627 5.1584 5.6217
ENERGY: 325000 3.8652 6.2624 5.4666 0.0000 -18191.6910 2597.5847 0.0000 0.0000 2511.0422 -13067.4701 265.4651 -15578.5122 -13061.4431 270.2081 252.9758 308.3470 47797.2744 6.4413 7.0399
TCL: Running 1000000 steps at 300 kelvin.
TCL: Setting parameter langevinTemp to 300
TCL: Running for 1000000 steps
ETITLE: TS BOND ANGLE DIHED IMPRP ELECT VDW BOUNDARY MISC KINETIC TOTAL TEMP POTENTIAL TOTAL3 TEMPAVG PRESSURE GPRESSURE VOLUME PRESSAVG GPRESSAVG
ENERGY: 325000 3.8652 6.2624 5.4666 0.0000 -18191.6910 2597.5847 0.0000 0.0000 2509.8103 -13068.7019 265.3349 -15578.5122 -13065.7251 265.3349 225.4922 308.9022 47797.2744 225.4922 308.9022
ENERGY: 525000 2.4507 4.5036 4.7882 0.0000 -17048.1703 2168.8246 0.0000 0.0000 2848.5383 -12019.0649 301.1449 -14867.6032 -12014.0507 301.3605 -779.5710 -673.1097 49549.0264 1.3871 1.8689
ENERGY: 725000 1.9111 5.6782 8.1489 0.0000 -17306.5841 2215.4375 0.0000 0.0000 2848.4896 -12226.9188 301.1397 -15075.4084 -12219.3797 301.5021 -607.9987 -524.8465 48881.8617 3.8148 2.9590
ENERGY: 925000 2.8639 2.0465 6.2868 0.0000 -17401.9532 2394.4809 0.0000 0.0000 2824.0025 -12172.2725 298.5510 -14996.2750 -12168.7826 299.5698 200.8213 261.3056 49115.8270 4.3280 4.8029
ENERGY: 1125000 0.5881 6.8777 8.4196 0.0000 -17341.2584 2391.5116 0.0000 0.0000 2789.8479 -12144.0134 294.9402 -14933.8613 -12137.6477 301.5615 258.1693 322.0180 49062.4244 -0.3684 -0.7825
ENERGY: 1325000 2.7908 2.7647 5.4373 0.0000 -17411.2776 2416.7695 0.0000 0.0000 2814.5904 -12168.9249 297.5559 -14983.5153 -12165.2884 298.9228 168.1353 286.3456 49092.0387 3.0787 2.9649
TCL: Exiting due to exit command.
