Info: SIMULATION PARAMETERS:
Info: TIMESTEP               1
Info: NUMBER OF STEPS        0
Info: STEPS PER CYCLE        10
Info: PERIODIC CELL BASIS 1  30 0 0
Info: PERIODIC CELL BASIS 2  0 30 0
Info: PERIODIC CELL BASIS 3  0 0 30
Info: PERIODIC CELL CENTER   0 0 0
Info: WRAPPING ALL CLUSTERS AROUND PERIODIC BOUNDARIES ON OUTPUT.
Info: FIRST LDB TIMESTEP     50
Info: LAST LDB TIMESTEP     -1
Info: HOM BACKGROUND SCALING 1
Info: MIN ATOMS PER PATCH    40
Info: EMPTY PATCH LOAD       40 ATOMS
Info: INITIAL TEMPERATURE    298
Info: CENTER OF MASS MOVING INITIALLY? NO
Info: DIELECTRIC             1
Info: EXCLUDE                SCALED ONE-FOUR
Info: 1-4 ELECTROSTATICS SCALED BY 1
Info: MODIFIED 1-4 VDW PARAMETERS WILL BE USED
Info: DCD FILENAME           output.dcd
Info: DCD FREQUENCY          250
Info: DCD FIRST STEP         250
Info: DCD FILE WILL CONTAIN UNIT CELL DATA
Info: NO EXTENDED SYSTEM TRAJECTORY OUTPUT
Info: NO VELOCITY DCD OUTPUT
Info: NO FORCE DCD OUTPUT
Info: OUTPUT FILENAME        output
Info: BINARY OUTPUT FILES WILL BE USED
Info: NO RESTART FILE
Info: SWITCHING ACTIVE
Info: SWITCHING ON           10
Info: SWITCHING OFF          12
Info: PAIRLIST DISTANCE      14
Info: PAIRLIST SHRINK RATE   0.01
Info: PAIRLIST GROW RATE     0.01
Info: PAIRLIST TRIGGER       0.3
Info: PAIRLISTS PER CYCLE    2
Info: PAIRLISTS ENABLED
Info: MARGIN                 0
Info: HYDROGEN GROUP CUTOFF  2.5
Info: PATCH DIMENSION        16.5
Info: ENERGY OUTPUT STEPS    250
Info: ENERGY EVALUATION STEPS    250
Info: OUTPUT ENERGY PRECISION 4
Info: CROSSTERM ENERGY INCLUDED IN DIHEDRAL
Info: TIMING OUTPUT STEPS    250
Info: LANGEVIN DYNAMICS ACTIVE
Info: LANGEVIN TEMPERATURE   298
Info: LANGEVIN USING BBK INTEGRATOR
Info: LANGEVIN DAMPING COEFFICIENT IS 2 INVERSE PS
Info: LANGEVIN DYNAMICS NOT APPLIED TO HYDROGENS
Info: MULTILEVEL SUMMATION METHOD (MSM) FOR ELECTROSTATICS ACTIVE
Info: MSM WITH C1 CUBIC INTERPOLATION AND C2 TAYLOR SPLITTING
Info: FULL ELECTROSTATIC EVALUATION FREQUENCY      1
Info: USING VERLET I (r-RESPA) MTS SCHEME.
Info: C1 SPLITTING OF LONG RANGE ELECTROSTATICS
Info: PLACING ATOMS IN PATCHES BY HYDROGEN GROUPS
Info: RIGID BONDS TO HYDROGEN : ALL
Info:         ERROR TOLERANCE : 1e-08
Info:          MAX ITERATIONS : 100
Info: RIGID WATER USING SETTLE ALGORITHM
Info: RANDOM NUMBER SEED     1740227392
Info: USE HYDROGEN BONDS?    NO
Info: COORDINATE PDB         ionized.pdb
Info: STRUCTURE FILE         ionized.psf
Info: PARAMETER file: CHARMM format!
Info: PARAMETERS             par_all27_prot_lipid.inp
Info: USING ARITHMETIC MEAN TO COMBINE L-J SIGMA PARAMETERS
Info: SUMMARY OF PARAMETERS:
Info: 180 BONDS
Info: 447 ANGLES
Info: 566 DIHEDRAL
Info: 46 IMPROPER
Info: 6 CROSSTERM
Info: 119 VDW
Info: 0 VDW_PAIRS
Info: 0 NBTHOLE_PAIRS
Info: STRUCTURE SUMMARY:
Info: 2476 ATOMS
Info: 1650 BONDS
Info: 825 ANGLES
Info: 0 DIHEDRALS
Info: 0 IMPROPERS
Info: 0 CROSSTERMS
Info: 0 EXCLUSIONS
Info: 2475 RIGID BONDS
Info: 4953 DEGREES OF FREEDOM
Info: 826 HYDROGEN GROUPS
Info: 3 ATOMS IN LARGEST HYDROGEN GROUP
Info: 826 MIGRATION GROUPS
Info: 3 ATOMS IN LARGEST MIGRATION GROUP
Info: TOTAL MASS = 14885.7 amu
Info: TOTAL CHARGE = 1 e
Info: MASS DENSITY = 0.915513 g/cm^3
Info: ATOM DENSITY = 0.0917037 atoms/A^3
Info: ADDED 2475 IMPLICIT EXCLUSIONS
Info: NONBONDED TABLE R-SQUARED SPACING: 0.0625
Info: NONBONDED TABLE SIZE: 769 POINTS
Info: REMOVING COM VELOCITY -0.0355408 0.152209 0.0678369
Info: MSM using C1 cubic interpolation
Info: MSM using C2 Taylor splitting function
Info: MSM block size decomposition along X is 8 grid points
Info: MSM block size decomposition along Y is 8 grid points
Info: MSM block size decomposition along Z is 8 grid points
Info: MSM grid spacing along X is 2.5 A
Info: MSM grid spacing along Y is 2.5 A
Info: MSM grid spacing along Z is 2.5 A
Info: MSM using 3 levels
Info:     level 0:  [0..11] x [0..11] x [0..11]
Info:     level 1:  [0..5] x [0..5] x [0..5]
Info:     level 2:  [0..2] x [0..2] x [0..2]
Info: MSM finished calculating stencils
Info: MSM finished creating map for grid levels
Info: MSM finished creating map for patches
Info: MSM has 9 interpolation / anterpolation objects (one per patch)
Info: MSM grid level 0 decomposed into 8 blocks ( 2 x 2 x 2 )
Info: MSM grid level 1 decomposed into 1 block ( 1 x 1 x 1 )
Info: MSM grid level 2 decomposed into 1 block ( 1 x 1 x 1 )
Info: MSM grid cutoff calculation decomposed into 783 work objects
TCL: Minimizing for 100 steps
ETITLE: TS BOND ANGLE DIHED IMPRP ELECT VDW BOUNDARY MISC KINETIC TOTAL TEMP POTENTIAL TOTAL3 TEMPAVG PRESSURE GPRESSURE VOLUME PRESSAVG GPRESSAVG
ENERGY: 0 0.0000 0.0000 0.0000 0.0000 -7348.6496 6353.7252 0.0000 0.0000 0.0000 -994.9244 0.0000 -994.9244 -994.9244 0.0000 75204.0846 46356.0500 27000.0000 75204.0846 46356.0500
ENERGY: 20 0.0000 0.0000 0.0000 0.0000 -8744.5976 644.7588 0.0000 0.0000 0.0000 -8099.8388 0.0000 -8099.8388 -8099.8388 0.0000 14286.6724 -2608.4243 27000.0000 14286.6724 -2608.4243
ENERGY: 40 0.0000 0.0000 0.0000 0.0000 -9255.3672 673.7887 0.0000 0.0000 0.0000 -8581.5785 0.0000 -8581.5785 -8581.5785 0.0000 14306.7121 -3612.4720 27000.0000 14306.7121 -3612.4720
ENERGY: 60 0.0000 0.0000 0.0000 0.0000 -9570.7000 738.1054 0.0000 0.0000 0.0000 -8832.5946 0.0000 -8832.5946 -8832.5946 0.0000 14889.9936 -3661.0807 27000.0000 14889.9936 -3661.0807
ENERGY: 80 0.0000 0.0000 0.0000 0.0000 -9709.8795 782.3565 0.0000 0.0000 0.0000 -8927.5230 0.0000 -8927.5230 -8927.5230 0.0000 15330.6194 -3519.7043 27000.0000 15330.6194 -3519.7043
ENERGY: 100 0.0000 0.0000 0.0000 0.0000 -9872.7520 825.2621 0.0000 0.0000 0.0000 -9047.4899 0.0000 -9047.4899 -9047.4899 0.0000 15763.4456 15684.6559 27000.0000 15763.4456 15684.6559
TCL: Running for 50000 steps
ETITLE: TS BOND ANGLE DIHED IMPRP ELECT VDW BOUNDARY MISC KINETIC TOTAL TEMP POTENTIAL TOTAL3 TEMPAVG PRESSURE GPRESSURE VOLUME PRESSAVG GPRESSAVG
ENERGY: 250 0.0000 0.0000 0.0000 0.0000 -9458.9996 945.0858 0.0000 0.0000 942.5126 -7571.4013 191.5178 -8513.9139 -7571.4499 185.6195 -2200.8278 -2195.1263 27000.0000 -2413.8148 -2414.0258
ENERGY: 10250 0.0000 0.0000 0.0000 0.0000 -8814.5032 824.9517 0.0000 0.0000 1474.6467 -6514.9047 299.6471 -7989.5514 -6515.2810 297.7546 -1555.3748 -1574.0585 27000.0000 -1268.5618 -1267.7866
ENERGY: 20250 0.0000 0.0000 0.0000 0.0000 -8921.8513 907.4375 0.0000 0.0000 1504.5845 -6509.8293 305.7304 -8014.4138 -6509.4436 297.2884 -872.4451 -864.6287 27000.0000 -1264.6069 -1264.4995
ENERGY: 30000 0.0000 0.0000 0.0000 0.0000 -8842.8192 838.1015 0.0000 0.0000 1459.6657 -6545.0520 296.6030 -8004.7177 -6545.4396 294.3856 -1414.7241 -1398.7070 27000.0000 -1503.5312 -1503.9189
ENERGY: 40000 0.0000 0.0000 0.0000 0.0000 -8836.6218 885.8765 0.0000 0.0000 1460.7152 -6490.0301 296.8162 -7950.7453 -6488.5427 298.0495 -900.6061 -856.0614 27000.0000 -1760.8917 -1762.4094
ENERGY: 50000 0.0000 0.0000 0.0000 0.0000 -8839.0288 872.5410 0.0000 0.0000 1503.4756 -6463.0121 305.5051 -7966.4877 -6461.8804 297.2156 -928.3898 -931.1181 27000.0000 -1164.0696 -1163.2835
