Info: SIMULATION PARAMETERS:
Info: TIMESTEP               2
Info: NUMBER OF STEPS        0
Info: STEPS PER CYCLE        10
Info: PERIODIC CELL BASIS 1  39.512 0 0
Info: PERIODIC CELL BASIS 2  0 38.729 0
Info: PERIODIC CELL BASIS 3  0 0 39.527
Info: PERIODIC CELL CENTER   0 0 0
Info: WRAPPING WATERS AROUND PERIODIC BOUNDARIES ON OUTPUT.
Info: WRAPPING ALL CLUSTERS AROUND PERIODIC BOUNDARIES ON OUTPUT.
Info: FIRST LDB TIMESTEP     50
Info: LAST LDB TIMESTEP     -1
Info: HOM BACKGROUND SCALING 1
Info: PME BACKGROUND SCALING 1
Info: MIN ATOMS PER PATCH    40
Info: EMPTY PATCH LOAD       40 ATOMS
Info: INITIAL TEMPERATURE    300
Info: CENTER OF MASS MOVING INITIALLY? NO
Info: DIELECTRIC             1
Info: EXCLUDE                SCALED ONE-FOUR
Info: 1-4 ELECTROSTATICS SCALED BY 0.833333
Info: MODIFIED 1-4 VDW PARAMETERS WILL BE USED
Info: DCD FILENAME           mobley_3370989_min.dcd
Info: DCD FREQUENCY          5000
Info: DCD FIRST STEP         5000
Info: DCD FILE WILL CONTAIN UNIT CELL DATA
Info: XST FILENAME           mobley_3370989_min.xst
Info: XST FREQUENCY          5000
Info: NO VELOCITY DCD OUTPUT
Info: NO FORCE DCD OUTPUT
Info: OUTPUT FILENAME        mobley_3370989_min
Info: BINARY OUTPUT FILES WILL BE USED
Info: RESTART FILENAME       mobley_3370989_min.restart
Info: RESTART FREQUENCY      5000
Info: BINARY RESTART FILES WILL BE USED
Info: CUTOFF                 9
Info: PAIRLIST DISTANCE      11
Info: PAIRLIST SHRINK RATE   0.01
Info: PAIRLIST GROW RATE     0.01
Info: PAIRLIST TRIGGER       0.3
Info: PAIRLISTS PER CYCLE    2
Info: PAIRLISTS ENABLED
Info: MARGIN                 8
Info: HYDROGEN GROUP CUTOFF  2.5
Info: PATCH DIMENSION        21.5
Info: ENERGY OUTPUT STEPS    5000
Info: ENERGY EVALUATION STEPS    5000
Info: OUTPUT ENERGY PRECISION 4
Info: CROSSTERM ENERGY INCLUDED IN DIHEDRAL
Info: TIMING OUTPUT STEPS    50000
Info: PRESSURE OUTPUT STEPS  5000
Info: LANGEVIN DYNAMICS ACTIVE
Info: LANGEVIN TEMPERATURE   300
Info: LANGEVIN USING BBK INTEGRATOR
Info: LANGEVIN DAMPING COEFFICIENT IS 1 INVERSE PS
Info: LANGEVIN DYNAMICS APPLIED TO HYDROGENS
Info: LANGEVIN PISTON PRESSURE CONTROL ACTIVE
Info:        TARGET PRESSURE IS 1.01325 BAR
Info:     OSCILLATION PERIOD IS 50 FS
Info:             DECAY TIME IS 25 FS
Info:     PISTON TEMPERATURE IS 300 K
Info:       PRESSURE CONTROL IS GROUP-BASED
Info:    INITIAL STRAIN RATE IS 0 0 0
Info:       CELL FLUCTUATION IS ISOTROPIC
Info: PARTICLE MESH EWALD (PME) ACTIVE
Info: PME TOLERANCE               1e-06
Info: PME EWALD COEFFICIENT       0.348832
Info: PME INTERPOLATION ORDER     4
Info: PME GRID DIMENSIONS         40 40 40
Info: PME MAXIMUM GRID SPACING    1
Info: FULL ELECTROSTATIC EVALUATION FREQUENCY      2
Info: USING VERLET I (r-RESPA) MTS SCHEME.
Info: C1 SPLITTING OF LONG RANGE ELECTROSTATICS
Info: PLACING ATOMS IN PATCHES BY HYDROGEN GROUPS
Info: RIGID BONDS TO HYDROGEN : ALL
Info:         ERROR TOLERANCE : 1e-08
Info:          MAX ITERATIONS : 100
Info: RIGID WATER USING SETTLE ALGORITHM
Info: RANDOM NUMBER SEED     1741330712
Info: USE HYDROGEN BONDS?    NO
Info: Using AMBER format force field!
Info: AMBER PARM FILE        mobley_3370989.prmtop
Info: COORDINATE PDB         mobley_3370989.pdb
Info: Exclusions will be read from PARM file!
Info: SCNB (VDW SCALING)     2
Info: USING ARITHMETIC MEAN TO COMBINE L-J SIGMA PARAMETERS
Info: SUMMARY OF PARAMETERS:
Info: 6 BONDS
Info: 6 ANGLES
Info:   6 HARMONIC
Info:   0 COSINE-BASED
Info: 2 DIHEDRAL
Info: 0 IMPROPER
Info: 0 CROSSTERM
Info: 0 VDW
Info: 21 VDW_PAIRS
Info: 0 NBTHOLE_PAIRS
Info: STRUCTURE SUMMARY:
Info: 4268 ATOMS
Info: 4267 BONDS
Info: 12 ANGLES
Info: 9 DIHEDRALS
Info: 0 IMPROPERS
Info: 0 CROSSTERMS
Info: 4288 EXCLUSIONS
Info: 4264 RIGID BONDS
Info: 8540 DEGREES OF FREEDOM
Info: 1424 HYDROGEN GROUPS
Info: 4 ATOMS IN LARGEST HYDROGEN GROUP
Info: 1424 MIGRATION GROUPS
Info: 4 ATOMS IN LARGEST MIGRATION GROUP
Info: TOTAL MASS = 25648.8 amu
Info: TOTAL CHARGE = -0.000200003 e
Info: MASS DENSITY = 0.704152 g/cm^3
Info: ATOM DENSITY = 0.0705611 atoms/A^3
Info: ADDED 0 IMPLICIT EXCLUSIONS
Info: NONBONDED TABLE R-SQUARED SPACING: 0.0625
Info: NONBONDED TABLE SIZE: 705 POINTS
Info: REMOVING COM VELOCITY 0.0867918 -0.124535 0.0358877
TCL: Minimizing for 2000 steps
ETITLE: TS BOND ANGLE DIHED IMPRP ELECT VDW BOUNDARY MISC KINETIC TOTAL TEMP POTENTIAL TOTAL3 TEMPAVG PRESSURE GPRESSURE VOLUME PRESSAVG GPRESSAVG
ENERGY: 0 0.1892 0.1292 0.0056 0.0000 -13196.4761 1535.7617 0.0000 0.0000 0.0000 -11660.3904 0.0000 -11660.3904 -11660.3904 0.0000 10895.7997 -15199.1318 60486.5968 10895.7997 -15199.1318
ENERGY: 400 27.8666 17.2348 0.0483 0.0000 -17965.3865 2673.7891 0.0000 0.0000 0.0000 -15246.4477 0.0000 -15246.4477 -15246.4477 0.0000 15602.5833 15410.8236 60486.5968 15602.5833 15410.8236
ENERGY: 800 3.2527 2.7980 0.0396 0.0000 -18826.8973 3039.4963 0.0000 0.0000 0.0000 -15781.3107 0.0000 -15781.3107 -15781.3107 0.0000 17605.0227 17315.3548 60486.5968 17605.0227 17315.3548
ENERGY: 1200 1.7324 1.1111 0.0250 0.0000 -19301.5298 3266.0482 0.0000 0.0000 0.0000 -16032.6130 0.0000 -16032.6130 -16032.6130 0.0000 18839.8508 18538.2822 60486.5968 18839.8508 18538.2822
ENERGY: 1600 5.9285 3.9694 0.0582 0.0000 -19549.8197 3384.5951 0.0000 0.0000 0.0000 -16155.2685 0.0000 -16155.2685 -16155.2685 0.0000 19515.2763 19154.8959 60486.5968 19515.2763 19154.8959
ENERGY: 2000 0.1098 0.2113 0.0016 0.0000 -19705.1143 3456.6525 0.0000 0.0000 0.0000 -16248.1392 0.0000 -16248.1392 -16248.1392 0.0000 19934.0528 19588.7714 60486.5968 19934.0528 19588.7714
TCL: Exiting due to exit command.
Info: NAMD 3.0.1 for Linux-x86_64-multicore
Info: Please visit http://www.ks.uiuc.edu/Research/namd/
Info: for updates, documentation, and support information.
Info: Please cite Phillips et al., J. Chem. Phys. 153:044130 (2020) doi:10.1063/5.0014475
Info: in all publications reporting results obtained with NAMD.
Info: Based on Charm++/Converse 80000 for multicore-linux-x86_64-gcc
Info: Built Mon Oct 14 11:11:06 CDT 2024 by dhardy on athine.ks.uiuc.edu
Info: 1 NAMD  3.0.1  Linux-x86_64-multicore  16    k061  z5358697
Info: Running on 16 processors, 1 nodes, 1 physical nodes.
Info: CPU topology information available.
Info: Charm++/Converse parallel runtime startup completed at 0.0120485 s
Info: 1043.46 MB of memory in use based on /proc/self/stat
Info: Configuration file is mobley_3370989_equil.namd
Info: Working in the current directory /srv/scratch/z5358697/prod_prep_4/3370989
TCL: Running 25000 steps at 30 kelvin.
TCL: Suspending until startup complete.
Info: SIMULATION PARAMETERS:
Info: TIMESTEP               2
Info: NUMBER OF STEPS        0
Info: STEPS PER CYCLE        10
Info: PERIODIC CELL BASIS 1  39.512 0 0
Info: PERIODIC CELL BASIS 2  0 38.729 0
Info: PERIODIC CELL BASIS 3  0 0 39.527
Info: PERIODIC CELL CENTER   0 0 0
Info: WRAPPING WATERS AROUND PERIODIC BOUNDARIES ON OUTPUT.
Info: WRAPPING ALL CLUSTERS AROUND PERIODIC BOUNDARIES ON OUTPUT.
Info: FIRST LDB TIMESTEP     50
Info: LAST LDB TIMESTEP     -1
Info: HOM BACKGROUND SCALING 1
Info: PME BACKGROUND SCALING 1
Info: MIN ATOMS PER PATCH    40
Info: EMPTY PATCH LOAD       40 ATOMS
Info: INITIAL TEMPERATURE    300
Info: CENTER OF MASS MOVING INITIALLY? NO
Info: DIELECTRIC             1
Info: EXCLUDE                SCALED ONE-FOUR
Info: 1-4 ELECTROSTATICS SCALED BY 0.833333
Info: MODIFIED 1-4 VDW PARAMETERS WILL BE USED
Info: DCD FILENAME           mobley_3370989_equil.dcd
Info: DCD FREQUENCY          5000
Info: DCD FIRST STEP         5000
Info: DCD FILE WILL CONTAIN UNIT CELL DATA
Info: XST FILENAME           mobley_3370989_equil.xst
Info: XST FREQUENCY          5000
Info: NO VELOCITY DCD OUTPUT
Info: NO FORCE DCD OUTPUT
Info: OUTPUT FILENAME        mobley_3370989_equil
Info: BINARY OUTPUT FILES WILL BE USED
Info: RESTART FILENAME       mobley_3370989_equil.restart
Info: RESTART FREQUENCY      5000
Info: BINARY RESTART FILES WILL BE USED
Info: CUTOFF                 9
Info: PAIRLIST DISTANCE      11
Info: PAIRLIST SHRINK RATE   0.01
Info: PAIRLIST GROW RATE     0.01
Info: PAIRLIST TRIGGER       0.3
Info: PAIRLISTS PER CYCLE    2
Info: PAIRLISTS ENABLED
Info: MARGIN                 8
Info: HYDROGEN GROUP CUTOFF  2.5
Info: PATCH DIMENSION        21.5
Info: ENERGY OUTPUT STEPS    5000
Info: ENERGY EVALUATION STEPS    5000
Info: OUTPUT ENERGY PRECISION 4
Info: CROSSTERM ENERGY INCLUDED IN DIHEDRAL
Info: TIMING OUTPUT STEPS    50000
Info: PRESSURE OUTPUT STEPS  5000
Info: LANGEVIN DYNAMICS ACTIVE
Info: LANGEVIN TEMPERATURE   30
Info: LANGEVIN USING BBK INTEGRATOR
Info: LANGEVIN DAMPING COEFFICIENT IS 1 INVERSE PS
Info: LANGEVIN DYNAMICS APPLIED TO HYDROGENS
Info: LANGEVIN PISTON PRESSURE CONTROL ACTIVE
Info:        TARGET PRESSURE IS 1.01325 BAR
Info:     OSCILLATION PERIOD IS 50 FS
Info:             DECAY TIME IS 25 FS
Info:     PISTON TEMPERATURE IS 300 K
Info:       PRESSURE CONTROL IS GROUP-BASED
Info:    INITIAL STRAIN RATE IS 0 0 0
Info:       CELL FLUCTUATION IS ISOTROPIC
Info: PARTICLE MESH EWALD (PME) ACTIVE
Info: PME TOLERANCE               1e-06
Info: PME EWALD COEFFICIENT       0.348832
Info: PME INTERPOLATION ORDER     4
Info: PME GRID DIMENSIONS         40 40 40
Info: PME MAXIMUM GRID SPACING    1
Info: FULL ELECTROSTATIC EVALUATION FREQUENCY      2
Info: USING VERLET I (r-RESPA) MTS SCHEME.
Info: C1 SPLITTING OF LONG RANGE ELECTROSTATICS
Info: PLACING ATOMS IN PATCHES BY HYDROGEN GROUPS
Info: RIGID BONDS TO HYDROGEN : ALL
Info:         ERROR TOLERANCE : 1e-08
Info:          MAX ITERATIONS : 100
Info: RIGID WATER USING SETTLE ALGORITHM
Info: RANDOM NUMBER SEED     1741330727
Info: USE HYDROGEN BONDS?    NO
Info: Using AMBER format force field!
Info: AMBER PARM FILE        mobley_3370989.prmtop
Info: COORDINATE PDB         mobley_3370989.pdb
Info: Exclusions will be read from PARM file!
Info: SCNB (VDW SCALING)     2
Info: USING ARITHMETIC MEAN TO COMBINE L-J SIGMA PARAMETERS
Info: BINARY COORDINATES     mobley_3370989_min.coor
Info: SUMMARY OF PARAMETERS:
Info: 6 BONDS
Info: 6 ANGLES
Info:   6 HARMONIC
Info:   0 COSINE-BASED
Info: 2 DIHEDRAL
Info: 0 IMPROPER
Info: 0 CROSSTERM
Info: 0 VDW
Info: 21 VDW_PAIRS
Info: 0 NBTHOLE_PAIRS
Info: STRUCTURE SUMMARY:
Info: 4268 ATOMS
Info: 4267 BONDS
Info: 12 ANGLES
Info: 9 DIHEDRALS
Info: 0 IMPROPERS
Info: 0 CROSSTERMS
Info: 4288 EXCLUSIONS
Info: 4264 RIGID BONDS
Info: 8540 DEGREES OF FREEDOM
Info: 1424 HYDROGEN GROUPS
Info: 4 ATOMS IN LARGEST HYDROGEN GROUP
Info: 1424 MIGRATION GROUPS
Info: 4 ATOMS IN LARGEST MIGRATION GROUP
Info: TOTAL MASS = 25648.8 amu
Info: TOTAL CHARGE = -0.000200003 e
Info: MASS DENSITY = 0.704152 g/cm^3
Info: ATOM DENSITY = 0.0705611 atoms/A^3
Info: ADDED 0 IMPLICIT EXCLUSIONS
Info: NONBONDED TABLE R-SQUARED SPACING: 0.0625
Info: NONBONDED TABLE SIZE: 705 POINTS
Info: REMOVING COM VELOCITY -0.00669011 -0.22131 0.0156989
TCL: Running for 25000 steps
ETITLE: TS BOND ANGLE DIHED IMPRP ELECT VDW BOUNDARY MISC KINETIC TOTAL TEMP POTENTIAL TOTAL3 TEMPAVG PRESSURE GPRESSURE VOLUME PRESSAVG GPRESSAVG
ENERGY: 0 0.1098 0.2113 0.0016 0.0000 -19705.1143 3456.6525 0.0000 0.0000 2566.1186 -13682.0206 302.4191 -16248.1392 -13681.5265 302.4191 458.4203 489.8861 60486.5968 458.4203 489.8861
ENERGY: 5000 0.0800 0.2209 0.0203 0.0000 -20579.7556 3606.7451 0.0000 0.0000 256.0874 -16716.6019 30.1801 -16972.6893 -16715.9165 47.6643 200.7342 245.1177 41782.3816 1.7492 1.7859
ENERGY: 10000 0.0757 0.2931 0.0055 0.0000 -20575.4350 3578.8170 0.0000 0.0000 259.4662 -16736.7774 30.5783 -16996.2436 -16735.6792 30.0441 -13.8944 63.9088 41707.9951 3.0225 3.1424
ENERGY: 15000 0.0275 0.2820 0.0231 0.0000 -20386.9497 3372.0536 0.0000 0.0000 255.0800 -16759.4834 30.0614 -17014.5635 -16758.4989 29.9364 -1284.6482 -1222.2281 42050.2122 3.2542 3.4448
ENERGY: 20000 0.2392 0.4406 0.0322 0.0000 -20771.6744 3759.1161 0.0000 0.0000 257.9363 -16753.9101 30.3980 -17011.8463 -16753.3363 30.1224 1064.2863 1105.1106 41436.1052 5.3701 5.4823
ENERGY: 25000 0.0723 0.2996 0.0158 0.0000 -20723.0870 3690.7554 0.0000 0.0000 258.4430 -16773.5008 30.4577 -17031.9438 -16772.6128 30.1059 590.5175 650.1942 41472.1158 0.0626 0.0826
TCL: Running 25000 steps at 60 kelvin.
TCL: Setting parameter langevinTemp to 60
TCL: Running for 25000 steps
ETITLE: TS BOND ANGLE DIHED IMPRP ELECT VDW BOUNDARY MISC KINETIC TOTAL TEMP POTENTIAL TOTAL3 TEMPAVG PRESSURE GPRESSURE VOLUME PRESSAVG GPRESSAVG
ENERGY: 25000 0.0723 0.2996 0.0158 0.0000 -20723.0870 3690.7554 0.0000 0.0000 258.3170 -16773.6268 30.4429 -17031.9438 -16773.1601 30.4429 589.4587 650.3640 41472.1158 589.4587 650.3640
ENERGY: 30000 0.4065 0.3626 0.1292 0.0000 -20182.2071 3407.3461 0.0000 0.0000 514.4494 -16259.5133 60.6283 -16773.9627 -16258.7972 57.5326 -359.4611 -272.6988 41822.5187 6.9027 6.7097
ENERGY: 35000 0.0898 0.3545 0.1397 0.0000 -20261.6410 3465.8189 0.0000 0.0000 506.4396 -16288.7985 59.6843 -16795.2381 -16287.7121 60.3680 -120.2732 -57.7936 41834.8988 2.2328 2.6321
ENERGY: 40000 0.0779 0.7267 0.0109 0.0000 -20302.9293 3487.9949 0.0000 0.0000 499.1874 -16314.9315 58.8296 -16814.1190 -16313.4364 60.9151 -27.5417 6.3044 41812.8105 0.6189 0.8032
ENERGY: 45000 0.0242 0.5835 0.0156 0.0000 -20377.7271 3557.5082 0.0000 0.0000 498.6534 -16320.9422 58.7667 -16819.5955 -16319.8932 60.0302 342.2765 367.3652 41686.7386 2.8393 3.1133
ENERGY: 50000 0.1500 1.2623 0.0820 0.0000 -20309.1588 3451.4428 0.0000 0.0000 506.3769 -16349.8449 59.6769 -16856.2217 -16348.1933 59.6916 -264.3080 -245.0695 41513.0370 4.7266 4.7676
TCL: Running 25000 steps at 90 kelvin.
TCL: Setting parameter langevinTemp to 90
TCL: Running for 25000 steps
ETITLE: TS BOND ANGLE DIHED IMPRP ELECT VDW BOUNDARY MISC KINETIC TOTAL TEMP POTENTIAL TOTAL3 TEMPAVG PRESSURE GPRESSURE VOLUME PRESSAVG GPRESSAVG
ENERGY: 50000 0.1500 1.2623 0.0820 0.0000 -20309.1588 3451.4428 0.0000 0.0000 506.1087 -16350.1130 59.6453 -16856.2217 -16349.0343 59.6453 -299.5660 -245.1491 41513.0370 -299.5660 -245.1491
ENERGY: 55000 0.2481 1.7487 0.0324 0.0000 -19828.1615 3212.3110 0.0000 0.0000 766.6721 -15847.1492 90.3529 -16613.8212 -15845.9970 86.8174 -1018.4247 -982.3572 41929.9173 3.4055 3.2417
ENERGY: 60000 0.2108 1.1239 0.0283 0.0000 -19907.5469 3255.0040 0.0000 0.0000 767.5064 -15883.6735 90.4512 -16651.1799 -15881.8068 90.3133 -867.4411 -787.1763 41695.3714 5.2180 5.3855
ENERGY: 65000 0.2507 0.4832 0.0179 0.0000 -20135.6864 3442.5787 0.0000 0.0000 753.5725 -15938.7833 88.8091 -16692.3558 -15936.8747 90.6420 204.6743 262.1461 41352.4887 2.5630 2.4815
ENERGY: 70000 0.4764 0.6723 0.0350 0.0000 -20073.9227 3350.2317 0.0000 0.0000 753.8269 -15968.6804 88.8391 -16722.5073 -15965.9169 89.8554 -425.9284 -411.0382 41523.2402 3.4118 2.8383
ENERGY: 75000 0.2761 0.9470 0.1911 0.0000 -19948.6077 3218.9394 0.0000 0.0000 762.2695 -15965.9847 89.8341 -16728.2542 -15964.2854 90.2975 -1294.1886 -1215.3404 41761.7184 3.5740 3.3429
TCL: Running 25000 steps at 120 kelvin.
TCL: Setting parameter langevinTemp to 120
TCL: Running for 25000 steps
ETITLE: TS BOND ANGLE DIHED IMPRP ELECT VDW BOUNDARY MISC KINETIC TOTAL TEMP POTENTIAL TOTAL3 TEMPAVG PRESSURE GPRESSURE VOLUME PRESSAVG GPRESSAVG
ENERGY: 75000 0.2761 0.9470 0.1911 0.0000 -19948.6077 3218.9394 0.0000 0.0000 761.8856 -15966.3685 89.7888 -16728.2542 -15964.5938 89.7888 -1273.1607 -1215.7656 41761.7184 -1273.1607 -1215.7656
ENERGY: 80000 0.1768 2.3215 0.2143 0.0000 -19583.9814 3137.6327 0.0000 0.0000 1049.5589 -15394.0771 123.6913 -16443.6360 -15390.8833 116.7088 -896.9743 -826.8854 41735.6714 10.4189 10.0528
ENERGY: 85000 0.5839 0.8628 0.1271 0.0000 -19694.9459 3205.9632 0.0000 0.0000 975.2585 -15512.1505 114.9350 -16487.4090 -15511.0675 119.9903 -794.1084 -716.0460 41746.0010 3.9992 4.1811
ENERGY: 90000 0.0742 0.5359 0.2805 0.0000 -19901.2992 3406.3110 0.0000 0.0000 1037.8597 -15456.2378 122.3126 -16494.0976 -15453.4329 120.1898 498.3985 572.4429 41365.0345 -1.4147 -1.6042
ENERGY: 95000 0.2442 0.7110 0.0663 0.0000 -19841.6487 3286.6603 0.0000 0.0000 1009.4283 -15544.5385 118.9619 -16553.9668 -15542.1347 118.9927 -336.4330 -294.0304 41569.4167 2.1563 2.3126
ENERGY: 100000 0.0900 1.2798 0.0373 0.0000 -19768.6142 3258.7716 0.0000 0.0000 1027.6752 -15480.7603 121.1123 -16508.4355 -15479.0480 120.0443 -483.4174 -402.9248 41680.5255 3.0599 3.1249
TCL: Running 25000 steps at 150 kelvin.
TCL: Setting parameter langevinTemp to 150
TCL: Running for 25000 steps
ETITLE: TS BOND ANGLE DIHED IMPRP ELECT VDW BOUNDARY MISC KINETIC TOTAL TEMP POTENTIAL TOTAL3 TEMPAVG PRESSURE GPRESSURE VOLUME PRESSAVG GPRESSAVG
ENERGY: 100000 0.0900 1.2798 0.0373 0.0000 -19768.6142 3258.7716 0.0000 0.0000 1027.1494 -15481.2861 121.0504 -16508.4355 -15479.1628 121.0504 -465.8658 -403.4751 41680.5255 -465.8658 -403.4751
ENERGY: 105000 0.9502 1.6684 0.6933 0.0000 -19245.4309 3106.7123 0.0000 0.0000 1267.5281 -14867.8786 149.3792 -16135.4067 -14865.0477 147.3057 -443.5440 -382.0977 41951.9425 4.5712 4.3412
ENERGY: 110000 0.4331 1.0859 0.1044 0.0000 -19327.2699 3133.3525 0.0000 0.0000 1258.4934 -14933.8007 148.3144 -16192.2940 -14930.7151 151.7544 -410.9732 -348.4864 41915.8078 -0.4023 -0.0443
ENERGY: 115000 0.4149 1.6555 0.0135 0.0000 -19284.4597 3060.1172 0.0000 0.0000 1244.2343 -14978.0242 146.6340 -16222.2585 -14974.7988 149.4726 -829.8714 -790.5377 42021.5557 2.5461 2.6274
ENERGY: 120000 0.2788 0.9507 0.3849 0.0000 -19429.3158 3172.8548 0.0000 0.0000 1258.5161 -14996.3305 148.3171 -16254.8466 -14993.6638 150.3240 -242.0070 -179.2702 41618.4328 -1.0873 -1.2609
ENERGY: 125000 0.2468 1.3865 0.0162 0.0000 -19324.5753 3043.6982 0.0000 0.0000 1266.7756 -15012.4520 149.2905 -16279.2276 -15008.1172 150.7273 -1060.2389 -1033.5927 41821.7465 5.6154 5.1663
TCL: Running 50000 steps at 180 kelvin.
TCL: Setting parameter langevinTemp to 180
TCL: Running for 50000 steps
ETITLE: TS BOND ANGLE DIHED IMPRP ELECT VDW BOUNDARY MISC KINETIC TOTAL TEMP POTENTIAL TOTAL3 TEMPAVG PRESSURE GPRESSURE VOLUME PRESSAVG GPRESSAVG
ENERGY: 125000 0.2468 1.3865 0.0162 0.0000 -19324.5753 3043.6982 0.0000 0.0000 1266.1182 -15013.1094 149.2130 -16279.2276 -15010.3885 149.2130 -1095.0889 -1034.2211 41821.7465 -1095.0889 -1034.2211
ENERGY: 135000 0.4747 3.0669 0.0672 0.0000 -19080.0892 3152.5404 0.0000 0.0000 1516.0443 -14407.8956 178.6670 -15923.9399 -14403.9447 180.2261 482.6804 529.7364 41739.1460 0.1049 -0.4360
ENERGY: 145000 0.3532 2.1313 0.0587 0.0000 -18961.5427 3108.5801 0.0000 0.0000 1550.9294 -14299.4900 182.7783 -15850.4194 -14298.0924 181.8834 521.1391 593.5540 41441.1746 1.0365 1.1915
ENERGY: 155000 0.2667 1.3653 0.1107 0.0000 -19022.8127 3094.5256 0.0000 0.0000 1544.1947 -14382.3497 181.9846 -15926.5444 -14377.9038 179.1425 374.7897 450.2643 41209.2158 1.7198 1.2964
ENERGY: 165000 0.3361 1.0309 0.2380 0.0000 -19043.8363 3135.7874 0.0000 0.0000 1525.8419 -14380.6020 179.8217 -15906.4439 -14377.4866 181.4479 337.2205 386.5508 42061.7380 6.0302 6.5260
ENERGY: 175000 0.4164 1.7481 0.0145 0.0000 -19052.9381 3122.7680 0.0000 0.0000 1507.1888 -14420.8023 177.6234 -15927.9911 -14418.3091 179.3864 280.4911 364.7480 41712.0889 6.1274 6.0036
TCL: Running 50000 steps at 210 kelvin.
TCL: Setting parameter langevinTemp to 210
TCL: Running for 50000 steps
ETITLE: TS BOND ANGLE DIHED IMPRP ELECT VDW BOUNDARY MISC KINETIC TOTAL TEMP POTENTIAL TOTAL3 TEMPAVG PRESSURE GPRESSURE VOLUME PRESSAVG GPRESSAVG
ENERGY: 175000 0.4164 1.7481 0.0145 0.0000 -19052.9381 3122.7680 0.0000 0.0000 1506.4398 -14421.5513 177.5351 -15927.9911 -14418.6909 177.5351 314.7003 365.1699 41712.0889 314.7003 365.1699
ENERGY: 185000 0.6511 2.1131 0.0622 0.0000 -18324.9195 2963.4589 0.0000 0.0000 1762.1522 -13596.4820 207.6710 -15358.6342 -13592.5257 209.0616 967.5679 1027.6525 41298.2623 1.4592 1.2987
ENERGY: 195000 0.8491 3.0811 0.0530 0.0000 -18022.4853 2705.8289 0.0000 0.0000 1757.5833 -13555.0900 207.1326 -15312.6733 -13549.3494 209.4694 -518.2692 -399.0811 41655.4418 1.5049 1.4468
ENERGY: 205000 0.4808 2.2822 0.0690 0.0000 -18057.6643 2752.0306 0.0000 0.0000 1740.0645 -13562.7371 205.0680 -15302.8017 -13559.1636 210.1700 -350.0582 -310.9820 42195.4691 -0.4724 -0.3422
ENERGY: 215000 1.5032 2.4840 0.1322 0.0000 -17877.6392 2594.6153 0.0000 0.0000 1768.5260 -13510.3785 208.4222 -15278.9045 -13506.8870 210.6888 -1027.8727 -939.2257 41731.8175 3.3110 3.2707
ENERGY: 225000 0.4595 1.4931 0.0752 0.0000 -18048.7370 2731.1928 0.0000 0.0000 1751.6223 -13563.8940 206.4301 -15315.5163 -13560.8387 208.5985 -288.9164 -121.3826 41462.4325 1.2311 1.1804
TCL: Running 50000 steps at 240 kelvin.
TCL: Setting parameter langevinTemp to 240
TCL: Running for 50000 steps
ETITLE: TS BOND ANGLE DIHED IMPRP ELECT VDW BOUNDARY MISC KINETIC TOTAL TEMP POTENTIAL TOTAL3 TEMPAVG PRESSURE GPRESSURE VOLUME PRESSAVG GPRESSAVG
ENERGY: 225000 0.4595 1.4931 0.0752 0.0000 -18048.7370 2731.1928 0.0000 0.0000 1750.7636 -13564.7527 206.3289 -15315.5163 -13561.4299 206.3289 -215.8910 -122.2078 41462.4325 -215.8910 -122.2078
ENERGY: 235000 0.2038 2.7397 0.0159 0.0000 -17169.9649 2582.4527 0.0000 0.0000 2038.3994 -12546.1533 240.2270 -14584.5528 -12543.2568 241.9271 586.0733 678.5497 41632.6849 0.7813 0.9216
ENERGY: 245000 0.6124 2.3959 0.1805 0.0000 -17075.0005 2466.4223 0.0000 0.0000 2045.0328 -12560.3566 241.0087 -14605.3894 -12555.0311 239.8226 49.2304 75.6809 41731.6872 6.0002 5.3372
ENERGY: 255000 1.7835 3.6224 0.0326 0.0000 -17299.5683 2631.0921 0.0000 0.0000 2117.4734 -12545.5643 249.5459 -14663.0377 -12543.6774 240.0738 744.4473 780.1716 41927.2567 8.1459 8.0394
ENERGY: 265000 0.9623 3.0194 0.1078 0.0000 -16935.8520 2376.4773 0.0000 0.0000 2081.0213 -12474.2639 245.2500 -14555.2851 -12470.0837 241.3128 -626.8701 -546.6792 42436.5119 -0.4545 -0.3910
ENERGY: 275000 0.8296 4.0408 0.0490 0.0000 -17168.6065 2555.8907 0.0000 0.0000 2053.9931 -12553.8032 242.0647 -14607.7963 -12547.2615 238.8065 337.6011 407.6146 42099.9798 0.4413 0.4240
TCL: Running 50000 steps at 270 kelvin.
TCL: Setting parameter langevinTemp to 270
TCL: Running for 50000 steps
ETITLE: TS BOND ANGLE DIHED IMPRP ELECT VDW BOUNDARY MISC KINETIC TOTAL TEMP POTENTIAL TOTAL3 TEMPAVG PRESSURE GPRESSURE VOLUME PRESSAVG GPRESSAVG
ENERGY: 275000 0.8296 4.0408 0.0490 0.0000 -17168.6065 2555.8907 0.0000 0.0000 2052.9722 -12554.8241 241.9444 -14607.7963 -12552.0981 241.9444 326.8294 408.7031 42099.9798 326.8294 408.7031
ENERGY: 285000 1.0432 3.2196 0.0241 0.0000 -16312.9870 2321.0303 0.0000 0.0000 2417.5069 -11570.1628 284.9051 -13987.6698 -11568.4558 270.5798 280.1982 327.5049 43304.4134 -0.7716 -0.4143
ENERGY: 295000 0.2445 4.4427 0.2276 0.0000 -16261.2531 2222.5549 0.0000 0.0000 2269.2038 -11764.5797 267.4275 -14033.7835 -11761.4836 268.8765 -494.1031 -424.6630 43177.3608 4.1082 4.6716
ENERGY: 305000 3.4241 2.8691 0.0707 0.0000 -16338.1155 2384.9428 0.0000 0.0000 2285.8623 -11660.9465 269.3907 -13946.8088 -11657.9338 269.6135 761.3373 815.4890 42907.0608 1.3227 1.6990
ENERGY: 315000 0.8269 1.2926 0.0265 0.0000 -16325.0088 2256.3689 0.0000 0.0000 2234.3420 -11832.1519 263.3190 -14066.4939 -11826.8743 267.8168 -406.6044 -301.2737 43082.8440 2.9968 2.6976
ENERGY: 325000 1.1175 4.8863 0.3842 0.0000 -16141.3875 2101.4897 0.0000 0.0000 2287.4687 -11746.0412 269.5800 -14033.5099 -11743.2922 268.9376 -1209.0026 -1172.4493 43269.1731 6.8816 7.1245
TCL: Running 1000000 steps at 300 kelvin.
TCL: Setting parameter langevinTemp to 300
TCL: Running for 1000000 steps
ETITLE: TS BOND ANGLE DIHED IMPRP ELECT VDW BOUNDARY MISC KINETIC TOTAL TEMP POTENTIAL TOTAL3 TEMPAVG PRESSURE GPRESSURE VOLUME PRESSAVG GPRESSAVG
ENERGY: 325000 1.1175 4.8863 0.3842 0.0000 -16141.3875 2101.4897 0.0000 0.0000 2286.3864 -11747.1234 269.4525 -14033.5099 -11743.4679 269.4525 -1253.8227 -1172.0581 43269.1731 -1253.8227 -1172.0581
ENERGY: 525000 0.7864 3.7756 0.1244 0.0000 -15403.8013 2010.1050 0.0000 0.0000 2578.6749 -10810.3350 303.8989 -13389.0099 -10804.2059 300.1636 -503.2455 -414.7182 44446.0553 8.5079 7.7385
ENERGY: 725000 0.6267 2.1488 1.4547 0.0000 -15393.4908 1993.2102 0.0000 0.0000 2545.8931 -10850.1574 300.0355 -13396.0504 -10844.1794 301.3718 -648.6296 -572.6257 44630.8017 0.6184 0.9834
ENERGY: 925000 4.1771 3.4668 0.0823 0.0000 -15547.3488 2175.4253 0.0000 0.0000 2504.9524 -10859.2449 295.2106 -13364.1973 -10853.8346 299.7046 507.5916 569.3991 43932.4684 0.6619 0.8886
ENERGY: 1125000 0.3525 2.3483 0.1351 0.0000 -15636.5654 2203.7554 0.0000 0.0000 2536.1695 -10893.8045 298.8896 -13429.9740 -10889.3930 298.9999 708.4091 800.3780 43745.2703 5.0444 4.8268
ENERGY: 1325000 1.1245 0.9037 0.4946 0.0000 -15375.9097 2079.4866 0.0000 0.0000 2600.6314 -10693.2689 306.4865 -13293.9003 -10687.3427 299.3871 350.9271 448.2708 43702.2735 0.7125 1.1879
TCL: Exiting due to exit command.
