Info: SIMULATION PARAMETERS:
Info: TIMESTEP               2
Info: NUMBER OF STEPS        0
Info: STEPS PER CYCLE        10
Info: PERIODIC CELL BASIS 1  89.3603 0 0
Info: PERIODIC CELL BASIS 2  0 89.3603 0
Info: PERIODIC CELL BASIS 3  0 0 89.3603
Info: PERIODIC CELL CENTER   39.178 39.178 39.178
Info: WRAPPING ALL CLUSTERS AROUND PERIODIC BOUNDARIES ON OUTPUT.
Info: FIRST LDB TIMESTEP     50
Info: LAST LDB TIMESTEP     -1
Info: HOM BACKGROUND SCALING 1
Info: PME BACKGROUND SCALING 1
Info: MIN ATOMS PER PATCH    40
Info: EMPTY PATCH LOAD       40 ATOMS
Info: VELOCITY FILE          mobley_7415647_equilibrated.vel
Info: CENTER OF MASS MOVING INITIALLY? NO
Info: DIELECTRIC             1
Info: EXCLUDE                SCALED ONE-FOUR
Info: 1-4 ELECTROSTATICS SCALED BY 1
Info: MODIFIED 1-4 VDW PARAMETERS WILL BE USED
Info: DCD FILENAME           mobley_7415647_backwards.dcd
Info: DCD FREQUENCY          500
Info: DCD FIRST STEP         500
Info: DCD FILE WILL CONTAIN UNIT CELL DATA
Info: NO EXTENDED SYSTEM TRAJECTORY OUTPUT
Info: NO VELOCITY DCD OUTPUT
Info: NO FORCE DCD OUTPUT
Info: OUTPUT FILENAME        mobley_7415647_backwards
Info: BINARY OUTPUT FILES WILL BE USED
Info: NO RESTART FILE
Info: SWITCHING ACTIVE
Info: SWITCHING ON           10
Info: SWITCHING OFF          12
Info: PAIRLIST DISTANCE      14
Info: PAIRLIST SHRINK RATE   0.01
Info: PAIRLIST GROW RATE     0.01
Info: PAIRLIST TRIGGER       0.3
Info: PAIRLISTS PER CYCLE    2
Info: PAIRLISTS ENABLED
Info: MARGIN                 8
Info: HYDROGEN GROUP CUTOFF  2.5
Info: PATCH DIMENSION        24.5
Info: ENERGY OUTPUT STEPS    500
Info: ENERGY EVALUATION STEPS    500
Info: OUTPUT ENERGY PRECISION 4
Info: CROSSTERM ENERGY INCLUDED IN DIHEDRAL
Info: TIMING OUTPUT STEPS    500
Info: PRESSURE OUTPUT STEPS  500
Info: ALCHEMICAL FEP ON
Info: FEP CURRENT LAMBDA VALUE     1
Info: FEP COMPARISON LAMBDA VALUE  0.9375
Info: FEP INTRA-ALCHEMICAL NON-BONDED INTERACTIONS WILL BE DECOUPLED
Info: FEP INTRA-ALCHEMICAL BONDED INTERACTIONS WILL BE RETAINED
Info: FEP VDW SHIFTING COEFFICIENT 6
Info: FEP ELEC. ACTIVE FOR ANNIHILATED PARTICLES BETWEEN LAMBDA = 0 AND LAMBDA = 0.5
Info: FEP ELEC. ACTIVE FOR EXNIHILATED PARTICLES BETWEEN LAMBDA = 0.5 AND LAMBDA = 1
Info: FEP VDW ACTIVE FOR ANNIHILATED PARTICLES BETWEEN LAMBDA = 0 AND LAMBDA = 1
Info: FEP VDW ACTIVE FOR EXNIHILATED PARTICLES BETWEEN LAMBDA = 0 AND LAMBDA = 1
Info: FEP BOND ACTIVE FOR ANNIHILATED PARTICLES BETWEEN LAMBDA = 1 AND LAMBDA = 1
Info: FEP BOND ACTIVE FOR EXNIHILATED PARTICLES BETWEEN LAMBDA = 0 AND LAMBDA = 0
Info: LANGEVIN DYNAMICS ACTIVE
Info: LANGEVIN TEMPERATURE   298
Info: LANGEVIN USING BBK INTEGRATOR
Info: LANGEVIN DAMPING COEFFICIENT IS 1 INVERSE PS
Info: LANGEVIN DYNAMICS NOT APPLIED TO HYDROGENS
Info: LANGEVIN PISTON PRESSURE CONTROL ACTIVE
Info:        TARGET PRESSURE IS 1.01325 BAR
Info:     OSCILLATION PERIOD IS 100 FS
Info:             DECAY TIME IS 50 FS
Info:     PISTON TEMPERATURE IS 298 K
Info:       PRESSURE CONTROL IS GROUP-BASED
Info:    INITIAL STRAIN RATE IS -8.77393e-05 -8.77393e-05 -8.77393e-05
Info:       CELL FLUCTUATION IS ISOTROPIC
Info: PARTICLE MESH EWALD (PME) ACTIVE
Info: PME TOLERANCE               1e-05
Info: PME EWALD COEFFICIENT       0.226635
Info: PME INTERPOLATION ORDER     4
Info: PME GRID DIMENSIONS         96 96 96
Info: PME MAXIMUM GRID SPACING    1
Info: FULL ELECTROSTATIC EVALUATION FREQUENCY      1
Info: USING VERLET I (r-RESPA) MTS SCHEME.
Info: C1 SPLITTING OF LONG RANGE ELECTROSTATICS
Info: PLACING ATOMS IN PATCHES BY HYDROGEN GROUPS
Info: RIGID BONDS TO HYDROGEN : ALL
Info:         ERROR TOLERANCE : 1e-08
Info:          MAX ITERATIONS : 100
Info: RIGID WATER USING SETTLE ALGORITHM
Info: RANDOM NUMBER SEED     1740649577
Info: USE HYDROGEN BONDS?    NO
Info: COORDINATE PDB         mobley_7415647.pdb
Info: STRUCTURE FILE         mobley_7415647.psf
Info: PARAMETER file: CHARMM format!
Info: PARAMETERS             ../common/par_all27_prot_lipid.inp
Info: PARAMETERS             mobley_7415647.prm
Info: USING ARITHMETIC MEAN TO COMBINE L-J SIGMA PARAMETERS
Info: BINARY COORDINATES     mobley_7415647_equilibrated.coor
Info: SUMMARY OF PARAMETERS:
Info: 189 BONDS
Info: 460 ANGLES
Info: 580 DIHEDRAL
Info: 51 IMPROPER
Info: 6 CROSSTERM
Info: 127 VDW
Info: 0 VDW_PAIRS
Info: 0 NBTHOLE_PAIRS
Info: To read alchdata from file: mobley_7415647.pdb
Info: To read alchflag data from column: 5
Info: STRUCTURE SUMMARY:
Info: 5493 ATOMS
Info: 3670 BONDS
Info: 1862 ANGLES
Info: 48 DIHEDRALS
Info: 8 IMPROPERS
Info: 0 CROSSTERMS
Info: 0 EXCLUSIONS
Info: 5479 RIGID BONDS
Info: ALCH: 0 ATOMS TO DISAPPEAR IN FINAL STATE
Info: ALCH: 24 ATOMS TO APPEAR IN FINAL STATE
Info: 11000 DEGREES OF FREEDOM
Info: 1837 HYDROGEN GROUPS
Info: 4 ATOMS IN LARGEST HYDROGEN GROUP
Info: 1837 MIGRATION GROUPS
Info: 4 ATOMS IN LARGEST MIGRATION GROUP
Info: TOTAL MASS = 33036.3 amu
Info: TOTAL CHARGE = -4.47035e-08 e
Info: MASS DENSITY = 0.0768805 g/cm^3
Info: ATOM DENSITY = 0.00769796 atoms/A^3
Info: ADDED 5577 IMPLICIT EXCLUSIONS
Info: NONBONDED TABLE R-SQUARED SPACING: 0.0625
Info: NONBONDED TABLE SIZE: 769 POINTS
Info: REMOVING COM VELOCITY -0.0958642 0.0211153 -0.129526
TCL: Running for 5000 steps
ETITLE: TS BOND ANGLE DIHED IMPRP ELECT VDW BOUNDARY MISC KINETIC TOTAL TEMP POTENTIAL TOTAL3 TEMPAVG PRESSURE GPRESSURE VOLUME PRESSAVG GPRESSAVG
ENERGY: 0 7.6531 10.5094 10.6965 0.1764 -19016.7547 2031.7105 0.0000 0.0000 3209.2217 -13746.7871 293.6280 -16956.0088 -13740.4706 293.6280 -4.1644 -4.1694 713565.6674 -4.1644 -4.1694
ENERGY: 1000 6.0051 5.6689 9.0250 0.9287 -18966.6747 2031.5279 0.0000 0.0000 3193.3968 -13720.1222 292.1801 -16913.5190 -13713.4406 295.1392 18.2506 19.0720 716360.9520 0.0034 0.0403
ENERGY: 2000 3.8291 11.1711 7.2393 0.3545 -18929.5094 1988.1002 0.0000 0.0000 3307.0784 -13611.7368 302.5814 -16918.8152 -13608.3814 299.0594 5.8523 5.9829 717699.6022 -0.2221 -0.2088
ENERGY: 3000 4.6096 15.3171 6.2954 0.2548 -18822.8766 2007.6013 0.0000 0.0000 3237.7132 -13551.0852 296.2348 -16788.7984 -13545.3876 300.0310 12.3643 12.3143 752070.3599 2.1780 2.1821
ENERGY: 4000 4.2849 7.8902 14.9763 0.8098 -18849.5745 1952.8705 0.0000 0.0000 3271.0806 -13597.6621 299.2878 -16868.7427 -13591.3389 300.3914 -15.5659 -15.9757 748511.8649 0.4025 0.4088
ENERGY: 5000 2.2694 11.9441 10.7539 0.8111 -19111.5036 2170.2844 0.0000 0.0000 3285.6504 -13629.7903 300.6208 -16915.4407 -13623.0834 299.0838 71.4528 71.1344 753123.3560 2.2871 2.3006
TCL: Running FEP window   2: Lambda1 0.9375 Lambda2 0.875  [dLambda -0.0625]
TCL: Setting parameter firsttimestep to 0
TCL: Setting parameter alchLambda to 0.9375
Info: NONBONDED TABLE R-SQUARED SPACING: 0.0625
Info: NONBONDED TABLE SIZE: 769 POINTS
TCL: Setting parameter alchLambda2 to 0.875
Info: NONBONDED TABLE R-SQUARED SPACING: 0.0625
Info: NONBONDED TABLE SIZE: 769 POINTS
TCL: Running for 5000 steps
ETITLE: TS BOND ANGLE DIHED IMPRP ELECT VDW BOUNDARY MISC KINETIC TOTAL TEMP POTENTIAL TOTAL3 TEMPAVG PRESSURE GPRESSURE VOLUME PRESSAVG GPRESSAVG
ENERGY: 0 2.2694 11.9441 10.7539 0.8111 -19110.0166 2166.7127 0.0000 0.0000 3285.5504 -13631.9749 300.6117 -16917.5253 -13626.4982 300.6117 68.5055 68.2238 753123.3560 68.5055 68.2238
ENERGY: 1000 6.2369 8.3712 9.6787 0.1232 -18907.6327 1969.5225 0.0000 0.0000 3306.0079 -13607.6922 302.4834 -16913.7001 -13600.9237 300.1181 -6.6259 -6.7764 760110.4045 1.3140 1.3406
ENERGY: 2000 5.1210 11.4383 6.9344 0.4429 -18986.2991 2123.9497 0.0000 0.0000 3255.2818 -13583.1310 297.8422 -16838.4128 -13577.3776 298.3683 60.0991 59.7061 725964.1504 1.0221 1.0041
ENERGY: 3000 2.2447 8.1143 11.3061 0.5347 -18830.9178 1954.1618 0.0000 0.0000 3202.1737 -13652.3825 292.9831 -16854.5562 -13647.5702 298.1970 -2.7145 -2.1617 723823.5378 0.4717 0.4471
ENERGY: 4000 4.5575 7.8350 7.9234 0.2246 -18938.8578 2013.9111 0.0000 0.0000 3359.5545 -13544.8517 307.3827 -16904.4062 -13537.8783 301.1817 23.9078 23.7523 701102.7675 2.1619 2.1738
ENERGY: 5000 7.5186 6.8889 5.0468 0.3369 -18773.0074 1879.8869 0.0000 0.0000 3258.7810 -13614.5482 298.1624 -16873.3292 -13610.9988 297.7800 -42.7713 -42.4479 683970.2005 -1.9798 -1.9964
TCL: Running FEP window   3: Lambda1 0.875  Lambda2 0.8125 [dLambda -0.0625]
TCL: Setting parameter firsttimestep to 0
TCL: Setting parameter alchLambda to 0.875
Info: NONBONDED TABLE R-SQUARED SPACING: 0.0625
Info: NONBONDED TABLE SIZE: 769 POINTS
TCL: Setting parameter alchLambda2 to 0.8125
Info: NONBONDED TABLE R-SQUARED SPACING: 0.0625
Info: NONBONDED TABLE SIZE: 769 POINTS
TCL: Running for 5000 steps
ETITLE: TS BOND ANGLE DIHED IMPRP ELECT VDW BOUNDARY MISC KINETIC TOTAL TEMP POTENTIAL TOTAL3 TEMPAVG PRESSURE GPRESSURE VOLUME PRESSAVG GPRESSAVG
ENERGY: 0 7.5186 6.8889 5.0468 0.3369 -18772.6763 1876.6046 0.0000 0.0000 3258.6787 -13617.6017 298.1530 -16876.2804 -13611.6419 298.1530 -45.5254 -45.4971 683970.2005 -45.5254 -45.4971
ENERGY: 1000 3.1769 7.5320 5.5281 0.3902 -18902.2165 1976.5533 0.0000 0.0000 3259.7767 -13649.2592 298.2535 -16909.0359 -13643.3146 299.0447 -14.1448 -13.8903 686633.1547 2.5907 2.5929
ENERGY: 2000 4.7116 5.6471 14.2185 0.8848 -18802.4314 1891.7213 0.0000 0.0000 3308.2404 -13577.0077 302.6877 -16885.2481 -13569.5202 302.5647 -27.0462 -26.9049 681893.6666 1.2799 1.2881
ENERGY: 3000 3.5051 8.9875 11.8075 0.6056 -18856.0024 1957.9460 0.0000 0.0000 3209.7142 -13663.4365 293.6730 -16873.1507 -13658.5746 298.4201 -5.4705 -6.1235 695141.9672 1.0658 1.0875
ENERGY: 4000 3.4921 10.1003 6.5686 0.3200 -18922.1339 2001.5879 0.0000 0.0000 3213.1817 -13686.8833 293.9903 -16900.0650 -13682.2021 299.6776 5.1965 4.8474 696512.6975 1.2254 1.2228
ENERGY: 5000 3.8726 6.7082 8.2210 0.7980 -18866.2494 1951.9755 0.0000 0.0000 3234.5990 -13660.0751 295.9499 -16894.6741 -13653.7062 297.0705 -2.9468 -3.5356 709411.0360 0.9538 0.9653
TCL: Running FEP window   4: Lambda1 0.8125 Lambda2 0.75   [dLambda -0.0625]
TCL: Setting parameter firsttimestep to 0
TCL: Setting parameter alchLambda to 0.8125
Info: NONBONDED TABLE R-SQUARED SPACING: 0.0625
Info: NONBONDED TABLE SIZE: 769 POINTS
TCL: Setting parameter alchLambda2 to 0.75
Info: NONBONDED TABLE R-SQUARED SPACING: 0.0625
Info: NONBONDED TABLE SIZE: 769 POINTS
TCL: Running for 5000 steps
ETITLE: TS BOND ANGLE DIHED IMPRP ELECT VDW BOUNDARY MISC KINETIC TOTAL TEMP POTENTIAL TOTAL3 TEMPAVG PRESSURE GPRESSURE VOLUME PRESSAVG GPRESSAVG
ENERGY: 0 3.8726 6.7082 8.2210 0.7980 -18866.5102 1950.9262 0.0000 0.0000 3234.4935 -13661.4906 295.9402 -16895.9842 -13654.8853 295.9402 -5.1860 -5.1613 709411.0360 -5.1860 -5.1613
ENERGY: 1000 2.2846 8.7317 8.1737 0.7795 -18837.6142 1875.1308 0.0000 0.0000 3244.5314 -13697.9825 296.8586 -16942.5139 -13692.5813 297.7773 -26.8104 -27.9799 715614.8102 -0.7536 -0.7228
ENERGY: 2000 2.9909 5.6550 7.6782 0.3025 -19002.2287 2020.9937 0.0000 0.0000 3278.4452 -13686.1632 299.9616 -16964.6083 -13681.7661 297.5777 7.9741 7.2232 710293.1334 0.7485 0.7341
ENERGY: 3000 5.8033 8.3505 5.8833 0.2004 -19036.0171 2069.4677 0.0000 0.0000 3259.6455 -13686.6664 298.2415 -16946.3119 -13679.3359 297.5899 18.2735 18.8867 719973.3863 1.7058 1.7097
ENERGY: 4000 1.5507 5.4131 9.3373 0.5162 -18954.2012 2010.0786 0.0000 0.0000 3284.4607 -13642.8447 300.5120 -16927.3054 -13636.6463 296.4539 13.6158 14.0370 717984.6715 1.5800 1.5590
ENERGY: 5000 4.1387 14.2365 8.5868 0.5199 -19026.1008 2049.4044 0.0000 0.0000 3280.0516 -13669.1629 300.1086 -16949.2145 -13664.8730 298.3516 20.9347 21.5792 681395.6815 1.8246 1.8036
TCL: Running FEP window   5: Lambda1 0.75   Lambda2 0.6875 [dLambda -0.0625]
TCL: Setting parameter firsttimestep to 0
TCL: Setting parameter alchLambda to 0.75
Info: NONBONDED TABLE R-SQUARED SPACING: 0.0625
Info: NONBONDED TABLE SIZE: 769 POINTS
TCL: Setting parameter alchLambda2 to 0.6875
Info: NONBONDED TABLE R-SQUARED SPACING: 0.0625
Info: NONBONDED TABLE SIZE: 769 POINTS
TCL: Running for 5000 steps
ETITLE: TS BOND ANGLE DIHED IMPRP ELECT VDW BOUNDARY MISC KINETIC TOTAL TEMP POTENTIAL TOTAL3 TEMPAVG PRESSURE GPRESSURE VOLUME PRESSAVG GPRESSAVG
ENERGY: 0 4.1387 14.2365 8.5868 0.5199 -19026.1295 2048.1665 0.0000 0.0000 3279.9521 -13670.5290 300.0995 -16950.4811 -13664.8994 300.0995 19.7211 19.7864 681395.6815 19.7211 19.7864
ENERGY: 1000 6.1135 9.4001 6.8649 0.6161 -19073.0014 2032.6808 0.0000 0.0000 3228.4647 -13788.8613 295.3886 -17017.3260 -13782.4339 293.6627 22.5170 22.1176 659071.2150 0.6837 0.6901
ENERGY: 2000 3.9611 11.2796 4.2416 0.5891 -18966.5481 1965.9672 0.0000 0.0000 3231.1895 -13749.3201 295.6379 -16980.5097 -13744.6098 295.0789 -7.9586 -7.5504 650269.7339 1.0863 1.0986
ENERGY: 3000 4.1058 8.1012 5.2387 0.8153 -18997.7418 2043.0796 0.0000 0.0000 3258.8617 -13677.5396 298.1698 -16936.4013 -13670.8321 296.9330 29.5461 29.8465 662518.2342 0.0503 0.0718
ENERGY: 4000 3.3601 7.7893 5.5389 0.6597 -19009.5070 1975.1996 0.0000 0.0000 3240.1759 -13776.7835 296.4601 -17016.9594 -13770.3003 295.3135 -15.0625 -16.1666 674629.0506 1.7000 1.7052
ENERGY: 5000 5.3514 5.1937 9.8534 0.5697 -18899.3083 1883.0391 0.0000 0.0000 3182.5332 -13812.7678 291.1861 -16995.3010 -13808.4027 293.7717 -48.4584 -48.5625 678055.6979 -0.9478 -0.9610
TCL: Running FEP window   6: Lambda1 0.6875 Lambda2 0.625  [dLambda -0.0625]
TCL: Setting parameter firsttimestep to 0
TCL: Setting parameter alchLambda to 0.6875
Info: NONBONDED TABLE R-SQUARED SPACING: 0.0625
Info: NONBONDED TABLE SIZE: 769 POINTS
TCL: Setting parameter alchLambda2 to 0.625
Info: NONBONDED TABLE R-SQUARED SPACING: 0.0625
Info: NONBONDED TABLE SIZE: 769 POINTS
TCL: Running for 5000 steps
ETITLE: TS BOND ANGLE DIHED IMPRP ELECT VDW BOUNDARY MISC KINETIC TOTAL TEMP POTENTIAL TOTAL3 TEMPAVG PRESSURE GPRESSURE VOLUME PRESSAVG GPRESSAVG
ENERGY: 0 5.3514 5.1937 9.8534 0.5697 -18898.7488 1881.1873 0.0000 0.0000 3182.4340 -13814.1593 291.1770 -16996.5933 -13807.8798 291.1770 -50.6196 -50.5865 678055.6979 -50.6196 -50.5865
ENERGY: 1000 4.5419 9.8191 3.2838 0.3524 -19069.5065 2048.5695 0.0000 0.0000 3240.6327 -13762.3071 296.5019 -17002.9398 -13754.3412 295.3161 18.7011 18.7081 669210.8296 2.0715 2.0731
ENERGY: 2000 5.0721 9.0191 4.5929 0.8280 -18845.8528 1853.4371 0.0000 0.0000 3267.3014 -13705.6022 298.9420 -16972.9036 -13696.0829 293.8526 -45.2569 -45.4098 687001.5157 1.1965 1.2305
ENERGY: 3000 3.9762 10.3548 4.8129 0.7854 -19068.1365 2054.2771 0.0000 0.0000 3303.0894 -13690.8406 302.2164 -16993.9300 -13685.8046 295.4688 27.4684 27.9569 682389.2754 0.4534 0.4494
ENERGY: 4000 4.3161 5.0627 5.6688 0.2469 -18970.2636 1983.5226 0.0000 0.0000 3239.9734 -13731.4731 296.4416 -16971.4465 -13725.6570 296.0277 -5.1007 -4.5272 655448.3118 -0.5494 -0.5438
ENERGY: 5000 3.3860 8.1836 8.6811 0.5813 -18954.0480 1978.5427 0.0000 0.0000 3337.2368 -13617.4364 305.3407 -16954.6733 -13611.9033 298.4079 2.4273 1.9865 665998.7402 2.2565 2.2780
TCL: Running FEP window   7: Lambda1 0.625  Lambda2 0.5625 [dLambda -0.0625]
TCL: Setting parameter firsttimestep to 0
TCL: Setting parameter alchLambda to 0.625
Info: NONBONDED TABLE R-SQUARED SPACING: 0.0625
Info: NONBONDED TABLE SIZE: 769 POINTS
TCL: Setting parameter alchLambda2 to 0.5625
Info: NONBONDED TABLE R-SQUARED SPACING: 0.0625
Info: NONBONDED TABLE SIZE: 769 POINTS
TCL: Running for 5000 steps
ETITLE: TS BOND ANGLE DIHED IMPRP ELECT VDW BOUNDARY MISC KINETIC TOTAL TEMP POTENTIAL TOTAL3 TEMPAVG PRESSURE GPRESSURE VOLUME PRESSAVG GPRESSAVG
ENERGY: 0 3.3860 8.1836 8.6811 0.5813 -18953.7975 1978.6243 0.0000 0.0000 3337.1373 -13617.2039 305.3316 -16954.3412 -13611.0391 305.3316 1.0577 1.0222 665998.7402 1.0577 1.0222
ENERGY: 1000 2.8580 9.4652 3.8008 0.4590 -18897.8872 2022.6178 0.0000 0.0000 3292.7760 -13565.9104 301.2728 -16858.6864 -13558.5880 300.8889 19.6205 19.4856 687325.1350 1.9296 1.9012
ENERGY: 2000 2.8321 3.4556 6.9885 0.7035 -18873.5175 1968.7620 0.0000 0.0000 3292.1455 -13598.6304 301.2151 -16890.7759 -13591.2430 301.8895 10.4635 10.2154 688028.8500 1.2930 1.2978
ENERGY: 3000 5.0679 6.3704 6.8424 0.2538 -18985.8742 2092.4418 0.0000 0.0000 3216.7884 -13658.1094 294.3203 -16874.8978 -13651.3264 300.9419 37.3654 38.3301 680081.6920 1.4421 1.4208
ENERGY: 4000 3.3531 7.8521 4.0214 0.5926 -18933.4464 1990.1973 0.0000 0.0000 3270.7377 -13656.6924 299.2564 -16927.4300 -13650.6729 298.8572 6.7676 6.6862 669987.2061 0.8526 0.8525
ENERGY: 5000 3.2017 8.4369 4.8637 0.2593 -18875.2528 1961.6213 0.0000 0.0000 3326.7264 -13570.1435 304.3791 -16896.8700 -13563.7799 299.3437 -18.5594 -18.5479 669499.0325 1.0648 1.1018
TCL: Running FEP window   8: Lambda1 0.5625 Lambda2 0.5    [dLambda -0.0625]
TCL: Setting parameter firsttimestep to 0
TCL: Setting parameter alchLambda to 0.5625
Info: NONBONDED TABLE R-SQUARED SPACING: 0.0625
Info: NONBONDED TABLE SIZE: 769 POINTS
TCL: Setting parameter alchLambda2 to 0.5
Info: NONBONDED TABLE R-SQUARED SPACING: 0.0625
Info: NONBONDED TABLE SIZE: 769 POINTS
TCL: Running for 5000 steps
ETITLE: TS BOND ANGLE DIHED IMPRP ELECT VDW BOUNDARY MISC KINETIC TOTAL TEMP POTENTIAL TOTAL3 TEMPAVG PRESSURE GPRESSURE VOLUME PRESSAVG GPRESSAVG
ENERGY: 0 3.2017 8.4369 4.8637 0.2593 -18876.5589 1960.5651 0.0000 0.0000 3326.6235 -13572.6088 304.3697 -16899.2323 -13566.8094 304.3697 -19.9163 -19.7746 669499.0325 -19.9163 -19.7746
ENERGY: 1000 4.3570 9.3922 5.2849 0.5774 -18892.8367 1966.9831 0.0000 0.0000 3287.7713 -13618.4708 300.8149 -16906.2421 -13610.9337 299.7641 -6.5481 -6.4714 654802.3343 -0.2137 -0.2657
ENERGY: 2000 5.2961 11.1521 3.5355 0.5406 -18872.3879 1935.4767 0.0000 0.0000 3293.5843 -13622.8026 301.3467 -16916.3869 -13615.9511 299.0256 -21.2301 -20.8015 657280.8082 1.4904 1.4916
ENERGY: 3000 4.0356 8.7572 3.1742 0.4927 -18852.8373 1996.3892 0.0000 0.0000 3226.7185 -13613.2699 295.2288 -16839.9884 -13606.7047 298.8181 15.4842 15.8596 668665.3873 -0.7894 -0.7797
ENERGY: 4000 1.6714 8.2001 4.7617 0.8425 -18786.0142 1885.5764 0.0000 0.0000 3250.1170 -13634.8451 297.3697 -16884.9621 -13627.4386 297.9137 -28.8442 -27.9213 658968.3180 0.7555 0.7842
ENERGY: 5000 3.5635 8.9052 3.6445 1.0362 -19068.5363 2136.9126 0.0000 0.0000 3263.3498 -13651.1246 298.5804 -16914.4745 -13642.5785 300.1862 47.8724 48.4759 663865.4142 0.3779 0.3755
TCL: Running FEP window   9: Lambda1 0.5    Lambda2 0.4375 [dLambda -0.0625]
TCL: Setting parameter firsttimestep to 0
TCL: Setting parameter alchLambda to 0.5
Info: NONBONDED TABLE R-SQUARED SPACING: 0.0625
Info: NONBONDED TABLE SIZE: 769 POINTS
TCL: Setting parameter alchLambda2 to 0.4375
Info: NONBONDED TABLE R-SQUARED SPACING: 0.0625
Info: NONBONDED TABLE SIZE: 769 POINTS
TCL: Running for 5000 steps
ETITLE: TS BOND ANGLE DIHED IMPRP ELECT VDW BOUNDARY MISC KINETIC TOTAL TEMP POTENTIAL TOTAL3 TEMPAVG PRESSURE GPRESSURE VOLUME PRESSAVG GPRESSAVG
ENERGY: 0 3.5635 8.9052 3.6445 1.0362 -19070.3329 2138.0062 0.0000 0.0000 3263.2463 -13651.9312 298.5710 -16915.1775 -13645.5862 298.5710 48.1413 48.2267 663865.4142 48.1413 48.2267
ENERGY: 1000 1.3110 9.9396 5.5015 0.5651 -18901.7530 2026.4448 0.0000 0.0000 3252.3699 -13605.6211 297.5758 -16857.9909 -13599.3604 297.8523 13.1390 13.4321 668264.6297 1.2315 1.2185
ENERGY: 2000 4.8510 4.0116 4.9990 0.8853 -18909.8483 1981.0548 0.0000 0.0000 3317.7427 -13596.3038 303.5571 -16914.0465 -13589.3964 300.1990 3.5417 3.8020 657156.6515 -0.2429 -0.2154
ENERGY: 3000 3.8530 6.3961 5.9390 0.8491 -18894.1782 1976.1543 0.0000 0.0000 3285.8532 -13615.1335 300.6394 -16900.9867 -13606.2162 299.3375 3.0514 2.6459 644389.9061 1.3397 1.3337
ENERGY: 4000 5.0682 9.9180 3.5921 0.5256 -19026.1531 2077.5740 0.0000 0.0000 3285.3860 -13644.0892 300.5966 -16929.4752 -13637.6056 301.9676 35.0995 35.1106 648290.3201 0.8595 0.8729
ENERGY: 5000 4.5499 5.2935 5.0763 0.2838 -19041.5594 2059.0062 0.0000 0.0000 3278.9619 -13688.3878 300.0088 -16967.3497 -13682.6360 298.5134 46.3225 45.8475 651450.2816 2.6037 2.6177
TCL: Running FEP window  10: Lambda1 0.4375 Lambda2 0.375  [dLambda -0.0625]
TCL: Setting parameter firsttimestep to 0
TCL: Setting parameter alchLambda to 0.4375
Info: NONBONDED TABLE R-SQUARED SPACING: 0.0625
Info: NONBONDED TABLE SIZE: 769 POINTS
TCL: Setting parameter alchLambda2 to 0.375
Info: NONBONDED TABLE R-SQUARED SPACING: 0.0625
Info: NONBONDED TABLE SIZE: 769 POINTS
TCL: Running for 5000 steps
ETITLE: TS BOND ANGLE DIHED IMPRP ELECT VDW BOUNDARY MISC KINETIC TOTAL TEMP POTENTIAL TOTAL3 TEMPAVG PRESSURE GPRESSURE VOLUME PRESSAVG GPRESSAVG
ENERGY: 0 4.5499 5.2935 5.0763 0.2838 -19041.5594 2059.1112 0.0000 0.0000 3278.8616 -13688.3830 299.9997 -16967.2447 -13681.7314 299.9997 45.0960 45.0729 651450.2816 45.0960 45.0729
ENERGY: 1000 2.4568 3.7869 5.5114 0.7130 -18934.6746 2034.6384 0.0000 0.0000 3203.5693 -13683.9988 293.1108 -16887.5680 -13679.2707 297.6474 10.3713 10.8449 672414.7396 0.6441 0.6171
ENERGY: 2000 6.3778 7.5820 5.2038 0.8137 -18962.4268 1982.9313 0.0000 0.0000 3267.0996 -13692.4186 298.9235 -16959.5182 -13685.8496 297.7029 5.7914 6.0821 687180.1772 2.0678 2.0924
ENERGY: 3000 3.9035 5.2375 4.6098 0.6875 -18946.0215 2012.5634 0.0000 0.0000 3291.5984 -13627.4214 301.1650 -16919.0197 -13621.0170 299.3990 -3.0818 -2.9674 701549.9483 1.8567 1.8442
ENERGY: 4000 3.8354 7.8366 4.5453 0.3195 -18976.7669 1943.2267 0.0000 0.0000 3251.5070 -13765.4964 297.4969 -17017.0034 -13760.8759 296.0711 -32.1065 -32.0090 693751.7220 1.7759 1.7851
ENERGY: 5000 3.7894 5.4795 1.9349 0.1803 -19049.4544 2044.8069 0.0000 0.0000 3266.9716 -13726.2919 298.9118 -16993.2635 -13719.2267 296.8518 16.0238 15.8684 690697.6132 2.3794 2.3800
TCL: Running FEP window  11: Lambda1 0.375  Lambda2 0.3125 [dLambda -0.0625]
TCL: Setting parameter firsttimestep to 0
TCL: Setting parameter alchLambda to 0.375
Info: NONBONDED TABLE R-SQUARED SPACING: 0.0625
Info: NONBONDED TABLE SIZE: 769 POINTS
TCL: Setting parameter alchLambda2 to 0.3125
Info: NONBONDED TABLE R-SQUARED SPACING: 0.0625
Info: NONBONDED TABLE SIZE: 769 POINTS
TCL: Running for 5000 steps
ETITLE: TS BOND ANGLE DIHED IMPRP ELECT VDW BOUNDARY MISC KINETIC TOTAL TEMP POTENTIAL TOTAL3 TEMPAVG PRESSURE GPRESSURE VOLUME PRESSAVG GPRESSAVG
ENERGY: 0 3.7894 5.4795 1.9349 0.1803 -19049.4544 2044.7832 0.0000 0.0000 3266.8671 -13726.4201 298.9022 -16993.2872 -13719.0558 298.9022 15.2236 15.3059 690697.6132 15.2236 15.3059
ENERGY: 1000 4.3276 4.8683 1.5517 0.0608 -18963.9408 1998.2582 0.0000 0.0000 3260.2804 -13694.5937 298.2996 -16954.8741 -13686.2898 299.1670 1.9769 2.3285 692918.6273 0.9384 0.9165
ENERGY: 2000 4.6294 8.4447 5.2191 0.7567 -18809.2785 1897.4306 0.0000 0.0000 3210.3068 -13682.4911 293.7272 -16892.7979 -13676.3576 298.1251 -40.6232 -39.8899 678702.8745 0.2297 0.2089
ENERGY: 3000 3.1033 10.1269 5.0930 0.3533 -18996.3063 1963.7842 0.0000 0.0000 3194.4700 -13819.3756 292.2783 -17013.8456 -13811.6676 292.3744 -16.6031 -16.7586 641297.0640 1.2517 1.2283
ENERGY: 4000 7.6476 6.4781 7.2674 0.7524 -18934.1491 1942.9343 0.0000 0.0000 3264.9332 -13704.1361 298.7253 -16969.0693 -13698.4706 296.3874 -32.4402 -32.8947 636653.4640 0.5101 0.5402
ENERGY: 5000 2.8358 4.6754 3.9893 0.7392 -18942.1308 1906.2858 0.0000 0.0000 3234.7131 -13788.8922 295.9603 -17023.6053 -13782.0905 293.2811 -28.9933 -29.1034 625042.0970 -0.4737 -0.4989
TCL: Running FEP window  12: Lambda1 0.3125 Lambda2 0.25   [dLambda -0.0625]
TCL: Setting parameter firsttimestep to 0
TCL: Setting parameter alchLambda to 0.3125
Info: NONBONDED TABLE R-SQUARED SPACING: 0.0625
Info: NONBONDED TABLE SIZE: 769 POINTS
TCL: Setting parameter alchLambda2 to 0.25
Info: NONBONDED TABLE R-SQUARED SPACING: 0.0625
Info: NONBONDED TABLE SIZE: 769 POINTS
TCL: Running for 5000 steps
ETITLE: TS BOND ANGLE DIHED IMPRP ELECT VDW BOUNDARY MISC KINETIC TOTAL TEMP POTENTIAL TOTAL3 TEMPAVG PRESSURE GPRESSURE VOLUME PRESSAVG GPRESSAVG
ENERGY: 0 2.8358 4.6754 3.9893 0.7392 -18942.1308 1905.9677 0.0000 0.0000 3234.6117 -13789.3117 295.9510 -17023.9234 -13782.3064 295.9510 -29.7436 -29.8002 625042.0970 -29.7436 -29.8002
ENERGY: 1000 2.9409 11.5569 4.2674 1.2699 -19057.7438 2110.3220 0.0000 0.0000 3174.5680 -13752.8186 290.4573 -16927.3866 -13746.1708 296.9443 35.9421 35.6727 666073.4341 0.6253 0.6429
ENERGY: 2000 5.4280 9.7763 3.0235 0.3406 -18909.0822 1981.8937 0.0000 0.0000 3236.7975 -13671.8228 296.1510 -16908.6202 -13663.2331 298.0849 11.0685 10.9725 680748.4495 3.0935 3.0860
ENERGY: 3000 4.4364 15.8273 5.7652 0.4393 -18852.8273 1903.3995 0.0000 0.0000 3216.9390 -13706.0207 294.3341 -16922.9597 -13700.4242 296.6598 -27.2622 -26.6677 689158.0105 0.5052 0.5226
ENERGY: 4000 4.6668 8.8146 4.4427 1.4453 -18900.8088 1921.1125 0.0000 0.0000 3262.2965 -13698.0304 298.4841 -16960.3269 -13691.7194 297.1088 -30.2444 -30.1224 681711.2508 1.9325 1.9332
ENERGY: 5000 2.7067 9.2494 3.8838 0.7834 -18987.3291 1999.2487 0.0000 0.0000 3253.7403 -13717.7167 297.7012 -16971.4570 -13712.5888 298.2684 14.4502 14.1841 657704.7428 1.1055 1.0839
TCL: Running FEP window  13: Lambda1 0.25   Lambda2 0.1875 [dLambda -0.0625]
TCL: Setting parameter firsttimestep to 0
TCL: Setting parameter alchLambda to 0.25
Info: NONBONDED TABLE R-SQUARED SPACING: 0.0625
Info: NONBONDED TABLE SIZE: 769 POINTS
TCL: Setting parameter alchLambda2 to 0.1875
Info: NONBONDED TABLE R-SQUARED SPACING: 0.0625
Info: NONBONDED TABLE SIZE: 769 POINTS
TCL: Running for 5000 steps
ETITLE: TS BOND ANGLE DIHED IMPRP ELECT VDW BOUNDARY MISC KINETIC TOTAL TEMP POTENTIAL TOTAL3 TEMPAVG PRESSURE GPRESSURE VOLUME PRESSAVG GPRESSAVG
ENERGY: 0 2.7067 9.2494 3.8838 0.7834 -18987.3291 1999.6786 0.0000 0.0000 3253.6451 -13717.3820 297.6925 -16971.0272 -13711.2982 297.6925 13.9596 13.7360 657704.7428 13.9596 13.7360
ENERGY: 1000 6.3092 8.9965 1.6663 0.3187 -19060.5597 2002.8350 0.0000 0.0000 3296.6508 -13743.7832 301.6273 -17040.4340 -13737.6391 296.4683 -0.3351 -0.2182 641238.8321 1.5544 1.5654
ENERGY: 2000 2.6996 7.3461 2.8773 0.3901 -18930.0946 1991.4950 0.0000 0.0000 3197.0622 -13728.2243 292.5154 -16925.2865 -13722.3191 295.2603 13.5258 13.1239 637052.9336 0.1086 0.1096
ENERGY: 3000 5.2778 7.3156 3.8895 0.7450 -19137.6041 2062.5816 0.0000 0.0000 3260.9467 -13796.8479 298.3606 -17057.7947 -13791.0796 293.9883 51.1313 51.3242 612125.7634 1.9940 2.0295
ENERGY: 4000 4.0574 14.0566 4.1058 0.5474 -18937.3678 1926.5998 0.0000 0.0000 3231.2863 -13756.7144 295.6468 -16988.0008 -13750.2853 293.7773 -29.6349 -29.5930 618982.1040 1.3264 1.3507
ENERGY: 5000 4.1302 9.2785 3.1246 0.9610 -19056.7974 1967.1533 0.0000 0.0000 3225.0960 -13847.0538 295.0804 -17072.1498 -13842.5094 296.8786 -11.0240 -10.9276 625363.4857 -0.5232 -0.5539
TCL: Running FEP window  14: Lambda1 0.1875 Lambda2 0.125  [dLambda -0.0625]
TCL: Setting parameter firsttimestep to 0
TCL: Setting parameter alchLambda to 0.1875
Info: NONBONDED TABLE R-SQUARED SPACING: 0.0625
Info: NONBONDED TABLE SIZE: 769 POINTS
TCL: Setting parameter alchLambda2 to 0.125
Info: NONBONDED TABLE R-SQUARED SPACING: 0.0625
Info: NONBONDED TABLE SIZE: 769 POINTS
TCL: Running for 5000 steps
ETITLE: TS BOND ANGLE DIHED IMPRP ELECT VDW BOUNDARY MISC KINETIC TOTAL TEMP POTENTIAL TOTAL3 TEMPAVG PRESSURE GPRESSURE VOLUME PRESSAVG GPRESSAVG
ENERGY: 0 4.1302 9.2785 3.1246 0.9610 -19056.7974 1968.3608 0.0000 0.0000 3224.9974 -13845.9448 295.0714 -17070.9423 -13839.5389 295.0714 -11.0811 -11.1530 625363.4857 -11.0811 -11.1530
ENERGY: 1000 4.4934 5.7669 4.9281 0.5168 -19246.1695 2141.6705 0.0000 0.0000 3255.1379 -13833.6559 297.8291 -17088.7937 -13826.9650 294.7857 47.7155 48.3112 637741.8091 0.6376 0.6257
ENERGY: 2000 3.1800 6.1322 6.6827 0.8477 -19130.7032 2047.0800 0.0000 0.0000 3229.4986 -13837.2821 295.4832 -17066.7807 -13830.3914 292.8603 18.1892 17.8708 621113.2620 1.4624 1.4274
ENERGY: 3000 6.5702 8.2220 3.4368 0.6290 -19060.1438 2051.8983 0.0000 0.0000 3201.6034 -13787.7842 292.9309 -16989.3875 -13781.8630 294.6210 33.6139 33.1674 598930.4247 0.2710 0.2893
ENERGY: 4000 6.0169 5.8873 2.2131 0.2139 -19021.6105 1998.9679 0.0000 0.0000 3195.1217 -13813.1897 292.3379 -17008.3114 -13806.2800 293.3411 -5.9172 -5.7419 591650.3462 0.7474 0.7520
ENERGY: 5000 4.6058 6.5442 3.6599 0.2513 -19023.5148 2093.4209 0.0000 0.0000 3226.8053 -13688.2275 295.2368 -16915.0328 -13684.0041 299.0072 32.8242 32.8667 567886.0374 1.1291 1.1161
TCL: Running FEP window  15: Lambda1 0.125  Lambda2 0.0625 [dLambda -0.0625]
TCL: Setting parameter firsttimestep to 0
TCL: Setting parameter alchLambda to 0.125
Info: NONBONDED TABLE R-SQUARED SPACING: 0.0625
Info: NONBONDED TABLE SIZE: 769 POINTS
TCL: Setting parameter alchLambda2 to 0.0625
Info: NONBONDED TABLE R-SQUARED SPACING: 0.0625
Info: NONBONDED TABLE SIZE: 769 POINTS
TCL: Running for 5000 steps
ETITLE: TS BOND ANGLE DIHED IMPRP ELECT VDW BOUNDARY MISC KINETIC TOTAL TEMP POTENTIAL TOTAL3 TEMPAVG PRESSURE GPRESSURE VOLUME PRESSAVG GPRESSAVG
ENERGY: 0 4.6058 6.5442 3.6599 0.2513 -19023.5148 2093.0013 0.0000 0.0000 3226.7063 -13688.7461 295.2277 -16915.4524 -13682.4473 295.2277 32.4186 32.4622 567886.0374 32.4186 32.4622
ENERGY: 1000 2.5452 6.7455 2.0217 0.4672 -18872.9283 1999.8871 0.0000 0.0000 3244.9507 -13616.3110 296.8970 -16861.2617 -13611.2177 298.5553 21.5352 21.3724 550466.4576 -1.0581 -1.0884
ENERGY: 2000 3.5146 9.5523 3.7076 0.2827 -18927.2575 1923.7242 0.0000 0.0000 3271.6834 -13714.7927 299.3429 -16986.4761 -13708.9975 298.3276 -40.4760 -40.7685 540288.6768 1.4930 1.5465
ENERGY: 3000 6.6787 8.2586 5.6303 0.4292 -18903.0716 1932.5353 0.0000 0.0000 3238.3170 -13711.2225 296.2900 -16949.5395 -13704.1377 298.8581 -38.0611 -37.6541 537055.3979 2.7189 2.6844
ENERGY: 4000 4.8935 10.6687 6.1591 0.2720 -19088.6118 2059.6590 0.0000 0.0000 3302.7841 -13704.1754 302.1885 -17006.9595 -13699.0286 300.7274 39.0927 38.7973 526148.8825 1.1973 1.1831
ENERGY: 5000 6.5911 6.7600 6.5780 0.6144 -18855.4333 1997.8777 0.0000 0.0000 3194.4791 -13642.5331 292.2791 -16837.0122 -13637.7411 300.2596 -10.5138 -10.1813 542914.4695 2.8291 2.8257
TCL: Running FEP window  16: Lambda1 0.0625 Lambda2 0.0    [dLambda -0.0625]
TCL: Setting parameter firsttimestep to 0
TCL: Setting parameter alchLambda to 0.0625
Info: NONBONDED TABLE R-SQUARED SPACING: 0.0625
Info: NONBONDED TABLE SIZE: 769 POINTS
TCL: Setting parameter alchLambda2 to 0.0
Info: NONBONDED TABLE R-SQUARED SPACING: 0.0625
Info: NONBONDED TABLE SIZE: 769 POINTS
TCL: Running for 5000 steps
ETITLE: TS BOND ANGLE DIHED IMPRP ELECT VDW BOUNDARY MISC KINETIC TOTAL TEMP POTENTIAL TOTAL3 TEMPAVG PRESSURE GPRESSURE VOLUME PRESSAVG GPRESSAVG
ENERGY: 0 6.5911 6.7600 6.5780 0.6144 -18855.4333 1997.5256 0.0000 0.0000 3194.3836 -13642.9808 292.2704 -16837.3644 -13637.4610 292.2704 -10.4119 -10.4492 542914.4695 -10.4119 -10.4492
ENERGY: 1000 5.7821 7.2783 5.2961 0.6830 -19028.0714 2014.8733 0.0000 0.0000 3296.9061 -13697.2525 301.6507 -16994.1586 -13692.5319 299.8202 0.1537 0.5944 550446.9058 1.4568 1.4427
ENERGY: 2000 4.2763 8.3041 5.6604 0.5503 -19068.8332 2079.5849 0.0000 0.0000 3314.8719 -13655.5853 303.2944 -16970.4571 -13648.9039 300.5673 46.6730 46.8837 565387.2629 1.3579 1.3519
ENERGY: 3000 4.6796 11.2120 2.4084 0.5162 -19003.6978 2009.0928 0.0000 0.0000 3262.5484 -13713.2404 298.5071 -16975.7888 -13706.6487 297.2623 24.6358 25.9261 562773.1898 0.5849 0.5830
ENERGY: 4000 4.1398 6.7204 2.4923 0.8464 -19040.9305 2103.2581 0.0000 0.0000 3263.3083 -13660.1653 298.5766 -16923.4735 -13653.6667 297.1310 58.8419 58.5703 559002.5617 -0.3401 -0.3510
ENERGY: 5000 3.7029 6.4653 4.7771 0.7780 -18884.2794 1969.5402 0.0000 0.0000 3214.9006 -13684.1153 294.1476 -16899.0159 -13677.6060 297.5786 -4.5035 -4.5199 548233.9200 0.6197 0.5883
