Info: SIMULATION PARAMETERS:
Info: TIMESTEP               2
Info: NUMBER OF STEPS        0
Info: STEPS PER CYCLE        10
Info: PERIODIC CELL BASIS 1  89.3603 0 0
Info: PERIODIC CELL BASIS 2  0 89.3603 0
Info: PERIODIC CELL BASIS 3  0 0 89.3603
Info: PERIODIC CELL CENTER   39.178 39.178 39.178
Info: WRAPPING ALL CLUSTERS AROUND PERIODIC BOUNDARIES ON OUTPUT.
Info: FIRST LDB TIMESTEP     50
Info: LAST LDB TIMESTEP     -1
Info: HOM BACKGROUND SCALING 1
Info: PME BACKGROUND SCALING 1
Info: MIN ATOMS PER PATCH    40
Info: EMPTY PATCH LOAD       40 ATOMS
Info: VELOCITY FILE          mobley_7415647_equilibrated.vel
Info: CENTER OF MASS MOVING INITIALLY? NO
Info: DIELECTRIC             1
Info: EXCLUDE                SCALED ONE-FOUR
Info: 1-4 ELECTROSTATICS SCALED BY 1
Info: MODIFIED 1-4 VDW PARAMETERS WILL BE USED
Info: DCD FILENAME           mobley_7415647_forwards.dcd
Info: DCD FREQUENCY          500
Info: DCD FIRST STEP         500
Info: DCD FILE WILL CONTAIN UNIT CELL DATA
Info: NO EXTENDED SYSTEM TRAJECTORY OUTPUT
Info: NO VELOCITY DCD OUTPUT
Info: NO FORCE DCD OUTPUT
Info: OUTPUT FILENAME        mobley_7415647_forwards
Info: BINARY OUTPUT FILES WILL BE USED
Info: NO RESTART FILE
Info: SWITCHING ACTIVE
Info: SWITCHING ON           10
Info: SWITCHING OFF          12
Info: PAIRLIST DISTANCE      14
Info: PAIRLIST SHRINK RATE   0.01
Info: PAIRLIST GROW RATE     0.01
Info: PAIRLIST TRIGGER       0.3
Info: PAIRLISTS PER CYCLE    2
Info: PAIRLISTS ENABLED
Info: MARGIN                 8
Info: HYDROGEN GROUP CUTOFF  2.5
Info: PATCH DIMENSION        24.5
Info: ENERGY OUTPUT STEPS    500
Info: ENERGY EVALUATION STEPS    500
Info: OUTPUT ENERGY PRECISION 4
Info: CROSSTERM ENERGY INCLUDED IN DIHEDRAL
Info: TIMING OUTPUT STEPS    500
Info: PRESSURE OUTPUT STEPS  500
Info: ALCHEMICAL FEP ON
Info: FEP CURRENT LAMBDA VALUE     0
Info: FEP COMPARISON LAMBDA VALUE  0.0625
Info: FEP INTRA-ALCHEMICAL NON-BONDED INTERACTIONS WILL BE DECOUPLED
Info: FEP INTRA-ALCHEMICAL BONDED INTERACTIONS WILL BE RETAINED
Info: FEP VDW SHIFTING COEFFICIENT 6
Info: FEP ELEC. ACTIVE FOR ANNIHILATED PARTICLES BETWEEN LAMBDA = 0 AND LAMBDA = 0.5
Info: FEP ELEC. ACTIVE FOR EXNIHILATED PARTICLES BETWEEN LAMBDA = 0.5 AND LAMBDA = 1
Info: FEP VDW ACTIVE FOR ANNIHILATED PARTICLES BETWEEN LAMBDA = 0 AND LAMBDA = 1
Info: FEP VDW ACTIVE FOR EXNIHILATED PARTICLES BETWEEN LAMBDA = 0 AND LAMBDA = 1
Info: FEP BOND ACTIVE FOR ANNIHILATED PARTICLES BETWEEN LAMBDA = 1 AND LAMBDA = 1
Info: FEP BOND ACTIVE FOR EXNIHILATED PARTICLES BETWEEN LAMBDA = 0 AND LAMBDA = 0
Info: LANGEVIN DYNAMICS ACTIVE
Info: LANGEVIN TEMPERATURE   298
Info: LANGEVIN USING BBK INTEGRATOR
Info: LANGEVIN DAMPING COEFFICIENT IS 1 INVERSE PS
Info: LANGEVIN DYNAMICS NOT APPLIED TO HYDROGENS
Info: LANGEVIN PISTON PRESSURE CONTROL ACTIVE
Info:        TARGET PRESSURE IS 1.01325 BAR
Info:     OSCILLATION PERIOD IS 100 FS
Info:             DECAY TIME IS 50 FS
Info:     PISTON TEMPERATURE IS 298 K
Info:       PRESSURE CONTROL IS GROUP-BASED
Info:    INITIAL STRAIN RATE IS -8.77393e-05 -8.77393e-05 -8.77393e-05
Info:       CELL FLUCTUATION IS ISOTROPIC
Info: PARTICLE MESH EWALD (PME) ACTIVE
Info: PME TOLERANCE               1e-05
Info: PME EWALD COEFFICIENT       0.226635
Info: PME INTERPOLATION ORDER     4
Info: PME GRID DIMENSIONS         96 96 96
Info: PME MAXIMUM GRID SPACING    1
Info: FULL ELECTROSTATIC EVALUATION FREQUENCY      1
Info: USING VERLET I (r-RESPA) MTS SCHEME.
Info: C1 SPLITTING OF LONG RANGE ELECTROSTATICS
Info: PLACING ATOMS IN PATCHES BY HYDROGEN GROUPS
Info: RIGID BONDS TO HYDROGEN : ALL
Info:         ERROR TOLERANCE : 1e-08
Info:          MAX ITERATIONS : 100
Info: RIGID WATER USING SETTLE ALGORITHM
Info: RANDOM NUMBER SEED     1740649502
Info: USE HYDROGEN BONDS?    NO
Info: COORDINATE PDB         mobley_7415647.pdb
Info: STRUCTURE FILE         mobley_7415647.psf
Info: PARAMETER file: CHARMM format!
Info: PARAMETERS             ../common/par_all27_prot_lipid.inp
Info: PARAMETERS             mobley_7415647.prm
Info: USING ARITHMETIC MEAN TO COMBINE L-J SIGMA PARAMETERS
Info: BINARY COORDINATES     mobley_7415647_equilibrated.coor
Info: SUMMARY OF PARAMETERS:
Info: 189 BONDS
Info: 460 ANGLES
Info: 580 DIHEDRAL
Info: 51 IMPROPER
Info: 6 CROSSTERM
Info: 127 VDW
Info: 0 VDW_PAIRS
Info: 0 NBTHOLE_PAIRS
Info: To read alchdata from file: mobley_7415647.pdb
Info: To read alchflag data from column: 5
Info: STRUCTURE SUMMARY:
Info: 5493 ATOMS
Info: 3670 BONDS
Info: 1862 ANGLES
Info: 48 DIHEDRALS
Info: 8 IMPROPERS
Info: 0 CROSSTERMS
Info: 0 EXCLUSIONS
Info: 5479 RIGID BONDS
Info: ALCH: 0 ATOMS TO DISAPPEAR IN FINAL STATE
Info: ALCH: 24 ATOMS TO APPEAR IN FINAL STATE
Info: 11000 DEGREES OF FREEDOM
Info: 1837 HYDROGEN GROUPS
Info: 4 ATOMS IN LARGEST HYDROGEN GROUP
Info: 1837 MIGRATION GROUPS
Info: 4 ATOMS IN LARGEST MIGRATION GROUP
Info: TOTAL MASS = 33036.3 amu
Info: TOTAL CHARGE = -4.47035e-08 e
Info: MASS DENSITY = 0.0768805 g/cm^3
Info: ATOM DENSITY = 0.00769796 atoms/A^3
Info: ADDED 5577 IMPLICIT EXCLUSIONS
Info: NONBONDED TABLE R-SQUARED SPACING: 0.0625
Info: NONBONDED TABLE SIZE: 769 POINTS
Info: REMOVING COM VELOCITY -0.0958642 0.0211153 -0.129526
TCL: Running for 5000 steps
ETITLE: TS BOND ANGLE DIHED IMPRP ELECT VDW BOUNDARY MISC KINETIC TOTAL TEMP POTENTIAL TOTAL3 TEMPAVG PRESSURE GPRESSURE VOLUME PRESSAVG GPRESSAVG
ENERGY: 0 7.6531 10.5094 10.6965 0.1764 -19008.2141 2045.0805 0.0000 0.0000 3209.2217 -13724.8765 293.6280 -16934.0982 -13718.5366 293.6280 -7.8779 -7.9281 713565.6674 -7.8779 -7.9281
ENERGY: 1000 1.6416 10.1875 4.5203 1.0712 -18770.2901 1884.2693 0.0000 0.0000 3290.8448 -13577.7552 301.0961 -16868.6001 -13572.1044 299.1676 -45.4712 -45.7969 742664.5056 0.1732 0.1941
ENERGY: 2000 4.1974 8.7299 2.4875 0.1684 -18836.1961 2057.3896 0.0000 0.0000 3306.4706 -13456.7527 302.5258 -16763.2233 -13450.1174 301.9757 45.4002 46.0490 721031.9881 1.2463 1.2619
ENERGY: 3000 4.3014 11.1279 2.9274 0.2295 -18787.9571 1959.4344 0.0000 0.0000 3303.9379 -13505.9986 302.2940 -16809.9366 -13500.5986 301.6905 -16.0468 -16.9992 735858.6840 -0.0191 -0.0053
ENERGY: 4000 7.6972 4.6758 2.7289 0.3987 -19022.6691 2060.1372 0.0000 0.0000 3381.4236 -13565.6076 309.3836 -16947.0312 -13560.0090 301.0909 4.8021 4.6750 723562.3939 0.0411 0.0434
ENERGY: 5000 3.2659 5.7387 5.2049 0.5004 -18937.9562 2010.9494 0.0000 0.0000 3264.0354 -13648.2616 298.6432 -16912.2970 -13640.4250 298.5298 2.4899 2.5740 696783.7066 1.2987 1.2863
TCL: Running FEP window   2: Lambda1 0.0625 Lambda2 0.125  [dLambda 0.0625]
TCL: Setting parameter firsttimestep to 0
TCL: Setting parameter alchLambda to 0.0625
Info: NONBONDED TABLE R-SQUARED SPACING: 0.0625
Info: NONBONDED TABLE SIZE: 769 POINTS
TCL: Setting parameter alchLambda2 to 0.125
Info: NONBONDED TABLE R-SQUARED SPACING: 0.0625
Info: NONBONDED TABLE SIZE: 769 POINTS
TCL: Running for 5000 steps
ETITLE: TS BOND ANGLE DIHED IMPRP ELECT VDW BOUNDARY MISC KINETIC TOTAL TEMP POTENTIAL TOTAL3 TEMPAVG PRESSURE GPRESSURE VOLUME PRESSAVG GPRESSAVG
ENERGY: 0 3.2659 5.7387 5.2049 0.5004 -18937.9562 2012.8397 0.0000 0.0000 3263.9318 -13646.4749 298.6337 -16910.4067 -13639.9807 298.6337 2.8198 2.7852 696783.7066 2.8198 2.7852
ENERGY: 1000 7.9988 6.3230 3.0814 0.2787 -19010.8232 2083.1404 0.0000 0.0000 3284.4755 -13625.5254 300.5133 -16910.0009 -13620.4830 297.2415 21.4014 21.5335 697209.4018 2.4569 2.4570
ENERGY: 2000 3.0671 11.8850 2.6035 0.2533 -19012.1551 1979.5194 0.0000 0.0000 3316.0191 -13698.8078 303.3994 -17014.8269 -13692.5483 299.4644 -19.8363 -19.7659 677195.7074 0.9295 0.9176
ENERGY: 3000 4.8358 8.6999 3.2211 0.4340 -18868.4204 1940.4128 0.0000 0.0000 3170.1006 -13740.7161 290.0486 -16910.8168 -13736.6421 295.5043 -12.5024 -11.7623 688024.9529 1.4764 1.4747
ENERGY: 4000 3.0012 9.8585 5.1808 0.8369 -18839.8664 1881.5634 0.0000 0.0000 3212.5527 -13726.8727 293.9327 -16939.4255 -13722.5852 296.4780 -47.0345 -47.0852 715445.7715 0.3757 0.3765
ENERGY: 5000 3.9000 7.8188 6.6382 0.3782 -18914.6227 2006.2816 0.0000 0.0000 3232.2229 -13657.3829 295.7325 -16889.6058 -13650.0000 297.9817 12.2098 12.3286 680437.7273 0.9981 1.0100
TCL: Running FEP window   3: Lambda1 0.125  Lambda2 0.1875 [dLambda 0.0625]
TCL: Setting parameter firsttimestep to 0
TCL: Setting parameter alchLambda to 0.125
Info: NONBONDED TABLE R-SQUARED SPACING: 0.0625
Info: NONBONDED TABLE SIZE: 769 POINTS
TCL: Setting parameter alchLambda2 to 0.1875
Info: NONBONDED TABLE R-SQUARED SPACING: 0.0625
Info: NONBONDED TABLE SIZE: 769 POINTS
TCL: Running for 5000 steps
ETITLE: TS BOND ANGLE DIHED IMPRP ELECT VDW BOUNDARY MISC KINETIC TOTAL TEMP POTENTIAL TOTAL3 TEMPAVG PRESSURE GPRESSURE VOLUME PRESSAVG GPRESSAVG
ENERGY: 0 3.9000 7.8188 6.6382 0.3782 -18914.6227 2010.6280 0.0000 0.0000 3232.1231 -13653.1364 295.7233 -16885.2595 -13647.0306 295.7233 12.9718 12.8813 680437.7273 12.9718 12.8813
ENERGY: 1000 3.2750 7.7265 4.0208 0.9803 -18851.4824 1975.9710 0.0000 0.0000 3259.2850 -13600.2237 298.2085 -16859.5088 -13593.7626 299.2436 7.8947 8.5373 653686.6887 -1.0188 -1.0076
ENERGY: 2000 4.2841 6.9052 4.7321 0.5389 -19044.1071 2079.6150 0.0000 0.0000 3275.0787 -13672.9531 299.6536 -16948.0319 -13667.0689 298.9144 32.3070 32.3476 640363.2106 -1.1653 -1.1926
ENERGY: 3000 3.4372 8.7380 2.8890 2.0267 -18982.5014 2026.0962 0.0000 0.0000 3184.1785 -13755.1358 291.3366 -16939.3143 -13749.0207 294.5887 15.0145 14.5307 632067.6829 0.5429 0.5250
ENERGY: 4000 3.2920 6.6628 3.7840 0.2935 -19043.3739 2046.8213 0.0000 0.0000 3275.6206 -13706.8998 299.7031 -16982.5204 -13699.6771 296.2409 13.5224 13.2869 637450.0604 1.1185 1.1092
ENERGY: 5000 2.1640 3.7018 2.3409 0.3943 -19120.4008 2088.3047 0.0000 0.0000 3297.8516 -13725.6435 301.7372 -17023.4951 -13719.0304 296.5605 40.6755 40.9130 604813.9263 2.7061 2.7127
TCL: Running FEP window   4: Lambda1 0.1875 Lambda2 0.25   [dLambda 0.0625]
TCL: Setting parameter firsttimestep to 0
TCL: Setting parameter alchLambda to 0.1875
Info: NONBONDED TABLE R-SQUARED SPACING: 0.0625
Info: NONBONDED TABLE SIZE: 769 POINTS
TCL: Setting parameter alchLambda2 to 0.25
Info: NONBONDED TABLE R-SQUARED SPACING: 0.0625
Info: NONBONDED TABLE SIZE: 769 POINTS
TCL: Running for 5000 steps
ETITLE: TS BOND ANGLE DIHED IMPRP ELECT VDW BOUNDARY MISC KINETIC TOTAL TEMP POTENTIAL TOTAL3 TEMPAVG PRESSURE GPRESSURE VOLUME PRESSAVG GPRESSAVG
ENERGY: 0 2.1640 3.7018 2.3409 0.3943 -19120.4008 2089.9224 0.0000 0.0000 3297.7530 -13724.1244 301.7281 -17021.8775 -13717.7573 301.7281 41.4921 41.4521 604813.9263 41.4921 41.4521
ENERGY: 1000 4.6504 9.0091 4.9315 0.3579 -19049.8977 2001.3448 0.0000 0.0000 3267.4117 -13762.1923 298.9521 -17029.6041 -13754.3757 295.8768 -10.1555 -9.8437 614335.6503 1.2319 1.2302
ENERGY: 2000 4.3451 5.5372 2.5757 0.2325 -19025.0742 2069.3629 0.0000 0.0000 3188.0427 -13754.9782 291.6902 -16943.0209 -13748.8222 293.4334 19.7108 20.4050 629032.7357 0.9709 0.9662
ENERGY: 3000 4.8128 6.1838 3.9699 0.4920 -19192.9545 2071.6410 0.0000 0.0000 3245.8761 -13859.9790 296.9817 -17105.8550 -13853.4925 294.3415 25.1934 24.9697 624908.8215 1.0398 1.0709
ENERGY: 4000 2.7901 9.6206 7.2280 0.4902 -19158.2899 2048.9918 0.0000 0.0000 3248.2096 -13840.9596 297.1952 -17089.1692 -13834.2187 293.5296 9.6983 10.2170 602981.9989 -0.1070 -0.1738
ENERGY: 5000 4.7064 5.0638 7.2302 0.8104 -18960.4617 1955.5439 0.0000 0.0000 3158.7775 -13828.3295 289.0126 -16987.1070 -13819.5939 293.5609 -27.2753 -27.9912 594153.5178 3.3987 3.3840
TCL: Running FEP window   5: Lambda1 0.25   Lambda2 0.3125 [dLambda 0.0625]
TCL: Setting parameter firsttimestep to 0
TCL: Setting parameter alchLambda to 0.25
Info: NONBONDED TABLE R-SQUARED SPACING: 0.0625
Info: NONBONDED TABLE SIZE: 769 POINTS
TCL: Setting parameter alchLambda2 to 0.3125
Info: NONBONDED TABLE R-SQUARED SPACING: 0.0625
Info: NONBONDED TABLE SIZE: 769 POINTS
TCL: Running for 5000 steps
ETITLE: TS BOND ANGLE DIHED IMPRP ELECT VDW BOUNDARY MISC KINETIC TOTAL TEMP POTENTIAL TOTAL3 TEMPAVG PRESSURE GPRESSURE VOLUME PRESSAVG GPRESSAVG
ENERGY: 0 4.7064 5.0638 7.2302 0.8104 -18960.4617 1958.9142 0.0000 0.0000 3158.6769 -13825.0598 289.0034 -16983.7367 -13818.9373 289.0034 -26.6246 -26.6204 594153.5178 -26.6246 -26.6204
ENERGY: 1000 5.6474 6.7208 6.3117 0.5673 -19051.6920 2022.1388 0.0000 0.0000 3187.7064 -13822.5996 291.6594 -17010.3060 -13814.0770 291.7505 6.7635 7.7750 580244.3899 -0.5848 -0.5644
ENERGY: 2000 3.1897 6.5269 4.0403 0.5925 -18910.2336 1882.3206 0.0000 0.0000 3240.0155 -13773.5482 296.4454 -17013.5637 -13765.8953 294.6752 -60.7493 -61.1069 597355.8257 0.6230 0.6250
ENERGY: 3000 3.5779 6.6838 5.0516 0.7583 -18868.1143 1949.2409 0.0000 0.0000 3229.9423 -13672.8596 295.5238 -16902.8019 -13666.2451 298.3325 -29.9720 -30.0659 632001.7340 2.9240 2.9308
ENERGY: 4000 4.4184 6.6495 2.2197 0.3759 -18918.0066 1997.9747 0.0000 0.0000 3260.4329 -13645.9354 298.3135 -16906.3683 -13639.7276 298.7190 -2.7353 -2.1283 652281.9623 1.4224 1.3809
ENERGY: 5000 5.0398 8.1773 4.0446 0.7522 -18816.8989 1917.7774 0.0000 0.0000 3317.9466 -13563.1609 303.5758 -16881.1075 -13557.4269 301.9140 -28.8209 -28.6860 636632.4372 0.4270 0.4384
TCL: Running FEP window   6: Lambda1 0.3125 Lambda2 0.375  [dLambda 0.0625]
TCL: Setting parameter firsttimestep to 0
TCL: Setting parameter alchLambda to 0.3125
Info: NONBONDED TABLE R-SQUARED SPACING: 0.0625
Info: NONBONDED TABLE SIZE: 769 POINTS
TCL: Setting parameter alchLambda2 to 0.375
Info: NONBONDED TABLE R-SQUARED SPACING: 0.0625
Info: NONBONDED TABLE SIZE: 769 POINTS
TCL: Running for 5000 steps
ETITLE: TS BOND ANGLE DIHED IMPRP ELECT VDW BOUNDARY MISC KINETIC TOTAL TEMP POTENTIAL TOTAL3 TEMPAVG PRESSURE GPRESSURE VOLUME PRESSAVG GPRESSAVG
ENERGY: 0 5.0398 8.1773 4.0446 0.7522 -18816.8989 1917.8441 0.0000 0.0000 3317.8453 -13563.1954 303.5665 -16881.0408 -13556.1725 303.5665 -28.5796 -28.5508 636632.4372 -28.5796 -28.5508
ENERGY: 1000 3.4050 5.6968 2.6385 1.0011 -18942.7326 1988.5759 0.0000 0.0000 3273.2419 -13668.1735 299.4855 -16941.4154 -13661.6364 299.4336 -15.4465 -15.0476 624642.7942 0.2878 0.2865
ENERGY: 2000 3.3283 9.8615 4.4010 0.3989 -18850.2696 1933.9776 0.0000 0.0000 3252.2855 -13646.0169 297.5681 -16898.3024 -13639.6539 299.3597 -16.4555 -15.8839 596244.3152 1.0774 1.0484
ENERGY: 3000 3.9958 7.3919 4.1244 0.2211 -18937.6894 1987.2853 0.0000 0.0000 3269.4305 -13665.2404 299.1368 -16934.6709 -13658.7419 297.3654 -5.2016 -5.4307 591608.4906 1.0346 1.0075
ENERGY: 4000 6.9255 6.8224 2.4872 0.2647 -18815.6046 1950.2407 0.0000 0.0000 3302.1219 -13546.7421 302.1279 -16848.8640 -13538.2419 299.6801 -7.5182 -8.0579 588253.1703 0.8311 0.8313
ENERGY: 5000 5.4362 9.2032 3.5116 0.5029 -18907.4376 1957.2437 0.0000 0.0000 3264.9845 -13666.5555 298.7300 -16931.5400 -13659.1371 298.9744 12.5818 12.8224 582729.7457 1.2715 1.2585
TCL: Running FEP window   7: Lambda1 0.375  Lambda2 0.4375 [dLambda 0.0625]
TCL: Setting parameter firsttimestep to 0
TCL: Setting parameter alchLambda to 0.375
Info: NONBONDED TABLE R-SQUARED SPACING: 0.0625
Info: NONBONDED TABLE SIZE: 769 POINTS
TCL: Setting parameter alchLambda2 to 0.4375
Info: NONBONDED TABLE R-SQUARED SPACING: 0.0625
Info: NONBONDED TABLE SIZE: 769 POINTS
TCL: Running for 5000 steps
ETITLE: TS BOND ANGLE DIHED IMPRP ELECT VDW BOUNDARY MISC KINETIC TOTAL TEMP POTENTIAL TOTAL3 TEMPAVG PRESSURE GPRESSURE VOLUME PRESSAVG GPRESSAVG
ENERGY: 0 5.4362 9.2032 3.5116 0.5029 -18907.4376 1957.3233 0.0000 0.0000 3264.8861 -13666.5743 298.7210 -16931.4604 -13660.8152 298.7210 13.1000 13.1778 582729.7457 13.1000 13.1778
ENERGY: 1000 4.1780 12.8442 6.8071 0.6232 -19037.4750 2018.1048 0.0000 0.0000 3299.5734 -13695.3444 301.8947 -16994.9178 -13689.4126 298.4054 13.3334 13.2384 581785.2220 1.7769 1.7405
ENERGY: 2000 5.8018 9.4232 2.9954 0.2955 -18951.3833 1917.3306 0.0000 0.0000 3174.6965 -13840.8404 290.4691 -17015.5369 -13835.4895 295.9888 -33.5409 -34.0581 572558.2475 0.3122 0.3361
ENERGY: 3000 2.1991 8.8388 3.6417 0.5286 -18815.0152 1927.4495 0.0000 0.0000 3259.3396 -13613.0178 298.2135 -16872.3573 -13606.6751 297.0048 -15.0057 -14.6476 587282.2972 1.1341 1.1895
ENERGY: 4000 3.1009 9.9749 5.6211 0.5703 -18948.5386 2029.9787 0.0000 0.0000 3290.2085 -13609.0842 301.0379 -16899.2927 -13600.4733 297.8799 30.8438 30.7380 571388.8871 0.3375 0.3384
ENERGY: 5000 5.6954 8.8150 4.2901 0.7398 -18816.3747 1972.4115 0.0000 0.0000 3237.8345 -13586.5885 296.2459 -16824.4230 -13577.5103 302.1642 12.5181 12.0743 568257.8392 1.3449 1.2736
TCL: Running FEP window   8: Lambda1 0.4375 Lambda2 0.5    [dLambda 0.0625]
TCL: Setting parameter firsttimestep to 0
TCL: Setting parameter alchLambda to 0.4375
Info: NONBONDED TABLE R-SQUARED SPACING: 0.0625
Info: NONBONDED TABLE SIZE: 769 POINTS
TCL: Setting parameter alchLambda2 to 0.5
Info: NONBONDED TABLE R-SQUARED SPACING: 0.0625
Info: NONBONDED TABLE SIZE: 769 POINTS
TCL: Running for 5000 steps
ETITLE: TS BOND ANGLE DIHED IMPRP ELECT VDW BOUNDARY MISC KINETIC TOTAL TEMP POTENTIAL TOTAL3 TEMPAVG PRESSURE GPRESSURE VOLUME PRESSAVG GPRESSAVG
ENERGY: 0 5.6954 8.8150 4.2901 0.7398 -18816.3747 1973.1350 0.0000 0.0000 3237.7323 -13585.9671 296.2366 -16823.6994 -13579.6447 296.2366 12.7199 12.6976 568257.8392 12.7199 12.6976
ENERGY: 1000 3.9567 5.1141 4.5420 0.3752 -18903.1462 1998.9676 0.0000 0.0000 3227.8628 -13662.3278 295.3335 -16890.1906 -13656.5399 299.9361 -6.3064 -6.4143 585115.3284 1.9560 1.9840
ENERGY: 2000 5.4179 7.5102 2.7950 0.5328 -18844.6300 1933.4346 0.0000 0.0000 3197.5155 -13697.4240 292.5569 -16894.9395 -13693.7071 298.4157 -26.0346 -25.8525 591037.3658 1.3568 1.3464
ENERGY: 3000 4.0777 9.1067 2.1228 0.2350 -18902.3132 1941.5880 0.0000 0.0000 3204.0139 -13741.1691 293.1515 -16945.1829 -13737.8726 295.8289 -15.5191 -15.8655 586211.8452 2.6265 2.6157
ENERGY: 4000 2.9725 10.8862 3.4070 0.4835 -18962.7064 1939.1180 0.0000 0.0000 3227.0925 -13778.7466 295.2631 -17005.8391 -13772.5713 296.4400 -44.1434 -44.6769 581360.9110 0.9737 1.0228
ENERGY: 5000 2.2526 8.7986 8.2297 0.6187 -19026.9466 2045.0313 0.0000 0.0000 3192.7012 -13769.3146 292.1164 -16962.0158 -13762.3185 293.0471 23.8532 24.1086 553931.2868 2.3965 2.3526
TCL: Running FEP window   9: Lambda1 0.5    Lambda2 0.5625 [dLambda 0.0625]
TCL: Setting parameter firsttimestep to 0
TCL: Setting parameter alchLambda to 0.5
Info: NONBONDED TABLE R-SQUARED SPACING: 0.0625
Info: NONBONDED TABLE SIZE: 769 POINTS
TCL: Setting parameter alchLambda2 to 0.5625
Info: NONBONDED TABLE R-SQUARED SPACING: 0.0625
Info: NONBONDED TABLE SIZE: 769 POINTS
TCL: Running for 5000 steps
ETITLE: TS BOND ANGLE DIHED IMPRP ELECT VDW BOUNDARY MISC KINETIC TOTAL TEMP POTENTIAL TOTAL3 TEMPAVG PRESSURE GPRESSURE VOLUME PRESSAVG GPRESSAVG
ENERGY: 0 2.2526 8.7986 8.2297 0.6187 -19026.9466 2045.6973 0.0000 0.0000 3192.5982 -13768.7515 292.1070 -16961.3498 -13762.1092 292.1070 24.9908 24.7217 553931.2868 24.9908 24.7217
ENERGY: 1000 2.9663 7.6908 5.6845 0.1920 -19133.6880 2127.1320 0.0000 0.0000 3220.7885 -13769.2339 294.6863 -16990.0224 -13763.0165 295.6699 68.3269 68.0995 549838.6735 0.5376 0.5394
ENERGY: 2000 7.7838 6.8560 6.0210 0.8657 -19127.2768 2091.1072 0.0000 0.0000 3161.9273 -13852.7157 289.3008 -17014.6431 -13846.8531 294.0325 51.6517 51.2228 525368.8656 0.2530 0.2437
ENERGY: 3000 4.6748 10.5314 4.9680 0.3624 -19079.4027 2080.3434 0.0000 0.0000 3238.5461 -13739.9765 296.3110 -16978.5226 -13733.3166 295.0177 24.8597 24.1151 526030.8675 -1.5011 -1.4603
ENERGY: 4000 8.7605 8.5198 4.9065 0.3390 -18952.4493 1964.0474 0.0000 0.0000 3256.3013 -13709.5747 297.9355 -16965.8761 -13701.7076 296.1107 -9.4730 -10.2989 519387.1982 2.4625 2.4539
ENERGY: 5000 4.7553 7.8434 4.7414 0.2233 -19144.1001 2079.2837 0.0000 0.0000 3297.8366 -13749.4163 301.7358 -17047.2529 -13742.6888 296.5038 36.9691 36.3975 494118.7620 3.4817 3.4768
TCL: Running FEP window  10: Lambda1 0.5625 Lambda2 0.625  [dLambda 0.0625]
TCL: Setting parameter firsttimestep to 0
TCL: Setting parameter alchLambda to 0.5625
Info: NONBONDED TABLE R-SQUARED SPACING: 0.0625
Info: NONBONDED TABLE SIZE: 769 POINTS
TCL: Setting parameter alchLambda2 to 0.625
Info: NONBONDED TABLE R-SQUARED SPACING: 0.0625
Info: NONBONDED TABLE SIZE: 769 POINTS
TCL: Running for 5000 steps
ETITLE: TS BOND ANGLE DIHED IMPRP ELECT VDW BOUNDARY MISC KINETIC TOTAL TEMP POTENTIAL TOTAL3 TEMPAVG PRESSURE GPRESSURE VOLUME PRESSAVG GPRESSAVG
ENERGY: 0 4.7553 7.8434 4.7414 0.2233 -19141.2223 2079.6805 0.0000 0.0000 3297.7398 -13746.2385 301.7269 -17043.9783 -13739.5063 301.7269 36.8644 36.9600 494118.7620 36.8644 36.9600
ENERGY: 1000 6.4422 10.8844 4.7437 0.3902 -18971.9939 1983.3236 0.0000 0.0000 3227.6538 -13738.5560 295.3144 -16966.2098 -13734.7326 297.2073 10.7815 11.0041 463897.4048 1.1239 1.1265
ENERGY: 2000 4.2691 8.6547 5.8354 0.6204 -18998.7585 1952.4615 0.0000 0.0000 3259.7307 -13767.1867 298.2493 -17026.9174 -13760.3441 296.4644 -25.6809 -26.2287 454492.4358 -0.3786 -0.3920
ENERGY: 3000 1.4887 7.0865 7.5357 1.2265 -19031.3125 1998.7150 0.0000 0.0000 3201.8444 -13813.4156 292.9530 -17015.2600 -13805.0456 295.7456 6.6208 6.0593 460074.9293 1.5617 1.5757
ENERGY: 4000 1.8972 10.7651 9.0295 0.5252 -19050.0754 1986.7804 0.0000 0.0000 3283.0476 -13758.0305 300.3827 -17041.0781 -13750.1380 295.4052 -10.9782 -11.5735 465991.7543 0.8862 0.8843
ENERGY: 5000 6.4597 10.5152 8.4848 0.8045 -18962.6993 1969.7149 0.0000 0.0000 3180.8272 -13785.8932 291.0300 -16966.7203 -13779.9609 293.3370 -16.3656 -16.1221 469716.7311 0.4964 0.5167
TCL: Running FEP window  11: Lambda1 0.625  Lambda2 0.6875 [dLambda 0.0625]
TCL: Setting parameter firsttimestep to 0
TCL: Setting parameter alchLambda to 0.625
Info: NONBONDED TABLE R-SQUARED SPACING: 0.0625
Info: NONBONDED TABLE SIZE: 769 POINTS
TCL: Setting parameter alchLambda2 to 0.6875
Info: NONBONDED TABLE R-SQUARED SPACING: 0.0625
Info: NONBONDED TABLE SIZE: 769 POINTS
TCL: Running for 5000 steps
ETITLE: TS BOND ANGLE DIHED IMPRP ELECT VDW BOUNDARY MISC KINETIC TOTAL TEMP POTENTIAL TOTAL3 TEMPAVG PRESSURE GPRESSURE VOLUME PRESSAVG GPRESSAVG
ENERGY: 0 6.4597 10.5152 8.4848 0.8045 -18960.6843 1969.9318 0.0000 0.0000 3180.7295 -13783.7589 291.0211 -16964.4884 -13777.6078 291.0211 -15.7772 -15.6856 469716.7311 -15.7772 -15.6856
ENERGY: 1000 3.4479 15.4559 3.2316 0.3186 -19072.1817 2062.5489 0.0000 0.0000 3220.7987 -13766.3801 294.6872 -16987.1788 -13757.5446 296.1617 25.9411 26.5219 468553.0105 2.3699 2.3573
ENERGY: 2000 3.5802 12.7478 3.7013 0.4476 -18962.7264 1976.0308 0.0000 0.0000 3159.0864 -13807.1324 289.0408 -16966.2187 -13801.0094 292.5358 -1.7908 -1.9689 485039.0934 2.7395 2.7897
ENERGY: 3000 3.0174 6.8832 4.8164 0.5029 -18953.3002 1913.8576 0.0000 0.0000 3313.2798 -13710.9430 303.1488 -17024.2228 -13704.2385 296.6613 -32.9378 -32.5153 493923.1603 -0.1227 -0.1397
ENERGY: 4000 4.7522 6.3465 5.2340 0.5786 -19002.9259 1967.9204 0.0000 0.0000 3329.8567 -13688.2375 304.6655 -17018.0942 -13679.8389 299.5544 -19.8526 -18.9795 495428.5960 1.0202 1.0048
ENERGY: 5000 4.0210 5.1988 6.0675 0.2022 -19117.9357 2068.1970 0.0000 0.0000 3333.7421 -13700.5070 305.0210 -17034.2491 -13692.0704 297.8319 37.8285 37.9891 469511.9464 0.2693 0.2933
TCL: Running FEP window  12: Lambda1 0.6875 Lambda2 0.75   [dLambda 0.0625]
TCL: Setting parameter firsttimestep to 0
TCL: Setting parameter alchLambda to 0.6875
Info: NONBONDED TABLE R-SQUARED SPACING: 0.0625
Info: NONBONDED TABLE SIZE: 769 POINTS
TCL: Setting parameter alchLambda2 to 0.75
Info: NONBONDED TABLE R-SQUARED SPACING: 0.0625
Info: NONBONDED TABLE SIZE: 769 POINTS
TCL: Running for 5000 steps
ETITLE: TS BOND ANGLE DIHED IMPRP ELECT VDW BOUNDARY MISC KINETIC TOTAL TEMP POTENTIAL TOTAL3 TEMPAVG PRESSURE GPRESSURE VOLUME PRESSAVG GPRESSAVG
ENERGY: 0 4.0210 5.1988 6.0675 0.2022 -19116.0768 2068.6829 0.0000 0.0000 3333.6421 -13698.2622 305.0118 -17031.9043 -13691.3100 305.0118 38.7206 38.7101 469511.9464 38.7206 38.7101
ENERGY: 1000 2.6226 9.0161 3.5197 0.6669 -19123.5906 2084.1719 0.0000 0.0000 3280.9497 -13742.6438 300.1907 -17023.5934 -13736.9795 297.2164 32.8646 33.2723 461035.9828 3.5126 3.4756
ENERGY: 2000 3.5743 7.2846 4.8476 0.3449 -18963.8858 1963.7139 0.0000 0.0000 3250.7573 -13733.3631 297.4283 -16984.1204 -13725.4525 295.9682 3.7244 2.4769 436204.3901 2.3144 2.2840
ENERGY: 3000 5.1489 6.7775 5.6884 0.4266 -19007.6839 1996.0046 0.0000 0.0000 3272.7557 -13720.8822 299.4410 -16993.6379 -13715.2073 296.9339 -1.2610 -2.1360 436370.3462 2.1878 2.2406
ENERGY: 4000 4.9410 6.7113 6.7839 1.0986 -18947.3301 2035.3997 0.0000 0.0000 3233.6202 -13658.7755 295.8603 -16892.3957 -13648.8725 298.2950 53.9206 55.7729 432735.0788 3.2091 3.2060
ENERGY: 5000 7.7872 7.2048 9.6438 0.9627 -18795.6158 1921.0644 0.0000 0.0000 3258.5065 -13590.4464 298.1373 -16848.9529 -13584.2386 299.3569 -41.8992 -41.6721 426307.8544 3.3673 3.3363
TCL: Running FEP window  13: Lambda1 0.75   Lambda2 0.8125 [dLambda 0.0625]
TCL: Setting parameter firsttimestep to 0
TCL: Setting parameter alchLambda to 0.75
Info: NONBONDED TABLE R-SQUARED SPACING: 0.0625
Info: NONBONDED TABLE SIZE: 769 POINTS
TCL: Setting parameter alchLambda2 to 0.8125
Info: NONBONDED TABLE R-SQUARED SPACING: 0.0625
Info: NONBONDED TABLE SIZE: 769 POINTS
TCL: Running for 5000 steps
ETITLE: TS BOND ANGLE DIHED IMPRP ELECT VDW BOUNDARY MISC KINETIC TOTAL TEMP POTENTIAL TOTAL3 TEMPAVG PRESSURE GPRESSURE VOLUME PRESSAVG GPRESSAVG
ENERGY: 0 7.7872 7.2048 9.6438 0.9627 -18795.0205 1922.6984 0.0000 0.0000 3258.4058 -13588.3177 298.1281 -16846.7236 -13581.4805 298.1281 -40.1541 -40.2364 426307.8544 -40.1541 -40.2364
ENERGY: 1000 2.4766 6.8713 7.3294 0.3869 -18852.0781 1961.2594 0.0000 0.0000 3274.6812 -13599.0733 299.6172 -16873.7545 -13593.7318 299.6130 -6.4886 -7.8373 420578.0873 -1.0084 -0.9517
ENERGY: 2000 2.5726 6.8131 10.3439 0.6797 -18938.2165 2001.7907 0.0000 0.0000 3262.3474 -13653.6691 298.4887 -16916.0165 -13647.8455 300.8759 43.3524 42.2783 410902.0351 3.5624 3.5629
ENERGY: 3000 3.6165 6.3568 4.1385 0.2363 -18872.4487 1929.5708 0.0000 0.0000 3315.2219 -13613.3080 303.3265 -16928.5299 -13604.8086 297.7660 -32.0540 -32.6711 394722.9869 0.1003 0.0872
ENERGY: 4000 4.4586 9.1642 7.0456 0.6894 -18838.1073 1980.5511 0.0000 0.0000 3324.2519 -13511.9465 304.1527 -16836.1984 -13505.6813 300.5535 16.2941 16.0126 380695.0332 -0.5651 -0.5697
ENERGY: 5000 3.4804 7.6191 6.7727 0.2290 -18953.7254 2028.8518 0.0000 0.0000 3270.9548 -13635.8176 299.2762 -16906.7725 -13628.6741 300.9765 29.0963 30.2792 382816.4946 2.1658 2.1680
TCL: Running FEP window  14: Lambda1 0.8125 Lambda2 0.875  [dLambda 0.0625]
TCL: Setting parameter firsttimestep to 0
TCL: Setting parameter alchLambda to 0.8125
Info: NONBONDED TABLE R-SQUARED SPACING: 0.0625
Info: NONBONDED TABLE SIZE: 769 POINTS
TCL: Setting parameter alchLambda2 to 0.875
Info: NONBONDED TABLE R-SQUARED SPACING: 0.0625
Info: NONBONDED TABLE SIZE: 769 POINTS
TCL: Running for 5000 steps
ETITLE: TS BOND ANGLE DIHED IMPRP ELECT VDW BOUNDARY MISC KINETIC TOTAL TEMP POTENTIAL TOTAL3 TEMPAVG PRESSURE GPRESSURE VOLUME PRESSAVG GPRESSAVG
ENERGY: 0 3.4804 7.6191 6.7727 0.2290 -18953.6735 2031.6723 0.0000 0.0000 3270.8557 -13633.0443 299.2672 -16903.9001 -13626.8017 299.2672 33.2820 33.2249 382816.4946 33.2820 33.2249
ENERGY: 1000 4.3307 8.9343 9.8133 0.3058 -18914.4237 2035.0110 0.0000 0.0000 3251.0565 -13604.9721 297.4556 -16856.0286 -13597.7844 299.9527 7.9699 7.9440 372303.3516 0.3155 0.3062
ENERGY: 2000 4.8685 8.4849 7.8194 0.4016 -19040.4757 2048.6802 0.0000 0.0000 3343.4129 -13626.8082 305.9058 -16970.2211 -13620.6014 299.3611 46.1166 44.9334 343439.9995 4.8147 4.7999
ENERGY: 3000 5.1876 10.1793 4.3387 0.2234 -19083.2557 2104.7833 0.0000 0.0000 3330.5667 -13627.9767 304.7304 -16958.5434 -13619.1406 297.1326 66.3787 66.9329 339105.3712 2.4836 2.4942
ENERGY: 4000 2.6727 9.0810 10.2503 0.5112 -18883.0069 1949.9808 0.0000 0.0000 3326.6390 -13583.8719 304.3711 -16910.5109 -13575.9240 301.0264 -46.6911 -46.5524 339601.4073 2.2296 2.2544
ENERGY: 5000 7.4923 8.1439 9.8470 0.6879 -18838.9158 1955.1859 0.0000 0.0000 3274.2264 -13583.3325 299.5756 -16857.5588 -13577.8009 297.9721 -4.2144 -3.7857 328311.0463 -0.6771 -0.6522
TCL: Running FEP window  15: Lambda1 0.875  Lambda2 0.9375 [dLambda 0.0625]
TCL: Setting parameter firsttimestep to 0
TCL: Setting parameter alchLambda to 0.875
Info: NONBONDED TABLE R-SQUARED SPACING: 0.0625
Info: NONBONDED TABLE SIZE: 769 POINTS
TCL: Setting parameter alchLambda2 to 0.9375
Info: NONBONDED TABLE R-SQUARED SPACING: 0.0625
Info: NONBONDED TABLE SIZE: 769 POINTS
TCL: Running for 5000 steps
ETITLE: TS BOND ANGLE DIHED IMPRP ELECT VDW BOUNDARY MISC KINETIC TOTAL TEMP POTENTIAL TOTAL3 TEMPAVG PRESSURE GPRESSURE VOLUME PRESSAVG GPRESSAVG
ENERGY: 0 7.4923 8.1439 9.8470 0.6879 -18839.1861 1959.2102 0.0000 0.0000 3274.1252 -13579.6796 299.5663 -16853.8048 -13572.7985 299.5663 1.0158 1.1456 328311.0463 1.0158 1.1456
ENERGY: 1000 2.7772 12.6044 7.5601 0.5866 -18824.3240 1970.2998 0.0000 0.0000 3353.6877 -13476.8081 306.8459 -16830.4958 -13470.6456 301.4263 26.6921 25.0857 318064.4712 3.3275 3.3477
ENERGY: 2000 2.3959 8.1688 8.4613 0.3087 -18783.6726 1887.3113 0.0000 0.0000 3303.7536 -13573.2728 302.2772 -16877.0264 -13566.4806 301.5321 -60.7222 -61.3916 322665.5440 -1.8634 -1.8640
ENERGY: 3000 3.7348 11.3814 10.9874 0.3571 -18873.4053 1998.1986 0.0000 0.0000 3244.2483 -13604.4977 296.8327 -16848.7459 -13597.7427 298.1436 -2.2391 -2.3715 326098.7935 -0.9365 -0.9983
ENERGY: 4000 5.7719 7.0311 10.1232 0.1198 -18983.3951 2088.9535 0.0000 0.0000 3355.6464 -13515.7492 307.0251 -16871.3955 -13509.7359 302.7879 102.8357 101.1650 307288.9147 1.5908 1.5639
ENERGY: 5000 6.3417 15.4855 6.3337 0.3186 -18828.0021 1966.6588 0.0000 0.0000 3256.3115 -13576.5523 297.9365 -16832.8638 -13572.3504 302.6672 -14.4905 -15.6499 299240.3773 -0.4160 -0.4588
TCL: Running FEP window  16: Lambda1 0.9375 Lambda2 1.0    [dLambda 0.0625]
TCL: Setting parameter firsttimestep to 0
TCL: Setting parameter alchLambda to 0.9375
Info: NONBONDED TABLE R-SQUARED SPACING: 0.0625
Info: NONBONDED TABLE SIZE: 769 POINTS
TCL: Setting parameter alchLambda2 to 1.0
Info: NONBONDED TABLE R-SQUARED SPACING: 0.0625
Info: NONBONDED TABLE SIZE: 769 POINTS
TCL: Running for 5000 steps
ETITLE: TS BOND ANGLE DIHED IMPRP ELECT VDW BOUNDARY MISC KINETIC TOTAL TEMP POTENTIAL TOTAL3 TEMPAVG PRESSURE GPRESSURE VOLUME PRESSAVG GPRESSAVG
ENERGY: 0 6.3417 15.4855 6.3337 0.3186 -18827.2070 1969.7910 0.0000 0.0000 3256.2112 -13572.7254 297.9273 -16828.9366 -13566.1524 297.9273 -10.9920 -11.0910 299240.3773 -10.9920 -11.0910
ENERGY: 1000 6.6915 7.5065 10.1342 0.2709 -19003.4798 2048.5746 0.0000 0.0000 3274.7488 -13655.5534 299.6234 -16930.3022 -13648.5317 297.4394 31.8768 31.8475 298465.4054 0.2569 0.3184
ENERGY: 2000 4.6353 7.2991 9.0936 0.5996 -19055.5481 2022.8104 0.0000 0.0000 3371.5401 -13639.5698 308.4793 -17011.1100 -13632.1549 298.4199 11.6911 13.3136 299119.4768 5.0431 5.0398
ENERGY: 3000 4.0023 5.1691 7.3472 0.7044 -18842.2303 1991.1993 0.0000 0.0000 3299.7843 -13534.0238 301.9140 -16833.8081 -13529.3874 299.2756 22.9498 22.0558 297630.8098 -2.7962 -2.7817
ENERGY: 4000 8.9508 7.8898 10.8644 0.6240 -18899.3179 2001.3707 0.0000 0.0000 3256.6682 -13612.9502 297.9691 -16869.6183 -13607.0413 299.2165 -4.3367 -3.0326 291540.3305 -2.4219 -2.4197
ENERGY: 5000 4.5174 11.3728 5.0641 0.2628 -19078.8434 2124.0270 0.0000 0.0000 3290.2763 -13643.3230 301.0441 -16933.5993 -13639.4580 298.5968 105.7443 106.3295 288726.1231 3.4030 3.3965
