Info: SIMULATION PARAMETERS:
Info: TIMESTEP               2
Info: NUMBER OF STEPS        0
Info: STEPS PER CYCLE        10
Info: PERIODIC CELL BASIS 1  42.812 0 0
Info: PERIODIC CELL BASIS 2  0 42.118 0
Info: PERIODIC CELL BASIS 3  0 0 39.527
Info: PERIODIC CELL CENTER   0 0 0
Info: WRAPPING WATERS AROUND PERIODIC BOUNDARIES ON OUTPUT.
Info: WRAPPING ALL CLUSTERS AROUND PERIODIC BOUNDARIES ON OUTPUT.
Info: FIRST LDB TIMESTEP     50
Info: LAST LDB TIMESTEP     -1
Info: HOM BACKGROUND SCALING 1
Info: PME BACKGROUND SCALING 1
Info: MIN ATOMS PER PATCH    40
Info: EMPTY PATCH LOAD       40 ATOMS
Info: INITIAL TEMPERATURE    300
Info: CENTER OF MASS MOVING INITIALLY? NO
Info: DIELECTRIC             1
Info: EXCLUDE                SCALED ONE-FOUR
Info: 1-4 ELECTROSTATICS SCALED BY 0.833333
Info: MODIFIED 1-4 VDW PARAMETERS WILL BE USED
Info: DCD FILENAME           mobley_9414831_min.dcd
Info: DCD FREQUENCY          5000
Info: DCD FIRST STEP         5000
Info: DCD FILE WILL CONTAIN UNIT CELL DATA
Info: XST FILENAME           mobley_9414831_min.xst
Info: XST FREQUENCY          5000
Info: NO VELOCITY DCD OUTPUT
Info: NO FORCE DCD OUTPUT
Info: OUTPUT FILENAME        mobley_9414831_min
Info: BINARY OUTPUT FILES WILL BE USED
Info: RESTART FILENAME       mobley_9414831_min.restart
Info: RESTART FREQUENCY      5000
Info: BINARY RESTART FILES WILL BE USED
Info: CUTOFF                 9
Info: PAIRLIST DISTANCE      11
Info: PAIRLIST SHRINK RATE   0.01
Info: PAIRLIST GROW RATE     0.01
Info: PAIRLIST TRIGGER       0.3
Info: PAIRLISTS PER CYCLE    2
Info: PAIRLISTS ENABLED
Info: MARGIN                 8
Info: HYDROGEN GROUP CUTOFF  2.5
Info: PATCH DIMENSION        21.5
Info: ENERGY OUTPUT STEPS    5000
Info: ENERGY EVALUATION STEPS    5000
Info: OUTPUT ENERGY PRECISION 4
Info: CROSSTERM ENERGY INCLUDED IN DIHEDRAL
Info: TIMING OUTPUT STEPS    50000
Info: PRESSURE OUTPUT STEPS  5000
Info: LANGEVIN DYNAMICS ACTIVE
Info: LANGEVIN TEMPERATURE   300
Info: LANGEVIN USING BBK INTEGRATOR
Info: LANGEVIN DAMPING COEFFICIENT IS 1 INVERSE PS
Info: LANGEVIN DYNAMICS APPLIED TO HYDROGENS
Info: LANGEVIN PISTON PRESSURE CONTROL ACTIVE
Info:        TARGET PRESSURE IS 1.01325 BAR
Info:     OSCILLATION PERIOD IS 50 FS
Info:             DECAY TIME IS 25 FS
Info:     PISTON TEMPERATURE IS 300 K
Info:       PRESSURE CONTROL IS GROUP-BASED
Info:    INITIAL STRAIN RATE IS 0 0 0
Info:       CELL FLUCTUATION IS ISOTROPIC
Info: PARTICLE MESH EWALD (PME) ACTIVE
Info: PME TOLERANCE               1e-06
Info: PME EWALD COEFFICIENT       0.348832
Info: PME INTERPOLATION ORDER     4
Info: PME GRID DIMENSIONS         44 44 40
Info: PME MAXIMUM GRID SPACING    1
Info: FULL ELECTROSTATIC EVALUATION FREQUENCY      2
Info: USING VERLET I (r-RESPA) MTS SCHEME.
Info: C1 SPLITTING OF LONG RANGE ELECTROSTATICS
Info: PLACING ATOMS IN PATCHES BY HYDROGEN GROUPS
Info: RIGID BONDS TO HYDROGEN : ALL
Info:         ERROR TOLERANCE : 1e-08
Info:          MAX ITERATIONS : 100
Info: RIGID WATER USING SETTLE ALGORITHM
Info: RANDOM NUMBER SEED     1741400831
Info: USE HYDROGEN BONDS?    NO
Info: Using AMBER format force field!
Info: AMBER PARM FILE        mobley_9414831.prmtop
Info: COORDINATE PDB         mobley_9414831.pdb
Info: Exclusions will be read from PARM file!
Info: SCNB (VDW SCALING)     2
Info: USING ARITHMETIC MEAN TO COMBINE L-J SIGMA PARAMETERS
Info: SUMMARY OF PARAMETERS:
Info: 6 BONDS
Info: 5 ANGLES
Info:   5 HARMONIC
Info:   0 COSINE-BASED
Info: 3 DIHEDRAL
Info: 0 IMPROPER
Info: 0 CROSSTERM
Info: 0 VDW
Info: 21 VDW_PAIRS
Info: 0 NBTHOLE_PAIRS
Info: STRUCTURE SUMMARY:
Info: 5049 ATOMS
Info: 5050 BONDS
Info: 36 ANGLES
Info: 58 DIHEDRALS
Info: 0 IMPROPERS
Info: 0 CROSSTERMS
Info: 5130 EXCLUSIONS
Info: 5038 RIGID BONDS
Info: 10109 DEGREES OF FREEDOM
Info: 1687 HYDROGEN GROUPS
Info: 4 ATOMS IN LARGEST HYDROGEN GROUP
Info: 1687 MIGRATION GROUPS
Info: 4 ATOMS IN LARGEST MIGRATION GROUP
Info: TOTAL MASS = 30337 amu
Info: TOTAL CHARGE = 9.99738e-05 e
Info: MASS DENSITY = 0.706814 g/cm^3
Info: ATOM DENSITY = 0.07084 atoms/A^3
Info: ADDED 0 IMPLICIT EXCLUSIONS
Info: NONBONDED TABLE R-SQUARED SPACING: 0.0625
Info: NONBONDED TABLE SIZE: 705 POINTS
Info: REMOVING COM VELOCITY 0.108828 -0.220081 0.013164
TCL: Minimizing for 2000 steps
ETITLE: TS BOND ANGLE DIHED IMPRP ELECT VDW BOUNDARY MISC KINETIC TOTAL TEMP POTENTIAL TOTAL3 TEMPAVG PRESSURE GPRESSURE VOLUME PRESSAVG GPRESSAVG
ENERGY: 0 0.2831 0.6000 0.0001 0.0000 -15620.0164 1727.6473 0.0000 0.0000 0.0000 -13891.4859 0.0000 -13891.4859 -13891.4859 0.0000 10612.2210 -15512.4834 71273.3399 10612.2210 -15512.4834
ENERGY: 400 7.9470 3.7862 0.2554 0.0000 -21002.4912 2968.5633 0.0000 0.0000 0.0000 -18021.9392 0.0000 -18021.9392 -18021.9392 0.0000 14905.3753 15059.4742 71273.3399 14905.3753 15059.4742
ENERGY: 800 1.2366 0.5682 0.1179 0.0000 -22204.7018 3610.3734 0.0000 0.0000 0.0000 -18592.4056 0.0000 -18592.4056 -18592.4056 0.0000 17732.0222 17846.5664 71273.3399 17732.0222 17846.5664
ENERGY: 1200 0.9549 0.4677 0.1019 0.0000 -22638.0702 3804.1229 0.0000 0.0000 0.0000 -18832.4228 0.0000 -18832.4228 -18832.4228 0.0000 18614.5257 18713.4210 71273.3399 18614.5257 18713.4210
ENERGY: 1600 0.9021 0.3845 0.0844 0.0000 -22858.8955 3905.8331 0.0000 0.0000 0.0000 -18951.6915 0.0000 -18951.6915 -18951.6915 0.0000 19127.7699 19216.4909 71273.3399 19127.7699 19216.4909
ENERGY: 2000 0.8136 0.4451 0.1134 0.0000 -22955.4876 3917.3478 0.0000 0.0000 0.0000 -19036.7677 0.0000 -19036.7677 -19036.7677 0.0000 19189.8308 19275.8267 71273.3399 19189.8308 19275.8267
TCL: Exiting due to exit command.
Info: NAMD 3.0.1 for Linux-x86_64-multicore
Info: Please visit http://www.ks.uiuc.edu/Research/namd/
Info: for updates, documentation, and support information.
Info: Please cite Phillips et al., J. Chem. Phys. 153:044130 (2020) doi:10.1063/5.0014475
Info: in all publications reporting results obtained with NAMD.
Info: Based on Charm++/Converse 80000 for multicore-linux-x86_64-gcc
Info: Built Mon Oct 14 11:11:06 CDT 2024 by dhardy on athine.ks.uiuc.edu
Info: 1 NAMD  3.0.1  Linux-x86_64-multicore  16    k014  z5358697
Info: Running on 16 processors, 1 nodes, 1 physical nodes.
Info: CPU topology information available.
Info: Charm++/Converse parallel runtime startup completed at 0.00859927 s
Info: 1043.45 MB of memory in use based on /proc/self/stat
Info: Configuration file is mobley_9414831_equil.namd
Info: Working in the current directory /srv/scratch/z5358697/prod_prep_12/9414831
TCL: Running 25000 steps at 30 kelvin.
TCL: Suspending until startup complete.
Info: SIMULATION PARAMETERS:
Info: TIMESTEP               2
Info: NUMBER OF STEPS        0
Info: STEPS PER CYCLE        10
Info: PERIODIC CELL BASIS 1  42.812 0 0
Info: PERIODIC CELL BASIS 2  0 42.118 0
Info: PERIODIC CELL BASIS 3  0 0 39.527
Info: PERIODIC CELL CENTER   0 0 0
Info: WRAPPING WATERS AROUND PERIODIC BOUNDARIES ON OUTPUT.
Info: WRAPPING ALL CLUSTERS AROUND PERIODIC BOUNDARIES ON OUTPUT.
Info: FIRST LDB TIMESTEP     50
Info: LAST LDB TIMESTEP     -1
Info: HOM BACKGROUND SCALING 1
Info: PME BACKGROUND SCALING 1
Info: MIN ATOMS PER PATCH    40
Info: EMPTY PATCH LOAD       40 ATOMS
Info: INITIAL TEMPERATURE    300
Info: CENTER OF MASS MOVING INITIALLY? NO
Info: DIELECTRIC             1
Info: EXCLUDE                SCALED ONE-FOUR
Info: 1-4 ELECTROSTATICS SCALED BY 0.833333
Info: MODIFIED 1-4 VDW PARAMETERS WILL BE USED
Info: DCD FILENAME           mobley_9414831_equil.dcd
Info: DCD FREQUENCY          5000
Info: DCD FIRST STEP         5000
Info: DCD FILE WILL CONTAIN UNIT CELL DATA
Info: XST FILENAME           mobley_9414831_equil.xst
Info: XST FREQUENCY          5000
Info: NO VELOCITY DCD OUTPUT
Info: NO FORCE DCD OUTPUT
Info: OUTPUT FILENAME        mobley_9414831_equil
Info: BINARY OUTPUT FILES WILL BE USED
Info: RESTART FILENAME       mobley_9414831_equil.restart
Info: RESTART FREQUENCY      5000
Info: BINARY RESTART FILES WILL BE USED
Info: CUTOFF                 9
Info: PAIRLIST DISTANCE      11
Info: PAIRLIST SHRINK RATE   0.01
Info: PAIRLIST GROW RATE     0.01
Info: PAIRLIST TRIGGER       0.3
Info: PAIRLISTS PER CYCLE    2
Info: PAIRLISTS ENABLED
Info: MARGIN                 8
Info: HYDROGEN GROUP CUTOFF  2.5
Info: PATCH DIMENSION        21.5
Info: ENERGY OUTPUT STEPS    5000
Info: ENERGY EVALUATION STEPS    5000
Info: OUTPUT ENERGY PRECISION 4
Info: CROSSTERM ENERGY INCLUDED IN DIHEDRAL
Info: TIMING OUTPUT STEPS    50000
Info: PRESSURE OUTPUT STEPS  5000
Info: LANGEVIN DYNAMICS ACTIVE
Info: LANGEVIN TEMPERATURE   30
Info: LANGEVIN USING BBK INTEGRATOR
Info: LANGEVIN DAMPING COEFFICIENT IS 1 INVERSE PS
Info: LANGEVIN DYNAMICS APPLIED TO HYDROGENS
Info: LANGEVIN PISTON PRESSURE CONTROL ACTIVE
Info:        TARGET PRESSURE IS 1.01325 BAR
Info:     OSCILLATION PERIOD IS 50 FS
Info:             DECAY TIME IS 25 FS
Info:     PISTON TEMPERATURE IS 300 K
Info:       PRESSURE CONTROL IS GROUP-BASED
Info:    INITIAL STRAIN RATE IS 0 0 0
Info:       CELL FLUCTUATION IS ISOTROPIC
Info: PARTICLE MESH EWALD (PME) ACTIVE
Info: PME TOLERANCE               1e-06
Info: PME EWALD COEFFICIENT       0.348832
Info: PME INTERPOLATION ORDER     4
Info: PME GRID DIMENSIONS         44 44 40
Info: PME MAXIMUM GRID SPACING    1
Info: FULL ELECTROSTATIC EVALUATION FREQUENCY      2
Info: USING VERLET I (r-RESPA) MTS SCHEME.
Info: C1 SPLITTING OF LONG RANGE ELECTROSTATICS
Info: PLACING ATOMS IN PATCHES BY HYDROGEN GROUPS
Info: RIGID BONDS TO HYDROGEN : ALL
Info:         ERROR TOLERANCE : 1e-08
Info:          MAX ITERATIONS : 100
Info: RIGID WATER USING SETTLE ALGORITHM
Info: RANDOM NUMBER SEED     1741400850
Info: USE HYDROGEN BONDS?    NO
Info: Using AMBER format force field!
Info: AMBER PARM FILE        mobley_9414831.prmtop
Info: COORDINATE PDB         mobley_9414831.pdb
Info: Exclusions will be read from PARM file!
Info: SCNB (VDW SCALING)     2
Info: USING ARITHMETIC MEAN TO COMBINE L-J SIGMA PARAMETERS
Info: BINARY COORDINATES     mobley_9414831_min.coor
Info: SUMMARY OF PARAMETERS:
Info: 6 BONDS
Info: 5 ANGLES
Info:   5 HARMONIC
Info:   0 COSINE-BASED
Info: 3 DIHEDRAL
Info: 0 IMPROPER
Info: 0 CROSSTERM
Info: 0 VDW
Info: 21 VDW_PAIRS
Info: 0 NBTHOLE_PAIRS
Info: STRUCTURE SUMMARY:
Info: 5049 ATOMS
Info: 5050 BONDS
Info: 36 ANGLES
Info: 58 DIHEDRALS
Info: 0 IMPROPERS
Info: 0 CROSSTERMS
Info: 5130 EXCLUSIONS
Info: 5038 RIGID BONDS
Info: 10109 DEGREES OF FREEDOM
Info: 1687 HYDROGEN GROUPS
Info: 4 ATOMS IN LARGEST HYDROGEN GROUP
Info: 1687 MIGRATION GROUPS
Info: 4 ATOMS IN LARGEST MIGRATION GROUP
Info: TOTAL MASS = 30337 amu
Info: TOTAL CHARGE = 9.99738e-05 e
Info: MASS DENSITY = 0.706814 g/cm^3
Info: ATOM DENSITY = 0.07084 atoms/A^3
Info: ADDED 0 IMPLICIT EXCLUSIONS
Info: NONBONDED TABLE R-SQUARED SPACING: 0.0625
Info: NONBONDED TABLE SIZE: 705 POINTS
Info: REMOVING COM VELOCITY -0.0152399 -0.00956451 0.036504
TCL: Running for 25000 steps
ETITLE: TS BOND ANGLE DIHED IMPRP ELECT VDW BOUNDARY MISC KINETIC TOTAL TEMP POTENTIAL TOTAL3 TEMPAVG PRESSURE GPRESSURE VOLUME PRESSAVG GPRESSAVG
ENERGY: 0 0.8136 0.4451 0.1134 0.0000 -22955.4876 3917.3478 0.0000 0.0000 2970.2217 -16066.5461 295.7134 -19036.7677 -16065.9303 295.7134 -57.0245 -13.0449 71273.3399 -57.0245 -13.0449
ENERGY: 5000 1.1373 0.9279 0.6529 0.0000 -24320.9752 4319.7761 0.0000 0.0000 299.0076 -19699.4734 29.7690 -19998.4810 -19699.0287 47.9952 483.8462 544.3555 49463.1390 4.5109 4.4933
ENERGY: 10000 0.7323 0.8734 0.4926 0.0000 -24351.3581 4282.5763 0.0000 0.0000 305.6906 -19760.9930 30.4344 -20066.6836 -19760.0933 30.3145 282.4546 345.4064 49068.7558 -2.0544 -2.0899
ENERGY: 15000 0.9813 0.6875 0.6799 0.0000 -24350.4208 4243.4308 0.0000 0.0000 296.1673 -19808.4739 29.4862 -20104.6412 -19807.8506 30.2488 -18.3714 31.2622 49047.6781 2.6461 2.8547
ENERGY: 20000 1.2863 0.7809 0.3256 0.0000 -24321.6655 4188.8598 0.0000 0.0000 307.7060 -19822.7070 30.6350 -20130.4130 -19821.6351 30.3117 -342.8280 -282.8507 49092.9554 2.7500 2.7071
ENERGY: 25000 1.3825 1.0185 0.4811 0.0000 -24375.4467 4214.8585 0.0000 0.0000 306.3764 -19851.3296 30.5026 -20157.7060 -19850.4748 30.1160 -265.6384 -216.7265 49044.6190 6.3364 6.3128
TCL: Running 25000 steps at 60 kelvin.
TCL: Setting parameter langevinTemp to 60
TCL: Running for 25000 steps
ETITLE: TS BOND ANGLE DIHED IMPRP ELECT VDW BOUNDARY MISC KINETIC TOTAL TEMP POTENTIAL TOTAL3 TEMPAVG PRESSURE GPRESSURE VOLUME PRESSAVG GPRESSAVG
ENERGY: 25000 1.3825 1.0185 0.4811 0.0000 -24375.4467 4214.8585 0.0000 0.0000 306.2239 -19851.4821 30.4875 -20157.7060 -19850.8726 30.4875 -266.9392 -216.6153 49044.6190 -266.9392 -216.6153
ENERGY: 30000 0.2947 0.8763 0.9652 0.0000 -24102.6484 4253.4787 0.0000 0.0000 597.7101 -19249.3233 59.5076 -19847.0334 -19247.5191 57.0807 695.6115 707.6088 49109.7495 3.8435 3.8273
ENERGY: 35000 1.3851 1.7308 0.8151 0.0000 -24094.7250 4220.7184 0.0000 0.0000 604.3523 -19265.7232 60.1689 -19870.0755 -19264.0121 60.2592 455.8745 502.1174 49011.1255 4.0336 4.2770
ENERGY: 40000 0.6298 1.1717 1.5783 0.0000 -24098.8616 4202.5418 0.0000 0.0000 599.8263 -19293.1136 59.7183 -19892.9399 -19291.5711 59.7419 292.0429 355.6407 49111.7991 3.9854 3.7521
ENERGY: 45000 1.0616 2.0980 0.7793 0.0000 -23941.1308 4010.4024 0.0000 0.0000 621.5464 -19305.2431 61.8808 -19926.7895 -19303.1652 60.2588 -747.6794 -689.1445 49328.1801 3.0142 3.1158
ENERGY: 50000 1.6532 1.3353 0.9682 0.0000 -24119.8307 4182.5967 0.0000 0.0000 594.3373 -19338.9401 59.1719 -19933.2774 -19337.0776 59.5290 112.3264 144.2188 49076.4336 2.4476 2.4044
TCL: Running 25000 steps at 90 kelvin.
TCL: Setting parameter langevinTemp to 90
TCL: Running for 25000 steps
ETITLE: TS BOND ANGLE DIHED IMPRP ELECT VDW BOUNDARY MISC KINETIC TOTAL TEMP POTENTIAL TOTAL3 TEMPAVG PRESSURE GPRESSURE VOLUME PRESSAVG GPRESSAVG
ENERGY: 50000 1.6532 1.3353 0.9682 0.0000 -24119.8307 4182.5967 0.0000 0.0000 594.0445 -19339.2330 59.1427 -19933.2774 -19337.9096 59.1427 90.0739 144.2846 49076.4336 90.0739 144.2846
ENERGY: 55000 1.3379 3.1363 1.3237 0.0000 -23537.0743 3941.5169 0.0000 0.0000 899.2445 -18690.5150 89.5282 -19589.7596 -18689.1173 86.6807 -359.7383 -287.8025 49474.4790 7.3911 6.9671
ENERGY: 60000 2.2549 2.3612 1.0039 0.0000 -23546.6029 3912.1944 0.0000 0.0000 896.7212 -18732.0672 89.2770 -19628.7884 -18731.0255 90.1249 -612.0718 -537.6885 49685.3768 6.4316 6.6517
ENERGY: 65000 1.8940 2.0257 1.1701 0.0000 -23711.7986 4043.3713 0.0000 0.0000 885.4543 -18777.8833 88.1553 -19663.3376 -18775.4579 89.6668 20.1222 103.4508 49234.3954 2.9252 2.7593
ENERGY: 70000 3.0916 1.2572 1.3277 0.0000 -23635.5211 3972.9248 0.0000 0.0000 900.7670 -18756.1528 89.6798 -19656.9199 -18753.7732 90.1579 -288.9750 -239.9432 49175.8293 -0.8258 -0.6168
ENERGY: 75000 2.4217 2.0379 1.1521 0.0000 -23590.0729 3877.7085 0.0000 0.0000 914.4057 -18792.3471 91.0377 -19706.7528 -18789.8858 89.8141 -840.4236 -770.3872 49303.6967 2.4068 2.2716
TCL: Running 25000 steps at 120 kelvin.
TCL: Setting parameter langevinTemp to 120
TCL: Running for 25000 steps
ETITLE: TS BOND ANGLE DIHED IMPRP ELECT VDW BOUNDARY MISC KINETIC TOTAL TEMP POTENTIAL TOTAL3 TEMPAVG PRESSURE GPRESSURE VOLUME PRESSAVG GPRESSAVG
ENERGY: 75000 2.4217 2.0379 1.1521 0.0000 -23590.0729 3877.7085 0.0000 0.0000 913.9466 -18792.8062 90.9920 -19706.7528 -18790.8318 90.9920 -818.8843 -770.9114 49303.6967 -818.8843 -770.9114
ENERGY: 80000 1.8415 4.0083 1.1200 0.0000 -23265.2940 3842.2170 0.0000 0.0000 1196.7825 -18219.3246 119.1509 -19416.1072 -18214.6645 116.2528 -390.9235 -300.9527 49479.8316 5.2643 5.0674
ENERGY: 85000 2.2534 1.5449 1.5267 0.0000 -23388.7781 3940.8318 0.0000 0.0000 1222.6868 -18219.9344 121.7299 -19442.6212 -18216.3933 119.6997 22.6998 64.9980 49493.6214 3.0902 2.4189
ENERGY: 90000 2.0372 1.9903 1.7937 0.0000 -23380.1268 3902.8228 0.0000 0.0000 1186.7514 -18284.7315 118.1522 -19471.4828 -18280.8641 119.7426 -270.3453 -200.6786 49565.8136 1.6530 1.7812
ENERGY: 95000 3.4713 1.6521 1.3011 0.0000 -23573.1713 4129.5639 0.0000 0.0000 1196.8380 -18240.3448 119.1564 -19437.1828 -18237.2986 119.8470 874.1679 911.4897 49378.8143 5.5331 4.9215
ENERGY: 100000 1.2257 1.3687 1.0776 0.0000 -23465.8090 4002.6903 0.0000 0.0000 1219.0624 -18240.3842 121.3691 -19459.4467 -18237.6707 120.2391 274.1214 333.7242 49295.5648 7.7348 7.3181
TCL: Running 25000 steps at 150 kelvin.
TCL: Setting parameter langevinTemp to 150
TCL: Running for 25000 steps
ETITLE: TS BOND ANGLE DIHED IMPRP ELECT VDW BOUNDARY MISC KINETIC TOTAL TEMP POTENTIAL TOTAL3 TEMPAVG PRESSURE GPRESSURE VOLUME PRESSAVG GPRESSAVG
ENERGY: 100000 1.2257 1.3687 1.0776 0.0000 -23465.8090 4002.6903 0.0000 0.0000 1218.4572 -18240.9895 121.3088 -19459.4467 -18238.6208 121.3088 274.0249 333.7072 49295.5648 274.0249 333.7072
ENERGY: 105000 1.6909 3.4518 1.9422 0.0000 -22761.7067 3644.9240 0.0000 0.0000 1482.0298 -17627.6681 147.5500 -19109.6979 -17624.7099 145.6020 -845.9522 -761.9565 49884.0001 3.7330 4.1973
ENERGY: 110000 2.7884 4.6362 1.6110 0.0000 -23127.7384 3982.1429 0.0000 0.0000 1527.2146 -17609.3453 152.0485 -19136.5599 -17605.4848 149.3754 914.2718 985.5399 49103.1764 4.3573 4.1613
ENERGY: 115000 1.7260 2.4422 2.0635 0.0000 -23078.8059 3887.5339 0.0000 0.0000 1520.4177 -17664.6227 151.3718 -19185.0404 -17658.7110 149.6797 333.0939 408.5012 49399.2266 1.1090 1.2372
ENERGY: 120000 3.1270 3.5251 2.5072 0.0000 -23022.9074 3832.9361 0.0000 0.0000 1523.3615 -17657.4505 151.6649 -19180.8120 -17652.8648 150.1585 -33.2283 59.7384 49489.9868 5.1070 4.9735
ENERGY: 125000 2.4771 2.8512 3.0146 0.0000 -23140.6434 3900.2944 0.0000 0.0000 1546.1017 -17685.9043 153.9289 -19232.0060 -17681.0881 149.9805 209.0241 251.1692 49511.4351 -1.5651 -1.5114
TCL: Running 50000 steps at 180 kelvin.
TCL: Setting parameter langevinTemp to 180
TCL: Running for 50000 steps
ETITLE: TS BOND ANGLE DIHED IMPRP ELECT VDW BOUNDARY MISC KINETIC TOTAL TEMP POTENTIAL TOTAL3 TEMPAVG PRESSURE GPRESSURE VOLUME PRESSAVG GPRESSAVG
ENERGY: 125000 2.4771 2.8512 3.0146 0.0000 -23140.6434 3900.2944 0.0000 0.0000 1545.3307 -17686.6754 153.8522 -19232.0060 -17683.6879 153.8522 195.7201 251.8604 49511.4351 195.7201 251.8604
ENERGY: 135000 2.6500 4.7762 2.4520 0.0000 -22395.6428 3668.3750 0.0000 0.0000 1782.5844 -16934.8051 177.4730 -18717.3895 -16930.3787 180.1625 256.6040 321.7130 49653.6213 5.2020 4.8112
ENERGY: 145000 3.1689 2.3978 3.2102 0.0000 -22424.9673 3618.3209 0.0000 0.0000 1799.0244 -16998.8451 179.1098 -18797.8695 -16994.8834 180.2790 -197.2406 -129.5136 49539.1648 5.2457 5.0193
ENERGY: 155000 3.5522 4.4571 2.0655 0.0000 -22235.0279 3495.7332 0.0000 0.0000 1790.5869 -16938.6330 178.2697 -18729.2199 -16933.5115 178.9421 -639.6570 -615.5679 49594.5983 2.2786 2.0166
ENERGY: 165000 2.1582 3.3135 2.3932 0.0000 -22403.7524 3693.1204 0.0000 0.0000 1785.6802 -16917.0869 177.7812 -18702.7671 -16911.1286 181.6990 259.8827 350.8961 49693.6157 0.5818 0.3866
ENERGY: 175000 4.5507 3.4195 2.2582 0.0000 -22272.8597 3497.5956 0.0000 0.0000 1768.0733 -16996.9624 176.0283 -18765.0357 -16992.9564 179.5362 -690.4591 -640.3639 49637.7357 6.0012 5.8476
TCL: Running 50000 steps at 210 kelvin.
TCL: Setting parameter langevinTemp to 210
TCL: Running for 50000 steps
ETITLE: TS BOND ANGLE DIHED IMPRP ELECT VDW BOUNDARY MISC KINETIC TOTAL TEMP POTENTIAL TOTAL3 TEMPAVG PRESSURE GPRESSURE VOLUME PRESSAVG GPRESSAVG
ENERGY: 175000 4.5507 3.4195 2.2582 0.0000 -22272.8597 3497.5956 0.0000 0.0000 1767.1684 -16997.8673 175.9382 -18765.0357 -16994.5909 175.9382 -700.6068 -640.9083 49637.7357 -700.6068 -640.9083
ENERGY: 185000 3.8183 5.3943 3.0481 0.0000 -21126.2502 3170.7634 0.0000 0.0000 2065.4193 -15877.8068 205.6319 -17943.2261 -15872.1298 210.6260 -404.9454 -319.1028 49440.1110 6.4943 7.0881
ENERGY: 195000 3.3999 7.7612 2.2871 0.0000 -21228.4303 3161.6148 0.0000 0.0000 2152.2701 -15901.0971 214.2787 -18053.3672 -15896.1172 210.4338 -592.3506 -513.2741 49443.6320 3.4643 3.2228
ENERGY: 205000 3.1420 5.1964 4.4754 0.0000 -21132.1678 3093.3509 0.0000 0.0000 2144.3807 -15881.6225 213.4932 -18026.0031 -15878.0611 209.7831 -737.9708 -684.1813 49391.2815 4.5023 4.7807
ENERGY: 215000 2.9776 3.7453 5.5257 0.0000 -21207.2298 3265.2353 0.0000 0.0000 2083.5251 -15846.2209 207.4345 -17929.7460 -15840.3891 212.6709 163.4045 243.0336 48889.5949 3.3627 3.6744
ENERGY: 225000 4.0744 6.0057 3.1166 0.0000 -21147.9872 3150.6849 0.0000 0.0000 2132.9516 -15851.1539 212.3553 -17984.1055 -15847.6889 208.6104 -495.3552 -406.9217 49053.3001 2.6619 2.4112
TCL: Running 50000 steps at 240 kelvin.
TCL: Setting parameter langevinTemp to 240
TCL: Running for 50000 steps
ETITLE: TS BOND ANGLE DIHED IMPRP ELECT VDW BOUNDARY MISC KINETIC TOTAL TEMP POTENTIAL TOTAL3 TEMPAVG PRESSURE GPRESSURE VOLUME PRESSAVG GPRESSAVG
ENERGY: 225000 4.0744 6.0057 3.1166 0.0000 -21147.9872 3150.6849 0.0000 0.0000 2131.9209 -15852.1847 212.2527 -17984.1055 -15847.9008 212.2527 -485.4937 -407.8926 49053.3001 -485.4937 -407.8926
ENERGY: 235000 1.9132 3.5367 4.8724 0.0000 -20203.4612 2972.0018 0.0000 0.0000 2369.3771 -14851.7600 235.8937 -17221.1371 -14848.0126 240.5559 333.2169 482.4347 49162.6120 2.2653 2.2495
ENERGY: 245000 2.4812 7.3980 3.2478 0.0000 -20167.3692 2919.5627 0.0000 0.0000 2412.9464 -14821.7332 240.2314 -17234.6795 -14817.9327 240.2489 23.8672 134.2599 49536.8665 0.0961 0.8203
ENERGY: 255000 1.6474 5.2681 5.0046 0.0000 -20108.5803 2941.1569 0.0000 0.0000 2382.6773 -14772.8261 237.2179 -17155.5034 -14767.2791 241.1522 -75.8772 51.9201 50171.5873 3.6513 3.9880
ENERGY: 265000 3.8391 3.7214 6.2357 0.0000 -20158.7146 2955.9510 0.0000 0.0000 2416.9338 -14772.0337 240.6284 -17188.9675 -14765.4369 240.8537 35.7429 162.9630 49625.1845 -1.0967 -0.9144
ENERGY: 275000 3.5411 3.0768 2.3897 0.0000 -20003.0338 2835.2221 0.0000 0.0000 2402.5032 -14756.3009 239.1917 -17158.8041 -14751.8440 241.0762 -268.5184 -230.1428 49541.9297 1.4502 1.2919
TCL: Running 50000 steps at 270 kelvin.
TCL: Setting parameter langevinTemp to 270
TCL: Running for 50000 steps
ETITLE: TS BOND ANGLE DIHED IMPRP ELECT VDW BOUNDARY MISC KINETIC TOTAL TEMP POTENTIAL TOTAL3 TEMPAVG PRESSURE GPRESSURE VOLUME PRESSAVG GPRESSAVG
ENERGY: 275000 3.5411 3.0768 2.3897 0.0000 -20003.0338 2835.2221 0.0000 0.0000 2401.3011 -14757.5029 239.0721 -17158.8041 -14753.5933 239.0721 -313.9322 -230.1234 49541.9297 -313.9322 -230.1234
ENERGY: 285000 2.5735 3.4753 4.5632 0.0000 -19000.8334 2507.4416 0.0000 0.0000 2703.0527 -13779.7271 269.1143 -16482.7798 -13771.9264 272.5058 -790.9996 -770.7086 51056.7769 -1.1570 -0.6575
ENERGY: 295000 3.4242 7.4588 4.1163 0.0000 -19194.5841 2702.4025 0.0000 0.0000 2728.7510 -13748.4314 271.6728 -16477.1824 -13742.8159 269.1707 119.1362 218.8516 50573.8393 5.4670 5.3154
ENERGY: 305000 3.7535 2.9320 3.4977 0.0000 -19239.6753 2735.7693 0.0000 0.0000 2728.0496 -13765.6731 271.6029 -16493.7227 -13759.1395 272.5834 156.1803 237.3505 50741.6149 3.9620 3.7583
ENERGY: 315000 1.6964 5.5308 3.0755 0.0000 -19302.2150 2715.8471 0.0000 0.0000 2758.0401 -13818.0252 274.5888 -16576.0653 -13809.0684 270.4310 160.8737 235.7217 50303.2017 6.6406 6.1952
ENERGY: 325000 3.4530 7.2417 8.3483 0.0000 -19156.8953 2627.7367 0.0000 0.0000 2689.1813 -13820.9344 267.7332 -16510.1156 -13814.2753 271.1141 -442.6646 -333.6423 51374.4010 6.7143 6.0952
TCL: Running 1000000 steps at 300 kelvin.
TCL: Setting parameter langevinTemp to 300
TCL: Running for 1000000 steps
ETITLE: TS BOND ANGLE DIHED IMPRP ELECT VDW BOUNDARY MISC KINETIC TOTAL TEMP POTENTIAL TOTAL3 TEMPAVG PRESSURE GPRESSURE VOLUME PRESSAVG GPRESSAVG
ENERGY: 325000 3.4530 7.2417 8.3483 0.0000 -19156.8953 2627.7367 0.0000 0.0000 2687.8206 -13822.2950 267.5978 -16510.1156 -13817.7052 267.5978 -412.3885 -334.0470 51374.4010 -412.3885 -334.0470
ENERGY: 525000 2.9084 7.5447 5.5098 0.0000 -18365.7183 2465.2551 0.0000 0.0000 3087.8792 -12796.6212 307.4273 -15884.5003 -12790.2821 301.5284 -93.8259 0.4933 51929.3154 1.2600 1.2798
ENERGY: 725000 5.1644 6.4018 3.4510 0.0000 -18511.3260 2529.0015 0.0000 0.0000 2964.4659 -13002.8413 295.1404 -15967.3072 -12997.7533 297.7897 70.1533 185.0107 51336.8102 6.2827 5.6858
ENERGY: 925000 2.0445 9.7176 4.0169 0.0000 -18552.0198 2626.2511 0.0000 0.0000 3057.1103 -12852.8794 304.3640 -15909.9898 -12847.8572 300.4631 700.8815 781.9138 51549.4750 2.7554 2.2462
ENERGY: 1125000 3.5964 5.3457 3.8625 0.0000 -18402.8038 2513.7510 0.0000 0.0000 3027.0106 -12849.2376 301.3673 -15876.2482 -12842.6688 301.1882 382.7871 417.9408 51330.5819 3.6823 3.9108
ENERGY: 1325000 4.1428 5.1008 2.0085 0.0000 -18402.6025 2470.6230 0.0000 0.0000 3046.2006 -12874.5267 303.2778 -15920.7274 -12870.2710 299.9108 -53.0764 16.8486 51843.2242 0.0592 0.0839
TCL: Exiting due to exit command.
