Info: SIMULATION PARAMETERS:
Info: TIMESTEP               2
Info: NUMBER OF STEPS        0
Info: STEPS PER CYCLE        10
Info: PERIODIC CELL BASIS 1  30.7469 0 0
Info: PERIODIC CELL BASIS 2  0 31.4438 0
Info: PERIODIC CELL BASIS 3  0 0 31.3946
Info: PERIODIC CELL CENTER   0 0 0
Info: WRAPPING WATERS AROUND PERIODIC BOUNDARIES ON OUTPUT.
Info: WRAPPING ALL CLUSTERS AROUND PERIODIC BOUNDARIES ON OUTPUT.
Info: FIRST LDB TIMESTEP     50
Info: LAST LDB TIMESTEP     -1
Info: HOM BACKGROUND SCALING 1
Info: PME BACKGROUND SCALING 1
Info: MIN ATOMS PER PATCH    40
Info: EMPTY PATCH LOAD       40 ATOMS
Info: VELOCITY FILE          mobley_6309289_equil.vel
Info: CENTER OF MASS MOVING INITIALLY? NO
Info: DIELECTRIC             1
Info: EXCLUDE                SCALED ONE-FOUR
Info: 1-4 ELECTROSTATICS SCALED BY 0.833333
Info: MODIFIED 1-4 VDW PARAMETERS WILL BE USED
Info: DCD FILENAME           mobley_6309289_prod.dcd
Info: DCD FREQUENCY          100000
Info: DCD FIRST STEP         100000
Info: DCD FILE WILL CONTAIN UNIT CELL DATA
Info: XST FILENAME           mobley_6309289_prod.xst
Info: XST FREQUENCY          100000
Info: NO VELOCITY DCD OUTPUT
Info: NO FORCE DCD OUTPUT
Info: OUTPUT FILENAME        mobley_6309289_prod
Info: BINARY OUTPUT FILES WILL BE USED
Info: RESTART FILENAME       mobley_6309289_prod.restart
Info: RESTART FREQUENCY      100000
Info: BINARY RESTART FILES WILL BE USED
Info: CUTOFF                 9
Info: PAIRLIST DISTANCE      11
Info: PAIRLIST SHRINK RATE   0.01
Info: PAIRLIST GROW RATE     0.01
Info: PAIRLIST TRIGGER       0.3
Info: PAIRLISTS PER CYCLE    2
Info: PAIRLISTS ENABLED
Info: MARGIN                 2
Info: HYDROGEN GROUP CUTOFF  2.5
Info: PATCH DIMENSION        15.5
Info: ENERGY OUTPUT STEPS    100000
Info: ENERGY EVALUATION STEPS    100000
Info: OUTPUT ENERGY PRECISION 4
Info: CROSSTERM ENERGY INCLUDED IN DIHEDRAL
Info: TIMING OUTPUT STEPS    1000000
Info: PRESSURE OUTPUT STEPS  100000
Info: ALCHEMICAL FEP ON
Info: FEP CURRENT LAMBDA VALUE     1
Info: FEP COMPARISON LAMBDA VALUE  0.95
Info: FEP INTRA-ALCHEMICAL NON-BONDED INTERACTIONS WILL BE RETAINED
Info: FEP INTRA-ALCHEMICAL BONDED INTERACTIONS WILL BE RETAINED
Info: FEP VDW SHIFTING COEFFICIENT 5
Info: FEP ELEC. ACTIVE FOR ANNIHILATED PARTICLES BETWEEN LAMBDA = 0 AND LAMBDA = 0.5
Info: FEP ELEC. ACTIVE FOR EXNIHILATED PARTICLES BETWEEN LAMBDA = 0.5 AND LAMBDA = 1
Info: FEP VDW ACTIVE FOR ANNIHILATED PARTICLES BETWEEN LAMBDA = 0 AND LAMBDA = 1
Info: FEP VDW ACTIVE FOR EXNIHILATED PARTICLES BETWEEN LAMBDA = 0 AND LAMBDA = 1
Info: FEP BOND ACTIVE FOR ANNIHILATED PARTICLES BETWEEN LAMBDA = 1 AND LAMBDA = 1
Info: FEP BOND ACTIVE FOR EXNIHILATED PARTICLES BETWEEN LAMBDA = 0 AND LAMBDA = 0
Info: LANGEVIN DYNAMICS ACTIVE
Info: LANGEVIN TEMPERATURE   300
Info: LANGEVIN USING BBK INTEGRATOR
Info: LANGEVIN DAMPING COEFFICIENT IS 1 INVERSE PS
Info: LANGEVIN DYNAMICS APPLIED TO HYDROGENS
Info: LANGEVIN PISTON PRESSURE CONTROL ACTIVE
Info:        TARGET PRESSURE IS 1.01325 BAR
Info:     OSCILLATION PERIOD IS 50 FS
Info:             DECAY TIME IS 25 FS
Info:     PISTON TEMPERATURE IS 300 K
Info:       PRESSURE CONTROL IS GROUP-BASED
Info:    INITIAL STRAIN RATE IS -0.000554595 -0.000554595 -0.000554595
Info:       CELL FLUCTUATION IS ISOTROPIC
Info: PARTICLE MESH EWALD (PME) ACTIVE
Info: PME TOLERANCE               1e-06
Info: PME EWALD COEFFICIENT       0.348832
Info: PME INTERPOLATION ORDER     4
Info: PME GRID DIMENSIONS         32 32 32
Info: PME MAXIMUM GRID SPACING    1
Info: PME CALCULATION WILL BE PERFORMED ON GPU
Info: FULL ELECTROSTATIC EVALUATION FREQUENCY      2
Info: USING VERLET I (r-RESPA) MTS SCHEME.
Info: C1 SPLITTING OF LONG RANGE ELECTROSTATICS
Info: PLACING ATOMS IN PATCHES BY HYDROGEN GROUPS
Info: RIGID BONDS TO HYDROGEN : ALL
Info:         ERROR TOLERANCE : 1e-08
Info:          MAX ITERATIONS : 100
Info: RIGID WATER USING SETTLE ALGORITHM
Info: RANDOM NUMBER SEED     1742420228
Info: USE HYDROGEN BONDS?    NO
Info: Using AMBER format force field!
Info: AMBER PARM FILE        mobley_6309289.prmtop
Info: COORDINATE PDB         mobley_6309289.pdb
Info: Exclusions will be read from PARM file!
Info: SCNB (VDW SCALING)     2
Info: USING ARITHMETIC MEAN TO COMBINE L-J SIGMA PARAMETERS
Info: BINARY COORDINATES     mobley_6309289_equil.coor
Info: SUMMARY OF PARAMETERS:
Info: 7 BONDS
Info: 9 ANGLES
Info:   9 HARMONIC
Info:   0 COSINE-BASED
Info: 10 DIHEDRAL
Info: 0 IMPROPER
Info: 0 CROSSTERM
Info: 0 VDW
Info: 28 VDW_PAIRS
Info: 0 NBTHOLE_PAIRS
Info: To read alchdata from file: mobley_6309289.pdb
Info: To read alchflag data from column: 5
Info: STRUCTURE SUMMARY:
Info: 2969 ATOMS
Info: 2969 BONDS
Info: 33 ANGLES
Info: 48 DIHEDRALS
Info: 0 IMPROPERS
Info: 0 CROSSTERMS
Info: 3047 EXCLUSIONS
Info: 2963 RIGID BONDS
Info: ALCH: 0 ATOMS TO DISAPPEAR IN FINAL STATE
Info: ALCH: 17 ATOMS TO APPEAR IN FINAL STATE
Info: 5944 DEGREES OF FREEDOM
Info: 990 HYDROGEN GROUPS
Info: 3 ATOMS IN LARGEST HYDROGEN GROUP
Info: 990 MIGRATION GROUPS
Info: 3 ATOMS IN LARGEST MIGRATION GROUP
Info: TOTAL MASS = 17812.9 amu
Info: TOTAL CHARGE = 0.000299975 e
Info: MASS DENSITY = 0.97455 g/cm^3
Info: ATOM DENSITY = 0.0978184 atoms/A^3
Info: ADDED 0 IMPLICIT EXCLUSIONS
Info: NONBONDED TABLE R-SQUARED SPACING: 0.0625
Info: NONBONDED TABLE SIZE: 705 POINTS
Info: REMOVING COM VELOCITY -0.0964416 0.0642078 -0.0303593
Info: Use 3D box decompostion in PME FFT.
Info: Updated CUDA force table with 4096 elements.
Info: Updated CUDA LJ table with 7 x 7 elements.
Info: Found 20 unique exclusion lists needing 52 bytes
TCL: Running for 1500000 steps
ETITLE: TS BOND ANGLE DIHED IMPRP ELECT VDW BOUNDARY MISC KINETIC TOTAL TEMP POTENTIAL TOTALAVG TEMPAVG PRESSURE GPRESSURE VOLUME PRESSAVG GPRESSAVG
ENERGY: 0 4.0462 7.8654 0.5282 0.0000 -10728.0432 1449.4411 0.0000 0.0000 1735.9539 -7530.2085 293.9340 -9266.1623 -7530.2085 293.9340 140.7249 211.4999 30352.1649 140.7249 211.4999
ENERGY: 300000 0.5784 7.9882 1.7624 0.0000 -10695.0959 1388.7820 0.0000 0.0000 1740.0609 -7555.9240 294.6294 -9295.9849 -7531.3515 297.2889 -506.9475 -452.9474 30545.6661 79.6397 151.1428
ENERGY: 600000 2.3307 7.3306 1.8394 0.0000 -10748.6996 1473.1354 0.0000 0.0000 1773.1226 -7490.9409 300.2274 -9264.0635 -7510.8971 299.0189 472.8806 524.7658 30550.4072 73.3364 150.5537
ENERGY: 900000 1.6181 8.1038 1.2067 0.0000 -10713.3391 1467.6314 0.0000 0.0000 1747.4349 -7487.3441 295.8779 -9234.7790 -7507.4120 299.1245 331.8265 369.4745 30757.6937 51.7427 120.9653
ENERGY: 1200000 0.3660 8.2017 0.4354 0.0000 -10696.9691 1418.9128 0.0000 0.0000 1779.6854 -7489.3678 301.3386 -9269.0532 -7515.3896 299.1525 -117.8533 -49.0809 30621.0976 7.4485 76.2538
ENERGY: 1500000 2.1453 6.1172 0.6284 0.0000 -10797.5666 1470.7447 0.0000 0.0000 1812.0004 -7505.9307 306.8103 -9317.9311 -7517.0689 299.8666 131.2480 192.8321 30407.3400 -22.2235 44.5425
TCL: Running FEP window   2: Lambda1 0.95   Lambda2 0.8999999999999999 [dLambda -0.050000000000000044]
TCL: Setting parameter firsttimestep to 0
TCL: Setting parameter alchLambda to 0.95
Info: NONBONDED TABLE R-SQUARED SPACING: 0.0625
Info: NONBONDED TABLE SIZE: 705 POINTS
TCL: Setting parameter alchLambda2 to 0.8999999999999999
Info: NONBONDED TABLE R-SQUARED SPACING: 0.0625
Info: NONBONDED TABLE SIZE: 705 POINTS
TCL: Running for 1500000 steps
ETITLE: TS BOND ANGLE DIHED IMPRP ELECT VDW BOUNDARY MISC KINETIC TOTAL TEMP POTENTIAL TOTALAVG TEMPAVG PRESSURE GPRESSURE VOLUME PRESSAVG GPRESSAVG
ENERGY: 0 2.1453 6.1172 0.6284 0.0000 -10796.4377 1470.1849 0.0000 0.0000 1811.0690 -7506.2930 306.6526 -9317.3620 -7506.2930 306.6526 112.5425 181.0131 30407.3400 112.5425 181.0131
ENERGY: 300000 0.3643 8.7530 0.9529 0.0000 -10628.7893 1389.1065 0.0000 0.0000 1755.3100 -7474.3026 297.2114 -9229.6126 -7516.0395 302.2871 -229.3449 -110.0868 30681.6182 4.3997 86.1642
ENERGY: 600000 0.9372 8.2516 0.5030 0.0000 -10735.4049 1399.7661 0.0000 0.0000 1808.3264 -7517.6206 306.1882 -9325.9470 -7541.8686 301.0537 -329.9848 -222.4064 30567.6922 35.6529 116.3713
ENERGY: 900000 3.7456 11.6229 1.2680 0.0000 -10803.8793 1481.5394 0.0000 0.0000 1788.9050 -7516.7985 302.8997 -9305.7034 -7527.0026 301.5752 235.5461 230.4407 30671.5643 101.7424 167.8715
ENERGY: 1200000 3.0909 5.8530 1.5084 0.0000 -10780.4297 1474.9964 0.0000 0.0000 1757.7741 -7537.2069 297.6286 -9294.9810 -7529.6670 301.1472 215.1546 221.8116 30619.7596 43.9585 102.3303
ENERGY: 1500000 2.3708 7.2033 0.3105 0.0000 -10793.4104 1457.9269 0.0000 0.0000 1781.1839 -7544.4150 301.5924 -9325.5989 -7528.0799 301.9381 305.1495 322.1217 30135.8855 79.7676 137.9017
TCL: Running FEP window   3: Lambda1 0.8999999999999999 Lambda2 0.8499999999999999 [dLambda -0.050000000000000044]
TCL: Setting parameter firsttimestep to 0
TCL: Setting parameter alchLambda to 0.8999999999999999
Info: NONBONDED TABLE R-SQUARED SPACING: 0.0625
Info: NONBONDED TABLE SIZE: 705 POINTS
TCL: Setting parameter alchLambda2 to 0.8499999999999999
Info: NONBONDED TABLE R-SQUARED SPACING: 0.0625
Info: NONBONDED TABLE SIZE: 705 POINTS
TCL: Running for 1500000 steps
ETITLE: TS BOND ANGLE DIHED IMPRP ELECT VDW BOUNDARY MISC KINETIC TOTAL TEMP POTENTIAL TOTALAVG TEMPAVG PRESSURE GPRESSURE VOLUME PRESSAVG GPRESSAVG
ENERGY: 0 2.3708 7.2033 0.3105 0.0000 -10792.3400 1457.3632 0.0000 0.0000 1780.2655 -7544.8267 301.4369 -9325.0922 -7544.8267 301.4369 235.9984 307.0004 30135.8855 235.9984 307.0004
ENERGY: 300000 0.7708 6.0026 1.0726 0.0000 -10669.0235 1493.5198 0.0000 0.0000 1813.4252 -7354.2326 307.0515 -9167.6578 -7459.2959 304.9606 680.9445 716.9241 30730.4214 235.7300 308.4528
ENERGY: 600000 3.1957 5.4318 0.8008 0.0000 -10642.2885 1412.1064 0.0000 0.0000 1784.0229 -7436.7309 302.0731 -9220.7538 -7469.2168 304.3048 -176.9520 -115.1441 30544.1482 -90.7338 -25.4383
ENERGY: 900000 1.3956 9.2558 1.2322 0.0000 -10731.5818 1418.4044 0.0000 0.0000 1818.0947 -7483.1991 307.8422 -9301.2938 -7473.4091 304.9331 -384.7877 -342.4591 31183.3268 -205.5036 -138.7442
ENERGY: 1200000 2.7496 9.3374 0.9131 0.0000 -10709.3033 1491.0441 0.0000 0.0000 1810.8009 -7394.4582 306.6072 -9205.2591 -7464.0250 304.9305 611.6517 654.6232 30543.5673 -118.4994 -59.5491
ENERGY: 1500000 1.3790 5.0255 1.1055 0.0000 -10722.6719 1464.4637 0.0000 0.0000 1810.9645 -7439.7338 306.6349 -9250.6982 -7463.3663 304.9488 211.9765 296.1104 30602.2731 -68.0616 -9.3566
TCL: Running FEP window   4: Lambda1 0.8499999999999999 Lambda2 0.7999999999999998 [dLambda -0.050000000000000044]
TCL: Setting parameter firsttimestep to 0
TCL: Setting parameter alchLambda to 0.8499999999999999
Info: NONBONDED TABLE R-SQUARED SPACING: 0.0625
Info: NONBONDED TABLE SIZE: 705 POINTS
TCL: Setting parameter alchLambda2 to 0.7999999999999998
Info: NONBONDED TABLE R-SQUARED SPACING: 0.0625
Info: NONBONDED TABLE SIZE: 705 POINTS
TCL: Running for 1500000 steps
ETITLE: TS BOND ANGLE DIHED IMPRP ELECT VDW BOUNDARY MISC KINETIC TOTAL TEMP POTENTIAL TOTALAVG TEMPAVG PRESSURE GPRESSURE VOLUME PRESSAVG GPRESSAVG
ENERGY: 0 1.3790 5.0256 1.1055 0.0000 -10721.4782 1463.5004 0.0000 0.0000 1810.0655 -7440.4023 306.4826 -9250.4678 -7440.4023 306.4826 200.7604 280.8589 30602.2731 200.7604 280.8589
ENERGY: 300000 1.1460 9.8385 0.9087 0.0000 -10707.5221 1439.9919 0.0000 0.0000 1827.9473 -7427.6897 309.5104 -9255.6370 -7496.5347 305.0389 -63.8347 52.9664 30714.7384 -32.2386 67.2372
ENERGY: 600000 0.5848 9.8049 1.6651 0.0000 -10772.5295 1431.5908 0.0000 0.0000 1826.9199 -7501.9640 309.3364 -9328.8838 -7512.2135 302.7877 -54.9263 22.7149 30332.1440 -24.9563 50.9278
ENERGY: 900000 2.1618 7.9162 2.5677 0.0000 -10881.2033 1518.5323 0.0000 0.0000 1821.9323 -7528.0930 308.4919 -9350.0254 -7512.6852 302.8000 325.2797 353.6131 30692.2997 105.8163 176.2501
ENERGY: 1200000 2.0709 6.3601 0.8508 0.0000 -10861.3096 1474.4432 0.0000 0.0000 1783.4037 -7594.1809 301.9682 -9377.5846 -7524.2919 302.2789 38.8092 133.3882 30380.9142 74.5770 153.1015
ENERGY: 1500000 0.9201 6.3618 0.9102 0.0000 -10678.3776 1396.4870 0.0000 0.0000 1773.5159 -7500.1826 300.2940 -9273.6984 -7534.2606 301.3034 -244.1560 -170.8286 30488.7655 116.9772 196.5519
TCL: Running FEP window   5: Lambda1 0.7999999999999998 Lambda2 0.7499999999999998 [dLambda -0.050000000000000044]
TCL: Setting parameter firsttimestep to 0
TCL: Setting parameter alchLambda to 0.7999999999999998
Info: NONBONDED TABLE R-SQUARED SPACING: 0.0625
Info: NONBONDED TABLE SIZE: 705 POINTS
TCL: Setting parameter alchLambda2 to 0.7499999999999998
Info: NONBONDED TABLE R-SQUARED SPACING: 0.0625
Info: NONBONDED TABLE SIZE: 705 POINTS
TCL: Running for 1500000 steps
ETITLE: TS BOND ANGLE DIHED IMPRP ELECT VDW BOUNDARY MISC KINETIC TOTAL TEMP POTENTIAL TOTALAVG TEMPAVG PRESSURE GPRESSURE VOLUME PRESSAVG GPRESSAVG
ENERGY: 0 0.9201 6.3618 0.9102 0.0000 -10677.1603 1396.4369 0.0000 0.0000 1772.6010 -7499.9303 300.1391 -9272.5313 -7499.9303 300.1391 -265.4439 -180.3768 30488.7655 -265.4439 -180.3768
ENERGY: 300000 1.7690 6.2318 1.1784 0.0000 -10675.4122 1356.0481 0.0000 0.0000 1789.6354 -7520.5495 303.0234 -9310.1849 -7546.5548 299.6397 -930.7884 -801.8685 30931.2005 -352.8498 -247.6192
ENERGY: 600000 1.3016 5.2671 1.1265 0.0000 -10723.6828 1438.1837 0.0000 0.0000 1746.9136 -7530.8903 295.7897 -9277.8039 -7545.5909 299.9488 -69.1271 29.1331 30568.2502 -225.6321 -133.1977
ENERGY: 900000 2.8865 5.1529 0.9595 0.0000 -10736.5119 1417.5501 0.0000 0.0000 1755.5567 -7554.4063 297.2531 -9309.9630 -7553.2048 298.5064 -399.8061 -391.3301 31052.6382 -81.1780 -9.8483
ENERGY: 1200000 3.0096 7.6137 1.6548 0.0000 -10729.5836 1393.1981 0.0000 0.0000 1779.1754 -7544.9321 301.2523 -9324.1075 -7552.1292 299.1411 -347.0706 -307.9506 30168.9827 -102.8361 -43.0547
ENERGY: 1500000 1.9241 6.3615 0.7118 0.0000 -10750.9823 1453.6418 0.0000 0.0000 1739.4071 -7548.9361 294.5187 -9288.3432 -7553.0823 298.3218 177.3802 184.4888 30519.5485 -94.4960 -38.5023
TCL: Running FEP window   6: Lambda1 0.7499999999999998 Lambda2 0.6999999999999997 [dLambda -0.050000000000000044]
TCL: Setting parameter firsttimestep to 0
TCL: Setting parameter alchLambda to 0.7499999999999998
Info: NONBONDED TABLE R-SQUARED SPACING: 0.0625
Info: NONBONDED TABLE SIZE: 705 POINTS
TCL: Setting parameter alchLambda2 to 0.6999999999999997
Info: NONBONDED TABLE R-SQUARED SPACING: 0.0625
Info: NONBONDED TABLE SIZE: 705 POINTS
TCL: Running for 1500000 steps
ETITLE: TS BOND ANGLE DIHED IMPRP ELECT VDW BOUNDARY MISC KINETIC TOTAL TEMP POTENTIAL TOTALAVG TEMPAVG PRESSURE GPRESSURE VOLUME PRESSAVG GPRESSAVG
ENERGY: 0 1.9241 6.3615 0.7118 0.0000 -10750.0870 1453.4984 0.0000 0.0000 1738.4986 -7549.0927 294.3648 -9287.5913 -7549.0927 294.3648 102.1049 174.8980 30519.5485 102.1049 174.8980
ENERGY: 300000 2.4616 9.0363 1.0095 0.0000 -10869.5822 1519.3928 0.0000 0.0000 1734.8122 -7602.8698 293.7407 -9337.6820 -7552.6106 295.4919 -78.6245 49.1223 31070.5919 36.2371 139.5622
ENERGY: 600000 1.1532 4.6803 0.7639 0.0000 -10749.6529 1409.3643 0.0000 0.0000 1733.3821 -7600.3091 293.4985 -9333.6912 -7555.7019 296.0916 -330.0948 -298.9145 30500.7378 -74.3268 -9.5052
ENERGY: 900000 1.4541 6.9470 1.4313 0.0000 -10912.1375 1525.8239 0.0000 0.0000 1790.9981 -7585.4832 303.2541 -9376.4812 -7553.0695 298.0324 422.5006 445.3005 30262.0880 -54.4134 2.6763
ENERGY: 1200000 0.6263 12.6064 2.6715 0.0000 -10712.5068 1446.5387 0.0000 0.0000 1721.4031 -7528.6608 291.4702 -9250.0639 -7553.6555 298.2181 70.2103 144.3011 30645.5854 -106.9815 -47.7527
ENERGY: 1500000 3.5565 4.4372 1.4966 0.0000 -10741.8364 1400.4235 0.0000 0.0000 1781.3855 -7550.5372 301.6265 -9331.9227 -7552.8535 298.5097 -752.6272 -733.8155 30902.7575 -218.5197 -164.3564
TCL: Running FEP window   7: Lambda1 0.6999999999999997 Lambda2 0.6499999999999997 [dLambda -0.050000000000000044]
TCL: Setting parameter firsttimestep to 0
TCL: Setting parameter alchLambda to 0.6999999999999997
Info: NONBONDED TABLE R-SQUARED SPACING: 0.0625
Info: NONBONDED TABLE SIZE: 705 POINTS
TCL: Setting parameter alchLambda2 to 0.6499999999999997
Info: NONBONDED TABLE R-SQUARED SPACING: 0.0625
Info: NONBONDED TABLE SIZE: 705 POINTS
TCL: Running for 1500000 steps
ETITLE: TS BOND ANGLE DIHED IMPRP ELECT VDW BOUNDARY MISC KINETIC TOTAL TEMP POTENTIAL TOTALAVG TEMPAVG PRESSURE GPRESSURE VOLUME PRESSAVG GPRESSAVG
ENERGY: 0 3.5565 4.4372 1.4966 0.0000 -10740.1008 1399.8952 0.0000 0.0000 1780.4790 -7550.2364 301.4730 -9330.7154 -7550.2364 301.4730 -820.6925 -742.7645 30902.7575 -820.6925 -742.7645
ENERGY: 300000 1.1861 5.2966 0.8517 0.0000 -10640.8432 1361.3633 0.0000 0.0000 1732.4883 -7539.6571 293.3472 -9272.1455 -7531.7862 298.7973 -818.5849 -680.6818 30905.2549 -290.4861 -212.3979
ENERGY: 600000 1.6999 10.2567 0.8686 0.0000 -10839.7995 1461.6265 0.0000 0.0000 1786.1737 -7579.1741 302.4372 -9365.3478 -7548.5944 299.2340 -12.8452 67.4656 30291.3569 -285.3721 -215.6591
ENERGY: 900000 2.6366 6.9764 0.9547 0.0000 -10700.7385 1398.4314 0.0000 0.0000 1768.8437 -7522.8958 299.5029 -9291.7395 -7535.1061 300.2660 -575.3368 -452.8812 30687.5913 -247.4069 -180.3710
ENERGY: 1200000 0.4075 7.6361 1.1536 0.0000 -10715.9875 1470.1392 0.0000 0.0000 1797.5230 -7439.1281 304.3589 -9236.6512 -7517.2161 301.1047 364.8376 364.4917 30716.0980 -185.1587 -121.3300
ENERGY: 1500000 0.7625 7.7220 0.5165 0.0000 -10769.6416 1434.8944 0.0000 0.0000 1801.4317 -7524.3144 305.0208 -9325.7461 -7519.6276 300.9398 -152.4894 -69.2011 30429.9644 -128.1781 -65.3662
TCL: Running FEP window   8: Lambda1 0.6499999999999997 Lambda2 0.5999999999999996 [dLambda -0.050000000000000044]
TCL: Setting parameter firsttimestep to 0
TCL: Setting parameter alchLambda to 0.6499999999999997
Info: NONBONDED TABLE R-SQUARED SPACING: 0.0625
Info: NONBONDED TABLE SIZE: 705 POINTS
TCL: Setting parameter alchLambda2 to 0.5999999999999996
Info: NONBONDED TABLE R-SQUARED SPACING: 0.0625
Info: NONBONDED TABLE SIZE: 705 POINTS
TCL: Running for 1500000 steps
ETITLE: TS BOND ANGLE DIHED IMPRP ELECT VDW BOUNDARY MISC KINETIC TOTAL TEMP POTENTIAL TOTALAVG TEMPAVG PRESSURE GPRESSURE VOLUME PRESSAVG GPRESSAVG
ENERGY: 0 0.7625 7.7220 0.5165 0.0000 -10769.3855 1435.4233 0.0000 0.0000 1800.5190 -7524.4422 304.8662 -9324.9611 -7524.4422 304.8662 -147.6461 -67.9927 30429.9644 -147.6461 -67.9927
ENERGY: 300000 1.8512 8.5497 0.9994 0.0000 -10809.8106 1463.4738 0.0000 0.0000 1755.9488 -7578.9877 297.3195 -9334.9366 -7542.2437 300.3857 -18.5314 63.5700 30645.6178 22.3284 100.4047
ENERGY: 600000 2.2096 6.4193 0.9713 0.0000 -10681.1943 1400.9458 0.0000 0.0000 1808.9873 -7461.6610 306.3001 -9270.6483 -7516.3817 301.5715 -357.1433 -326.0164 30597.8208 -211.0575 -143.8251
ENERGY: 900000 0.7154 6.9458 1.0004 0.0000 -10770.2146 1455.1703 0.0000 0.0000 1782.2140 -7524.1686 301.7668 -9306.3826 -7522.6013 301.0998 11.1938 104.3030 30548.5869 -204.1102 -132.8897
ENERGY: 1200000 1.8100 7.1276 1.0629 0.0000 -10847.6654 1514.3179 0.0000 0.0000 1707.1963 -7616.1508 289.0647 -9323.3471 -7537.2681 299.5968 357.9903 392.5992 30481.0828 -187.1785 -114.2333
ENERGY: 1500000 0.7812 9.2573 1.6224 0.0000 -10743.7285 1426.7535 0.0000 0.0000 1744.1428 -7561.1713 295.3205 -9305.3141 -7534.6153 299.3053 -245.6225 -159.2100 30384.7792 -171.7683 -98.0155
TCL: Running FEP window   9: Lambda1 0.5999999999999996 Lambda2 0.5499999999999996 [dLambda -0.050000000000000044]
TCL: Setting parameter firsttimestep to 0
TCL: Setting parameter alchLambda to 0.5999999999999996
Info: NONBONDED TABLE R-SQUARED SPACING: 0.0625
Info: NONBONDED TABLE SIZE: 705 POINTS
TCL: Setting parameter alchLambda2 to 0.5499999999999996
Info: NONBONDED TABLE R-SQUARED SPACING: 0.0625
Info: NONBONDED TABLE SIZE: 705 POINTS
TCL: Running for 1500000 steps
ETITLE: TS BOND ANGLE DIHED IMPRP ELECT VDW BOUNDARY MISC KINETIC TOTAL TEMP POTENTIAL TOTALAVG TEMPAVG PRESSURE GPRESSURE VOLUME PRESSAVG GPRESSAVG
ENERGY: 0 0.7812 9.2573 1.6224 0.0000 -10743.6974 1427.0598 0.0000 0.0000 1743.2464 -7561.7303 295.1687 -9304.9767 -7561.7303 295.1687 -250.5570 -162.0616 30384.7792 -250.5570 -162.0616
ENERGY: 300000 1.6906 7.7217 0.9105 0.0000 -10615.8095 1405.1579 0.0000 0.0000 1756.5428 -7443.7861 297.4201 -9200.3288 -7514.2119 298.1332 -231.0473 -188.1036 30708.6863 -213.4538 -152.8582
ENERGY: 600000 0.6952 10.4471 2.2030 0.0000 -10900.5559 1488.9867 0.0000 0.0000 1786.3403 -7611.8836 302.4654 -9398.2238 -7532.1283 299.6880 345.6187 376.1642 30019.4286 -20.9822 32.0474
ENERGY: 900000 1.5944 8.1496 1.0780 0.0000 -10530.5570 1324.4924 0.0000 0.0000 1791.4064 -7403.8361 303.3233 -9195.2425 -7518.4921 299.8965 -751.8936 -669.5388 30831.6217 -211.1644 -155.8278
ENERGY: 1200000 3.3788 6.6264 1.2892 0.0000 -10738.9660 1430.2063 0.0000 0.0000 1767.3941 -7530.0713 299.2575 -9297.4653 -7523.6657 299.4333 -170.3265 -173.4555 30434.5404 -181.1399 -134.1443
ENERGY: 1500000 1.4039 4.8331 0.9054 0.0000 -10650.0265 1362.6159 0.0000 0.0000 1741.6681 -7538.6001 294.9015 -9280.2682 -7523.3858 298.9444 -414.8165 -384.7272 30316.1645 -136.3663 -81.0736
TCL: Running FEP window  10: Lambda1 0.5499999999999996 Lambda2 0.4999999999999996 [dLambda -0.04999999999999999]
TCL: Setting parameter firsttimestep to 0
TCL: Setting parameter alchLambda to 0.5499999999999996
Info: NONBONDED TABLE R-SQUARED SPACING: 0.0625
Info: NONBONDED TABLE SIZE: 705 POINTS
TCL: Setting parameter alchLambda2 to 0.4999999999999996
Info: NONBONDED TABLE R-SQUARED SPACING: 0.0625
Info: NONBONDED TABLE SIZE: 705 POINTS
TCL: Running for 1500000 steps
ETITLE: TS BOND ANGLE DIHED IMPRP ELECT VDW BOUNDARY MISC KINETIC TOTAL TEMP POTENTIAL TOTALAVG TEMPAVG PRESSURE GPRESSURE VOLUME PRESSAVG GPRESSAVG
ENERGY: 0 1.4039 4.8331 0.9054 0.0000 -10649.9604 1362.5021 0.0000 0.0000 1740.7670 -7539.5488 294.7489 -9280.3158 -7539.5488 294.7489 -476.4275 -393.2062 30316.1645 -476.4275 -393.2062
ENERGY: 300000 1.3851 8.3177 1.6098 0.0000 -10745.7294 1482.2865 0.0000 0.0000 1806.8217 -7445.3085 305.9334 -9252.1302 -7532.5008 301.2018 453.4142 456.3557 30583.9059 -87.4355 -53.4061
ENERGY: 600000 3.2726 4.6269 0.8083 0.0000 -10687.5042 1457.0804 0.0000 0.0000 1760.3094 -7461.4065 298.0579 -9221.7159 -7508.3958 302.5010 269.3045 351.7800 30681.1555 3.7510 39.9145
ENERGY: 900000 2.5522 7.3218 2.4082 0.0000 -10872.0585 1563.6484 0.0000 0.0000 1751.0318 -7545.0962 296.4870 -9296.1279 -7509.2497 301.6834 974.0747 1003.3864 30387.9719 131.2692 176.5585
ENERGY: 1200000 1.6864 6.8296 0.4603 0.0000 -10775.2757 1492.6953 0.0000 0.0000 1758.6001 -7515.0039 297.7684 -9273.6040 -7513.4193 301.6357 394.5506 417.2089 30471.8489 94.7780 148.2923
ENERGY: 1500000 0.8172 6.4483 0.4477 0.0000 -10839.9783 1472.7801 0.0000 0.0000 1753.4416 -7606.0433 296.8950 -9359.4849 -7527.1092 300.6301 115.9577 218.6380 30125.2560 107.5800 164.6231
TCL: Running FEP window  11: Lambda1 0.4999999999999996 Lambda2 0.4499999999999996 [dLambda -0.04999999999999999]
TCL: Setting parameter firsttimestep to 0
TCL: Setting parameter alchLambda to 0.4999999999999996
Info: NONBONDED TABLE R-SQUARED SPACING: 0.0625
Info: NONBONDED TABLE SIZE: 705 POINTS
TCL: Setting parameter alchLambda2 to 0.4499999999999996
Info: NONBONDED TABLE R-SQUARED SPACING: 0.0625
Info: NONBONDED TABLE SIZE: 705 POINTS
TCL: Running for 1500000 steps
ETITLE: TS BOND ANGLE DIHED IMPRP ELECT VDW BOUNDARY MISC KINETIC TOTAL TEMP POTENTIAL TOTALAVG TEMPAVG PRESSURE GPRESSURE VOLUME PRESSAVG GPRESSAVG
ENERGY: 0 0.8172 6.4483 0.4477 0.0000 -10840.0432 1473.3963 0.0000 0.0000 1752.5436 -7606.3901 296.7429 -9358.9337 -7606.3901 296.7429 133.8086 218.5938 30125.2560 133.8086 218.5938
ENERGY: 300000 2.6505 9.8992 1.4580 0.0000 -10724.3832 1425.8259 0.0000 0.0000 1797.3943 -7487.1553 304.3371 -9284.5496 -7522.9268 300.7182 -6.5501 71.4240 30302.9255 164.0396 250.9686
ENERGY: 600000 2.8293 9.3396 1.6912 0.0000 -10802.0515 1483.3830 0.0000 0.0000 1798.2692 -7506.5392 304.4853 -9304.8084 -7517.4827 301.7648 583.2802 666.1934 30216.9631 91.9197 164.6954
ENERGY: 900000 0.9154 8.9334 0.6335 0.0000 -10701.4108 1498.6281 0.0000 0.0000 1701.7483 -7490.5520 288.1422 -9192.3003 -7510.1524 300.8138 452.3023 582.4234 30650.0221 240.5827 309.4288
ENERGY: 1200000 0.7709 9.9626 0.7434 0.0000 -10683.6984 1349.6876 0.0000 0.0000 1717.5618 -7604.9720 290.8198 -9322.5338 -7521.2091 299.9284 -782.5773 -784.3228 30282.8406 64.0386 126.5782
ENERGY: 1500000 1.3597 6.5643 1.7957 0.0000 -10797.8433 1422.7749 0.0000 0.0000 1776.0143 -7589.3344 300.7170 -9365.3487 -7529.1838 300.3975 -450.6622 -404.5106 30481.4384 22.5066 80.8155
TCL: Running FEP window  12: Lambda1 0.4499999999999996 Lambda2 0.39999999999999963 [dLambda -0.04999999999999999]
TCL: Setting parameter firsttimestep to 0
TCL: Setting parameter alchLambda to 0.4499999999999996
Info: NONBONDED TABLE R-SQUARED SPACING: 0.0625
Info: NONBONDED TABLE SIZE: 705 POINTS
TCL: Setting parameter alchLambda2 to 0.39999999999999963
Info: NONBONDED TABLE R-SQUARED SPACING: 0.0625
Info: NONBONDED TABLE SIZE: 705 POINTS
TCL: Running for 1500000 steps
ETITLE: TS BOND ANGLE DIHED IMPRP ELECT VDW BOUNDARY MISC KINETIC TOTAL TEMP POTENTIAL TOTALAVG TEMPAVG PRESSURE GPRESSURE VOLUME PRESSAVG GPRESSAVG
ENERGY: 0 1.3597 6.5643 1.7957 0.0000 -10797.8427 1422.7609 0.0000 0.0000 1775.1520 -7590.2102 300.5710 -9365.3622 -7590.2102 300.5710 -504.9839 -413.8018 30481.4384 -504.9839 -413.8018
ENERGY: 300000 1.0767 10.5097 0.9825 0.0000 -10756.2187 1395.3039 0.0000 0.0000 1778.4783 -7569.8677 301.1342 -9348.3459 -7521.3912 307.0016 -482.0234 -517.1751 30557.6897 -309.7126 -281.1403
ENERGY: 600000 0.4847 7.5965 1.2391 0.0000 -10729.7494 1422.7192 0.0000 0.0000 1748.1076 -7549.6023 295.9918 -9297.7099 -7513.0249 302.4599 -22.2381 31.3785 30390.7582 -291.4161 -245.4935
ENERGY: 900000 1.8838 6.5191 1.1252 0.0000 -10695.9139 1428.6813 0.0000 0.0000 1779.7352 -7477.9692 301.3471 -9257.7044 -7508.5077 300.9621 59.4098 123.0977 30176.7149 -243.8442 -193.2876
ENERGY: 1200000 4.9663 6.6851 1.1452 0.0000 -10682.8097 1445.6907 0.0000 0.0000 1748.2620 -7476.0605 296.0180 -9224.3224 -7510.9420 300.5449 247.8276 310.9435 30319.4658 -171.7812 -113.3080
ENERGY: 1500000 2.9307 7.8119 1.0913 0.0000 -10764.7490 1452.7314 0.0000 0.0000 1801.2764 -7498.9073 304.9945 -9300.1838 -7523.0057 300.0426 -78.7031 -18.5687 30731.1586 -174.8200 -116.8669
TCL: Running FEP window  13: Lambda1 0.39999999999999963 Lambda2 0.34999999999999964 [dLambda -0.04999999999999999]
TCL: Setting parameter firsttimestep to 0
TCL: Setting parameter alchLambda to 0.39999999999999963
Info: NONBONDED TABLE R-SQUARED SPACING: 0.0625
Info: NONBONDED TABLE SIZE: 705 POINTS
TCL: Setting parameter alchLambda2 to 0.34999999999999964
Info: NONBONDED TABLE R-SQUARED SPACING: 0.0625
Info: NONBONDED TABLE SIZE: 705 POINTS
TCL: Running for 1500000 steps
ETITLE: TS BOND ANGLE DIHED IMPRP ELECT VDW BOUNDARY MISC KINETIC TOTAL TEMP POTENTIAL TOTALAVG TEMPAVG PRESSURE GPRESSURE VOLUME PRESSAVG GPRESSAVG
ENERGY: 0 2.9307 7.8119 1.0913 0.0000 -10764.7489 1453.1311 0.0000 0.0000 1800.3664 -7499.4175 304.8404 -9299.7839 -7499.4175 304.8404 -96.3837 -19.6495 30731.1586 -96.3837 -19.6495
ENERGY: 300000 1.0675 7.1445 1.0540 0.0000 -10700.4969 1385.4867 0.0000 0.0000 1723.3859 -7582.3583 291.8059 -9305.7442 -7518.8867 302.0800 -465.2188 -392.2565 30614.0950 131.3734 191.9734
ENERGY: 600000 2.5139 8.0758 0.7816 0.0000 -10685.6479 1469.9061 0.0000 0.0000 1777.9228 -7426.4477 301.0402 -9204.3705 -7498.9606 301.9115 435.7411 442.5072 30615.1720 191.4500 253.7583
ENERGY: 900000 1.1955 5.5762 0.8812 0.0000 -10809.9077 1444.7437 0.0000 0.0000 1795.7471 -7561.7640 304.0582 -9357.5111 -7511.1959 301.9724 -188.5636 -148.2347 30497.1376 258.2978 320.7697
ENERGY: 1200000 2.5776 5.5654 1.4704 0.0000 -10600.7025 1332.8651 0.0000 0.0000 1783.1197 -7475.1043 301.9201 -9258.2240 -7508.2368 301.0906 -900.5265 -811.2355 30632.1763 131.3258 189.5362
ENERGY: 1500000 2.4232 10.8796 0.9364 0.0000 -10821.9514 1488.7905 0.0000 0.0000 1763.1420 -7555.7796 298.5375 -9318.9216 -7513.0976 300.4944 92.1268 126.1263 30837.4395 130.0598 187.4859
TCL: Running FEP window  14: Lambda1 0.34999999999999964 Lambda2 0.29999999999999966 [dLambda -0.04999999999999999]
TCL: Setting parameter firsttimestep to 0
TCL: Setting parameter alchLambda to 0.34999999999999964
Info: NONBONDED TABLE R-SQUARED SPACING: 0.0625
Info: NONBONDED TABLE SIZE: 705 POINTS
TCL: Setting parameter alchLambda2 to 0.29999999999999966
Info: NONBONDED TABLE R-SQUARED SPACING: 0.0625
Info: NONBONDED TABLE SIZE: 705 POINTS
TCL: Running for 1500000 steps
ETITLE: TS BOND ANGLE DIHED IMPRP ELECT VDW BOUNDARY MISC KINETIC TOTAL TEMP POTENTIAL TOTALAVG TEMPAVG PRESSURE GPRESSURE VOLUME PRESSAVG GPRESSAVG
ENERGY: 0 2.4232 10.8796 0.9364 0.0000 -10821.9488 1488.5549 0.0000 0.0000 1762.2976 -7556.8571 298.3945 -9319.1547 -7556.8571 298.3945 40.9717 118.9691 30837.4395 40.9717 118.9691
ENERGY: 300000 1.1991 6.0114 0.9446 0.0000 -10682.7857 1444.2811 0.0000 0.0000 1783.7585 -7446.5911 302.0283 -9230.3496 -7476.9535 301.7830 241.9417 251.9148 30383.8556 412.7179 462.0573
ENERGY: 600000 1.9787 7.1994 1.3965 0.0000 -10811.1390 1452.9383 0.0000 0.0000 1794.4438 -7553.1823 303.8376 -9347.6261 -7506.9637 299.5755 -70.7833 -38.3236 30589.0431 -38.3621 15.7991
ENERGY: 900000 4.5644 6.6755 0.9551 0.0000 -10795.5895 1500.3897 0.0000 0.0000 1783.5910 -7499.4139 301.9999 -9283.0049 -7503.4433 300.8982 475.6403 573.1173 30344.7803 169.1329 227.9849
ENERGY: 1200000 2.3125 5.0195 1.0189 0.0000 -10779.5795 1476.6610 0.0000 0.0000 1783.4653 -7511.1024 301.9787 -9294.5677 -7508.8836 301.3684 375.6200 422.2724 30071.0343 76.0264 132.5723
ENERGY: 1500000 3.1094 5.3856 1.3638 0.0000 -10793.0390 1431.4831 0.0000 0.0000 1764.8170 -7586.8800 298.8211 -9351.6971 -7522.1075 300.6677 -229.6350 -257.0533 30465.6858 -40.1008 11.3373
TCL: Running FEP window  15: Lambda1 0.29999999999999966 Lambda2 0.24999999999999967 [dLambda -0.04999999999999999]
TCL: Setting parameter firsttimestep to 0
TCL: Setting parameter alchLambda to 0.29999999999999966
Info: NONBONDED TABLE R-SQUARED SPACING: 0.0625
Info: NONBONDED TABLE SIZE: 705 POINTS
TCL: Setting parameter alchLambda2 to 0.24999999999999967
Info: NONBONDED TABLE R-SQUARED SPACING: 0.0625
Info: NONBONDED TABLE SIZE: 705 POINTS
TCL: Running for 1500000 steps
ETITLE: TS BOND ANGLE DIHED IMPRP ELECT VDW BOUNDARY MISC KINETIC TOTAL TEMP POTENTIAL TOTALAVG TEMPAVG PRESSURE GPRESSURE VOLUME PRESSAVG GPRESSAVG
ENERGY: 0 3.1094 5.3856 1.3638 0.0000 -10793.0386 1430.8551 0.0000 0.0000 1763.9128 -7588.4118 298.6680 -9352.3245 -7588.4118 298.6680 -353.7659 -264.7433 30465.6858 -353.7659 -264.7433
ENERGY: 300000 0.6781 8.7449 1.0012 0.0000 -10503.7495 1360.9619 0.0000 0.0000 1772.2352 -7360.1281 300.0772 -9132.3633 -7475.0947 301.2798 -371.2197 -328.3472 31058.5612 -409.5585 -317.2557
ENERGY: 600000 1.7445 3.0210 0.9571 0.0000 -10681.9287 1419.8121 0.0000 0.0000 1797.8912 -7458.5027 304.4213 -9256.3939 -7481.6739 300.7782 129.8884 228.3972 29899.9689 -306.5821 -223.0060
ENERGY: 900000 2.6935 8.3587 0.7273 0.0000 -10681.1928 1455.8746 0.0000 0.0000 1791.9152 -7421.6235 303.4094 -9213.5387 -7504.0035 300.3568 336.0489 422.4152 30343.3674 -208.3187 -122.9256
ENERGY: 1200000 0.8463 6.5536 0.8877 0.0000 -10712.6899 1375.6412 0.0000 0.0000 1723.2641 -7605.4970 291.7853 -9328.7611 -7508.6691 299.8376 -519.6085 -462.4186 30249.8195 -126.2349 -45.5367
ENERGY: 1500000 1.0035 3.0661 0.8300 0.0000 -10816.5852 1571.7217 0.0000 0.0000 1788.8770 -7451.0870 302.8950 -9239.9640 -7504.9481 300.0861 847.6792 868.5398 30869.7754 -13.7581 59.8741
TCL: Running FEP window  16: Lambda1 0.24999999999999967 Lambda2 0.19999999999999968 [dLambda -0.04999999999999999]
TCL: Setting parameter firsttimestep to 0
TCL: Setting parameter alchLambda to 0.24999999999999967
Info: NONBONDED TABLE R-SQUARED SPACING: 0.0625
Info: NONBONDED TABLE SIZE: 705 POINTS
TCL: Setting parameter alchLambda2 to 0.19999999999999968
Info: NONBONDED TABLE R-SQUARED SPACING: 0.0625
Info: NONBONDED TABLE SIZE: 705 POINTS
TCL: Running for 1500000 steps
ETITLE: TS BOND ANGLE DIHED IMPRP ELECT VDW BOUNDARY MISC KINETIC TOTAL TEMP POTENTIAL TOTALAVG TEMPAVG PRESSURE GPRESSURE VOLUME PRESSAVG GPRESSAVG
ENERGY: 0 1.0035 3.0661 0.8300 0.0000 -10816.5852 1571.8088 0.0000 0.0000 1787.9957 -7451.8811 302.7458 -9239.8769 -7451.8811 302.7458 783.1574 864.0647 30869.7754 783.1574 864.0647
ENERGY: 300000 0.8606 12.3794 0.8917 0.0000 -10728.5982 1439.6967 0.0000 0.0000 1776.3018 -7498.4680 300.7657 -9274.7698 -7503.7761 301.8814 284.4796 342.5801 29968.1833 222.1022 302.8384
ENERGY: 600000 0.9010 10.2104 2.6223 0.0000 -10848.7232 1525.8590 0.0000 0.0000 1758.7340 -7550.3966 297.7911 -9309.1305 -7521.7287 301.1992 591.7182 667.2920 30330.6102 370.0914 446.1860
ENERGY: 900000 2.2500 6.6298 2.0639 0.0000 -10702.4817 1386.8161 0.0000 0.0000 1766.7453 -7537.9766 299.1476 -9304.7219 -7526.3031 301.1397 -871.3853 -797.9429 30939.3456 229.6272 297.3474
ENERGY: 1200000 2.9875 7.6128 1.6915 0.0000 -10712.7936 1458.1611 0.0000 0.0000 1763.5831 -7478.7576 298.6122 -9242.3407 -7509.7740 301.3183 -74.0092 -18.3218 30779.8835 122.9479 187.0387
ENERGY: 1500000 1.9548 6.0257 1.3779 0.0000 -10741.4521 1452.2427 0.0000 0.0000 1777.1991 -7502.6519 300.9177 -9279.8510 -7510.2098 301.3564 92.6487 135.1658 30492.7638 110.4866 170.5808
TCL: Running FEP window  17: Lambda1 0.19999999999999968 Lambda2 0.1499999999999997 [dLambda -0.04999999999999999]
TCL: Setting parameter firsttimestep to 0
TCL: Setting parameter alchLambda to 0.19999999999999968
Info: NONBONDED TABLE R-SQUARED SPACING: 0.0625
Info: NONBONDED TABLE SIZE: 705 POINTS
TCL: Setting parameter alchLambda2 to 0.1499999999999997
Info: NONBONDED TABLE R-SQUARED SPACING: 0.0625
Info: NONBONDED TABLE SIZE: 705 POINTS
TCL: Running for 1500000 steps
ETITLE: TS BOND ANGLE DIHED IMPRP ELECT VDW BOUNDARY MISC KINETIC TOTAL TEMP POTENTIAL TOTALAVG TEMPAVG PRESSURE GPRESSURE VOLUME PRESSAVG GPRESSAVG
ENERGY: 0 1.9548 6.0257 1.3779 0.0000 -10741.4516 1452.3070 0.0000 0.0000 1776.2805 -7503.5057 300.7621 -9279.7861 -7503.5057 300.7621 54.7752 134.5359 30492.7638 54.7752 134.5359
ENERGY: 300000 1.8978 8.3198 2.1561 0.0000 -10658.8554 1422.9880 0.0000 0.0000 1764.6521 -7458.8415 298.7932 -9223.4936 -7495.0877 301.4432 -87.3282 26.5163 30576.3018 -217.5989 -151.0268
ENERGY: 600000 0.8563 13.8197 1.8561 0.0000 -10834.3053 1494.4494 0.0000 0.0000 1750.7355 -7572.5883 296.4368 -9323.3238 -7514.0580 301.5651 320.0047 374.7786 30367.9471 35.5848 102.3038
ENERGY: 900000 1.2307 6.3472 2.5770 0.0000 -10682.0499 1465.9136 0.0000 0.0000 1780.7399 -7425.2416 301.5172 -9205.9815 -7485.6999 302.0720 315.5395 339.2758 30565.0733 83.1982 147.9614
ENERGY: 1200000 3.2912 10.3119 0.6398 0.0000 -10823.2552 1550.5652 0.0000 0.0000 1786.6306 -7471.8164 302.5146 -9258.4470 -7487.2235 301.9699 558.2885 634.8631 31040.1927 100.2369 164.4629
ENERGY: 1500000 2.4929 4.4753 1.3064 0.0000 -10734.6825 1377.8315 0.0000 0.0000 1766.7910 -7581.7855 299.1553 -9348.5765 -7500.3458 300.8579 -565.7001 -518.2298 30414.5881 47.9682 106.0723
TCL: Running FEP window  18: Lambda1 0.1499999999999997 Lambda2 0.09999999999999969 [dLambda -0.05 ]
TCL: Setting parameter firsttimestep to 0
TCL: Setting parameter alchLambda to 0.1499999999999997
Info: NONBONDED TABLE R-SQUARED SPACING: 0.0625
Info: NONBONDED TABLE SIZE: 705 POINTS
TCL: Setting parameter alchLambda2 to 0.09999999999999969
Info: NONBONDED TABLE R-SQUARED SPACING: 0.0625
Info: NONBONDED TABLE SIZE: 705 POINTS
TCL: Running for 1500000 steps
ETITLE: TS BOND ANGLE DIHED IMPRP ELECT VDW BOUNDARY MISC KINETIC TOTAL TEMP POTENTIAL TOTALAVG TEMPAVG PRESSURE GPRESSURE VOLUME PRESSAVG GPRESSAVG
ENERGY: 0 2.4929 4.4753 1.3064 0.0000 -10734.6820 1377.8195 0.0000 0.0000 1765.9227 -7582.6654 299.0083 -9348.5880 -7582.6654 299.0083 -619.6913 -520.7039 30414.5881 -619.6913 -520.7039
ENERGY: 300000 0.5689 5.6144 0.6984 0.0000 -10641.2776 1390.5190 0.0000 0.0000 1742.8881 -7500.9888 295.1081 -9243.8769 -7523.8770 298.4945 -476.5395 -401.7243 30882.3623 -377.3921 -311.5523
ENERGY: 600000 2.9565 5.6045 1.1857 0.0000 -10771.7318 1446.3578 0.0000 0.0000 1787.6238 -7528.0035 302.6828 -9315.6272 -7529.3422 299.9559 -179.9506 -33.3859 30533.0069 -220.2323 -142.6961
ENERGY: 900000 3.1480 4.1749 1.4775 0.0000 -10604.1256 1349.3903 0.0000 0.0000 1808.8883 -7437.0466 306.2833 -9245.9349 -7506.9483 301.3029 -768.6781 -693.9881 30690.6740 -293.5939 -215.2349
ENERGY: 1200000 0.9399 6.4813 0.9059 0.0000 -10637.1006 1377.5577 0.0000 0.0000 1723.5016 -7527.7142 291.8255 -9251.2158 -7503.0238 300.1562 -410.5939 -341.4034 30474.5691 -322.8258 -252.3319
ENERGY: 1500000 0.6011 9.9968 2.3106 0.0000 -10713.7825 1428.8790 0.0000 0.0000 1730.7140 -7541.2811 293.0467 -9271.9950 -7505.7478 298.9270 -347.4005 -318.4414 30763.0187 -337.9164 -270.0340
TCL: Running FEP window  19: Lambda1 0.09999999999999969 Lambda2 0.049999999999999684 [dLambda -0.05 ]
TCL: Setting parameter firsttimestep to 0
TCL: Setting parameter alchLambda to 0.09999999999999969
Info: NONBONDED TABLE R-SQUARED SPACING: 0.0625
Info: NONBONDED TABLE SIZE: 705 POINTS
TCL: Setting parameter alchLambda2 to 0.049999999999999684
Info: NONBONDED TABLE R-SQUARED SPACING: 0.0625
Info: NONBONDED TABLE SIZE: 705 POINTS
TCL: Running for 1500000 steps
ETITLE: TS BOND ANGLE DIHED IMPRP ELECT VDW BOUNDARY MISC KINETIC TOTAL TEMP POTENTIAL TOTALAVG TEMPAVG PRESSURE GPRESSURE VOLUME PRESSAVG GPRESSAVG
ENERGY: 0 0.6011 9.9968 2.3106 0.0000 -10713.7826 1428.8282 0.0000 0.0000 1729.8422 -7542.2037 292.8991 -9272.0460 -7542.2037 292.8991 -397.8705 -320.8325 30763.0187 -397.8705 -320.8325
ENERGY: 300000 2.8150 7.9995 0.6500 0.0000 -10575.0563 1343.3850 0.0000 0.0000 1739.7720 -7480.4347 294.5805 -9220.2068 -7484.5358 297.5357 -746.0324 -689.9782 30727.7221 -577.4640 -505.7185
ENERGY: 600000 3.0903 6.2955 0.6521 0.0000 -10899.0468 1536.3460 0.0000 0.0000 1754.5572 -7598.1057 297.0839 -9352.6629 -7525.6578 296.2869 453.4267 608.5816 30341.9101 7.2782 80.2485
ENERGY: 900000 0.8099 7.7085 0.9904 0.0000 -10789.1197 1454.0786 0.0000 0.0000 1715.9246 -7609.6076 290.5426 -9325.5322 -7525.2076 296.4286 90.1676 206.5840 29946.2586 -2.3933 71.8830
ENERGY: 1200000 1.3460 6.2665 2.0585 0.0000 -10853.9036 1497.1477 0.0000 0.0000 1732.0842 -7615.0008 293.2787 -9347.0850 -7525.4262 298.1469 443.8436 501.1062 30059.4482 25.6811 97.8085
ENERGY: 1500000 2.1410 6.3822 1.1232 0.0000 -10825.4834 1459.5270 0.0000 0.0000 1799.3537 -7556.9563 304.6689 -9356.3100 -7517.7777 298.9434 -126.9543 -13.0600 30177.2373 -11.5382 68.6594
TCL: Running FEP window  20: Lambda1 0.049999999999999684 Lambda2 0.0    [dLambda -0.049999999999999684]
TCL: Setting parameter firsttimestep to 0
TCL: Setting parameter alchLambda to 0.049999999999999684
Info: NONBONDED TABLE R-SQUARED SPACING: 0.0625
Info: NONBONDED TABLE SIZE: 705 POINTS
TCL: Setting parameter alchLambda2 to 0.0
Info: NONBONDED TABLE R-SQUARED SPACING: 0.0625
Info: NONBONDED TABLE SIZE: 705 POINTS
TCL: Running for 1500000 steps
ETITLE: TS BOND ANGLE DIHED IMPRP ELECT VDW BOUNDARY MISC KINETIC TOTAL TEMP POTENTIAL TOTALAVG TEMPAVG PRESSURE GPRESSURE VOLUME PRESSAVG GPRESSAVG
ENERGY: 0 2.1410 6.3822 1.1232 0.0000 -10825.4832 1459.7572 0.0000 0.0000 1798.4862 -7557.5935 304.5220 -9356.0797 -7557.5935 304.5220 -112.4061 -13.0321 30177.2373 -112.4061 -13.0321
ENERGY: 300000 3.4197 12.3554 1.6325 0.0000 -10736.3844 1403.3600 0.0000 0.0000 1703.5750 -7612.0418 288.4515 -9315.6168 -7557.4528 297.9882 -519.0177 -478.9417 30307.4775 -158.2260 -108.2628
ENERGY: 600000 0.5332 7.9277 0.7177 0.0000 -10699.8977 1414.1295 0.0000 0.0000 1751.6050 -7524.9847 296.5840 -9276.5897 -7533.0302 299.8172 -186.8260 -60.8065 30340.8282 -147.7171 -75.8894
ENERGY: 900000 1.0818 9.8773 2.0767 0.0000 -10896.3287 1568.7558 0.0000 0.0000 1774.3123 -7540.2248 300.4289 -9314.5371 -7530.1997 299.8348 644.0296 684.6204 30561.7152 -142.5841 -64.8757
ENERGY: 1200000 3.7906 7.4769 1.4425 0.0000 -10786.5700 1509.1042 0.0000 0.0000 1787.3445 -7477.4113 302.6355 -9264.7558 -7521.4686 300.7687 399.8167 480.3588 30506.8822 -106.0333 -34.1139
ENERGY: 1500000 1.0955 10.0554 0.9667 0.0000 -10957.8098 1527.3595 0.0000 0.0000 1770.2874 -7648.0453 299.7474 -9418.3327 -7530.3992 300.6193 507.9914 631.0113 29679.1468 -62.4152 11.8458
TCL: Exiting due to exit command.
