Info: SIMULATION PARAMETERS:
Info: TIMESTEP               2
Info: NUMBER OF STEPS        0
Info: STEPS PER CYCLE        10
Info: PERIODIC CELL BASIS 1  39.512 0 0
Info: PERIODIC CELL BASIS 2  0 39.757 0
Info: PERIODIC CELL BASIS 3  0 0 38.379
Info: PERIODIC CELL CENTER   0 0 0
Info: WRAPPING WATERS AROUND PERIODIC BOUNDARIES ON OUTPUT.
Info: WRAPPING ALL CLUSTERS AROUND PERIODIC BOUNDARIES ON OUTPUT.
Info: FIRST LDB TIMESTEP     50
Info: LAST LDB TIMESTEP     -1
Info: HOM BACKGROUND SCALING 1
Info: PME BACKGROUND SCALING 1
Info: MIN ATOMS PER PATCH    40
Info: EMPTY PATCH LOAD       40 ATOMS
Info: INITIAL TEMPERATURE    300
Info: CENTER OF MASS MOVING INITIALLY? NO
Info: DIELECTRIC             1
Info: EXCLUDE                SCALED ONE-FOUR
Info: 1-4 ELECTROSTATICS SCALED BY 0.833333
Info: MODIFIED 1-4 VDW PARAMETERS WILL BE USED
Info: DCD FILENAME           mobley_9209581_min.dcd
Info: DCD FREQUENCY          5000
Info: DCD FIRST STEP         5000
Info: DCD FILE WILL CONTAIN UNIT CELL DATA
Info: XST FILENAME           mobley_9209581_min.xst
Info: XST FREQUENCY          5000
Info: NO VELOCITY DCD OUTPUT
Info: NO FORCE DCD OUTPUT
Info: OUTPUT FILENAME        mobley_9209581_min
Info: BINARY OUTPUT FILES WILL BE USED
Info: RESTART FILENAME       mobley_9209581_min.restart
Info: RESTART FREQUENCY      5000
Info: BINARY RESTART FILES WILL BE USED
Info: CUTOFF                 9
Info: PAIRLIST DISTANCE      11
Info: PAIRLIST SHRINK RATE   0.01
Info: PAIRLIST GROW RATE     0.01
Info: PAIRLIST TRIGGER       0.3
Info: PAIRLISTS PER CYCLE    2
Info: PAIRLISTS ENABLED
Info: MARGIN                 8
Info: HYDROGEN GROUP CUTOFF  2.5
Info: PATCH DIMENSION        21.5
Info: ENERGY OUTPUT STEPS    5000
Info: ENERGY EVALUATION STEPS    5000
Info: OUTPUT ENERGY PRECISION 4
Info: CROSSTERM ENERGY INCLUDED IN DIHEDRAL
Info: TIMING OUTPUT STEPS    50000
Info: PRESSURE OUTPUT STEPS  5000
Info: LANGEVIN DYNAMICS ACTIVE
Info: LANGEVIN TEMPERATURE   300
Info: LANGEVIN USING BBK INTEGRATOR
Info: LANGEVIN DAMPING COEFFICIENT IS 1 INVERSE PS
Info: LANGEVIN DYNAMICS APPLIED TO HYDROGENS
Info: LANGEVIN PISTON PRESSURE CONTROL ACTIVE
Info:        TARGET PRESSURE IS 1.01325 BAR
Info:     OSCILLATION PERIOD IS 50 FS
Info:             DECAY TIME IS 25 FS
Info:     PISTON TEMPERATURE IS 300 K
Info:       PRESSURE CONTROL IS GROUP-BASED
Info:    INITIAL STRAIN RATE IS 0 0 0
Info:       CELL FLUCTUATION IS ISOTROPIC
Info: PARTICLE MESH EWALD (PME) ACTIVE
Info: PME TOLERANCE               1e-06
Info: PME EWALD COEFFICIENT       0.348832
Info: PME INTERPOLATION ORDER     4
Info: PME GRID DIMENSIONS         40 40 40
Info: PME MAXIMUM GRID SPACING    1
Info: FULL ELECTROSTATIC EVALUATION FREQUENCY      2
Info: USING VERLET I (r-RESPA) MTS SCHEME.
Info: C1 SPLITTING OF LONG RANGE ELECTROSTATICS
Info: PLACING ATOMS IN PATCHES BY HYDROGEN GROUPS
Info: RIGID BONDS TO HYDROGEN : ALL
Info:         ERROR TOLERANCE : 1e-08
Info:          MAX ITERATIONS : 100
Info: RIGID WATER USING SETTLE ALGORITHM
Info: RANDOM NUMBER SEED     1741409480
Info: USE HYDROGEN BONDS?    NO
Info: Using AMBER format force field!
Info: AMBER PARM FILE        mobley_9209581.prmtop
Info: COORDINATE PDB         mobley_9209581.pdb
Info: Exclusions will be read from PARM file!
Info: SCNB (VDW SCALING)     2
Info: USING ARITHMETIC MEAN TO COMBINE L-J SIGMA PARAMETERS
Info: SUMMARY OF PARAMETERS:
Info: 4 BONDS
Info: 3 ANGLES
Info:   3 HARMONIC
Info:   0 COSINE-BASED
Info: 1 DIHEDRAL
Info: 0 IMPROPER
Info: 0 CROSSTERM
Info: 0 VDW
Info: 15 VDW_PAIRS
Info: 0 NBTHOLE_PAIRS
Info: STRUCTURE SUMMARY:
Info: 4321 ATOMS
Info: 4320 BONDS
Info: 21 ANGLES
Info: 18 DIHEDRALS
Info: 0 IMPROPERS
Info: 0 CROSSTERMS
Info: 4359 EXCLUSIONS
Info: 4317 RIGID BONDS
Info: 8646 DEGREES OF FREEDOM
Info: 1440 HYDROGEN GROUPS
Info: 4 ATOMS IN LARGEST HYDROGEN GROUP
Info: 1440 MIGRATION GROUPS
Info: 4 ATOMS IN LARGEST MIGRATION GROUP
Info: TOTAL MASS = 25930.1 amu
Info: TOTAL CHARGE = 0.000399988 e
Info: MASS DENSITY = 0.714212 g/cm^3
Info: ATOM DENSITY = 0.0716717 atoms/A^3
Info: ADDED 0 IMPLICIT EXCLUSIONS
Info: NONBONDED TABLE R-SQUARED SPACING: 0.0625
Info: NONBONDED TABLE SIZE: 705 POINTS
Info: REMOVING COM VELOCITY -0.0280967 0.111858 -0.171158
TCL: Minimizing for 2000 steps
ETITLE: TS BOND ANGLE DIHED IMPRP ELECT VDW BOUNDARY MISC KINETIC TOTAL TEMP POTENTIAL TOTAL3 TEMPAVG PRESSURE GPRESSURE VOLUME PRESSAVG GPRESSAVG
ENERGY: 0 0.0006 0.5132 0.0172 0.0000 -13312.4089 1519.3547 0.0000 0.0000 0.0000 -11792.5232 0.0000 -11792.5232 -11792.5232 0.0000 10871.5907 -15575.5789 60288.7492 10871.5907 -15575.5789
ENERGY: 400 0.6117 2.9287 0.4490 0.0000 -18383.0280 2795.4537 0.0000 0.0000 0.0000 -15583.5848 0.0000 -15583.5848 -15583.5848 0.0000 16422.9857 16506.4830 60288.7492 16422.9857 16506.4830
ENERGY: 800 0.7321 0.4913 0.2095 0.0000 -19293.1216 3195.0944 0.0000 0.0000 0.0000 -16096.5942 0.0000 -16096.5942 -16096.5942 0.0000 18569.1737 18676.1222 60288.7492 18569.1737 18676.1222
ENERGY: 1200 0.5095 0.3350 0.0608 0.0000 -19620.4699 3331.0127 0.0000 0.0000 0.0000 -16288.5520 0.0000 -16288.5520 -16288.5520 0.0000 19342.4028 19445.7834 60288.7492 19342.4028 19445.7834
ENERGY: 1600 0.4584 0.0397 0.1001 0.0000 -19798.5045 3425.9565 0.0000 0.0000 0.0000 -16371.9498 0.0000 -16371.9498 -16371.9498 0.0000 19858.8540 19970.4991 60288.7492 19858.8540 19970.4991
ENERGY: 2000 0.3029 0.0654 0.0797 0.0000 -19895.5558 3465.3614 0.0000 0.0000 0.0000 -16429.7464 0.0000 -16429.7464 -16429.7464 0.0000 20072.7833 20170.1420 60288.7492 20072.7833 20170.1420
TCL: Exiting due to exit command.
Info: NAMD 3.0.1 for Linux-x86_64-multicore
Info: Please visit http://www.ks.uiuc.edu/Research/namd/
Info: for updates, documentation, and support information.
Info: Please cite Phillips et al., J. Chem. Phys. 153:044130 (2020) doi:10.1063/5.0014475
Info: in all publications reporting results obtained with NAMD.
Info: Based on Charm++/Converse 80000 for multicore-linux-x86_64-gcc
Info: Built Mon Oct 14 11:11:06 CDT 2024 by dhardy on athine.ks.uiuc.edu
Info: 1 NAMD  3.0.1  Linux-x86_64-multicore  16    k078  z5358697
Info: Running on 16 processors, 1 nodes, 1 physical nodes.
Info: CPU topology information available.
Info: Charm++/Converse parallel runtime startup completed at 0.00518769 s
Info: 1043.48 MB of memory in use based on /proc/self/stat
Info: Configuration file is mobley_9209581_equil.namd
Info: Working in the current directory /srv/scratch/z5358697/prod_prep_12/9209581
TCL: Running 25000 steps at 30 kelvin.
TCL: Suspending until startup complete.
Info: SIMULATION PARAMETERS:
Info: TIMESTEP               2
Info: NUMBER OF STEPS        0
Info: STEPS PER CYCLE        10
Info: PERIODIC CELL BASIS 1  39.512 0 0
Info: PERIODIC CELL BASIS 2  0 39.757 0
Info: PERIODIC CELL BASIS 3  0 0 38.379
Info: PERIODIC CELL CENTER   0 0 0
Info: WRAPPING WATERS AROUND PERIODIC BOUNDARIES ON OUTPUT.
Info: WRAPPING ALL CLUSTERS AROUND PERIODIC BOUNDARIES ON OUTPUT.
Info: FIRST LDB TIMESTEP     50
Info: LAST LDB TIMESTEP     -1
Info: HOM BACKGROUND SCALING 1
Info: PME BACKGROUND SCALING 1
Info: MIN ATOMS PER PATCH    40
Info: EMPTY PATCH LOAD       40 ATOMS
Info: INITIAL TEMPERATURE    300
Info: CENTER OF MASS MOVING INITIALLY? NO
Info: DIELECTRIC             1
Info: EXCLUDE                SCALED ONE-FOUR
Info: 1-4 ELECTROSTATICS SCALED BY 0.833333
Info: MODIFIED 1-4 VDW PARAMETERS WILL BE USED
Info: DCD FILENAME           mobley_9209581_equil.dcd
Info: DCD FREQUENCY          5000
Info: DCD FIRST STEP         5000
Info: DCD FILE WILL CONTAIN UNIT CELL DATA
Info: XST FILENAME           mobley_9209581_equil.xst
Info: XST FREQUENCY          5000
Info: NO VELOCITY DCD OUTPUT
Info: NO FORCE DCD OUTPUT
Info: OUTPUT FILENAME        mobley_9209581_equil
Info: BINARY OUTPUT FILES WILL BE USED
Info: RESTART FILENAME       mobley_9209581_equil.restart
Info: RESTART FREQUENCY      5000
Info: BINARY RESTART FILES WILL BE USED
Info: CUTOFF                 9
Info: PAIRLIST DISTANCE      11
Info: PAIRLIST SHRINK RATE   0.01
Info: PAIRLIST GROW RATE     0.01
Info: PAIRLIST TRIGGER       0.3
Info: PAIRLISTS PER CYCLE    2
Info: PAIRLISTS ENABLED
Info: MARGIN                 8
Info: HYDROGEN GROUP CUTOFF  2.5
Info: PATCH DIMENSION        21.5
Info: ENERGY OUTPUT STEPS    5000
Info: ENERGY EVALUATION STEPS    5000
Info: OUTPUT ENERGY PRECISION 4
Info: CROSSTERM ENERGY INCLUDED IN DIHEDRAL
Info: TIMING OUTPUT STEPS    50000
Info: PRESSURE OUTPUT STEPS  5000
Info: LANGEVIN DYNAMICS ACTIVE
Info: LANGEVIN TEMPERATURE   30
Info: LANGEVIN USING BBK INTEGRATOR
Info: LANGEVIN DAMPING COEFFICIENT IS 1 INVERSE PS
Info: LANGEVIN DYNAMICS APPLIED TO HYDROGENS
Info: LANGEVIN PISTON PRESSURE CONTROL ACTIVE
Info:        TARGET PRESSURE IS 1.01325 BAR
Info:     OSCILLATION PERIOD IS 50 FS
Info:             DECAY TIME IS 25 FS
Info:     PISTON TEMPERATURE IS 300 K
Info:       PRESSURE CONTROL IS GROUP-BASED
Info:    INITIAL STRAIN RATE IS 0 0 0
Info:       CELL FLUCTUATION IS ISOTROPIC
Info: PARTICLE MESH EWALD (PME) ACTIVE
Info: PME TOLERANCE               1e-06
Info: PME EWALD COEFFICIENT       0.348832
Info: PME INTERPOLATION ORDER     4
Info: PME GRID DIMENSIONS         40 40 40
Info: PME MAXIMUM GRID SPACING    1
Info: FULL ELECTROSTATIC EVALUATION FREQUENCY      2
Info: USING VERLET I (r-RESPA) MTS SCHEME.
Info: C1 SPLITTING OF LONG RANGE ELECTROSTATICS
Info: PLACING ATOMS IN PATCHES BY HYDROGEN GROUPS
Info: RIGID BONDS TO HYDROGEN : ALL
Info:         ERROR TOLERANCE : 1e-08
Info:          MAX ITERATIONS : 100
Info: RIGID WATER USING SETTLE ALGORITHM
Info: RANDOM NUMBER SEED     1741409495
Info: USE HYDROGEN BONDS?    NO
Info: Using AMBER format force field!
Info: AMBER PARM FILE        mobley_9209581.prmtop
Info: COORDINATE PDB         mobley_9209581.pdb
Info: Exclusions will be read from PARM file!
Info: SCNB (VDW SCALING)     2
Info: USING ARITHMETIC MEAN TO COMBINE L-J SIGMA PARAMETERS
Info: BINARY COORDINATES     mobley_9209581_min.coor
Info: SUMMARY OF PARAMETERS:
Info: 4 BONDS
Info: 3 ANGLES
Info:   3 HARMONIC
Info:   0 COSINE-BASED
Info: 1 DIHEDRAL
Info: 0 IMPROPER
Info: 0 CROSSTERM
Info: 0 VDW
Info: 15 VDW_PAIRS
Info: 0 NBTHOLE_PAIRS
Info: STRUCTURE SUMMARY:
Info: 4321 ATOMS
Info: 4320 BONDS
Info: 21 ANGLES
Info: 18 DIHEDRALS
Info: 0 IMPROPERS
Info: 0 CROSSTERMS
Info: 4359 EXCLUSIONS
Info: 4317 RIGID BONDS
Info: 8646 DEGREES OF FREEDOM
Info: 1440 HYDROGEN GROUPS
Info: 4 ATOMS IN LARGEST HYDROGEN GROUP
Info: 1440 MIGRATION GROUPS
Info: 4 ATOMS IN LARGEST MIGRATION GROUP
Info: TOTAL MASS = 25930.1 amu
Info: TOTAL CHARGE = 0.000399988 e
Info: MASS DENSITY = 0.714212 g/cm^3
Info: ATOM DENSITY = 0.0716717 atoms/A^3
Info: ADDED 0 IMPLICIT EXCLUSIONS
Info: NONBONDED TABLE R-SQUARED SPACING: 0.0625
Info: NONBONDED TABLE SIZE: 705 POINTS
Info: REMOVING COM VELOCITY 0.168798 -0.134497 -0.187231
TCL: Running for 25000 steps
ETITLE: TS BOND ANGLE DIHED IMPRP ELECT VDW BOUNDARY MISC KINETIC TOTAL TEMP POTENTIAL TOTAL3 TEMPAVG PRESSURE GPRESSURE VOLUME PRESSAVG GPRESSAVG
ENERGY: 0 0.3029 0.0654 0.0797 0.0000 -19895.5558 3465.3614 0.0000 0.0000 2562.1077 -13867.6387 298.2446 -16429.7464 -13867.1102 298.2446 260.4868 302.5993 60288.7492 260.4868 302.5993
ENERGY: 5000 0.3863 0.5225 0.2702 0.0000 -20773.3267 3679.3674 0.0000 0.0000 262.6732 -16830.1069 30.5767 -17092.7802 -16829.3774 47.3518 521.3122 590.3420 42153.8118 0.3973 0.3598
ENERGY: 10000 0.0696 1.0067 0.0774 0.0000 -20805.5390 3687.9418 0.0000 0.0000 260.8728 -16855.5706 30.3671 -17116.4434 -16855.2139 30.0881 551.5808 592.3091 42118.6793 -0.7567 -0.9121
ENERGY: 15000 0.2100 0.3359 0.1762 0.0000 -20695.7887 3554.3808 0.0000 0.0000 258.6653 -16882.0205 30.1102 -17140.6858 -16881.1462 30.3161 -319.0181 -268.0751 42415.7306 4.9642 5.1899
ENERGY: 20000 0.2279 0.3790 0.1332 0.0000 -20780.5263 3623.5600 0.0000 0.0000 262.9727 -16893.2535 30.6116 -17156.2262 -16892.5897 30.1782 50.4857 106.7221 42228.3108 3.9647 3.8705
ENERGY: 25000 0.0700 0.5656 0.3173 0.0000 -20682.5948 3526.5194 0.0000 0.0000 256.7602 -16898.3623 29.8884 -17155.1225 -16897.8405 30.0172 -483.7380 -433.3458 42323.4491 6.7181 6.7940
TCL: Running 25000 steps at 60 kelvin.
TCL: Setting parameter langevinTemp to 60
TCL: Running for 25000 steps
ETITLE: TS BOND ANGLE DIHED IMPRP ELECT VDW BOUNDARY MISC KINETIC TOTAL TEMP POTENTIAL TOTAL3 TEMPAVG PRESSURE GPRESSURE VOLUME PRESSAVG GPRESSAVG
ENERGY: 25000 0.0700 0.5656 0.3173 0.0000 -20682.5948 3526.5194 0.0000 0.0000 256.6362 -16898.4863 29.8740 -17155.1225 -16897.7828 29.8740 -485.5178 -433.5157 42323.4491 -485.5178 -433.5157
ENERGY: 30000 0.1856 1.3007 0.2942 0.0000 -20450.1783 3526.9055 0.0000 0.0000 527.7058 -16393.7865 61.4281 -16921.4924 -16392.6882 57.5957 158.9052 223.1834 42287.1961 4.1188 3.8641
ENERGY: 35000 0.1694 1.6472 0.1600 0.0000 -20333.5014 3391.5686 0.0000 0.0000 504.7864 -16435.1699 58.7601 -16939.9563 -16433.7389 60.0671 -635.4472 -579.5986 42376.4647 2.2177 2.7033
ENERGY: 40000 0.5733 0.9501 0.2573 0.0000 -20422.4854 3453.2305 0.0000 0.0000 502.6097 -16464.8643 58.5068 -16967.4741 -16463.5143 60.4005 -371.4758 -321.6184 42266.8947 7.1360 7.0885
ENERGY: 45000 0.2522 0.3894 0.1468 0.0000 -20571.8180 3592.9902 0.0000 0.0000 503.3290 -16474.7104 58.5905 -16978.0394 -16473.4001 59.6065 421.0618 478.9337 42133.0591 0.8639 0.8561
ENERGY: 50000 0.1612 0.7121 0.5410 0.0000 -20370.1160 3360.9473 0.0000 0.0000 518.3905 -16489.3640 60.3437 -17007.7545 -16488.6497 59.5688 -1037.4208 -982.5382 42494.9673 2.4818 2.5961
TCL: Running 25000 steps at 90 kelvin.
TCL: Setting parameter langevinTemp to 90
TCL: Running for 25000 steps
ETITLE: TS BOND ANGLE DIHED IMPRP ELECT VDW BOUNDARY MISC KINETIC TOTAL TEMP POTENTIAL TOTAL3 TEMPAVG PRESSURE GPRESSURE VOLUME PRESSAVG GPRESSAVG
ENERGY: 50000 0.1612 0.7121 0.5410 0.0000 -20370.1160 3360.9473 0.0000 0.0000 518.1392 -16489.6153 60.3145 -17007.7545 -16488.4317 60.3145 -1028.1580 -983.1148 42494.9673 -1028.1580 -983.1148
ENERGY: 55000 0.4404 2.4335 0.2136 0.0000 -20162.3950 3423.5062 0.0000 0.0000 762.5713 -15973.2300 88.7678 -16735.8013 -15971.5700 87.1882 82.4758 128.9306 42310.9076 3.9185 4.3239
ENERGY: 60000 0.5721 1.7730 0.9938 0.0000 -19966.3148 3191.8104 0.0000 0.0000 747.3737 -16023.7917 86.9987 -16771.1654 -16021.4307 90.4702 -1442.8057 -1371.0750 42810.7227 -0.6100 -0.8985
ENERGY: 65000 0.3787 1.7383 0.3462 0.0000 -20222.4541 3413.0759 0.0000 0.0000 767.5243 -16039.3907 89.3444 -16806.9151 -16037.9206 90.3210 -131.6947 -92.3703 42398.6489 3.6944 3.6903
ENERGY: 70000 0.8583 1.9874 0.2284 0.0000 -20144.3112 3349.7289 0.0000 0.0000 787.9654 -16003.5429 91.7239 -16791.5082 -16000.9824 90.0930 -473.5110 -419.9996 42486.5171 2.8084 2.7643
ENERGY: 75000 0.3076 1.1152 0.7783 0.0000 -20232.8068 3418.2670 0.0000 0.0000 775.1420 -16037.1967 90.2311 -16812.3386 -16034.2398 90.3999 -25.1618 27.6131 42172.0411 5.0585 5.3115
TCL: Running 25000 steps at 120 kelvin.
TCL: Setting parameter langevinTemp to 120
TCL: Running for 25000 steps
ETITLE: TS BOND ANGLE DIHED IMPRP ELECT VDW BOUNDARY MISC KINETIC TOTAL TEMP POTENTIAL TOTAL3 TEMPAVG PRESSURE GPRESSURE VOLUME PRESSAVG GPRESSAVG
ENERGY: 75000 0.3076 1.1152 0.7783 0.0000 -20232.8068 3418.2670 0.0000 0.0000 774.7601 -16037.5785 90.1867 -16812.3386 -16035.7698 90.1867 -29.1541 28.1057 42172.0411 -29.1541 28.1057
ENERGY: 80000 0.3879 3.5401 0.1411 0.0000 -19885.0089 3294.8126 0.0000 0.0000 1059.5316 -15526.5956 123.3358 -16586.1271 -15524.4325 116.0893 -310.2014 -266.2331 42616.7829 5.1939 4.6171
ENERGY: 85000 0.4620 1.9327 0.3949 0.0000 -19938.1797 3309.6278 0.0000 0.0000 1019.6687 -15606.0936 118.6955 -16625.7622 -15603.4268 119.7074 -372.5080 -307.4847 42411.4852 0.3592 0.5562
ENERGY: 90000 0.3821 1.9683 0.2048 0.0000 -19993.6552 3366.5594 0.0000 0.0000 1012.1593 -15612.3814 117.8214 -16624.5407 -15609.5001 119.9418 -11.3919 9.4703 42407.2042 4.2806 3.7811
ENERGY: 95000 0.2656 1.4728 0.1231 0.0000 -20060.2324 3442.0775 0.0000 0.0000 1031.3723 -15584.9212 120.0579 -16616.2935 -15583.1164 120.0366 459.4781 501.7122 42034.2349 2.4987 2.4811
ENERGY: 100000 0.7859 1.5142 0.8321 0.0000 -20100.2230 3461.8637 0.0000 0.0000 1050.6998 -15584.5272 122.3077 -16635.2270 -15582.7720 120.3838 529.1247 606.2071 42039.3688 1.4526 1.5757
TCL: Running 25000 steps at 150 kelvin.
TCL: Setting parameter langevinTemp to 150
TCL: Running for 25000 steps
ETITLE: TS BOND ANGLE DIHED IMPRP ELECT VDW BOUNDARY MISC KINETIC TOTAL TEMP POTENTIAL TOTAL3 TEMPAVG PRESSURE GPRESSURE VOLUME PRESSAVG GPRESSAVG
ENERGY: 100000 0.7859 1.5142 0.8321 0.0000 -20100.2230 3461.8637 0.0000 0.0000 1050.1794 -15585.0476 122.2471 -16635.2270 -15583.3533 122.2471 548.8482 606.1874 42039.3688 548.8482 606.1874
ENERGY: 105000 0.1734 3.7862 0.9164 0.0000 -19616.8537 3304.9318 0.0000 0.0000 1308.0730 -14998.9730 152.2675 -16307.0460 -14995.2874 146.0632 463.5301 536.9596 42321.4893 4.3583 4.5524
ENERGY: 110000 0.1104 3.2863 1.8057 0.0000 -19557.6954 3180.0165 0.0000 0.0000 1311.5939 -15060.8827 152.6773 -16372.4767 -15056.3743 151.7852 -372.9985 -358.3114 42481.4459 2.6377 2.6592
ENERGY: 115000 0.4730 2.2371 0.3226 0.0000 -19633.6046 3217.4035 0.0000 0.0000 1297.7268 -15115.4416 151.0631 -16413.1683 -15112.4516 150.5675 -185.5968 -206.0062 42231.9518 7.6347 7.2761
ENERGY: 120000 0.9838 2.1817 0.6624 0.0000 -19746.5159 3301.4818 0.0000 0.0000 1298.5025 -15142.7038 151.1534 -16441.2062 -15140.0180 149.4312 -30.2027 56.4865 42595.1974 7.3001 7.3455
ENERGY: 125000 2.3156 2.1723 0.5001 0.0000 -19764.6156 3369.7504 0.0000 0.0000 1285.0550 -15104.8222 149.5880 -16389.8772 -15101.1955 150.0325 483.5260 526.3873 42460.1904 0.6780 0.8872
TCL: Running 50000 steps at 180 kelvin.
TCL: Setting parameter langevinTemp to 180
TCL: Running for 50000 steps
ETITLE: TS BOND ANGLE DIHED IMPRP ELECT VDW BOUNDARY MISC KINETIC TOTAL TEMP POTENTIAL TOTAL3 TEMPAVG PRESSURE GPRESSURE VOLUME PRESSAVG GPRESSAVG
ENERGY: 125000 2.3156 2.1723 0.5001 0.0000 -19764.6156 3369.7504 0.0000 0.0000 1284.3971 -15105.4800 149.5115 -16389.8772 -15103.2968 149.5115 468.4469 526.2314 42460.1904 468.4469 526.2314
ENERGY: 135000 0.0183 2.1734 1.4713 0.0000 -19004.5866 2950.3458 0.0000 0.0000 1571.6617 -14478.9161 182.9508 -16050.5778 -14474.7270 181.1328 -1018.9456 -964.4512 42921.8834 5.9332 5.6851
ENERGY: 145000 1.7560 3.3954 0.4156 0.0000 -19260.8933 3246.2714 0.0000 0.0000 1574.8840 -14434.1709 183.3259 -16009.0549 -14431.5259 180.2275 1114.6219 1148.9275 42018.8395 3.6623 3.7860
ENERGY: 155000 0.9057 2.3502 0.3244 0.0000 -19253.3841 3165.9811 0.0000 0.0000 1533.1012 -14550.7215 178.4621 -16083.8226 -14546.7805 180.2460 247.6449 322.8448 42271.3151 -1.7550 -1.5267
ENERGY: 165000 0.0987 3.4898 0.6417 0.0000 -19221.3703 3118.8414 0.0000 0.0000 1556.0360 -14542.2627 181.1318 -16098.2987 -14539.5677 180.6514 109.9958 130.3617 42135.0662 4.7428 4.5153
ENERGY: 175000 0.5278 4.8868 0.6493 0.0000 -19241.7401 3147.6334 0.0000 0.0000 1601.9655 -14486.0774 186.4783 -16088.0428 -14483.2886 180.5643 316.0359 419.4094 41932.6311 1.8448 1.4703
TCL: Running 50000 steps at 210 kelvin.
TCL: Setting parameter langevinTemp to 210
TCL: Running for 50000 steps
ETITLE: TS BOND ANGLE DIHED IMPRP ELECT VDW BOUNDARY MISC KINETIC TOTAL TEMP POTENTIAL TOTAL3 TEMPAVG PRESSURE GPRESSURE VOLUME PRESSAVG GPRESSAVG
ENERGY: 175000 0.5278 4.8868 0.6493 0.0000 -19241.7401 3147.6334 0.0000 0.0000 1601.2007 -14486.8421 186.3893 -16088.0428 -14484.0040 186.3893 346.9376 419.1880 41932.6311 346.9376 419.1880
ENERGY: 185000 0.4558 2.5975 0.5043 0.0000 -18183.2729 2746.7202 0.0000 0.0000 1801.3991 -13631.5959 209.6936 -15432.9950 -13627.1811 208.9118 -338.9029 -249.7781 42274.4932 -1.3148 -1.2642
ENERGY: 195000 2.8924 6.4796 0.5236 0.0000 -17982.7256 2625.5774 0.0000 0.0000 1785.9589 -13561.2936 207.8962 -15347.2525 -13556.5811 209.5402 -929.2419 -847.0983 42318.9650 5.4020 5.7312
ENERGY: 205000 1.3806 4.0616 0.3019 0.0000 -18052.4503 2646.6314 0.0000 0.0000 1845.9993 -13554.0754 214.8853 -15400.0746 -13549.4218 209.6542 -658.7241 -605.8132 42136.3924 0.4625 0.7269
ENERGY: 215000 0.2236 3.4033 0.4682 0.0000 -18312.6974 2835.6544 0.0000 0.0000 1850.8662 -13622.0817 215.4518 -15472.9479 -13618.2709 209.5811 186.4908 285.2881 41865.1876 7.3236 7.0417
ENERGY: 225000 0.5961 4.9093 1.0860 0.0000 -18110.9106 2740.1835 0.0000 0.0000 1785.5661 -13578.5696 207.8505 -15364.1357 -13575.1177 209.6143 -312.4581 -227.7646 42355.8517 0.7017 1.0889
TCL: Running 50000 steps at 240 kelvin.
TCL: Setting parameter langevinTemp to 240
TCL: Running for 50000 steps
ETITLE: TS BOND ANGLE DIHED IMPRP ELECT VDW BOUNDARY MISC KINETIC TOTAL TEMP POTENTIAL TOTAL3 TEMPAVG PRESSURE GPRESSURE VOLUME PRESSAVG GPRESSAVG
ENERGY: 225000 0.5961 4.9093 1.0860 0.0000 -18110.9106 2740.1835 0.0000 0.0000 1784.6586 -13579.4770 207.7449 -15364.1357 -13575.8725 207.7449 -315.2298 -227.9888 42355.8517 -315.2298 -227.9888
ENERGY: 235000 0.9625 2.6101 1.2085 0.0000 -17293.4068 2523.8309 0.0000 0.0000 2041.4749 -12723.3199 237.6398 -14764.7948 -12718.0175 240.2556 -42.0774 -7.3984 42523.7938 7.6413 7.6254
ENERGY: 245000 2.7873 4.3337 0.3609 0.0000 -17134.4140 2471.9189 0.0000 0.0000 2090.4400 -12564.5733 243.3396 -14655.0132 -12556.9311 240.4273 88.7256 161.9358 42262.9051 2.2529 1.9941
ENERGY: 255000 0.3840 4.2275 2.0085 0.0000 -17150.7972 2382.9961 0.0000 0.0000 2085.6791 -12675.5019 242.7854 -14761.1811 -12671.2392 240.0841 -728.4661 -651.7186 42458.8659 5.0147 5.7335
ENERGY: 265000 0.0486 2.5732 0.2996 0.0000 -17154.6733 2376.9513 0.0000 0.0000 2082.8314 -12691.9692 242.4540 -14774.8006 -12687.4333 239.3133 -982.7656 -889.4759 42819.1589 6.5169 6.4745
ENERGY: 275000 0.4322 3.7456 0.1722 0.0000 -17310.8502 2572.7286 0.0000 0.0000 2063.0878 -12670.6837 240.1557 -14733.7716 -12670.4936 240.0400 271.0835 356.5598 42698.4583 0.4869 0.3683
TCL: Running 50000 steps at 270 kelvin.
TCL: Setting parameter langevinTemp to 270
TCL: Running for 50000 steps
ETITLE: TS BOND ANGLE DIHED IMPRP ELECT VDW BOUNDARY MISC KINETIC TOTAL TEMP POTENTIAL TOTAL3 TEMPAVG PRESSURE GPRESSURE VOLUME PRESSAVG GPRESSAVG
ENERGY: 275000 0.4322 3.7456 0.1722 0.0000 -17310.8502 2572.7286 0.0000 0.0000 2062.0259 -12671.7456 240.0321 -14733.7716 -12669.2085 240.0321 268.1117 354.4347 42698.4583 268.1117 354.4347
ENERGY: 285000 0.5006 8.4190 1.3749 0.0000 -16404.7798 2214.8071 0.0000 0.0000 2311.3393 -11868.3389 269.0536 -14179.6782 -11864.2853 271.1876 -457.0188 -406.9076 43290.9797 1.8218 1.9858
ENERGY: 295000 1.0875 6.7027 2.6360 0.0000 -16413.9214 2242.4348 0.0000 0.0000 2358.7946 -11802.2657 274.5777 -14161.0603 -11797.2047 268.5172 -328.2802 -249.6624 43556.3817 4.9538 4.9747
ENERGY: 305000 4.0832 3.1825 0.4862 0.0000 -16371.5498 2251.5450 0.0000 0.0000 2343.2914 -11768.9615 272.7730 -14112.2529 -11765.0281 270.7900 -315.8744 -233.4920 43533.8123 3.1409 2.6873
ENERGY: 315000 0.3263 2.9448 0.5712 0.0000 -16463.4580 2312.2010 0.0000 0.0000 2360.4788 -11786.9359 274.7738 -14147.4147 -11782.8958 271.5404 258.8307 355.4841 43147.9782 0.6779 0.5773
ENERGY: 325000 0.5550 6.1236 0.8191 0.0000 -16478.6386 2273.4105 0.0000 0.0000 2381.3072 -11816.4232 277.1983 -14197.7304 -11813.2220 270.0756 -163.0613 -27.4957 43069.0226 1.2415 1.4519
TCL: Running 1000000 steps at 300 kelvin.
TCL: Setting parameter langevinTemp to 300
TCL: Running for 1000000 steps
ETITLE: TS BOND ANGLE DIHED IMPRP ELECT VDW BOUNDARY MISC KINETIC TOTAL TEMP POTENTIAL TOTAL3 TEMPAVG PRESSURE GPRESSURE VOLUME PRESSAVG GPRESSAVG
ENERGY: 325000 0.5550 6.1236 0.8191 0.0000 -16478.6386 2273.4105 0.0000 0.0000 2380.1314 -11817.5989 277.0614 -14197.7304 -11813.7659 277.0614 -126.5949 -28.4134 43069.0226 -126.5949 -28.4134
ENERGY: 525000 0.2289 4.3414 1.5056 0.0000 -15850.2138 2213.5328 0.0000 0.0000 2522.8938 -11107.7113 293.6798 -13630.6050 -11102.2592 300.2953 385.9142 461.6812 44121.8723 4.7221 4.4115
ENERGY: 725000 0.5389 7.3139 2.1038 0.0000 -15546.6404 2063.4418 0.0000 0.0000 2568.3825 -10904.8595 298.9750 -13473.2419 -10900.2102 300.3554 -315.5370 -218.7959 44912.4912 2.7541 1.9578
ENERGY: 925000 1.0507 5.5507 1.2860 0.0000 -15757.7502 2179.6944 0.0000 0.0000 2639.6528 -10930.5155 307.2713 -13570.1683 -10926.1837 301.2608 108.9125 193.5376 44960.9619 2.8345 2.6240
ENERGY: 1125000 0.4703 5.9792 0.4097 0.0000 -15716.3284 2144.4343 0.0000 0.0000 2654.6081 -10910.4269 309.0122 -13565.0350 -10905.9835 300.9280 329.2512 436.2114 44185.8873 4.8242 4.3511
ENERGY: 1325000 0.7724 4.9111 2.0636 0.0000 -15757.9177 2139.6809 0.0000 0.0000 2657.7753 -10952.7144 309.3808 -13610.4897 -10949.6729 299.4640 110.7731 200.9476 44391.0199 2.8869 2.1363
TCL: Exiting due to exit command.
