Info: SIMULATION PARAMETERS:
Info: TIMESTEP               1
Info: NUMBER OF STEPS        0
Info: STEPS PER CYCLE        10
Info: PERIODIC CELL BASIS 1  30 0 0
Info: PERIODIC CELL BASIS 2  0 30 0
Info: PERIODIC CELL BASIS 3  0 0 30
Info: PERIODIC CELL CENTER   0 0 0
Info: WRAPPING ALL CLUSTERS AROUND PERIODIC BOUNDARIES ON OUTPUT.
Info: FIRST LDB TIMESTEP     50
Info: LAST LDB TIMESTEP     -1
Info: HOM BACKGROUND SCALING 1
Info: MIN ATOMS PER PATCH    40
Info: EMPTY PATCH LOAD       40 ATOMS
Info: INITIAL TEMPERATURE    298
Info: CENTER OF MASS MOVING INITIALLY? NO
Info: DIELECTRIC             1
Info: EXCLUDE                SCALED ONE-FOUR
Info: 1-4 ELECTROSTATICS SCALED BY 1
Info: MODIFIED 1-4 VDW PARAMETERS WILL BE USED
Info: DCD FILENAME           output.dcd
Info: DCD FREQUENCY          5
Info: DCD FIRST STEP         5
Info: DCD FILE WILL CONTAIN UNIT CELL DATA
Info: NO EXTENDED SYSTEM TRAJECTORY OUTPUT
Info: NO VELOCITY DCD OUTPUT
Info: NO FORCE DCD OUTPUT
Info: OUTPUT FILENAME        output
Info: BINARY OUTPUT FILES WILL BE USED
Info: NO RESTART FILE
Info: SWITCHING ACTIVE
Info: SWITCHING ON           10
Info: SWITCHING OFF          12
Info: PAIRLIST DISTANCE      14
Info: PAIRLIST SHRINK RATE   0.01
Info: PAIRLIST GROW RATE     0.01
Info: PAIRLIST TRIGGER       0.3
Info: PAIRLISTS PER CYCLE    2
Info: PAIRLISTS ENABLED
Info: MARGIN                 0
Info: HYDROGEN GROUP CUTOFF  2.5
Info: PATCH DIMENSION        16.5
Info: ENERGY OUTPUT STEPS    5
Info: ENERGY EVALUATION STEPS    5
Info: OUTPUT ENERGY PRECISION 4
Info: CROSSTERM ENERGY INCLUDED IN DIHEDRAL
Info: TIMING OUTPUT STEPS    5
Info: TEMPERATURE COUPLING ACTIVE
Info: COUPLING TEMPERATURE   298
Info: MULTILEVEL SUMMATION METHOD (MSM) FOR ELECTROSTATICS ACTIVE
Info: MSM WITH C1 CUBIC INTERPOLATION AND C2 TAYLOR SPLITTING
Info: FULL ELECTROSTATIC EVALUATION FREQUENCY      1
Info: USING VERLET I (r-RESPA) MTS SCHEME.
Info: C1 SPLITTING OF LONG RANGE ELECTROSTATICS
Info: PLACING ATOMS IN PATCHES BY HYDROGEN GROUPS
Info: RIGID BONDS TO HYDROGEN : ALL
Info:         ERROR TOLERANCE : 1e-08
Info:          MAX ITERATIONS : 100
Info: RIGID WATER USING SETTLE ALGORITHM
Info: RANDOM NUMBER SEED     1740278103
Info: USE HYDROGEN BONDS?    NO
Info: COORDINATE PDB         ionized.pdb
Info: STRUCTURE FILE         ionized.psf
Info: PARAMETER file: CHARMM format!
Info: PARAMETERS             par_all27_prot_lipid.inp
Info: USING ARITHMETIC MEAN TO COMBINE L-J SIGMA PARAMETERS
Info: SUMMARY OF PARAMETERS:
Info: 180 BONDS
Info: 447 ANGLES
Info: 566 DIHEDRAL
Info: 46 IMPROPER
Info: 6 CROSSTERM
Info: 119 VDW
Info: 0 VDW_PAIRS
Info: 0 NBTHOLE_PAIRS
Info: STRUCTURE SUMMARY:
Info: 2476 ATOMS
Info: 1650 BONDS
Info: 825 ANGLES
Info: 0 DIHEDRALS
Info: 0 IMPROPERS
Info: 0 CROSSTERMS
Info: 0 EXCLUSIONS
Info: 2475 RIGID BONDS
Info: 4950 DEGREES OF FREEDOM
Info: 826 HYDROGEN GROUPS
Info: 3 ATOMS IN LARGEST HYDROGEN GROUP
Info: 826 MIGRATION GROUPS
Info: 3 ATOMS IN LARGEST MIGRATION GROUP
Info: TOTAL MASS = 14885.7 amu
Info: TOTAL CHARGE = 1 e
Info: MASS DENSITY = 0.915513 g/cm^3
Info: ATOM DENSITY = 0.0917037 atoms/A^3
Info: ADDED 2475 IMPLICIT EXCLUSIONS
Info: NONBONDED TABLE R-SQUARED SPACING: 0.0625
Info: NONBONDED TABLE SIZE: 769 POINTS
Info: REMOVING COM VELOCITY -0.0195144 -0.104746 -0.0522678
Info: MSM using C1 cubic interpolation
Info: MSM using C2 Taylor splitting function
Info: MSM block size decomposition along X is 8 grid points
Info: MSM block size decomposition along Y is 8 grid points
Info: MSM block size decomposition along Z is 8 grid points
Info: MSM grid spacing along X is 2.5 A
Info: MSM grid spacing along Y is 2.5 A
Info: MSM grid spacing along Z is 2.5 A
Info: MSM using 3 levels
Info:     level 0:  [0..11] x [0..11] x [0..11]
Info:     level 1:  [0..5] x [0..5] x [0..5]
Info:     level 2:  [0..2] x [0..2] x [0..2]
Info: MSM finished calculating stencils
Info: MSM finished creating map for grid levels
Info: MSM finished creating map for patches
Info: MSM has 9 interpolation / anterpolation objects (one per patch)
Info: MSM grid level 0 decomposed into 8 blocks ( 2 x 2 x 2 )
Info: MSM grid level 1 decomposed into 1 block ( 1 x 1 x 1 )
Info: MSM grid level 2 decomposed into 1 block ( 1 x 1 x 1 )
Info: MSM grid cutoff calculation decomposed into 783 work objects
TCL: Minimizing for 1000 steps
ETITLE: TS BOND ANGLE DIHED IMPRP ELECT VDW BOUNDARY MISC KINETIC TOTAL TEMP POTENTIAL TOTAL3 TEMPAVG PRESSURE GPRESSURE VOLUME PRESSAVG GPRESSAVG
ENERGY: 0 0.0000 0.0000 0.0000 0.0000 -7348.6495 6353.7252 0.0000 0.0000 0.0000 -994.9243 0.0000 -994.9243 -994.9243 0.0000 75204.0846 46356.0498 27000.0000 75204.0846 46356.0498
ENERGY: 200 0.0000 0.0000 0.0000 0.0000 -10329.8365 979.5851 0.0000 0.0000 0.0000 -9350.2514 0.0000 -9350.2514 -9350.2514 0.0000 17396.1802 17333.4614 27000.0000 17396.1802 17333.4614
ENERGY: 400 0.0000 0.0000 0.0000 0.0000 -10890.0544 1245.1474 0.0000 0.0000 0.0000 -9644.9070 0.0000 -9644.9070 -9644.9070 0.0000 20376.7140 20282.2967 27000.0000 20376.7140 20282.2967
ENERGY: 600 0.0000 0.0000 0.0000 0.0000 -11048.3481 1282.7781 0.0000 0.0000 0.0000 -9765.5700 0.0000 -9765.5700 -9765.5700 0.0000 20826.2958 20740.7833 27000.0000 20826.2958 20740.7833
ENERGY: 800 0.0000 0.0000 0.0000 0.0000 -11147.5382 1306.3193 0.0000 0.0000 0.0000 -9841.2188 0.0000 -9841.2188 -9841.2188 0.0000 21081.5568 21018.4884 27000.0000 21081.5568 21018.4884
ENERGY: 1000 0.0000 0.0000 0.0000 0.0000 -11223.0102 1325.5684 0.0000 0.0000 0.0000 -9897.4417 0.0000 -9897.4417 -9897.4417 0.0000 21291.3087 21235.2946 27000.0000 21291.3087 21235.2946
TCL: Running for 1000 steps
ETITLE: TS BOND ANGLE DIHED IMPRP ELECT VDW BOUNDARY MISC KINETIC TOTAL TEMP POTENTIAL TOTAL3 TEMPAVG PRESSURE GPRESSURE VOLUME PRESSAVG GPRESSAVG
ENERGY: 1000 0.0000 0.0000 0.0000 0.0000 -11223.0104 1325.5684 0.0000 0.0000 1525.8147 -8371.6272 310.2323 -9897.4419 -8371.8716 310.2323 -2541.1869 -2541.1869 27000.0000 -2541.1869 -2541.1869
ENERGY: 1200 0.0000 0.0000 0.0000 0.0000 -9989.5453 1040.3073 0.0000 0.0000 835.4955 -8113.7425 169.8749 -8949.2380 -8113.2969 169.9962 -2802.2643 -2801.7201 27000.0000 -2803.9829 -2803.4369
ENERGY: 1400 0.0000 0.0000 0.0000 0.0000 -9994.6322 1139.9725 0.0000 0.0000 966.9133 -7887.7464 196.5951 -8854.6597 -7887.2543 196.1483 -1457.4893 -1457.0823 27000.0000 -1465.1321 -1464.7226
ENERGY: 1600 0.0000 0.0000 0.0000 0.0000 -9834.3759 1084.2818 0.0000 0.0000 1045.7211 -7704.3730 212.6185 -8750.0941 -7703.8159 212.4972 -1683.6932 -1683.3465 27000.0000 -1679.8147 -1679.4690
ENERGY: 1800 0.0000 0.0000 0.0000 0.0000 -9715.5142 1066.2313 0.0000 0.0000 1102.8439 -7546.4390 224.2329 -8649.2829 -7545.9217 224.6772 -1420.6967 -1420.3928 27000.0000 -1432.0744 -1431.7726
ENERGY: 2000 0.0000 0.0000 0.0000 0.0000 -9556.6838 961.7328 0.0000 0.0000 1182.2839 -7412.6671 240.3848 -8594.9510 -7412.0544 240.4906 -2234.5815 -2234.3375 27000.0000 -2235.7956 -2235.5519
