Info: SIMULATION PARAMETERS:
Info: TIMESTEP               2
Info: NUMBER OF STEPS        0
Info: STEPS PER CYCLE        10
Info: PERIODIC CELL BASIS 1  32.0807 0 0
Info: PERIODIC CELL BASIS 2  0 30.1522 0
Info: PERIODIC CELL BASIS 3  0 0 32.0082
Info: PERIODIC CELL CENTER   0 0 0
Info: WRAPPING WATERS AROUND PERIODIC BOUNDARIES ON OUTPUT.
Info: WRAPPING ALL CLUSTERS AROUND PERIODIC BOUNDARIES ON OUTPUT.
Info: FIRST LDB TIMESTEP     50
Info: LAST LDB TIMESTEP     -1
Info: HOM BACKGROUND SCALING 1
Info: PME BACKGROUND SCALING 1
Info: MIN ATOMS PER PATCH    40
Info: EMPTY PATCH LOAD       40 ATOMS
Info: VELOCITY FILE          mobley_1855337_equil.vel
Info: CENTER OF MASS MOVING INITIALLY? NO
Info: DIELECTRIC             1
Info: EXCLUDE                SCALED ONE-FOUR
Info: 1-4 ELECTROSTATICS SCALED BY 0.833333
Info: MODIFIED 1-4 VDW PARAMETERS WILL BE USED
Info: DCD FILENAME           mobley_1855337_prod.dcd
Info: DCD FREQUENCY          100000
Info: DCD FIRST STEP         100000
Info: DCD FILE WILL CONTAIN UNIT CELL DATA
Info: XST FILENAME           mobley_1855337_prod.xst
Info: XST FREQUENCY          100000
Info: NO VELOCITY DCD OUTPUT
Info: NO FORCE DCD OUTPUT
Info: OUTPUT FILENAME        mobley_1855337_prod
Info: BINARY OUTPUT FILES WILL BE USED
Info: RESTART FILENAME       mobley_1855337_prod.restart
Info: RESTART FREQUENCY      100000
Info: BINARY RESTART FILES WILL BE USED
Info: CUTOFF                 9
Info: PAIRLIST DISTANCE      11
Info: PAIRLIST SHRINK RATE   0.01
Info: PAIRLIST GROW RATE     0.01
Info: PAIRLIST TRIGGER       0.3
Info: PAIRLISTS PER CYCLE    2
Info: PAIRLISTS ENABLED
Info: MARGIN                 2
Info: HYDROGEN GROUP CUTOFF  2.5
Info: PATCH DIMENSION        15.5
Info: ENERGY OUTPUT STEPS    100000
Info: ENERGY EVALUATION STEPS    100000
Info: OUTPUT ENERGY PRECISION 4
Info: CROSSTERM ENERGY INCLUDED IN DIHEDRAL
Info: TIMING OUTPUT STEPS    1000000
Info: PRESSURE OUTPUT STEPS  100000
Info: ALCHEMICAL FEP ON
Info: FEP CURRENT LAMBDA VALUE     0
Info: FEP COMPARISON LAMBDA VALUE  0.05
Info: FEP INTRA-ALCHEMICAL NON-BONDED INTERACTIONS WILL BE RETAINED
Info: FEP INTRA-ALCHEMICAL BONDED INTERACTIONS WILL BE RETAINED
Info: FEP VDW SHIFTING COEFFICIENT 5
Info: FEP ELEC. ACTIVE FOR ANNIHILATED PARTICLES BETWEEN LAMBDA = 0 AND LAMBDA = 0.5
Info: FEP ELEC. ACTIVE FOR EXNIHILATED PARTICLES BETWEEN LAMBDA = 0.5 AND LAMBDA = 1
Info: FEP VDW ACTIVE FOR ANNIHILATED PARTICLES BETWEEN LAMBDA = 0 AND LAMBDA = 1
Info: FEP VDW ACTIVE FOR EXNIHILATED PARTICLES BETWEEN LAMBDA = 0 AND LAMBDA = 1
Info: FEP BOND ACTIVE FOR ANNIHILATED PARTICLES BETWEEN LAMBDA = 1 AND LAMBDA = 1
Info: FEP BOND ACTIVE FOR EXNIHILATED PARTICLES BETWEEN LAMBDA = 0 AND LAMBDA = 0
Info: LANGEVIN DYNAMICS ACTIVE
Info: LANGEVIN TEMPERATURE   300
Info: LANGEVIN USING BBK INTEGRATOR
Info: LANGEVIN DAMPING COEFFICIENT IS 1 INVERSE PS
Info: LANGEVIN DYNAMICS APPLIED TO HYDROGENS
Info: LANGEVIN PISTON PRESSURE CONTROL ACTIVE
Info:        TARGET PRESSURE IS 1.01325 BAR
Info:     OSCILLATION PERIOD IS 50 FS
Info:             DECAY TIME IS 25 FS
Info:     PISTON TEMPERATURE IS 300 K
Info:       PRESSURE CONTROL IS GROUP-BASED
Info:    INITIAL STRAIN RATE IS -0.000293411 -0.000293411 -0.000293411
Info:       CELL FLUCTUATION IS ISOTROPIC
Info: PARTICLE MESH EWALD (PME) ACTIVE
Info: PME TOLERANCE               1e-06
Info: PME EWALD COEFFICIENT       0.348832
Info: PME INTERPOLATION ORDER     4
Info: PME GRID DIMENSIONS         36 32 36
Info: PME MAXIMUM GRID SPACING    1
Info: PME CALCULATION WILL BE PERFORMED ON GPU
Info: FULL ELECTROSTATIC EVALUATION FREQUENCY      2
Info: USING VERLET I (r-RESPA) MTS SCHEME.
Info: C1 SPLITTING OF LONG RANGE ELECTROSTATICS
Info: PLACING ATOMS IN PATCHES BY HYDROGEN GROUPS
Info: RIGID BONDS TO HYDROGEN : ALL
Info:         ERROR TOLERANCE : 1e-08
Info:          MAX ITERATIONS : 100
Info: RIGID WATER USING SETTLE ALGORITHM
Info: RANDOM NUMBER SEED     1742121789
Info: USE HYDROGEN BONDS?    NO
Info: Using AMBER format force field!
Info: AMBER PARM FILE        mobley_1855337.prmtop
Info: COORDINATE PDB         mobley_1855337.pdb
Info: Exclusions will be read from PARM file!
Info: SCNB (VDW SCALING)     2
Info: USING ARITHMETIC MEAN TO COMBINE L-J SIGMA PARAMETERS
Info: BINARY COORDINATES     mobley_1855337_equil.coor
Info: SUMMARY OF PARAMETERS:
Info: 5 BONDS
Info: 3 ANGLES
Info:   3 HARMONIC
Info:   0 COSINE-BASED
Info: 2 DIHEDRAL
Info: 0 IMPROPER
Info: 0 CROSSTERM
Info: 0 VDW
Info: 15 VDW_PAIRS
Info: 0 NBTHOLE_PAIRS
Info: To read alchdata from file: mobley_1855337.pdb
Info: To read alchflag data from column: 5
Info: STRUCTURE SUMMARY:
Info: 2982 ATOMS
Info: 2982 BONDS
Info: 18 ANGLES
Info: 30 DIHEDRALS
Info: 0 IMPROPERS
Info: 0 CROSSTERMS
Info: 3021 EXCLUSIONS
Info: 2972 RIGID BONDS
Info: ALCH: 0 ATOMS TO DISAPPEAR IN FINAL STATE
Info: ALCH: 12 ATOMS TO APPEAR IN FINAL STATE
Info: 5974 DEGREES OF FREEDOM
Info: 1000 HYDROGEN GROUPS
Info: 3 ATOMS IN LARGEST HYDROGEN GROUP
Info: 1000 MIGRATION GROUPS
Info: 3 ATOMS IN LARGEST MIGRATION GROUP
Info: TOTAL MASS = 18051.7 amu
Info: TOTAL CHARGE = 0.000199986 e
Info: MASS DENSITY = 0.968178 g/cm^3
Info: ATOM DENSITY = 0.096313 atoms/A^3
Info: ADDED 0 IMPLICIT EXCLUSIONS
Info: NONBONDED TABLE R-SQUARED SPACING: 0.0625
Info: NONBONDED TABLE SIZE: 705 POINTS
Info: REMOVING COM VELOCITY -0.0566984 0.078852 0.061148
Info: Use 3D box decompostion in PME FFT.
Info: Updated CUDA force table with 4096 elements.
Info: Updated CUDA LJ table with 5 x 5 elements.
Info: Found 15 unique exclusion lists needing 28 bytes
TCL: Running for 1500000 steps
ETITLE: TS BOND ANGLE DIHED IMPRP ELECT VDW BOUNDARY MISC KINETIC TOTAL TEMP POTENTIAL TOTALAVG TEMPAVG PRESSURE GPRESSURE VOLUME PRESSAVG GPRESSAVG
ENERGY: 0 2.4751 2.6690 3.6956 0.0000 -10853.1741 1438.6819 0.0000 0.0000 1741.9140 -7663.7385 293.4620 -9405.6525 -7663.7385 293.4620 -403.8615 -321.0312 30961.5521 -403.8615 -321.0312
ENERGY: 300000 4.2395 2.4239 3.9404 0.0000 -10898.2399 1514.6005 0.0000 0.0000 1765.2984 -7607.7372 297.4016 -9373.0356 -7589.5059 297.0512 177.5587 244.7371 30799.4887 -73.7896 -0.7257
ENERGY: 600000 3.8135 1.0717 2.2655 0.0000 -10914.6394 1498.7924 0.0000 0.0000 1755.7890 -7652.9073 295.7995 -9408.6963 -7592.2083 298.7979 60.4983 225.7124 30383.8452 -59.0852 18.7066
ENERGY: 900000 2.7774 2.9790 2.7354 0.0000 -10865.2776 1464.6428 0.0000 0.0000 1799.9674 -7592.1755 303.2423 -9392.1430 -7589.8838 299.7623 -369.9614 -249.7575 30809.6518 -112.8163 -33.2649
ENERGY: 1200000 3.5014 3.9721 3.5118 0.0000 -10987.2997 1604.5851 0.0000 0.0000 1756.7098 -7615.0195 295.9547 -9371.7293 -7592.0157 298.8487 1032.6157 1102.6410 30380.2345 26.6900 99.3769
ENERGY: 1500000 3.2914 4.4554 1.1197 0.0000 -10858.8363 1484.8136 0.0000 0.0000 1767.7457 -7597.4105 297.8139 -9365.1562 -7592.4706 298.1404 104.8558 165.8886 30611.1316 63.6711 136.7272
TCL: Running FEP window   2: Lambda1 0.05   Lambda2 0.1    [dLambda 0.05  ]
TCL: Setting parameter firsttimestep to 0
TCL: Setting parameter alchLambda to 0.05
Info: NONBONDED TABLE R-SQUARED SPACING: 0.0625
Info: NONBONDED TABLE SIZE: 705 POINTS
TCL: Setting parameter alchLambda2 to 0.1
Info: NONBONDED TABLE R-SQUARED SPACING: 0.0625
Info: NONBONDED TABLE SIZE: 705 POINTS
TCL: Running for 1500000 steps
ETITLE: TS BOND ANGLE DIHED IMPRP ELECT VDW BOUNDARY MISC KINETIC TOTAL TEMP POTENTIAL TOTALAVG TEMPAVG PRESSURE GPRESSURE VOLUME PRESSAVG GPRESSAVG
ENERGY: 0 3.2914 4.4554 1.1197 0.0000 -10858.8357 1489.0462 0.0000 0.0000 1766.8373 -7594.0858 297.6609 -9360.9231 -7594.0858 297.6609 99.4334 178.9079 30611.1316 99.4334 178.9079
ENERGY: 300000 3.2012 2.0982 1.5070 0.0000 -10929.8073 1541.1699 0.0000 0.0000 1848.9234 -7532.9076 311.4900 -9381.8310 -7588.2536 299.6334 453.1588 507.2683 30761.0448 411.9517 469.6229
ENERGY: 600000 1.9671 3.3417 3.3026 0.0000 -10826.2188 1488.5123 0.0000 0.0000 1780.8127 -7548.2825 300.0153 -9329.0952 -7583.2008 300.2397 257.2964 331.5630 30636.9580 203.9812 274.4373
ENERGY: 900000 3.9466 1.5143 3.0942 0.0000 -10864.0740 1447.3391 0.0000 0.0000 1770.8919 -7637.2880 298.3439 -9408.1798 -7592.5969 299.5615 169.3861 205.3179 29898.3028 103.6944 174.2368
ENERGY: 1200000 1.1457 3.5858 3.1448 0.0000 -10857.2975 1515.1201 0.0000 0.0000 1759.9375 -7574.3636 296.4984 -9334.3011 -7590.4235 298.8614 459.9830 554.4743 30279.6105 162.0857 232.2526
ENERGY: 1500000 3.8589 2.7817 3.6107 0.0000 -10928.6075 1500.7258 0.0000 0.0000 1693.5502 -7724.0803 285.3141 -9417.6304 -7603.0044 298.7545 -7.6560 43.6372 30462.5517 92.2710 152.2719
TCL: Running FEP window   3: Lambda1 0.1    Lambda2 0.15000000000000002 [dLambda 0.05000000000000002]
TCL: Setting parameter firsttimestep to 0
TCL: Setting parameter alchLambda to 0.1
Info: NONBONDED TABLE R-SQUARED SPACING: 0.0625
Info: NONBONDED TABLE SIZE: 705 POINTS
TCL: Setting parameter alchLambda2 to 0.15000000000000002
Info: NONBONDED TABLE R-SQUARED SPACING: 0.0625
Info: NONBONDED TABLE SIZE: 705 POINTS
TCL: Running for 1500000 steps
ETITLE: TS BOND ANGLE DIHED IMPRP ELECT VDW BOUNDARY MISC KINETIC TOTAL TEMP POTENTIAL TOTALAVG TEMPAVG PRESSURE GPRESSURE VOLUME PRESSAVG GPRESSAVG
ENERGY: 0 3.8589 2.7817 3.6107 0.0000 -10928.6077 1502.7336 0.0000 0.0000 1692.7070 -7722.9157 285.1721 -9415.6228 -7722.9157 285.1721 -20.9255 51.8474 30462.5517 -20.9255 51.8474
ENERGY: 300000 4.2160 2.0981 6.8157 0.0000 -10790.1531 1432.3173 0.0000 0.0000 1860.3370 -7484.3690 313.4128 -9344.7060 -7618.2290 298.9170 -70.3512 -45.5668 30430.0342 -121.9269 -61.6213
ENERGY: 600000 4.1263 3.3131 1.8774 0.0000 -10853.8249 1493.1844 0.0000 0.0000 1776.4165 -7574.9072 299.2747 -9351.3237 -7578.0955 300.2770 165.9524 199.1316 31032.9388 -127.0824 -63.8403
ENERGY: 900000 1.6613 2.9922 3.0758 0.0000 -10778.2519 1478.8052 0.0000 0.0000 1807.6868 -7484.0307 304.5428 -9291.7174 -7567.6879 301.1757 230.5680 288.9088 30947.8469 -130.2159 -66.5247
ENERGY: 1200000 5.3604 4.0127 3.1475 0.0000 -10733.6092 1413.0571 0.0000 0.0000 1766.4236 -7541.6078 297.5912 -9308.0314 -7573.1196 300.0534 -365.9206 -321.2002 30998.6614 -145.6224 -76.7182
ENERGY: 1500000 4.2015 1.3661 3.5557 0.0000 -10674.0378 1390.6133 0.0000 0.0000 1797.8623 -7476.4389 302.8877 -9274.3012 -7560.3102 300.7353 -182.1035 -153.4037 30468.7545 -161.0219 -95.9699
TCL: Running FEP window   4: Lambda1 0.15000000000000002 Lambda2 0.2    [dLambda 0.04999999999999999]
TCL: Setting parameter firsttimestep to 0
TCL: Setting parameter alchLambda to 0.15000000000000002
Info: NONBONDED TABLE R-SQUARED SPACING: 0.0625
Info: NONBONDED TABLE SIZE: 705 POINTS
TCL: Setting parameter alchLambda2 to 0.2
Info: NONBONDED TABLE R-SQUARED SPACING: 0.0625
Info: NONBONDED TABLE SIZE: 705 POINTS
TCL: Running for 1500000 steps
ETITLE: TS BOND ANGLE DIHED IMPRP ELECT VDW BOUNDARY MISC KINETIC TOTAL TEMP POTENTIAL TOTALAVG TEMPAVG PRESSURE GPRESSURE VOLUME PRESSAVG GPRESSAVG
ENERGY: 0 4.2015 1.3661 3.5557 0.0000 -10674.0379 1391.1008 0.0000 0.0000 1797.0054 -7476.8084 302.7433 -9273.8139 -7476.8084 302.7433 -212.4838 -148.3721 30468.7545 -212.4838 -148.3721
ENERGY: 300000 3.6352 1.4800 1.9400 0.0000 -10819.3284 1487.1517 0.0000 0.0000 1746.5221 -7578.5993 294.2383 -9325.1215 -7574.2842 298.2251 237.1514 259.6527 30664.0411 -27.2417 23.1735
ENERGY: 600000 2.0790 5.8404 4.1688 0.0000 -10872.0655 1498.6242 0.0000 0.0000 1795.8005 -7565.5526 302.5403 -9361.3530 -7562.9297 299.7672 222.0804 340.2055 30402.5842 -48.8098 16.7983
ENERGY: 900000 3.5612 1.1135 1.8072 0.0000 -10836.3438 1530.6724 0.0000 0.0000 1781.5019 -7517.6876 300.1314 -9299.1895 -7566.0700 299.4046 783.6593 869.2735 30324.4178 88.1609 156.2792
ENERGY: 1200000 2.8996 1.6761 2.2764 0.0000 -10805.2204 1429.4716 0.0000 0.0000 1775.8190 -7593.0777 299.1740 -9368.8968 -7556.3816 299.5159 -309.2181 -285.5093 30550.6016 8.9710 74.9788
ENERGY: 1500000 2.2710 1.5623 2.4701 0.0000 -10900.8409 1483.9083 0.0000 0.0000 1787.0327 -7623.5965 301.0632 -9410.6292 -7570.7031 298.7528 368.5153 349.0199 30317.2718 -16.9212 48.8776
TCL: Running FEP window   5: Lambda1 0.2    Lambda2 0.25   [dLambda 0.04999999999999999]
TCL: Setting parameter firsttimestep to 0
TCL: Setting parameter alchLambda to 0.2
Info: NONBONDED TABLE R-SQUARED SPACING: 0.0625
Info: NONBONDED TABLE SIZE: 705 POINTS
TCL: Setting parameter alchLambda2 to 0.25
Info: NONBONDED TABLE R-SQUARED SPACING: 0.0625
Info: NONBONDED TABLE SIZE: 705 POINTS
TCL: Running for 1500000 steps
ETITLE: TS BOND ANGLE DIHED IMPRP ELECT VDW BOUNDARY MISC KINETIC TOTAL TEMP POTENTIAL TOTALAVG TEMPAVG PRESSURE GPRESSURE VOLUME PRESSAVG GPRESSAVG
ENERGY: 0 2.2710 1.5623 2.4701 0.0000 -10900.8428 1483.4323 0.0000 0.0000 1786.1481 -7624.9589 300.9142 -9411.1070 -7624.9589 300.9142 267.4694 350.1811 30317.2718 267.4694 350.1811
ENERGY: 300000 2.2495 4.2102 1.3427 0.0000 -10697.5272 1397.3919 0.0000 0.0000 1800.7697 -7491.5632 303.3775 -9292.3329 -7545.5777 301.4750 -320.9594 -315.4877 31159.2978 -99.0199 -26.3369
ENERGY: 600000 1.9228 3.7447 1.9648 0.0000 -10854.2626 1499.6744 0.0000 0.0000 1796.3595 -7550.5964 302.6345 -9346.9559 -7565.6118 301.6749 456.1351 515.7085 30350.4563 -20.6376 41.5275
ENERGY: 900000 1.6879 2.4098 2.2768 0.0000 -10693.8106 1386.5551 0.0000 0.0000 1792.6508 -7508.2301 302.0097 -9300.8810 -7553.2922 300.8302 -430.5129 -360.5800 30841.1838 -74.0198 -12.0144
ENERGY: 1200000 1.9554 2.4808 0.8773 0.0000 -10729.3312 1423.1538 0.0000 0.0000 1753.2512 -7547.6127 295.3720 -9300.8638 -7557.6914 300.0180 -310.3760 -229.9717 31067.2309 -35.1501 35.2513
ENERGY: 1500000 3.2098 1.0667 1.5649 0.0000 -10879.8830 1464.4999 0.0000 0.0000 1792.3739 -7617.1677 301.9630 -9409.5416 -7564.4232 300.1143 -178.3380 -159.6970 30692.9148 6.8318 70.8123
TCL: Running FEP window   6: Lambda1 0.25   Lambda2 0.3    [dLambda 0.04999999999999999]
TCL: Setting parameter firsttimestep to 0
TCL: Setting parameter alchLambda to 0.25
Info: NONBONDED TABLE R-SQUARED SPACING: 0.0625
Info: NONBONDED TABLE SIZE: 705 POINTS
TCL: Setting parameter alchLambda2 to 0.3
Info: NONBONDED TABLE R-SQUARED SPACING: 0.0625
Info: NONBONDED TABLE SIZE: 705 POINTS
TCL: Running for 1500000 steps
ETITLE: TS BOND ANGLE DIHED IMPRP ELECT VDW BOUNDARY MISC KINETIC TOTAL TEMP POTENTIAL TOTALAVG TEMPAVG PRESSURE GPRESSURE VOLUME PRESSAVG GPRESSAVG
ENERGY: 0 3.2098 1.0667 1.5649 0.0000 -10879.8855 1463.9039 0.0000 0.0000 1791.4583 -7618.6818 301.8088 -9410.1401 -7618.6818 301.8088 -249.8570 -161.0853 30692.9148 -249.8570 -161.0853
ENERGY: 300000 2.1711 3.1742 0.8912 0.0000 -10553.6924 1327.8691 0.0000 0.0000 1796.5009 -7423.0860 302.6583 -9219.5869 -7494.5501 303.8058 -670.7413 -581.1518 31175.0572 -60.5553 4.1792
ENERGY: 600000 3.1980 1.9134 4.0565 0.0000 -10712.3309 1380.3092 0.0000 0.0000 1787.3673 -7535.4864 301.1196 -9322.8538 -7508.4809 302.7444 -363.7954 -299.3805 30551.8017 -167.2255 -110.7990
ENERGY: 900000 1.2701 2.1522 3.9829 0.0000 -10795.8611 1405.6001 0.0000 0.0000 1800.7625 -7582.0934 303.3763 -9382.8559 -7523.6441 302.5264 -605.1208 -517.7378 30823.9294 -105.1552 -37.3145
ENERGY: 1200000 2.7187 1.5218 1.5042 0.0000 -10685.9450 1366.1439 0.0000 0.0000 1822.0715 -7491.9849 306.9662 -9314.0564 -7528.5837 302.4890 -499.4649 -455.3725 30944.4939 -109.1972 -44.1629
ENERGY: 1500000 1.5229 5.1397 0.6172 0.0000 -10864.1799 1487.0671 0.0000 0.0000 1788.2277 -7581.6052 301.2645 -9369.8328 -7541.3731 301.5317 181.0416 261.2243 30302.0012 -122.7702 -63.4087
TCL: Running FEP window   7: Lambda1 0.3    Lambda2 0.35   [dLambda 0.04999999999999999]
TCL: Setting parameter firsttimestep to 0
TCL: Setting parameter alchLambda to 0.3
Info: NONBONDED TABLE R-SQUARED SPACING: 0.0625
Info: NONBONDED TABLE SIZE: 705 POINTS
TCL: Setting parameter alchLambda2 to 0.35
Info: NONBONDED TABLE R-SQUARED SPACING: 0.0625
Info: NONBONDED TABLE SIZE: 705 POINTS
TCL: Running for 1500000 steps
ETITLE: TS BOND ANGLE DIHED IMPRP ELECT VDW BOUNDARY MISC KINETIC TOTAL TEMP POTENTIAL TOTALAVG TEMPAVG PRESSURE GPRESSURE VOLUME PRESSAVG GPRESSAVG
ENERGY: 0 1.5229 5.1397 0.6172 0.0000 -10864.1786 1487.6313 0.0000 0.0000 1787.3515 -7581.9159 301.1169 -9369.2674 -7581.9159 301.1169 187.6994 271.5180 30302.0012 187.6994 271.5180
ENERGY: 300000 2.5630 2.2461 2.4852 0.0000 -10718.0142 1427.8602 0.0000 0.0000 1712.0457 -7570.8140 288.4301 -9282.8597 -7567.9178 300.1647 66.0332 95.0388 30758.6868 70.7457 138.3247
ENERGY: 600000 1.4238 1.4298 2.1374 0.0000 -10801.2847 1437.7207 0.0000 0.0000 1765.5377 -7593.0354 297.4419 -9358.5731 -7566.4443 300.6449 -202.4682 -85.9422 30493.0197 101.2845 180.3072
ENERGY: 900000 1.0678 1.3267 2.1053 0.0000 -10828.7313 1485.3759 0.0000 0.0000 1818.0342 -7520.8214 306.2860 -9338.8555 -7576.4571 300.3729 291.3101 311.9687 30634.8392 47.1465 119.5087
ENERGY: 1200000 2.7748 2.7177 0.7967 0.0000 -10838.3351 1434.8138 0.0000 0.0000 1788.1518 -7609.0803 301.2517 -9397.2321 -7571.1357 300.2974 -131.5426 -111.9761 30498.6211 -64.5351 2.7485
ENERGY: 1500000 4.3195 2.3588 2.0053 0.0000 -10701.2561 1426.1704 0.0000 0.0000 1775.3137 -7491.0883 299.0889 -9266.4020 -7567.2737 300.2155 -5.5065 44.7031 30817.8700 6.7366 76.9227
TCL: Running FEP window   8: Lambda1 0.35   Lambda2 0.39999999999999997 [dLambda 0.04999999999999999]
TCL: Setting parameter firsttimestep to 0
TCL: Setting parameter alchLambda to 0.35
Info: NONBONDED TABLE R-SQUARED SPACING: 0.0625
Info: NONBONDED TABLE SIZE: 705 POINTS
TCL: Setting parameter alchLambda2 to 0.39999999999999997
Info: NONBONDED TABLE R-SQUARED SPACING: 0.0625
Info: NONBONDED TABLE SIZE: 705 POINTS
TCL: Running for 1500000 steps
ETITLE: TS BOND ANGLE DIHED IMPRP ELECT VDW BOUNDARY MISC KINETIC TOTAL TEMP POTENTIAL TOTALAVG TEMPAVG PRESSURE GPRESSURE VOLUME PRESSAVG GPRESSAVG
ENERGY: 0 4.3195 2.3588 2.0053 0.0000 -10701.2559 1425.7814 0.0000 0.0000 1774.4238 -7492.3672 298.9390 -9266.7909 -7492.3672 298.9390 -25.1844 49.6879 30817.8700 -25.1844 49.6879
ENERGY: 300000 4.9971 2.8210 1.5150 0.0000 -10901.6846 1447.2170 0.0000 0.0000 1744.7507 -7700.3837 293.9399 -9445.1345 -7571.4644 300.1480 -214.9114 -174.3799 30561.5861 -480.4961 -430.5292
ENERGY: 600000 1.2999 1.7625 3.4825 0.0000 -10902.3247 1492.7764 0.0000 0.0000 1731.5659 -7671.4375 291.7186 -9403.0034 -7595.7650 297.4410 259.4307 349.5895 30244.0935 -327.6959 -259.2749
ENERGY: 900000 1.6412 2.5292 4.3133 0.0000 -10663.1438 1343.4862 0.0000 0.0000 1849.0809 -7462.0929 311.5165 -9311.1738 -7563.5881 299.8926 -802.5478 -781.9442 31181.3115 -390.2041 -337.9102
ENERGY: 1200000 1.5118 1.4732 3.5360 0.0000 -10763.6504 1449.3288 0.0000 0.0000 1802.7794 -7505.0212 303.7161 -9307.8007 -7564.4908 299.9191 -39.8002 71.7391 31059.3665 -302.1735 -241.6199
ENERGY: 1500000 4.0729 2.8282 2.6751 0.0000 -10869.6994 1497.2424 0.0000 0.0000 1796.9084 -7565.9724 302.7270 -9362.8808 -7564.1741 300.6441 400.7958 468.0305 30374.0350 -267.9053 -209.5209
TCL: Running FEP window   9: Lambda1 0.39999999999999997 Lambda2 0.44999999999999996 [dLambda 0.04999999999999999]
TCL: Setting parameter firsttimestep to 0
TCL: Setting parameter alchLambda to 0.39999999999999997
Info: NONBONDED TABLE R-SQUARED SPACING: 0.0625
Info: NONBONDED TABLE SIZE: 705 POINTS
TCL: Setting parameter alchLambda2 to 0.44999999999999996
Info: NONBONDED TABLE R-SQUARED SPACING: 0.0625
Info: NONBONDED TABLE SIZE: 705 POINTS
TCL: Running for 1500000 steps
ETITLE: TS BOND ANGLE DIHED IMPRP ELECT VDW BOUNDARY MISC KINETIC TOTAL TEMP POTENTIAL TOTALAVG TEMPAVG PRESSURE GPRESSURE VOLUME PRESSAVG GPRESSAVG
ENERGY: 0 4.0729 2.8283 2.6752 0.0000 -10869.6999 1497.3932 0.0000 0.0000 1796.0216 -7566.7088 302.5776 -9362.7303 -7566.7088 302.5776 380.3841 477.0294 30374.0350 380.3841 477.0294
ENERGY: 300000 4.6080 2.0491 2.4717 0.0000 -10844.6342 1381.8782 0.0000 0.0000 1777.9618 -7675.6653 299.5350 -9453.6272 -7614.5905 299.8884 -748.7435 -701.9503 30258.0365 127.1687 210.6110
ENERGY: 600000 2.2528 2.4140 0.9009 0.0000 -10940.3497 1518.5299 0.0000 0.0000 1708.0686 -7708.1836 287.7600 -9416.2522 -7583.7247 300.3336 329.8980 400.1555 30345.0714 13.5992 94.6377
ENERGY: 900000 4.6777 1.9673 3.9973 0.0000 -10706.6284 1391.9120 0.0000 0.0000 1747.3295 -7556.7446 294.3744 -9304.0741 -7578.2239 300.1744 -476.4804 -397.2070 30962.1975 -24.1431 48.8502
ENERGY: 1200000 1.9207 2.4713 5.2135 0.0000 -10861.9115 1484.0270 0.0000 0.0000 1815.3289 -7552.9501 305.8303 -9368.2790 -7575.0834 299.8407 -140.9854 -24.9547 31326.6432 -137.0742 -64.2020
ENERGY: 1500000 1.2516 2.1907 3.0202 0.0000 -10787.9554 1422.8468 0.0000 0.0000 1770.7941 -7587.8520 298.3275 -9358.6461 -7584.9726 299.1056 -93.7722 -84.3847 30513.6987 -95.0454 -28.6337
TCL: Running FEP window  10: Lambda1 0.44999999999999996 Lambda2 0.49999999999999994 [dLambda 0.04999999999999999]
TCL: Setting parameter firsttimestep to 0
TCL: Setting parameter alchLambda to 0.44999999999999996
Info: NONBONDED TABLE R-SQUARED SPACING: 0.0625
Info: NONBONDED TABLE SIZE: 705 POINTS
TCL: Setting parameter alchLambda2 to 0.49999999999999994
Info: NONBONDED TABLE R-SQUARED SPACING: 0.0625
Info: NONBONDED TABLE SIZE: 705 POINTS
TCL: Running for 1500000 steps
ETITLE: TS BOND ANGLE DIHED IMPRP ELECT VDW BOUNDARY MISC KINETIC TOTAL TEMP POTENTIAL TOTALAVG TEMPAVG PRESSURE GPRESSURE VOLUME PRESSAVG GPRESSAVG
ENERGY: 0 1.2516 2.1907 3.0202 0.0000 -10787.9552 1422.5078 0.0000 0.0000 1769.9247 -7589.0603 298.1810 -9358.9849 -7589.0603 298.1810 -154.9651 -76.7903 30513.6987 -154.9651 -76.7903
ENERGY: 300000 3.8947 1.3410 2.9462 0.0000 -10740.0970 1433.3599 0.0000 0.0000 1780.6703 -7517.8849 299.9913 -9298.5552 -7580.0431 298.6143 -14.3570 65.1413 30799.6645 -90.4094 -31.3351
ENERGY: 600000 4.5508 5.3462 1.4594 0.0000 -10838.0900 1539.8523 0.0000 0.0000 1746.1543 -7540.7271 294.1764 -9286.8813 -7585.1933 296.5353 719.1960 862.5089 30926.9168 172.7863 246.8591
ENERGY: 900000 3.8981 1.3139 4.0728 0.0000 -10713.9049 1446.5235 0.0000 0.0000 1781.8479 -7476.2487 300.1897 -9258.0966 -7560.1354 297.9866 -4.3535 9.1608 31060.8369 193.3864 252.0814
ENERGY: 1200000 1.9569 3.7461 3.4984 0.0000 -10720.9872 1385.1467 0.0000 0.0000 1799.7364 -7526.9026 303.2034 -9326.6391 -7559.0137 298.9092 -237.5148 -238.4516 30426.8127 126.2332 185.1660
ENERGY: 1500000 1.0882 1.1492 3.4407 0.0000 -10904.8222 1502.5005 0.0000 0.0000 1808.0556 -7588.5880 304.6049 -9396.6436 -7557.7460 299.2039 451.4446 451.6011 30288.7726 125.6729 182.3455
TCL: Running FEP window  11: Lambda1 0.49999999999999994 Lambda2 0.5499999999999999 [dLambda 0.04999999999999999]
TCL: Setting parameter firsttimestep to 0
TCL: Setting parameter alchLambda to 0.49999999999999994
Info: NONBONDED TABLE R-SQUARED SPACING: 0.0625
Info: NONBONDED TABLE SIZE: 705 POINTS
TCL: Setting parameter alchLambda2 to 0.5499999999999999
Info: NONBONDED TABLE R-SQUARED SPACING: 0.0625
Info: NONBONDED TABLE SIZE: 705 POINTS
TCL: Running for 1500000 steps
ETITLE: TS BOND ANGLE DIHED IMPRP ELECT VDW BOUNDARY MISC KINETIC TOTAL TEMP POTENTIAL TOTALAVG TEMPAVG PRESSURE GPRESSURE VOLUME PRESSAVG GPRESSAVG
ENERGY: 0 1.0882 1.1492 3.4407 0.0000 -10904.8219 1503.0205 0.0000 0.0000 1807.1603 -7588.9628 304.4541 -9396.1231 -7588.9628 304.4541 378.1158 466.1736 30288.7726 378.1158 466.1736
ENERGY: 300000 1.9537 3.0354 3.3093 0.0000 -10805.5899 1398.8566 0.0000 0.0000 1790.4458 -7607.9892 301.6382 -9398.4350 -7560.4489 302.2939 -460.0933 -391.0342 30322.2033 -565.9371 -488.7695
ENERGY: 600000 2.1410 3.3707 0.7734 0.0000 -10714.8268 1382.3778 0.0000 0.0000 1841.5489 -7484.6150 310.2476 -9326.1639 -7553.1604 302.3375 -362.2940 -293.0486 30733.6899 -367.8533 -306.5731
ENERGY: 900000 3.9980 4.1466 3.5461 0.0000 -10822.8227 1475.8316 0.0000 0.0000 1773.9819 -7561.3185 298.8645 -9335.3003 -7561.8106 300.8623 251.1116 387.7681 30547.4159 -243.7545 -177.8791
ENERGY: 1200000 5.4989 1.4252 4.8272 0.0000 -10749.8863 1422.1441 0.0000 0.0000 1722.7493 -7593.2415 290.2333 -9315.9908 -7557.7245 300.0521 -251.7369 -179.4496 30696.9329 -226.3228 -159.6605
ENERGY: 1500000 2.6505 5.0463 2.2861 0.0000 -10683.3607 1356.4768 0.0000 0.0000 1805.3989 -7511.5022 304.1574 -9316.9011 -7553.2663 300.8306 -510.7360 -478.1918 30541.7595 -266.5776 -197.5756
TCL: Running FEP window  12: Lambda1 0.5499999999999999 Lambda2 0.6    [dLambda 0.050000000000000044]
TCL: Setting parameter firsttimestep to 0
TCL: Setting parameter alchLambda to 0.5499999999999999
Info: NONBONDED TABLE R-SQUARED SPACING: 0.0625
Info: NONBONDED TABLE SIZE: 705 POINTS
TCL: Setting parameter alchLambda2 to 0.6
Info: NONBONDED TABLE R-SQUARED SPACING: 0.0625
Info: NONBONDED TABLE SIZE: 705 POINTS
TCL: Running for 1500000 steps
ETITLE: TS BOND ANGLE DIHED IMPRP ELECT VDW BOUNDARY MISC KINETIC TOTAL TEMP POTENTIAL TOTALAVG TEMPAVG PRESSURE GPRESSURE VOLUME PRESSAVG GPRESSAVG
ENERGY: 0 2.6505 5.0463 2.2861 0.0000 -10683.4671 1356.8906 0.0000 0.0000 1804.4733 -7512.1205 304.0014 -9316.5937 -7512.1205 304.0014 -546.5507 -462.6219 30541.7595 -546.5507 -462.6219
ENERGY: 300000 3.9902 2.5785 3.2178 0.0000 -10743.7663 1371.9701 0.0000 0.0000 1774.0413 -7587.9685 298.8745 -9362.0098 -7550.2450 299.6360 -695.3165 -597.7475 30846.3129 -427.9512 -357.3975
ENERGY: 600000 2.0216 2.7676 5.6380 0.0000 -10750.2250 1384.8672 0.0000 0.0000 1782.8146 -7572.1160 300.3526 -9354.9306 -7574.7174 297.9396 -432.8149 -407.6989 30526.6511 -435.7620 -349.3763
ENERGY: 900000 2.0421 5.2163 3.1860 0.0000 -10814.4775 1465.7479 0.0000 0.0000 1827.4678 -7510.8174 307.8753 -9338.2852 -7553.6294 299.6427 79.4770 188.5846 30944.2757 -251.9845 -173.6381
ENERGY: 1200000 3.8147 1.6436 3.8352 0.0000 -10903.3497 1510.7749 0.0000 0.0000 1757.1174 -7626.1639 296.0233 -9383.2813 -7560.9037 300.2784 132.7817 195.2259 30738.8194 -232.2276 -157.3687
ENERGY: 1500000 2.0382 2.9645 2.0181 0.0000 -10599.1733 1325.0038 0.0000 0.0000 1786.9343 -7480.2144 301.0466 -9267.1487 -7549.9187 300.3157 -1002.4860 -976.7137 31249.4384 -282.4286 -218.5516
TCL: Running FEP window  13: Lambda1 0.6    Lambda2 0.65   [dLambda 0.050000000000000044]
TCL: Setting parameter firsttimestep to 0
TCL: Setting parameter alchLambda to 0.6
Info: NONBONDED TABLE R-SQUARED SPACING: 0.0625
Info: NONBONDED TABLE SIZE: 705 POINTS
TCL: Setting parameter alchLambda2 to 0.65
Info: NONBONDED TABLE R-SQUARED SPACING: 0.0625
Info: NONBONDED TABLE SIZE: 705 POINTS
TCL: Running for 1500000 steps
ETITLE: TS BOND ANGLE DIHED IMPRP ELECT VDW BOUNDARY MISC KINETIC TOTAL TEMP POTENTIAL TOTALAVG TEMPAVG PRESSURE GPRESSURE VOLUME PRESSAVG GPRESSAVG
ENERGY: 0 2.0382 2.9644 2.0181 0.0000 -10599.2568 1325.5277 0.0000 0.0000 1786.0544 -7480.6540 300.8984 -9266.7085 -7480.6540 300.8984 -1032.8156 -964.5198 31249.4384 -1032.8156 -964.5198
ENERGY: 300000 1.0212 2.3117 5.1863 0.0000 -10790.8384 1459.9268 0.0000 0.0000 1773.0397 -7549.3527 298.7058 -9322.3924 -7504.2611 301.7467 284.1508 349.1370 30578.6942 -37.2366 32.3627
ENERGY: 600000 6.5272 2.3174 2.0306 0.0000 -10827.0552 1504.5876 0.0000 0.0000 1791.2280 -7520.3643 301.7700 -9311.5923 -7522.8889 301.6490 193.5243 278.3773 31267.5477 -35.3567 36.8314
ENERGY: 900000 2.9001 2.1584 5.0441 0.0000 -10767.2419 1431.0851 0.0000 0.0000 1795.5940 -7530.4602 302.5055 -9326.0542 -7526.2755 302.1155 -66.8191 23.7439 30653.5508 38.4517 112.6001
ENERGY: 1200000 3.6846 2.5752 1.3832 0.0000 -10922.9606 1563.1052 0.0000 0.0000 1760.7660 -7591.4465 296.6380 -9352.2124 -7541.8821 302.1494 1061.1070 984.0854 30521.8637 13.9511 72.7611
ENERGY: 1500000 3.0951 1.1704 1.0262 0.0000 -10807.4481 1422.4919 0.0000 0.0000 1762.8394 -7616.8251 296.9873 -9379.6646 -7553.6254 301.2194 -386.8887 -301.3958 30723.7286 -41.7728 17.6217
TCL: Running FEP window  14: Lambda1 0.65   Lambda2 0.7000000000000001 [dLambda 0.050000000000000044]
TCL: Setting parameter firsttimestep to 0
TCL: Setting parameter alchLambda to 0.65
Info: NONBONDED TABLE R-SQUARED SPACING: 0.0625
Info: NONBONDED TABLE SIZE: 705 POINTS
TCL: Setting parameter alchLambda2 to 0.7000000000000001
Info: NONBONDED TABLE R-SQUARED SPACING: 0.0625
Info: NONBONDED TABLE SIZE: 705 POINTS
TCL: Running for 1500000 steps
ETITLE: TS BOND ANGLE DIHED IMPRP ELECT VDW BOUNDARY MISC KINETIC TOTAL TEMP POTENTIAL TOTALAVG TEMPAVG PRESSURE GPRESSURE VOLUME PRESSAVG GPRESSAVG
ENERGY: 0 3.0951 1.1704 1.0262 0.0000 -10807.5802 1421.8781 0.0000 0.0000 1761.9667 -7618.4437 296.8403 -9380.4104 -7618.4437 296.8403 -377.8712 -300.6519 30723.7286 -377.8712 -300.6519
ENERGY: 300000 3.8821 2.2516 3.2113 0.0000 -10737.0032 1479.4324 0.0000 0.0000 1797.6081 -7450.6178 302.8448 -9248.2259 -7566.3206 300.3761 256.4547 278.2846 31392.1194 2.8161 27.2149
ENERGY: 600000 3.8728 1.1836 3.2805 0.0000 -10619.7773 1364.4649 0.0000 0.0000 1794.8899 -7452.0855 302.3869 -9246.9755 -7547.3130 300.0841 -389.9156 -337.1947 31150.6267 109.6383 145.4047
ENERGY: 900000 2.8022 4.4954 2.3480 0.0000 -10889.5301 1475.7839 0.0000 0.0000 1784.1883 -7619.9122 300.5840 -9404.1005 -7565.8023 300.7687 -50.5673 12.2827 30650.7191 157.3040 200.8173
ENERGY: 1200000 4.9923 1.7802 1.3498 0.0000 -10739.0715 1389.6017 0.0000 0.0000 1823.1173 -7518.2302 307.1424 -9341.3475 -7563.7310 300.8591 -434.6811 -407.7734 30759.3418 49.9486 96.7094
ENERGY: 1500000 2.4909 1.2035 2.1748 0.0000 -10788.9834 1462.7981 0.0000 0.0000 1829.0059 -7491.3102 308.1345 -9320.3161 -7560.1833 301.4645 -14.2482 1.1949 31242.6668 40.7581 88.9769
TCL: Running FEP window  15: Lambda1 0.7000000000000001 Lambda2 0.7500000000000001 [dLambda 0.050000000000000044]
TCL: Setting parameter firsttimestep to 0
TCL: Setting parameter alchLambda to 0.7000000000000001
Info: NONBONDED TABLE R-SQUARED SPACING: 0.0625
Info: NONBONDED TABLE SIZE: 705 POINTS
TCL: Setting parameter alchLambda2 to 0.7500000000000001
Info: NONBONDED TABLE R-SQUARED SPACING: 0.0625
Info: NONBONDED TABLE SIZE: 705 POINTS
TCL: Running for 1500000 steps
ETITLE: TS BOND ANGLE DIHED IMPRP ELECT VDW BOUNDARY MISC KINETIC TOTAL TEMP POTENTIAL TOTALAVG TEMPAVG PRESSURE GPRESSURE VOLUME PRESSAVG GPRESSAVG
ENERGY: 0 2.4909 1.2035 2.1748 0.0000 -10789.2929 1463.2191 0.0000 0.0000 1828.1639 -7492.0407 307.9926 -9320.2046 -7492.0407 307.9926 -63.4493 13.8579 31242.6668 -63.4493 13.8579
ENERGY: 300000 4.4832 1.4586 3.8224 0.0000 -10842.5335 1406.4257 0.0000 0.0000 1775.9582 -7650.3854 299.1975 -9426.3436 -7591.7909 301.3152 -797.5248 -697.5175 30918.5517 -441.8140 -341.8996
ENERGY: 600000 4.7902 0.9315 4.8670 0.0000 -10869.0460 1456.5848 0.0000 0.0000 1729.7487 -7672.1239 291.4125 -9401.8726 -7594.1402 298.8684 -32.8804 41.4382 30191.9870 -199.1311 -113.4777
ENERGY: 900000 3.2380 3.8270 4.9567 0.0000 -10821.3071 1400.3964 0.0000 0.0000 1756.1632 -7652.7257 295.8626 -9408.8889 -7599.6315 299.2489 -514.2691 -458.8612 30627.0199 -238.3707 -157.6097
ENERGY: 1200000 0.9744 2.7421 0.9282 0.0000 -10777.8540 1396.8499 0.0000 0.0000 1788.4530 -7587.9063 301.3025 -9376.3594 -7591.8379 299.7226 -681.1010 -611.4017 31343.3392 -297.7349 -227.1684
ENERGY: 1500000 3.4401 2.3127 0.8978 0.0000 -10784.4579 1459.6764 0.0000 0.0000 1819.2483 -7498.8826 306.4906 -9318.1309 -7587.6649 299.1324 29.0935 149.1027 30951.6397 -204.3969 -128.8545
TCL: Running FEP window  16: Lambda1 0.7500000000000001 Lambda2 0.8000000000000002 [dLambda 0.050000000000000044]
TCL: Setting parameter firsttimestep to 0
TCL: Setting parameter alchLambda to 0.7500000000000001
Info: NONBONDED TABLE R-SQUARED SPACING: 0.0625
Info: NONBONDED TABLE SIZE: 705 POINTS
TCL: Setting parameter alchLambda2 to 0.8000000000000002
Info: NONBONDED TABLE R-SQUARED SPACING: 0.0625
Info: NONBONDED TABLE SIZE: 705 POINTS
TCL: Running for 1500000 steps
ETITLE: TS BOND ANGLE DIHED IMPRP ELECT VDW BOUNDARY MISC KINETIC TOTAL TEMP POTENTIAL TOTALAVG TEMPAVG PRESSURE GPRESSURE VOLUME PRESSAVG GPRESSAVG
ENERGY: 0 3.4401 2.3127 0.8978 0.0000 -10784.5556 1460.1712 0.0000 0.0000 1818.3637 -7499.3700 306.3416 -9317.7337 -7499.3700 306.3416 75.8098 162.7520 30951.6397 75.8098 162.7520
ENERGY: 300000 1.5608 2.0809 2.3587 0.0000 -10806.2123 1465.0805 0.0000 0.0000 1731.1944 -7603.9369 291.6561 -9335.1313 -7585.0020 298.7887 105.1397 215.5141 30705.2807 81.3433 150.8046
ENERGY: 600000 2.6255 1.9552 3.9650 0.0000 -10862.3826 1500.1034 0.0000 0.0000 1757.0762 -7596.6572 296.0164 -9353.7334 -7578.2444 298.9220 250.0585 333.3936 30884.3930 112.9013 177.7393
ENERGY: 900000 4.4591 1.9817 2.6069 0.0000 -10889.2521 1485.9907 0.0000 0.0000 1791.0347 -7603.1790 301.7374 -9394.2137 -7587.6904 299.5239 -51.5946 33.1777 30653.7005 84.7661 148.4562
ENERGY: 1200000 4.8623 2.8770 6.1722 0.0000 -10735.3826 1415.4759 0.0000 0.0000 1801.3159 -7504.6793 303.4695 -9305.9952 -7572.6515 300.6411 -332.0770 -289.0250 31377.9629 155.9494 216.5241
ENERGY: 1500000 1.2749 2.8313 2.7917 0.0000 -10716.7616 1392.4021 0.0000 0.0000 1735.5017 -7581.9598 292.3817 -9317.4615 -7579.7177 299.2908 -94.2795 -12.3405 30550.3544 76.1222 134.1192
TCL: Running FEP window  17: Lambda1 0.8000000000000002 Lambda2 0.8500000000000002 [dLambda 0.050000000000000044]
TCL: Setting parameter firsttimestep to 0
TCL: Setting parameter alchLambda to 0.8000000000000002
Info: NONBONDED TABLE R-SQUARED SPACING: 0.0625
Info: NONBONDED TABLE SIZE: 705 POINTS
TCL: Setting parameter alchLambda2 to 0.8500000000000002
Info: NONBONDED TABLE R-SQUARED SPACING: 0.0625
Info: NONBONDED TABLE SIZE: 705 POINTS
TCL: Running for 1500000 steps
ETITLE: TS BOND ANGLE DIHED IMPRP ELECT VDW BOUNDARY MISC KINETIC TOTAL TEMP POTENTIAL TOTALAVG TEMPAVG PRESSURE GPRESSURE VOLUME PRESSAVG GPRESSAVG
ENERGY: 0 1.2749 2.8314 2.7917 0.0000 -10716.8214 1392.6325 0.0000 0.0000 1734.5997 -7582.6911 292.2298 -9317.2909 -7582.6911 292.2298 -67.2805 4.4364 30550.3544 -67.2805 4.4364
ENERGY: 300000 1.0665 2.7456 0.8272 0.0000 -10738.0812 1421.9254 0.0000 0.0000 1828.5101 -7483.0064 308.0509 -9311.5165 -7563.8235 301.5077 -229.5250 -140.0774 31249.1309 -28.6797 59.0443
ENERGY: 600000 2.4678 1.8706 2.5888 0.0000 -10822.6676 1477.7490 0.0000 0.0000 1871.9478 -7466.0436 315.3689 -9337.9914 -7539.3372 303.5368 191.1431 239.8554 30783.7543 32.9691 105.0959
ENERGY: 900000 5.4198 1.6902 6.4858 0.0000 -10857.1017 1458.2251 0.0000 0.0000 1816.6812 -7568.5996 306.0581 -9385.2808 -7546.1957 303.5895 -326.2622 -244.9301 31002.7998 88.6248 155.0713
ENERGY: 1200000 2.1884 4.4783 1.0969 0.0000 -10761.0811 1422.2281 0.0000 0.0000 1795.3963 -7535.6932 302.4722 -9331.0895 -7543.5858 303.3566 -256.1855 -170.9653 30826.9751 95.1954 162.0308
ENERGY: 1500000 3.6008 2.5662 6.4994 0.0000 -10746.1113 1423.7577 0.0000 0.0000 1761.8143 -7547.8728 296.8146 -9309.6872 -7539.7203 302.3801 -73.9668 -66.2240 30840.8430 23.9203 90.3340
TCL: Running FEP window  18: Lambda1 0.8500000000000002 Lambda2 0.9000000000000002 [dLambda 0.050000000000000044]
TCL: Setting parameter firsttimestep to 0
TCL: Setting parameter alchLambda to 0.8500000000000002
Info: NONBONDED TABLE R-SQUARED SPACING: 0.0625
Info: NONBONDED TABLE SIZE: 705 POINTS
TCL: Setting parameter alchLambda2 to 0.9000000000000002
Info: NONBONDED TABLE R-SQUARED SPACING: 0.0625
Info: NONBONDED TABLE SIZE: 705 POINTS
TCL: Running for 1500000 steps
ETITLE: TS BOND ANGLE DIHED IMPRP ELECT VDW BOUNDARY MISC KINETIC TOTAL TEMP POTENTIAL TOTALAVG TEMPAVG PRESSURE GPRESSURE VOLUME PRESSAVG GPRESSAVG
ENERGY: 0 3.6008 2.5662 6.4994 0.0000 -10746.3622 1424.9222 0.0000 0.0000 1760.8903 -7547.8832 296.6590 -9308.7735 -7547.8832 296.6590 -115.5703 -35.3028 30840.8430 -115.5703 -35.3028
ENERGY: 300000 1.2959 3.0944 1.8059 0.0000 -10746.6838 1437.2569 0.0000 0.0000 1803.9898 -7499.2409 303.9200 -9303.2307 -7515.5853 301.5978 -178.2930 -77.7491 30977.3525 -27.6436 22.9578
ENERGY: 600000 2.7156 4.3828 4.9712 0.0000 -10776.2528 1396.7618 0.0000 0.0000 1806.7524 -7560.6691 304.3854 -9367.4215 -7538.2266 301.0905 -660.5773 -609.4634 31120.3497 -8.6959 49.8478
ENERGY: 900000 4.8822 3.6873 1.9708 0.0000 -11010.1015 1547.6480 0.0000 0.0000 1728.2676 -7723.6456 291.1630 -9451.9132 -7559.6082 300.7991 624.6064 627.9211 30383.1070 -21.5757 27.2782
ENERGY: 1200000 1.5884 3.5575 2.2223 0.0000 -10817.9206 1421.7240 0.0000 0.0000 1778.0419 -7610.7865 299.5485 -9388.8284 -7561.8615 299.9324 -177.2658 -155.3885 30743.7417 13.9447 64.9495
ENERGY: 1500000 1.6632 3.2126 3.4224 0.0000 -10820.7194 1442.3771 0.0000 0.0000 1743.2308 -7626.8134 293.6838 -9370.0441 -7563.6319 300.1871 -244.7764 -168.6643 30978.5142 42.5372 92.2915
TCL: Running FEP window  19: Lambda1 0.9000000000000002 Lambda2 0.9500000000000003 [dLambda 0.050000000000000044]
TCL: Setting parameter firsttimestep to 0
TCL: Setting parameter alchLambda to 0.9000000000000002
Info: NONBONDED TABLE R-SQUARED SPACING: 0.0625
Info: NONBONDED TABLE SIZE: 705 POINTS
TCL: Setting parameter alchLambda2 to 0.9500000000000003
Info: NONBONDED TABLE R-SQUARED SPACING: 0.0625
Info: NONBONDED TABLE SIZE: 705 POINTS
TCL: Running for 1500000 steps
ETITLE: TS BOND ANGLE DIHED IMPRP ELECT VDW BOUNDARY MISC KINETIC TOTAL TEMP POTENTIAL TOTALAVG TEMPAVG PRESSURE GPRESSURE VOLUME PRESSAVG GPRESSAVG
ENERGY: 0 1.6632 3.2126 3.4224 0.0000 -10820.8504 1442.8696 0.0000 0.0000 1742.3537 -7627.3288 293.5361 -9369.6825 -7627.3288 293.5361 -238.4598 -152.8446 30978.5142 -238.4598 -152.8446
ENERGY: 300000 2.5305 0.7582 3.7195 0.0000 -10743.8069 1414.5833 0.0000 0.0000 1810.0252 -7512.1900 304.9368 -9322.2152 -7585.7256 297.1768 -141.2020 -90.0682 30964.2715 422.3018 485.9528
ENERGY: 600000 5.0936 4.5324 5.9451 0.0000 -10678.0259 1292.2055 0.0000 0.0000 1742.2693 -7627.9801 293.5219 -9370.2494 -7553.9023 298.9910 -1141.3720 -1037.4285 30411.3778 -19.6802 50.3752
ENERGY: 900000 1.6455 2.5774 3.9705 0.0000 -10890.7961 1491.2525 0.0000 0.0000 1773.8882 -7617.4621 298.8487 -9391.3502 -7561.4060 299.7702 206.4424 201.8545 31048.6868 47.8607 102.5011
ENERGY: 1200000 3.1296 1.7147 1.9765 0.0000 -10739.1048 1416.6592 0.0000 0.0000 1736.6222 -7579.0026 292.5705 -9315.6248 -7567.9483 298.8197 -124.3428 -41.1211 30742.4011 28.6669 88.7827
ENERGY: 1500000 2.0640 5.1659 3.0288 0.0000 -10819.8401 1444.1251 0.0000 0.0000 1791.6867 -7573.7696 301.8473 -9365.4562 -7563.1126 299.4752 155.9295 201.9223 30360.6079 56.2499 107.2757
TCL: Running FEP window  20: Lambda1 0.9500000000000003 Lambda2 1.0    [dLambda 0.04999999999999971]
TCL: Setting parameter firsttimestep to 0
TCL: Setting parameter alchLambda to 0.9500000000000003
Info: NONBONDED TABLE R-SQUARED SPACING: 0.0625
Info: NONBONDED TABLE SIZE: 705 POINTS
TCL: Setting parameter alchLambda2 to 1.0
Info: NONBONDED TABLE R-SQUARED SPACING: 0.0625
Info: NONBONDED TABLE SIZE: 705 POINTS
TCL: Running for 1500000 steps
ETITLE: TS BOND ANGLE DIHED IMPRP ELECT VDW BOUNDARY MISC KINETIC TOTAL TEMP POTENTIAL TOTALAVG TEMPAVG PRESSURE GPRESSURE VOLUME PRESSAVG GPRESSAVG
ENERGY: 0 2.0640 5.1659 3.0288 0.0000 -10819.9180 1444.3082 0.0000 0.0000 1790.7895 -7574.5616 301.6961 -9365.3511 -7574.5616 301.6961 135.2092 217.7036 30360.6079 135.2092 217.7036
ENERGY: 300000 4.7439 1.0124 3.8933 0.0000 -10838.5577 1434.0856 0.0000 0.0000 1741.2240 -7653.5984 293.3458 -9394.8224 -7571.9829 301.1975 -98.7831 -64.6168 30616.0588 -250.9710 -197.3803
ENERGY: 600000 1.4125 1.9167 3.6279 0.0000 -10830.0252 1442.6066 0.0000 0.0000 1796.8752 -7583.5863 302.7214 -9380.4615 -7570.1536 301.3563 -143.5999 -43.9692 30852.1808 -308.1445 -244.1359
ENERGY: 900000 4.8897 2.7841 2.0081 0.0000 -10987.6538 1501.1810 0.0000 0.0000 1760.5883 -7716.2026 296.6081 -9476.7909 -7588.8993 300.7116 216.0632 223.7203 30539.0829 -189.3588 -129.1768
ENERGY: 1200000 1.0660 1.5509 2.1659 0.0000 -10716.7825 1428.1820 0.0000 0.0000 1798.6437 -7485.1740 303.0193 -9283.8176 -7577.7767 301.6034 -170.7276 -84.8623 31341.5339 -135.9377 -71.6333
ENERGY: 1500000 3.7027 3.0997 2.9239 0.0000 -10731.9087 1371.5936 0.0000 0.0000 1728.3845 -7622.2044 291.1827 -9350.5889 -7585.4662 300.4219 -591.9886 -525.1836 30440.6017 -95.4118 -30.5299
TCL: Exiting due to exit command.
