Info: SIMULATION PARAMETERS:
Info: TIMESTEP               2
Info: NUMBER OF STEPS        0
Info: STEPS PER CYCLE        10
Info: PERIODIC CELL BASIS 1  35.89 0 0
Info: PERIODIC CELL BASIS 2  0 33.399 0
Info: PERIODIC CELL BASIS 3  0 0 37.195
Info: PERIODIC CELL CENTER   0 0 0
Info: WRAPPING WATERS AROUND PERIODIC BOUNDARIES ON OUTPUT.
Info: WRAPPING ALL CLUSTERS AROUND PERIODIC BOUNDARIES ON OUTPUT.
Info: FIRST LDB TIMESTEP     50
Info: LAST LDB TIMESTEP     -1
Info: HOM BACKGROUND SCALING 1
Info: PME BACKGROUND SCALING 1
Info: MIN ATOMS PER PATCH    40
Info: EMPTY PATCH LOAD       40 ATOMS
Info: INITIAL TEMPERATURE    300
Info: CENTER OF MASS MOVING INITIALLY? NO
Info: DIELECTRIC             1
Info: EXCLUDE                SCALED ONE-FOUR
Info: 1-4 ELECTROSTATICS SCALED BY 0.833333
Info: MODIFIED 1-4 VDW PARAMETERS WILL BE USED
Info: DCD FILENAME           mobley_4845722_equil.dcd
Info: DCD FREQUENCY          100000
Info: DCD FIRST STEP         100000
Info: DCD FILE WILL CONTAIN UNIT CELL DATA
Info: XST FILENAME           mobley_4845722_equil.xst
Info: XST FREQUENCY          100000
Info: NO VELOCITY DCD OUTPUT
Info: NO FORCE DCD OUTPUT
Info: OUTPUT FILENAME        mobley_4845722_equil
Info: BINARY OUTPUT FILES WILL BE USED
Info: RESTART FILENAME       mobley_4845722_equil.restart
Info: RESTART FREQUENCY      100000
Info: BINARY RESTART FILES WILL BE USED
Info: CUTOFF                 9
Info: PAIRLIST DISTANCE      11
Info: PAIRLIST SHRINK RATE   0.01
Info: PAIRLIST GROW RATE     0.01
Info: PAIRLIST TRIGGER       0.3
Info: PAIRLISTS PER CYCLE    2
Info: PAIRLISTS ENABLED
Info: MARGIN                 8
Info: HYDROGEN GROUP CUTOFF  2.5
Info: PATCH DIMENSION        21.5
Info: ENERGY OUTPUT STEPS    100000
Info: ENERGY EVALUATION STEPS    100000
Info: OUTPUT ENERGY PRECISION 4
Info: CROSSTERM ENERGY INCLUDED IN DIHEDRAL
Info: TIMING OUTPUT STEPS    1000000
Info: PRESSURE OUTPUT STEPS  100000
Info: FIXED ATOMS ACTIVE
Info: LANGEVIN DYNAMICS ACTIVE
Info: LANGEVIN TEMPERATURE   30
Info: LANGEVIN USING BBK INTEGRATOR
Info: LANGEVIN DAMPING COEFFICIENT IS 1 INVERSE PS
Info: LANGEVIN DYNAMICS APPLIED TO HYDROGENS
Info: LANGEVIN PISTON PRESSURE CONTROL ACTIVE
Info:        TARGET PRESSURE IS 1.01325 BAR
Info:     OSCILLATION PERIOD IS 50 FS
Info:             DECAY TIME IS 25 FS
Info:     PISTON TEMPERATURE IS 300 K
Info:       PRESSURE CONTROL IS GROUP-BASED
Info:    INITIAL STRAIN RATE IS 0 0 0
Info:       CELL FLUCTUATION IS ISOTROPIC
Info: PARTICLE MESH EWALD (PME) ACTIVE
Info: PME TOLERANCE               1e-06
Info: PME EWALD COEFFICIENT       0.348832
Info: PME INTERPOLATION ORDER     4
Info: PME GRID DIMENSIONS         36 36 40
Info: PME MAXIMUM GRID SPACING    1
Info: FULL ELECTROSTATIC EVALUATION FREQUENCY      2
Info: USING VERLET I (r-RESPA) MTS SCHEME.
Info: C1 SPLITTING OF LONG RANGE ELECTROSTATICS
Info: PLACING ATOMS IN PATCHES BY HYDROGEN GROUPS
Info: RIGID BONDS TO HYDROGEN : ALL
Info:         ERROR TOLERANCE : 1e-08
Info:          MAX ITERATIONS : 100
Info: RIGID WATER USING SETTLE ALGORITHM
Info: RANDOM NUMBER SEED     1742145579
Info: USE HYDROGEN BONDS?    NO
Info: Using AMBER format force field!
Info: AMBER PARM FILE        mobley_4845722.prmtop
Info: COORDINATE PDB         mobley_4845722.pdb
Info: Exclusions will be read from PARM file!
Info: SCNB (VDW SCALING)     2
Info: USING ARITHMETIC MEAN TO COMBINE L-J SIGMA PARAMETERS
Info: BINARY COORDINATES     mobley_4845722_min.coor
Info: SUMMARY OF PARAMETERS:
Info: 4 BONDS
Info: 2 ANGLES
Info:   2 HARMONIC
Info:   0 COSINE-BASED
Info: 2 DIHEDRAL
Info: 0 IMPROPER
Info: 0 CROSSTERM
Info: 0 VDW
Info: 10 VDW_PAIRS
Info: 0 NBTHOLE_PAIRS
Info: STRUCTURE SUMMARY:
Info: 2955 ATOMS
Info: 2955 BONDS
Info: 18 ANGLES
Info: 30 DIHEDRALS
Info: 0 IMPROPERS
Info: 0 CROSSTERMS
Info: 2994 EXCLUSIONS
Info: 12 FIXED ATOMS
Info: 2943 RIGID BONDS
Info: 0 RIGID BONDS BETWEEN FIXED ATOMS
Info: 5886 DEGREES OF FREEDOM
Info: 993 HYDROGEN GROUPS
Info: 3 ATOMS IN LARGEST HYDROGEN GROUP
Info: 993 MIGRATION GROUPS
Info: 3 ATOMS IN LARGEST MIGRATION GROUP
Info: 12 HYDROGEN GROUPS WITH ALL ATOMS FIXED
Info: TOTAL MASS = 17958.5 amu
Info: TOTAL CHARGE = -9.99998e-05 e
Info: MASS DENSITY = 0.668862 g/cm^3
Info: ATOM DENSITY = 0.0662775 atoms/A^3
Info: ADDED 0 IMPLICIT EXCLUSIONS
Info: NONBONDED TABLE R-SQUARED SPACING: 0.0625
Info: NONBONDED TABLE SIZE: 705 POINTS
Info: REMOVING COM VELOCITY 0.0196897 -0.140672 0.123772
TCL: Running for 100000 steps
ETITLE: TS BOND ANGLE DIHED IMPRP ELECT VDW BOUNDARY MISC KINETIC TOTAL TEMP POTENTIAL TOTAL3 TEMPAVG PRESSURE GPRESSURE VOLUME PRESSAVG GPRESSAVG
ENERGY: 0 0.0000 0.0000 0.0000 0.0000 -13704.2176 2400.8110 0.0000 0.0000 1707.1789 -9596.2277 291.9101 -11303.4066 -9595.8908 291.9101 404.7283 438.3610 44585.2786 404.7283 438.3610
ENERGY: 100000 0.0000 0.0000 0.0000 0.0000 -14319.5229 2536.0228 0.0000 0.0000 176.4687 -11607.0315 30.1743 -11783.5002 -11606.6216 30.8957 313.6187 392.1483 29053.5566 2.9475 2.9457
TCL: Running 100000 steps at 60 kelvin.
TCL: Setting parameter langevinTemp to 60
TCL: Running for 100000 steps
ETITLE: TS BOND ANGLE DIHED IMPRP ELECT VDW BOUNDARY MISC KINETIC TOTAL TEMP POTENTIAL TOTAL3 TEMPAVG PRESSURE GPRESSURE VOLUME PRESSAVG GPRESSAVG
ENERGY: 100000 0.0000 0.0000 0.0000 0.0000 -14319.5229 2536.0228 0.0000 0.0000 176.3819 -11607.1182 30.1595 -11783.5002 -11606.7779 30.1595 324.2630 392.1247 29053.5566 324.2630 392.1247
ENERGY: 200000 0.0000 0.0000 0.0000 0.0000 -14143.4211 2426.8504 0.0000 0.0000 352.9147 -11363.6560 60.3448 -11716.5707 -11362.8720 60.0754 -210.6536 -149.8471 28824.3387 3.6899 3.6928
TCL: Running 100000 steps at 90 kelvin.
TCL: Setting parameter langevinTemp to 90
TCL: Running for 100000 steps
ETITLE: TS BOND ANGLE DIHED IMPRP ELECT VDW BOUNDARY MISC KINETIC TOTAL TEMP POTENTIAL TOTAL3 TEMPAVG PRESSURE GPRESSURE VOLUME PRESSAVG GPRESSAVG
ENERGY: 200000 0.0000 0.0000 0.0000 0.0000 -14143.4211 2426.8504 0.0000 0.0000 352.7357 -11363.8350 60.3142 -11716.5707 -11363.1801 60.3142 -207.0067 -149.8737 28824.3387 -207.0067 -149.8737
ENERGY: 300000 0.0000 0.0000 0.0000 0.0000 -14102.0544 2491.1576 0.0000 0.0000 524.7293 -11086.1675 89.7233 -11610.8968 -11085.0536 90.1013 885.1409 946.6045 28553.7231 3.7347 3.7857
TCL: Running 100000 steps at 120 kelvin.
TCL: Setting parameter langevinTemp to 120
TCL: Running for 100000 steps
ETITLE: TS BOND ANGLE DIHED IMPRP ELECT VDW BOUNDARY MISC KINETIC TOTAL TEMP POTENTIAL TOTAL3 TEMPAVG PRESSURE GPRESSURE VOLUME PRESSAVG GPRESSAVG
ENERGY: 300000 0.0000 0.0000 0.0000 0.0000 -14102.0544 2491.1576 0.0000 0.0000 524.4695 -11086.4273 89.6789 -11610.8968 -11085.6258 89.6789 893.3904 946.8570 28553.7231 893.3904 946.8570
ENERGY: 400000 0.0000 0.0000 0.0000 0.0000 -13801.2319 2329.3183 0.0000 0.0000 710.8830 -10761.0306 121.5537 -11471.9136 -10759.6712 119.7470 63.4825 151.4724 28699.0343 4.4738 4.4538
TCL: Running 100000 steps at 150 kelvin.
TCL: Setting parameter langevinTemp to 150
TCL: Running for 100000 steps
ETITLE: TS BOND ANGLE DIHED IMPRP ELECT VDW BOUNDARY MISC KINETIC TOTAL TEMP POTENTIAL TOTAL3 TEMPAVG PRESSURE GPRESSURE VOLUME PRESSAVG GPRESSAVG
ENERGY: 400000 0.0000 0.0000 0.0000 0.0000 -13801.2319 2329.3183 0.0000 0.0000 710.5264 -10761.3872 121.4927 -11471.9136 -10760.2945 121.4927 100.5968 151.3059 28699.0343 100.5968 151.3059
ENERGY: 500000 0.0000 0.0000 0.0000 0.0000 -13606.9782 2289.4713 0.0000 0.0000 878.8456 -10438.6613 150.2736 -11317.5068 -10435.6721 149.7507 204.4485 289.3929 29064.3086 3.8494 3.9107
TCL: Running 100000 steps at 180 kelvin.
TCL: Setting parameter langevinTemp to 180
TCL: Running for 100000 steps
ETITLE: TS BOND ANGLE DIHED IMPRP ELECT VDW BOUNDARY MISC KINETIC TOTAL TEMP POTENTIAL TOTAL3 TEMPAVG PRESSURE GPRESSURE VOLUME PRESSAVG GPRESSAVG
ENERGY: 500000 0.0000 0.0000 0.0000 0.0000 -13606.9782 2289.4713 0.0000 0.0000 878.4043 -10439.1025 150.1982 -11317.5068 -10437.3546 150.1982 225.6153 291.0846 29064.3086 225.6153 291.0846
ENERGY: 600000 0.0000 0.0000 0.0000 0.0000 -13383.2945 2323.6371 0.0000 0.0000 1096.1979 -9963.4595 187.4386 -11059.6574 -9961.8448 180.2912 1638.6234 1729.8933 28856.2392 3.9820 3.9508
TCL: Running 100000 steps at 210 kelvin.
TCL: Setting parameter langevinTemp to 210
TCL: Running for 100000 steps
ETITLE: TS BOND ANGLE DIHED IMPRP ELECT VDW BOUNDARY MISC KINETIC TOTAL TEMP POTENTIAL TOTAL3 TEMPAVG PRESSURE GPRESSURE VOLUME PRESSAVG GPRESSAVG
ENERGY: 600000 0.0000 0.0000 0.0000 0.0000 -13383.2945 2323.6371 0.0000 0.0000 1095.6741 -9963.9832 187.3491 -11059.6574 -9962.0980 187.3491 1668.1476 1729.5436 28856.2392 1668.1476 1729.5436
ENERGY: 700000 0.0000 0.0000 0.0000 0.0000 -12380.1347 1818.5712 0.0000 0.0000 1253.4159 -9308.1475 214.3213 -10561.5635 -9305.9817 210.4677 -808.9024 -725.2291 29207.5017 2.6953 2.5818
TCL: Running 100000 steps at 240 kelvin.
TCL: Setting parameter langevinTemp to 240
TCL: Running for 100000 steps
ETITLE: TS BOND ANGLE DIHED IMPRP ELECT VDW BOUNDARY MISC KINETIC TOTAL TEMP POTENTIAL TOTAL3 TEMPAVG PRESSURE GPRESSURE VOLUME PRESSAVG GPRESSAVG
ENERGY: 700000 0.0000 0.0000 0.0000 0.0000 -12380.1347 1818.5712 0.0000 0.0000 1252.8337 -9308.7298 214.2217 -10561.5635 -9306.3115 214.2217 -807.7455 -726.9276 29207.5017 -807.7455 -726.9276
ENERGY: 800000 0.0000 0.0000 0.0000 0.0000 -11767.1789 1698.4026 0.0000 0.0000 1386.2460 -8682.5303 237.0339 -10068.7763 -8682.3094 239.7364 -276.4487 -181.9561 29487.7729 3.7787 3.7972
TCL: Running 100000 steps at 270 kelvin.
TCL: Setting parameter langevinTemp to 270
TCL: Running for 100000 steps
ETITLE: TS BOND ANGLE DIHED IMPRP ELECT VDW BOUNDARY MISC KINETIC TOTAL TEMP POTENTIAL TOTAL3 TEMPAVG PRESSURE GPRESSURE VOLUME PRESSAVG GPRESSAVG
ENERGY: 800000 0.0000 0.0000 0.0000 0.0000 -11767.1789 1698.4026 0.0000 0.0000 1385.5732 -8683.2031 236.9188 -10068.7763 -8680.3414 236.9188 -274.4218 -184.9950 29487.7729 -274.4218 -184.9950
ENERGY: 900000 0.0000 0.0000 0.0000 0.0000 -11168.1789 1527.5270 0.0000 0.0000 1555.4342 -8085.2177 265.9633 -9640.6519 -8081.9110 270.2096 -204.7806 -85.4243 29811.0671 4.3775 4.1213
TCL: Running 1000000 steps at 300 kelvin.
TCL: Setting parameter langevinTemp to 300
TCL: Running for 1000000 steps
ETITLE: TS BOND ANGLE DIHED IMPRP ELECT VDW BOUNDARY MISC KINETIC TOTAL TEMP POTENTIAL TOTAL3 TEMPAVG PRESSURE GPRESSURE VOLUME PRESSAVG GPRESSAVG
ENERGY: 900000 0.0000 0.0000 0.0000 0.0000 -11168.1789 1527.5270 0.0000 0.0000 1554.6467 -8086.0051 265.8287 -9640.6519 -8083.9430 265.8287 -165.3297 -84.5959 29811.0671 -165.3297 -84.5959
ENERGY: 1100000 0.0000 0.0000 0.0000 0.0000 -10765.9256 1500.6321 0.0000 0.0000 1731.7107 -7533.5829 296.1048 -9265.2936 -7528.5532 299.8515 472.3119 565.2348 30648.7093 3.9776 4.0070
ENERGY: 1300000 0.0000 0.0000 0.0000 0.0000 -10748.7048 1455.3223 0.0000 0.0000 1807.6818 -7485.7007 309.0951 -9293.3826 -7483.4239 299.4104 392.0719 463.3608 30209.5998 3.8509 3.7790
ENERGY: 1500000 0.0000 0.0000 0.0000 0.0000 -10677.0805 1428.3464 0.0000 0.0000 1739.4397 -7509.2944 297.4264 -9248.7341 -7504.9640 300.0778 130.0322 205.8080 30523.1431 5.3314 5.3523
ENERGY: 1700000 0.0000 0.0000 0.0000 0.0000 -10691.0181 1434.8655 0.0000 0.0000 1741.8370 -7514.3156 297.8363 -9256.1526 -7511.0476 300.8441 63.6775 101.8824 30731.5061 2.3674 2.3518
ENERGY: 1900000 0.0000 0.0000 0.0000 0.0000 -10729.1017 1408.0457 0.0000 0.0000 1764.6409 -7556.4150 301.7355 -9321.0560 -7552.4738 300.4550 -265.2634 -134.8699 30307.8847 4.0026 3.9209
TCL: Exiting due to exit command.
