Info: SIMULATION PARAMETERS:
Info: TIMESTEP               2
Info: NUMBER OF STEPS        0
Info: STEPS PER CYCLE        10
Info: PERIODIC CELL BASIS 1  36.281 0 0
Info: PERIODIC CELL BASIS 2  0 34.1 0
Info: PERIODIC CELL BASIS 3  0 0 36.199
Info: PERIODIC CELL CENTER   0 0 0
Info: WRAPPING WATERS AROUND PERIODIC BOUNDARIES ON OUTPUT.
Info: WRAPPING ALL CLUSTERS AROUND PERIODIC BOUNDARIES ON OUTPUT.
Info: FIRST LDB TIMESTEP     50
Info: LAST LDB TIMESTEP     -1
Info: HOM BACKGROUND SCALING 1
Info: PME BACKGROUND SCALING 1
Info: MIN ATOMS PER PATCH    40
Info: EMPTY PATCH LOAD       40 ATOMS
Info: INITIAL TEMPERATURE    300
Info: CENTER OF MASS MOVING INITIALLY? NO
Info: DIELECTRIC             1
Info: EXCLUDE                SCALED ONE-FOUR
Info: 1-4 ELECTROSTATICS SCALED BY 0.833333
Info: MODIFIED 1-4 VDW PARAMETERS WILL BE USED
Info: DCD FILENAME           mobley_4219614_equil.dcd
Info: DCD FREQUENCY          100000
Info: DCD FIRST STEP         100000
Info: DCD FILE WILL CONTAIN UNIT CELL DATA
Info: XST FILENAME           mobley_4219614_equil.xst
Info: XST FREQUENCY          100000
Info: NO VELOCITY DCD OUTPUT
Info: NO FORCE DCD OUTPUT
Info: OUTPUT FILENAME        mobley_4219614_equil
Info: BINARY OUTPUT FILES WILL BE USED
Info: RESTART FILENAME       mobley_4219614_equil.restart
Info: RESTART FREQUENCY      100000
Info: BINARY RESTART FILES WILL BE USED
Info: CUTOFF                 9
Info: PAIRLIST DISTANCE      11
Info: PAIRLIST SHRINK RATE   0.01
Info: PAIRLIST GROW RATE     0.01
Info: PAIRLIST TRIGGER       0.3
Info: PAIRLISTS PER CYCLE    2
Info: PAIRLISTS ENABLED
Info: MARGIN                 8
Info: HYDROGEN GROUP CUTOFF  2.5
Info: PATCH DIMENSION        21.5
Info: ENERGY OUTPUT STEPS    100000
Info: ENERGY EVALUATION STEPS    100000
Info: OUTPUT ENERGY PRECISION 4
Info: CROSSTERM ENERGY INCLUDED IN DIHEDRAL
Info: TIMING OUTPUT STEPS    1000000
Info: PRESSURE OUTPUT STEPS  100000
Info: FIXED ATOMS ACTIVE
Info: LANGEVIN DYNAMICS ACTIVE
Info: LANGEVIN TEMPERATURE   30
Info: LANGEVIN USING BBK INTEGRATOR
Info: LANGEVIN DAMPING COEFFICIENT IS 1 INVERSE PS
Info: LANGEVIN DYNAMICS APPLIED TO HYDROGENS
Info: LANGEVIN PISTON PRESSURE CONTROL ACTIVE
Info:        TARGET PRESSURE IS 1.01325 BAR
Info:     OSCILLATION PERIOD IS 50 FS
Info:             DECAY TIME IS 25 FS
Info:     PISTON TEMPERATURE IS 300 K
Info:       PRESSURE CONTROL IS GROUP-BASED
Info:    INITIAL STRAIN RATE IS 0 0 0
Info:       CELL FLUCTUATION IS ISOTROPIC
Info: PARTICLE MESH EWALD (PME) ACTIVE
Info: PME TOLERANCE               1e-06
Info: PME EWALD COEFFICIENT       0.348832
Info: PME INTERPOLATION ORDER     4
Info: PME GRID DIMENSIONS         40 36 40
Info: PME MAXIMUM GRID SPACING    1
Info: FULL ELECTROSTATIC EVALUATION FREQUENCY      2
Info: USING VERLET I (r-RESPA) MTS SCHEME.
Info: C1 SPLITTING OF LONG RANGE ELECTROSTATICS
Info: PLACING ATOMS IN PATCHES BY HYDROGEN GROUPS
Info: RIGID BONDS TO HYDROGEN : ALL
Info:         ERROR TOLERANCE : 1e-08
Info:          MAX ITERATIONS : 100
Info: RIGID WATER USING SETTLE ALGORITHM
Info: RANDOM NUMBER SEED     1742143268
Info: USE HYDROGEN BONDS?    NO
Info: Using AMBER format force field!
Info: AMBER PARM FILE        mobley_4219614.prmtop
Info: COORDINATE PDB         mobley_4219614.pdb
Info: Exclusions will be read from PARM file!
Info: SCNB (VDW SCALING)     2
Info: USING ARITHMETIC MEAN TO COMBINE L-J SIGMA PARAMETERS
Info: BINARY COORDINATES     mobley_4219614_min.coor
Info: SUMMARY OF PARAMETERS:
Info: 5 BONDS
Info: 3 ANGLES
Info:   3 HARMONIC
Info:   0 COSINE-BASED
Info: 2 DIHEDRAL
Info: 0 IMPROPER
Info: 0 CROSSTERM
Info: 0 VDW
Info: 15 VDW_PAIRS
Info: 0 NBTHOLE_PAIRS
Info: STRUCTURE SUMMARY:
Info: 2985 ATOMS
Info: 2985 BONDS
Info: 18 ANGLES
Info: 30 DIHEDRALS
Info: 0 IMPROPERS
Info: 0 CROSSTERMS
Info: 3024 EXCLUSIONS
Info: 12 FIXED ATOMS
Info: 2975 RIGID BONDS
Info: 2 RIGID BONDS BETWEEN FIXED ATOMS
Info: 5946 DEGREES OF FREEDOM
Info: 1001 HYDROGEN GROUPS
Info: 3 ATOMS IN LARGEST HYDROGEN GROUP
Info: 1001 MIGRATION GROUPS
Info: 3 ATOMS IN LARGEST MIGRATION GROUP
Info: 10 HYDROGEN GROUPS WITH ALL ATOMS FIXED
Info: TOTAL MASS = 18069.7 amu
Info: TOTAL CHARGE = -9.99942e-05 e
Info: MASS DENSITY = 0.670009 g/cm^3
Info: ATOM DENSITY = 0.0666521 atoms/A^3
Info: ADDED 0 IMPLICIT EXCLUSIONS
Info: NONBONDED TABLE R-SQUARED SPACING: 0.0625
Info: NONBONDED TABLE SIZE: 705 POINTS
Info: REMOVING COM VELOCITY 0.0843651 -0.103791 0.0160177
TCL: Running for 100000 steps
ETITLE: TS BOND ANGLE DIHED IMPRP ELECT VDW BOUNDARY MISC KINETIC TOTAL TEMP POTENTIAL TOTAL3 TEMPAVG PRESSURE GPRESSURE VOLUME PRESSAVG GPRESSAVG
ENERGY: 0 0.0000 0.0000 0.0000 0.0000 -13820.4640 2426.4839 0.0000 0.0000 1755.9461 -9638.0339 297.2191 -11393.9800 -9637.6682 297.2191 395.4453 429.3563 44784.7548 395.4453 429.3563
ENERGY: 100000 0.0000 0.0000 0.0000 0.0000 -14317.1802 2391.3853 0.0000 0.0000 181.3513 -11744.4437 30.6963 -11925.7950 -11743.8832 30.8742 -978.7879 -934.5292 29279.4193 4.0556 4.0427
TCL: Running 100000 steps at 60 kelvin.
TCL: Setting parameter langevinTemp to 60
TCL: Running for 100000 steps
ETITLE: TS BOND ANGLE DIHED IMPRP ELECT VDW BOUNDARY MISC KINETIC TOTAL TEMP POTENTIAL TOTAL3 TEMPAVG PRESSURE GPRESSURE VOLUME PRESSAVG GPRESSAVG
ENERGY: 100000 0.0000 0.0000 0.0000 0.0000 -14317.1802 2391.3853 0.0000 0.0000 181.2630 -11744.5320 30.6814 -11925.7950 -11744.0615 30.6814 -984.6344 -934.5164 29279.4193 -984.6344 -934.5164
ENERGY: 200000 0.0000 0.0000 0.0000 0.0000 -14373.2293 2529.6464 0.0000 0.0000 356.4229 -11487.1600 60.3297 -11843.5829 -11486.0634 59.6623 616.5641 665.1612 28885.3596 3.9838 4.0029
TCL: Running 100000 steps at 90 kelvin.
TCL: Setting parameter langevinTemp to 90
TCL: Running for 100000 steps
ETITLE: TS BOND ANGLE DIHED IMPRP ELECT VDW BOUNDARY MISC KINETIC TOTAL TEMP POTENTIAL TOTAL3 TEMPAVG PRESSURE GPRESSURE VOLUME PRESSAVG GPRESSAVG
ENERGY: 200000 0.0000 0.0000 0.0000 0.0000 -14373.2293 2529.6464 0.0000 0.0000 356.2481 -11487.3349 60.3001 -11843.5829 -11486.6259 60.3001 618.1052 665.8031 28885.3596 618.1052 665.8031
ENERGY: 300000 0.0000 0.0000 0.0000 0.0000 -14036.2714 2283.9086 0.0000 0.0000 525.7443 -11226.6185 88.9898 -11752.3628 -11225.1473 90.0342 -1132.1574 -1059.7466 29100.9603 4.1913 4.2182
TCL: Running 100000 steps at 120 kelvin.
TCL: Setting parameter langevinTemp to 120
TCL: Running for 100000 steps
ETITLE: TS BOND ANGLE DIHED IMPRP ELECT VDW BOUNDARY MISC KINETIC TOTAL TEMP POTENTIAL TOTAL3 TEMPAVG PRESSURE GPRESSURE VOLUME PRESSAVG GPRESSAVG
ENERGY: 300000 0.0000 0.0000 0.0000 0.0000 -14036.2714 2283.9086 0.0000 0.0000 525.4888 -11226.8740 88.9465 -11752.3628 -11225.5981 88.9465 -1115.1499 -1059.5557 29100.9603 -1115.1499 -1059.5557
ENERGY: 400000 0.0000 0.0000 0.0000 0.0000 -14108.2388 2489.3908 0.0000 0.0000 711.6325 -10907.2154 120.4540 -11618.8479 -10905.3338 119.7721 1185.5590 1215.8564 28865.3270 3.1097 3.1046
TCL: Running 100000 steps at 150 kelvin.
TCL: Setting parameter langevinTemp to 150
TCL: Running for 100000 steps
ETITLE: TS BOND ANGLE DIHED IMPRP ELECT VDW BOUNDARY MISC KINETIC TOTAL TEMP POTENTIAL TOTAL3 TEMPAVG PRESSURE GPRESSURE VOLUME PRESSAVG GPRESSAVG
ENERGY: 400000 0.0000 0.0000 0.0000 0.0000 -14108.2388 2489.3908 0.0000 0.0000 711.2899 -10907.5580 120.3960 -11618.8479 -10906.3728 120.3960 1168.9760 1215.9446 28865.3270 1168.9760 1215.9446
ENERGY: 500000 0.0000 0.0000 0.0000 0.0000 -13784.8801 2367.8369 0.0000 0.0000 905.9501 -10511.0931 153.3451 -11417.0432 -10508.6403 150.1001 800.1991 834.9028 29181.5985 4.4339 4.3464
TCL: Running 100000 steps at 180 kelvin.
TCL: Setting parameter langevinTemp to 180
TCL: Running for 100000 steps
ETITLE: TS BOND ANGLE DIHED IMPRP ELECT VDW BOUNDARY MISC KINETIC TOTAL TEMP POTENTIAL TOTAL3 TEMPAVG PRESSURE GPRESSURE VOLUME PRESSAVG GPRESSAVG
ENERGY: 500000 0.0000 0.0000 0.0000 0.0000 -13784.8801 2367.8369 0.0000 0.0000 905.5078 -10511.5354 153.2702 -11417.0432 -10510.0093 153.2702 776.7205 835.7977 29181.5985 776.7205 835.7977
ENERGY: 600000 0.0000 0.0000 0.0000 0.0000 -13331.1894 2177.2497 0.0000 0.0000 1082.4622 -10071.4775 183.2222 -11153.9397 -10068.7527 179.9657 254.4325 386.1811 29064.9266 2.2689 2.4027
TCL: Running 100000 steps at 210 kelvin.
TCL: Setting parameter langevinTemp to 210
TCL: Running for 100000 steps
ETITLE: TS BOND ANGLE DIHED IMPRP ELECT VDW BOUNDARY MISC KINETIC TOTAL TEMP POTENTIAL TOTAL3 TEMPAVG PRESSURE GPRESSURE VOLUME PRESSAVG GPRESSAVG
ENERGY: 600000 0.0000 0.0000 0.0000 0.0000 -13331.1894 2177.2497 0.0000 0.0000 1081.9529 -10071.9867 183.1361 -11153.9397 -10069.9084 183.1361 326.6953 386.3614 29064.9266 326.6953 386.3614
ENERGY: 700000 0.0000 0.0000 0.0000 0.0000 -12606.3317 1915.2238 0.0000 0.0000 1234.8768 -9456.2310 209.0206 -10691.1079 -9453.3911 209.9880 -161.7804 -59.5611 29340.5226 2.7458 2.7998
TCL: Running 100000 steps at 240 kelvin.
TCL: Setting parameter langevinTemp to 240
TCL: Running for 100000 steps
ETITLE: TS BOND ANGLE DIHED IMPRP ELECT VDW BOUNDARY MISC KINETIC TOTAL TEMP POTENTIAL TOTAL3 TEMPAVG PRESSURE GPRESSURE VOLUME PRESSAVG GPRESSAVG
ENERGY: 700000 0.0000 0.0000 0.0000 0.0000 -12606.3317 1915.2238 0.0000 0.0000 1234.2826 -9456.8253 208.9200 -10691.1079 -9454.8494 208.9200 -145.4149 -59.1655 29340.5226 -145.4149 -59.1655
ENERGY: 800000 0.0000 0.0000 0.0000 0.0000 -11818.6992 1663.3130 0.0000 0.0000 1441.0766 -8714.3095 243.9229 -10155.3861 -8712.3977 240.4362 -436.5753 -256.1774 29623.1231 3.5005 3.5864
TCL: Running 100000 steps at 270 kelvin.
TCL: Setting parameter langevinTemp to 270
TCL: Running for 100000 steps
ETITLE: TS BOND ANGLE DIHED IMPRP ELECT VDW BOUNDARY MISC KINETIC TOTAL TEMP POTENTIAL TOTAL3 TEMPAVG PRESSURE GPRESSURE VOLUME PRESSAVG GPRESSAVG
ENERGY: 800000 0.0000 0.0000 0.0000 0.0000 -11818.6992 1663.3130 0.0000 0.0000 1440.3737 -8715.0125 243.8039 -10155.3861 -8712.7936 243.8039 -341.3129 -256.3285 29623.1231 -341.3129 -256.3285
ENERGY: 900000 0.0000 0.0000 0.0000 0.0000 -11167.5501 1465.2579 0.0000 0.0000 1581.5364 -8120.7558 267.6977 -9702.2922 -8120.1145 269.8721 -800.9449 -662.1986 30233.8233 1.0490 0.9836
TCL: Running 1000000 steps at 300 kelvin.
TCL: Setting parameter langevinTemp to 300
TCL: Running for 1000000 steps
ETITLE: TS BOND ANGLE DIHED IMPRP ELECT VDW BOUNDARY MISC KINETIC TOTAL TEMP POTENTIAL TOTAL3 TEMPAVG PRESSURE GPRESSURE VOLUME PRESSAVG GPRESSAVG
ENERGY: 900000 0.0000 0.0000 0.0000 0.0000 -11167.5501 1465.2579 0.0000 0.0000 1580.7388 -8121.5534 267.5627 -9702.2922 -8118.8119 267.5627 -749.6697 -664.6718 30233.8233 -749.6697 -664.6718
ENERGY: 1100000 0.0000 0.0000 0.0000 0.0000 -10815.5014 1390.8323 0.0000 0.0000 1795.0739 -7629.5952 303.8420 -9424.6691 -7624.8428 300.5485 -505.9607 -428.1994 30832.8671 3.6087 3.3750
ENERGY: 1300000 0.0000 0.0000 0.0000 0.0000 -10806.6798 1448.9530 0.0000 0.0000 1809.3297 -7548.3972 306.2550 -9357.7269 -7545.8972 301.0287 210.5831 314.4307 30512.4045 4.8799 4.8461
ENERGY: 1500000 0.0000 0.0000 0.0000 0.0000 -10761.0759 1428.7279 0.0000 0.0000 1766.0327 -7566.3153 298.9264 -9332.3480 -7561.1317 300.2870 -294.0809 -171.3033 31257.2002 3.9960 3.7584
ENERGY: 1700000 0.0000 0.0000 0.0000 0.0000 -10738.3808 1413.0518 0.0000 0.0000 1762.7318 -7562.5971 298.3676 -9325.3289 -7557.0598 300.7885 -520.1169 -410.3825 31589.9571 3.6595 3.6423
ENERGY: 1900000 0.0000 0.0000 0.0000 0.0000 -10920.8975 1465.5242 0.0000 0.0000 1762.6504 -7692.7229 298.3539 -9455.3733 -7688.8831 300.2134 134.5454 189.0409 30445.5323 2.8402 2.9204
TCL: Exiting due to exit command.
