Info: SIMULATION PARAMETERS:
Info: TIMESTEP               2
Info: NUMBER OF STEPS        0
Info: STEPS PER CYCLE        10
Info: PERIODIC CELL BASIS 1  38.861 0 0
Info: PERIODIC CELL BASIS 2  0 39.303 0
Info: PERIODIC CELL BASIS 3  0 0 39.271
Info: PERIODIC CELL CENTER   0 0 0
Info: WRAPPING WATERS AROUND PERIODIC BOUNDARIES ON OUTPUT.
Info: WRAPPING ALL CLUSTERS AROUND PERIODIC BOUNDARIES ON OUTPUT.
Info: FIRST LDB TIMESTEP     50
Info: LAST LDB TIMESTEP     -1
Info: HOM BACKGROUND SCALING 1
Info: PME BACKGROUND SCALING 1
Info: MIN ATOMS PER PATCH    40
Info: EMPTY PATCH LOAD       40 ATOMS
Info: INITIAL TEMPERATURE    300
Info: CENTER OF MASS MOVING INITIALLY? NO
Info: DIELECTRIC             1
Info: EXCLUDE                SCALED ONE-FOUR
Info: 1-4 ELECTROSTATICS SCALED BY 0.833333
Info: MODIFIED 1-4 VDW PARAMETERS WILL BE USED
Info: DCD FILENAME           mobley_3867265_min.dcd
Info: DCD FREQUENCY          5000
Info: DCD FIRST STEP         5000
Info: DCD FILE WILL CONTAIN UNIT CELL DATA
Info: XST FILENAME           mobley_3867265_min.xst
Info: XST FREQUENCY          5000
Info: NO VELOCITY DCD OUTPUT
Info: NO FORCE DCD OUTPUT
Info: OUTPUT FILENAME        mobley_3867265_min
Info: BINARY OUTPUT FILES WILL BE USED
Info: RESTART FILENAME       mobley_3867265_min.restart
Info: RESTART FREQUENCY      5000
Info: BINARY RESTART FILES WILL BE USED
Info: CUTOFF                 9
Info: PAIRLIST DISTANCE      11
Info: PAIRLIST SHRINK RATE   0.01
Info: PAIRLIST GROW RATE     0.01
Info: PAIRLIST TRIGGER       0.3
Info: PAIRLISTS PER CYCLE    2
Info: PAIRLISTS ENABLED
Info: MARGIN                 8
Info: HYDROGEN GROUP CUTOFF  2.5
Info: PATCH DIMENSION        21.5
Info: ENERGY OUTPUT STEPS    5000
Info: ENERGY EVALUATION STEPS    5000
Info: OUTPUT ENERGY PRECISION 4
Info: CROSSTERM ENERGY INCLUDED IN DIHEDRAL
Info: TIMING OUTPUT STEPS    50000
Info: PRESSURE OUTPUT STEPS  5000
Info: LANGEVIN DYNAMICS ACTIVE
Info: LANGEVIN TEMPERATURE   300
Info: LANGEVIN USING BBK INTEGRATOR
Info: LANGEVIN DAMPING COEFFICIENT IS 1 INVERSE PS
Info: LANGEVIN DYNAMICS APPLIED TO HYDROGENS
Info: LANGEVIN PISTON PRESSURE CONTROL ACTIVE
Info:        TARGET PRESSURE IS 1.01325 BAR
Info:     OSCILLATION PERIOD IS 50 FS
Info:             DECAY TIME IS 25 FS
Info:     PISTON TEMPERATURE IS 300 K
Info:       PRESSURE CONTROL IS GROUP-BASED
Info:    INITIAL STRAIN RATE IS 0 0 0
Info:       CELL FLUCTUATION IS ISOTROPIC
Info: PARTICLE MESH EWALD (PME) ACTIVE
Info: PME TOLERANCE               1e-06
Info: PME EWALD COEFFICIENT       0.348832
Info: PME INTERPOLATION ORDER     4
Info: PME GRID DIMENSIONS         40 40 40
Info: PME MAXIMUM GRID SPACING    1
Info: FULL ELECTROSTATIC EVALUATION FREQUENCY      2
Info: USING VERLET I (r-RESPA) MTS SCHEME.
Info: C1 SPLITTING OF LONG RANGE ELECTROSTATICS
Info: PLACING ATOMS IN PATCHES BY HYDROGEN GROUPS
Info: RIGID BONDS TO HYDROGEN : ALL
Info:         ERROR TOLERANCE : 1e-08
Info:          MAX ITERATIONS : 100
Info: RIGID WATER USING SETTLE ALGORITHM
Info: RANDOM NUMBER SEED     1741331502
Info: USE HYDROGEN BONDS?    NO
Info: Using AMBER format force field!
Info: AMBER PARM FILE        mobley_3867265.prmtop
Info: COORDINATE PDB         mobley_3867265.pdb
Info: Exclusions will be read from PARM file!
Info: SCNB (VDW SCALING)     2
Info: USING ARITHMETIC MEAN TO COMBINE L-J SIGMA PARAMETERS
Info: SUMMARY OF PARAMETERS:
Info: 5 BONDS
Info: 4 ANGLES
Info:   4 HARMONIC
Info:   0 COSINE-BASED
Info: 4 DIHEDRAL
Info: 0 IMPROPER
Info: 0 CROSSTERM
Info: 0 VDW
Info: 21 VDW_PAIRS
Info: 0 NBTHOLE_PAIRS
Info: STRUCTURE SUMMARY:
Info: 4288 ATOMS
Info: 4287 BONDS
Info: 15 ANGLES
Info: 19 DIHEDRALS
Info: 0 IMPROPERS
Info: 0 CROSSTERMS
Info: 4314 EXCLUSIONS
Info: 4284 RIGID BONDS
Info: 8580 DEGREES OF FREEDOM
Info: 1430 HYDROGEN GROUPS
Info: 4 ATOMS IN LARGEST HYDROGEN GROUP
Info: 1430 MIGRATION GROUPS
Info: 4 ATOMS IN LARGEST MIGRATION GROUP
Info: TOTAL MASS = 25748.9 amu
Info: TOTAL CHARGE = 0.000199959 e
Info: MASS DENSITY = 0.712863 g/cm^3
Info: ATOM DENSITY = 0.0714896 atoms/A^3
Info: ADDED 0 IMPLICIT EXCLUSIONS
Info: NONBONDED TABLE R-SQUARED SPACING: 0.0625
Info: NONBONDED TABLE SIZE: 705 POINTS
Info: REMOVING COM VELOCITY -0.0382167 0.157556 -0.105529
TCL: Minimizing for 2000 steps
ETITLE: TS BOND ANGLE DIHED IMPRP ELECT VDW BOUNDARY MISC KINETIC TOTAL TEMP POTENTIAL TOTAL3 TEMPAVG PRESSURE GPRESSURE VOLUME PRESSAVG GPRESSAVG
ENERGY: 0 0.3080 0.3007 46.1406 0.0000 -13201.4509 1503.7546 0.0000 0.0000 0.0000 -11650.9469 0.0000 -11650.9469 -11650.9469 0.0000 10814.9049 -15399.3365 59980.7143 10814.9049 -15399.3365
ENERGY: 400 57.6049 5.3966 44.2135 0.0000 -17855.5981 2538.5797 0.0000 0.0000 0.0000 -15209.8034 0.0000 -15209.8034 -15209.8034 0.0000 14975.4187 15065.8256 59980.7143 14975.4187 15065.8256
ENERGY: 800 0.7846 2.3971 42.6366 0.0000 -18944.5305 3119.6492 0.0000 0.0000 0.0000 -15779.0631 0.0000 -15779.0631 -15779.0631 0.0000 18211.6911 18329.3247 59980.7143 18211.6911 18329.3247
ENERGY: 1200 0.4599 2.2420 42.8005 0.0000 -19237.9724 3206.5903 0.0000 0.0000 0.0000 -15985.8796 0.0000 -15985.8796 -15985.8796 0.0000 18699.2173 18817.7245 59980.7143 18699.2173 18817.7245
ENERGY: 1600 0.3249 1.9665 42.9067 0.0000 -19515.2866 3356.2177 0.0000 0.0000 0.0000 -16113.8707 0.0000 -16113.8707 -16113.8707 0.0000 19591.3985 19695.1823 59980.7143 19591.3985 19695.1823
ENERGY: 2000 0.1832 1.7182 43.0751 0.0000 -19654.8620 3424.6197 0.0000 0.0000 0.0000 -16185.2658 0.0000 -16185.2658 -16185.2658 0.0000 19975.8437 20076.9649 59980.7143 19975.8437 20076.9649
TCL: Exiting due to exit command.
Info: NAMD 3.0.1 for Linux-x86_64-multicore
Info: Please visit http://www.ks.uiuc.edu/Research/namd/
Info: for updates, documentation, and support information.
Info: Please cite Phillips et al., J. Chem. Phys. 153:044130 (2020) doi:10.1063/5.0014475
Info: in all publications reporting results obtained with NAMD.
Info: Based on Charm++/Converse 80000 for multicore-linux-x86_64-gcc
Info: Built Mon Oct 14 11:11:06 CDT 2024 by dhardy on athine.ks.uiuc.edu
Info: 1 NAMD  3.0.1  Linux-x86_64-multicore  16    k006  z5358697
Info: Running on 16 processors, 1 nodes, 1 physical nodes.
Info: CPU topology information available.
Info: Charm++/Converse parallel runtime startup completed at 0.00983493 s
Info: 1043.45 MB of memory in use based on /proc/self/stat
Info: Configuration file is mobley_3867265_equil.namd
Info: Working in the current directory /srv/scratch/z5358697/prod_prep_4/3867265
TCL: Running 25000 steps at 30 kelvin.
TCL: Suspending until startup complete.
Info: SIMULATION PARAMETERS:
Info: TIMESTEP               2
Info: NUMBER OF STEPS        0
Info: STEPS PER CYCLE        10
Info: PERIODIC CELL BASIS 1  38.861 0 0
Info: PERIODIC CELL BASIS 2  0 39.303 0
Info: PERIODIC CELL BASIS 3  0 0 39.271
Info: PERIODIC CELL CENTER   0 0 0
Info: WRAPPING WATERS AROUND PERIODIC BOUNDARIES ON OUTPUT.
Info: WRAPPING ALL CLUSTERS AROUND PERIODIC BOUNDARIES ON OUTPUT.
Info: FIRST LDB TIMESTEP     50
Info: LAST LDB TIMESTEP     -1
Info: HOM BACKGROUND SCALING 1
Info: PME BACKGROUND SCALING 1
Info: MIN ATOMS PER PATCH    40
Info: EMPTY PATCH LOAD       40 ATOMS
Info: INITIAL TEMPERATURE    300
Info: CENTER OF MASS MOVING INITIALLY? NO
Info: DIELECTRIC             1
Info: EXCLUDE                SCALED ONE-FOUR
Info: 1-4 ELECTROSTATICS SCALED BY 0.833333
Info: MODIFIED 1-4 VDW PARAMETERS WILL BE USED
Info: DCD FILENAME           mobley_3867265_equil.dcd
Info: DCD FREQUENCY          5000
Info: DCD FIRST STEP         5000
Info: DCD FILE WILL CONTAIN UNIT CELL DATA
Info: XST FILENAME           mobley_3867265_equil.xst
Info: XST FREQUENCY          5000
Info: NO VELOCITY DCD OUTPUT
Info: NO FORCE DCD OUTPUT
Info: OUTPUT FILENAME        mobley_3867265_equil
Info: BINARY OUTPUT FILES WILL BE USED
Info: RESTART FILENAME       mobley_3867265_equil.restart
Info: RESTART FREQUENCY      5000
Info: BINARY RESTART FILES WILL BE USED
Info: CUTOFF                 9
Info: PAIRLIST DISTANCE      11
Info: PAIRLIST SHRINK RATE   0.01
Info: PAIRLIST GROW RATE     0.01
Info: PAIRLIST TRIGGER       0.3
Info: PAIRLISTS PER CYCLE    2
Info: PAIRLISTS ENABLED
Info: MARGIN                 8
Info: HYDROGEN GROUP CUTOFF  2.5
Info: PATCH DIMENSION        21.5
Info: ENERGY OUTPUT STEPS    5000
Info: ENERGY EVALUATION STEPS    5000
Info: OUTPUT ENERGY PRECISION 4
Info: CROSSTERM ENERGY INCLUDED IN DIHEDRAL
Info: TIMING OUTPUT STEPS    50000
Info: PRESSURE OUTPUT STEPS  5000
Info: LANGEVIN DYNAMICS ACTIVE
Info: LANGEVIN TEMPERATURE   30
Info: LANGEVIN USING BBK INTEGRATOR
Info: LANGEVIN DAMPING COEFFICIENT IS 1 INVERSE PS
Info: LANGEVIN DYNAMICS APPLIED TO HYDROGENS
Info: LANGEVIN PISTON PRESSURE CONTROL ACTIVE
Info:        TARGET PRESSURE IS 1.01325 BAR
Info:     OSCILLATION PERIOD IS 50 FS
Info:             DECAY TIME IS 25 FS
Info:     PISTON TEMPERATURE IS 300 K
Info:       PRESSURE CONTROL IS GROUP-BASED
Info:    INITIAL STRAIN RATE IS 0 0 0
Info:       CELL FLUCTUATION IS ISOTROPIC
Info: PARTICLE MESH EWALD (PME) ACTIVE
Info: PME TOLERANCE               1e-06
Info: PME EWALD COEFFICIENT       0.348832
Info: PME INTERPOLATION ORDER     4
Info: PME GRID DIMENSIONS         40 40 40
Info: PME MAXIMUM GRID SPACING    1
Info: FULL ELECTROSTATIC EVALUATION FREQUENCY      2
Info: USING VERLET I (r-RESPA) MTS SCHEME.
Info: C1 SPLITTING OF LONG RANGE ELECTROSTATICS
Info: PLACING ATOMS IN PATCHES BY HYDROGEN GROUPS
Info: RIGID BONDS TO HYDROGEN : ALL
Info:         ERROR TOLERANCE : 1e-08
Info:          MAX ITERATIONS : 100
Info: RIGID WATER USING SETTLE ALGORITHM
Info: RANDOM NUMBER SEED     1741331518
Info: USE HYDROGEN BONDS?    NO
Info: Using AMBER format force field!
Info: AMBER PARM FILE        mobley_3867265.prmtop
Info: COORDINATE PDB         mobley_3867265.pdb
Info: Exclusions will be read from PARM file!
Info: SCNB (VDW SCALING)     2
Info: USING ARITHMETIC MEAN TO COMBINE L-J SIGMA PARAMETERS
Info: BINARY COORDINATES     mobley_3867265_min.coor
Info: SUMMARY OF PARAMETERS:
Info: 5 BONDS
Info: 4 ANGLES
Info:   4 HARMONIC
Info:   0 COSINE-BASED
Info: 4 DIHEDRAL
Info: 0 IMPROPER
Info: 0 CROSSTERM
Info: 0 VDW
Info: 21 VDW_PAIRS
Info: 0 NBTHOLE_PAIRS
Info: STRUCTURE SUMMARY:
Info: 4288 ATOMS
Info: 4287 BONDS
Info: 15 ANGLES
Info: 19 DIHEDRALS
Info: 0 IMPROPERS
Info: 0 CROSSTERMS
Info: 4314 EXCLUSIONS
Info: 4284 RIGID BONDS
Info: 8580 DEGREES OF FREEDOM
Info: 1430 HYDROGEN GROUPS
Info: 4 ATOMS IN LARGEST HYDROGEN GROUP
Info: 1430 MIGRATION GROUPS
Info: 4 ATOMS IN LARGEST MIGRATION GROUP
Info: TOTAL MASS = 25748.9 amu
Info: TOTAL CHARGE = 0.000199959 e
Info: MASS DENSITY = 0.712863 g/cm^3
Info: ATOM DENSITY = 0.0714896 atoms/A^3
Info: ADDED 0 IMPLICIT EXCLUSIONS
Info: NONBONDED TABLE R-SQUARED SPACING: 0.0625
Info: NONBONDED TABLE SIZE: 705 POINTS
Info: REMOVING COM VELOCITY -0.0180412 -0.0835841 0.0429581
TCL: Running for 25000 steps
ETITLE: TS BOND ANGLE DIHED IMPRP ELECT VDW BOUNDARY MISC KINETIC TOTAL TEMP POTENTIAL TOTAL3 TEMPAVG PRESSURE GPRESSURE VOLUME PRESSAVG GPRESSAVG
ENERGY: 0 0.1832 1.7182 43.0751 0.0000 -19654.8620 3424.6197 0.0000 0.0000 2521.8566 -13663.4093 295.8172 -16185.2658 -13662.9063 295.8172 385.7596 419.6705 59980.7143 385.7596 419.6705
ENERGY: 5000 0.1006 2.4933 42.8834 0.0000 -20499.0556 3465.9814 0.0000 0.0000 258.1665 -16729.4303 30.2833 -16987.5968 -16728.7089 47.8852 -573.1398 -519.1663 42213.2309 -1.1667 -1.0724
ENERGY: 10000 0.0855 1.9111 43.4515 0.0000 -20656.3295 3607.7490 0.0000 0.0000 257.4668 -16745.6657 30.2012 -17003.1325 -16745.1917 30.1348 168.4005 242.7738 42080.7234 0.4433 0.4710
ENERGY: 15000 0.2924 1.4852 43.7489 0.0000 -20712.5127 3652.6405 0.0000 0.0000 254.1786 -16760.1671 29.8155 -17014.3457 -16759.4758 30.3358 367.0883 421.3717 42159.1578 0.0227 -0.0584
ENERGY: 20000 0.3530 2.0010 43.4814 0.0000 -20522.8721 3452.3568 0.0000 0.0000 257.4703 -16767.2096 30.2016 -17024.6798 -16766.5198 30.1773 -804.8665 -734.3270 42333.2880 -1.3878 -1.3708
ENERGY: 25000 0.2901 2.6618 42.3939 0.0000 -20564.0320 3489.0030 0.0000 0.0000 256.7732 -16772.9100 30.1199 -17029.6832 -16772.4465 29.9165 -595.5194 -522.9190 42147.0475 7.4812 7.3742
TCL: Running 25000 steps at 60 kelvin.
TCL: Setting parameter langevinTemp to 60
TCL: Running for 25000 steps
ETITLE: TS BOND ANGLE DIHED IMPRP ELECT VDW BOUNDARY MISC KINETIC TOTAL TEMP POTENTIAL TOTAL3 TEMPAVG PRESSURE GPRESSURE VOLUME PRESSAVG GPRESSAVG
ENERGY: 25000 0.2901 2.6618 42.3939 0.0000 -20564.0320 3489.0030 0.0000 0.0000 256.6451 -16773.0381 30.1048 -17029.6832 -16772.4180 30.1048 -580.9558 -523.0552 42147.0475 -580.9558 -523.0552
ENERGY: 30000 0.2501 3.3830 42.2947 0.0000 -20316.3418 3466.3229 0.0000 0.0000 527.0058 -16277.0853 61.8185 -16804.0911 -16275.6561 56.7144 -98.1554 -19.1972 42238.8724 -2.2751 -2.0994
ENERGY: 35000 0.3034 2.7318 43.4708 0.0000 -20302.3808 3406.8033 0.0000 0.0000 502.7096 -16346.3619 58.9685 -16849.0715 -16345.5104 60.3920 -441.4170 -378.4164 41966.2875 0.8252 0.9701
ENERGY: 40000 0.1492 2.8866 42.2680 0.0000 -20560.8312 3620.5527 0.0000 0.0000 503.6613 -16391.3134 59.0802 -16894.9747 -16390.2880 60.2072 711.5858 781.2640 41578.1902 -2.1562 -1.9110
ENERGY: 45000 0.3384 2.5887 42.8412 0.0000 -20420.1789 3477.6654 0.0000 0.0000 511.9411 -16384.8041 60.0514 -16896.7453 -16383.4931 60.0023 -180.9983 -108.0596 41694.5944 4.2785 4.1319
ENERGY: 50000 0.1242 2.1142 43.4956 0.0000 -20417.6582 3449.2387 0.0000 0.0000 523.5822 -16399.1032 61.4169 -16922.6855 -16397.5733 60.1010 -320.0032 -255.0084 41593.6132 7.4059 7.4623
TCL: Running 25000 steps at 90 kelvin.
TCL: Setting parameter langevinTemp to 90
TCL: Running for 25000 steps
ETITLE: TS BOND ANGLE DIHED IMPRP ELECT VDW BOUNDARY MISC KINETIC TOTAL TEMP POTENTIAL TOTAL3 TEMPAVG PRESSURE GPRESSURE VOLUME PRESSAVG GPRESSAVG
ENERGY: 50000 0.1242 2.1142 43.4956 0.0000 -20417.6582 3449.2387 0.0000 0.0000 523.3213 -16399.3642 61.3863 -16922.6855 -16398.3001 61.3863 -326.3625 -254.6354 41593.6132 -326.3625 -254.6354
ENERGY: 55000 0.2979 4.7916 41.4578 0.0000 -20121.9562 3408.2052 0.0000 0.0000 764.7918 -15902.4118 89.7111 -16667.2036 -15899.9220 86.9886 82.7344 179.3059 41722.1178 4.2465 4.2772
ENERGY: 60000 0.2915 1.8125 43.8567 0.0000 -20111.0177 3339.8727 0.0000 0.0000 779.5985 -15945.5856 91.4480 -16725.1842 -15943.1830 90.9001 -344.5034 -277.0948 41559.3731 5.4622 5.2845
ENERGY: 65000 0.1652 3.2780 43.2962 0.0000 -20092.8987 3296.5450 0.0000 0.0000 755.3231 -15994.2912 88.6004 -16749.6144 -15992.9093 90.4365 -775.5318 -710.6038 41731.2546 3.7769 3.7987
ENERGY: 70000 0.2701 4.0357 42.2712 0.0000 -20231.7178 3423.4859 0.0000 0.0000 750.2518 -16011.4031 88.0056 -16761.6548 -16008.8049 90.3723 -12.6910 20.4337 41442.4835 6.1495 5.7327
ENERGY: 75000 0.0767 3.8384 42.4387 0.0000 -20156.0873 3323.2452 0.0000 0.0000 771.7391 -16014.7492 90.5261 -16786.4883 -16013.5602 90.6468 -665.5850 -670.2734 41643.7480 6.7158 7.0078
TCL: Running 25000 steps at 120 kelvin.
TCL: Setting parameter langevinTemp to 120
TCL: Running for 25000 steps
ETITLE: TS BOND ANGLE DIHED IMPRP ELECT VDW BOUNDARY MISC KINETIC TOTAL TEMP POTENTIAL TOTAL3 TEMPAVG PRESSURE GPRESSURE VOLUME PRESSAVG GPRESSAVG
ENERGY: 75000 0.0767 3.8384 42.4387 0.0000 -20156.0873 3323.2452 0.0000 0.0000 771.3539 -16015.1344 90.4809 -16786.4883 -16013.1419 90.4809 -727.5176 -670.8421 41643.7480 -727.5176 -670.8421
ENERGY: 80000 0.1918 5.0483 42.4401 0.0000 -20029.7886 3483.0704 0.0000 0.0000 1020.3755 -15478.6626 119.6914 -16499.0381 -15475.8970 117.6812 1076.5123 1142.3109 41253.5038 2.0403 2.1635
ENERGY: 85000 0.7361 3.9502 42.7598 0.0000 -19822.2267 3246.0655 0.0000 0.0000 1044.5316 -15484.1836 122.5250 -16528.7152 -15481.2201 119.4497 -548.1145 -485.8287 41865.1646 7.0424 7.1437
ENERGY: 90000 0.5268 3.5460 42.6165 0.0000 -19722.3464 3133.5928 0.0000 0.0000 1030.5867 -15511.4776 120.8892 -16542.0643 -15507.8955 120.6088 -1189.2014 -1143.2518 41921.5315 -0.8911 -0.2756
ENERGY: 95000 0.9462 2.1457 43.6630 0.0000 -19892.8256 3288.0974 0.0000 0.0000 1023.6024 -15534.3710 120.0700 -16557.9734 -15531.0383 119.3659 -338.9492 -294.7535 41645.0715 -0.1946 -0.2813
ENERGY: 100000 0.1420 3.9890 42.3345 0.0000 -20021.7411 3371.6195 0.0000 0.0000 1020.6497 -15583.0063 119.7236 -16603.6560 -15581.1079 120.8750 111.4599 161.4436 41457.0964 5.9989 6.2412
TCL: Running 25000 steps at 150 kelvin.
TCL: Setting parameter langevinTemp to 150
TCL: Running for 25000 steps
ETITLE: TS BOND ANGLE DIHED IMPRP ELECT VDW BOUNDARY MISC KINETIC TOTAL TEMP POTENTIAL TOTAL3 TEMPAVG PRESSURE GPRESSURE VOLUME PRESSAVG GPRESSAVG
ENERGY: 100000 0.1420 3.9890 42.3345 0.0000 -20021.7411 3371.6195 0.0000 0.0000 1020.1484 -15583.5076 119.6648 -16603.6560 -15581.3313 119.6648 108.9584 160.8214 41457.0964 108.9584 160.8214
ENERGY: 105000 0.3853 3.4454 42.6398 0.0000 -19495.1990 3186.3746 0.0000 0.0000 1293.6493 -14968.7046 151.7468 -16262.3539 -14966.2963 147.1060 -374.7916 -292.3309 42195.7032 0.9951 0.9020
ENERGY: 110000 0.6096 2.6020 44.2277 0.0000 -19606.3504 3296.6998 0.0000 0.0000 1320.0300 -14942.1812 154.8413 -16262.2112 -14939.2701 150.9143 395.8643 430.2767 41999.6204 3.8580 3.4634
ENERGY: 115000 0.1867 1.1768 44.7309 0.0000 -19596.1683 3260.0580 0.0000 0.0000 1291.3941 -14998.6217 151.4823 -16290.0158 -14995.5950 149.6437 128.6353 212.5933 41937.7462 1.2344 1.1390
ENERGY: 120000 0.0619 4.7813 43.0957 0.0000 -19682.5817 3331.0629 0.0000 0.0000 1263.7681 -15039.8119 148.2417 -16303.5799 -15036.3370 149.9816 421.1698 480.6330 41872.3348 4.6664 4.7310
ENERGY: 125000 0.3466 3.4997 43.7345 0.0000 -19625.5945 3263.7404 0.0000 0.0000 1294.6672 -15019.6062 151.8662 -16314.2734 -15016.3288 149.4069 130.6425 166.3734 41722.8219 5.6089 5.2501
TCL: Running 50000 steps at 180 kelvin.
TCL: Setting parameter langevinTemp to 180
TCL: Running for 50000 steps
ETITLE: TS BOND ANGLE DIHED IMPRP ELECT VDW BOUNDARY MISC KINETIC TOTAL TEMP POTENTIAL TOTAL3 TEMPAVG PRESSURE GPRESSURE VOLUME PRESSAVG GPRESSAVG
ENERGY: 125000 0.3466 3.4997 43.7345 0.0000 -19625.5945 3263.7404 0.0000 0.0000 1294.0484 -15020.2250 151.7937 -16314.2734 -15017.7428 151.7937 116.9327 166.5423 41722.8219 116.9327 166.5423
ENERGY: 135000 0.1913 2.1370 44.4390 0.0000 -19023.1152 3094.7002 0.0000 0.0000 1533.6492 -14347.9986 179.8992 -15881.6478 -14345.1174 180.0137 238.0308 307.5074 41979.3525 2.9646 2.5290
ENERGY: 145000 0.8241 3.9431 44.4350 0.0000 -18986.8060 2988.9525 0.0000 0.0000 1541.1129 -14407.5386 180.7747 -15948.6514 -14405.1300 180.6657 -585.5132 -513.4120 42230.1550 4.2148 4.7043
ENERGY: 155000 1.1048 2.8983 46.5772 0.0000 -19140.2903 3148.0107 0.0000 0.0000 1544.8531 -14396.8461 181.2134 -15941.6992 -14393.6132 180.0522 220.7912 261.7757 42035.2267 5.9121 6.3592
ENERGY: 165000 0.8079 3.1779 44.9617 0.0000 -19103.2035 3098.6999 0.0000 0.0000 1551.4612 -14404.0950 181.9885 -15955.5562 -14400.1564 179.7014 -130.1006 -59.1277 42524.9818 6.5455 6.5265
ENERGY: 175000 0.6188 5.6259 43.3422 0.0000 -19250.2831 3229.5301 0.0000 0.0000 1519.7317 -14451.4344 178.2666 -15971.1661 -14446.8477 182.1801 691.0734 800.1855 42065.1291 3.5804 3.7083
TCL: Running 50000 steps at 210 kelvin.
TCL: Setting parameter langevinTemp to 210
TCL: Running for 50000 steps
ETITLE: TS BOND ANGLE DIHED IMPRP ELECT VDW BOUNDARY MISC KINETIC TOTAL TEMP POTENTIAL TOTAL3 TEMPAVG PRESSURE GPRESSURE VOLUME PRESSAVG GPRESSAVG
ENERGY: 175000 0.6188 5.6259 43.3422 0.0000 -19250.2831 3229.5301 0.0000 0.0000 1518.9295 -14452.2366 178.1725 -15971.1661 -14449.5420 178.1725 738.2880 801.3864 42065.1291 738.2880 801.3864
ENERGY: 185000 1.3006 6.1031 43.7948 0.0000 -18210.8913 2738.5786 0.0000 0.0000 1817.9942 -13603.1199 213.2532 -15421.1141 -13598.5373 208.7741 -498.4612 -445.6243 42229.6306 2.1243 2.1789
ENERGY: 195000 0.9373 3.0428 44.8664 0.0000 -18114.9702 2758.3673 0.0000 0.0000 1850.1114 -13457.6449 217.0206 -15307.7563 -13453.3343 210.6362 -30.1634 87.8296 41635.1151 6.2344 5.7609
ENERGY: 205000 0.6305 6.0599 42.1101 0.0000 -18284.5892 2916.0630 0.0000 0.0000 1764.1580 -13555.5677 206.9382 -15319.7257 -13552.9680 210.2659 653.7839 782.8232 41543.1150 3.0171 3.0209
ENERGY: 215000 0.4993 3.0922 42.9867 0.0000 -18026.6485 2663.0585 0.0000 0.0000 1799.7495 -13517.2623 211.1131 -15317.0118 -13512.3524 209.4720 -894.2972 -823.2278 42201.3767 3.0959 2.9305
ENERGY: 225000 2.2107 3.4885 43.1161 0.0000 -18104.5789 2763.5395 0.0000 0.0000 1726.2804 -13565.9437 202.4951 -15292.2241 -13562.1272 210.1600 -198.8265 -142.3489 42120.3007 1.1835 0.7994
TCL: Running 50000 steps at 240 kelvin.
TCL: Setting parameter langevinTemp to 240
TCL: Running for 50000 steps
ETITLE: TS BOND ANGLE DIHED IMPRP ELECT VDW BOUNDARY MISC KINETIC TOTAL TEMP POTENTIAL TOTAL3 TEMPAVG PRESSURE GPRESSURE VOLUME PRESSAVG GPRESSAVG
ENERGY: 225000 2.2107 3.4885 43.1161 0.0000 -18104.5789 2763.5395 0.0000 0.0000 1725.3811 -13566.8430 202.3896 -15292.2241 -13563.4933 202.3896 -212.3757 -140.6856 42120.3007 -212.3757 -140.6856
ENERGY: 235000 3.1264 5.7392 45.1540 0.0000 -17008.6378 2345.5210 0.0000 0.0000 2059.2732 -12549.8239 241.5556 -14609.0971 -12545.5504 241.3217 -841.7608 -726.3955 42194.8935 1.6208 1.8577
ENERGY: 245000 0.2061 7.6197 41.0320 0.0000 -17272.1118 2503.0632 0.0000 0.0000 2069.9326 -12650.2581 242.8059 -14720.1907 -12643.8551 239.3598 25.2216 93.9500 41937.1648 2.0941 2.3384
ENERGY: 255000 0.1145 5.6404 43.0463 0.0000 -17517.1229 2707.8839 0.0000 0.0000 2075.4180 -12685.0198 243.4494 -14760.4378 -12681.3846 239.1616 1144.4640 1201.9350 41670.2850 1.3944 0.4295
ENERGY: 265000 0.8790 2.2398 44.9846 0.0000 -17199.3261 2536.8833 0.0000 0.0000 2011.7338 -12602.6056 235.9791 -14614.3394 -12598.7397 240.3974 266.9542 334.5571 42151.4269 -1.0928 -1.3418
ENERGY: 275000 0.7972 5.8948 42.3124 0.0000 -16954.6191 2362.8179 0.0000 0.0000 2031.6318 -12511.1650 238.3132 -14542.7968 -12506.7334 239.6422 -759.2989 -695.4244 42661.3830 3.3459 3.7660
TCL: Running 50000 steps at 270 kelvin.
TCL: Setting parameter langevinTemp to 270
TCL: Running for 50000 steps
ETITLE: TS BOND ANGLE DIHED IMPRP ELECT VDW BOUNDARY MISC KINETIC TOTAL TEMP POTENTIAL TOTAL3 TEMPAVG PRESSURE GPRESSURE VOLUME PRESSAVG GPRESSAVG
ENERGY: 275000 0.7972 5.8948 42.3124 0.0000 -16954.6191 2362.8179 0.0000 0.0000 2030.6182 -12512.1786 238.1943 -14542.7968 -12508.6261 238.1943 -785.2735 -695.1606 42661.3830 -785.2735 -695.1606
ENERGY: 285000 0.1081 5.5379 43.3248 0.0000 -16322.6720 2253.7513 0.0000 0.0000 2286.0063 -11733.9435 268.1517 -14019.9498 -11729.7643 269.8011 -282.8022 -169.3581 43449.4310 0.7890 1.0589
ENERGY: 295000 1.1342 7.5213 41.9248 0.0000 -16302.5537 2174.9376 0.0000 0.0000 2281.8299 -11795.2059 267.6618 -14077.0358 -11788.8997 272.7035 -700.6507 -678.0236 43256.8581 6.7414 7.2668
ENERGY: 305000 0.5859 4.3711 44.4117 0.0000 -16252.8873 2145.8547 0.0000 0.0000 2234.9618 -11822.7022 262.1641 -14057.6639 -11817.0017 269.8576 -812.1264 -764.8960 43261.4355 1.1715 0.6186
ENERGY: 315000 0.0878 4.9377 44.5591 0.0000 -16296.5305 2154.1747 0.0000 0.0000 2272.7060 -11820.0651 266.5915 -14092.7711 -11814.4659 269.8741 -1064.7263 -980.6688 43738.8599 4.0836 4.4609
ENERGY: 325000 0.1766 6.3076 41.2207 0.0000 -16295.9975 2172.6190 0.0000 0.0000 2349.9037 -11725.7699 275.6469 -14075.6736 -11722.3574 269.4634 -834.9380 -724.7227 43450.5142 2.9662 2.6696
TCL: Running 1000000 steps at 300 kelvin.
TCL: Setting parameter langevinTemp to 300
TCL: Running for 1000000 steps
ETITLE: TS BOND ANGLE DIHED IMPRP ELECT VDW BOUNDARY MISC KINETIC TOTAL TEMP POTENTIAL TOTAL3 TEMPAVG PRESSURE GPRESSURE VOLUME PRESSAVG GPRESSAVG
ENERGY: 325000 0.1766 6.3076 41.2207 0.0000 -16295.9975 2172.6190 0.0000 0.0000 2348.7519 -11726.9217 275.5118 -14075.6736 -11722.5344 275.5118 -815.7162 -725.7499 43450.5142 -815.7162 -725.7499
ENERGY: 525000 0.7148 4.8479 43.5952 0.0000 -15721.2620 2158.0035 0.0000 0.0000 2562.5875 -10951.5130 300.5950 -13514.1006 -10946.5597 298.7105 331.6878 361.6896 43982.5974 2.7280 2.7117
ENERGY: 725000 1.5867 3.8753 46.4122 0.0000 -15485.4366 2015.6267 0.0000 0.0000 2574.1226 -10843.8130 301.9481 -13417.9357 -10837.6263 301.0973 -518.5513 -434.0087 44495.1129 3.1205 2.5816
ENERGY: 925000 1.6677 9.1654 42.0123 0.0000 -15742.6908 2234.1318 0.0000 0.0000 2615.7970 -10839.9167 306.8366 -13455.7137 -10834.3254 299.0723 754.0106 839.4250 44053.6193 0.4501 0.2914
ENERGY: 1125000 0.9526 4.6427 45.7756 0.0000 -15644.4020 2124.2891 0.0000 0.0000 2506.2974 -10962.4446 293.9921 -13468.7420 -10956.5793 299.0156 1.6553 99.3034 44235.1377 2.8687 2.9543
ENERGY: 1325000 0.7747 8.4445 42.4336 0.0000 -15568.1529 2036.6479 0.0000 0.0000 2562.1761 -10917.6761 300.5468 -13479.8523 -10912.2787 299.4848 -487.1717 -416.4266 44719.3964 1.2413 1.2756
TCL: Exiting due to exit command.
