Info: SIMULATION PARAMETERS:
Info: TIMESTEP               2
Info: NUMBER OF STEPS        0
Info: STEPS PER CYCLE        10
Info: PERIODIC CELL BASIS 1  41.123 0 0
Info: PERIODIC CELL BASIS 2  0 39.303 0
Info: PERIODIC CELL BASIS 3  0 0 39.119
Info: PERIODIC CELL CENTER   0 0 0
Info: WRAPPING WATERS AROUND PERIODIC BOUNDARIES ON OUTPUT.
Info: WRAPPING ALL CLUSTERS AROUND PERIODIC BOUNDARIES ON OUTPUT.
Info: FIRST LDB TIMESTEP     50
Info: LAST LDB TIMESTEP     -1
Info: HOM BACKGROUND SCALING 1
Info: PME BACKGROUND SCALING 1
Info: MIN ATOMS PER PATCH    40
Info: EMPTY PATCH LOAD       40 ATOMS
Info: INITIAL TEMPERATURE    300
Info: CENTER OF MASS MOVING INITIALLY? NO
Info: DIELECTRIC             1
Info: EXCLUDE                SCALED ONE-FOUR
Info: 1-4 ELECTROSTATICS SCALED BY 0.833333
Info: MODIFIED 1-4 VDW PARAMETERS WILL BE USED
Info: DCD FILENAME           mobley_9201263_min.dcd
Info: DCD FREQUENCY          5000
Info: DCD FIRST STEP         5000
Info: DCD FILE WILL CONTAIN UNIT CELL DATA
Info: XST FILENAME           mobley_9201263_min.xst
Info: XST FREQUENCY          5000
Info: NO VELOCITY DCD OUTPUT
Info: NO FORCE DCD OUTPUT
Info: OUTPUT FILENAME        mobley_9201263_min
Info: BINARY OUTPUT FILES WILL BE USED
Info: RESTART FILENAME       mobley_9201263_min.restart
Info: RESTART FREQUENCY      5000
Info: BINARY RESTART FILES WILL BE USED
Info: CUTOFF                 9
Info: PAIRLIST DISTANCE      11
Info: PAIRLIST SHRINK RATE   0.01
Info: PAIRLIST GROW RATE     0.01
Info: PAIRLIST TRIGGER       0.3
Info: PAIRLISTS PER CYCLE    2
Info: PAIRLISTS ENABLED
Info: MARGIN                 8
Info: HYDROGEN GROUP CUTOFF  2.5
Info: PATCH DIMENSION        21.5
Info: ENERGY OUTPUT STEPS    5000
Info: ENERGY EVALUATION STEPS    5000
Info: OUTPUT ENERGY PRECISION 4
Info: CROSSTERM ENERGY INCLUDED IN DIHEDRAL
Info: TIMING OUTPUT STEPS    50000
Info: PRESSURE OUTPUT STEPS  5000
Info: LANGEVIN DYNAMICS ACTIVE
Info: LANGEVIN TEMPERATURE   300
Info: LANGEVIN USING BBK INTEGRATOR
Info: LANGEVIN DAMPING COEFFICIENT IS 1 INVERSE PS
Info: LANGEVIN DYNAMICS APPLIED TO HYDROGENS
Info: LANGEVIN PISTON PRESSURE CONTROL ACTIVE
Info:        TARGET PRESSURE IS 1.01325 BAR
Info:     OSCILLATION PERIOD IS 50 FS
Info:             DECAY TIME IS 25 FS
Info:     PISTON TEMPERATURE IS 300 K
Info:       PRESSURE CONTROL IS GROUP-BASED
Info:    INITIAL STRAIN RATE IS 0 0 0
Info:       CELL FLUCTUATION IS ISOTROPIC
Info: PARTICLE MESH EWALD (PME) ACTIVE
Info: PME TOLERANCE               1e-06
Info: PME EWALD COEFFICIENT       0.348832
Info: PME INTERPOLATION ORDER     4
Info: PME GRID DIMENSIONS         44 40 40
Info: PME MAXIMUM GRID SPACING    1
Info: FULL ELECTROSTATIC EVALUATION FREQUENCY      2
Info: USING VERLET I (r-RESPA) MTS SCHEME.
Info: C1 SPLITTING OF LONG RANGE ELECTROSTATICS
Info: PLACING ATOMS IN PATCHES BY HYDROGEN GROUPS
Info: RIGID BONDS TO HYDROGEN : ALL
Info:         ERROR TOLERANCE : 1e-08
Info:          MAX ITERATIONS : 100
Info: RIGID WATER USING SETTLE ALGORITHM
Info: RANDOM NUMBER SEED     1741409388
Info: USE HYDROGEN BONDS?    NO
Info: Using AMBER format force field!
Info: AMBER PARM FILE        mobley_9201263.prmtop
Info: COORDINATE PDB         mobley_9201263.pdb
Info: Exclusions will be read from PARM file!
Info: SCNB (VDW SCALING)     2
Info: USING ARITHMETIC MEAN TO COMBINE L-J SIGMA PARAMETERS
Info: SUMMARY OF PARAMETERS:
Info: 7 BONDS
Info: 8 ANGLES
Info:   8 HARMONIC
Info:   0 COSINE-BASED
Info: 6 DIHEDRAL
Info: 0 IMPROPER
Info: 0 CROSSTERM
Info: 0 VDW
Info: 28 VDW_PAIRS
Info: 0 NBTHOLE_PAIRS
Info: STRUCTURE SUMMARY:
Info: 4578 ATOMS
Info: 4577 BONDS
Info: 19 ANGLES
Info: 17 DIHEDRALS
Info: 0 IMPROPERS
Info: 0 CROSSTERMS
Info: 4611 EXCLUSIONS
Info: 4572 RIGID BONDS
Info: 9162 DEGREES OF FREEDOM
Info: 1528 HYDROGEN GROUPS
Info: 4 ATOMS IN LARGEST HYDROGEN GROUP
Info: 1528 MIGRATION GROUPS
Info: 4 ATOMS IN LARGEST MIGRATION GROUP
Info: TOTAL MASS = 27530.5 amu
Info: TOTAL CHARGE = 0.000399966 e
Info: MASS DENSITY = 0.723061 g/cm^3
Info: ATOM DENSITY = 0.0724065 atoms/A^3
Info: ADDED 0 IMPLICIT EXCLUSIONS
Info: NONBONDED TABLE R-SQUARED SPACING: 0.0625
Info: NONBONDED TABLE SIZE: 705 POINTS
Info: REMOVING COM VELOCITY 0.05956 0.117651 -0.0323669
TCL: Minimizing for 2000 steps
ETITLE: TS BOND ANGLE DIHED IMPRP ELECT VDW BOUNDARY MISC KINETIC TOTAL TEMP POTENTIAL TOTAL3 TEMPAVG PRESSURE GPRESSURE VOLUME PRESSAVG GPRESSAVG
ENERGY: 0 0.7002 0.8289 8.2111 0.0000 -14364.7051 1625.9387 0.0000 0.0000 0.0000 -12729.0263 0.0000 -12729.0263 -12729.0263 0.0000 11081.0540 -15880.5995 63226.3681 11081.0540 -15880.5995
ENERGY: 400 2.3318 1.7888 8.2469 0.0000 -19181.8360 2742.6748 0.0000 0.0000 0.0000 -16426.7937 0.0000 -16426.7937 -16426.7937 0.0000 15484.8650 15616.3486 63226.3681 15484.8650 15616.3486
ENERGY: 800 7.0167 1.4485 8.0875 0.0000 -20157.4196 3196.5254 0.0000 0.0000 0.0000 -16944.3414 0.0000 -16944.3414 -16944.3414 0.0000 17681.7426 17806.6765 63226.3681 17681.7426 17806.6765
ENERGY: 1200 0.8473 0.4836 8.4002 0.0000 -20662.1157 3463.9398 0.0000 0.0000 0.0000 -17188.4448 0.0000 -17188.4448 -17188.4448 0.0000 19054.3254 19165.1870 63226.3681 19054.3254 19165.1870
ENERGY: 1600 0.5199 0.8747 8.1973 0.0000 -20814.3849 3519.8843 0.0000 0.0000 0.0000 -17284.9088 0.0000 -17284.9088 -17284.9088 0.0000 19332.9687 19445.7836 63226.3681 19332.9687 19445.7836
ENERGY: 2000 0.4161 0.6005 8.1698 0.0000 -20942.2409 3585.2662 0.0000 0.0000 0.0000 -17347.7883 0.0000 -17347.7883 -17347.7883 0.0000 19692.1561 19810.5421 63226.3681 19692.1561 19810.5421
TCL: Exiting due to exit command.
Info: NAMD 3.0.1 for Linux-x86_64-multicore
Info: Please visit http://www.ks.uiuc.edu/Research/namd/
Info: for updates, documentation, and support information.
Info: Please cite Phillips et al., J. Chem. Phys. 153:044130 (2020) doi:10.1063/5.0014475
Info: in all publications reporting results obtained with NAMD.
Info: Based on Charm++/Converse 80000 for multicore-linux-x86_64-gcc
Info: Built Mon Oct 14 11:11:06 CDT 2024 by dhardy on athine.ks.uiuc.edu
Info: 1 NAMD  3.0.1  Linux-x86_64-multicore  16    k018  z5358697
Info: Running on 16 processors, 1 nodes, 1 physical nodes.
Info: CPU topology information available.
Info: Charm++/Converse parallel runtime startup completed at 0.00534839 s
Info: 1043.45 MB of memory in use based on /proc/self/stat
Info: Configuration file is mobley_9201263_equil.namd
Info: Working in the current directory /srv/scratch/z5358697/prod_prep_12/9201263
TCL: Running 25000 steps at 30 kelvin.
TCL: Suspending until startup complete.
Info: SIMULATION PARAMETERS:
Info: TIMESTEP               2
Info: NUMBER OF STEPS        0
Info: STEPS PER CYCLE        10
Info: PERIODIC CELL BASIS 1  41.123 0 0
Info: PERIODIC CELL BASIS 2  0 39.303 0
Info: PERIODIC CELL BASIS 3  0 0 39.119
Info: PERIODIC CELL CENTER   0 0 0
Info: WRAPPING WATERS AROUND PERIODIC BOUNDARIES ON OUTPUT.
Info: WRAPPING ALL CLUSTERS AROUND PERIODIC BOUNDARIES ON OUTPUT.
Info: FIRST LDB TIMESTEP     50
Info: LAST LDB TIMESTEP     -1
Info: HOM BACKGROUND SCALING 1
Info: PME BACKGROUND SCALING 1
Info: MIN ATOMS PER PATCH    40
Info: EMPTY PATCH LOAD       40 ATOMS
Info: INITIAL TEMPERATURE    300
Info: CENTER OF MASS MOVING INITIALLY? NO
Info: DIELECTRIC             1
Info: EXCLUDE                SCALED ONE-FOUR
Info: 1-4 ELECTROSTATICS SCALED BY 0.833333
Info: MODIFIED 1-4 VDW PARAMETERS WILL BE USED
Info: DCD FILENAME           mobley_9201263_equil.dcd
Info: DCD FREQUENCY          5000
Info: DCD FIRST STEP         5000
Info: DCD FILE WILL CONTAIN UNIT CELL DATA
Info: XST FILENAME           mobley_9201263_equil.xst
Info: XST FREQUENCY          5000
Info: NO VELOCITY DCD OUTPUT
Info: NO FORCE DCD OUTPUT
Info: OUTPUT FILENAME        mobley_9201263_equil
Info: BINARY OUTPUT FILES WILL BE USED
Info: RESTART FILENAME       mobley_9201263_equil.restart
Info: RESTART FREQUENCY      5000
Info: BINARY RESTART FILES WILL BE USED
Info: CUTOFF                 9
Info: PAIRLIST DISTANCE      11
Info: PAIRLIST SHRINK RATE   0.01
Info: PAIRLIST GROW RATE     0.01
Info: PAIRLIST TRIGGER       0.3
Info: PAIRLISTS PER CYCLE    2
Info: PAIRLISTS ENABLED
Info: MARGIN                 8
Info: HYDROGEN GROUP CUTOFF  2.5
Info: PATCH DIMENSION        21.5
Info: ENERGY OUTPUT STEPS    5000
Info: ENERGY EVALUATION STEPS    5000
Info: OUTPUT ENERGY PRECISION 4
Info: CROSSTERM ENERGY INCLUDED IN DIHEDRAL
Info: TIMING OUTPUT STEPS    50000
Info: PRESSURE OUTPUT STEPS  5000
Info: LANGEVIN DYNAMICS ACTIVE
Info: LANGEVIN TEMPERATURE   30
Info: LANGEVIN USING BBK INTEGRATOR
Info: LANGEVIN DAMPING COEFFICIENT IS 1 INVERSE PS
Info: LANGEVIN DYNAMICS APPLIED TO HYDROGENS
Info: LANGEVIN PISTON PRESSURE CONTROL ACTIVE
Info:        TARGET PRESSURE IS 1.01325 BAR
Info:     OSCILLATION PERIOD IS 50 FS
Info:             DECAY TIME IS 25 FS
Info:     PISTON TEMPERATURE IS 300 K
Info:       PRESSURE CONTROL IS GROUP-BASED
Info:    INITIAL STRAIN RATE IS 0 0 0
Info:       CELL FLUCTUATION IS ISOTROPIC
Info: PARTICLE MESH EWALD (PME) ACTIVE
Info: PME TOLERANCE               1e-06
Info: PME EWALD COEFFICIENT       0.348832
Info: PME INTERPOLATION ORDER     4
Info: PME GRID DIMENSIONS         44 40 40
Info: PME MAXIMUM GRID SPACING    1
Info: FULL ELECTROSTATIC EVALUATION FREQUENCY      2
Info: USING VERLET I (r-RESPA) MTS SCHEME.
Info: C1 SPLITTING OF LONG RANGE ELECTROSTATICS
Info: PLACING ATOMS IN PATCHES BY HYDROGEN GROUPS
Info: RIGID BONDS TO HYDROGEN : ALL
Info:         ERROR TOLERANCE : 1e-08
Info:          MAX ITERATIONS : 100
Info: RIGID WATER USING SETTLE ALGORITHM
Info: RANDOM NUMBER SEED     1741409405
Info: USE HYDROGEN BONDS?    NO
Info: Using AMBER format force field!
Info: AMBER PARM FILE        mobley_9201263.prmtop
Info: COORDINATE PDB         mobley_9201263.pdb
Info: Exclusions will be read from PARM file!
Info: SCNB (VDW SCALING)     2
Info: USING ARITHMETIC MEAN TO COMBINE L-J SIGMA PARAMETERS
Info: BINARY COORDINATES     mobley_9201263_min.coor
Info: SUMMARY OF PARAMETERS:
Info: 7 BONDS
Info: 8 ANGLES
Info:   8 HARMONIC
Info:   0 COSINE-BASED
Info: 6 DIHEDRAL
Info: 0 IMPROPER
Info: 0 CROSSTERM
Info: 0 VDW
Info: 28 VDW_PAIRS
Info: 0 NBTHOLE_PAIRS
Info: STRUCTURE SUMMARY:
Info: 4578 ATOMS
Info: 4577 BONDS
Info: 19 ANGLES
Info: 17 DIHEDRALS
Info: 0 IMPROPERS
Info: 0 CROSSTERMS
Info: 4611 EXCLUSIONS
Info: 4572 RIGID BONDS
Info: 9162 DEGREES OF FREEDOM
Info: 1528 HYDROGEN GROUPS
Info: 4 ATOMS IN LARGEST HYDROGEN GROUP
Info: 1528 MIGRATION GROUPS
Info: 4 ATOMS IN LARGEST MIGRATION GROUP
Info: TOTAL MASS = 27530.5 amu
Info: TOTAL CHARGE = 0.000399966 e
Info: MASS DENSITY = 0.723061 g/cm^3
Info: ATOM DENSITY = 0.0724065 atoms/A^3
Info: ADDED 0 IMPLICIT EXCLUSIONS
Info: NONBONDED TABLE R-SQUARED SPACING: 0.0625
Info: NONBONDED TABLE SIZE: 705 POINTS
Info: REMOVING COM VELOCITY -0.1013 -0.0401016 -0.0378908
TCL: Running for 25000 steps
ETITLE: TS BOND ANGLE DIHED IMPRP ELECT VDW BOUNDARY MISC KINETIC TOTAL TEMP POTENTIAL TOTAL3 TEMPAVG PRESSURE GPRESSURE VOLUME PRESSAVG GPRESSAVG
ENERGY: 0 0.4161 0.6005 8.1698 0.0000 -20942.2409 3585.2662 0.0000 0.0000 2681.1178 -14666.6705 294.5208 -17347.7883 -14666.1606 294.5208 -10.3681 35.5499 63226.3681 -10.3681 35.5499
ENERGY: 5000 0.7902 1.3721 8.0771 0.0000 -22242.6467 3968.7418 0.0000 0.0000 275.4444 -17988.2212 30.2576 -18263.6655 -17987.4629 48.3272 914.5450 946.9221 44138.5889 -4.7533 -4.8667
ENERGY: 10000 0.7436 0.9260 8.3491 0.0000 -22111.7594 3816.4266 0.0000 0.0000 270.9522 -18014.3619 29.7641 -18285.3141 -18013.7608 30.2655 60.8102 102.2572 44253.3195 4.9099 5.0222
ENERGY: 15000 0.5494 0.9762 8.1686 0.0000 -22228.7572 3919.1004 0.0000 0.0000 272.1163 -18027.8463 29.8920 -18299.9626 -18027.0830 30.0416 563.4340 640.0492 44041.8890 0.5135 0.8665
ENERGY: 20000 0.9308 1.1359 8.2786 0.0000 -21913.5876 3598.5426 0.0000 0.0000 270.8606 -18033.8392 29.7540 -18304.6997 -18033.1974 29.8152 -1287.0028 -1222.4712 44569.6197 -0.6096 -0.7041
ENERGY: 25000 1.3098 1.1236 8.2705 0.0000 -22286.1508 3969.0067 0.0000 0.0000 273.3628 -18033.0773 30.0289 -18306.4402 -18032.1061 30.0719 783.9177 850.9934 44079.4973 0.5107 0.5268
TCL: Running 25000 steps at 60 kelvin.
TCL: Setting parameter langevinTemp to 60
TCL: Running for 25000 steps
ETITLE: TS BOND ANGLE DIHED IMPRP ELECT VDW BOUNDARY MISC KINETIC TOTAL TEMP POTENTIAL TOTAL3 TEMPAVG PRESSURE GPRESSURE VOLUME PRESSAVG GPRESSAVG
ENERGY: 25000 1.3098 1.1236 8.2705 0.0000 -22286.1508 3969.0067 0.0000 0.0000 273.2235 -18033.2166 30.0136 -18306.4402 -18032.6778 30.0136 794.0935 851.0008 44079.4973 794.0935 851.0008
ENERGY: 30000 0.7879 1.3588 8.3199 0.0000 -21851.6889 3775.6673 0.0000 0.0000 544.8135 -17520.7414 59.8478 -18065.5549 -17518.5247 57.7527 316.1735 385.8619 44351.0977 -0.5026 -0.2781
ENERGY: 35000 0.8108 1.4228 8.3967 0.0000 -21576.2593 3502.6743 0.0000 0.0000 538.6580 -17524.2966 59.1716 -18062.9547 -17523.4139 60.2283 -1154.4866 -1107.7490 44683.6832 4.5095 4.0117
ENERGY: 40000 0.7644 1.7689 8.1797 0.0000 -21699.2078 3578.2843 0.0000 0.0000 536.7500 -17573.4606 58.9620 -18110.2106 -17572.1419 60.5433 -830.0870 -788.4048 44408.3702 0.0285 -0.2009
ENERGY: 45000 1.9501 1.7876 8.3263 0.0000 -21932.4937 3782.0999 0.0000 0.0000 541.4551 -17596.8747 59.4788 -18138.3298 -17596.0633 60.3871 365.3285 404.0142 43990.1619 4.2041 4.2965
ENERGY: 50000 1.2409 0.7117 8.0990 0.0000 -21944.3517 3785.3045 0.0000 0.0000 548.4516 -17600.5439 60.2474 -18148.9955 -17599.6453 60.4762 394.1205 441.4317 43894.6042 3.2984 3.4553
TCL: Running 25000 steps at 90 kelvin.
TCL: Setting parameter langevinTemp to 90
TCL: Running for 25000 steps
ETITLE: TS BOND ANGLE DIHED IMPRP ELECT VDW BOUNDARY MISC KINETIC TOTAL TEMP POTENTIAL TOTAL3 TEMPAVG PRESSURE GPRESSURE VOLUME PRESSAVG GPRESSAVG
ENERGY: 50000 1.2409 0.7117 8.0990 0.0000 -21944.3517 3785.3045 0.0000 0.0000 548.1702 -17600.8254 60.2165 -18148.9955 -17599.6464 60.2165 379.8643 441.1039 43894.6042 379.8643 441.1039
ENERGY: 55000 0.9894 2.1460 7.9943 0.0000 -21406.1708 3494.0793 0.0000 0.0000 821.7237 -17079.2380 90.2664 -17900.9618 -17076.6074 86.6276 -620.0132 -566.9616 44330.4228 0.0042 -0.5539
ENERGY: 60000 1.3013 2.3583 8.4290 0.0000 -21513.3176 3589.0712 0.0000 0.0000 817.0018 -17095.1560 89.7477 -17912.1578 -17093.4128 89.8098 -22.7471 58.1005 43996.1611 -1.6615 -2.0349
ENERGY: 65000 0.8263 2.2631 8.4437 0.0000 -21550.4875 3611.9346 0.0000 0.0000 799.9800 -17127.0397 87.8778 -17927.0197 -17125.1662 90.7225 2.3141 54.4084 44127.7845 3.3882 3.7435
ENERGY: 70000 0.7089 2.7132 8.4490 0.0000 -21669.4710 3679.6393 0.0000 0.0000 820.6988 -17157.2617 90.1538 -17977.9605 -17154.2820 90.4638 331.9239 355.1989 43950.1890 2.9978 3.1627
ENERGY: 75000 0.6668 2.1743 8.1059 0.0000 -21619.4700 3622.7133 0.0000 0.0000 830.4042 -17155.4055 91.2199 -17985.8097 -17153.0572 90.9427 -117.7982 -32.2509 44177.2067 -2.4773 -2.3678
TCL: Running 25000 steps at 120 kelvin.
TCL: Setting parameter langevinTemp to 120
TCL: Running for 25000 steps
ETITLE: TS BOND ANGLE DIHED IMPRP ELECT VDW BOUNDARY MISC KINETIC TOTAL TEMP POTENTIAL TOTAL3 TEMPAVG PRESSURE GPRESSURE VOLUME PRESSAVG GPRESSAVG
ENERGY: 75000 0.6668 2.1743 8.1059 0.0000 -21619.4700 3622.7133 0.0000 0.0000 829.9840 -17155.8257 91.1737 -17985.8097 -17154.0391 91.1737 -91.4913 -31.9507 44177.2067 -91.4913 -31.9507
ENERGY: 80000 0.3276 1.6891 8.2664 0.0000 -21193.6614 3524.0461 0.0000 0.0000 1090.2621 -16569.0702 119.7653 -17659.3323 -16565.7179 116.6926 60.4500 112.4957 44298.8086 -0.6174 -1.1839
ENERGY: 85000 1.4235 2.9907 8.3216 0.0000 -21212.9074 3455.9055 0.0000 0.0000 1096.4775 -16647.7887 120.4481 -17744.2662 -16645.0200 119.9159 -480.3771 -433.5924 44466.6242 1.8096 1.7029
ENERGY: 90000 0.7516 2.3459 8.4152 0.0000 -21417.5617 3621.3703 0.0000 0.0000 1082.3346 -16702.3441 118.8945 -17784.6787 -16699.6019 119.4338 316.2613 385.1158 44275.0556 4.2807 4.1505
ENERGY: 95000 1.5099 3.2534 8.5694 0.0000 -21319.3390 3537.2251 0.0000 0.0000 1088.6929 -16680.0883 119.5929 -17768.7813 -16676.9305 119.5518 -178.2722 -82.9978 44299.3830 -1.7135 -1.6463
ENERGY: 100000 0.4452 5.0747 8.1953 0.0000 -21304.4586 3515.0863 0.0000 0.0000 1118.0940 -16657.5631 122.8226 -17775.6571 -16655.5126 120.0298 -337.1480 -260.1529 44542.6626 6.5178 6.5884
TCL: Running 25000 steps at 150 kelvin.
TCL: Setting parameter langevinTemp to 150
TCL: Running for 25000 steps
ETITLE: TS BOND ANGLE DIHED IMPRP ELECT VDW BOUNDARY MISC KINETIC TOTAL TEMP POTENTIAL TOTAL3 TEMPAVG PRESSURE GPRESSURE VOLUME PRESSAVG GPRESSAVG
ENERGY: 100000 0.4452 5.0747 8.1953 0.0000 -21304.4586 3515.0863 0.0000 0.0000 1117.5571 -16658.1000 122.7637 -17775.6571 -16655.9618 122.7637 -318.1391 -259.8640 44542.6626 -318.1391 -259.8640
ENERGY: 105000 0.3553 3.0621 8.5826 0.0000 -20805.3372 3375.0161 0.0000 0.0000 1379.8422 -16038.4789 151.5757 -17418.3211 -16035.2269 146.7231 -183.0389 -115.7496 44650.3136 8.9281 9.7623
ENERGY: 110000 0.8537 1.2880 4.5287 0.0000 -20872.6021 3407.3513 0.0000 0.0000 1361.7216 -16096.8587 149.5851 -17458.5803 -16093.8052 151.2726 -84.3480 -55.9412 44567.8890 3.2007 3.5112
ENERGY: 115000 0.9119 3.1605 4.3131 0.0000 -20838.0105 3363.5106 0.0000 0.0000 1384.1369 -16081.9774 152.0474 -17466.1143 -16079.4373 150.0957 -464.2281 -374.2436 44590.4753 4.1469 4.1861
ENERGY: 120000 1.5525 4.0118 3.9277 0.0000 -21125.1406 3598.0040 0.0000 0.0000 1410.2290 -16107.4155 154.9137 -17517.6445 -16104.2090 151.1119 753.4759 789.2564 44449.7977 0.6646 0.4451
ENERGY: 125000 2.8400 2.4110 3.7778 0.0000 -20782.9679 3278.8832 0.0000 0.0000 1396.8292 -16098.2268 153.4417 -17495.0560 -16093.6711 150.9311 -900.9232 -877.0966 44874.0793 4.9422 5.0067
TCL: Running 50000 steps at 180 kelvin.
TCL: Setting parameter langevinTemp to 180
TCL: Running for 50000 steps
ETITLE: TS BOND ANGLE DIHED IMPRP ELECT VDW BOUNDARY MISC KINETIC TOTAL TEMP POTENTIAL TOTAL3 TEMPAVG PRESSURE GPRESSURE VOLUME PRESSAVG GPRESSAVG
ENERGY: 125000 2.8400 2.4110 3.7778 0.0000 -20782.9679 3278.8832 0.0000 0.0000 1396.1656 -16098.8904 153.3688 -17495.0560 -16096.1655 153.3688 -938.7794 -876.3681 44874.0793 -938.7794 -876.3681
ENERGY: 135000 0.5662 4.5519 3.8860 0.0000 -20125.8909 3049.6585 0.0000 0.0000 1667.9504 -15399.2780 183.2244 -17067.2283 -15395.6557 180.3926 -1216.5909 -1114.6151 45113.1706 2.6088 2.9716
ENERGY: 145000 2.2745 4.7219 4.6272 0.0000 -20475.2324 3302.0944 0.0000 0.0000 1648.3859 -15513.1286 181.0752 -17161.5145 -15510.4877 179.7237 211.7981 223.4518 44499.6316 -1.4057 -1.5643
ENERGY: 155000 1.7649 3.3372 4.4777 0.0000 -20372.5338 3208.6856 0.0000 0.0000 1637.7345 -15516.5339 179.9051 -17154.2684 -15512.2591 181.0293 -324.5668 -288.4804 44607.9274 -0.3577 -0.0048
ENERGY: 165000 0.8397 3.0835 4.2318 0.0000 -20347.2126 3287.3441 0.0000 0.0000 1607.9754 -15443.7382 176.6361 -17051.7136 -15440.4332 181.0212 309.9436 358.7450 44269.8958 -4.5940 -4.7201
ENERGY: 175000 2.5962 5.5029 5.3076 0.0000 -20301.4449 3198.1812 0.0000 0.0000 1596.5280 -15493.3291 175.3786 -17089.8571 -15492.0949 180.0881 -327.8561 -275.5049 44637.9820 -2.9770 -3.2752
TCL: Running 50000 steps at 210 kelvin.
TCL: Setting parameter langevinTemp to 210
TCL: Running for 50000 steps
ETITLE: TS BOND ANGLE DIHED IMPRP ELECT VDW BOUNDARY MISC KINETIC TOTAL TEMP POTENTIAL TOTAL3 TEMPAVG PRESSURE GPRESSURE VOLUME PRESSAVG GPRESSAVG
ENERGY: 175000 2.5962 5.5029 5.3076 0.0000 -20301.4449 3198.1812 0.0000 0.0000 1595.7077 -15494.1495 175.2885 -17089.8571 -15491.1176 175.2885 -340.3311 -276.2336 44637.9820 -340.3311 -276.2336
ENERGY: 185000 0.8383 4.9933 3.5299 0.0000 -19468.4487 3003.1338 0.0000 0.0000 1908.6383 -14547.3152 209.6639 -16455.9535 -14542.9398 208.3787 -307.8301 -207.7827 45553.8092 4.0363 4.3653
ENERGY: 195000 3.3137 5.7290 5.8770 0.0000 -19326.0280 2857.8428 0.0000 0.0000 1917.8111 -14535.4545 210.6716 -16453.2656 -14530.9238 211.3773 -523.5234 -406.8402 44462.3551 4.1722 3.2388
ENERGY: 205000 1.5021 5.2522 4.2491 0.0000 -19364.8320 2961.8508 0.0000 0.0000 1860.5474 -14531.4304 204.3811 -16391.9778 -14528.5610 208.6071 41.6868 106.3249 45040.9741 -0.9044 -0.1019
ENERGY: 215000 0.5783 5.6251 4.8047 0.0000 -19127.2836 2750.4004 0.0000 0.0000 1940.7117 -14425.1634 213.1872 -16365.8751 -14419.1736 210.6908 -1063.4159 -997.9390 45222.8009 4.1192 4.1486
ENERGY: 225000 3.0528 2.1788 3.9969 0.0000 -19514.3902 3043.8097 0.0000 0.0000 1943.7621 -14517.5898 213.5223 -16461.3519 -14513.0827 208.5550 329.0469 410.1527 44843.5354 4.2968 3.7657
TCL: Running 50000 steps at 240 kelvin.
TCL: Setting parameter langevinTemp to 240
TCL: Running for 50000 steps
ETITLE: TS BOND ANGLE DIHED IMPRP ELECT VDW BOUNDARY MISC KINETIC TOTAL TEMP POTENTIAL TOTAL3 TEMPAVG PRESSURE GPRESSURE VOLUME PRESSAVG GPRESSAVG
ENERGY: 225000 3.0528 2.1788 3.9969 0.0000 -19514.3902 3043.8097 0.0000 0.0000 1942.8192 -14518.5327 213.4187 -16461.3519 -14515.4660 213.4187 332.0068 410.5953 44843.5354 332.0068 410.5953
ENERGY: 235000 4.1941 3.7775 4.4175 0.0000 -18273.1096 2559.3990 0.0000 0.0000 2192.6678 -13508.6537 240.8646 -15701.3215 -13505.3212 241.7677 -569.7177 -474.2861 45314.0814 -2.1208 -2.5274
ENERGY: 245000 2.5732 2.5301 8.9147 0.0000 -18514.2793 2722.8245 0.0000 0.0000 2210.1367 -13567.3002 242.7835 -15777.4368 -13561.7793 239.9451 423.0538 496.1481 44528.5159 6.6877 6.9073
ENERGY: 255000 1.2121 6.6689 4.1982 0.0000 -18432.2192 2655.8931 0.0000 0.0000 2139.9257 -13624.3212 235.0709 -15764.2469 -13619.0045 237.7991 -111.8009 -34.6048 45107.6279 4.9486 4.8991
ENERGY: 265000 0.9832 4.2403 5.1011 0.0000 -18649.8997 2887.8210 0.0000 0.0000 2201.9637 -13549.7904 241.8857 -15751.7541 -13544.4163 241.3808 1412.4661 1527.2041 44022.3524 1.6840 1.4998
ENERGY: 275000 0.9565 3.2946 4.6777 0.0000 -18457.6726 2711.7299 0.0000 0.0000 2108.0194 -13628.9945 231.5659 -15737.0139 -13624.2189 240.4305 204.3622 301.8155 45021.8035 1.0529 0.6841
TCL: Running 50000 steps at 270 kelvin.
TCL: Setting parameter langevinTemp to 270
TCL: Running for 50000 steps
ETITLE: TS BOND ANGLE DIHED IMPRP ELECT VDW BOUNDARY MISC KINETIC TOTAL TEMP POTENTIAL TOTAL3 TEMPAVG PRESSURE GPRESSURE VOLUME PRESSAVG GPRESSAVG
ENERGY: 275000 0.9565 3.2946 4.6777 0.0000 -18457.6726 2711.7299 0.0000 0.0000 2106.8919 -13630.1220 231.4421 -15737.0139 -13626.7942 231.4421 221.8620 301.2919 45021.8035 221.8620 301.2919
ENERGY: 285000 2.2027 7.0191 5.2458 0.0000 -17508.9507 2461.8944 0.0000 0.0000 2488.5458 -12544.0430 273.3668 -15032.5888 -12539.6550 270.4141 258.8856 313.9152 45820.1313 -1.3646 -1.8409
ENERGY: 295000 1.0129 5.1085 4.6912 0.0000 -17659.4057 2476.5697 0.0000 0.0000 2398.7257 -12773.2977 263.5000 -15172.0235 -12768.8432 271.1065 38.2714 71.2840 45825.9509 3.5855 3.0198
ENERGY: 305000 2.6519 5.3381 6.7757 0.0000 -17460.2885 2457.5771 0.0000 0.0000 2503.6530 -12484.2927 275.0263 -14987.9458 -12483.0699 271.4223 46.6830 88.3475 46822.3734 4.4165 4.2547
ENERGY: 315000 1.1199 6.3698 4.3898 0.0000 -17579.2913 2439.3101 0.0000 0.0000 2504.7198 -12623.3820 275.1435 -15128.1018 -12616.6994 269.6734 -83.9313 -49.7583 45992.3222 4.6602 4.7566
ENERGY: 325000 2.4587 6.3943 4.9736 0.0000 -17547.9483 2454.6935 0.0000 0.0000 2464.6021 -12614.8261 270.7366 -15079.4282 -12610.9406 269.3150 -34.6729 39.1871 46076.4637 3.2386 3.8026
TCL: Running 1000000 steps at 300 kelvin.
TCL: Setting parameter langevinTemp to 300
TCL: Running for 1000000 steps
ETITLE: TS BOND ANGLE DIHED IMPRP ELECT VDW BOUNDARY MISC KINETIC TOTAL TEMP POTENTIAL TOTAL3 TEMPAVG PRESSURE GPRESSURE VOLUME PRESSAVG GPRESSAVG
ENERGY: 325000 2.4587 6.3943 4.9736 0.0000 -17547.9483 2454.6935 0.0000 0.0000 2463.4047 -12616.0236 270.6050 -15079.4282 -12612.1249 270.6050 -50.3029 38.2191 46076.4637 -50.3029 38.2191
ENERGY: 525000 1.1067 4.7104 3.3993 0.0000 -16771.5467 2282.2819 0.0000 0.0000 2782.6467 -11697.4017 305.6738 -14480.0484 -11693.8341 299.9118 163.8963 226.3386 47191.1143 3.0550 3.1779
ENERGY: 725000 1.7395 5.5401 3.8611 0.0000 -16821.5971 2255.4804 0.0000 0.0000 2662.9210 -11892.0550 292.5219 -14554.9760 -11885.9884 299.9640 -206.9661 -120.3142 46876.3868 1.8085 1.9612
ENERGY: 925000 1.2791 5.0980 4.0008 0.0000 -16650.1271 2227.5722 0.0000 0.0000 2668.6118 -11743.5651 293.1470 -14412.1769 -11736.7755 299.3839 100.0106 187.3680 46813.5516 6.5191 6.5242
ENERGY: 1125000 3.1496 6.2827 4.9066 0.0000 -16545.8980 2096.4880 0.0000 0.0000 2742.4708 -11692.6003 301.2604 -14435.0711 -11689.0524 300.1142 -618.3861 -584.7741 47432.6501 3.7439 3.3168
ENERGY: 1325000 0.7693 6.6115 4.0009 0.0000 -16702.0801 2215.7174 0.0000 0.0000 2772.1417 -11702.8393 304.5198 -14474.9810 -11699.1567 300.9762 -8.1919 34.9720 47177.0309 4.1522 3.8676
TCL: Exiting due to exit command.
