Info: SIMULATION PARAMETERS:
Info: TIMESTEP               2
Info: NUMBER OF STEPS        0
Info: STEPS PER CYCLE        10
Info: PERIODIC CELL BASIS 1  38.861 0 0
Info: PERIODIC CELL BASIS 2  0 38.88 0
Info: PERIODIC CELL BASIS 3  0 0 38.617
Info: PERIODIC CELL CENTER   0 0 0
Info: WRAPPING WATERS AROUND PERIODIC BOUNDARIES ON OUTPUT.
Info: WRAPPING ALL CLUSTERS AROUND PERIODIC BOUNDARIES ON OUTPUT.
Info: FIRST LDB TIMESTEP     50
Info: LAST LDB TIMESTEP     -1
Info: HOM BACKGROUND SCALING 1
Info: PME BACKGROUND SCALING 1
Info: MIN ATOMS PER PATCH    40
Info: EMPTY PATCH LOAD       40 ATOMS
Info: INITIAL TEMPERATURE    300
Info: CENTER OF MASS MOVING INITIALLY? NO
Info: DIELECTRIC             1
Info: EXCLUDE                SCALED ONE-FOUR
Info: 1-4 ELECTROSTATICS SCALED BY 0.833333
Info: MODIFIED 1-4 VDW PARAMETERS WILL BE USED
Info: DCD FILENAME           mobley_1952272_min.dcd
Info: DCD FREQUENCY          5000
Info: DCD FIRST STEP         5000
Info: DCD FILE WILL CONTAIN UNIT CELL DATA
Info: XST FILENAME           mobley_1952272_min.xst
Info: XST FREQUENCY          5000
Info: NO VELOCITY DCD OUTPUT
Info: NO FORCE DCD OUTPUT
Info: OUTPUT FILENAME        mobley_1952272_min
Info: BINARY OUTPUT FILES WILL BE USED
Info: RESTART FILENAME       mobley_1952272_min.restart
Info: RESTART FREQUENCY      5000
Info: BINARY RESTART FILES WILL BE USED
Info: CUTOFF                 9
Info: PAIRLIST DISTANCE      11
Info: PAIRLIST SHRINK RATE   0.01
Info: PAIRLIST GROW RATE     0.01
Info: PAIRLIST TRIGGER       0.3
Info: PAIRLISTS PER CYCLE    2
Info: PAIRLISTS ENABLED
Info: MARGIN                 8
Info: HYDROGEN GROUP CUTOFF  2.5
Info: PATCH DIMENSION        21.5
Info: ENERGY OUTPUT STEPS    5000
Info: ENERGY EVALUATION STEPS    5000
Info: OUTPUT ENERGY PRECISION 4
Info: CROSSTERM ENERGY INCLUDED IN DIHEDRAL
Info: TIMING OUTPUT STEPS    50000
Info: PRESSURE OUTPUT STEPS  5000
Info: LANGEVIN DYNAMICS ACTIVE
Info: LANGEVIN TEMPERATURE   300
Info: LANGEVIN USING BBK INTEGRATOR
Info: LANGEVIN DAMPING COEFFICIENT IS 1 INVERSE PS
Info: LANGEVIN DYNAMICS APPLIED TO HYDROGENS
Info: LANGEVIN PISTON PRESSURE CONTROL ACTIVE
Info:        TARGET PRESSURE IS 1.01325 BAR
Info:     OSCILLATION PERIOD IS 50 FS
Info:             DECAY TIME IS 25 FS
Info:     PISTON TEMPERATURE IS 300 K
Info:       PRESSURE CONTROL IS GROUP-BASED
Info:    INITIAL STRAIN RATE IS 0 0 0
Info:       CELL FLUCTUATION IS ISOTROPIC
Info: PARTICLE MESH EWALD (PME) ACTIVE
Info: PME TOLERANCE               1e-06
Info: PME EWALD COEFFICIENT       0.348832
Info: PME INTERPOLATION ORDER     4
Info: PME GRID DIMENSIONS         40 40 40
Info: PME MAXIMUM GRID SPACING    1
Info: FULL ELECTROSTATIC EVALUATION FREQUENCY      2
Info: USING VERLET I (r-RESPA) MTS SCHEME.
Info: C1 SPLITTING OF LONG RANGE ELECTROSTATICS
Info: PLACING ATOMS IN PATCHES BY HYDROGEN GROUPS
Info: RIGID BONDS TO HYDROGEN : ALL
Info:         ERROR TOLERANCE : 1e-08
Info:          MAX ITERATIONS : 100
Info: RIGID WATER USING SETTLE ALGORITHM
Info: RANDOM NUMBER SEED     1741316510
Info: USE HYDROGEN BONDS?    NO
Info: Using AMBER format force field!
Info: AMBER PARM FILE        mobley_1952272.prmtop
Info: COORDINATE PDB         mobley_1952272.pdb
Info: Exclusions will be read from PARM file!
Info: SCNB (VDW SCALING)     2
Info: USING ARITHMETIC MEAN TO COMBINE L-J SIGMA PARAMETERS
Info: SUMMARY OF PARAMETERS:
Info: 5 BONDS
Info: 4 ANGLES
Info:   4 HARMONIC
Info:   0 COSINE-BASED
Info: 1 DIHEDRAL
Info: 0 IMPROPER
Info: 0 CROSSTERM
Info: 0 VDW
Info: 21 VDW_PAIRS
Info: 0 NBTHOLE_PAIRS
Info: STRUCTURE SUMMARY:
Info: 4087 ATOMS
Info: 4086 BONDS
Info: 9 ANGLES
Info: 6 DIHEDRALS
Info: 0 IMPROPERS
Info: 0 CROSSTERMS
Info: 4101 EXCLUSIONS
Info: 4083 RIGID BONDS
Info: 8178 DEGREES OF FREEDOM
Info: 1364 HYDROGEN GROUPS
Info: 4 ATOMS IN LARGEST HYDROGEN GROUP
Info: 1364 MIGRATION GROUPS
Info: 4 ATOMS IN LARGEST MIGRATION GROUP
Info: TOTAL MASS = 24562.8 amu
Info: TOTAL CHARGE = 9.99793e-05 e
Info: MASS DENSITY = 0.699066 g/cm^3
Info: ATOM DENSITY = 0.0700464 atoms/A^3
Info: ADDED 0 IMPLICIT EXCLUSIONS
Info: NONBONDED TABLE R-SQUARED SPACING: 0.0625
Info: NONBONDED TABLE SIZE: 705 POINTS
Info: REMOVING COM VELOCITY 0.158477 0.0808461 -0.00662468
TCL: Minimizing for 2000 steps
ETITLE: TS BOND ANGLE DIHED IMPRP ELECT VDW BOUNDARY MISC KINETIC TOTAL TEMP POTENTIAL TOTAL3 TEMPAVG PRESSURE GPRESSURE VOLUME PRESSAVG GPRESSAVG
ENERGY: 0 1.2382 0.6593 0.0000 0.0000 -12525.8923 1426.1726 0.0000 0.0000 0.0000 -11097.8223 0.0000 -11097.8223 -11097.8223 0.0000 10582.8887 -15057.6898 58347.0308 10582.8887 -15057.6898
ENERGY: 400 2.6812 0.5693 0.0000 0.0000 -17337.5519 2593.8178 0.0000 0.0000 0.0000 -14740.4836 0.0000 -14740.4836 -14740.4836 0.0000 15735.0285 15859.4622 58347.0308 15735.0285 15859.4622
ENERGY: 800 0.5837 0.9549 0.0000 0.0000 -18222.7485 3035.5920 0.0000 0.0000 0.0000 -15185.6179 0.0000 -15185.6179 -15185.6179 0.0000 18148.6050 18263.8920 58347.0308 18148.6050 18263.8920
ENERGY: 1200 0.2487 0.5118 0.0000 0.0000 -18556.7530 3175.0574 0.0000 0.0000 0.0000 -15380.9351 0.0000 -15380.9351 -15380.9351 0.0000 18986.2309 19094.5052 58347.0308 18986.2309 19094.5052
ENERGY: 1600 0.7104 0.5297 0.0000 0.0000 -18731.2695 3245.0071 0.0000 0.0000 0.0000 -15485.0224 0.0000 -15485.0224 -15485.0224 0.0000 19424.0474 19509.3451 58347.0308 19424.0474 19509.3451
ENERGY: 2000 0.0753 0.4458 0.0000 0.0000 -18807.0411 3270.6238 0.0000 0.0000 0.0000 -15535.8962 0.0000 -15535.8962 -15535.8962 0.0000 19587.6398 19666.8277 58347.0308 19587.6398 19666.8277
TCL: Exiting due to exit command.
Info: NAMD 3.0.1 for Linux-x86_64-multicore
Info: Please visit http://www.ks.uiuc.edu/Research/namd/
Info: for updates, documentation, and support information.
Info: Please cite Phillips et al., J. Chem. Phys. 153:044130 (2020) doi:10.1063/5.0014475
Info: in all publications reporting results obtained with NAMD.
Info: Based on Charm++/Converse 80000 for multicore-linux-x86_64-gcc
Info: Built Mon Oct 14 11:11:06 CDT 2024 by dhardy on athine.ks.uiuc.edu
Info: 1 NAMD  3.0.1  Linux-x86_64-multicore  16    k014  z5358697
Info: Running on 16 processors, 1 nodes, 1 physical nodes.
Info: CPU topology information available.
Info: Charm++/Converse parallel runtime startup completed at 0.00937265 s
Info: 1043.45 MB of memory in use based on /proc/self/stat
Info: Configuration file is mobley_1952272_equil.namd
Info: Working in the current directory /srv/scratch/z5358697/prod_prep_1/1952272
TCL: Running 25000 steps at 30 kelvin.
TCL: Suspending until startup complete.
Info: SIMULATION PARAMETERS:
Info: TIMESTEP               2
Info: NUMBER OF STEPS        0
Info: STEPS PER CYCLE        10
Info: PERIODIC CELL BASIS 1  38.861 0 0
Info: PERIODIC CELL BASIS 2  0 38.88 0
Info: PERIODIC CELL BASIS 3  0 0 38.617
Info: PERIODIC CELL CENTER   0 0 0
Info: WRAPPING WATERS AROUND PERIODIC BOUNDARIES ON OUTPUT.
Info: WRAPPING ALL CLUSTERS AROUND PERIODIC BOUNDARIES ON OUTPUT.
Info: FIRST LDB TIMESTEP     50
Info: LAST LDB TIMESTEP     -1
Info: HOM BACKGROUND SCALING 1
Info: PME BACKGROUND SCALING 1
Info: MIN ATOMS PER PATCH    40
Info: EMPTY PATCH LOAD       40 ATOMS
Info: INITIAL TEMPERATURE    300
Info: CENTER OF MASS MOVING INITIALLY? NO
Info: DIELECTRIC             1
Info: EXCLUDE                SCALED ONE-FOUR
Info: 1-4 ELECTROSTATICS SCALED BY 0.833333
Info: MODIFIED 1-4 VDW PARAMETERS WILL BE USED
Info: DCD FILENAME           mobley_1952272_equil.dcd
Info: DCD FREQUENCY          5000
Info: DCD FIRST STEP         5000
Info: DCD FILE WILL CONTAIN UNIT CELL DATA
Info: XST FILENAME           mobley_1952272_equil.xst
Info: XST FREQUENCY          5000
Info: NO VELOCITY DCD OUTPUT
Info: NO FORCE DCD OUTPUT
Info: OUTPUT FILENAME        mobley_1952272_equil
Info: BINARY OUTPUT FILES WILL BE USED
Info: RESTART FILENAME       mobley_1952272_equil.restart
Info: RESTART FREQUENCY      5000
Info: BINARY RESTART FILES WILL BE USED
Info: CUTOFF                 9
Info: PAIRLIST DISTANCE      11
Info: PAIRLIST SHRINK RATE   0.01
Info: PAIRLIST GROW RATE     0.01
Info: PAIRLIST TRIGGER       0.3
Info: PAIRLISTS PER CYCLE    2
Info: PAIRLISTS ENABLED
Info: MARGIN                 8
Info: HYDROGEN GROUP CUTOFF  2.5
Info: PATCH DIMENSION        21.5
Info: ENERGY OUTPUT STEPS    5000
Info: ENERGY EVALUATION STEPS    5000
Info: OUTPUT ENERGY PRECISION 4
Info: CROSSTERM ENERGY INCLUDED IN DIHEDRAL
Info: TIMING OUTPUT STEPS    50000
Info: PRESSURE OUTPUT STEPS  5000
Info: LANGEVIN DYNAMICS ACTIVE
Info: LANGEVIN TEMPERATURE   30
Info: LANGEVIN USING BBK INTEGRATOR
Info: LANGEVIN DAMPING COEFFICIENT IS 1 INVERSE PS
Info: LANGEVIN DYNAMICS APPLIED TO HYDROGENS
Info: LANGEVIN PISTON PRESSURE CONTROL ACTIVE
Info:        TARGET PRESSURE IS 1.01325 BAR
Info:     OSCILLATION PERIOD IS 50 FS
Info:             DECAY TIME IS 25 FS
Info:     PISTON TEMPERATURE IS 300 K
Info:       PRESSURE CONTROL IS GROUP-BASED
Info:    INITIAL STRAIN RATE IS 0 0 0
Info:       CELL FLUCTUATION IS ISOTROPIC
Info: PARTICLE MESH EWALD (PME) ACTIVE
Info: PME TOLERANCE               1e-06
Info: PME EWALD COEFFICIENT       0.348832
Info: PME INTERPOLATION ORDER     4
Info: PME GRID DIMENSIONS         40 40 40
Info: PME MAXIMUM GRID SPACING    1
Info: FULL ELECTROSTATIC EVALUATION FREQUENCY      2
Info: USING VERLET I (r-RESPA) MTS SCHEME.
Info: C1 SPLITTING OF LONG RANGE ELECTROSTATICS
Info: PLACING ATOMS IN PATCHES BY HYDROGEN GROUPS
Info: RIGID BONDS TO HYDROGEN : ALL
Info:         ERROR TOLERANCE : 1e-08
Info:          MAX ITERATIONS : 100
Info: RIGID WATER USING SETTLE ALGORITHM
Info: RANDOM NUMBER SEED     1741316526
Info: USE HYDROGEN BONDS?    NO
Info: Using AMBER format force field!
Info: AMBER PARM FILE        mobley_1952272.prmtop
Info: COORDINATE PDB         mobley_1952272.pdb
Info: Exclusions will be read from PARM file!
Info: SCNB (VDW SCALING)     2
Info: USING ARITHMETIC MEAN TO COMBINE L-J SIGMA PARAMETERS
Info: BINARY COORDINATES     mobley_1952272_min.coor
Info: SUMMARY OF PARAMETERS:
Info: 5 BONDS
Info: 4 ANGLES
Info:   4 HARMONIC
Info:   0 COSINE-BASED
Info: 1 DIHEDRAL
Info: 0 IMPROPER
Info: 0 CROSSTERM
Info: 0 VDW
Info: 21 VDW_PAIRS
Info: 0 NBTHOLE_PAIRS
Info: STRUCTURE SUMMARY:
Info: 4087 ATOMS
Info: 4086 BONDS
Info: 9 ANGLES
Info: 6 DIHEDRALS
Info: 0 IMPROPERS
Info: 0 CROSSTERMS
Info: 4101 EXCLUSIONS
Info: 4083 RIGID BONDS
Info: 8178 DEGREES OF FREEDOM
Info: 1364 HYDROGEN GROUPS
Info: 4 ATOMS IN LARGEST HYDROGEN GROUP
Info: 1364 MIGRATION GROUPS
Info: 4 ATOMS IN LARGEST MIGRATION GROUP
Info: TOTAL MASS = 24562.8 amu
Info: TOTAL CHARGE = 9.99793e-05 e
Info: MASS DENSITY = 0.699066 g/cm^3
Info: ATOM DENSITY = 0.0700464 atoms/A^3
Info: ADDED 0 IMPLICIT EXCLUSIONS
Info: NONBONDED TABLE R-SQUARED SPACING: 0.0625
Info: NONBONDED TABLE SIZE: 705 POINTS
Info: REMOVING COM VELOCITY -0.183185 0.133236 0.000601866
TCL: Running for 25000 steps
ETITLE: TS BOND ANGLE DIHED IMPRP ELECT VDW BOUNDARY MISC KINETIC TOTAL TEMP POTENTIAL TOTAL3 TEMPAVG PRESSURE GPRESSURE VOLUME PRESSAVG GPRESSAVG
ENERGY: 0 0.0753 0.4458 0.0000 0.0000 -18807.0411 3270.6238 0.0000 0.0000 2457.7788 -13078.1173 302.4726 -15535.8962 -13077.6712 302.4726 344.6125 377.6341 58347.0308 344.6125 377.6341
ENERGY: 5000 0.2796 0.6181 0.0000 0.0000 -19617.1427 3397.2086 0.0000 0.0000 252.8844 -15966.1521 31.1218 -16219.0365 -15965.5308 47.3982 94.4503 164.0326 39993.7969 -0.7442 -0.8128
ENERGY: 10000 0.0724 0.5458 0.0000 0.0000 -19614.9388 3364.2236 0.0000 0.0000 240.5365 -16009.5605 29.6022 -16250.0971 -16009.0764 30.2294 -182.9007 -140.2430 40036.2316 4.7940 4.7950
ENERGY: 15000 0.0477 0.6784 0.0000 0.0000 -19662.1302 3403.9861 0.0000 0.0000 247.1113 -16010.3066 30.4114 -16257.4179 -16009.7664 30.2243 33.6093 102.8275 40012.8641 1.8584 1.8444
ENERGY: 20000 0.1409 0.6400 0.0000 0.0000 -19679.1421 3404.6555 0.0000 0.0000 242.3188 -16031.3869 29.8216 -16273.7057 -16030.5982 30.2084 36.8268 98.9692 39774.0206 1.8189 1.7855
ENERGY: 25000 0.0904 0.8456 0.0000 0.0000 -19712.5432 3430.2205 0.0000 0.0000 238.0721 -16043.3146 29.2989 -16281.3867 -16042.5755 29.6911 175.7066 230.0473 39814.8891 6.3095 6.2206
TCL: Running 25000 steps at 60 kelvin.
TCL: Setting parameter langevinTemp to 60
TCL: Running for 25000 steps
ETITLE: TS BOND ANGLE DIHED IMPRP ELECT VDW BOUNDARY MISC KINETIC TOTAL TEMP POTENTIAL TOTAL3 TEMPAVG PRESSURE GPRESSURE VOLUME PRESSAVG GPRESSAVG
ENERGY: 25000 0.0904 0.8456 0.0000 0.0000 -19712.5432 3430.2205 0.0000 0.0000 237.9520 -16043.4347 29.2842 -16281.3867 -16043.0369 29.2842 170.0965 230.2148 39814.8891 170.0965 230.2148
ENERGY: 30000 0.0946 0.8459 0.0000 0.0000 -19370.6496 3299.2791 0.0000 0.0000 486.0663 -15584.3637 59.8189 -16070.4300 -15582.8929 57.4441 34.3049 91.2735 39759.9750 5.9841 5.7903
ENERGY: 35000 0.2352 0.8046 0.0000 0.0000 -19235.0002 3139.5756 0.0000 0.0000 494.0025 -15600.3823 60.7956 -16094.3848 -15599.0018 60.4008 -1059.7764 -997.8404 40026.5903 2.5555 2.6886
ENERGY: 40000 0.1533 0.9234 0.0000 0.0000 -19405.4509 3291.6876 0.0000 0.0000 500.8577 -15611.8289 61.6393 -16112.6867 -15610.5358 60.5277 -151.8710 -95.0522 39786.1915 3.9452 4.2273
ENERGY: 45000 0.3685 1.1448 0.0000 0.0000 -19573.2327 3424.4282 0.0000 0.0000 498.0709 -15649.2203 61.2963 -16147.2912 -15647.7647 60.5919 512.0865 542.9848 39724.0846 4.5057 4.7048
ENERGY: 50000 0.4294 1.0074 0.0000 0.0000 -19576.4169 3425.8910 0.0000 0.0000 490.3307 -15658.7584 60.3438 -16149.0891 -15657.6778 60.5994 503.6298 551.9270 39716.2405 5.9458 5.9446
TCL: Running 25000 steps at 90 kelvin.
TCL: Setting parameter langevinTemp to 90
TCL: Running for 25000 steps
ETITLE: TS BOND ANGLE DIHED IMPRP ELECT VDW BOUNDARY MISC KINETIC TOTAL TEMP POTENTIAL TOTAL3 TEMPAVG PRESSURE GPRESSURE VOLUME PRESSAVG GPRESSAVG
ENERGY: 50000 0.4294 1.0074 0.0000 0.0000 -19576.4169 3425.8910 0.0000 0.0000 490.0820 -15659.0071 60.3132 -16149.0891 -15658.0298 60.3132 498.9063 552.0904 39716.2405 498.9063 552.0904
ENERGY: 55000 1.0179 0.8926 0.0000 0.0000 -19006.6333 3086.5551 0.0000 0.0000 712.0031 -15206.1646 87.6244 -15918.1677 -15204.8443 87.3737 -1047.2242 -970.8045 40312.4111 1.1168 1.1008
ENERGY: 60000 0.4461 0.6788 0.0000 0.0000 -19156.3188 3191.5752 0.0000 0.0000 761.6167 -15202.0019 93.7302 -15963.6187 -15199.8636 91.0379 -497.3544 -427.3490 40111.2926 3.5045 3.8582
ENERGY: 65000 0.4725 1.8242 0.0000 0.0000 -19237.3342 3254.6590 0.0000 0.0000 740.6087 -15239.7698 91.1448 -15980.3785 -15237.2922 90.5395 -182.7551 -69.5995 40060.7532 4.7956 5.1211
ENERGY: 70000 0.1811 1.0854 0.0000 0.0000 -19377.3014 3368.5237 0.0000 0.0000 735.5796 -15271.9316 90.5259 -16007.5111 -15270.4219 89.9943 507.6487 559.1930 39867.9301 5.7347 5.5722
ENERGY: 75000 0.4967 1.1114 0.0000 0.0000 -19234.3502 3233.2626 0.0000 0.0000 725.6633 -15273.8163 89.3055 -15999.4796 -15271.9294 89.7781 -332.4801 -254.1577 39932.6624 6.7296 6.6555
TCL: Running 25000 steps at 120 kelvin.
TCL: Setting parameter langevinTemp to 120
TCL: Running for 25000 steps
ETITLE: TS BOND ANGLE DIHED IMPRP ELECT VDW BOUNDARY MISC KINETIC TOTAL TEMP POTENTIAL TOTAL3 TEMPAVG PRESSURE GPRESSURE VOLUME PRESSAVG GPRESSAVG
ENERGY: 75000 0.4967 1.1114 0.0000 0.0000 -19234.3502 3233.2626 0.0000 0.0000 725.3177 -15274.1619 89.2630 -15999.4796 -15272.7655 89.2630 -325.6588 -254.3673 39932.6624 -325.6588 -254.3673
ENERGY: 80000 0.1327 1.1818 0.0000 0.0000 -18934.1202 3219.6651 0.0000 0.0000 947.7334 -14765.4073 116.6352 -15713.1407 -14763.2855 116.6215 374.5807 455.0889 39981.9235 4.0994 4.0429
ENERGY: 85000 0.5289 1.0072 0.0000 0.0000 -18927.9749 3158.2391 0.0000 0.0000 983.4436 -14784.7561 121.0299 -15768.1997 -14781.7235 120.0586 -221.2437 -144.5561 40197.5335 -1.5405 -1.4765
ENERGY: 90000 0.5814 2.8671 0.0000 0.0000 -18987.0935 3218.9696 0.0000 0.0000 979.3594 -14785.3160 120.5273 -15764.6755 -14782.9401 120.0663 115.0746 181.5363 40147.5445 8.3426 7.5937
ENERGY: 95000 0.2710 1.0871 0.0000 0.0000 -18990.1117 3194.0373 0.0000 0.0000 993.9414 -14800.7750 122.3219 -15794.7164 -14799.1624 120.5147 -75.9797 -36.5109 40196.6105 5.2966 4.8619
ENERGY: 100000 0.6525 1.7940 0.0000 0.0000 -19046.6957 3218.7954 0.0000 0.0000 994.8471 -14830.6066 122.4333 -15825.4538 -14827.5123 119.5230 22.1291 111.9433 39939.3216 3.9611 3.8322
TCL: Running 25000 steps at 150 kelvin.
TCL: Setting parameter langevinTemp to 150
TCL: Running for 25000 steps
ETITLE: TS BOND ANGLE DIHED IMPRP ELECT VDW BOUNDARY MISC KINETIC TOTAL TEMP POTENTIAL TOTAL3 TEMPAVG PRESSURE GPRESSURE VOLUME PRESSAVG GPRESSAVG
ENERGY: 100000 0.6525 1.7940 0.0000 0.0000 -19046.6957 3218.7954 0.0000 0.0000 994.3722 -14831.0815 122.3749 -15825.4538 -14829.3729 122.3749 52.1147 112.4781 39939.3216 52.1147 112.4781
ENERGY: 105000 0.1087 1.4184 0.0000 0.0000 -18559.2722 3099.2168 0.0000 0.0000 1212.5055 -14246.0228 149.2200 -15458.5283 -14242.4536 145.8688 282.4667 350.2805 40030.2038 -1.5716 -1.6301
ENERGY: 110000 0.3220 1.5162 0.0000 0.0000 -18690.7322 3135.1867 0.0000 0.0000 1210.2764 -14343.4309 148.9457 -15553.7073 -14340.1174 150.4750 336.6368 401.9111 39825.0487 2.1493 2.3782
ENERGY: 115000 0.1323 2.0060 0.0000 0.0000 -18656.9446 3135.5277 0.0000 0.0000 1231.0207 -14288.2580 151.4986 -15519.2786 -14284.0982 151.3193 527.3169 581.4853 39701.0231 3.9464 4.2129
ENERGY: 120000 0.6801 1.4643 0.0000 0.0000 -18727.2230 3170.5819 0.0000 0.0000 1216.1021 -14338.3947 149.6626 -15554.4968 -14334.1883 149.9371 623.0846 678.5911 39740.9166 4.0739 4.3789
ENERGY: 125000 1.0085 1.2622 0.0000 0.0000 -18548.0852 2988.3655 0.0000 0.0000 1240.3436 -14317.1054 152.6459 -15557.4489 -14313.9122 151.0197 -608.3816 -557.3851 40207.1759 0.3902 0.5469
TCL: Running 50000 steps at 180 kelvin.
TCL: Setting parameter langevinTemp to 180
TCL: Running for 50000 steps
ETITLE: TS BOND ANGLE DIHED IMPRP ELECT VDW BOUNDARY MISC KINETIC TOTAL TEMP POTENTIAL TOTAL3 TEMPAVG PRESSURE GPRESSURE VOLUME PRESSAVG GPRESSAVG
ENERGY: 125000 1.0085 1.2622 0.0000 0.0000 -18548.0852 2988.3655 0.0000 0.0000 1239.7347 -14317.7142 152.5710 -15557.4489 -14315.2081 152.5710 -613.9997 -557.3547 40207.1759 -613.9997 -557.3547
ENERGY: 135000 0.3679 3.0296 0.0000 0.0000 -18259.2042 3037.8137 0.0000 0.0000 1449.4021 -13768.5908 178.3743 -15217.9929 -13765.6971 178.8003 521.8784 553.8493 39993.6943 4.8586 4.3203
ENERGY: 145000 0.8628 1.4279 0.0000 0.0000 -18178.5153 2885.9846 0.0000 0.0000 1463.6552 -13826.5848 180.1283 -15290.2400 -13822.2856 178.8760 -551.8905 -439.3749 40225.3441 -1.2619 -0.8507
ENERGY: 155000 0.4514 1.5140 0.0000 0.0000 -18200.5941 2957.1682 0.0000 0.0000 1459.4955 -13781.9650 179.6164 -15241.4605 -13777.4569 181.2338 -36.5996 88.3585 39962.5708 3.8244 4.3967
ENERGY: 165000 0.3756 1.1891 0.0000 0.0000 -18199.6589 2982.2503 0.0000 0.0000 1466.4535 -13749.3904 180.4727 -15215.8440 -13745.3113 181.1199 313.3131 383.1054 39822.3874 3.4988 3.4290
ENERGY: 175000 0.1433 1.5462 0.0000 0.0000 -18202.2229 2933.4832 0.0000 0.0000 1463.7528 -13803.2975 180.1404 -15267.0503 -13799.1691 179.4367 -154.0740 -81.7308 39973.7525 3.0623 2.4468
TCL: Running 50000 steps at 210 kelvin.
TCL: Setting parameter langevinTemp to 210
TCL: Running for 50000 steps
ETITLE: TS BOND ANGLE DIHED IMPRP ELECT VDW BOUNDARY MISC KINETIC TOTAL TEMP POTENTIAL TOTAL3 TEMPAVG PRESSURE GPRESSURE VOLUME PRESSAVG GPRESSAVG
ENERGY: 175000 0.1433 1.5462 0.0000 0.0000 -18202.2229 2933.4832 0.0000 0.0000 1463.0271 -13804.0232 180.0510 -15267.0503 -13801.4604 180.0510 -147.3631 -81.6307 39973.7525 -147.3631 -81.6307
ENERGY: 185000 0.4418 2.8845 0.0000 0.0000 -17337.5099 2703.1645 0.0000 0.0000 1706.8283 -12924.1907 210.0550 -14631.0191 -12921.4850 209.8234 280.0055 383.6595 39837.2632 6.3859 6.5390
ENERGY: 195000 0.5295 2.8346 0.0000 0.0000 -17194.0864 2540.5552 0.0000 0.0000 1708.4167 -12941.7503 210.2505 -14650.1670 -12939.2469 210.4477 -829.9587 -693.5670 40026.5814 1.2284 1.5142
ENERGY: 205000 1.1851 1.9992 0.0000 0.0000 -17216.1410 2641.4819 0.0000 0.0000 1745.6275 -12825.8473 214.8300 -14571.4748 -12821.5668 210.0925 -103.9759 -1.1941 40473.0115 0.8123 1.1303
ENERGY: 215000 0.3225 2.2176 0.0000 0.0000 -17063.2163 2550.0938 0.0000 0.0000 1700.7918 -12809.7906 209.3121 -14510.5824 -12806.3024 211.0975 -424.3854 -353.5330 40334.5736 5.0319 4.2331
ENERGY: 225000 0.1936 1.5339 0.0000 0.0000 -17320.4602 2654.1449 0.0000 0.0000 1729.0463 -12935.5415 212.7894 -14664.5878 -12931.7103 208.8497 -72.4699 37.4091 39919.8582 2.4470 2.4305
TCL: Running 50000 steps at 240 kelvin.
TCL: Setting parameter langevinTemp to 240
TCL: Running for 50000 steps
ETITLE: TS BOND ANGLE DIHED IMPRP ELECT VDW BOUNDARY MISC KINETIC TOTAL TEMP POTENTIAL TOTAL3 TEMPAVG PRESSURE GPRESSURE VOLUME PRESSAVG GPRESSAVG
ENERGY: 225000 0.1936 1.5339 0.0000 0.0000 -17320.4602 2654.1449 0.0000 0.0000 1728.1766 -12936.4111 212.6823 -14664.5878 -12933.2341 212.6823 -38.1748 37.9672 39919.8582 -38.1748 37.9672
ENERGY: 235000 2.0381 4.0263 0.0000 0.0000 -16363.7850 2373.2650 0.0000 0.0000 1979.6567 -12004.7988 243.6313 -13984.4555 -11999.3881 238.9644 74.0407 141.3955 40350.2974 2.6640 2.6575
ENERGY: 245000 0.6407 1.1140 0.0000 0.0000 -16516.3255 2409.3883 0.0000 0.0000 1967.6306 -12137.5519 242.1513 -14105.1826 -12131.0907 240.1045 -265.6403 -230.0897 40624.8938 8.8259 8.7758
ENERGY: 255000 1.0397 2.9532 0.0000 0.0000 -16452.5455 2427.7821 0.0000 0.0000 1915.6588 -12105.1117 235.7553 -14020.7705 -12102.9401 241.1904 294.6470 383.8819 39773.7799 0.5913 0.6457
ENERGY: 265000 0.4625 3.0196 0.0000 0.0000 -16438.7253 2439.7308 0.0000 0.0000 1967.1668 -12028.3456 242.0942 -13995.5124 -12023.8702 240.8831 488.8094 524.8872 39847.8953 7.6620 7.9212
ENERGY: 275000 1.2988 1.2395 0.0000 0.0000 -16368.1948 2358.3280 0.0000 0.0000 1937.4597 -12069.8689 238.4383 -14007.3286 -12063.8862 240.8893 -200.4134 -134.1528 40366.3907 2.7121 3.4822
TCL: Running 50000 steps at 270 kelvin.
TCL: Setting parameter langevinTemp to 270
TCL: Running for 50000 steps
ETITLE: TS BOND ANGLE DIHED IMPRP ELECT VDW BOUNDARY MISC KINETIC TOTAL TEMP POTENTIAL TOTAL3 TEMPAVG PRESSURE GPRESSURE VOLUME PRESSAVG GPRESSAVG
ENERGY: 275000 1.2988 1.2395 0.0000 0.0000 -16368.1948 2358.3280 0.0000 0.0000 1936.4957 -12070.8329 238.3196 -14007.3286 -12068.0123 238.3196 -208.2448 -131.1668 40366.3907 -208.2448 -131.1668
ENERGY: 285000 0.6397 5.0117 0.0000 0.0000 -15467.7114 2079.8756 0.0000 0.0000 2194.8764 -11187.3080 270.1179 -13382.1844 -11182.3764 269.9989 -467.1864 -403.9384 41119.0744 1.5567 1.4916
ENERGY: 295000 0.6349 1.5923 0.0000 0.0000 -15569.5929 2157.5532 0.0000 0.0000 2140.8503 -11268.9622 263.4690 -13409.8124 -11266.6310 270.8328 -140.3213 -10.0822 41050.6294 -1.2419 -1.1494
ENERGY: 305000 0.7731 1.7294 0.0000 0.0000 -15688.6909 2225.6050 0.0000 0.0000 2219.9140 -11240.6695 273.1992 -13460.5835 -11237.5595 268.6291 141.4441 226.8220 40997.4154 4.1460 3.7383
ENERGY: 315000 1.8279 1.4391 0.0000 0.0000 -15631.4960 2236.1627 0.0000 0.0000 2157.2773 -11234.7890 265.4907 -13392.0663 -11228.1439 268.6421 236.9718 296.4637 41057.9356 -1.0462 -1.0340
ENERGY: 325000 0.2476 3.5402 0.0000 0.0000 -15451.8971 2054.9589 0.0000 0.0000 2191.9650 -11201.1854 269.7596 -13393.1503 -11196.9382 271.7371 -712.4304 -612.4235 41161.7096 2.9284 3.0002
TCL: Running 1000000 steps at 300 kelvin.
TCL: Setting parameter langevinTemp to 300
TCL: Running for 1000000 steps
ETITLE: TS BOND ANGLE DIHED IMPRP ELECT VDW BOUNDARY MISC KINETIC TOTAL TEMP POTENTIAL TOTAL3 TEMPAVG PRESSURE GPRESSURE VOLUME PRESSAVG GPRESSAVG
ENERGY: 325000 0.2476 3.5402 0.0000 0.0000 -15451.8971 2054.9589 0.0000 0.0000 2190.8800 -11202.2703 269.6261 -13393.1503 -11198.4484 269.6261 -684.2250 -611.9040 41161.7096 -684.2250 -611.9040
ENERGY: 525000 0.1051 2.1247 0.0000 0.0000 -14953.2472 2075.3769 0.0000 0.0000 2438.6271 -10437.0134 300.1157 -12875.6405 -10431.7761 299.1689 438.2993 512.4180 41739.5035 2.0751 1.7253
ENERGY: 725000 0.3667 2.5199 0.0000 0.0000 -14779.0739 1982.1779 0.0000 0.0000 2439.5702 -10354.4392 300.2317 -12794.0094 -10350.6001 302.2868 34.3011 103.0967 41967.2058 1.4328 1.3444
ENERGY: 925000 0.7151 3.4484 0.0000 0.0000 -14941.6789 2113.2416 0.0000 0.0000 2407.1720 -10417.1018 296.2446 -12824.2738 -10410.7716 299.9987 587.7733 615.4136 42629.3544 -2.9582 -2.2174
ENERGY: 1125000 1.0701 2.6149 0.0000 0.0000 -14880.7164 1995.8100 0.0000 0.0000 2441.9410 -10439.2804 300.5235 -12881.2214 -10437.4362 301.1084 -107.5669 -52.0808 42003.8057 5.4228 5.5862
ENERGY: 1325000 0.1747 3.1019 0.0000 0.0000 -14718.1826 1975.8160 0.0000 0.0000 2470.8156 -10268.2745 304.0770 -12739.0901 -10262.2695 301.3190 147.9926 228.8723 42248.2918 5.2231 5.0711
TCL: Exiting due to exit command.
