Info: SIMULATION PARAMETERS:
Info: TIMESTEP               2
Info: NUMBER OF STEPS        0
Info: STEPS PER CYCLE        10
Info: PERIODIC CELL BASIS 1  39.546 0 0
Info: PERIODIC CELL BASIS 2  0 42.62 0
Info: PERIODIC CELL BASIS 3  0 0 42.851
Info: PERIODIC CELL CENTER   0 0 0
Info: WRAPPING WATERS AROUND PERIODIC BOUNDARIES ON OUTPUT.
Info: WRAPPING ALL CLUSTERS AROUND PERIODIC BOUNDARIES ON OUTPUT.
Info: FIRST LDB TIMESTEP     50
Info: LAST LDB TIMESTEP     -1
Info: HOM BACKGROUND SCALING 1
Info: PME BACKGROUND SCALING 1
Info: MIN ATOMS PER PATCH    40
Info: EMPTY PATCH LOAD       40 ATOMS
Info: INITIAL TEMPERATURE    300
Info: CENTER OF MASS MOVING INITIALLY? NO
Info: DIELECTRIC             1
Info: EXCLUDE                SCALED ONE-FOUR
Info: 1-4 ELECTROSTATICS SCALED BY 0.833333
Info: MODIFIED 1-4 VDW PARAMETERS WILL BE USED
Info: DCD FILENAME           mobley_3210206_min.dcd
Info: DCD FREQUENCY          5000
Info: DCD FIRST STEP         5000
Info: DCD FILE WILL CONTAIN UNIT CELL DATA
Info: XST FILENAME           mobley_3210206_min.xst
Info: XST FREQUENCY          5000
Info: NO VELOCITY DCD OUTPUT
Info: NO FORCE DCD OUTPUT
Info: OUTPUT FILENAME        mobley_3210206_min
Info: BINARY OUTPUT FILES WILL BE USED
Info: RESTART FILENAME       mobley_3210206_min.restart
Info: RESTART FREQUENCY      5000
Info: BINARY RESTART FILES WILL BE USED
Info: CUTOFF                 9
Info: PAIRLIST DISTANCE      11
Info: PAIRLIST SHRINK RATE   0.01
Info: PAIRLIST GROW RATE     0.01
Info: PAIRLIST TRIGGER       0.3
Info: PAIRLISTS PER CYCLE    2
Info: PAIRLISTS ENABLED
Info: MARGIN                 8
Info: HYDROGEN GROUP CUTOFF  2.5
Info: PATCH DIMENSION        21.5
Info: ENERGY OUTPUT STEPS    5000
Info: ENERGY EVALUATION STEPS    5000
Info: OUTPUT ENERGY PRECISION 4
Info: CROSSTERM ENERGY INCLUDED IN DIHEDRAL
Info: TIMING OUTPUT STEPS    50000
Info: PRESSURE OUTPUT STEPS  5000
Info: LANGEVIN DYNAMICS ACTIVE
Info: LANGEVIN TEMPERATURE   300
Info: LANGEVIN USING BBK INTEGRATOR
Info: LANGEVIN DAMPING COEFFICIENT IS 1 INVERSE PS
Info: LANGEVIN DYNAMICS APPLIED TO HYDROGENS
Info: LANGEVIN PISTON PRESSURE CONTROL ACTIVE
Info:        TARGET PRESSURE IS 1.01325 BAR
Info:     OSCILLATION PERIOD IS 50 FS
Info:             DECAY TIME IS 25 FS
Info:     PISTON TEMPERATURE IS 300 K
Info:       PRESSURE CONTROL IS GROUP-BASED
Info:    INITIAL STRAIN RATE IS 0 0 0
Info:       CELL FLUCTUATION IS ISOTROPIC
Info: PARTICLE MESH EWALD (PME) ACTIVE
Info: PME TOLERANCE               1e-06
Info: PME EWALD COEFFICIENT       0.348832
Info: PME INTERPOLATION ORDER     4
Info: PME GRID DIMENSIONS         40 44 44
Info: PME MAXIMUM GRID SPACING    1
Info: FULL ELECTROSTATIC EVALUATION FREQUENCY      2
Info: USING VERLET I (r-RESPA) MTS SCHEME.
Info: C1 SPLITTING OF LONG RANGE ELECTROSTATICS
Info: PLACING ATOMS IN PATCHES BY HYDROGEN GROUPS
Info: RIGID BONDS TO HYDROGEN : ALL
Info:         ERROR TOLERANCE : 1e-08
Info:          MAX ITERATIONS : 100
Info: RIGID WATER USING SETTLE ALGORITHM
Info: RANDOM NUMBER SEED     1741340951
Info: USE HYDROGEN BONDS?    NO
Info: Using AMBER format force field!
Info: AMBER PARM FILE        mobley_3210206.prmtop
Info: COORDINATE PDB         mobley_3210206.pdb
Info: Exclusions will be read from PARM file!
Info: SCNB (VDW SCALING)     2
Info: USING ARITHMETIC MEAN TO COMBINE L-J SIGMA PARAMETERS
Info: SUMMARY OF PARAMETERS:
Info: 8 BONDS
Info: 10 ANGLES
Info:   10 HARMONIC
Info:   0 COSINE-BASED
Info: 9 DIHEDRAL
Info: 0 IMPROPER
Info: 0 CROSSTERM
Info: 0 VDW
Info: 36 VDW_PAIRS
Info: 0 NBTHOLE_PAIRS
Info: STRUCTURE SUMMARY:
Info: 5192 ATOMS
Info: 5191 BONDS
Info: 26 ANGLES
Info: 36 DIHEDRALS
Info: 0 IMPROPERS
Info: 0 CROSSTERMS
Info: 5245 EXCLUSIONS
Info: 5181 RIGID BONDS
Info: 10395 DEGREES OF FREEDOM
Info: 1736 HYDROGEN GROUPS
Info: 4 ATOMS IN LARGEST HYDROGEN GROUP
Info: 1736 MIGRATION GROUPS
Info: 4 ATOMS IN LARGEST MIGRATION GROUP
Info: TOTAL MASS = 31243.7 amu
Info: TOTAL CHARGE = 5.21541e-08 e
Info: MASS DENSITY = 0.718364 g/cm^3
Info: ATOM DENSITY = 0.0718882 atoms/A^3
Info: ADDED 0 IMPLICIT EXCLUSIONS
Info: NONBONDED TABLE R-SQUARED SPACING: 0.0625
Info: NONBONDED TABLE SIZE: 705 POINTS
Info: REMOVING COM VELOCITY -0.00785994 -0.0245196 -0.115022
TCL: Minimizing for 2000 steps
ETITLE: TS BOND ANGLE DIHED IMPRP ELECT VDW BOUNDARY MISC KINETIC TOTAL TEMP POTENTIAL TOTAL3 TEMPAVG PRESSURE GPRESSURE VOLUME PRESSAVG GPRESSAVG
ENERGY: 0 0.0861 3.2762 2.8543 0.0000 -16218.4138 1849.7771 0.0000 0.0000 0.0000 -14362.4202 0.0000 -14362.4202 -14362.4202 0.0000 11191.2957 -15720.2432 72223.2402 11191.2957 -15720.2432
ENERGY: 400 3.3320 2.7226 3.2309 0.0000 -21629.8309 3076.6986 0.0000 0.0000 0.0000 -18543.8468 0.0000 -18543.8468 -18543.8468 0.0000 15361.3659 15509.7022 72223.2402 15361.3659 15509.7022
ENERGY: 800 1.2503 3.1960 3.0528 0.0000 -22813.5247 3675.9416 0.0000 0.0000 0.0000 -19130.0841 0.0000 -19130.0841 -19130.0841 0.0000 17953.7875 18070.2819 72223.2402 17953.7875 18070.2819
ENERGY: 1200 0.8841 1.8863 3.0641 0.0000 -23354.7171 3914.8443 0.0000 0.0000 0.0000 -19434.0384 0.0000 -19434.0384 -19434.0384 0.0000 19019.1731 19135.6428 72223.2402 19019.1731 19135.6428
ENERGY: 1600 9.2071 3.7378 3.1435 0.0000 -23612.3467 4026.3866 0.0000 0.0000 0.0000 -19569.8718 0.0000 -19569.8718 -19569.8718 0.0000 19517.2728 19621.7821 72223.2402 19517.2728 19621.7821
ENERGY: 2000 0.5627 1.7435 2.9721 0.0000 -23836.9463 4154.6777 0.0000 0.0000 0.0000 -19676.9903 0.0000 -19676.9903 -19676.9903 0.0000 20156.9586 20263.2389 72223.2402 20156.9586 20263.2389
TCL: Exiting due to exit command.
Info: NAMD 3.0.1 for Linux-x86_64-multicore
Info: Please visit http://www.ks.uiuc.edu/Research/namd/
Info: for updates, documentation, and support information.
Info: Please cite Phillips et al., J. Chem. Phys. 153:044130 (2020) doi:10.1063/5.0014475
Info: in all publications reporting results obtained with NAMD.
Info: Based on Charm++/Converse 80000 for multicore-linux-x86_64-gcc
Info: Built Mon Oct 14 11:11:06 CDT 2024 by dhardy on athine.ks.uiuc.edu
Info: 1 NAMD  3.0.1  Linux-x86_64-multicore  16    k064  z5358697
Info: Running on 16 processors, 1 nodes, 1 physical nodes.
Info: CPU topology information available.
Info: Charm++/Converse parallel runtime startup completed at 0.00934359 s
Info: 1043.46 MB of memory in use based on /proc/self/stat
Info: Configuration file is mobley_3210206_equil.namd
Info: Working in the current directory /srv/scratch/z5358697/prod_prep_3/3210206
TCL: Running 25000 steps at 30 kelvin.
TCL: Suspending until startup complete.
Info: SIMULATION PARAMETERS:
Info: TIMESTEP               2
Info: NUMBER OF STEPS        0
Info: STEPS PER CYCLE        10
Info: PERIODIC CELL BASIS 1  39.546 0 0
Info: PERIODIC CELL BASIS 2  0 42.62 0
Info: PERIODIC CELL BASIS 3  0 0 42.851
Info: PERIODIC CELL CENTER   0 0 0
Info: WRAPPING WATERS AROUND PERIODIC BOUNDARIES ON OUTPUT.
Info: WRAPPING ALL CLUSTERS AROUND PERIODIC BOUNDARIES ON OUTPUT.
Info: FIRST LDB TIMESTEP     50
Info: LAST LDB TIMESTEP     -1
Info: HOM BACKGROUND SCALING 1
Info: PME BACKGROUND SCALING 1
Info: MIN ATOMS PER PATCH    40
Info: EMPTY PATCH LOAD       40 ATOMS
Info: INITIAL TEMPERATURE    300
Info: CENTER OF MASS MOVING INITIALLY? NO
Info: DIELECTRIC             1
Info: EXCLUDE                SCALED ONE-FOUR
Info: 1-4 ELECTROSTATICS SCALED BY 0.833333
Info: MODIFIED 1-4 VDW PARAMETERS WILL BE USED
Info: DCD FILENAME           mobley_3210206_equil.dcd
Info: DCD FREQUENCY          5000
Info: DCD FIRST STEP         5000
Info: DCD FILE WILL CONTAIN UNIT CELL DATA
Info: XST FILENAME           mobley_3210206_equil.xst
Info: XST FREQUENCY          5000
Info: NO VELOCITY DCD OUTPUT
Info: NO FORCE DCD OUTPUT
Info: OUTPUT FILENAME        mobley_3210206_equil
Info: BINARY OUTPUT FILES WILL BE USED
Info: RESTART FILENAME       mobley_3210206_equil.restart
Info: RESTART FREQUENCY      5000
Info: BINARY RESTART FILES WILL BE USED
Info: CUTOFF                 9
Info: PAIRLIST DISTANCE      11
Info: PAIRLIST SHRINK RATE   0.01
Info: PAIRLIST GROW RATE     0.01
Info: PAIRLIST TRIGGER       0.3
Info: PAIRLISTS PER CYCLE    2
Info: PAIRLISTS ENABLED
Info: MARGIN                 8
Info: HYDROGEN GROUP CUTOFF  2.5
Info: PATCH DIMENSION        21.5
Info: ENERGY OUTPUT STEPS    5000
Info: ENERGY EVALUATION STEPS    5000
Info: OUTPUT ENERGY PRECISION 4
Info: CROSSTERM ENERGY INCLUDED IN DIHEDRAL
Info: TIMING OUTPUT STEPS    50000
Info: PRESSURE OUTPUT STEPS  5000
Info: LANGEVIN DYNAMICS ACTIVE
Info: LANGEVIN TEMPERATURE   30
Info: LANGEVIN USING BBK INTEGRATOR
Info: LANGEVIN DAMPING COEFFICIENT IS 1 INVERSE PS
Info: LANGEVIN DYNAMICS APPLIED TO HYDROGENS
Info: LANGEVIN PISTON PRESSURE CONTROL ACTIVE
Info:        TARGET PRESSURE IS 1.01325 BAR
Info:     OSCILLATION PERIOD IS 50 FS
Info:             DECAY TIME IS 25 FS
Info:     PISTON TEMPERATURE IS 300 K
Info:       PRESSURE CONTROL IS GROUP-BASED
Info:    INITIAL STRAIN RATE IS 0 0 0
Info:       CELL FLUCTUATION IS ISOTROPIC
Info: PARTICLE MESH EWALD (PME) ACTIVE
Info: PME TOLERANCE               1e-06
Info: PME EWALD COEFFICIENT       0.348832
Info: PME INTERPOLATION ORDER     4
Info: PME GRID DIMENSIONS         40 44 44
Info: PME MAXIMUM GRID SPACING    1
Info: FULL ELECTROSTATIC EVALUATION FREQUENCY      2
Info: USING VERLET I (r-RESPA) MTS SCHEME.
Info: C1 SPLITTING OF LONG RANGE ELECTROSTATICS
Info: PLACING ATOMS IN PATCHES BY HYDROGEN GROUPS
Info: RIGID BONDS TO HYDROGEN : ALL
Info:         ERROR TOLERANCE : 1e-08
Info:          MAX ITERATIONS : 100
Info: RIGID WATER USING SETTLE ALGORITHM
Info: RANDOM NUMBER SEED     1741340968
Info: USE HYDROGEN BONDS?    NO
Info: Using AMBER format force field!
Info: AMBER PARM FILE        mobley_3210206.prmtop
Info: COORDINATE PDB         mobley_3210206.pdb
Info: Exclusions will be read from PARM file!
Info: SCNB (VDW SCALING)     2
Info: USING ARITHMETIC MEAN TO COMBINE L-J SIGMA PARAMETERS
Info: BINARY COORDINATES     mobley_3210206_min.coor
Info: SUMMARY OF PARAMETERS:
Info: 8 BONDS
Info: 10 ANGLES
Info:   10 HARMONIC
Info:   0 COSINE-BASED
Info: 9 DIHEDRAL
Info: 0 IMPROPER
Info: 0 CROSSTERM
Info: 0 VDW
Info: 36 VDW_PAIRS
Info: 0 NBTHOLE_PAIRS
Info: STRUCTURE SUMMARY:
Info: 5192 ATOMS
Info: 5191 BONDS
Info: 26 ANGLES
Info: 36 DIHEDRALS
Info: 0 IMPROPERS
Info: 0 CROSSTERMS
Info: 5245 EXCLUSIONS
Info: 5181 RIGID BONDS
Info: 10395 DEGREES OF FREEDOM
Info: 1736 HYDROGEN GROUPS
Info: 4 ATOMS IN LARGEST HYDROGEN GROUP
Info: 1736 MIGRATION GROUPS
Info: 4 ATOMS IN LARGEST MIGRATION GROUP
Info: TOTAL MASS = 31243.7 amu
Info: TOTAL CHARGE = 5.21541e-08 e
Info: MASS DENSITY = 0.718364 g/cm^3
Info: ATOM DENSITY = 0.0718882 atoms/A^3
Info: ADDED 0 IMPLICIT EXCLUSIONS
Info: NONBONDED TABLE R-SQUARED SPACING: 0.0625
Info: NONBONDED TABLE SIZE: 705 POINTS
Info: REMOVING COM VELOCITY -0.0865239 0.0532484 0.109272
TCL: Running for 25000 steps
ETITLE: TS BOND ANGLE DIHED IMPRP ELECT VDW BOUNDARY MISC KINETIC TOTAL TEMP POTENTIAL TOTAL3 TEMPAVG PRESSURE GPRESSURE VOLUME PRESSAVG GPRESSAVG
ENERGY: 0 0.5627 1.7435 2.9721 0.0000 -23836.9463 4154.6777 0.0000 0.0000 3101.0112 -16575.9791 300.2405 -19676.9903 -16575.3514 300.2405 446.4290 485.6813 72223.2402 446.4290 485.6813
ENERGY: 5000 1.0074 2.5846 3.5090 0.0000 -24780.7375 4182.7712 0.0000 0.0000 306.1303 -20284.7350 29.6396 -20590.8652 -20284.0582 47.5714 -598.0919 -531.0324 50555.3764 2.4036 2.4533
ENERGY: 10000 0.7602 1.7677 3.7257 0.0000 -24846.1684 4192.7576 0.0000 0.0000 313.3986 -20333.7585 30.3433 -20647.1572 -20332.4869 30.2985 -653.9992 -603.4033 50489.7872 -0.8638 -0.9719
ENERGY: 15000 0.8203 1.6962 3.7603 0.0000 -25037.0291 4359.1485 0.0000 0.0000 307.4707 -20364.1330 29.7694 -20671.6037 -20362.8221 30.3862 98.1294 159.5926 50229.1448 8.4250 8.2468
ENERGY: 20000 0.6774 2.3575 3.7468 0.0000 -25042.3116 4367.7994 0.0000 0.0000 305.5374 -20362.1930 29.5822 -20667.7304 -20361.3200 30.0313 142.2236 181.8420 50282.3909 7.6360 7.9011
ENERGY: 25000 0.9247 2.2982 2.9816 0.0000 -24869.6481 4183.4509 0.0000 0.0000 316.9422 -20363.0504 30.6864 -20679.9926 -20362.0846 30.1774 -821.5584 -742.5436 50594.9718 5.0748 5.1704
TCL: Running 25000 steps at 60 kelvin.
TCL: Setting parameter langevinTemp to 60
TCL: Running for 25000 steps
ETITLE: TS BOND ANGLE DIHED IMPRP ELECT VDW BOUNDARY MISC KINETIC TOTAL TEMP POTENTIAL TOTAL3 TEMPAVG PRESSURE GPRESSURE VOLUME PRESSAVG GPRESSAVG
ENERGY: 25000 0.9247 2.2982 2.9816 0.0000 -24869.6481 4183.4509 0.0000 0.0000 316.7821 -20363.2105 30.6709 -20679.9926 -20362.5016 30.6709 -796.8247 -742.4762 50594.9718 -796.8247 -742.4762
ENERGY: 30000 1.2666 2.6788 3.4748 0.0000 -24715.7808 4301.0939 0.0000 0.0000 621.6443 -19785.6223 60.1877 -20407.2667 -19784.1168 56.9510 347.9582 406.3075 50469.6661 2.4364 2.4474
ENERGY: 35000 0.9861 4.0074 3.7912 0.0000 -24597.7645 4143.8512 0.0000 0.0000 626.1719 -19818.9568 60.6261 -20445.1287 -19817.0953 60.3502 -393.2628 -333.8392 50515.1634 -0.0518 0.2072
ENERGY: 40000 2.2436 3.1071 3.7576 0.0000 -24734.5987 4221.7020 0.0000 0.0000 624.5276 -19879.2608 60.4669 -20503.7884 -19877.0277 59.9312 -183.8583 -119.7959 50410.7741 4.6040 4.8956
ENERGY: 45000 1.5548 2.0508 3.8767 0.0000 -24865.4180 4327.0900 0.0000 0.0000 611.1351 -19919.7105 59.1702 -20530.8456 -19917.6344 59.9486 297.9322 354.6184 50204.9312 -4.3523 -4.3474
ENERGY: 50000 0.9973 3.5465 2.9093 0.0000 -24919.2647 4383.3901 0.0000 0.0000 634.0886 -19894.3329 61.3926 -20528.4215 -19892.3024 59.8838 698.3208 728.0281 50024.9335 2.3337 2.0573
TCL: Running 25000 steps at 90 kelvin.
TCL: Setting parameter langevinTemp to 90
TCL: Running for 25000 steps
ETITLE: TS BOND ANGLE DIHED IMPRP ELECT VDW BOUNDARY MISC KINETIC TOTAL TEMP POTENTIAL TOTAL3 TEMPAVG PRESSURE GPRESSURE VOLUME PRESSAVG GPRESSAVG
ENERGY: 50000 0.9973 3.5465 2.9093 0.0000 -24919.2647 4383.3901 0.0000 0.0000 633.7824 -19894.6392 61.3629 -20528.4215 -19893.5919 61.3629 674.3178 728.3239 50024.9335 674.3178 728.3239
ENERGY: 55000 1.5766 3.8696 3.9331 0.0000 -24374.8547 4130.5537 0.0000 0.0000 942.6394 -19292.2823 91.2665 -20234.9217 -19288.8220 87.8792 89.8566 130.5671 50440.2767 2.1315 1.8499
ENERGY: 60000 1.0730 2.5495 3.9949 0.0000 -24512.7725 4231.9312 0.0000 0.0000 955.5713 -19317.6526 92.5186 -20273.2239 -19314.7200 90.1868 426.0558 464.5170 50386.8684 2.1590 2.3589
ENERGY: 65000 1.2604 3.7670 2.8921 0.0000 -24577.0960 4284.7098 0.0000 0.0000 955.1994 -19329.2673 92.4826 -20284.4666 -19326.3332 90.6241 764.8170 815.8585 49989.6919 5.5196 5.6014
ENERGY: 70000 1.0081 2.6609 3.2665 0.0000 -24498.7772 4199.8775 0.0000 0.0000 936.2830 -19355.6812 90.6511 -20291.9642 -19352.5526 90.1243 197.7456 271.5702 50254.7434 3.8880 3.6023
ENERGY: 75000 1.2839 4.4711 2.8738 0.0000 -24269.8286 3943.5878 0.0000 0.0000 924.2169 -19393.3950 89.4828 -20317.6119 -19391.2801 90.0292 -1073.3026 -1025.9450 50653.7959 1.9979 2.1684
TCL: Running 25000 steps at 120 kelvin.
TCL: Setting parameter langevinTemp to 120
TCL: Running for 25000 steps
ETITLE: TS BOND ANGLE DIHED IMPRP ELECT VDW BOUNDARY MISC KINETIC TOTAL TEMP POTENTIAL TOTAL3 TEMPAVG PRESSURE GPRESSURE VOLUME PRESSAVG GPRESSAVG
ENERGY: 75000 1.2839 4.4711 2.8738 0.0000 -24269.8286 3943.5878 0.0000 0.0000 923.7616 -19393.8503 89.4388 -20317.6119 -19391.9037 89.4388 -1079.7880 -1026.1027 50653.7959 -1079.7880 -1026.1027
ENERGY: 80000 1.0857 5.3363 3.1728 0.0000 -24025.6976 4070.7829 0.0000 0.0000 1237.9108 -18707.4091 119.8547 -19945.3199 -18705.1559 117.2156 377.9495 424.8241 50459.8513 2.4085 2.4741
ENERGY: 85000 0.8817 3.8546 4.0739 0.0000 -24017.7299 3996.5515 0.0000 0.0000 1252.1345 -18760.2336 121.2319 -20012.3681 -18756.2486 120.5994 -114.0369 -18.3122 50466.8937 0.8686 1.0357
ENERGY: 90000 2.8872 4.4604 4.2674 0.0000 -24210.1290 4181.8405 0.0000 0.0000 1271.7295 -18744.9440 123.1291 -20016.6735 -18742.9188 120.0268 790.2763 829.8645 50111.2733 5.5529 5.6416
ENERGY: 95000 1.1766 4.4263 3.5446 0.0000 -23998.1066 3955.5419 0.0000 0.0000 1226.6698 -18806.7474 118.7664 -20033.4172 -18802.4710 119.7396 -388.4251 -330.5929 50466.8168 -2.3846 -2.3743
ENERGY: 100000 1.2695 4.7769 3.3355 0.0000 -24049.9689 3994.0562 0.0000 0.0000 1258.5193 -18788.0114 121.8501 -20046.5307 -18785.7568 120.4012 -187.3452 -158.0575 50377.8505 2.7787 2.6650
TCL: Running 25000 steps at 150 kelvin.
TCL: Setting parameter langevinTemp to 150
TCL: Running for 25000 steps
ETITLE: TS BOND ANGLE DIHED IMPRP ELECT VDW BOUNDARY MISC KINETIC TOTAL TEMP POTENTIAL TOTAL3 TEMPAVG PRESSURE GPRESSURE VOLUME PRESSAVG GPRESSAVG
ENERGY: 100000 1.2695 4.7769 3.3355 0.0000 -24049.9689 3994.0562 0.0000 0.0000 1257.8904 -18788.6403 121.7892 -20046.5307 -18786.4314 121.7892 -216.3427 -158.6457 50377.8505 -216.3427 -158.6457
ENERGY: 105000 3.0436 4.0256 3.7437 0.0000 -23349.5997 3683.9404 0.0000 0.0000 1552.5074 -18102.3389 150.3141 -19654.8464 -18098.8289 146.6777 -892.1324 -850.6755 50862.8126 2.4049 2.5171
ENERGY: 110000 1.7058 3.5066 5.3534 0.0000 -23611.0545 3926.8534 0.0000 0.0000 1573.4122 -18100.2232 152.3381 -19673.6354 -18095.0641 150.0642 251.5488 315.5465 50384.6787 2.6904 1.8167
ENERGY: 115000 1.6766 3.8373 4.0547 0.0000 -23480.7675 3799.2360 0.0000 0.0000 1547.7573 -18124.2057 149.8541 -19671.9630 -18119.6127 150.4995 -372.8654 -273.6015 50442.6997 7.6103 6.9787
ENERGY: 120000 1.6540 4.3196 4.0304 0.0000 -23712.5779 3973.4971 0.0000 0.0000 1573.1785 -18155.8983 152.3154 -19729.0768 -18150.7998 150.3457 422.1963 457.2692 50310.7452 5.6970 5.6353
ENERGY: 125000 1.9646 5.8831 3.8385 0.0000 -23694.7338 3950.3971 0.0000 0.0000 1521.0248 -18211.6257 147.2659 -19732.6505 -18208.1614 149.1428 381.8969 398.3342 50197.3935 -0.2197 -0.3511
TCL: Running 50000 steps at 180 kelvin.
TCL: Setting parameter langevinTemp to 180
TCL: Running for 50000 steps
ETITLE: TS BOND ANGLE DIHED IMPRP ELECT VDW BOUNDARY MISC KINETIC TOTAL TEMP POTENTIAL TOTAL3 TEMPAVG PRESSURE GPRESSURE VOLUME PRESSAVG GPRESSAVG
ENERGY: 125000 1.9646 5.8831 3.8385 0.0000 -23694.7338 3950.3971 0.0000 0.0000 1520.2420 -18212.4085 147.1901 -19732.6505 -18209.8177 147.1901 346.7898 398.5342 50197.3935 346.7898 398.5342
ENERGY: 135000 2.1514 5.5195 3.1369 0.0000 -22916.1009 3641.7999 0.0000 0.0000 1849.5734 -17413.9198 179.0760 -19263.4932 -17409.2347 179.6547 -377.1522 -310.4706 50816.7012 7.1050 7.2466
ENERGY: 145000 3.0175 6.5870 3.7396 0.0000 -23130.6369 3782.6125 0.0000 0.0000 1877.8766 -17456.8036 181.8164 -19334.6802 -17451.7726 180.8135 329.0439 338.7742 50796.5185 -1.2883 -1.7399
ENERGY: 155000 1.6345 5.9186 3.7589 0.0000 -23205.6985 3816.4083 0.0000 0.0000 1877.3988 -17500.5795 181.7701 -19377.9782 -17497.7028 179.0386 430.8863 496.8248 50579.7863 4.3277 3.9235
ENERGY: 165000 2.5424 3.2890 3.5594 0.0000 -22906.5685 3566.2080 0.0000 0.0000 1851.0953 -17479.8743 179.2234 -19330.9696 -17475.0393 180.0896 -798.9875 -723.7474 50987.1341 -0.5344 -0.5132
ENERGY: 175000 4.2397 4.4843 5.5955 0.0000 -23103.7529 3793.2123 0.0000 0.0000 1841.0019 -17455.2192 178.2461 -19296.2211 -17450.8115 179.9188 142.4931 224.6989 51090.0921 3.6025 3.8625
TCL: Running 50000 steps at 210 kelvin.
TCL: Setting parameter langevinTemp to 210
TCL: Running for 50000 steps
ETITLE: TS BOND ANGLE DIHED IMPRP ELECT VDW BOUNDARY MISC KINETIC TOTAL TEMP POTENTIAL TOTAL3 TEMPAVG PRESSURE GPRESSURE VOLUME PRESSAVG GPRESSAVG
ENERGY: 175000 4.2397 4.4843 5.5955 0.0000 -23103.7529 3793.2123 0.0000 0.0000 1840.0565 -17456.1646 178.1546 -19296.2211 -17452.5162 178.1546 161.7016 225.0900 51090.0921 161.7016 225.0900
ENERGY: 185000 1.9625 4.6878 4.1931 0.0000 -21720.3617 3190.7393 0.0000 0.0000 2108.7504 -16410.0287 204.1696 -18518.7791 -16407.9536 209.8409 -881.8820 -834.0487 51536.5681 1.3305 1.5908
ENERGY: 195000 1.0445 4.9107 4.0272 0.0000 -21603.1882 3085.5671 0.0000 0.0000 2125.2735 -16382.3652 205.7694 -18507.6387 -16378.6741 209.7729 -1323.2051 -1241.5853 51250.3944 -1.9199 -2.0267
ENERGY: 205000 2.0492 3.0774 5.6011 0.0000 -21875.3429 3285.9530 0.0000 0.0000 2178.6817 -16399.9806 210.9404 -18578.6622 -16394.2790 210.7470 -526.6951 -418.3297 50997.0468 0.4460 0.2655
ENERGY: 215000 3.1898 5.7824 3.6226 0.0000 -21901.5991 3330.8983 0.0000 0.0000 2141.0439 -16417.0621 207.2963 -18558.1060 -16413.4444 210.3353 -103.5613 19.1482 50296.9931 -1.3785 -1.1758
ENERGY: 225000 2.1539 9.0236 3.4158 0.0000 -21875.3403 3378.3178 0.0000 0.0000 2180.5486 -16301.8806 211.1211 -18482.4292 -16298.4914 210.3947 23.0083 80.4690 51394.9530 -1.2462 -1.5826
TCL: Running 50000 steps at 240 kelvin.
TCL: Setting parameter langevinTemp to 240
TCL: Running for 50000 steps
ETITLE: TS BOND ANGLE DIHED IMPRP ELECT VDW BOUNDARY MISC KINETIC TOTAL TEMP POTENTIAL TOTAL3 TEMPAVG PRESSURE GPRESSURE VOLUME PRESSAVG GPRESSAVG
ENERGY: 225000 2.1539 9.0236 3.4158 0.0000 -21875.3403 3378.3178 0.0000 0.0000 2179.4496 -16302.9796 211.0147 -18482.4292 -16298.8967 211.0147 -3.3447 80.3449 51394.9530 -3.3447 80.3449
ENERGY: 235000 2.4831 5.6955 5.2518 0.0000 -20763.9164 3026.1941 0.0000 0.0000 2473.3740 -15250.9180 239.4725 -17724.2920 -15245.4106 240.9951 6.6156 44.0074 51410.2677 3.9567 4.0928
ENERGY: 245000 2.6310 5.4414 7.0241 0.0000 -20807.5600 2967.5763 0.0000 0.0000 2460.8034 -15364.0840 238.2554 -17824.8873 -15356.4577 242.0507 -390.3808 -305.8307 51139.0458 -3.7907 -3.4851
ENERGY: 255000 1.4836 6.6468 4.7946 0.0000 -20647.0240 2920.4498 0.0000 0.0000 2457.6983 -15255.9508 237.9548 -17713.6491 -15250.9821 239.9125 -582.9582 -492.6526 51652.2351 4.2445 4.1289
ENERGY: 265000 4.3660 6.3701 2.9264 0.0000 -20829.9740 3108.0832 0.0000 0.0000 2461.9062 -15246.3222 238.3622 -17708.2284 -15241.6040 241.2074 539.1101 591.3427 50847.5306 2.0605 2.3450
ENERGY: 275000 2.2256 7.1320 3.6633 0.0000 -20710.6680 2979.6119 0.0000 0.0000 2556.9281 -15161.1072 247.5622 -17718.0353 -15157.5216 240.5138 -69.2798 31.8293 50633.4450 4.5237 5.2979
TCL: Running 50000 steps at 270 kelvin.
TCL: Setting parameter langevinTemp to 270
TCL: Running for 50000 steps
ETITLE: TS BOND ANGLE DIHED IMPRP ELECT VDW BOUNDARY MISC KINETIC TOTAL TEMP POTENTIAL TOTAL3 TEMPAVG PRESSURE GPRESSURE VOLUME PRESSAVG GPRESSAVG
ENERGY: 275000 2.2256 7.1320 3.6633 0.0000 -20710.6680 2979.6119 0.0000 0.0000 2555.7394 -15162.2959 247.4471 -17718.0353 -15158.8882 247.4471 -61.4060 32.8050 50633.4450 -61.4060 32.8050
ENERGY: 285000 1.8931 5.6371 5.8534 0.0000 -19564.0803 2642.4050 0.0000 0.0000 2791.9354 -14116.3563 270.3157 -16908.2917 -14109.9411 270.6194 -457.2786 -350.2980 52526.0547 6.8361 7.1222
ENERGY: 295000 4.1973 8.1832 4.4371 0.0000 -19770.6353 2746.5837 0.0000 0.0000 2730.3594 -14276.8746 264.3539 -17007.2340 -14269.8902 268.3915 -155.6993 -70.5793 52208.1097 -0.9335 -0.5321
ENERGY: 305000 1.2844 6.5014 2.9921 0.0000 -19651.1500 2633.4406 0.0000 0.0000 2794.0989 -14212.8326 270.5252 -17006.9315 -14208.2862 271.9153 -709.0348 -632.0464 52642.6278 2.4584 2.9800
ENERGY: 315000 3.1392 7.3120 4.5317 0.0000 -19479.9428 2572.4776 0.0000 0.0000 2780.0541 -14112.4282 269.1653 -16892.4823 -14107.3895 270.8050 -806.0905 -678.1937 52243.7383 3.2243 3.8849
ENERGY: 325000 3.1868 8.3066 4.0542 0.0000 -19647.5587 2679.8356 0.0000 0.0000 2808.6696 -14143.5058 271.9359 -16952.1755 -14139.7992 270.9820 -464.7989 -405.1317 52525.2814 2.1843 2.5533
TCL: Running 1000000 steps at 300 kelvin.
TCL: Setting parameter langevinTemp to 300
TCL: Running for 1000000 steps
ETITLE: TS BOND ANGLE DIHED IMPRP ELECT VDW BOUNDARY MISC KINETIC TOTAL TEMP POTENTIAL TOTAL3 TEMPAVG PRESSURE GPRESSURE VOLUME PRESSAVG GPRESSAVG
ENERGY: 325000 3.1868 8.3066 4.0542 0.0000 -19647.5587 2679.8356 0.0000 0.0000 2807.3436 -14144.8319 271.8075 -16952.1755 -14140.4543 271.8075 -478.8313 -407.1331 52525.2814 -478.8313 -407.1331
ENERGY: 525000 3.5742 7.8649 3.1325 0.0000 -19021.2044 2701.8878 0.0000 0.0000 3139.0222 -13165.7227 303.9207 -16304.7449 -13163.7570 300.1553 924.7121 989.7187 53048.7519 2.9918 2.9191
ENERGY: 725000 4.5570 6.6320 5.0329 0.0000 -18918.0835 2580.0026 0.0000 0.0000 3133.2753 -13188.5836 303.3643 -16321.8590 -13182.8120 298.7112 31.9456 92.8200 53769.5482 -2.6514 -3.2172
ENERGY: 925000 4.1521 9.6815 4.7175 0.0000 -18752.4505 2413.3292 0.0000 0.0000 3106.7773 -13213.7929 300.7987 -16320.5702 -13205.0293 300.2530 -908.9948 -822.7180 54416.9097 -0.7566 -0.4736
ENERGY: 1125000 4.0198 5.7322 4.8180 0.0000 -18899.1062 2610.2442 0.0000 0.0000 3087.9010 -13186.3911 298.9711 -16274.2921 -13183.3119 299.7844 235.0386 342.7672 53726.8303 -1.3331 -1.6818
ENERGY: 1325000 3.8232 8.8709 3.7455 0.0000 -18942.5929 2561.9537 0.0000 0.0000 3139.9517 -13224.2478 304.0107 -16364.1996 -13219.6588 299.7591 -21.9825 20.9599 53522.4817 1.8928 1.9415
TCL: Exiting due to exit command.
