Info: SIMULATION PARAMETERS:
Info: TIMESTEP               2
Info: NUMBER OF STEPS        0
Info: STEPS PER CYCLE        10
Info: PERIODIC CELL BASIS 1  39.546 0 0
Info: PERIODIC CELL BASIS 2  0 39.115 0
Info: PERIODIC CELL BASIS 3  0 0 39.527
Info: PERIODIC CELL CENTER   0 0 0
Info: WRAPPING WATERS AROUND PERIODIC BOUNDARIES ON OUTPUT.
Info: WRAPPING ALL CLUSTERS AROUND PERIODIC BOUNDARIES ON OUTPUT.
Info: FIRST LDB TIMESTEP     50
Info: LAST LDB TIMESTEP     -1
Info: HOM BACKGROUND SCALING 1
Info: PME BACKGROUND SCALING 1
Info: MIN ATOMS PER PATCH    40
Info: EMPTY PATCH LOAD       40 ATOMS
Info: INITIAL TEMPERATURE    300
Info: CENTER OF MASS MOVING INITIALLY? NO
Info: DIELECTRIC             1
Info: EXCLUDE                SCALED ONE-FOUR
Info: 1-4 ELECTROSTATICS SCALED BY 0.833333
Info: MODIFIED 1-4 VDW PARAMETERS WILL BE USED
Info: DCD FILENAME           mobley_2996632_min.dcd
Info: DCD FREQUENCY          5000
Info: DCD FIRST STEP         5000
Info: DCD FILE WILL CONTAIN UNIT CELL DATA
Info: XST FILENAME           mobley_2996632_min.xst
Info: XST FREQUENCY          5000
Info: NO VELOCITY DCD OUTPUT
Info: NO FORCE DCD OUTPUT
Info: OUTPUT FILENAME        mobley_2996632_min
Info: BINARY OUTPUT FILES WILL BE USED
Info: RESTART FILENAME       mobley_2996632_min.restart
Info: RESTART FREQUENCY      5000
Info: BINARY RESTART FILES WILL BE USED
Info: CUTOFF                 9
Info: PAIRLIST DISTANCE      11
Info: PAIRLIST SHRINK RATE   0.01
Info: PAIRLIST GROW RATE     0.01
Info: PAIRLIST TRIGGER       0.3
Info: PAIRLISTS PER CYCLE    2
Info: PAIRLISTS ENABLED
Info: MARGIN                 8
Info: HYDROGEN GROUP CUTOFF  2.5
Info: PATCH DIMENSION        21.5
Info: ENERGY OUTPUT STEPS    5000
Info: ENERGY EVALUATION STEPS    5000
Info: OUTPUT ENERGY PRECISION 4
Info: CROSSTERM ENERGY INCLUDED IN DIHEDRAL
Info: TIMING OUTPUT STEPS    50000
Info: PRESSURE OUTPUT STEPS  5000
Info: LANGEVIN DYNAMICS ACTIVE
Info: LANGEVIN TEMPERATURE   300
Info: LANGEVIN USING BBK INTEGRATOR
Info: LANGEVIN DAMPING COEFFICIENT IS 1 INVERSE PS
Info: LANGEVIN DYNAMICS APPLIED TO HYDROGENS
Info: LANGEVIN PISTON PRESSURE CONTROL ACTIVE
Info:        TARGET PRESSURE IS 1.01325 BAR
Info:     OSCILLATION PERIOD IS 50 FS
Info:             DECAY TIME IS 25 FS
Info:     PISTON TEMPERATURE IS 300 K
Info:       PRESSURE CONTROL IS GROUP-BASED
Info:    INITIAL STRAIN RATE IS 0 0 0
Info:       CELL FLUCTUATION IS ISOTROPIC
Info: PARTICLE MESH EWALD (PME) ACTIVE
Info: PME TOLERANCE               1e-06
Info: PME EWALD COEFFICIENT       0.348832
Info: PME INTERPOLATION ORDER     4
Info: PME GRID DIMENSIONS         40 40 40
Info: PME MAXIMUM GRID SPACING    1
Info: FULL ELECTROSTATIC EVALUATION FREQUENCY      2
Info: USING VERLET I (r-RESPA) MTS SCHEME.
Info: C1 SPLITTING OF LONG RANGE ELECTROSTATICS
Info: PLACING ATOMS IN PATCHES BY HYDROGEN GROUPS
Info: RIGID BONDS TO HYDROGEN : ALL
Info:         ERROR TOLERANCE : 1e-08
Info:          MAX ITERATIONS : 100
Info: RIGID WATER USING SETTLE ALGORITHM
Info: RANDOM NUMBER SEED     1741324574
Info: USE HYDROGEN BONDS?    NO
Info: Using AMBER format force field!
Info: AMBER PARM FILE        mobley_2996632.prmtop
Info: COORDINATE PDB         mobley_2996632.pdb
Info: Exclusions will be read from PARM file!
Info: SCNB (VDW SCALING)     2
Info: USING ARITHMETIC MEAN TO COMBINE L-J SIGMA PARAMETERS
Info: SUMMARY OF PARAMETERS:
Info: 4 BONDS
Info: 2 ANGLES
Info:   2 HARMONIC
Info:   0 COSINE-BASED
Info: 0 DIHEDRAL
Info: 0 IMPROPER
Info: 0 CROSSTERM
Info: 0 VDW
Info: 15 VDW_PAIRS
Info: 0 NBTHOLE_PAIRS
Info: STRUCTURE SUMMARY:
Info: 4343 ATOMS
Info: 4342 BONDS
Info: 6 ANGLES
Info: 0 DIHEDRALS
Info: 0 IMPROPERS
Info: 0 CROSSTERMS
Info: 4348 EXCLUSIONS
Info: 4339 RIGID BONDS
Info: 8690 DEGREES OF FREEDOM
Info: 1450 HYDROGEN GROUPS
Info: 3 ATOMS IN LARGEST HYDROGEN GROUP
Info: 1450 MIGRATION GROUPS
Info: 3 ATOMS IN LARGEST MIGRATION GROUP
Info: TOTAL MASS = 26170.5 amu
Info: TOTAL CHARGE = -3.72529e-08 e
Info: MASS DENSITY = 0.710774 g/cm^3
Info: ATOM DENSITY = 0.0710314 atoms/A^3
Info: ADDED 0 IMPLICIT EXCLUSIONS
Info: NONBONDED TABLE R-SQUARED SPACING: 0.0625
Info: NONBONDED TABLE SIZE: 705 POINTS
Info: REMOVING COM VELOCITY 0.0584572 0.0245322 0.0412571
TCL: Minimizing for 2000 steps
ETITLE: TS BOND ANGLE DIHED IMPRP ELECT VDW BOUNDARY MISC KINETIC TOTAL TEMP POTENTIAL TOTAL3 TEMPAVG PRESSURE GPRESSURE VOLUME PRESSAVG GPRESSAVG
ENERGY: 0 0.6776 0.1166 0.0000 0.0000 -13418.3182 1552.0310 0.0000 0.0000 0.0000 -11865.4930 0.0000 -11865.4930 -11865.4930 0.0000 10952.6535 -15277.1949 61142.0154 10952.6535 -15277.1949
ENERGY: 400 0.2622 0.4565 0.0000 0.0000 -18676.3201 2940.9610 0.0000 0.0000 0.0000 -15734.6404 0.0000 -15734.6404 -15734.6404 0.0000 16926.6983 17047.8549 61142.0154 16926.6983 17047.8549
ENERGY: 800 0.5621 0.2924 0.0000 0.0000 -19446.7959 3218.0698 0.0000 0.0000 0.0000 -16227.8716 0.0000 -16227.8716 -16227.8716 0.0000 18435.4130 18540.6792 61142.0154 18435.4130 18540.6792
ENERGY: 1200 0.3324 0.2234 0.0000 0.0000 -19842.7575 3406.9245 0.0000 0.0000 0.0000 -16435.2771 0.0000 -16435.2771 -16435.2771 0.0000 19500.0268 19594.5906 61142.0154 19500.0268 19594.5906
ENERGY: 1600 0.1496 0.1439 0.0000 0.0000 -20069.4479 3524.2926 0.0000 0.0000 0.0000 -16544.8618 0.0000 -16544.8618 -16544.8618 0.0000 20102.9203 20183.3584 61142.0154 20102.9203 20183.3584
ENERGY: 2000 0.0079 0.1251 0.0000 0.0000 -20136.2005 3539.6799 0.0000 0.0000 0.0000 -16596.3877 0.0000 -16596.3877 -16596.3877 0.0000 20195.0750 20283.6060 61142.0154 20195.0750 20283.6060
TCL: Exiting due to exit command.
Info: NAMD 3.0.1 for Linux-x86_64-multicore
Info: Please visit http://www.ks.uiuc.edu/Research/namd/
Info: for updates, documentation, and support information.
Info: Please cite Phillips et al., J. Chem. Phys. 153:044130 (2020) doi:10.1063/5.0014475
Info: in all publications reporting results obtained with NAMD.
Info: Based on Charm++/Converse 80000 for multicore-linux-x86_64-gcc
Info: Built Mon Oct 14 11:11:06 CDT 2024 by dhardy on athine.ks.uiuc.edu
Info: 1 NAMD  3.0.1  Linux-x86_64-multicore  16    k135  z5358697
Info: Running on 16 processors, 1 nodes, 1 physical nodes.
Info: CPU topology information available.
Info: Charm++/Converse parallel runtime startup completed at 0.00493115 s
Info: 1043.48 MB of memory in use based on /proc/self/stat
Info: Configuration file is mobley_2996632_equil.namd
Info: Working in the current directory /srv/scratch/z5358697/prod_prep_3/2996632
TCL: Running 25000 steps at 30 kelvin.
TCL: Suspending until startup complete.
Info: SIMULATION PARAMETERS:
Info: TIMESTEP               2
Info: NUMBER OF STEPS        0
Info: STEPS PER CYCLE        10
Info: PERIODIC CELL BASIS 1  39.546 0 0
Info: PERIODIC CELL BASIS 2  0 39.115 0
Info: PERIODIC CELL BASIS 3  0 0 39.527
Info: PERIODIC CELL CENTER   0 0 0
Info: WRAPPING WATERS AROUND PERIODIC BOUNDARIES ON OUTPUT.
Info: WRAPPING ALL CLUSTERS AROUND PERIODIC BOUNDARIES ON OUTPUT.
Info: FIRST LDB TIMESTEP     50
Info: LAST LDB TIMESTEP     -1
Info: HOM BACKGROUND SCALING 1
Info: PME BACKGROUND SCALING 1
Info: MIN ATOMS PER PATCH    40
Info: EMPTY PATCH LOAD       40 ATOMS
Info: INITIAL TEMPERATURE    300
Info: CENTER OF MASS MOVING INITIALLY? NO
Info: DIELECTRIC             1
Info: EXCLUDE                SCALED ONE-FOUR
Info: 1-4 ELECTROSTATICS SCALED BY 0.833333
Info: MODIFIED 1-4 VDW PARAMETERS WILL BE USED
Info: DCD FILENAME           mobley_2996632_equil.dcd
Info: DCD FREQUENCY          5000
Info: DCD FIRST STEP         5000
Info: DCD FILE WILL CONTAIN UNIT CELL DATA
Info: XST FILENAME           mobley_2996632_equil.xst
Info: XST FREQUENCY          5000
Info: NO VELOCITY DCD OUTPUT
Info: NO FORCE DCD OUTPUT
Info: OUTPUT FILENAME        mobley_2996632_equil
Info: BINARY OUTPUT FILES WILL BE USED
Info: RESTART FILENAME       mobley_2996632_equil.restart
Info: RESTART FREQUENCY      5000
Info: BINARY RESTART FILES WILL BE USED
Info: CUTOFF                 9
Info: PAIRLIST DISTANCE      11
Info: PAIRLIST SHRINK RATE   0.01
Info: PAIRLIST GROW RATE     0.01
Info: PAIRLIST TRIGGER       0.3
Info: PAIRLISTS PER CYCLE    2
Info: PAIRLISTS ENABLED
Info: MARGIN                 8
Info: HYDROGEN GROUP CUTOFF  2.5
Info: PATCH DIMENSION        21.5
Info: ENERGY OUTPUT STEPS    5000
Info: ENERGY EVALUATION STEPS    5000
Info: OUTPUT ENERGY PRECISION 4
Info: CROSSTERM ENERGY INCLUDED IN DIHEDRAL
Info: TIMING OUTPUT STEPS    50000
Info: PRESSURE OUTPUT STEPS  5000
Info: LANGEVIN DYNAMICS ACTIVE
Info: LANGEVIN TEMPERATURE   30
Info: LANGEVIN USING BBK INTEGRATOR
Info: LANGEVIN DAMPING COEFFICIENT IS 1 INVERSE PS
Info: LANGEVIN DYNAMICS APPLIED TO HYDROGENS
Info: LANGEVIN PISTON PRESSURE CONTROL ACTIVE
Info:        TARGET PRESSURE IS 1.01325 BAR
Info:     OSCILLATION PERIOD IS 50 FS
Info:             DECAY TIME IS 25 FS
Info:     PISTON TEMPERATURE IS 300 K
Info:       PRESSURE CONTROL IS GROUP-BASED
Info:    INITIAL STRAIN RATE IS 0 0 0
Info:       CELL FLUCTUATION IS ISOTROPIC
Info: PARTICLE MESH EWALD (PME) ACTIVE
Info: PME TOLERANCE               1e-06
Info: PME EWALD COEFFICIENT       0.348832
Info: PME INTERPOLATION ORDER     4
Info: PME GRID DIMENSIONS         40 40 40
Info: PME MAXIMUM GRID SPACING    1
Info: FULL ELECTROSTATIC EVALUATION FREQUENCY      2
Info: USING VERLET I (r-RESPA) MTS SCHEME.
Info: C1 SPLITTING OF LONG RANGE ELECTROSTATICS
Info: PLACING ATOMS IN PATCHES BY HYDROGEN GROUPS
Info: RIGID BONDS TO HYDROGEN : ALL
Info:         ERROR TOLERANCE : 1e-08
Info:          MAX ITERATIONS : 100
Info: RIGID WATER USING SETTLE ALGORITHM
Info: RANDOM NUMBER SEED     1741324589
Info: USE HYDROGEN BONDS?    NO
Info: Using AMBER format force field!
Info: AMBER PARM FILE        mobley_2996632.prmtop
Info: COORDINATE PDB         mobley_2996632.pdb
Info: Exclusions will be read from PARM file!
Info: SCNB (VDW SCALING)     2
Info: USING ARITHMETIC MEAN TO COMBINE L-J SIGMA PARAMETERS
Info: BINARY COORDINATES     mobley_2996632_min.coor
Info: SUMMARY OF PARAMETERS:
Info: 4 BONDS
Info: 2 ANGLES
Info: 0 DIHEDRAL
Info: 0 IMPROPER
Info: 0 CROSSTERM
Info: 0 VDW
Info: 15 VDW_PAIRS
Info: 0 NBTHOLE_PAIRS
Info: STRUCTURE SUMMARY:
Info: 4343 ATOMS
Info: 4342 BONDS
Info: 6 ANGLES
Info: 0 DIHEDRALS
Info: 0 IMPROPERS
Info: 0 CROSSTERMS
Info: 4348 EXCLUSIONS
Info: 4339 RIGID BONDS
Info: 8690 DEGREES OF FREEDOM
Info: 1450 HYDROGEN GROUPS
Info: 3 ATOMS IN LARGEST HYDROGEN GROUP
Info: 1450 MIGRATION GROUPS
Info: 3 ATOMS IN LARGEST MIGRATION GROUP
Info: TOTAL MASS = 26170.5 amu
Info: TOTAL CHARGE = -3.72529e-08 e
Info: MASS DENSITY = 0.710774 g/cm^3
Info: ATOM DENSITY = 0.0710314 atoms/A^3
Info: ADDED 0 IMPLICIT EXCLUSIONS
Info: NONBONDED TABLE R-SQUARED SPACING: 0.0625
Info: NONBONDED TABLE SIZE: 705 POINTS
Info: REMOVING COM VELOCITY -0.137419 -0.0878514 -0.0958412
TCL: Running for 25000 steps
ETITLE: TS BOND ANGLE DIHED IMPRP ELECT VDW BOUNDARY MISC KINETIC TOTAL TEMP POTENTIAL TOTAL3 TEMPAVG PRESSURE GPRESSURE VOLUME PRESSAVG GPRESSAVG
ENERGY: 0 0.0079 0.1251 0.0000 0.0000 -20136.2005 3539.6799 0.0000 0.0000 2605.4024 -13990.9853 301.7487 -16596.3877 -13990.4742 301.7487 451.3956 483.0451 61142.0154 451.3956 483.0451
ENERGY: 5000 0.0142 0.2052 0.0000 0.0000 -20715.5667 3516.4611 0.0000 0.0000 265.4492 -16933.4369 30.7434 -17198.8862 -16932.4274 46.9494 -606.8664 -546.9814 43110.0143 -1.0125 -0.7439
ENERGY: 10000 0.1113 0.2191 0.0000 0.0000 -20950.9965 3711.3052 0.0000 0.0000 263.9255 -16975.4353 30.5669 -17239.3608 -16974.8625 30.3594 400.0702 468.8613 42784.1178 0.9227 0.9957
ENERGY: 15000 0.0093 0.2145 0.0000 0.0000 -21003.2419 3753.8836 0.0000 0.0000 267.2489 -16981.8856 30.9518 -17249.1345 -16981.1518 30.3526 718.7587 759.4872 42645.9915 2.4824 2.3741
ENERGY: 20000 0.1588 0.2425 0.0000 0.0000 -20873.2451 3619.7288 0.0000 0.0000 263.7329 -16989.3821 30.5446 -17253.1150 -16988.4978 30.1901 -112.0852 -66.7112 42919.1728 6.7579 6.7743
ENERGY: 25000 0.0394 0.5022 0.0000 0.0000 -20923.5873 3662.3702 0.0000 0.0000 250.8738 -17009.8016 29.0553 -17260.6754 -17009.1363 29.8545 109.3743 179.1043 42846.9789 2.3352 2.4831
TCL: Running 25000 steps at 60 kelvin.
TCL: Setting parameter langevinTemp to 60
TCL: Running for 25000 steps
ETITLE: TS BOND ANGLE DIHED IMPRP ELECT VDW BOUNDARY MISC KINETIC TOTAL TEMP POTENTIAL TOTAL3 TEMPAVG PRESSURE GPRESSURE VOLUME PRESSAVG GPRESSAVG
ENERGY: 25000 0.0394 0.5022 0.0000 0.0000 -20923.5873 3662.3702 0.0000 0.0000 250.7444 -17009.9310 29.0403 -17260.6754 -17009.4007 29.0403 118.7989 178.9812 42846.9789 118.7989 178.9812
ENERGY: 30000 0.0470 0.6880 0.0000 0.0000 -20455.2842 3441.5954 0.0000 0.0000 519.0161 -16493.9376 60.1107 -17012.9538 -16493.2606 56.7719 -510.4392 -461.1911 43279.7479 3.2339 3.1601
ENERGY: 35000 0.1142 0.2309 0.0000 0.0000 -20499.5185 3452.7265 0.0000 0.0000 513.8144 -16532.6324 59.5082 -17046.4468 -16531.2949 59.9599 -553.3996 -497.4586 43188.2759 4.1879 3.8184
ENERGY: 40000 0.0803 0.3154 0.0000 0.0000 -20599.0015 3530.4463 0.0000 0.0000 503.9330 -16564.2265 58.3638 -17068.1595 -16562.8400 60.1156 -160.5902 -108.9403 43070.0308 -0.0609 -0.0548
ENERGY: 45000 0.1518 0.6030 0.0000 0.0000 -20479.3032 3421.7753 0.0000 0.0000 514.3269 -16542.4462 59.5676 -17056.7731 -16540.7181 59.6083 -700.9526 -633.5863 43011.8070 2.0861 2.1974
ENERGY: 50000 0.0973 0.2942 0.0000 0.0000 -20623.2321 3518.7981 0.0000 0.0000 513.6437 -16590.3988 59.4884 -17104.0426 -16589.1791 60.0464 -283.4196 -225.6506 42916.2951 3.9282 4.0691
TCL: Running 25000 steps at 90 kelvin.
TCL: Setting parameter langevinTemp to 90
TCL: Running for 25000 steps
ETITLE: TS BOND ANGLE DIHED IMPRP ELECT VDW BOUNDARY MISC KINETIC TOTAL TEMP POTENTIAL TOTAL3 TEMPAVG PRESSURE GPRESSURE VOLUME PRESSAVG GPRESSAVG
ENERGY: 50000 0.0973 0.2942 0.0000 0.0000 -20623.2321 3518.7981 0.0000 0.0000 513.3854 -16590.6571 59.4585 -17104.0425 -16589.3581 59.4585 -285.1586 -226.0668 42916.2951 -285.1586 -226.0668
ENERGY: 55000 0.2903 0.5019 0.0000 0.0000 -20275.6121 3446.7388 0.0000 0.0000 797.8369 -16030.2442 92.4027 -16828.0811 -16028.5893 87.1371 170.6982 234.0770 42806.2246 2.8505 2.7042
ENERGY: 60000 0.1865 0.2503 0.0000 0.0000 -20326.3283 3444.4483 0.0000 0.0000 763.9447 -16117.4985 88.4774 -16881.4432 -16116.1133 89.5927 -41.4885 23.2306 42850.4277 6.9669 6.8562
ENERGY: 65000 0.2910 0.5603 0.0000 0.0000 -20258.0550 3334.0192 0.0000 0.0000 781.5057 -16141.6788 90.5113 -16923.1845 -16139.6190 90.2859 -684.5558 -615.8446 42757.5313 2.2715 2.3331
ENERGY: 70000 0.5376 0.5348 0.0000 0.0000 -20424.0939 3483.2675 0.0000 0.0000 765.5244 -16174.2297 88.6604 -16939.7540 -16172.4689 90.0325 154.0790 193.7426 42415.4169 0.2158 0.0571
ENERGY: 75000 0.1086 0.4870 0.0000 0.0000 -20411.5738 3455.8276 0.0000 0.0000 775.3223 -16179.8282 89.7951 -16955.1505 -16178.2470 90.0449 -106.8289 -25.5419 42384.6085 0.3670 0.7140
TCL: Running 25000 steps at 120 kelvin.
TCL: Setting parameter langevinTemp to 120
TCL: Running for 25000 steps
ETITLE: TS BOND ANGLE DIHED IMPRP ELECT VDW BOUNDARY MISC KINETIC TOTAL TEMP POTENTIAL TOTAL3 TEMPAVG PRESSURE GPRESSURE VOLUME PRESSAVG GPRESSAVG
ENERGY: 75000 0.1086 0.4870 0.0000 0.0000 -20411.5738 3455.8276 0.0000 0.0000 774.9284 -16180.2221 89.7495 -16955.1505 -16178.6493 89.7495 -88.0224 -25.6085 42384.6085 -88.0224 -25.6085
ENERGY: 80000 0.3106 0.6533 0.0000 0.0000 -20031.5416 3333.1029 0.0000 0.0000 1044.5040 -15652.9709 120.9708 -16697.4749 -15650.6782 117.6155 -94.0789 -38.0024 42747.6082 1.2313 0.7802
ENERGY: 85000 0.3221 0.5837 0.0000 0.0000 -20069.0981 3333.3604 0.0000 0.0000 1070.8599 -15663.9720 124.0233 -16734.8319 -15660.8886 120.7205 -122.6882 -87.3890 42494.9502 1.4683 1.0687
ENERGY: 90000 0.0885 0.3001 0.0000 0.0000 -20370.0698 3584.8189 0.0000 0.0000 1029.3555 -15755.5068 119.2164 -16784.8623 -15754.0841 120.4778 1181.2166 1249.5588 42013.5995 3.7611 3.9203
ENERGY: 95000 0.7945 0.3805 0.0000 0.0000 -20119.7419 3335.0890 0.0000 0.0000 1018.4797 -15764.9982 117.9568 -16783.4779 -15762.1319 120.3077 -51.1716 -55.8260 42044.6679 11.3311 11.6966
ENERGY: 100000 0.6413 0.7584 0.0000 0.0000 -20170.4724 3345.4439 0.0000 0.0000 1004.7237 -15818.9050 116.3636 -16823.6287 -15817.2814 120.0425 -365.9051 -289.3634 42283.3677 6.2604 6.1923
TCL: Running 25000 steps at 150 kelvin.
TCL: Setting parameter langevinTemp to 150
TCL: Running for 25000 steps
ETITLE: TS BOND ANGLE DIHED IMPRP ELECT VDW BOUNDARY MISC KINETIC TOTAL TEMP POTENTIAL TOTAL3 TEMPAVG PRESSURE GPRESSURE VOLUME PRESSAVG GPRESSAVG
ENERGY: 100000 0.6413 0.7584 0.0000 0.0000 -20170.4724 3345.4439 0.0000 0.0000 1004.2011 -15819.4276 116.3031 -16823.6287 -15817.3082 116.3031 -347.2428 -289.6402 42283.3677 -347.2428 -289.6402
ENERGY: 105000 0.6683 0.2959 0.0000 0.0000 -19543.8066 3047.0326 0.0000 0.0000 1301.9220 -15193.8878 150.7841 -16495.8098 -15190.0798 146.6931 -1237.6300 -1162.1017 42744.1844 2.1901 2.0288
ENERGY: 110000 0.3791 0.2444 0.0000 0.0000 -19802.0851 3295.8050 0.0000 0.0000 1299.6435 -15206.0131 150.5202 -16505.6566 -15202.5099 149.2053 253.7360 301.6421 42258.1656 3.8559 3.5818
ENERGY: 115000 1.4358 0.5687 0.0000 0.0000 -19740.2262 3209.4599 0.0000 0.0000 1301.8606 -15226.9011 150.7770 -16528.7618 -15222.3979 149.7520 -266.9553 -212.7435 42369.4248 -3.3856 -3.8121
ENERGY: 120000 1.9071 0.3927 0.0000 0.0000 -19703.3017 3173.3079 0.0000 0.0000 1276.5372 -15251.1567 147.8441 -16527.6940 -15247.8415 149.9244 -611.4094 -571.5848 42470.1554 8.0101 7.4695
ENERGY: 125000 0.4279 1.0167 0.0000 0.0000 -19758.0693 3220.0252 0.0000 0.0000 1279.7283 -15256.8713 148.2137 -16536.5996 -15252.9281 149.5022 -195.8806 -136.9691 42153.1911 7.5000 7.3707
TCL: Running 50000 steps at 180 kelvin.
TCL: Setting parameter langevinTemp to 180
TCL: Running for 50000 steps
ETITLE: TS BOND ANGLE DIHED IMPRP ELECT VDW BOUNDARY MISC KINETIC TOTAL TEMP POTENTIAL TOTAL3 TEMPAVG PRESSURE GPRESSURE VOLUME PRESSAVG GPRESSAVG
ENERGY: 125000 0.4279 1.0167 0.0000 0.0000 -19758.0693 3220.0252 0.0000 0.0000 1279.1044 -15257.4952 148.1415 -16536.5996 -15254.7535 148.1415 -197.1745 -136.6202 42153.1911 -197.1745 -136.6202
ENERGY: 135000 0.9983 0.5113 0.0000 0.0000 -18970.0238 2896.1990 0.0000 0.0000 1527.1215 -14545.1937 176.8659 -16072.3153 -14539.6713 180.4537 -946.8739 -922.3524 42783.5018 5.0315 4.7513
ENERGY: 145000 0.6765 0.4935 0.0000 0.0000 -19310.3775 3186.4814 0.0000 0.0000 1555.6362 -14567.0900 180.1684 -16122.7261 -14564.1364 180.2982 439.9625 498.6920 42655.1073 7.5152 7.7776
ENERGY: 155000 0.7904 1.7506 0.0000 0.0000 -19402.6663 3131.8528 0.0000 0.0000 1578.2344 -14690.0382 182.7857 -16268.2725 -14686.4676 179.6173 -95.6787 -39.2077 42536.5710 6.1495 6.8558
ENERGY: 165000 0.6368 1.8943 0.0000 0.0000 -19363.2979 3095.3004 0.0000 0.0000 1567.9231 -14697.5433 181.5914 -16265.4664 -14695.6851 180.3926 -319.9576 -228.8455 42650.4971 4.8826 5.5424
ENERGY: 175000 0.2325 0.3948 0.0000 0.0000 -19408.0795 3168.9698 0.0000 0.0000 1537.6607 -14700.8217 178.0866 -16238.4825 -14696.1646 180.3823 44.9885 131.4037 42684.6708 4.1076 4.2574
TCL: Running 50000 steps at 210 kelvin.
TCL: Setting parameter langevinTemp to 210
TCL: Running for 50000 steps
ETITLE: TS BOND ANGLE DIHED IMPRP ELECT VDW BOUNDARY MISC KINETIC TOTAL TEMP POTENTIAL TOTAL3 TEMPAVG PRESSURE GPRESSURE VOLUME PRESSAVG GPRESSAVG
ENERGY: 175000 0.2325 0.3948 0.0000 0.0000 -19408.0795 3168.9698 0.0000 0.0000 1536.8891 -14701.5934 177.9972 -16238.4825 -14698.6355 177.9972 77.6211 133.4519 42684.6708 77.6211 133.4519
ENERGY: 185000 0.5988 0.7087 0.0000 0.0000 -18353.6991 2814.3661 0.0000 0.0000 1800.8539 -13737.1715 208.5687 -15538.0255 -13733.3934 210.4123 -105.7916 -13.3987 42788.4604 4.0477 4.0090
ENERGY: 195000 1.0300 1.0055 0.0000 0.0000 -18207.2102 2702.2550 0.0000 0.0000 1835.5331 -13667.3866 212.5851 -15502.9197 -13662.8817 210.5815 -759.9476 -712.8504 42983.8873 -2.6543 -2.4217
ENERGY: 205000 0.4957 0.2716 0.0000 0.0000 -18376.2530 2899.1885 0.0000 0.0000 1822.0475 -13654.2497 211.0232 -15476.2972 -13652.3420 209.2087 692.5148 778.1537 42176.0925 3.8395 3.3898
ENERGY: 215000 1.9973 1.0569 0.0000 0.0000 -18376.6537 2864.4899 0.0000 0.0000 1824.9457 -13684.1640 211.3589 -15509.1097 -13679.2524 210.9881 416.9844 486.4973 42187.7510 4.5728 4.4587
ENERGY: 225000 0.5131 0.9017 0.0000 0.0000 -18394.8745 2864.8703 0.0000 0.0000 1818.3648 -13710.2246 210.5967 -15528.5894 -13707.3624 209.4675 304.6262 392.1483 42405.6117 8.1171 7.4232
TCL: Running 50000 steps at 240 kelvin.
TCL: Setting parameter langevinTemp to 240
TCL: Running for 50000 steps
ETITLE: TS BOND ANGLE DIHED IMPRP ELECT VDW BOUNDARY MISC KINETIC TOTAL TEMP POTENTIAL TOTAL3 TEMPAVG PRESSURE GPRESSURE VOLUME PRESSAVG GPRESSAVG
ENERGY: 225000 0.5131 0.9017 0.0000 0.0000 -18394.8745 2864.8703 0.0000 0.0000 1817.4566 -13711.1328 210.4915 -15528.5894 -13708.0292 210.4915 302.9931 391.8817 42405.6117 302.9931 391.8817
ENERGY: 235000 0.5651 2.2765 0.0000 0.0000 -17355.6683 2485.8017 0.0000 0.0000 2141.1364 -12725.8886 247.9790 -14867.0250 -12720.9594 240.2177 -77.6875 11.2656 42627.8352 10.6978 10.2275
ENERGY: 245000 2.9918 1.8465 0.0000 0.0000 -17198.6922 2381.1250 0.0000 0.0000 2062.9923 -12749.7365 238.9286 -14812.7288 -12744.4838 238.9022 -696.0652 -634.8464 42723.9908 3.3838 3.1493
ENERGY: 255000 0.1457 1.4518 0.0000 0.0000 -17411.0620 2542.4003 0.0000 0.0000 2120.1220 -12746.9421 245.5452 -14867.0641 -12740.7905 241.1265 -35.0219 80.3430 42922.3066 4.0485 3.9031
ENERGY: 265000 1.9289 1.0783 0.0000 0.0000 -17382.7335 2466.2540 0.0000 0.0000 2097.5909 -12815.8814 242.9357 -14913.4723 -12810.3329 240.2248 -468.7732 -358.9966 42729.4557 4.8214 4.1532
ENERGY: 275000 0.3678 1.6606 0.0000 0.0000 -17577.1117 2615.0710 0.0000 0.0000 2041.5123 -12918.4999 236.4409 -14960.0123 -12914.4367 240.0857 429.1642 513.6157 42297.1112 -0.0155 -0.4393
TCL: Running 50000 steps at 270 kelvin.
TCL: Setting parameter langevinTemp to 270
TCL: Running for 50000 steps
ETITLE: TS BOND ANGLE DIHED IMPRP ELECT VDW BOUNDARY MISC KINETIC TOTAL TEMP POTENTIAL TOTAL3 TEMPAVG PRESSURE GPRESSURE VOLUME PRESSAVG GPRESSAVG
ENERGY: 275000 0.3678 1.6606 0.0000 0.0000 -17577.1117 2615.0710 0.0000 0.0000 2040.5042 -12919.5081 236.3241 -14960.0123 -12916.3969 236.3241 431.2717 514.5426 42297.1112 431.2717 514.5426
ENERGY: 285000 1.0722 0.7997 0.0000 0.0000 -16524.7985 2279.6391 0.0000 0.0000 2384.4716 -11858.8159 276.1613 -14243.2875 -11854.3011 268.9859 -508.1822 -422.7146 44301.6525 5.8218 5.7116
ENERGY: 295000 0.2059 2.1223 0.0000 0.0000 -16546.5071 2269.1890 0.0000 0.0000 2288.7466 -11986.2432 265.0747 -14274.9899 -11981.4133 271.4816 -391.6368 -304.2630 43924.0966 5.0443 5.0777
ENERGY: 305000 1.3125 1.9629 0.0000 0.0000 -16329.2967 2187.6401 0.0000 0.0000 2319.3364 -11819.0447 268.6175 -14138.3811 -11818.1954 270.3568 -527.8152 -441.2856 43952.6383 1.0481 1.2180
ENERGY: 315000 0.2815 0.6680 0.0000 0.0000 -16498.7997 2302.4194 0.0000 0.0000 2390.3448 -11805.0860 276.8415 -14195.4309 -11801.6079 270.9959 290.9966 318.8711 43400.3200 1.7410 1.1217
ENERGY: 325000 2.4961 1.3162 0.0000 0.0000 -16369.3197 2123.9837 0.0000 0.0000 2391.1276 -11850.3962 276.9321 -14241.5238 -11847.1460 269.5174 -952.4846 -862.3708 43508.2113 1.9296 1.2799
TCL: Running 1000000 steps at 300 kelvin.
TCL: Setting parameter langevinTemp to 300
TCL: Running for 1000000 steps
ETITLE: TS BOND ANGLE DIHED IMPRP ELECT VDW BOUNDARY MISC KINETIC TOTAL TEMP POTENTIAL TOTAL3 TEMPAVG PRESSURE GPRESSURE VOLUME PRESSAVG GPRESSAVG
ENERGY: 325000 2.4961 1.3162 0.0000 0.0000 -16369.3197 2123.9837 0.0000 0.0000 2389.9647 -11851.5591 276.7975 -14241.5238 -11846.8367 276.7975 -953.7775 -863.0789 43508.2113 -953.7775 -863.0789
ENERGY: 525000 0.3669 1.2910 0.0000 0.0000 -15771.2368 2119.6788 0.0000 0.0000 2557.4392 -11092.4609 296.1938 -13649.9001 -11086.7148 298.3398 -325.9807 -220.2528 46053.9080 -1.9069 -1.9189
ENERGY: 725000 0.4726 1.0605 0.0000 0.0000 -15917.0102 2184.3020 0.0000 0.0000 2623.7683 -11107.4069 303.8758 -13731.1751 -11100.9553 301.1043 410.7983 514.4531 44162.2874 0.7858 0.6001
ENERGY: 925000 0.7116 1.8745 0.0000 0.0000 -15717.2231 2068.8802 0.0000 0.0000 2565.7823 -11079.9745 297.1600 -13645.7568 -11074.1877 301.0254 -180.4203 -98.3487 44662.0547 -0.3382 -0.2685
ENERGY: 1125000 1.5372 2.7392 0.0000 0.0000 -15668.7853 2059.1436 0.0000 0.0000 2602.9388 -11002.4265 301.4634 -13605.3653 -10998.0184 300.5187 -145.2197 -81.7339 44755.4991 3.9028 3.6058
ENERGY: 1325000 1.2990 1.2692 0.0000 0.0000 -15753.2615 2045.7277 0.0000 0.0000 2594.1080 -11110.8576 300.4406 -13704.9656 -11104.7048 300.8843 -531.7905 -464.6722 44956.6298 0.7985 0.9361
TCL: Exiting due to exit command.
