Info: SIMULATION PARAMETERS:
Info: TIMESTEP               2
Info: NUMBER OF STEPS        0
Info: STEPS PER CYCLE        10
Info: PERIODIC CELL BASIS 1  30.8184 0 0
Info: PERIODIC CELL BASIS 2  0 31.5768 0
Info: PERIODIC CELL BASIS 3  0 0 31.398
Info: PERIODIC CELL CENTER   0 0 0
Info: WRAPPING WATERS AROUND PERIODIC BOUNDARIES ON OUTPUT.
Info: WRAPPING ALL CLUSTERS AROUND PERIODIC BOUNDARIES ON OUTPUT.
Info: FIRST LDB TIMESTEP     50
Info: LAST LDB TIMESTEP     -1
Info: HOM BACKGROUND SCALING 1
Info: PME BACKGROUND SCALING 1
Info: MIN ATOMS PER PATCH    40
Info: EMPTY PATCH LOAD       40 ATOMS
Info: VELOCITY FILE          mobley_8191186_equil.vel
Info: CENTER OF MASS MOVING INITIALLY? NO
Info: DIELECTRIC             1
Info: EXCLUDE                SCALED ONE-FOUR
Info: 1-4 ELECTROSTATICS SCALED BY 0.833333
Info: MODIFIED 1-4 VDW PARAMETERS WILL BE USED
Info: DCD FILENAME           mobley_8191186_prod.dcd
Info: DCD FREQUENCY          100000
Info: DCD FIRST STEP         100000
Info: DCD FILE WILL CONTAIN UNIT CELL DATA
Info: XST FILENAME           mobley_8191186_prod.xst
Info: XST FREQUENCY          100000
Info: NO VELOCITY DCD OUTPUT
Info: NO FORCE DCD OUTPUT
Info: OUTPUT FILENAME        mobley_8191186_prod
Info: BINARY OUTPUT FILES WILL BE USED
Info: RESTART FILENAME       mobley_8191186_prod.restart
Info: RESTART FREQUENCY      100000
Info: BINARY RESTART FILES WILL BE USED
Info: CUTOFF                 9
Info: PAIRLIST DISTANCE      11
Info: PAIRLIST SHRINK RATE   0.01
Info: PAIRLIST GROW RATE     0.01
Info: PAIRLIST TRIGGER       0.3
Info: PAIRLISTS PER CYCLE    2
Info: PAIRLISTS ENABLED
Info: MARGIN                 2
Info: HYDROGEN GROUP CUTOFF  2.5
Info: PATCH DIMENSION        15.5
Info: ENERGY OUTPUT STEPS    100000
Info: ENERGY EVALUATION STEPS    100000
Info: OUTPUT ENERGY PRECISION 4
Info: CROSSTERM ENERGY INCLUDED IN DIHEDRAL
Info: TIMING OUTPUT STEPS    1000000
Info: PRESSURE OUTPUT STEPS  100000
Info: ALCHEMICAL FEP ON
Info: FEP CURRENT LAMBDA VALUE     1
Info: FEP COMPARISON LAMBDA VALUE  0.95
Info: FEP INTRA-ALCHEMICAL NON-BONDED INTERACTIONS WILL BE RETAINED
Info: FEP INTRA-ALCHEMICAL BONDED INTERACTIONS WILL BE RETAINED
Info: FEP VDW SHIFTING COEFFICIENT 5
Info: FEP ELEC. ACTIVE FOR ANNIHILATED PARTICLES BETWEEN LAMBDA = 0 AND LAMBDA = 0.5
Info: FEP ELEC. ACTIVE FOR EXNIHILATED PARTICLES BETWEEN LAMBDA = 0.5 AND LAMBDA = 1
Info: FEP VDW ACTIVE FOR ANNIHILATED PARTICLES BETWEEN LAMBDA = 0 AND LAMBDA = 1
Info: FEP VDW ACTIVE FOR EXNIHILATED PARTICLES BETWEEN LAMBDA = 0 AND LAMBDA = 1
Info: FEP BOND ACTIVE FOR ANNIHILATED PARTICLES BETWEEN LAMBDA = 1 AND LAMBDA = 1
Info: FEP BOND ACTIVE FOR EXNIHILATED PARTICLES BETWEEN LAMBDA = 0 AND LAMBDA = 0
Info: LANGEVIN DYNAMICS ACTIVE
Info: LANGEVIN TEMPERATURE   300
Info: LANGEVIN USING BBK INTEGRATOR
Info: LANGEVIN DAMPING COEFFICIENT IS 1 INVERSE PS
Info: LANGEVIN DYNAMICS APPLIED TO HYDROGENS
Info: LANGEVIN PISTON PRESSURE CONTROL ACTIVE
Info:        TARGET PRESSURE IS 1.01325 BAR
Info:     OSCILLATION PERIOD IS 50 FS
Info:             DECAY TIME IS 25 FS
Info:     PISTON TEMPERATURE IS 300 K
Info:       PRESSURE CONTROL IS GROUP-BASED
Info:    INITIAL STRAIN RATE IS 0.00049947 0.00049947 0.00049947
Info:       CELL FLUCTUATION IS ISOTROPIC
Info: PARTICLE MESH EWALD (PME) ACTIVE
Info: PME TOLERANCE               1e-06
Info: PME EWALD COEFFICIENT       0.348832
Info: PME INTERPOLATION ORDER     4
Info: PME GRID DIMENSIONS         32 32 32
Info: PME MAXIMUM GRID SPACING    1
Info: PME CALCULATION WILL BE PERFORMED ON GPU
Info: FULL ELECTROSTATIC EVALUATION FREQUENCY      2
Info: USING VERLET I (r-RESPA) MTS SCHEME.
Info: C1 SPLITTING OF LONG RANGE ELECTROSTATICS
Info: PLACING ATOMS IN PATCHES BY HYDROGEN GROUPS
Info: RIGID BONDS TO HYDROGEN : ALL
Info:         ERROR TOLERANCE : 1e-08
Info:          MAX ITERATIONS : 100
Info: RIGID WATER USING SETTLE ALGORITHM
Info: RANDOM NUMBER SEED     1742103877
Info: USE HYDROGEN BONDS?    NO
Info: Using AMBER format force field!
Info: AMBER PARM FILE        mobley_8191186.prmtop
Info: COORDINATE PDB         mobley_8191186.pdb
Info: Exclusions will be read from PARM file!
Info: SCNB (VDW SCALING)     2
Info: USING ARITHMETIC MEAN TO COMBINE L-J SIGMA PARAMETERS
Info: BINARY COORDINATES     mobley_8191186_equil.coor
Info: SUMMARY OF PARAMETERS:
Info: 6 BONDS
Info: 6 ANGLES
Info:   6 HARMONIC
Info:   0 COSINE-BASED
Info: 3 DIHEDRAL
Info: 0 IMPROPER
Info: 0 CROSSTERM
Info: 0 VDW
Info: 21 VDW_PAIRS
Info: 0 NBTHOLE_PAIRS
Info: To read alchdata from file: mobley_8191186.pdb
Info: To read alchflag data from column: 5
Info: STRUCTURE SUMMARY:
Info: 2948 ATOMS
Info: 2947 BONDS
Info: 12 ANGLES
Info: 15 DIHEDRALS
Info: 0 IMPROPERS
Info: 0 CROSSTERMS
Info: 2968 EXCLUSIONS
Info: 2942 RIGID BONDS
Info: ALCH: 0 ATOMS TO DISAPPEAR IN FINAL STATE
Info: ALCH: 8 ATOMS TO APPEAR IN FINAL STATE
Info: 5902 DEGREES OF FREEDOM
Info: 986 HYDROGEN GROUPS
Info: 3 ATOMS IN LARGEST HYDROGEN GROUP
Info: 986 MIGRATION GROUPS
Info: 3 ATOMS IN LARGEST MIGRATION GROUP
Info: TOTAL MASS = 17774.2 amu
Info: TOTAL CHARGE = 9.99831e-05 e
Info: MASS DENSITY = 0.965978 g/cm^3
Info: ATOM DENSITY = 0.096482 atoms/A^3
Info: ADDED 0 IMPLICIT EXCLUSIONS
Info: NONBONDED TABLE R-SQUARED SPACING: 0.0625
Info: NONBONDED TABLE SIZE: 705 POINTS
Info: REMOVING COM VELOCITY -0.0284896 -0.0816197 0.0152112
Info: Use 3D box decompostion in PME FFT.
Info: Updated CUDA force table with 4096 elements.
Info: Updated CUDA LJ table with 6 x 6 elements.
Info: Found 11 unique exclusion lists needing 16 bytes
TCL: Running for 1500000 steps
ETITLE: TS BOND ANGLE DIHED IMPRP ELECT VDW BOUNDARY MISC KINETIC TOTAL TEMP POTENTIAL TOTALAVG TEMPAVG PRESSURE GPRESSURE VOLUME PRESSAVG GPRESSAVG
ENERGY: 0 1.7951 4.1675 1.1392 0.0000 -10705.0267 1453.7346 0.0000 0.0000 1795.9996 -7448.1906 306.2650 -9244.1903 -7448.1906 306.2650 84.6877 167.2966 30554.9162 84.6877 167.2966
ENERGY: 300000 0.2483 4.6758 1.3125 0.0000 -10583.8889 1359.9759 0.0000 0.0000 1737.4270 -7480.2495 296.2769 -9217.6765 -7482.9774 301.7220 -529.9832 -457.1381 30660.6728 -256.2749 -178.7347
ENERGY: 600000 0.5120 3.1558 1.1836 0.0000 -10549.1462 1313.5624 0.0000 0.0000 1765.6505 -7465.0819 301.0897 -9230.7324 -7501.0503 299.7179 -1047.6801 -971.2710 30817.4650 -244.8784 -170.1664
ENERGY: 900000 1.3151 1.9556 1.4496 0.0000 -10574.4033 1396.7692 0.0000 0.0000 1768.3006 -7404.6133 301.5416 -9172.9139 -7495.6495 298.5341 -106.6529 -45.3510 30600.3953 -185.6045 -119.4587
ENERGY: 1200000 0.8366 2.9730 1.1790 0.0000 -10831.2474 1466.8373 0.0000 0.0000 1769.0193 -7590.4021 301.6642 -9359.4215 -7508.0541 299.0863 -80.0399 -21.8561 30623.8028 -52.1913 13.9734
ENERGY: 1500000 2.6777 1.6875 1.9804 0.0000 -10639.0382 1414.3117 0.0000 0.0000 1756.4300 -7461.9509 299.5174 -9218.3809 -7497.6072 299.3037 -96.4996 -65.9156 30567.1372 -104.8193 -47.8274
TCL: Running FEP window   2: Lambda1 0.95   Lambda2 0.8999999999999999 [dLambda -0.050000000000000044]
TCL: Setting parameter firsttimestep to 0
TCL: Setting parameter alchLambda to 0.95
Info: NONBONDED TABLE R-SQUARED SPACING: 0.0625
Info: NONBONDED TABLE SIZE: 705 POINTS
TCL: Setting parameter alchLambda2 to 0.8999999999999999
Info: NONBONDED TABLE R-SQUARED SPACING: 0.0625
Info: NONBONDED TABLE SIZE: 705 POINTS
TCL: Running for 1500000 steps
ETITLE: TS BOND ANGLE DIHED IMPRP ELECT VDW BOUNDARY MISC KINETIC TOTAL TEMP POTENTIAL TOTALAVG TEMPAVG PRESSURE GPRESSURE VOLUME PRESSAVG GPRESSAVG
ENERGY: 0 2.6777 1.6875 1.9804 0.0000 -10638.4771 1413.8654 0.0000 0.0000 1755.5189 -7462.7473 299.3620 -9218.2662 -7462.7473 299.3620 -154.0026 -81.3396 30567.1372 -154.0026 -81.3396
ENERGY: 300000 0.5829 3.3919 1.4418 0.0000 -10720.4358 1402.5906 0.0000 0.0000 1761.2730 -7551.1556 300.3432 -9312.4287 -7469.0380 300.4530 -359.9234 -293.0708 30275.7137 -207.8136 -163.2451
ENERGY: 600000 0.6291 4.0833 1.6295 0.0000 -10745.1903 1515.2567 0.0000 0.0000 1708.6207 -7514.9710 291.3646 -9223.5917 -7509.1910 299.0737 568.6463 657.9782 30402.2170 -110.2013 -40.3299
ENERGY: 900000 3.4946 2.4637 1.1675 0.0000 -10708.5198 1417.5152 0.0000 0.0000 1752.2005 -7531.6783 298.7961 -9283.8788 -7491.0109 300.2032 -255.2850 -226.6165 30463.3489 -91.1735 -29.7602
ENERGY: 1200000 0.8996 2.7328 1.2866 0.0000 -10681.2653 1382.1132 0.0000 0.0000 1767.5637 -7526.6694 301.4160 -9294.2331 -7496.6501 301.1325 -574.9625 -483.0931 30756.4859 -97.1343 -27.0443
ENERGY: 1500000 1.9483 5.0719 1.2883 0.0000 -10736.1532 1462.6804 0.0000 0.0000 1747.9747 -7517.1896 298.0755 -9265.1643 -7497.1032 300.7522 464.0807 594.4225 29658.8019 15.7421 88.0724
TCL: Running FEP window   3: Lambda1 0.8999999999999999 Lambda2 0.8499999999999999 [dLambda -0.050000000000000044]
TCL: Setting parameter firsttimestep to 0
TCL: Setting parameter alchLambda to 0.8999999999999999
Info: NONBONDED TABLE R-SQUARED SPACING: 0.0625
Info: NONBONDED TABLE SIZE: 705 POINTS
TCL: Setting parameter alchLambda2 to 0.8499999999999999
Info: NONBONDED TABLE R-SQUARED SPACING: 0.0625
Info: NONBONDED TABLE SIZE: 705 POINTS
TCL: Running for 1500000 steps
ETITLE: TS BOND ANGLE DIHED IMPRP ELECT VDW BOUNDARY MISC KINETIC TOTAL TEMP POTENTIAL TOTALAVG TEMPAVG PRESSURE GPRESSURE VOLUME PRESSAVG GPRESSAVG
ENERGY: 0 1.9483 5.0719 1.2883 0.0000 -10735.4490 1462.6754 0.0000 0.0000 1747.1136 -7517.3514 297.9287 -9264.4650 -7517.3514 297.9287 495.6109 584.5697 29658.8019 495.6109 584.5697
ENERGY: 300000 0.6724 2.3852 1.1588 0.0000 -10722.7681 1437.5493 0.0000 0.0000 1721.4603 -7559.5420 293.5541 -9281.0023 -7529.3798 294.5670 -23.4992 1.5217 30003.7136 -46.6614 3.6383
ENERGY: 600000 1.4672 3.1087 1.2462 0.0000 -10751.3473 1461.4904 0.0000 0.0000 1734.1023 -7549.9325 295.7099 -9284.0348 -7542.3251 296.1842 223.9699 308.3353 30146.7227 144.0434 197.4762
ENERGY: 900000 0.9293 5.9023 1.2716 0.0000 -10639.9135 1429.6152 0.0000 0.0000 1751.0621 -7451.1330 298.6020 -9202.1951 -7532.3773 297.3113 340.4135 403.5254 30133.1373 264.0558 319.3771
ENERGY: 1200000 1.7954 3.5047 1.8122 0.0000 -10631.9456 1376.9567 0.0000 0.0000 1724.6427 -7523.2339 294.0968 -9247.8766 -7533.7701 297.5165 -583.9255 -581.7437 30661.0483 255.6883 313.5851
ENERGY: 1500000 2.6956 4.5753 1.2490 0.0000 -10760.3015 1447.0361 0.0000 0.0000 1797.4348 -7507.3107 306.5098 -9304.7455 -7524.1351 298.4538 4.6373 60.5521 30195.7039 113.1317 174.0258
TCL: Running FEP window   4: Lambda1 0.8499999999999999 Lambda2 0.7999999999999998 [dLambda -0.050000000000000044]
TCL: Setting parameter firsttimestep to 0
TCL: Setting parameter alchLambda to 0.8499999999999999
Info: NONBONDED TABLE R-SQUARED SPACING: 0.0625
Info: NONBONDED TABLE SIZE: 705 POINTS
TCL: Setting parameter alchLambda2 to 0.7999999999999998
Info: NONBONDED TABLE R-SQUARED SPACING: 0.0625
Info: NONBONDED TABLE SIZE: 705 POINTS
TCL: Running for 1500000 steps
ETITLE: TS BOND ANGLE DIHED IMPRP ELECT VDW BOUNDARY MISC KINETIC TOTAL TEMP POTENTIAL TOTALAVG TEMPAVG PRESSURE GPRESSURE VOLUME PRESSAVG GPRESSAVG
ENERGY: 0 2.6956 4.5753 1.2490 0.0000 -10759.8108 1446.8344 0.0000 0.0000 1796.5070 -7507.9495 306.3516 -9304.4565 -7507.9495 306.3516 -30.5393 50.8217 30195.7039 -30.5393 50.8217
ENERGY: 300000 2.1874 4.1689 1.1826 0.0000 -10625.0735 1363.6752 0.0000 0.0000 1810.4353 -7443.4242 308.7267 -9253.8595 -7505.4227 301.6851 -707.8036 -619.4802 30579.4964 -119.1982 -42.0811
ENERGY: 600000 2.9272 3.4633 1.1417 0.0000 -10668.5986 1415.6261 0.0000 0.0000 1817.0728 -7428.3674 309.8586 -9245.4403 -7482.3987 303.7554 -100.5794 -3.5807 30147.2603 -109.4629 -27.4616
ENERGY: 900000 3.2233 4.4561 1.7558 0.0000 -10770.1793 1489.7124 0.0000 0.0000 1760.7187 -7510.3130 300.2487 -9271.0317 -7481.7352 303.2405 529.3151 570.0954 30096.2306 -78.2902 -7.4382
ENERGY: 1200000 3.1008 3.5451 1.1748 0.0000 -10766.7078 1422.8037 0.0000 0.0000 1800.4291 -7535.6544 307.0204 -9336.0834 -7495.1723 303.6694 -545.6824 -511.8357 30780.8253 -51.6427 9.8017
ENERGY: 1500000 1.3624 3.5287 1.2476 0.0000 -10631.2567 1382.2165 0.0000 0.0000 1778.4054 -7464.4962 303.2648 -9242.9015 -7489.8684 303.9299 -334.7821 -219.2109 30442.0284 -70.3914 -0.1988
TCL: Running FEP window   5: Lambda1 0.7999999999999998 Lambda2 0.7499999999999998 [dLambda -0.050000000000000044]
TCL: Setting parameter firsttimestep to 0
TCL: Setting parameter alchLambda to 0.7999999999999998
Info: NONBONDED TABLE R-SQUARED SPACING: 0.0625
Info: NONBONDED TABLE SIZE: 705 POINTS
TCL: Setting parameter alchLambda2 to 0.7499999999999998
Info: NONBONDED TABLE R-SQUARED SPACING: 0.0625
Info: NONBONDED TABLE SIZE: 705 POINTS
TCL: Running for 1500000 steps
ETITLE: TS BOND ANGLE DIHED IMPRP ELECT VDW BOUNDARY MISC KINETIC TOTAL TEMP POTENTIAL TOTALAVG TEMPAVG PRESSURE GPRESSURE VOLUME PRESSAVG GPRESSAVG
ENERGY: 0 1.3624 3.5287 1.2476 0.0000 -10630.9339 1382.0219 0.0000 0.0000 1777.5631 -7465.2101 303.1211 -9242.7733 -7465.2101 303.1211 -323.8294 -230.5383 30442.0284 -323.8294 -230.5383
ENERGY: 300000 3.7196 4.6244 1.1444 0.0000 -10709.1120 1391.6552 0.0000 0.0000 1812.0329 -7495.9356 308.9991 -9307.9685 -7480.0038 303.6756 -580.7290 -526.9869 30649.2424 -242.4551 -192.9688
ENERGY: 600000 0.8315 2.5788 1.1998 0.0000 -10651.5102 1377.8433 0.0000 0.0000 1754.4661 -7514.5906 299.1825 -9269.0567 -7476.1009 302.4469 -638.9435 -637.2838 30622.9298 -338.6314 -292.5193
ENERGY: 900000 1.0846 2.1115 1.1688 0.0000 -10452.8130 1305.1758 0.0000 0.0000 1829.3202 -7313.9522 311.9471 -9143.2724 -7457.7423 303.0923 -872.9589 -805.1417 31032.3677 -347.0428 -294.0543
ENERGY: 1200000 1.3396 2.3410 1.4700 0.0000 -10704.3914 1446.4475 0.0000 0.0000 1779.0291 -7473.7643 303.3711 -9252.7933 -7469.9164 302.6184 188.8969 254.9860 30497.2120 -208.9155 -153.2973
ENERGY: 1500000 0.8969 3.0826 1.1500 0.0000 -10856.1943 1440.2295 0.0000 0.0000 1810.0338 -7600.8015 308.6582 -9410.8353 -7478.0963 302.1309 -516.4291 -484.7660 30790.6990 -221.3119 -170.9299
TCL: Running FEP window   6: Lambda1 0.7499999999999998 Lambda2 0.6999999999999997 [dLambda -0.050000000000000044]
TCL: Setting parameter firsttimestep to 0
TCL: Setting parameter alchLambda to 0.7499999999999998
Info: NONBONDED TABLE R-SQUARED SPACING: 0.0625
Info: NONBONDED TABLE SIZE: 705 POINTS
TCL: Setting parameter alchLambda2 to 0.6999999999999997
Info: NONBONDED TABLE R-SQUARED SPACING: 0.0625
Info: NONBONDED TABLE SIZE: 705 POINTS
TCL: Running for 1500000 steps
ETITLE: TS BOND ANGLE DIHED IMPRP ELECT VDW BOUNDARY MISC KINETIC TOTAL TEMP POTENTIAL TOTALAVG TEMPAVG PRESSURE GPRESSURE VOLUME PRESSAVG GPRESSAVG
ENERGY: 0 0.8969 3.0826 1.1500 0.0000 -10855.7667 1440.3360 0.0000 0.0000 1809.1719 -7601.1293 308.5113 -9410.3012 -7601.1293 308.5113 -549.6500 -487.1958 30790.6990 -549.6500 -487.1958
ENERGY: 300000 2.7926 3.3069 1.9524 0.0000 -10685.6839 1470.3529 0.0000 0.0000 1786.0147 -7421.2642 304.5624 -9207.2789 -7517.9633 304.9670 289.5262 373.3404 30530.4272 -310.6181 -236.0018
ENERGY: 600000 3.1086 4.5582 1.2006 0.0000 -10728.9874 1447.8638 0.0000 0.0000 1746.5294 -7525.7268 297.8291 -9272.2562 -7504.3542 300.8664 -152.5240 -82.4989 30646.0878 -313.9733 -248.2004
ENERGY: 900000 0.2133 2.6737 1.4038 0.0000 -10781.8570 1502.1866 0.0000 0.0000 1760.2815 -7515.0981 300.1742 -9275.3796 -7509.9318 299.8034 557.0330 571.9065 30248.6208 -187.6473 -124.5493
ENERGY: 1200000 1.3499 1.7262 1.1530 0.0000 -10637.6795 1406.1245 0.0000 0.0000 1774.1441 -7453.1818 302.5381 -9227.3259 -7506.3496 300.1389 -344.1818 -220.2774 30619.2323 -135.3635 -68.8806
ENERGY: 1500000 1.3177 5.0208 1.3154 0.0000 -10797.6949 1438.9980 0.0000 0.0000 1762.9952 -7588.0479 300.6369 -9351.0431 -7513.6127 299.6008 -321.2220 -240.7147 30550.2888 -131.6962 -67.0241
TCL: Running FEP window   7: Lambda1 0.6999999999999997 Lambda2 0.6499999999999997 [dLambda -0.050000000000000044]
TCL: Setting parameter firsttimestep to 0
TCL: Setting parameter alchLambda to 0.6999999999999997
Info: NONBONDED TABLE R-SQUARED SPACING: 0.0625
Info: NONBONDED TABLE SIZE: 705 POINTS
TCL: Setting parameter alchLambda2 to 0.6499999999999997
Info: NONBONDED TABLE R-SQUARED SPACING: 0.0625
Info: NONBONDED TABLE SIZE: 705 POINTS
TCL: Running for 1500000 steps
ETITLE: TS BOND ANGLE DIHED IMPRP ELECT VDW BOUNDARY MISC KINETIC TOTAL TEMP POTENTIAL TOTALAVG TEMPAVG PRESSURE GPRESSURE VOLUME PRESSAVG GPRESSAVG
ENERGY: 0 1.3177 5.0208 1.3154 0.0000 -10797.3122 1439.0449 0.0000 0.0000 1762.1494 -7588.4641 300.4927 -9350.6135 -7588.4641 300.4927 -337.4026 -245.9941 30550.2888 -337.4026 -245.9941
ENERGY: 300000 1.2792 1.5860 1.2695 0.0000 -10594.6191 1374.9389 0.0000 0.0000 1757.0857 -7458.4598 299.6292 -9215.5455 -7507.0477 301.0330 -573.0561 -456.6759 30543.9136 -451.2861 -371.8646
ENERGY: 600000 1.9241 3.4535 1.1579 0.0000 -10643.5582 1409.1745 0.0000 0.0000 1810.1074 -7417.7408 308.6708 -9227.8483 -7512.8679 301.2780 -231.1328 -169.6409 30543.7045 -209.2302 -148.8439
ENERGY: 900000 1.8248 3.9787 1.1624 0.0000 -10741.4992 1352.9640 0.0000 0.0000 1728.0936 -7653.4756 294.6853 -9381.5693 -7532.0926 299.6894 -963.8602 -954.2154 30071.3370 -338.5834 -280.7722
ENERGY: 1200000 1.2269 1.8054 1.1626 0.0000 -10708.6649 1486.0514 0.0000 0.0000 1767.0025 -7451.4160 301.3203 -9218.4185 -7518.1849 300.0793 707.6154 749.0142 29874.2125 -123.2403 -65.4147
ENERGY: 1500000 1.1563 2.4065 1.2583 0.0000 -10803.1958 1454.8787 0.0000 0.0000 1793.2793 -7550.2168 305.8011 -9343.4961 -7515.6148 300.7024 -270.6333 -191.8390 30578.7494 -153.1151 -95.1998
TCL: Running FEP window   8: Lambda1 0.6499999999999997 Lambda2 0.5999999999999996 [dLambda -0.050000000000000044]
TCL: Setting parameter firsttimestep to 0
TCL: Setting parameter alchLambda to 0.6499999999999997
Info: NONBONDED TABLE R-SQUARED SPACING: 0.0625
Info: NONBONDED TABLE SIZE: 705 POINTS
TCL: Setting parameter alchLambda2 to 0.5999999999999996
Info: NONBONDED TABLE R-SQUARED SPACING: 0.0625
Info: NONBONDED TABLE SIZE: 705 POINTS
TCL: Running for 1500000 steps
ETITLE: TS BOND ANGLE DIHED IMPRP ELECT VDW BOUNDARY MISC KINETIC TOTAL TEMP POTENTIAL TOTALAVG TEMPAVG PRESSURE GPRESSURE VOLUME PRESSAVG GPRESSAVG
ENERGY: 0 1.1563 2.4065 1.2583 0.0000 -10802.8828 1455.1184 0.0000 0.0000 1792.4237 -7550.5196 305.6552 -9342.9433 -7550.5196 305.6552 -276.0482 -192.3574 30578.7494 -276.0482 -192.3574
ENERGY: 300000 0.5810 2.1000 1.2337 0.0000 -10547.4046 1335.8610 0.0000 0.0000 1725.1626 -7482.4662 294.1855 -9207.6289 -7509.3069 299.5035 -733.9389 -638.4723 30793.1182 -49.3044 44.9209
ENERGY: 600000 1.7160 3.7383 1.1785 0.0000 -10756.6302 1527.7848 0.0000 0.0000 1730.9173 -7491.2952 295.1668 -9222.2125 -7493.9888 300.5842 1002.6260 1044.6146 29907.0183 26.0449 95.7783
ENERGY: 900000 0.6038 2.2808 1.2375 0.0000 -10828.7119 1468.0699 0.0000 0.0000 1816.9721 -7539.5478 309.8414 -9356.5199 -7487.0378 302.8631 -71.4439 -33.0485 30464.6016 -0.4635 66.9396
ENERGY: 1200000 1.9381 2.8401 1.1370 0.0000 -10712.1724 1458.0665 0.0000 0.0000 1742.8201 -7505.3706 297.1965 -9248.1906 -7478.8235 302.7632 353.5538 381.0813 30017.0753 -7.1669 50.7798
ENERGY: 1500000 0.1831 3.9043 1.3305 0.0000 -10588.6401 1383.4049 0.0000 0.0000 1737.0143 -7462.8030 296.2065 -9199.8173 -7489.6632 301.7050 -216.3817 -229.6113 30667.6226 43.3458 102.0158
TCL: Running FEP window   9: Lambda1 0.5999999999999996 Lambda2 0.5499999999999996 [dLambda -0.050000000000000044]
TCL: Setting parameter firsttimestep to 0
TCL: Setting parameter alchLambda to 0.5999999999999996
Info: NONBONDED TABLE R-SQUARED SPACING: 0.0625
Info: NONBONDED TABLE SIZE: 705 POINTS
TCL: Setting parameter alchLambda2 to 0.5499999999999996
Info: NONBONDED TABLE R-SQUARED SPACING: 0.0625
Info: NONBONDED TABLE SIZE: 705 POINTS
TCL: Running for 1500000 steps
ETITLE: TS BOND ANGLE DIHED IMPRP ELECT VDW BOUNDARY MISC KINETIC TOTAL TEMP POTENTIAL TOTALAVG TEMPAVG PRESSURE GPRESSURE VOLUME PRESSAVG GPRESSAVG
ENERGY: 0 0.1831 3.9043 1.3305 0.0000 -10588.1525 1383.6126 0.0000 0.0000 1736.1391 -7462.9830 296.0572 -9199.1221 -7462.9830 296.0572 -324.2072 -236.3769 30667.6226 -324.2072 -236.3769
ENERGY: 300000 4.5390 2.7412 1.4713 0.0000 -10690.2879 1392.6510 0.0000 0.0000 1753.6064 -7535.2791 299.0359 -9288.8855 -7521.0428 299.6726 -409.0060 -379.0453 30247.8330 -341.9296 -286.6627
ENERGY: 600000 1.3338 3.2977 1.3489 0.0000 -10814.2611 1470.4017 0.0000 0.0000 1745.6496 -7592.2294 297.6790 -9337.8790 -7541.0194 299.0186 -50.6634 14.2181 30550.5852 -156.6596 -100.0765
ENERGY: 900000 1.7441 3.4649 1.2292 0.0000 -10742.2890 1420.4658 0.0000 0.0000 1709.5041 -7605.8809 291.5153 -9315.3850 -7527.5699 298.9924 -282.7057 -224.4617 30137.0953 -102.0127 -40.2987
ENERGY: 1200000 1.7968 2.8471 1.1641 0.0000 -10571.4467 1366.9118 0.0000 0.0000 1812.0342 -7386.6927 308.9994 -9198.7269 -7511.7359 299.6345 -481.5216 -434.9643 31006.6588 -151.3901 -90.4290
ENERGY: 1500000 2.8004 5.6491 1.4333 0.0000 -10717.5524 1430.2767 0.0000 0.0000 1799.8595 -7477.5334 306.9233 -9277.3929 -7507.1104 300.0467 164.9630 261.0412 29709.5079 -66.1100 2.4641
TCL: Running FEP window  10: Lambda1 0.5499999999999996 Lambda2 0.4999999999999996 [dLambda -0.04999999999999999]
TCL: Setting parameter firsttimestep to 0
TCL: Setting parameter alchLambda to 0.5499999999999996
Info: NONBONDED TABLE R-SQUARED SPACING: 0.0625
Info: NONBONDED TABLE SIZE: 705 POINTS
TCL: Setting parameter alchLambda2 to 0.4999999999999996
Info: NONBONDED TABLE R-SQUARED SPACING: 0.0625
Info: NONBONDED TABLE SIZE: 705 POINTS
TCL: Running for 1500000 steps
ETITLE: TS BOND ANGLE DIHED IMPRP ELECT VDW BOUNDARY MISC KINETIC TOTAL TEMP POTENTIAL TOTALAVG TEMPAVG PRESSURE GPRESSURE VOLUME PRESSAVG GPRESSAVG
ENERGY: 0 2.8004 5.6491 1.4333 0.0000 -10717.2478 1430.4142 0.0000 0.0000 1798.9985 -7477.9523 306.7764 -9276.9508 -7477.9523 306.7764 158.5184 255.7046 29709.5079 158.5184 255.7046
ENERGY: 300000 3.2445 1.3545 1.1494 0.0000 -10760.5392 1499.9477 0.0000 0.0000 1763.8755 -7490.9676 300.7870 -9254.8431 -7514.4510 302.4224 388.9108 450.6481 30590.5714 204.0022 269.7319
ENERGY: 600000 1.6494 1.4313 1.4760 0.0000 -10690.9721 1463.3885 0.0000 0.0000 1762.1699 -7460.8570 300.4962 -9223.0269 -7516.1894 300.2594 208.3273 257.1727 30307.4541 109.4257 162.9050
ENERGY: 900000 0.3339 1.7722 1.1599 0.0000 -10936.9786 1579.1704 0.0000 0.0000 1729.0808 -7625.4614 294.8536 -9354.5422 -7518.8228 299.8985 767.5168 778.1459 30288.0535 142.9050 190.9832
ENERGY: 1200000 3.6860 3.0659 1.3853 0.0000 -10838.3759 1514.3943 0.0000 0.0000 1706.0761 -7609.7684 290.9307 -9315.8444 -7529.3897 298.9945 478.2101 584.9041 29816.0698 125.0120 173.5941
ENERGY: 1500000 5.5283 4.4819 1.3279 0.0000 -10730.3177 1437.5506 0.0000 0.0000 1839.7578 -7441.6712 313.7270 -9281.4290 -7524.0171 300.1884 -136.6052 -108.6783 30423.5793 188.5213 236.4458
TCL: Running FEP window  11: Lambda1 0.4999999999999996 Lambda2 0.4499999999999996 [dLambda -0.04999999999999999]
TCL: Setting parameter firsttimestep to 0
TCL: Setting parameter alchLambda to 0.4999999999999996
Info: NONBONDED TABLE R-SQUARED SPACING: 0.0625
Info: NONBONDED TABLE SIZE: 705 POINTS
TCL: Setting parameter alchLambda2 to 0.4499999999999996
Info: NONBONDED TABLE R-SQUARED SPACING: 0.0625
Info: NONBONDED TABLE SIZE: 705 POINTS
TCL: Running for 1500000 steps
ETITLE: TS BOND ANGLE DIHED IMPRP ELECT VDW BOUNDARY MISC KINETIC TOTAL TEMP POTENTIAL TOTALAVG TEMPAVG PRESSURE GPRESSURE VOLUME PRESSAVG GPRESSAVG
ENERGY: 0 5.5283 4.4819 1.3279 0.0000 -10730.0724 1437.5185 0.0000 0.0000 1838.8902 -7442.3256 313.5790 -9281.2158 -7442.3256 313.5790 -206.4438 -112.8467 30423.5793 -206.4438 -112.8467
ENERGY: 300000 1.1082 1.4811 1.1571 0.0000 -10706.4406 1440.6836 0.0000 0.0000 1722.9645 -7539.0461 293.8106 -9262.0107 -7484.9769 301.5459 -112.3967 -82.2444 30599.3028 -162.1829 -110.5337
ENERGY: 600000 1.1856 2.9939 1.1766 0.0000 -10711.1502 1398.0758 0.0000 0.0000 1784.4088 -7523.3094 304.2885 -9307.7182 -7487.1038 301.9100 -325.8662 -241.4300 30119.6577 -210.9460 -143.4244
ENERGY: 900000 1.0370 1.2680 1.9636 0.0000 -10912.5185 1608.4501 0.0000 0.0000 1724.4217 -7575.3782 294.0591 -9299.7998 -7502.3146 301.8191 984.8103 1045.0096 30431.5406 -35.8038 24.2594
ENERGY: 1200000 2.4463 3.2492 1.1976 0.0000 -10635.4775 1345.0471 0.0000 0.0000 1793.4988 -7490.0386 305.8386 -9283.5374 -7512.5493 301.5906 -867.0560 -800.6049 30587.6762 -54.3588 5.1380
ENERGY: 1500000 2.3696 4.3946 1.1937 0.0000 -10819.4253 1495.1205 0.0000 0.0000 1737.3209 -7579.0262 296.2588 -9316.3471 -7515.2056 301.3829 685.6110 678.5181 29782.4301 -24.6286 36.3466
TCL: Running FEP window  12: Lambda1 0.4499999999999996 Lambda2 0.39999999999999963 [dLambda -0.04999999999999999]
TCL: Setting parameter firsttimestep to 0
TCL: Setting parameter alchLambda to 0.4499999999999996
Info: NONBONDED TABLE R-SQUARED SPACING: 0.0625
Info: NONBONDED TABLE SIZE: 705 POINTS
TCL: Setting parameter alchLambda2 to 0.39999999999999963
Info: NONBONDED TABLE R-SQUARED SPACING: 0.0625
Info: NONBONDED TABLE SIZE: 705 POINTS
TCL: Running for 1500000 steps
ETITLE: TS BOND ANGLE DIHED IMPRP ELECT VDW BOUNDARY MISC KINETIC TOTAL TEMP POTENTIAL TOTALAVG TEMPAVG PRESSURE GPRESSURE VOLUME PRESSAVG GPRESSAVG
ENERGY: 0 2.3696 4.3946 1.1937 0.0000 -10819.4260 1495.3071 0.0000 0.0000 1736.4206 -7579.7405 296.1052 -9316.1610 -7579.7405 296.1052 601.4511 672.4771 29782.4301 601.4511 672.4771
ENERGY: 300000 0.5960 1.4098 1.1514 0.0000 -10666.9743 1402.5717 0.0000 0.0000 1734.2818 -7526.9636 295.7405 -9261.2453 -7503.7855 298.8777 -396.3203 -365.1429 30525.1991 277.7911 346.7343
ENERGY: 600000 1.7280 4.0861 1.5966 0.0000 -10657.9519 1381.4192 0.0000 0.0000 1708.1708 -7560.9512 291.2879 -9269.1220 -7504.1863 299.4627 -664.0136 -543.2087 30295.9973 87.3324 160.2329
ENERGY: 900000 2.0450 2.2059 1.1387 0.0000 -10593.2390 1406.7099 0.0000 0.0000 1765.6903 -7415.4493 301.0965 -9181.1395 -7501.1608 299.6441 -420.4243 -337.2128 30936.8383 -18.0698 49.6067
ENERGY: 1200000 0.6721 2.4874 1.1880 0.0000 -10660.9088 1438.9438 0.0000 0.0000 1737.6611 -7479.9564 296.3168 -9217.6175 -7504.1926 298.7973 103.6321 135.6000 30470.5572 -1.1128 65.4368
ENERGY: 1500000 0.8594 2.6530 1.1664 0.0000 -10722.2769 1427.5564 0.0000 0.0000 1763.8591 -7526.1825 300.7842 -9290.0416 -7515.4156 298.7039 -273.4762 -228.4397 30521.4608 0.5963 61.1842
TCL: Running FEP window  13: Lambda1 0.39999999999999963 Lambda2 0.34999999999999964 [dLambda -0.04999999999999999]
TCL: Setting parameter firsttimestep to 0
TCL: Setting parameter alchLambda to 0.39999999999999963
Info: NONBONDED TABLE R-SQUARED SPACING: 0.0625
Info: NONBONDED TABLE SIZE: 705 POINTS
TCL: Setting parameter alchLambda2 to 0.34999999999999964
Info: NONBONDED TABLE R-SQUARED SPACING: 0.0625
Info: NONBONDED TABLE SIZE: 705 POINTS
TCL: Running for 1500000 steps
ETITLE: TS BOND ANGLE DIHED IMPRP ELECT VDW BOUNDARY MISC KINETIC TOTAL TEMP POTENTIAL TOTALAVG TEMPAVG PRESSURE GPRESSURE VOLUME PRESSAVG GPRESSAVG
ENERGY: 0 0.8594 2.6530 1.1664 0.0000 -10722.2770 1427.6230 0.0000 0.0000 1762.9824 -7526.9928 300.6347 -9289.9752 -7526.9928 300.6347 -311.9067 -233.4696 30521.4608 -311.9067 -233.4696
ENERGY: 300000 0.9974 3.8001 1.7813 0.0000 -10776.8421 1440.1406 0.0000 0.0000 1782.1989 -7547.9239 303.9116 -9330.1228 -7554.6924 300.6277 -152.1226 -111.8855 30278.7795 -143.1342 -78.2360
ENERGY: 600000 0.2996 3.4080 1.1673 0.0000 -10651.5838 1386.9495 0.0000 0.0000 1762.2864 -7497.4729 300.5161 -9259.7594 -7551.8929 299.8183 -433.2936 -414.7969 30506.7164 -112.8961 -48.7489
ENERGY: 900000 4.1765 2.1610 1.2321 0.0000 -10560.6034 1346.4017 0.0000 0.0000 1746.6861 -7459.9460 297.8558 -9206.6321 -7532.8254 299.4653 -678.5730 -631.0469 30435.1747 -64.4045 -10.8905
ENERGY: 1200000 0.9586 2.3055 1.1409 0.0000 -10876.3390 1562.2604 0.0000 0.0000 1713.1477 -7596.5258 292.1366 -9309.6735 -7529.0022 299.2464 809.1059 845.8636 30261.2937 -15.1042 30.6266
ENERGY: 1500000 0.4505 3.2814 1.3102 0.0000 -10642.4388 1425.8267 0.0000 0.0000 1837.3626 -7374.2075 313.3185 -9211.5700 -7514.1881 300.7576 58.8348 161.3863 30476.3208 -26.2671 22.8053
TCL: Running FEP window  14: Lambda1 0.34999999999999964 Lambda2 0.29999999999999966 [dLambda -0.04999999999999999]
TCL: Setting parameter firsttimestep to 0
TCL: Setting parameter alchLambda to 0.34999999999999964
Info: NONBONDED TABLE R-SQUARED SPACING: 0.0625
Info: NONBONDED TABLE SIZE: 705 POINTS
TCL: Setting parameter alchLambda2 to 0.29999999999999966
Info: NONBONDED TABLE R-SQUARED SPACING: 0.0625
Info: NONBONDED TABLE SIZE: 705 POINTS
TCL: Running for 1500000 steps
ETITLE: TS BOND ANGLE DIHED IMPRP ELECT VDW BOUNDARY MISC KINETIC TOTAL TEMP POTENTIAL TOTALAVG TEMPAVG PRESSURE GPRESSURE VOLUME PRESSAVG GPRESSAVG
ENERGY: 0 0.4505 3.2814 1.3102 0.0000 -10642.4388 1425.9247 0.0000 0.0000 1836.4898 -7374.9823 313.1697 -9211.4721 -7374.9823 313.1697 70.9566 159.4883 30476.3208 70.9566 159.4883
ENERGY: 300000 0.2832 4.8479 1.1620 0.0000 -10543.9138 1345.7835 0.0000 0.0000 1751.8509 -7439.9863 298.7365 -9191.8373 -7446.0331 301.7861 -548.9808 -448.4281 30494.9512 -205.8601 -141.0656
ENERGY: 600000 0.3494 4.3893 1.8529 0.0000 -10572.7897 1352.1640 0.0000 0.0000 1716.3857 -7497.6485 292.6888 -9214.0342 -7455.2969 299.0339 -527.7028 -448.8653 30363.2258 -257.0340 -189.2194
ENERGY: 900000 2.4974 2.2949 1.1894 0.0000 -10662.8038 1375.5893 0.0000 0.0000 1717.5464 -7563.6865 292.8867 -9281.2329 -7472.3647 298.5640 -732.9300 -685.1801 30519.1463 -244.3924 -171.1349
ENERGY: 1200000 0.9404 6.4040 1.1715 0.0000 -10693.0750 1437.0250 0.0000 0.0000 1765.6278 -7481.9063 301.0858 -9247.5341 -7471.5530 299.7454 115.8263 219.0259 30199.2255 -168.1132 -97.1034
ENERGY: 1500000 0.6678 3.1271 1.1532 0.0000 -10721.1251 1410.9248 0.0000 0.0000 1742.5216 -7562.7307 297.1456 -9305.2522 -7472.4573 299.5905 -322.4730 -227.9330 29991.4224 -157.5717 -88.3643
TCL: Running FEP window  15: Lambda1 0.29999999999999966 Lambda2 0.24999999999999967 [dLambda -0.04999999999999999]
TCL: Setting parameter firsttimestep to 0
TCL: Setting parameter alchLambda to 0.29999999999999966
Info: NONBONDED TABLE R-SQUARED SPACING: 0.0625
Info: NONBONDED TABLE SIZE: 705 POINTS
TCL: Setting parameter alchLambda2 to 0.24999999999999967
Info: NONBONDED TABLE R-SQUARED SPACING: 0.0625
Info: NONBONDED TABLE SIZE: 705 POINTS
TCL: Running for 1500000 steps
ETITLE: TS BOND ANGLE DIHED IMPRP ELECT VDW BOUNDARY MISC KINETIC TOTAL TEMP POTENTIAL TOTALAVG TEMPAVG PRESSURE GPRESSURE VOLUME PRESSAVG GPRESSAVG
ENERGY: 0 0.6678 3.1271 1.1532 0.0000 -10721.1267 1410.7982 0.0000 0.0000 1741.6259 -7563.7545 296.9929 -9305.3803 -7563.7545 296.9929 -335.1071 -233.4347 29991.4224 -335.1071 -233.4347
ENERGY: 300000 1.5488 2.7543 1.1672 0.0000 -10637.2967 1358.2177 0.0000 0.0000 1780.0432 -7493.5656 303.5440 -9273.6087 -7550.4535 296.9180 -659.0362 -589.5512 30192.2297 -123.3815 -52.5629
ENERGY: 600000 2.8269 3.6695 1.2518 0.0000 -10563.3711 1347.2694 0.0000 0.0000 1819.5031 -7388.8505 310.2730 -9208.3535 -7514.6079 297.9212 -336.7725 -263.0551 30212.7648 -181.5689 -111.7276
ENERGY: 900000 0.5063 5.2757 1.1404 0.0000 -10713.2671 1489.6581 0.0000 0.0000 1728.5330 -7488.1536 294.7602 -9216.6866 -7510.0247 298.2130 649.2952 751.7877 29752.6528 -151.2665 -84.2587
ENERGY: 1200000 0.6485 2.6124 1.2211 0.0000 -10785.1734 1448.6668 0.0000 0.0000 1823.9856 -7508.0391 311.0374 -9332.0247 -7521.4990 299.2342 14.7438 45.4040 30118.7089 -107.0676 -46.9324
ENERGY: 1500000 0.1926 3.7251 1.3385 0.0000 -10644.2879 1405.7443 0.0000 0.0000 1754.7556 -7478.5318 299.2319 -9233.2874 -7511.1131 300.0938 -11.3584 68.3118 29913.1015 -76.9174 -16.1952
TCL: Running FEP window  16: Lambda1 0.24999999999999967 Lambda2 0.19999999999999968 [dLambda -0.04999999999999999]
TCL: Setting parameter firsttimestep to 0
TCL: Setting parameter alchLambda to 0.24999999999999967
Info: NONBONDED TABLE R-SQUARED SPACING: 0.0625
Info: NONBONDED TABLE SIZE: 705 POINTS
TCL: Setting parameter alchLambda2 to 0.19999999999999968
Info: NONBONDED TABLE R-SQUARED SPACING: 0.0625
Info: NONBONDED TABLE SIZE: 705 POINTS
TCL: Running for 1500000 steps
ETITLE: TS BOND ANGLE DIHED IMPRP ELECT VDW BOUNDARY MISC KINETIC TOTAL TEMP POTENTIAL TOTALAVG TEMPAVG PRESSURE GPRESSURE VOLUME PRESSAVG GPRESSAVG
ENERGY: 0 0.1926 3.7251 1.3385 0.0000 -10644.2885 1406.1727 0.0000 0.0000 1753.8444 -7479.0151 299.0765 -9232.8596 -7479.0151 299.0765 -17.0549 71.4650 29913.1015 -17.0549 71.4650
ENERGY: 300000 4.2113 3.9053 1.1629 0.0000 -10807.5143 1489.5347 0.0000 0.0000 1697.4429 -7611.2572 289.4585 -9308.7000 -7529.3187 294.5992 180.3133 272.3088 30147.3601 -220.4341 -130.7386
ENERGY: 600000 1.1922 2.8287 1.2756 0.0000 -10697.4131 1424.9460 0.0000 0.0000 1785.0991 -7482.0716 304.4062 -9267.1707 -7528.8815 296.5137 -25.1356 51.0326 30215.1566 -158.7815 -75.9487
ENERGY: 900000 1.4436 3.6601 1.6149 0.0000 -10800.9392 1554.7040 0.0000 0.0000 1762.1248 -7477.3919 300.4885 -9239.5166 -7508.9323 297.8820 1002.2704 1079.2105 30130.3040 -17.1703 62.7131
ENERGY: 1200000 1.2302 2.6605 1.1523 0.0000 -10748.9540 1439.5051 0.0000 0.0000 1751.9617 -7552.4442 298.7554 -9304.4059 -7517.3967 297.1960 -174.4792 -103.4994 30249.5130 67.6145 143.7468
ENERGY: 1500000 0.4059 5.3244 1.4321 0.0000 -10626.0526 1424.3781 0.0000 0.0000 1767.6011 -7426.9110 301.4223 -9194.5121 -7511.9092 297.5879 404.3604 446.0544 29934.5925 45.0602 118.8144
TCL: Running FEP window  17: Lambda1 0.19999999999999968 Lambda2 0.1499999999999997 [dLambda -0.04999999999999999]
TCL: Setting parameter firsttimestep to 0
TCL: Setting parameter alchLambda to 0.19999999999999968
Info: NONBONDED TABLE R-SQUARED SPACING: 0.0625
Info: NONBONDED TABLE SIZE: 705 POINTS
TCL: Setting parameter alchLambda2 to 0.1499999999999997
Info: NONBONDED TABLE R-SQUARED SPACING: 0.0625
Info: NONBONDED TABLE SIZE: 705 POINTS
TCL: Running for 1500000 steps
ETITLE: TS BOND ANGLE DIHED IMPRP ELECT VDW BOUNDARY MISC KINETIC TOTAL TEMP POTENTIAL TOTALAVG TEMPAVG PRESSURE GPRESSURE VOLUME PRESSAVG GPRESSAVG
ENERGY: 0 0.4059 5.3244 1.4321 0.0000 -10626.0519 1424.4330 0.0000 0.0000 1766.6872 -7427.7694 301.2665 -9194.4565 -7427.7694 301.2665 355.2161 442.7640 29934.5925 355.2161 442.7640
ENERGY: 300000 0.7374 2.8898 1.2028 0.0000 -10795.8503 1447.2517 0.0000 0.0000 1809.9361 -7533.8325 308.6416 -9343.7686 -7491.9396 304.0129 -190.2088 -153.1936 30323.9364 -31.8323 7.7232
ENERGY: 600000 1.5085 3.3403 1.3641 0.0000 -10666.5760 1422.0727 0.0000 0.0000 1713.6147 -7524.6756 292.2163 -9238.2904 -7508.7396 300.9616 -42.3256 -5.9824 30268.9929 21.1947 63.8760
ENERGY: 900000 1.5142 2.1166 1.2706 0.0000 -10778.4059 1441.1398 0.0000 0.0000 1714.4341 -7617.9305 292.3560 -9332.3647 -7523.5342 300.3709 -27.7488 6.1736 29980.6757 -46.5447 -9.9390
ENERGY: 1200000 2.4991 5.7609 1.1860 0.0000 -10618.5619 1354.0903 0.0000 0.0000 1730.0638 -7524.9619 295.0212 -9255.0257 -7525.1548 300.4293 -711.8693 -590.7910 30192.0720 -95.5715 -47.9133
ENERGY: 1500000 0.6982 1.8237 1.8004 0.0000 -10736.5472 1517.7364 0.0000 0.0000 1754.9624 -7459.5261 299.2671 -9214.4885 -7524.3433 300.3034 648.1549 644.4886 30698.8370 -106.4071 -58.7702
TCL: Running FEP window  18: Lambda1 0.1499999999999997 Lambda2 0.09999999999999969 [dLambda -0.05 ]
TCL: Setting parameter firsttimestep to 0
TCL: Setting parameter alchLambda to 0.1499999999999997
Info: NONBONDED TABLE R-SQUARED SPACING: 0.0625
Info: NONBONDED TABLE SIZE: 705 POINTS
TCL: Setting parameter alchLambda2 to 0.09999999999999969
Info: NONBONDED TABLE R-SQUARED SPACING: 0.0625
Info: NONBONDED TABLE SIZE: 705 POINTS
TCL: Running for 1500000 steps
ETITLE: TS BOND ANGLE DIHED IMPRP ELECT VDW BOUNDARY MISC KINETIC TOTAL TEMP POTENTIAL TOTALAVG TEMPAVG PRESSURE GPRESSURE VOLUME PRESSAVG GPRESSAVG
ENERGY: 0 0.6982 1.8237 1.8004 0.0000 -10736.5487 1517.5952 0.0000 0.0000 1754.0884 -7460.5427 299.1181 -9214.6311 -7460.5427 299.1181 561.4152 640.0078 30698.8370 561.4152 640.0078
ENERGY: 300000 1.8127 0.8065 1.1721 0.0000 -10646.9880 1393.4364 0.0000 0.0000 1740.7668 -7508.9935 296.8464 -9249.7604 -7475.2296 299.3584 -366.4569 -327.1846 30136.7204 16.9777 85.4138
ENERGY: 600000 1.1171 1.8230 1.4963 0.0000 -10648.1815 1390.4166 0.0000 0.0000 1743.4509 -7509.8777 297.3041 -9253.3286 -7494.3443 298.7559 -625.5058 -520.5362 30851.5882 -271.0835 -195.8899
ENERGY: 900000 2.6568 2.8169 1.1607 0.0000 -10723.5435 1449.2213 0.0000 0.0000 1795.3880 -7472.2998 306.1607 -9267.6878 -7500.1615 299.3084 -61.4363 39.6048 30157.8599 -274.0162 -206.0140
ENERGY: 1200000 2.4243 1.3292 1.1689 0.0000 -10609.4753 1368.3864 0.0000 0.0000 1802.2439 -7433.9226 307.3298 -9236.1664 -7485.2239 300.7191 -791.6149 -723.7329 30774.2256 -341.6407 -266.4883
ENERGY: 1500000 1.5502 4.3908 1.3304 0.0000 -10733.1907 1451.9288 0.0000 0.0000 1781.3131 -7492.6774 303.7606 -9273.9905 -7492.4199 301.5802 171.4079 215.2222 30354.9145 -261.7071 -190.3540
TCL: Running FEP window  19: Lambda1 0.09999999999999969 Lambda2 0.049999999999999684 [dLambda -0.05 ]
TCL: Setting parameter firsttimestep to 0
TCL: Setting parameter alchLambda to 0.09999999999999969
Info: NONBONDED TABLE R-SQUARED SPACING: 0.0625
Info: NONBONDED TABLE SIZE: 705 POINTS
TCL: Setting parameter alchLambda2 to 0.049999999999999684
Info: NONBONDED TABLE R-SQUARED SPACING: 0.0625
Info: NONBONDED TABLE SIZE: 705 POINTS
TCL: Running for 1500000 steps
ETITLE: TS BOND ANGLE DIHED IMPRP ELECT VDW BOUNDARY MISC KINETIC TOTAL TEMP POTENTIAL TOTALAVG TEMPAVG PRESSURE GPRESSURE VOLUME PRESSAVG GPRESSAVG
ENERGY: 0 1.5502 4.3908 1.3304 0.0000 -10733.1887 1452.0103 0.0000 0.0000 1780.4275 -7493.4795 303.6096 -9273.9070 -7493.4795 303.6096 120.3506 212.5838 30354.9145 120.3506 212.5838
ENERGY: 300000 1.2645 5.1513 1.4189 0.0000 -10544.2202 1358.9824 0.0000 0.0000 1796.0736 -7381.3295 306.2776 -9177.4031 -7469.8675 302.8723 -512.0967 -492.7394 30615.5878 -118.9232 -88.0530
ENERGY: 600000 2.0745 3.1038 1.2182 0.0000 -10773.9767 1491.2442 0.0000 0.0000 1802.7467 -7473.5893 307.4156 -9276.3360 -7481.2860 302.5193 387.4759 444.9200 30205.5227 35.9090 80.2774
ENERGY: 900000 1.3300 2.0384 1.4792 0.0000 -10680.9037 1379.0192 0.0000 0.0000 1738.2284 -7558.8086 296.4135 -9297.0370 -7503.7018 300.6119 -541.2243 -493.4303 30268.9037 27.3070 88.0380
ENERGY: 1200000 2.8013 2.6790 1.4392 0.0000 -10738.2697 1449.0296 0.0000 0.0000 1767.2616 -7515.0589 301.3645 -9282.3205 -7498.8446 301.7122 -176.8743 -83.5037 30632.0842 35.9160 96.0787
ENERGY: 1500000 1.7329 3.9416 1.8588 0.0000 -10618.1289 1417.0637 0.0000 0.0000 1739.8114 -7453.7205 296.6835 -9193.5319 -7486.7883 302.0410 47.5075 103.8986 30330.8246 -95.3780 -30.7217
TCL: Running FEP window  20: Lambda1 0.049999999999999684 Lambda2 0.0    [dLambda -0.049999999999999684]
TCL: Setting parameter firsttimestep to 0
TCL: Setting parameter alchLambda to 0.049999999999999684
Info: NONBONDED TABLE R-SQUARED SPACING: 0.0625
Info: NONBONDED TABLE SIZE: 705 POINTS
TCL: Setting parameter alchLambda2 to 0.0
Info: NONBONDED TABLE R-SQUARED SPACING: 0.0625
Info: NONBONDED TABLE SIZE: 705 POINTS
TCL: Running for 1500000 steps
ETITLE: TS BOND ANGLE DIHED IMPRP ELECT VDW BOUNDARY MISC KINETIC TOTAL TEMP POTENTIAL TOTALAVG TEMPAVG PRESSURE GPRESSURE VOLUME PRESSAVG GPRESSAVG
ENERGY: 0 1.7329 3.9416 1.8588 0.0000 -10618.1293 1417.4125 0.0000 0.0000 1738.9457 -7454.2378 296.5358 -9193.1834 -7454.2378 296.5358 12.1781 102.6930 30330.8246 12.1781 102.6930
ENERGY: 300000 1.9776 1.7556 1.1606 0.0000 -10739.8722 1419.2744 0.0000 0.0000 1802.8160 -7512.8880 307.4274 -9315.7041 -7475.5091 301.5803 -363.3981 -292.2687 30440.4892 -19.7823 64.3523
ENERGY: 600000 1.1973 2.7074 1.1501 0.0000 -10734.0007 1390.4206 0.0000 0.0000 1791.0362 -7547.4892 305.4186 -9338.5254 -7507.8378 302.2889 -496.2122 -392.5569 30046.3803 -115.0114 -30.6264
ENERGY: 900000 2.1764 1.2660 1.1968 0.0000 -10724.6864 1460.8064 0.0000 0.0000 1696.0853 -7563.1554 289.2270 -9259.2407 -7503.3566 299.1516 43.0137 107.0458 30401.1919 -46.1338 33.0852
ENERGY: 1200000 2.2919 2.7589 1.1557 0.0000 -10626.1433 1382.7686 0.0000 0.0000 1780.7231 -7456.4452 303.6600 -9237.1683 -7501.7846 299.8817 -351.4025 -290.1995 30229.3821 -62.5219 10.1578
ENERGY: 1500000 1.8189 3.5771 1.2057 0.0000 -10877.3799 1527.2372 0.0000 0.0000 1695.4338 -7648.1072 289.1159 -9343.5410 -7512.8843 298.7805 469.3817 545.4500 29793.6416 -13.3689 55.8669
TCL: Exiting due to exit command.
