Info: SIMULATION PARAMETERS:
Info: TIMESTEP               2
Info: NUMBER OF STEPS        0
Info: STEPS PER CYCLE        10
Info: PERIODIC CELL BASIS 1  39.512 0 0
Info: PERIODIC CELL BASIS 2  0 40.343 0
Info: PERIODIC CELL BASIS 3  0 0 40.136
Info: PERIODIC CELL CENTER   0 0 0
Info: WRAPPING WATERS AROUND PERIODIC BOUNDARIES ON OUTPUT.
Info: WRAPPING ALL CLUSTERS AROUND PERIODIC BOUNDARIES ON OUTPUT.
Info: FIRST LDB TIMESTEP     50
Info: LAST LDB TIMESTEP     -1
Info: HOM BACKGROUND SCALING 1
Info: PME BACKGROUND SCALING 1
Info: MIN ATOMS PER PATCH    40
Info: EMPTY PATCH LOAD       40 ATOMS
Info: INITIAL TEMPERATURE    300
Info: CENTER OF MASS MOVING INITIALLY? NO
Info: DIELECTRIC             1
Info: EXCLUDE                SCALED ONE-FOUR
Info: 1-4 ELECTROSTATICS SCALED BY 0.833333
Info: MODIFIED 1-4 VDW PARAMETERS WILL BE USED
Info: DCD FILENAME           mobley_2294995_min.dcd
Info: DCD FREQUENCY          5000
Info: DCD FIRST STEP         5000
Info: DCD FILE WILL CONTAIN UNIT CELL DATA
Info: XST FILENAME           mobley_2294995_min.xst
Info: XST FREQUENCY          5000
Info: NO VELOCITY DCD OUTPUT
Info: NO FORCE DCD OUTPUT
Info: OUTPUT FILENAME        mobley_2294995_min
Info: BINARY OUTPUT FILES WILL BE USED
Info: RESTART FILENAME       mobley_2294995_min.restart
Info: RESTART FREQUENCY      5000
Info: BINARY RESTART FILES WILL BE USED
Info: CUTOFF                 9
Info: PAIRLIST DISTANCE      11
Info: PAIRLIST SHRINK RATE   0.01
Info: PAIRLIST GROW RATE     0.01
Info: PAIRLIST TRIGGER       0.3
Info: PAIRLISTS PER CYCLE    2
Info: PAIRLISTS ENABLED
Info: MARGIN                 8
Info: HYDROGEN GROUP CUTOFF  2.5
Info: PATCH DIMENSION        21.5
Info: ENERGY OUTPUT STEPS    5000
Info: ENERGY EVALUATION STEPS    5000
Info: OUTPUT ENERGY PRECISION 4
Info: CROSSTERM ENERGY INCLUDED IN DIHEDRAL
Info: TIMING OUTPUT STEPS    50000
Info: PRESSURE OUTPUT STEPS  5000
Info: LANGEVIN DYNAMICS ACTIVE
Info: LANGEVIN TEMPERATURE   300
Info: LANGEVIN USING BBK INTEGRATOR
Info: LANGEVIN DAMPING COEFFICIENT IS 1 INVERSE PS
Info: LANGEVIN DYNAMICS APPLIED TO HYDROGENS
Info: LANGEVIN PISTON PRESSURE CONTROL ACTIVE
Info:        TARGET PRESSURE IS 1.01325 BAR
Info:     OSCILLATION PERIOD IS 50 FS
Info:             DECAY TIME IS 25 FS
Info:     PISTON TEMPERATURE IS 300 K
Info:       PRESSURE CONTROL IS GROUP-BASED
Info:    INITIAL STRAIN RATE IS 0 0 0
Info:       CELL FLUCTUATION IS ISOTROPIC
Info: PARTICLE MESH EWALD (PME) ACTIVE
Info: PME TOLERANCE               1e-06
Info: PME EWALD COEFFICIENT       0.348832
Info: PME INTERPOLATION ORDER     4
Info: PME GRID DIMENSIONS         40 44 44
Info: PME MAXIMUM GRID SPACING    1
Info: FULL ELECTROSTATIC EVALUATION FREQUENCY      2
Info: USING VERLET I (r-RESPA) MTS SCHEME.
Info: C1 SPLITTING OF LONG RANGE ELECTROSTATICS
Info: PLACING ATOMS IN PATCHES BY HYDROGEN GROUPS
Info: RIGID BONDS TO HYDROGEN : ALL
Info:         ERROR TOLERANCE : 1e-08
Info:          MAX ITERATIONS : 100
Info: RIGID WATER USING SETTLE ALGORITHM
Info: RANDOM NUMBER SEED     1741318566
Info: USE HYDROGEN BONDS?    NO
Info: Using AMBER format force field!
Info: AMBER PARM FILE        mobley_2294995.prmtop
Info: COORDINATE PDB         mobley_2294995.pdb
Info: Exclusions will be read from PARM file!
Info: SCNB (VDW SCALING)     2
Info: USING ARITHMETIC MEAN TO COMBINE L-J SIGMA PARAMETERS
Info: SUMMARY OF PARAMETERS:
Info: 9 BONDS
Info: 10 ANGLES
Info:   10 HARMONIC
Info:   0 COSINE-BASED
Info: 9 DIHEDRAL
Info: 0 IMPROPER
Info: 0 CROSSTERM
Info: 0 VDW
Info: 45 VDW_PAIRS
Info: 0 NBTHOLE_PAIRS
Info: STRUCTURE SUMMARY:
Info: 4655 ATOMS
Info: 4654 BONDS
Info: 16 ANGLES
Info: 20 DIHEDRALS
Info: 0 IMPROPERS
Info: 0 CROSSTERMS
Info: 4684 EXCLUSIONS
Info: 4650 RIGID BONDS
Info: 9315 DEGREES OF FREEDOM
Info: 1553 HYDROGEN GROUPS
Info: 4 ATOMS IN LARGEST HYDROGEN GROUP
Info: 1553 MIGRATION GROUPS
Info: 4 ATOMS IN LARGEST MIGRATION GROUP
Info: TOTAL MASS = 27962.8 amu
Info: TOTAL CHARGE = 0.000200029 e
Info: MASS DENSITY = 0.725787 g/cm^3
Info: ATOM DENSITY = 0.0727593 atoms/A^3
Info: ADDED 0 IMPLICIT EXCLUSIONS
Info: NONBONDED TABLE R-SQUARED SPACING: 0.0625
Info: NONBONDED TABLE SIZE: 705 POINTS
Info: REMOVING COM VELOCITY 0.0884536 0.027629 -0.0235642
TCL: Minimizing for 2000 steps
ETITLE: TS BOND ANGLE DIHED IMPRP ELECT VDW BOUNDARY MISC KINETIC TOTAL TEMP POTENTIAL TOTAL3 TEMPAVG PRESSURE GPRESSURE VOLUME PRESSAVG GPRESSAVG
ENERGY: 0 0.1298 1.0505 2.3578 0.0000 -14617.1103 1691.2824 0.0000 0.0000 0.0000 -12922.2897 0.0000 -12922.2897 -12922.2897 0.0000 11352.6943 -15980.4105 63978.0931 11352.6943 -15980.4105
ENERGY: 400 5.4840 4.0408 2.5186 0.0000 -19191.3334 2630.7278 0.0000 0.0000 0.0000 -16548.5623 0.0000 -16548.5623 -16548.5623 0.0000 14871.7087 14994.9554 63978.0931 14871.7087 14994.9554
ENERGY: 800 2.1457 0.3821 2.3786 0.0000 -20380.3944 3216.2175 0.0000 0.0000 0.0000 -17159.2705 0.0000 -17159.2705 -17159.2705 0.0000 17724.1407 17834.9283 63978.0931 17724.1407 17834.9283
ENERGY: 1200 0.3505 0.2982 2.3949 0.0000 -20899.4998 3461.5240 0.0000 0.0000 0.0000 -17434.9323 0.0000 -17434.9323 -17434.9323 0.0000 18983.4793 19107.2285 63978.0931 18983.4793 19107.2285
ENERGY: 1600 0.3544 0.2088 2.3705 0.0000 -21164.5272 3601.8924 0.0000 0.0000 0.0000 -17559.7011 0.0000 -17559.7011 -17559.7011 0.0000 19715.9387 19834.9261 63978.0931 19715.9387 19834.9261
ENERGY: 2000 0.1716 0.3352 2.3591 0.0000 -21315.8876 3675.1847 0.0000 0.0000 0.0000 -17637.8370 0.0000 -17637.8370 -17637.8370 0.0000 20090.2568 20207.8237 63978.0931 20090.2568 20207.8237
TCL: Exiting due to exit command.
Info: NAMD 3.0.1 for Linux-x86_64-multicore
Info: Please visit http://www.ks.uiuc.edu/Research/namd/
Info: for updates, documentation, and support information.
Info: Please cite Phillips et al., J. Chem. Phys. 153:044130 (2020) doi:10.1063/5.0014475
Info: in all publications reporting results obtained with NAMD.
Info: Based on Charm++/Converse 80000 for multicore-linux-x86_64-gcc
Info: Built Mon Oct 14 11:11:06 CDT 2024 by dhardy on athine.ks.uiuc.edu
Info: 1 NAMD  3.0.1  Linux-x86_64-multicore  16    k018  z5358697
Info: Running on 16 processors, 1 nodes, 1 physical nodes.
Info: CPU topology information available.
Info: Charm++/Converse parallel runtime startup completed at 0.00539193 s
Info: 1043.46 MB of memory in use based on /proc/self/stat
Info: Configuration file is mobley_2294995_equil.namd
Info: Working in the current directory /srv/scratch/z5358697/prod_prep_2/2294995
TCL: Running 25000 steps at 30 kelvin.
TCL: Suspending until startup complete.
Info: SIMULATION PARAMETERS:
Info: TIMESTEP               2
Info: NUMBER OF STEPS        0
Info: STEPS PER CYCLE        10
Info: PERIODIC CELL BASIS 1  39.512 0 0
Info: PERIODIC CELL BASIS 2  0 40.343 0
Info: PERIODIC CELL BASIS 3  0 0 40.136
Info: PERIODIC CELL CENTER   0 0 0
Info: WRAPPING WATERS AROUND PERIODIC BOUNDARIES ON OUTPUT.
Info: WRAPPING ALL CLUSTERS AROUND PERIODIC BOUNDARIES ON OUTPUT.
Info: FIRST LDB TIMESTEP     50
Info: LAST LDB TIMESTEP     -1
Info: HOM BACKGROUND SCALING 1
Info: PME BACKGROUND SCALING 1
Info: MIN ATOMS PER PATCH    40
Info: EMPTY PATCH LOAD       40 ATOMS
Info: INITIAL TEMPERATURE    300
Info: CENTER OF MASS MOVING INITIALLY? NO
Info: DIELECTRIC             1
Info: EXCLUDE                SCALED ONE-FOUR
Info: 1-4 ELECTROSTATICS SCALED BY 0.833333
Info: MODIFIED 1-4 VDW PARAMETERS WILL BE USED
Info: DCD FILENAME           mobley_2294995_equil.dcd
Info: DCD FREQUENCY          5000
Info: DCD FIRST STEP         5000
Info: DCD FILE WILL CONTAIN UNIT CELL DATA
Info: XST FILENAME           mobley_2294995_equil.xst
Info: XST FREQUENCY          5000
Info: NO VELOCITY DCD OUTPUT
Info: NO FORCE DCD OUTPUT
Info: OUTPUT FILENAME        mobley_2294995_equil
Info: BINARY OUTPUT FILES WILL BE USED
Info: RESTART FILENAME       mobley_2294995_equil.restart
Info: RESTART FREQUENCY      5000
Info: BINARY RESTART FILES WILL BE USED
Info: CUTOFF                 9
Info: PAIRLIST DISTANCE      11
Info: PAIRLIST SHRINK RATE   0.01
Info: PAIRLIST GROW RATE     0.01
Info: PAIRLIST TRIGGER       0.3
Info: PAIRLISTS PER CYCLE    2
Info: PAIRLISTS ENABLED
Info: MARGIN                 8
Info: HYDROGEN GROUP CUTOFF  2.5
Info: PATCH DIMENSION        21.5
Info: ENERGY OUTPUT STEPS    5000
Info: ENERGY EVALUATION STEPS    5000
Info: OUTPUT ENERGY PRECISION 4
Info: CROSSTERM ENERGY INCLUDED IN DIHEDRAL
Info: TIMING OUTPUT STEPS    50000
Info: PRESSURE OUTPUT STEPS  5000
Info: LANGEVIN DYNAMICS ACTIVE
Info: LANGEVIN TEMPERATURE   30
Info: LANGEVIN USING BBK INTEGRATOR
Info: LANGEVIN DAMPING COEFFICIENT IS 1 INVERSE PS
Info: LANGEVIN DYNAMICS APPLIED TO HYDROGENS
Info: LANGEVIN PISTON PRESSURE CONTROL ACTIVE
Info:        TARGET PRESSURE IS 1.01325 BAR
Info:     OSCILLATION PERIOD IS 50 FS
Info:             DECAY TIME IS 25 FS
Info:     PISTON TEMPERATURE IS 300 K
Info:       PRESSURE CONTROL IS GROUP-BASED
Info:    INITIAL STRAIN RATE IS 0 0 0
Info:       CELL FLUCTUATION IS ISOTROPIC
Info: PARTICLE MESH EWALD (PME) ACTIVE
Info: PME TOLERANCE               1e-06
Info: PME EWALD COEFFICIENT       0.348832
Info: PME INTERPOLATION ORDER     4
Info: PME GRID DIMENSIONS         40 44 44
Info: PME MAXIMUM GRID SPACING    1
Info: FULL ELECTROSTATIC EVALUATION FREQUENCY      2
Info: USING VERLET I (r-RESPA) MTS SCHEME.
Info: C1 SPLITTING OF LONG RANGE ELECTROSTATICS
Info: PLACING ATOMS IN PATCHES BY HYDROGEN GROUPS
Info: RIGID BONDS TO HYDROGEN : ALL
Info:         ERROR TOLERANCE : 1e-08
Info:          MAX ITERATIONS : 100
Info: RIGID WATER USING SETTLE ALGORITHM
Info: RANDOM NUMBER SEED     1741318583
Info: USE HYDROGEN BONDS?    NO
Info: Using AMBER format force field!
Info: AMBER PARM FILE        mobley_2294995.prmtop
Info: COORDINATE PDB         mobley_2294995.pdb
Info: Exclusions will be read from PARM file!
Info: SCNB (VDW SCALING)     2
Info: USING ARITHMETIC MEAN TO COMBINE L-J SIGMA PARAMETERS
Info: BINARY COORDINATES     mobley_2294995_min.coor
Info: SUMMARY OF PARAMETERS:
Info: 9 BONDS
Info: 10 ANGLES
Info:   10 HARMONIC
Info:   0 COSINE-BASED
Info: 9 DIHEDRAL
Info: 0 IMPROPER
Info: 0 CROSSTERM
Info: 0 VDW
Info: 45 VDW_PAIRS
Info: 0 NBTHOLE_PAIRS
Info: STRUCTURE SUMMARY:
Info: 4655 ATOMS
Info: 4654 BONDS
Info: 16 ANGLES
Info: 20 DIHEDRALS
Info: 0 IMPROPERS
Info: 0 CROSSTERMS
Info: 4684 EXCLUSIONS
Info: 4650 RIGID BONDS
Info: 9315 DEGREES OF FREEDOM
Info: 1553 HYDROGEN GROUPS
Info: 4 ATOMS IN LARGEST HYDROGEN GROUP
Info: 1553 MIGRATION GROUPS
Info: 4 ATOMS IN LARGEST MIGRATION GROUP
Info: TOTAL MASS = 27962.8 amu
Info: TOTAL CHARGE = 0.000200029 e
Info: MASS DENSITY = 0.725787 g/cm^3
Info: ATOM DENSITY = 0.0727593 atoms/A^3
Info: ADDED 0 IMPLICIT EXCLUSIONS
Info: NONBONDED TABLE R-SQUARED SPACING: 0.0625
Info: NONBONDED TABLE SIZE: 705 POINTS
Info: REMOVING COM VELOCITY -0.00195045 0.0152376 0.049276
TCL: Running for 25000 steps
ETITLE: TS BOND ANGLE DIHED IMPRP ELECT VDW BOUNDARY MISC KINETIC TOTAL TEMP POTENTIAL TOTAL3 TEMPAVG PRESSURE GPRESSURE VOLUME PRESSAVG GPRESSAVG
ENERGY: 0 0.1716 0.3352 2.3591 0.0000 -21315.8876 3675.1847 0.0000 0.0000 2728.6135 -14909.2235 294.8150 -17637.8370 -14908.6970 294.8150 122.9298 162.4370 63978.0931 122.9298 162.4370
ENERGY: 5000 0.1376 0.3527 2.4670 0.0000 -22170.0654 3679.6162 0.0000 0.0000 274.3540 -18213.1379 29.6428 -18487.4919 -18212.6190 47.4818 -1071.6498 -1032.3943 45230.6735 4.2255 4.3496
ENERGY: 10000 0.0301 0.6305 2.6169 0.0000 -22291.6866 3785.4505 0.0000 0.0000 277.9910 -18224.9675 30.0357 -18502.9585 -18224.4122 30.0514 -527.0754 -467.3008 45019.9360 1.1851 1.3752
ENERGY: 15000 0.1591 0.8651 2.5068 0.0000 -22358.6855 3843.0053 0.0000 0.0000 282.4684 -18229.6808 30.5195 -18512.1492 -18228.8300 30.0303 -242.8226 -179.1677 44953.2198 0.5241 0.2152
ENERGY: 20000 0.2892 0.3392 2.5065 0.0000 -22331.0624 3807.3484 0.0000 0.0000 276.5302 -18244.0488 29.8779 -18520.5790 -18243.7984 30.1223 -476.8942 -417.2551 45048.7505 -3.9374 -3.7072
ENERGY: 25000 0.4212 0.5032 2.4608 0.0000 -22372.2571 3837.0718 0.0000 0.0000 273.9563 -18257.8437 29.5998 -18531.8000 -18257.4278 30.2726 -286.8671 -232.3139 44825.4664 6.3742 6.4797
TCL: Running 25000 steps at 60 kelvin.
TCL: Setting parameter langevinTemp to 60
TCL: Running for 25000 steps
ETITLE: TS BOND ANGLE DIHED IMPRP ELECT VDW BOUNDARY MISC KINETIC TOTAL TEMP POTENTIAL TOTAL3 TEMPAVG PRESSURE GPRESSURE VOLUME PRESSAVG GPRESSAVG
ENERGY: 25000 0.4212 0.5032 2.4608 0.0000 -22372.2571 3837.0718 0.0000 0.0000 273.8209 -18257.9791 29.5852 -18531.8000 -18257.3174 29.5852 -280.0268 -232.4296 44825.4664 -280.0268 -232.4296
ENERGY: 30000 0.0578 1.5329 2.5606 0.0000 -22010.3730 3711.7372 0.0000 0.0000 557.0118 -17737.4726 60.1827 -18294.4845 -17736.0453 57.3139 -314.8532 -250.8218 44951.5705 4.1888 4.3714
ENERGY: 35000 0.6483 0.8617 2.4022 0.0000 -22091.0746 3724.4264 0.0000 0.0000 543.1018 -17819.6342 58.6798 -18362.7360 -17817.9357 60.2103 -423.9943 -340.6992 44853.1321 2.7630 2.1861
ENERGY: 40000 0.1406 1.2007 2.6247 0.0000 -22132.6311 3736.4312 0.0000 0.0000 561.7899 -17830.4441 60.6990 -18392.2339 -17828.7871 60.1176 -464.3187 -399.8397 44961.3278 0.8201 0.3816
ENERGY: 45000 0.1446 0.7527 2.7121 0.0000 -22111.3834 3694.9428 0.0000 0.0000 558.0819 -17854.7494 60.2984 -18412.8313 -17853.2474 60.0471 -754.4572 -695.0213 45069.2455 0.8851 0.7527
ENERGY: 50000 0.1613 0.9715 3.2408 0.0000 -22232.4676 3808.6179 0.0000 0.0000 559.9544 -17859.5216 60.5007 -18419.4760 -17858.1068 60.1519 -25.7533 28.0398 44622.1095 -1.4965 -1.5390
TCL: Running 25000 steps at 90 kelvin.
TCL: Setting parameter langevinTemp to 90
TCL: Running for 25000 steps
ETITLE: TS BOND ANGLE DIHED IMPRP ELECT VDW BOUNDARY MISC KINETIC TOTAL TEMP POTENTIAL TOTAL3 TEMPAVG PRESSURE GPRESSURE VOLUME PRESSAVG GPRESSAVG
ENERGY: 50000 0.1613 0.9715 3.2408 0.0000 -22232.4676 3808.6179 0.0000 0.0000 559.6792 -17859.7968 60.4709 -18419.4760 -17858.6272 60.4709 -29.0426 28.4039 44622.1095 -29.0426 28.4039
ENERGY: 55000 0.0804 1.6183 2.6037 0.0000 -21821.3469 3679.8679 0.0000 0.0000 828.1065 -17309.0700 89.4734 -18137.1766 -17306.5237 86.9404 -120.2118 -51.7805 45124.6340 2.8485 2.9890
ENERGY: 60000 0.1685 1.2344 3.0033 0.0000 -21894.7355 3736.0699 0.0000 0.0000 842.1962 -17312.0631 90.9957 -18154.2593 -17310.6443 90.4904 189.2315 247.1432 45013.1670 3.8022 3.7643
ENERGY: 65000 0.8135 1.4496 3.4086 0.0000 -21892.7999 3721.3036 0.0000 0.0000 850.1247 -17315.6998 91.8523 -18165.8245 -17312.9477 90.4410 -9.1365 38.9823 45227.1440 5.7903 5.7405
ENERGY: 70000 0.0819 1.9691 3.0856 0.0000 -22076.8451 3857.6879 0.0000 0.0000 835.3488 -17378.6717 90.2559 -18214.0205 -17376.2875 90.1247 765.9446 810.5527 44780.4145 0.1028 -0.0542
ENERGY: 75000 0.6939 0.7630 2.8228 0.0000 -21901.4424 3666.0692 0.0000 0.0000 827.7438 -17403.3496 89.4342 -18231.0934 -17401.6938 89.9073 -450.8639 -398.9861 45268.1780 3.9172 4.0239
TCL: Running 25000 steps at 120 kelvin.
TCL: Setting parameter langevinTemp to 120
TCL: Running for 25000 steps
ETITLE: TS BOND ANGLE DIHED IMPRP ELECT VDW BOUNDARY MISC KINETIC TOTAL TEMP POTENTIAL TOTAL3 TEMPAVG PRESSURE GPRESSURE VOLUME PRESSAVG GPRESSAVG
ENERGY: 75000 0.6939 0.7630 2.8228 0.0000 -21901.4424 3666.0692 0.0000 0.0000 827.3519 -17403.7415 89.3918 -18231.0934 -17402.0137 89.3918 -453.9159 -399.0772 45268.1780 -453.9159 -399.0772
ENERGY: 80000 0.4974 2.5575 2.4846 0.0000 -21693.2116 3800.0408 0.0000 0.0000 1107.5167 -16780.1145 119.6624 -17887.6312 -16778.2456 116.0201 1066.4278 1156.3678 45054.9350 3.5252 3.5378
ENERGY: 85000 0.2529 2.1383 2.9012 0.0000 -21453.4243 3538.7057 0.0000 0.0000 1129.5283 -16779.8980 122.0407 -17909.4263 -16777.0641 120.4835 -368.0823 -288.1270 45537.9745 2.6980 2.5337
ENERGY: 90000 0.1163 0.9520 3.0356 0.0000 -21677.8547 3684.8737 0.0000 0.0000 1095.7997 -16893.0773 118.3965 -17988.8771 -16889.1943 120.7297 263.0058 341.7312 45192.7314 4.6414 4.2413
ENERGY: 95000 0.6307 1.1506 2.7626 0.0000 -21639.0468 3659.2669 0.0000 0.0000 1102.3248 -16872.9112 119.1015 -17975.2360 -16869.3794 119.8764 56.3485 104.7036 45390.1652 6.9139 6.2614
ENERGY: 100000 0.3059 1.6739 2.4828 0.0000 -21460.9928 3465.5179 0.0000 0.0000 1107.2577 -16883.7545 119.6344 -17991.0123 -16881.5422 120.8205 -985.0583 -925.4873 45629.8096 1.2069 1.0394
TCL: Running 25000 steps at 150 kelvin.
TCL: Setting parameter langevinTemp to 150
TCL: Running for 25000 steps
ETITLE: TS BOND ANGLE DIHED IMPRP ELECT VDW BOUNDARY MISC KINETIC TOTAL TEMP POTENTIAL TOTAL3 TEMPAVG PRESSURE GPRESSURE VOLUME PRESSAVG GPRESSAVG
ENERGY: 100000 0.3059 1.6739 2.4828 0.0000 -21460.9928 3465.5179 0.0000 0.0000 1106.7086 -16884.3037 119.5751 -17991.0123 -16881.6427 119.5751 -991.9591 -925.8458 45629.8096 -991.9591 -925.8458
ENERGY: 105000 0.7063 1.9516 2.8122 0.0000 -21052.8072 3368.7487 0.0000 0.0000 1411.1909 -16267.3975 152.4731 -17678.5885 -16263.3356 146.4098 -697.6547 -653.7023 45822.3694 3.2662 3.7009
ENERGY: 110000 0.3136 0.9331 2.7170 0.0000 -21139.0366 3465.7372 0.0000 0.0000 1377.7726 -16291.5630 148.8624 -17669.3357 -16288.2893 149.2147 -172.4326 -122.4755 45685.5559 3.7190 3.4913
ENERGY: 115000 2.2353 2.8214 3.2153 0.0000 -21266.5617 3553.2283 0.0000 0.0000 1357.8686 -16347.1929 146.7119 -17705.0614 -16345.4863 150.1954 177.6547 210.0565 45689.3270 1.9765 2.0234
ENERGY: 120000 0.9717 3.0519 2.3554 0.0000 -21325.6447 3600.7633 0.0000 0.0000 1396.9215 -16321.5809 150.9314 -17718.5025 -16318.0159 149.5614 357.8525 452.0255 45372.4410 3.6120 3.2345
ENERGY: 125000 0.2185 1.9260 3.9024 0.0000 -21178.1640 3435.7930 0.0000 0.0000 1399.5742 -16336.7499 151.2180 -17736.3241 -16334.3142 149.2086 -533.3766 -456.4854 45587.2083 7.1822 6.9794
TCL: Running 50000 steps at 180 kelvin.
TCL: Setting parameter langevinTemp to 180
TCL: Running for 50000 steps
ETITLE: TS BOND ANGLE DIHED IMPRP ELECT VDW BOUNDARY MISC KINETIC TOTAL TEMP POTENTIAL TOTAL3 TEMPAVG PRESSURE GPRESSURE VOLUME PRESSAVG GPRESSAVG
ENERGY: 125000 0.2185 1.9260 3.9024 0.0000 -21178.1640 3435.7930 0.0000 0.0000 1398.9031 -16337.4210 151.1455 -17736.3241 -16334.7195 151.1455 -520.0174 -456.7906 45587.2083 -520.0174 -456.7906
ENERGY: 135000 0.5742 3.9532 3.5487 0.0000 -20721.9618 3409.1071 0.0000 0.0000 1693.9599 -15610.8186 183.0251 -17304.7785 -15606.8127 180.5032 482.2395 579.4059 45227.8895 1.2872 1.1772
ENERGY: 145000 0.6954 3.1792 2.6995 0.0000 -20649.9743 3289.9763 0.0000 0.0000 1643.3218 -15710.1022 177.5539 -17353.4240 -15703.8540 180.1214 -506.2617 -401.2592 45946.5669 0.9599 1.4903
ENERGY: 155000 0.4172 4.5433 3.2378 0.0000 -20572.4577 3228.8187 0.0000 0.0000 1657.0134 -15678.4272 179.0332 -17335.4407 -15673.8904 180.7326 -705.9348 -617.0480 45909.6235 4.6144 4.4589
ENERGY: 165000 0.6288 5.1193 2.8300 0.0000 -20644.9111 3268.9960 0.0000 0.0000 1698.7268 -15668.6102 183.5401 -17367.3369 -15663.6320 180.9960 -388.5481 -356.3052 45769.7587 4.7516 4.1978
ENERGY: 175000 0.6201 2.5774 3.1227 0.0000 -20635.6845 3319.3779 0.0000 0.0000 1659.3057 -15650.6808 179.2809 -17309.9865 -15646.8893 180.1594 -176.7176 -51.1305 45698.9961 0.6207 0.9454
TCL: Running 50000 steps at 210 kelvin.
TCL: Setting parameter langevinTemp to 210
TCL: Running for 50000 steps
ETITLE: TS BOND ANGLE DIHED IMPRP ELECT VDW BOUNDARY MISC KINETIC TOTAL TEMP POTENTIAL TOTAL3 TEMPAVG PRESSURE GPRESSURE VOLUME PRESSAVG GPRESSAVG
ENERGY: 175000 0.6201 2.5774 3.1227 0.0000 -20635.6845 3319.3779 0.0000 0.0000 1658.4640 -15651.5225 179.1899 -17309.9865 -15648.0497 179.1899 -111.1455 -50.8693 45698.9961 -111.1455 -50.8693
ENERGY: 185000 1.2242 2.2304 2.5898 0.0000 -19694.8257 2957.0635 0.0000 0.0000 1951.1238 -14780.5941 210.8106 -16731.7178 -14774.3569 207.6344 -679.9963 -643.9363 45971.0604 0.9410 0.6328
ENERGY: 195000 0.8268 2.4147 3.8469 0.0000 -19650.9957 3013.8982 0.0000 0.0000 1934.1204 -14695.8888 208.9734 -16630.0091 -14693.0429 210.4687 -71.9754 40.7064 45474.3756 2.7890 2.7886
ENERGY: 205000 0.9107 3.7950 3.0977 0.0000 -19492.9483 2834.5864 0.0000 0.0000 1971.4485 -14679.1100 213.0066 -16650.5585 -14678.1543 210.8480 -1010.8647 -919.0110 45534.7699 -1.5308 -2.1419
ENERGY: 215000 0.9572 2.8659 2.5127 0.0000 -19605.8958 2969.1482 0.0000 0.0000 1906.7285 -14723.6834 206.0138 -16630.4120 -14719.2742 210.3007 -196.2915 -81.7694 45288.5101 5.0702 5.2179
ENERGY: 225000 0.8929 2.2341 3.9072 0.0000 -19722.2988 3034.0211 0.0000 0.0000 1963.9560 -14717.2875 212.1970 -16681.2435 -14713.2875 209.7757 134.3322 189.4165 45216.2479 5.9743 5.5840
TCL: Running 50000 steps at 240 kelvin.
TCL: Setting parameter langevinTemp to 240
TCL: Running for 50000 steps
ETITLE: TS BOND ANGLE DIHED IMPRP ELECT VDW BOUNDARY MISC KINETIC TOTAL TEMP POTENTIAL TOTAL3 TEMPAVG PRESSURE GPRESSURE VOLUME PRESSAVG GPRESSAVG
ENERGY: 225000 0.8929 2.2341 3.9072 0.0000 -19722.2988 3034.0211 0.0000 0.0000 1962.9878 -14718.2557 212.0924 -16681.2435 -14714.8066 212.0924 115.9651 189.1344 45216.2479 115.9651 189.1344
ENERGY: 235000 2.4894 3.5364 2.6093 0.0000 -18688.2780 2798.5549 0.0000 0.0000 2253.5557 -13627.5323 243.4870 -15881.0880 -13622.7210 240.5531 613.1964 673.3603 45420.9321 3.8193 3.7368
ENERGY: 245000 1.0721 4.2675 3.1907 0.0000 -18733.5675 2814.8445 0.0000 0.0000 2242.5680 -13667.6246 242.2998 -15910.1926 -13662.5697 239.1923 311.6109 390.3174 46316.1358 6.0712 5.5096
ENERGY: 255000 2.0149 3.3850 3.5478 0.0000 -18615.1582 2649.8760 0.0000 0.0000 2216.8991 -13739.4354 239.5264 -15956.3345 -13735.9187 240.2457 -476.6871 -416.3234 45755.6744 4.6012 4.6980
ENERGY: 265000 1.1636 3.8806 4.1870 0.0000 -18395.7727 2566.2001 0.0000 0.0000 2224.0322 -13596.3091 240.2971 -15820.3413 -13591.8796 240.2602 -502.5509 -399.8538 45777.1652 1.8374 1.8741
ENERGY: 275000 1.6333 4.4032 5.4019 0.0000 -18694.6294 2731.7224 0.0000 0.0000 2152.0998 -13799.3688 232.5251 -15951.4686 -13797.2944 239.6213 -208.7977 -81.8670 46152.2524 2.7903 2.8009
TCL: Running 50000 steps at 270 kelvin.
TCL: Setting parameter langevinTemp to 270
TCL: Running for 50000 steps
ETITLE: TS BOND ANGLE DIHED IMPRP ELECT VDW BOUNDARY MISC KINETIC TOTAL TEMP POTENTIAL TOTAL3 TEMPAVG PRESSURE GPRESSURE VOLUME PRESSAVG GPRESSAVG
ENERGY: 275000 1.6333 4.4032 5.4019 0.0000 -18694.6294 2731.7224 0.0000 0.0000 2150.9881 -13800.4805 232.4050 -15951.4686 -13797.0663 232.4050 -181.7347 -83.0778 46152.2524 -181.7347 -83.0778
ENERGY: 285000 1.3826 3.5863 2.7502 0.0000 -17795.0099 2540.6982 0.0000 0.0000 2514.6801 -12731.9125 271.7004 -15246.5926 -12727.5888 270.0976 549.1890 619.0787 46283.2963 10.1476 10.1741
ENERGY: 295000 0.4937 3.4069 3.1054 0.0000 -17848.1876 2512.4860 0.0000 0.0000 2528.3509 -12800.3448 273.1775 -15328.6957 -12793.8890 269.1025 54.0843 113.6351 46660.5165 1.6106 1.4508
ENERGY: 305000 1.3429 4.9284 2.0850 0.0000 -17788.5820 2469.4476 0.0000 0.0000 2482.9592 -12827.8188 268.2731 -15310.7780 -12819.5330 270.2095 -174.2848 -104.5517 46879.1986 2.9382 2.9659
ENERGY: 315000 2.8354 6.7682 4.1872 0.0000 -17706.1518 2418.9972 0.0000 0.0000 2479.8615 -12793.5023 267.9384 -15273.3638 -12793.6943 268.2310 -477.9811 -359.3172 46923.1548 4.4475 4.5897
ENERGY: 325000 2.3799 5.6141 2.6518 0.0000 -17735.8538 2433.3735 0.0000 0.0000 2464.6688 -12827.1657 266.2969 -15291.8345 -12820.1359 270.3471 -405.1919 -343.3659 46970.5051 0.4505 0.8790
TCL: Running 1000000 steps at 300 kelvin.
TCL: Setting parameter langevinTemp to 300
TCL: Running for 1000000 steps
ETITLE: TS BOND ANGLE DIHED IMPRP ELECT VDW BOUNDARY MISC KINETIC TOTAL TEMP POTENTIAL TOTAL3 TEMPAVG PRESSURE GPRESSURE VOLUME PRESSAVG GPRESSAVG
ENERGY: 325000 2.3799 5.6141 2.6518 0.0000 -17735.8538 2433.3735 0.0000 0.0000 2463.4387 -12828.3958 266.1640 -15291.8345 -12824.5747 266.1640 -420.6306 -342.3050 46970.5051 -420.6306 -342.3050
ENERGY: 525000 0.5575 4.7744 4.6237 0.0000 -17258.5364 2447.3291 0.0000 0.0000 2821.4126 -11979.8390 304.8415 -14801.2516 -11974.8246 298.3668 636.3872 729.8075 47336.6686 0.1609 -0.1203
ENERGY: 725000 2.5245 6.9824 5.9869 0.0000 -16839.6620 2227.4281 0.0000 0.0000 2799.1853 -11797.5549 302.4400 -14596.7402 -11793.2702 300.3774 -598.4969 -508.8126 49395.2886 3.7618 4.0697
ENERGY: 925000 1.6591 3.1826 3.4971 0.0000 -16956.3593 2315.0205 0.0000 0.0000 2718.0861 -11914.9140 293.6775 -14633.0001 -11911.2981 301.7833 232.1794 266.2940 47774.7635 5.5724 6.0811
ENERGY: 1125000 1.4012 6.1384 2.9292 0.0000 -16936.5093 2216.6679 0.0000 0.0000 2797.9260 -11911.4466 302.3039 -14709.3726 -11908.0222 300.7732 -527.7573 -451.1532 47941.9348 1.4476 1.4106
ENERGY: 1325000 0.4493 4.9353 5.8904 0.0000 -16950.5084 2299.9639 0.0000 0.0000 2701.1478 -11938.1216 291.8474 -14639.2694 -11934.6667 300.6595 125.3014 183.8775 47950.8298 3.8177 3.6606
TCL: Exiting due to exit command.
