Info: SIMULATION PARAMETERS:
Info: TIMESTEP               2
Info: NUMBER OF STEPS        0
Info: STEPS PER CYCLE        10
Info: PERIODIC CELL BASIS 1  41.102 0 0
Info: PERIODIC CELL BASIS 2  0 41.432 0
Info: PERIODIC CELL BASIS 3  0 0 43.222
Info: PERIODIC CELL CENTER   0 0 0
Info: WRAPPING WATERS AROUND PERIODIC BOUNDARIES ON OUTPUT.
Info: WRAPPING ALL CLUSTERS AROUND PERIODIC BOUNDARIES ON OUTPUT.
Info: FIRST LDB TIMESTEP     50
Info: LAST LDB TIMESTEP     -1
Info: HOM BACKGROUND SCALING 1
Info: PME BACKGROUND SCALING 1
Info: MIN ATOMS PER PATCH    40
Info: EMPTY PATCH LOAD       40 ATOMS
Info: INITIAL TEMPERATURE    300
Info: CENTER OF MASS MOVING INITIALLY? NO
Info: DIELECTRIC             1
Info: EXCLUDE                SCALED ONE-FOUR
Info: 1-4 ELECTROSTATICS SCALED BY 0.833333
Info: MODIFIED 1-4 VDW PARAMETERS WILL BE USED
Info: DCD FILENAME           mobley_859464_min.dcd
Info: DCD FREQUENCY          5000
Info: DCD FIRST STEP         5000
Info: DCD FILE WILL CONTAIN UNIT CELL DATA
Info: XST FILENAME           mobley_859464_min.xst
Info: XST FREQUENCY          5000
Info: NO VELOCITY DCD OUTPUT
Info: NO FORCE DCD OUTPUT
Info: OUTPUT FILENAME        mobley_859464_min
Info: BINARY OUTPUT FILES WILL BE USED
Info: RESTART FILENAME       mobley_859464_min.restart
Info: RESTART FREQUENCY      5000
Info: BINARY RESTART FILES WILL BE USED
Info: CUTOFF                 9
Info: PAIRLIST DISTANCE      11
Info: PAIRLIST SHRINK RATE   0.01
Info: PAIRLIST GROW RATE     0.01
Info: PAIRLIST TRIGGER       0.3
Info: PAIRLISTS PER CYCLE    2
Info: PAIRLISTS ENABLED
Info: MARGIN                 8
Info: HYDROGEN GROUP CUTOFF  2.5
Info: PATCH DIMENSION        21.5
Info: ENERGY OUTPUT STEPS    5000
Info: ENERGY EVALUATION STEPS    5000
Info: OUTPUT ENERGY PRECISION 4
Info: CROSSTERM ENERGY INCLUDED IN DIHEDRAL
Info: TIMING OUTPUT STEPS    50000
Info: PRESSURE OUTPUT STEPS  5000
Info: LANGEVIN DYNAMICS ACTIVE
Info: LANGEVIN TEMPERATURE   300
Info: LANGEVIN USING BBK INTEGRATOR
Info: LANGEVIN DAMPING COEFFICIENT IS 1 INVERSE PS
Info: LANGEVIN DYNAMICS APPLIED TO HYDROGENS
Info: LANGEVIN PISTON PRESSURE CONTROL ACTIVE
Info:        TARGET PRESSURE IS 1.01325 BAR
Info:     OSCILLATION PERIOD IS 50 FS
Info:             DECAY TIME IS 25 FS
Info:     PISTON TEMPERATURE IS 300 K
Info:       PRESSURE CONTROL IS GROUP-BASED
Info:    INITIAL STRAIN RATE IS 0 0 0
Info:       CELL FLUCTUATION IS ISOTROPIC
Info: PARTICLE MESH EWALD (PME) ACTIVE
Info: PME TOLERANCE               1e-06
Info: PME EWALD COEFFICIENT       0.348832
Info: PME INTERPOLATION ORDER     4
Info: PME GRID DIMENSIONS         44 44 44
Info: PME MAXIMUM GRID SPACING    1
Info: FULL ELECTROSTATIC EVALUATION FREQUENCY      2
Info: USING VERLET I (r-RESPA) MTS SCHEME.
Info: C1 SPLITTING OF LONG RANGE ELECTROSTATICS
Info: PLACING ATOMS IN PATCHES BY HYDROGEN GROUPS
Info: RIGID BONDS TO HYDROGEN : ALL
Info:         ERROR TOLERANCE : 1e-08
Info:          MAX ITERATIONS : 100
Info: RIGID WATER USING SETTLE ALGORITHM
Info: RANDOM NUMBER SEED     1741410170
Info: USE HYDROGEN BONDS?    NO
Info: Using AMBER format force field!
Info: AMBER PARM FILE        mobley_859464.prmtop
Info: COORDINATE PDB         mobley_859464.pdb
Info: Exclusions will be read from PARM file!
Info: SCNB (VDW SCALING)     2
Info: USING ARITHMETIC MEAN TO COMBINE L-J SIGMA PARAMETERS
Info: SUMMARY OF PARAMETERS:
Info: 9 BONDS
Info: 12 ANGLES
Info:   12 HARMONIC
Info:   0 COSINE-BASED
Info: 17 DIHEDRAL
Info: 0 IMPROPER
Info: 0 CROSSTERM
Info: 0 VDW
Info: 36 VDW_PAIRS
Info: 0 NBTHOLE_PAIRS
Info: STRUCTURE SUMMARY:
Info: 5273 ATOMS
Info: 5272 BONDS
Info: 34 ANGLES
Info: 47 DIHEDRALS
Info: 0 IMPROPERS
Info: 0 CROSSTERMS
Info: 5344 EXCLUSIONS
Info: 5265 RIGID BONDS
Info: 10554 DEGREES OF FREEDOM
Info: 1759 HYDROGEN GROUPS
Info: 4 ATOMS IN LARGEST HYDROGEN GROUP
Info: 1759 MIGRATION GROUPS
Info: 4 ATOMS IN LARGEST MIGRATION GROUP
Info: TOTAL MASS = 31662.2 amu
Info: TOTAL CHARGE = -0.000500001 e
Info: MASS DENSITY = 0.714326 g/cm^3
Info: ATOM DENSITY = 0.0716397 atoms/A^3
Info: ADDED 0 IMPLICIT EXCLUSIONS
Info: NONBONDED TABLE R-SQUARED SPACING: 0.0625
Info: NONBONDED TABLE SIZE: 705 POINTS
Info: REMOVING COM VELOCITY 0.045925 0.0707903 0.177792
TCL: Minimizing for 2000 steps
ETITLE: TS BOND ANGLE DIHED IMPRP ELECT VDW BOUNDARY MISC KINETIC TOTAL TEMP POTENTIAL TOTAL3 TEMPAVG PRESSURE GPRESSURE VOLUME PRESSAVG GPRESSAVG
ENERGY: 0 0.2407 1.2213 29.0786 0.0000 -16410.2195 1834.2030 0.0000 0.0000 0.0000 -14545.4758 0.0000 -14545.4758 -14545.4758 0.0000 10978.9243 -15326.8564 73604.3890 10978.9243 -15326.8564
ENERGY: 400 2.2476 5.0102 27.1114 0.0000 -22241.7002 3369.7052 0.0000 0.0000 0.0000 -18837.6258 0.0000 -18837.6258 -18837.6258 0.0000 16360.2561 10891.2281 73604.3890 16360.2561 10891.2281
ENERGY: 800 0.8239 1.5392 27.8790 0.0000 -23120.6281 3690.0727 0.0000 0.0000 0.0000 -19400.3133 0.0000 -19400.3133 -19400.3133 0.0000 17736.7035 12118.2345 73604.3890 17736.7035 12118.2345
ENERGY: 1200 0.5709 1.5064 27.4404 0.0000 -23588.4027 3909.8679 0.0000 0.0000 0.0000 -19649.0171 0.0000 -19649.0171 -19649.0171 0.0000 18710.8271 13063.9666 73604.3890 18710.8271 13063.9666
ENERGY: 1600 0.5173 1.7430 27.3920 0.0000 -23892.8674 4042.0141 0.0000 0.0000 0.0000 -19821.2010 0.0000 -19821.2010 -19821.2010 0.0000 19323.7507 13325.3753 73604.3890 19323.7507 13325.3753
ENERGY: 2000 0.4083 1.7565 27.1571 0.0000 -24078.8690 4134.8337 0.0000 0.0000 0.0000 -19914.7135 0.0000 -19914.7135 -19914.7135 0.0000 19756.1878 13883.5424 73604.3890 19756.1878 13883.5424
TCL: Exiting due to exit command.
Info: NAMD 3.0.1 for Linux-x86_64-multicore
Info: Please visit http://www.ks.uiuc.edu/Research/namd/
Info: for updates, documentation, and support information.
Info: Please cite Phillips et al., J. Chem. Phys. 153:044130 (2020) doi:10.1063/5.0014475
Info: in all publications reporting results obtained with NAMD.
Info: Based on Charm++/Converse 80000 for multicore-linux-x86_64-gcc
Info: Built Mon Oct 14 11:11:06 CDT 2024 by dhardy on athine.ks.uiuc.edu
Info: 1 NAMD  3.0.1  Linux-x86_64-multicore  16    k012  z5358697
Info: Running on 16 processors, 1 nodes, 1 physical nodes.
Info: CPU topology information available.
Info: Charm++/Converse parallel runtime startup completed at 0.00939182 s
Info: 1043.45 MB of memory in use based on /proc/self/stat
Info: Configuration file is mobley_859464_equil.namd
Info: Working in the current directory /srv/scratch/z5358697/prod_prep_11/859464
TCL: Running 25000 steps at 30 kelvin.
TCL: Suspending until startup complete.
Info: SIMULATION PARAMETERS:
Info: TIMESTEP               2
Info: NUMBER OF STEPS        0
Info: STEPS PER CYCLE        10
Info: PERIODIC CELL BASIS 1  41.102 0 0
Info: PERIODIC CELL BASIS 2  0 41.432 0
Info: PERIODIC CELL BASIS 3  0 0 43.222
Info: PERIODIC CELL CENTER   0 0 0
Info: WRAPPING WATERS AROUND PERIODIC BOUNDARIES ON OUTPUT.
Info: WRAPPING ALL CLUSTERS AROUND PERIODIC BOUNDARIES ON OUTPUT.
Info: FIRST LDB TIMESTEP     50
Info: LAST LDB TIMESTEP     -1
Info: HOM BACKGROUND SCALING 1
Info: PME BACKGROUND SCALING 1
Info: MIN ATOMS PER PATCH    40
Info: EMPTY PATCH LOAD       40 ATOMS
Info: INITIAL TEMPERATURE    300
Info: CENTER OF MASS MOVING INITIALLY? NO
Info: DIELECTRIC             1
Info: EXCLUDE                SCALED ONE-FOUR
Info: 1-4 ELECTROSTATICS SCALED BY 0.833333
Info: MODIFIED 1-4 VDW PARAMETERS WILL BE USED
Info: DCD FILENAME           mobley_859464_equil.dcd
Info: DCD FREQUENCY          5000
Info: DCD FIRST STEP         5000
Info: DCD FILE WILL CONTAIN UNIT CELL DATA
Info: XST FILENAME           mobley_859464_equil.xst
Info: XST FREQUENCY          5000
Info: NO VELOCITY DCD OUTPUT
Info: NO FORCE DCD OUTPUT
Info: OUTPUT FILENAME        mobley_859464_equil
Info: BINARY OUTPUT FILES WILL BE USED
Info: RESTART FILENAME       mobley_859464_equil.restart
Info: RESTART FREQUENCY      5000
Info: BINARY RESTART FILES WILL BE USED
Info: CUTOFF                 9
Info: PAIRLIST DISTANCE      11
Info: PAIRLIST SHRINK RATE   0.01
Info: PAIRLIST GROW RATE     0.01
Info: PAIRLIST TRIGGER       0.3
Info: PAIRLISTS PER CYCLE    2
Info: PAIRLISTS ENABLED
Info: MARGIN                 8
Info: HYDROGEN GROUP CUTOFF  2.5
Info: PATCH DIMENSION        21.5
Info: ENERGY OUTPUT STEPS    5000
Info: ENERGY EVALUATION STEPS    5000
Info: OUTPUT ENERGY PRECISION 4
Info: CROSSTERM ENERGY INCLUDED IN DIHEDRAL
Info: TIMING OUTPUT STEPS    50000
Info: PRESSURE OUTPUT STEPS  5000
Info: LANGEVIN DYNAMICS ACTIVE
Info: LANGEVIN TEMPERATURE   30
Info: LANGEVIN USING BBK INTEGRATOR
Info: LANGEVIN DAMPING COEFFICIENT IS 1 INVERSE PS
Info: LANGEVIN DYNAMICS APPLIED TO HYDROGENS
Info: LANGEVIN PISTON PRESSURE CONTROL ACTIVE
Info:        TARGET PRESSURE IS 1.01325 BAR
Info:     OSCILLATION PERIOD IS 50 FS
Info:             DECAY TIME IS 25 FS
Info:     PISTON TEMPERATURE IS 300 K
Info:       PRESSURE CONTROL IS GROUP-BASED
Info:    INITIAL STRAIN RATE IS 0 0 0
Info:       CELL FLUCTUATION IS ISOTROPIC
Info: PARTICLE MESH EWALD (PME) ACTIVE
Info: PME TOLERANCE               1e-06
Info: PME EWALD COEFFICIENT       0.348832
Info: PME INTERPOLATION ORDER     4
Info: PME GRID DIMENSIONS         44 44 44
Info: PME MAXIMUM GRID SPACING    1
Info: FULL ELECTROSTATIC EVALUATION FREQUENCY      2
Info: USING VERLET I (r-RESPA) MTS SCHEME.
Info: C1 SPLITTING OF LONG RANGE ELECTROSTATICS
Info: PLACING ATOMS IN PATCHES BY HYDROGEN GROUPS
Info: RIGID BONDS TO HYDROGEN : ALL
Info:         ERROR TOLERANCE : 1e-08
Info:          MAX ITERATIONS : 100
Info: RIGID WATER USING SETTLE ALGORITHM
Info: RANDOM NUMBER SEED     1741410186
Info: USE HYDROGEN BONDS?    NO
Info: Using AMBER format force field!
Info: AMBER PARM FILE        mobley_859464.prmtop
Info: COORDINATE PDB         mobley_859464.pdb
Info: Exclusions will be read from PARM file!
Info: SCNB (VDW SCALING)     2
Info: USING ARITHMETIC MEAN TO COMBINE L-J SIGMA PARAMETERS
Info: BINARY COORDINATES     mobley_859464_min.coor
Info: SUMMARY OF PARAMETERS:
Info: 9 BONDS
Info: 12 ANGLES
Info:   12 HARMONIC
Info:   0 COSINE-BASED
Info: 17 DIHEDRAL
Info: 0 IMPROPER
Info: 0 CROSSTERM
Info: 0 VDW
Info: 36 VDW_PAIRS
Info: 0 NBTHOLE_PAIRS
Info: STRUCTURE SUMMARY:
Info: 5273 ATOMS
Info: 5272 BONDS
Info: 34 ANGLES
Info: 47 DIHEDRALS
Info: 0 IMPROPERS
Info: 0 CROSSTERMS
Info: 5344 EXCLUSIONS
Info: 5265 RIGID BONDS
Info: 10554 DEGREES OF FREEDOM
Info: 1759 HYDROGEN GROUPS
Info: 4 ATOMS IN LARGEST HYDROGEN GROUP
Info: 1759 MIGRATION GROUPS
Info: 4 ATOMS IN LARGEST MIGRATION GROUP
Info: TOTAL MASS = 31662.2 amu
Info: TOTAL CHARGE = -0.000500001 e
Info: MASS DENSITY = 0.714326 g/cm^3
Info: ATOM DENSITY = 0.0716397 atoms/A^3
Info: ADDED 0 IMPLICIT EXCLUSIONS
Info: NONBONDED TABLE R-SQUARED SPACING: 0.0625
Info: NONBONDED TABLE SIZE: 705 POINTS
Info: REMOVING COM VELOCITY 0.0371201 0.0634169 -0.0992971
TCL: Running for 25000 steps
ETITLE: TS BOND ANGLE DIHED IMPRP ELECT VDW BOUNDARY MISC KINETIC TOTAL TEMP POTENTIAL TOTAL3 TEMPAVG PRESSURE GPRESSURE VOLUME PRESSAVG GPRESSAVG
ENERGY: 0 0.4083 1.7565 27.1571 0.0000 -24078.8690 4134.8337 0.0000 0.0000 3101.3094 -16813.4041 295.7457 -19914.7135 -16812.7745 295.7457 224.3822 262.8423 73604.3890 224.3822 262.8423
ENERGY: 5000 0.0998 2.1360 27.5490 0.0000 -25174.7738 4250.7996 0.0000 0.0000 319.4770 -20574.7124 30.4658 -20894.1894 -20573.6888 47.7925 -529.5661 -451.4206 50964.7628 0.5429 0.7141
ENERGY: 10000 0.2760 1.7130 27.8512 0.0000 -25472.7643 4487.5240 0.0000 0.0000 317.5029 -20637.8972 30.2776 -20955.4001 -20637.2570 30.5441 424.7253 482.0001 50777.2744 3.2642 3.2508
ENERGY: 15000 0.3830 2.7339 27.1535 0.0000 -25493.1250 4469.3604 0.0000 0.0000 316.5817 -20676.9125 30.1897 -20993.4943 -20676.0211 30.1009 292.1349 345.4857 50680.3312 3.2491 3.0264
ENERGY: 20000 0.2587 2.9777 27.6548 0.0000 -25252.9953 4232.8397 0.0000 0.0000 317.0901 -20672.1743 30.2382 -20989.2644 -20671.0677 29.9912 -853.8688 -803.0893 51081.2880 0.7545 0.6770
ENERGY: 25000 0.5520 2.5819 27.1972 0.0000 -25318.0900 4274.1425 0.0000 0.0000 310.6973 -20702.9191 29.6286 -21013.6164 -20701.8621 29.8244 -734.5371 -670.6848 50997.4126 -1.4642 -1.4005
TCL: Running 25000 steps at 60 kelvin.
TCL: Setting parameter langevinTemp to 60
TCL: Running for 25000 steps
ETITLE: TS BOND ANGLE DIHED IMPRP ELECT VDW BOUNDARY MISC KINETIC TOTAL TEMP POTENTIAL TOTAL3 TEMPAVG PRESSURE GPRESSURE VOLUME PRESSAVG GPRESSAVG
ENERGY: 25000 0.5520 2.5819 27.1972 0.0000 -25318.0900 4274.1425 0.0000 0.0000 310.5422 -20703.0742 29.6138 -21013.6164 -20702.3804 29.6138 -733.8618 -670.3947 50997.4126 -733.8618 -670.3947
ENERGY: 30000 0.9440 3.2418 27.6246 0.0000 -25094.0030 4340.6189 0.0000 0.0000 629.0797 -20092.4940 59.9900 -20721.5737 -20090.7875 57.0670 211.6119 284.3162 51130.8636 -0.1315 -0.3721
ENERGY: 35000 0.5060 3.5101 27.4380 0.0000 -25249.0622 4464.2842 0.0000 0.0000 631.9915 -20121.3324 60.2677 -20753.3239 -20120.0401 60.3240 852.5121 906.6138 50773.6008 3.3717 3.8075
ENERGY: 40000 0.1862 3.3877 27.2132 0.0000 -24952.7394 4152.3351 0.0000 0.0000 635.2605 -20134.3566 60.5794 -20769.6171 -20132.8880 59.6322 -648.8075 -615.7688 51217.5409 1.5703 1.6807
ENERGY: 45000 0.8493 3.8542 27.5354 0.0000 -24978.3862 4180.6589 0.0000 0.0000 624.9283 -20140.5601 59.5941 -20765.4884 -20138.9509 60.3977 -632.9864 -570.7600 51254.3366 0.9680 1.2437
ENERGY: 50000 1.3097 3.4951 26.7734 0.0000 -25090.9418 4267.0224 0.0000 0.0000 626.4660 -20165.8752 59.7408 -20792.3412 -20164.4552 59.9179 -288.8261 -234.1000 51170.1122 0.8853 0.8845
TCL: Running 25000 steps at 90 kelvin.
TCL: Setting parameter langevinTemp to 90
TCL: Running for 25000 steps
ETITLE: TS BOND ANGLE DIHED IMPRP ELECT VDW BOUNDARY MISC KINETIC TOTAL TEMP POTENTIAL TOTAL3 TEMPAVG PRESSURE GPRESSURE VOLUME PRESSAVG GPRESSAVG
ENERGY: 50000 1.3097 3.4951 26.7734 0.0000 -25090.9418 4267.0224 0.0000 0.0000 626.1572 -20166.1840 59.7113 -20792.3412 -20164.7611 59.7113 -290.9897 -234.1308 51170.1122 -290.9897 -234.1308
ENERGY: 55000 0.9940 3.5744 28.5360 0.0000 -24791.5560 4264.5317 0.0000 0.0000 940.4517 -19553.4683 89.6829 -20493.9199 -19550.7086 86.4529 403.6512 463.4223 51199.0442 6.2338 6.4933
ENERGY: 60000 0.5315 4.0028 28.8054 0.0000 -24740.3863 4223.4618 0.0000 0.0000 943.2102 -19540.3746 89.9460 -20483.5848 -19538.5399 89.8814 218.1604 267.5007 51286.1287 -1.4316 -1.1586
ENERGY: 65000 0.7249 3.8311 27.9663 0.0000 -24653.6879 4095.1569 0.0000 0.0000 957.1812 -19568.8275 91.2783 -20526.0087 -19566.8558 90.0097 -509.0334 -477.4711 51621.3493 5.0102 4.8932
ENERGY: 70000 0.5545 3.9518 27.9625 0.0000 -24856.9118 4282.7973 0.0000 0.0000 939.1173 -19602.5284 89.5557 -20541.6457 -19599.9388 90.8764 355.2328 404.0486 51213.9701 0.8557 1.0085
ENERGY: 75000 0.7295 3.4218 28.4750 0.0000 -24977.4502 4348.2993 0.0000 0.0000 938.5784 -19657.9462 89.5043 -20596.5246 -19655.4872 89.7930 592.3197 637.6858 51050.3483 5.4242 5.3663
TCL: Running 25000 steps at 120 kelvin.
TCL: Setting parameter langevinTemp to 120
TCL: Running for 25000 steps
ETITLE: TS BOND ANGLE DIHED IMPRP ELECT VDW BOUNDARY MISC KINETIC TOTAL TEMP POTENTIAL TOTAL3 TEMPAVG PRESSURE GPRESSURE VOLUME PRESSAVG GPRESSAVG
ENERGY: 75000 0.7295 3.4218 28.4750 0.0000 -24977.4502 4348.2993 0.0000 0.0000 938.0997 -19658.4248 89.4586 -20596.5246 -19656.4409 89.4586 580.7374 637.5027 51050.3483 580.7374 637.5027
ENERGY: 80000 0.4073 4.9908 29.1629 0.0000 -24469.4603 4151.4235 0.0000 0.0000 1269.1907 -19014.2851 121.0320 -20283.4757 -19011.2048 116.2449 328.5213 401.6288 51170.7739 0.0294 0.6070
ENERGY: 85000 1.0317 4.2679 28.0797 0.0000 -24506.5319 4170.9878 0.0000 0.0000 1252.3426 -19049.8222 119.4253 -20302.1647 -19047.6117 120.3454 386.9756 461.3078 51065.4751 6.8997 7.5565
ENERGY: 90000 1.0305 5.2593 28.6829 0.0000 -24414.8019 4062.0661 0.0000 0.0000 1255.8581 -19061.9050 119.7606 -20317.7632 -19059.2305 120.3986 -229.8643 -170.2978 51406.3962 5.3647 5.1722
ENERGY: 95000 1.5270 5.5316 26.3465 0.0000 -24306.2261 3942.4921 0.0000 0.0000 1295.4432 -19034.8857 123.5355 -20330.3289 -19031.5722 120.5942 -809.1847 -757.9098 51539.2257 -0.7328 -0.3760
ENERGY: 100000 0.4767 4.4063 28.6547 0.0000 -24364.1669 4001.1405 0.0000 0.0000 1244.6616 -19084.8272 118.6929 -20329.4888 -19081.0673 119.4057 -531.2055 -476.8886 51484.1640 -2.2473 -1.6017
TCL: Running 25000 steps at 150 kelvin.
TCL: Setting parameter langevinTemp to 150
TCL: Running for 25000 steps
ETITLE: TS BOND ANGLE DIHED IMPRP ELECT VDW BOUNDARY MISC KINETIC TOTAL TEMP POTENTIAL TOTAL3 TEMPAVG PRESSURE GPRESSURE VOLUME PRESSAVG GPRESSAVG
ENERGY: 100000 0.4767 4.4063 28.6547 0.0000 -24364.1669 4001.1405 0.0000 0.0000 1244.0376 -19085.4511 118.6334 -20329.4888 -19083.1427 118.6334 -529.3578 -476.7916 51484.1640 -529.3578 -476.7916
ENERGY: 105000 0.5026 6.7682 27.8613 0.0000 -23869.6547 3882.8918 0.0000 0.0000 1557.7658 -18393.8649 148.5510 -19951.6308 -18389.3750 145.8939 -285.1499 -217.3898 51438.8499 1.5147 1.4402
ENERGY: 110000 2.2517 5.1600 28.8215 0.0000 -23903.2383 3934.0530 0.0000 0.0000 1613.7311 -18319.2211 153.8879 -19932.9522 -18315.5384 150.2694 38.1341 46.9226 51345.8800 4.9999 4.5718
ENERGY: 115000 0.7736 7.7203 27.1936 0.0000 -23730.5875 3708.0846 0.0000 0.0000 1579.2624 -18407.5531 150.6009 -19986.8154 -18402.4363 150.3074 -1149.2052 -1091.9672 51504.7625 10.9455 10.8006
ENERGY: 120000 0.3259 6.2565 28.4964 0.0000 -24093.1037 4025.4611 0.0000 0.0000 1518.5933 -18513.9704 144.8154 -20032.5636 -18509.4367 150.1449 341.8262 412.0371 50861.7390 0.7977 0.7635
ENERGY: 125000 2.0350 4.0077 27.8389 0.0000 -24174.4270 4059.2325 0.0000 0.0000 1541.2251 -18540.0879 146.9736 -20081.3130 -18535.8517 151.6538 379.3234 455.1631 51155.9723 3.8251 3.5103
TCL: Running 50000 steps at 180 kelvin.
TCL: Setting parameter langevinTemp to 180
TCL: Running for 50000 steps
ETITLE: TS BOND ANGLE DIHED IMPRP ELECT VDW BOUNDARY MISC KINETIC TOTAL TEMP POTENTIAL TOTAL3 TEMPAVG PRESSURE GPRESSURE VOLUME PRESSAVG GPRESSAVG
ENERGY: 125000 2.0350 4.0077 27.8389 0.0000 -24174.4270 4059.2325 0.0000 0.0000 1540.4309 -18540.8821 146.8979 -20081.3130 -18538.0131 146.8979 391.3852 455.3238 51155.9723 391.3852 455.3238
ENERGY: 135000 1.2066 3.8716 28.8891 0.0000 -23338.8455 3784.5647 0.0000 0.0000 1847.2073 -17673.1062 176.1525 -19520.3134 -17668.5957 180.7764 173.2646 238.1476 51443.6794 0.9493 0.4638
ENERGY: 145000 0.9678 6.0851 28.8284 0.0000 -23325.8170 3699.3024 0.0000 0.0000 1893.7846 -17696.8488 180.5942 -19590.6334 -17690.0131 179.4934 -439.2710 -390.7297 51749.2688 0.1846 0.4768
ENERGY: 155000 1.8590 6.6512 29.7993 0.0000 -23447.0658 3860.3245 0.0000 0.0000 1906.7046 -17641.7272 181.8263 -19548.4318 -17636.7414 180.3370 515.9720 557.7097 51430.5324 2.1110 1.9163
ENERGY: 165000 1.7071 5.8731 30.3414 0.0000 -23407.2920 3794.9573 0.0000 0.0000 1882.6645 -17691.7485 179.5338 -19574.4131 -17687.3408 181.0859 169.6440 219.2693 51378.2580 5.8987 5.9501
ENERGY: 175000 0.9681 8.0740 28.1671 0.0000 -23524.0120 3866.4373 0.0000 0.0000 1914.7615 -17705.6039 182.5946 -19620.3654 -17701.1058 180.6208 397.6138 477.6307 51196.2861 2.3171 2.2689
TCL: Running 50000 steps at 210 kelvin.
TCL: Setting parameter langevinTemp to 210
TCL: Running for 50000 steps
ETITLE: TS BOND ANGLE DIHED IMPRP ELECT VDW BOUNDARY MISC KINETIC TOTAL TEMP POTENTIAL TOTAL3 TEMPAVG PRESSURE GPRESSURE VOLUME PRESSAVG GPRESSAVG
ENERGY: 175000 0.9681 8.0740 28.1671 0.0000 -23524.0120 3866.4373 0.0000 0.0000 1913.8303 -17706.5352 182.5058 -19620.3654 -17703.2892 182.5058 414.6945 477.6736 51196.2861 414.6945 477.6736
ENERGY: 185000 1.5741 7.0038 29.2385 0.0000 -22264.0790 3392.6067 0.0000 0.0000 2161.8823 -16671.7736 206.1604 -18833.6559 -16665.8391 210.2912 -185.4584 -128.3330 51638.1039 3.9960 4.2600
ENERGY: 195000 1.8872 5.8331 28.9411 0.0000 -22211.8809 3347.9487 0.0000 0.0000 2215.7423 -16611.5286 211.2966 -18827.2709 -16607.3696 209.7046 -319.1449 -202.6682 51451.7631 6.5571 5.5445
ENERGY: 205000 0.8551 9.4824 30.2302 0.0000 -22238.0832 3438.5071 0.0000 0.0000 2169.1585 -16589.8499 206.8543 -18759.0084 -16584.4163 210.2405 218.7845 321.3527 51259.8758 0.9496 0.3181
ENERGY: 215000 0.4808 8.2727 26.5929 0.0000 -22200.0441 3390.5165 0.0000 0.0000 2218.9826 -16555.1986 211.6056 -18774.1812 -16548.1660 209.6974 -190.1528 -120.9638 51981.2278 5.3542 5.2205
ENERGY: 225000 1.3346 7.3851 27.5935 0.0000 -22348.7453 3527.7548 0.0000 0.0000 2238.3937 -16546.2836 213.4567 -18784.6773 -16538.8355 209.8072 532.0161 599.8808 51714.7253 4.1720 3.7569
TCL: Running 50000 steps at 240 kelvin.
TCL: Setting parameter langevinTemp to 240
TCL: Running for 50000 steps
ETITLE: TS BOND ANGLE DIHED IMPRP ELECT VDW BOUNDARY MISC KINETIC TOTAL TEMP POTENTIAL TOTAL3 TEMPAVG PRESSURE GPRESSURE VOLUME PRESSAVG GPRESSAVG
ENERGY: 225000 1.3346 7.3851 27.5935 0.0000 -22348.7453 3527.7548 0.0000 0.0000 2237.2915 -16547.3858 213.3516 -18784.6773 -16543.1105 213.3516 524.9089 601.0874 51714.7253 524.9089 601.0874
ENERGY: 235000 1.1625 7.3521 26.7214 0.0000 -21124.1626 3066.1717 0.0000 0.0000 2495.2366 -15527.5182 237.9496 -18022.7548 -15523.7022 238.6113 -118.5170 -74.4672 52396.5879 3.0983 2.9530
ENERGY: 245000 1.5384 8.0470 27.9789 0.0000 -21111.5893 3025.2529 0.0000 0.0000 2561.5917 -15487.1805 244.2774 -18048.7722 -15481.1098 241.0969 -166.2788 -66.7221 51820.5245 1.1209 1.1679
ENERGY: 255000 5.0084 8.5396 28.9711 0.0000 -21123.3172 3075.4942 0.0000 0.0000 2463.8675 -15541.4364 234.9582 -18005.3039 -15535.8293 240.1908 121.5322 184.2751 51225.4902 2.9263 2.8278
ENERGY: 265000 2.6174 12.7157 27.3165 0.0000 -21100.6276 3003.4174 0.0000 0.0000 2487.6049 -15566.9557 237.2219 -18054.5606 -15562.7886 239.1732 -456.7640 -369.0084 52095.1715 3.6162 2.7595
ENERGY: 275000 0.9881 5.7779 28.7289 0.0000 -20912.2033 2990.3817 0.0000 0.0000 2518.6222 -15367.7046 240.1797 -17886.3268 -15362.6602 239.9484 -559.3153 -482.8066 53003.8770 1.6218 1.2463
TCL: Running 50000 steps at 270 kelvin.
TCL: Setting parameter langevinTemp to 270
TCL: Running for 50000 steps
ETITLE: TS BOND ANGLE DIHED IMPRP ELECT VDW BOUNDARY MISC KINETIC TOTAL TEMP POTENTIAL TOTAL3 TEMPAVG PRESSURE GPRESSURE VOLUME PRESSAVG GPRESSAVG
ENERGY: 275000 0.9881 5.7779 28.7289 0.0000 -20912.2033 2990.3817 0.0000 0.0000 2517.3573 -15368.9695 240.0591 -17886.3268 -15364.5694 240.0591 -562.9907 -482.8213 53003.8770 -562.9907 -482.8213
ENERGY: 285000 2.0944 10.8146 28.7319 0.0000 -20290.1728 2816.4650 0.0000 0.0000 2800.5557 -14631.5112 267.0653 -17432.0668 -14624.2673 268.9409 -166.7939 -107.9331 52707.8045 2.9432 2.6829
ENERGY: 295000 2.7665 12.4792 31.5594 0.0000 -19897.4582 2699.1491 0.0000 0.0000 2837.5038 -14314.0001 270.5888 -17151.5039 -14305.3392 270.0496 -302.7824 -193.9015 53182.7088 2.2378 2.5089
ENERGY: 305000 1.0066 7.0746 28.1961 0.0000 -19987.3177 2813.3628 0.0000 0.0000 2812.5331 -14325.1445 268.2075 -17137.6776 -14317.5263 269.8917 132.3961 265.0540 53038.3448 -0.1315 -0.2671
ENERGY: 315000 2.7648 9.9853 29.3309 0.0000 -20104.9165 2797.5976 0.0000 0.0000 2791.0050 -14474.2329 266.1546 -17265.2379 -14467.4579 268.1564 -115.7084 -27.6313 52947.5064 -0.2108 -0.3305
ENERGY: 325000 1.4748 10.2429 27.5155 0.0000 -20265.1267 2927.4896 0.0000 0.0000 2865.9849 -14432.4190 273.3048 -17298.4039 -14428.0229 268.4269 538.9109 595.2356 52606.0353 3.2446 3.0592
TCL: Running 1000000 steps at 300 kelvin.
TCL: Setting parameter langevinTemp to 300
TCL: Running for 1000000 steps
ETITLE: TS BOND ANGLE DIHED IMPRP ELECT VDW BOUNDARY MISC KINETIC TOTAL TEMP POTENTIAL TOTAL3 TEMPAVG PRESSURE GPRESSURE VOLUME PRESSAVG GPRESSAVG
ENERGY: 325000 1.4748 10.2429 27.5155 0.0000 -20265.1267 2927.4896 0.0000 0.0000 2864.6160 -14433.7878 273.1742 -17298.4039 -14429.5807 273.1742 503.7480 594.8093 52606.0353 503.7480 594.8093
ENERGY: 525000 0.8523 6.1026 29.2709 0.0000 -18979.7524 2507.9712 0.0000 0.0000 3140.9121 -13294.6432 299.5222 -16435.5553 -13286.0059 300.2213 -256.0661 -223.9776 55183.2620 3.0941 2.7491
ENERGY: 725000 2.5064 7.1975 27.9949 0.0000 -19263.5379 2617.6215 0.0000 0.0000 3170.7003 -13437.5171 302.3629 -16608.2174 -13432.7836 300.9696 -10.6888 109.8190 54279.6544 2.2723 2.4090
ENERGY: 925000 0.7980 4.3553 29.6421 0.0000 -19165.4638 2544.8314 0.0000 0.0000 3166.4020 -13419.4350 301.9530 -16585.8370 -13415.1238 300.6808 -103.0235 -20.4986 53932.7703 3.5644 3.9431
ENERGY: 1125000 0.9862 11.6326 27.8149 0.0000 -19097.8930 2526.5700 0.0000 0.0000 3176.0922 -13354.7971 302.8771 -16530.8893 -13351.4628 299.9447 -117.7057 -10.5891 54025.0941 5.2957 5.2670
ENERGY: 1325000 0.9728 7.5719 29.8147 0.0000 -19110.2201 2546.2217 0.0000 0.0000 3158.6432 -13366.9958 301.2131 -16525.6390 -13358.7123 300.8466 15.5479 102.3742 53766.4042 5.2263 4.8908
TCL: Exiting due to exit command.
