Info: SIMULATION PARAMETERS:
Info: TIMESTEP               2
Info: NUMBER OF STEPS        0
Info: STEPS PER CYCLE        10
Info: PERIODIC CELL BASIS 1  41.545 0 0
Info: PERIODIC CELL BASIS 2  0 39.303 0
Info: PERIODIC CELL BASIS 3  0 0 41.374
Info: PERIODIC CELL CENTER   0 0 0
Info: WRAPPING WATERS AROUND PERIODIC BOUNDARIES ON OUTPUT.
Info: WRAPPING ALL CLUSTERS AROUND PERIODIC BOUNDARIES ON OUTPUT.
Info: FIRST LDB TIMESTEP     50
Info: LAST LDB TIMESTEP     -1
Info: HOM BACKGROUND SCALING 1
Info: PME BACKGROUND SCALING 1
Info: MIN ATOMS PER PATCH    40
Info: EMPTY PATCH LOAD       40 ATOMS
Info: INITIAL TEMPERATURE    300
Info: CENTER OF MASS MOVING INITIALLY? NO
Info: DIELECTRIC             1
Info: EXCLUDE                SCALED ONE-FOUR
Info: 1-4 ELECTROSTATICS SCALED BY 0.833333
Info: MODIFIED 1-4 VDW PARAMETERS WILL BE USED
Info: DCD FILENAME           mobley_7176290_min.dcd
Info: DCD FREQUENCY          5000
Info: DCD FIRST STEP         5000
Info: DCD FILE WILL CONTAIN UNIT CELL DATA
Info: XST FILENAME           mobley_7176290_min.xst
Info: XST FREQUENCY          5000
Info: NO VELOCITY DCD OUTPUT
Info: NO FORCE DCD OUTPUT
Info: OUTPUT FILENAME        mobley_7176290_min
Info: BINARY OUTPUT FILES WILL BE USED
Info: RESTART FILENAME       mobley_7176290_min.restart
Info: RESTART FREQUENCY      5000
Info: BINARY RESTART FILES WILL BE USED
Info: CUTOFF                 9
Info: PAIRLIST DISTANCE      11
Info: PAIRLIST SHRINK RATE   0.01
Info: PAIRLIST GROW RATE     0.01
Info: PAIRLIST TRIGGER       0.3
Info: PAIRLISTS PER CYCLE    2
Info: PAIRLISTS ENABLED
Info: MARGIN                 8
Info: HYDROGEN GROUP CUTOFF  2.5
Info: PATCH DIMENSION        21.5
Info: ENERGY OUTPUT STEPS    5000
Info: ENERGY EVALUATION STEPS    5000
Info: OUTPUT ENERGY PRECISION 4
Info: CROSSTERM ENERGY INCLUDED IN DIHEDRAL
Info: TIMING OUTPUT STEPS    50000
Info: PRESSURE OUTPUT STEPS  5000
Info: LANGEVIN DYNAMICS ACTIVE
Info: LANGEVIN TEMPERATURE   300
Info: LANGEVIN USING BBK INTEGRATOR
Info: LANGEVIN DAMPING COEFFICIENT IS 1 INVERSE PS
Info: LANGEVIN DYNAMICS APPLIED TO HYDROGENS
Info: LANGEVIN PISTON PRESSURE CONTROL ACTIVE
Info:        TARGET PRESSURE IS 1.01325 BAR
Info:     OSCILLATION PERIOD IS 50 FS
Info:             DECAY TIME IS 25 FS
Info:     PISTON TEMPERATURE IS 300 K
Info:       PRESSURE CONTROL IS GROUP-BASED
Info:    INITIAL STRAIN RATE IS 0 0 0
Info:       CELL FLUCTUATION IS ISOTROPIC
Info: PARTICLE MESH EWALD (PME) ACTIVE
Info: PME TOLERANCE               1e-06
Info: PME EWALD COEFFICIENT       0.348832
Info: PME INTERPOLATION ORDER     4
Info: PME GRID DIMENSIONS         44 40 44
Info: PME MAXIMUM GRID SPACING    1
Info: FULL ELECTROSTATIC EVALUATION FREQUENCY      2
Info: USING VERLET I (r-RESPA) MTS SCHEME.
Info: C1 SPLITTING OF LONG RANGE ELECTROSTATICS
Info: PLACING ATOMS IN PATCHES BY HYDROGEN GROUPS
Info: RIGID BONDS TO HYDROGEN : ALL
Info:         ERROR TOLERANCE : 1e-08
Info:          MAX ITERATIONS : 100
Info: RIGID WATER USING SETTLE ALGORITHM
Info: RANDOM NUMBER SEED     1741388610
Info: USE HYDROGEN BONDS?    NO
Info: Using AMBER format force field!
Info: AMBER PARM FILE        mobley_7176290.prmtop
Info: COORDINATE PDB         mobley_7176290.pdb
Info: Exclusions will be read from PARM file!
Info: SCNB (VDW SCALING)     2
Info: USING ARITHMETIC MEAN TO COMBINE L-J SIGMA PARAMETERS
Info: SUMMARY OF PARAMETERS:
Info: 8 BONDS
Info: 7 ANGLES
Info:   7 HARMONIC
Info:   0 COSINE-BASED
Info: 4 DIHEDRAL
Info: 0 IMPROPER
Info: 0 CROSSTERM
Info: 0 VDW
Info: 36 VDW_PAIRS
Info: 0 NBTHOLE_PAIRS
Info: STRUCTURE SUMMARY:
Info: 4926 ATOMS
Info: 4926 BONDS
Info: 22 ANGLES
Info: 34 DIHEDRALS
Info: 0 IMPROPERS
Info: 0 CROSSTERMS
Info: 4975 EXCLUSIONS
Info: 4916 RIGID BONDS
Info: 9862 DEGREES OF FREEDOM
Info: 1647 HYDROGEN GROUPS
Info: 3 ATOMS IN LARGEST HYDROGEN GROUP
Info: 1647 MIGRATION GROUPS
Info: 3 ATOMS IN LARGEST MIGRATION GROUP
Info: TOTAL MASS = 29631.3 amu
Info: TOTAL CHARGE = -0.000200011 e
Info: MASS DENSITY = 0.728346 g/cm^3
Info: ATOM DENSITY = 0.0729159 atoms/A^3
Info: ADDED 0 IMPLICIT EXCLUSIONS
Info: NONBONDED TABLE R-SQUARED SPACING: 0.0625
Info: NONBONDED TABLE SIZE: 705 POINTS
Info: REMOVING COM VELOCITY 0.157371 -0.106465 -0.00386934
TCL: Minimizing for 2000 steps
ETITLE: TS BOND ANGLE DIHED IMPRP ELECT VDW BOUNDARY MISC KINETIC TOTAL TEMP POTENTIAL TOTAL3 TEMPAVG PRESSURE GPRESSURE VOLUME PRESSAVG GPRESSAVG
ENERGY: 0 1.0448 0.5670 0.0001 0.0000 -15452.3110 1766.7704 0.0000 0.0000 0.0000 -13683.9287 0.0000 -13683.9287 -13683.9287 0.0000 11347.2373 -15948.9230 67557.2519 11347.2373 -15948.9230
ENERGY: 400 3.5586 1.4856 0.2818 0.0000 -21006.8292 3276.4134 0.0000 0.0000 0.0000 -17725.0898 0.0000 -17725.0898 -17725.0898 0.0000 17167.5048 17038.5202 67557.2519 17167.5048 17038.5202
ENERGY: 800 0.8940 0.6027 0.7631 0.0000 -21798.4347 3526.6949 0.0000 0.0000 0.0000 -18269.4800 0.0000 -18269.4800 -18269.4800 0.0000 18337.8798 18173.9938 67557.2519 18337.8798 18173.9938
ENERGY: 1200 4.3680 2.3458 0.8506 0.0000 -22153.2566 3703.2612 0.0000 0.0000 0.0000 -18442.4311 0.0000 -18442.4311 -18442.4311 0.0000 19170.9052 18989.0306 67557.2519 19170.9052 18989.0306
ENERGY: 1600 26.5733 8.5991 0.5809 0.0000 -22433.8912 3861.3376 0.0000 0.0000 0.0000 -18536.8003 0.0000 -18536.8003 -18536.8003 0.0000 19951.3953 19702.6464 67557.2519 19951.3953 19702.6464
ENERGY: 2000 0.5487 0.3572 0.7990 0.0000 -22562.1211 3896.8280 0.0000 0.0000 0.0000 -18663.5881 0.0000 -18663.5881 -18663.5881 0.0000 20179.0098 19907.1030 67557.2519 20179.0098 19907.1030
TCL: Exiting due to exit command.
Info: NAMD 3.0.1 for Linux-x86_64-multicore
Info: Please visit http://www.ks.uiuc.edu/Research/namd/
Info: for updates, documentation, and support information.
Info: Please cite Phillips et al., J. Chem. Phys. 153:044130 (2020) doi:10.1063/5.0014475
Info: in all publications reporting results obtained with NAMD.
Info: Based on Charm++/Converse 80000 for multicore-linux-x86_64-gcc
Info: Built Mon Oct 14 11:11:06 CDT 2024 by dhardy on athine.ks.uiuc.edu
Info: 1 NAMD  3.0.1  Linux-x86_64-multicore  16    k011  z5358697
Info: Running on 16 processors, 1 nodes, 1 physical nodes.
Info: CPU topology information available.
Info: Charm++/Converse parallel runtime startup completed at 0.00957545 s
Info: 1043.45 MB of memory in use based on /proc/self/stat
Info: Configuration file is mobley_7176290_equil.namd
Info: Working in the current directory /srv/scratch/z5358697/prod_prep_9/7176290
TCL: Running 25000 steps at 30 kelvin.
TCL: Suspending until startup complete.
Info: SIMULATION PARAMETERS:
Info: TIMESTEP               2
Info: NUMBER OF STEPS        0
Info: STEPS PER CYCLE        10
Info: PERIODIC CELL BASIS 1  41.545 0 0
Info: PERIODIC CELL BASIS 2  0 39.303 0
Info: PERIODIC CELL BASIS 3  0 0 41.374
Info: PERIODIC CELL CENTER   0 0 0
Info: WRAPPING WATERS AROUND PERIODIC BOUNDARIES ON OUTPUT.
Info: WRAPPING ALL CLUSTERS AROUND PERIODIC BOUNDARIES ON OUTPUT.
Info: FIRST LDB TIMESTEP     50
Info: LAST LDB TIMESTEP     -1
Info: HOM BACKGROUND SCALING 1
Info: PME BACKGROUND SCALING 1
Info: MIN ATOMS PER PATCH    40
Info: EMPTY PATCH LOAD       40 ATOMS
Info: INITIAL TEMPERATURE    300
Info: CENTER OF MASS MOVING INITIALLY? NO
Info: DIELECTRIC             1
Info: EXCLUDE                SCALED ONE-FOUR
Info: 1-4 ELECTROSTATICS SCALED BY 0.833333
Info: MODIFIED 1-4 VDW PARAMETERS WILL BE USED
Info: DCD FILENAME           mobley_7176290_equil.dcd
Info: DCD FREQUENCY          5000
Info: DCD FIRST STEP         5000
Info: DCD FILE WILL CONTAIN UNIT CELL DATA
Info: XST FILENAME           mobley_7176290_equil.xst
Info: XST FREQUENCY          5000
Info: NO VELOCITY DCD OUTPUT
Info: NO FORCE DCD OUTPUT
Info: OUTPUT FILENAME        mobley_7176290_equil
Info: BINARY OUTPUT FILES WILL BE USED
Info: RESTART FILENAME       mobley_7176290_equil.restart
Info: RESTART FREQUENCY      5000
Info: BINARY RESTART FILES WILL BE USED
Info: CUTOFF                 9
Info: PAIRLIST DISTANCE      11
Info: PAIRLIST SHRINK RATE   0.01
Info: PAIRLIST GROW RATE     0.01
Info: PAIRLIST TRIGGER       0.3
Info: PAIRLISTS PER CYCLE    2
Info: PAIRLISTS ENABLED
Info: MARGIN                 8
Info: HYDROGEN GROUP CUTOFF  2.5
Info: PATCH DIMENSION        21.5
Info: ENERGY OUTPUT STEPS    5000
Info: ENERGY EVALUATION STEPS    5000
Info: OUTPUT ENERGY PRECISION 4
Info: CROSSTERM ENERGY INCLUDED IN DIHEDRAL
Info: TIMING OUTPUT STEPS    50000
Info: PRESSURE OUTPUT STEPS  5000
Info: LANGEVIN DYNAMICS ACTIVE
Info: LANGEVIN TEMPERATURE   30
Info: LANGEVIN USING BBK INTEGRATOR
Info: LANGEVIN DAMPING COEFFICIENT IS 1 INVERSE PS
Info: LANGEVIN DYNAMICS APPLIED TO HYDROGENS
Info: LANGEVIN PISTON PRESSURE CONTROL ACTIVE
Info:        TARGET PRESSURE IS 1.01325 BAR
Info:     OSCILLATION PERIOD IS 50 FS
Info:             DECAY TIME IS 25 FS
Info:     PISTON TEMPERATURE IS 300 K
Info:       PRESSURE CONTROL IS GROUP-BASED
Info:    INITIAL STRAIN RATE IS 0 0 0
Info:       CELL FLUCTUATION IS ISOTROPIC
Info: PARTICLE MESH EWALD (PME) ACTIVE
Info: PME TOLERANCE               1e-06
Info: PME EWALD COEFFICIENT       0.348832
Info: PME INTERPOLATION ORDER     4
Info: PME GRID DIMENSIONS         44 40 44
Info: PME MAXIMUM GRID SPACING    1
Info: FULL ELECTROSTATIC EVALUATION FREQUENCY      2
Info: USING VERLET I (r-RESPA) MTS SCHEME.
Info: C1 SPLITTING OF LONG RANGE ELECTROSTATICS
Info: PLACING ATOMS IN PATCHES BY HYDROGEN GROUPS
Info: RIGID BONDS TO HYDROGEN : ALL
Info:         ERROR TOLERANCE : 1e-08
Info:          MAX ITERATIONS : 100
Info: RIGID WATER USING SETTLE ALGORITHM
Info: RANDOM NUMBER SEED     1741388626
Info: USE HYDROGEN BONDS?    NO
Info: Using AMBER format force field!
Info: AMBER PARM FILE        mobley_7176290.prmtop
Info: COORDINATE PDB         mobley_7176290.pdb
Info: Exclusions will be read from PARM file!
Info: SCNB (VDW SCALING)     2
Info: USING ARITHMETIC MEAN TO COMBINE L-J SIGMA PARAMETERS
Info: BINARY COORDINATES     mobley_7176290_min.coor
Info: SUMMARY OF PARAMETERS:
Info: 8 BONDS
Info: 7 ANGLES
Info:   7 HARMONIC
Info:   0 COSINE-BASED
Info: 4 DIHEDRAL
Info: 0 IMPROPER
Info: 0 CROSSTERM
Info: 0 VDW
Info: 36 VDW_PAIRS
Info: 0 NBTHOLE_PAIRS
Info: STRUCTURE SUMMARY:
Info: 4926 ATOMS
Info: 4926 BONDS
Info: 22 ANGLES
Info: 34 DIHEDRALS
Info: 0 IMPROPERS
Info: 0 CROSSTERMS
Info: 4975 EXCLUSIONS
Info: 4916 RIGID BONDS
Info: 9862 DEGREES OF FREEDOM
Info: 1647 HYDROGEN GROUPS
Info: 3 ATOMS IN LARGEST HYDROGEN GROUP
Info: 1647 MIGRATION GROUPS
Info: 3 ATOMS IN LARGEST MIGRATION GROUP
Info: TOTAL MASS = 29631.3 amu
Info: TOTAL CHARGE = -0.000200011 e
Info: MASS DENSITY = 0.728346 g/cm^3
Info: ATOM DENSITY = 0.0729159 atoms/A^3
Info: ADDED 0 IMPLICIT EXCLUSIONS
Info: NONBONDED TABLE R-SQUARED SPACING: 0.0625
Info: NONBONDED TABLE SIZE: 705 POINTS
Info: REMOVING COM VELOCITY -0.0636899 -0.0215314 0.0956932
TCL: Running for 25000 steps
ETITLE: TS BOND ANGLE DIHED IMPRP ELECT VDW BOUNDARY MISC KINETIC TOTAL TEMP POTENTIAL TOTAL3 TEMPAVG PRESSURE GPRESSURE VOLUME PRESSAVG GPRESSAVG
ENERGY: 0 0.5487 0.3572 0.7990 0.0000 -22562.1211 3896.8280 0.0000 0.0000 2918.1791 -15745.4090 297.8087 -18663.5881 -15744.8169 297.8087 226.4480 261.8561 67557.2519 226.4480 261.8561
ENERGY: 5000 0.4545 0.5718 0.7866 0.0000 -23636.4700 4095.6663 0.0000 0.0000 294.1620 -19244.8288 30.0201 -19538.9909 -19244.1350 47.9608 -60.9045 7.0538 48218.5773 0.8575 0.9865
ENERGY: 10000 0.2761 0.5920 0.6903 0.0000 -23844.2628 4271.6711 0.0000 0.0000 291.6147 -19279.4187 29.7601 -19571.0333 -19278.6020 30.0965 786.3667 819.0498 48060.7016 6.4926 6.5084
ENERGY: 15000 0.5129 0.7119 0.6344 0.0000 -23603.9805 4019.7042 0.0000 0.0000 299.6244 -19282.7926 30.5775 -19582.4171 -19282.0130 30.1302 -516.2698 -484.1194 48298.1829 3.2666 3.1386
ENERGY: 20000 0.4355 0.3360 1.0818 0.0000 -23786.8557 4194.6412 0.0000 0.0000 295.5013 -19294.8599 30.1568 -19590.3612 -19294.1919 30.3988 346.2088 409.4947 48012.9448 -1.5213 -1.4970
ENERGY: 25000 0.9820 0.6279 1.2304 0.0000 -23641.4405 4039.3122 0.0000 0.0000 297.8304 -19301.4577 30.3945 -19599.2881 -19300.8571 30.0834 -478.3522 -419.2392 48257.1590 3.4491 3.5399
TCL: Running 25000 steps at 60 kelvin.
TCL: Setting parameter langevinTemp to 60
TCL: Running for 25000 steps
ETITLE: TS BOND ANGLE DIHED IMPRP ELECT VDW BOUNDARY MISC KINETIC TOTAL TEMP POTENTIAL TOTAL3 TEMPAVG PRESSURE GPRESSURE VOLUME PRESSAVG GPRESSAVG
ENERGY: 25000 0.9820 0.6279 1.2304 0.0000 -23641.4405 4039.3122 0.0000 0.0000 297.6814 -19301.6067 30.3793 -19599.2881 -19300.9750 30.3793 -469.7859 -419.3838 48257.1590 -469.7859 -419.3838
ENERGY: 30000 1.2095 0.6823 1.2928 0.0000 -23385.1399 4060.3274 0.0000 0.0000 581.1244 -18740.5035 59.3054 -19321.6279 -18739.6038 56.7338 336.1850 386.8407 47951.5319 4.5982 4.6371
ENERGY: 35000 0.7032 1.8835 0.9080 0.0000 -23265.2786 3900.7280 0.0000 0.0000 594.4916 -18766.5643 60.6696 -19361.0559 -18764.1437 59.9571 -637.1674 -580.4843 48536.1223 0.9275 1.3115
ENERGY: 40000 1.3212 0.9460 0.7667 0.0000 -23366.8460 3965.7194 0.0000 0.0000 585.1839 -18812.9088 59.7197 -19398.0927 -18811.3684 60.0644 -382.7020 -364.0839 48447.0973 4.5152 4.2208
ENERGY: 45000 0.9355 1.4018 0.9189 0.0000 -23463.1960 4057.6018 0.0000 0.0000 606.5824 -18795.7555 61.9035 -19402.3380 -18793.9882 59.8698 115.7090 201.6960 48040.0987 6.1810 5.9861
ENERGY: 50000 0.5089 1.0690 1.3331 0.0000 -23348.1420 3920.9255 0.0000 0.0000 595.9658 -18828.3398 60.8200 -19424.3056 -18827.1489 60.1397 -608.1891 -580.2851 48410.8260 4.5490 4.3701
TCL: Running 25000 steps at 90 kelvin.
TCL: Setting parameter langevinTemp to 90
TCL: Running for 25000 steps
ETITLE: TS BOND ANGLE DIHED IMPRP ELECT VDW BOUNDARY MISC KINETIC TOTAL TEMP POTENTIAL TOTAL3 TEMPAVG PRESSURE GPRESSURE VOLUME PRESSAVG GPRESSAVG
ENERGY: 50000 0.5089 1.0690 1.3331 0.0000 -23348.1420 3920.9255 0.0000 0.0000 595.6700 -18828.6356 60.7899 -19424.3056 -18827.5355 60.7899 -631.9830 -580.1510 48410.8260 -631.9830 -580.1510
ENERGY: 55000 0.7202 1.1483 2.0721 0.0000 -23368.2024 4214.5501 0.0000 0.0000 889.7752 -18259.9365 90.8041 -19149.7117 -18257.8625 87.5088 1534.9709 1589.4756 48020.7029 4.8934 4.4800
ENERGY: 60000 0.5500 0.8475 1.4536 0.0000 -23159.4714 3954.9126 0.0000 0.0000 876.9201 -18324.7876 89.4922 -19201.7077 -18323.3458 90.3938 78.2711 124.0159 48358.6050 2.8225 2.7099
ENERGY: 65000 2.1100 1.2128 1.5999 0.0000 -23171.3388 3923.0567 0.0000 0.0000 875.6332 -18367.7263 89.3609 -19243.3595 -18365.9566 89.9516 -261.2843 -215.8452 48421.7321 4.7026 4.8823
ENERGY: 70000 1.4140 1.0076 1.6271 0.0000 -23151.1938 3915.2089 0.0000 0.0000 896.5679 -18335.3684 91.4974 -19231.9363 -18333.7233 90.5508 -267.6660 -193.1665 48401.1104 4.1384 3.7296
ENERGY: 75000 0.8272 1.4634 1.9300 0.0000 -23139.9991 3893.6243 0.0000 0.0000 871.0382 -18371.1161 88.8920 -19242.1543 -18369.4809 90.5021 -441.1355 -364.0331 48569.1356 -2.2324 -1.8992
TCL: Running 25000 steps at 120 kelvin.
TCL: Setting parameter langevinTemp to 120
TCL: Running for 25000 steps
ETITLE: TS BOND ANGLE DIHED IMPRP ELECT VDW BOUNDARY MISC KINETIC TOTAL TEMP POTENTIAL TOTAL3 TEMPAVG PRESSURE GPRESSURE VOLUME PRESSAVG GPRESSAVG
ENERGY: 75000 0.8272 1.4634 1.9300 0.0000 -23139.9991 3893.6243 0.0000 0.0000 870.5977 -18371.5566 88.8470 -19242.1543 -18369.7968 88.8470 -417.6744 -364.0797 48569.1356 -417.6744 -364.0797
ENERGY: 80000 1.7692 1.3107 1.6332 0.0000 -22771.5115 3877.3951 0.0000 0.0000 1189.1009 -17700.3024 121.3512 -18889.4033 -17697.1414 117.2558 274.1747 318.4975 48778.8706 -0.3046 -0.2404
ENERGY: 85000 1.0957 1.8907 1.9882 0.0000 -22873.3567 3902.2482 0.0000 0.0000 1193.5068 -17772.6270 121.8008 -18966.1338 -17769.5549 121.5677 401.2130 413.5774 48491.8697 3.5909 3.4384
ENERGY: 90000 1.6761 0.9095 4.6347 0.0000 -22939.1461 3941.3190 0.0000 0.0000 1147.6797 -17842.9271 117.1240 -18990.6068 -17841.4497 120.3192 376.6390 447.5899 48279.2647 4.1013 4.3943
ENERGY: 95000 2.7971 1.1769 2.0113 0.0000 -22880.1015 3878.6131 0.0000 0.0000 1179.6661 -17815.8370 120.3884 -18995.5031 -17812.5954 120.3769 57.0449 114.5982 48405.2100 0.7780 0.5809
ENERGY: 100000 1.3014 2.6602 1.6208 0.0000 -23059.0811 3988.9500 0.0000 0.0000 1162.4077 -17902.1409 118.6271 -19064.5487 -17898.2952 119.9060 582.1403 626.2040 48162.2207 0.1336 0.3383
TCL: Running 25000 steps at 150 kelvin.
TCL: Setting parameter langevinTemp to 150
TCL: Running for 25000 steps
ETITLE: TS BOND ANGLE DIHED IMPRP ELECT VDW BOUNDARY MISC KINETIC TOTAL TEMP POTENTIAL TOTAL3 TEMPAVG PRESSURE GPRESSURE VOLUME PRESSAVG GPRESSAVG
ENERGY: 100000 1.3014 2.6602 1.6208 0.0000 -23059.0811 3988.9500 0.0000 0.0000 1161.8163 -17902.7324 118.5667 -19064.5487 -17900.3592 118.5667 578.9884 626.1882 48162.2207 578.9884 626.1882
ENERGY: 105000 0.7321 3.2552 1.0855 0.0000 -22396.3189 3713.5601 0.0000 0.0000 1424.9776 -17252.7084 145.4231 -18677.6860 -17250.2610 146.6163 155.6560 176.9676 48143.0977 3.4645 3.9924
ENERGY: 110000 2.4304 1.6083 1.5177 0.0000 -22336.6274 3659.0727 0.0000 0.0000 1468.4914 -17203.5068 149.8638 -18671.9983 -17199.9552 150.5190 -305.3977 -234.8394 48312.5645 4.8217 5.3331
ENERGY: 115000 1.7184 2.0063 1.4662 0.0000 -22605.0446 3810.0190 0.0000 0.0000 1461.7670 -17328.0676 149.1776 -18789.8346 -17324.9413 150.3779 267.3101 330.9993 48182.1896 -2.6426 -2.9120
ENERGY: 120000 3.4100 3.5947 1.7664 0.0000 -22417.8969 3664.3665 0.0000 0.0000 1470.0159 -17274.7433 150.0194 -18744.7593 -17270.8015 150.2127 -263.3071 -197.6615 48091.8910 7.0067 6.9440
ENERGY: 125000 1.2273 3.1124 0.8042 0.0000 -22711.0800 3911.8604 0.0000 0.0000 1481.6693 -17312.4067 151.2087 -18794.0759 -17310.5927 149.3557 983.3403 1026.7206 47871.3890 2.3511 2.0736
TCL: Running 50000 steps at 180 kelvin.
TCL: Setting parameter langevinTemp to 180
TCL: Running for 50000 steps
ETITLE: TS BOND ANGLE DIHED IMPRP ELECT VDW BOUNDARY MISC KINETIC TOTAL TEMP POTENTIAL TOTAL3 TEMPAVG PRESSURE GPRESSURE VOLUME PRESSAVG GPRESSAVG
ENERGY: 125000 1.2273 3.1124 0.8042 0.0000 -22711.0800 3911.8604 0.0000 0.0000 1480.9448 -17313.1311 151.1347 -18794.0759 -17310.9604 151.1347 971.9084 1025.9388 47871.3890 971.9084 1025.9388
ENERGY: 135000 2.1411 1.3696 1.8591 0.0000 -21778.2557 3468.7199 0.0000 0.0000 1815.6952 -16488.4709 185.2970 -18304.1661 -16483.6434 181.1100 -195.4729 -164.4197 48600.6392 1.6330 1.3504
ENERGY: 145000 2.4350 1.6676 2.7076 0.0000 -22065.3204 3725.7247 0.0000 0.0000 1764.9843 -16567.8012 180.1218 -18332.7855 -16563.1265 180.6203 839.5920 905.4657 48355.0171 2.1214 2.1218
ENERGY: 155000 2.7832 1.8293 3.4502 0.0000 -21995.7277 3641.4862 0.0000 0.0000 1771.8198 -16574.3589 180.8194 -18346.1787 -16570.2719 178.9751 521.2733 523.1847 48064.7862 3.6586 3.9059
ENERGY: 165000 1.5654 1.5978 3.2600 0.0000 -21876.5664 3540.5845 0.0000 0.0000 1782.0297 -16547.5291 181.8613 -18329.5588 -16543.4695 179.0657 64.2831 114.3318 48428.6503 3.8148 3.5256
ENERGY: 175000 2.1382 1.1754 1.7307 0.0000 -22006.9108 3582.3427 0.0000 0.0000 1773.7430 -16645.7809 181.0156 -18419.5239 -16643.2205 179.9681 166.3777 200.4305 48003.9687 2.9951 2.8462
TCL: Running 50000 steps at 210 kelvin.
TCL: Setting parameter langevinTemp to 210
TCL: Running for 50000 steps
ETITLE: TS BOND ANGLE DIHED IMPRP ELECT VDW BOUNDARY MISC KINETIC TOTAL TEMP POTENTIAL TOTAL3 TEMPAVG PRESSURE GPRESSURE VOLUME PRESSAVG GPRESSAVG
ENERGY: 175000 2.1382 1.1754 1.7307 0.0000 -22006.9108 3582.3427 0.0000 0.0000 1772.8397 -16646.6842 180.9234 -18419.5239 -16643.5346 180.9234 138.0015 199.3576 48003.9687 138.0015 199.3576
ENERGY: 185000 3.5482 3.3983 5.6248 0.0000 -20787.9100 3165.3663 0.0000 0.0000 2034.0663 -15575.9060 207.5824 -17609.9723 -15572.4238 211.2724 -53.3725 17.3448 48125.2376 0.3560 0.5574
ENERGY: 195000 1.9961 2.1923 2.9666 0.0000 -20878.1673 3274.8714 0.0000 0.0000 2085.0111 -15511.1296 212.7814 -17596.1407 -15505.2821 209.9399 542.3339 636.2174 47663.2239 0.9433 1.2424
ENERGY: 205000 2.3980 5.2681 3.2776 0.0000 -20781.5583 3162.8107 0.0000 0.0000 2107.2705 -15500.5334 215.0531 -17607.8039 -15493.4279 210.8914 -114.9139 -11.7257 48104.7813 5.3120 5.1046
ENERGY: 215000 2.1113 4.4143 6.6776 0.0000 -20677.1011 3163.6359 0.0000 0.0000 2040.7938 -15459.4682 208.2689 -17500.2620 -15455.5785 210.7349 140.1010 240.3875 48078.5344 3.0185 2.9030
ENERGY: 225000 5.4404 2.5663 4.0209 0.0000 -20581.9461 3046.7425 0.0000 0.0000 2016.0465 -15507.1297 205.7434 -17523.1761 -15502.6112 210.1975 -507.6769 -405.7168 47915.7268 3.9532 3.8197
TCL: Running 50000 steps at 240 kelvin.
TCL: Setting parameter langevinTemp to 240
TCL: Running for 50000 steps
ETITLE: TS BOND ANGLE DIHED IMPRP ELECT VDW BOUNDARY MISC KINETIC TOTAL TEMP POTENTIAL TOTAL3 TEMPAVG PRESSURE GPRESSURE VOLUME PRESSAVG GPRESSAVG
ENERGY: 225000 5.4404 2.5663 4.0209 0.0000 -20581.9461 3046.7425 0.0000 0.0000 2015.0426 -15508.1335 205.6410 -17523.1761 -15504.6526 205.6410 -489.1326 -405.0063 47915.7268 -489.1326 -405.0063
ENERGY: 235000 7.2269 5.4637 4.9323 0.0000 -19623.5748 2820.5301 0.0000 0.0000 2385.3714 -14400.0504 243.4341 -16785.4217 -14394.3303 240.7708 -419.5473 -327.3809 49361.0870 -1.2598 -1.3787
ENERGY: 245000 1.4003 3.6406 4.8595 0.0000 -19675.4626 2856.0798 0.0000 0.0000 2353.5120 -14455.9704 240.1827 -16809.4824 -14449.6595 240.6807 75.2184 143.3778 48280.6838 0.5886 0.8009
ENERGY: 255000 1.4195 3.0118 2.6417 0.0000 -19847.0251 2918.2322 0.0000 0.0000 2295.0160 -14626.7039 234.2131 -16921.7199 -14624.9920 239.3419 123.4358 178.3107 48205.9580 5.4762 5.1524
ENERGY: 265000 2.8686 3.8534 3.4750 0.0000 -19722.7677 2875.1459 0.0000 0.0000 2330.7817 -14506.6432 237.8630 -16837.4248 -14500.7434 240.1168 -331.4465 -247.4557 49363.1080 -0.7572 -0.4882
ENERGY: 275000 2.0835 2.9164 2.5580 0.0000 -19658.2096 2867.3988 0.0000 0.0000 2407.0816 -14376.1713 245.6497 -16783.2529 -14372.0135 240.6514 50.6431 162.3191 48744.0876 2.1979 2.3550
TCL: Running 50000 steps at 270 kelvin.
TCL: Setting parameter langevinTemp to 270
TCL: Running for 50000 steps
ETITLE: TS BOND ANGLE DIHED IMPRP ELECT VDW BOUNDARY MISC KINETIC TOTAL TEMP POTENTIAL TOTAL3 TEMPAVG PRESSURE GPRESSURE VOLUME PRESSAVG GPRESSAVG
ENERGY: 275000 2.0835 2.9164 2.5580 0.0000 -19658.2096 2867.3988 0.0000 0.0000 2405.8980 -14377.3550 245.5289 -16783.2529 -14373.4064 245.5289 66.6527 162.1346 48744.0876 66.6527 162.1346
ENERGY: 285000 4.2775 3.3162 2.7287 0.0000 -18690.9412 2585.6796 0.0000 0.0000 2631.3266 -13463.6127 268.5345 -16094.9392 -13458.7986 270.3644 158.3373 267.8369 49178.4081 4.9586 5.4967
ENERGY: 295000 3.0630 5.1561 2.8800 0.0000 -18604.4388 2472.7790 0.0000 0.0000 2604.5769 -13515.9837 265.8046 -16120.5606 -13508.0428 270.3013 -767.3821 -682.8633 49544.2643 7.3545 7.3988
ENERGY: 305000 3.9526 5.8198 2.7041 0.0000 -18757.2753 2614.4448 0.0000 0.0000 2714.4823 -13415.8718 277.0208 -16130.3541 -13410.2255 269.4325 -84.2983 34.7788 49497.2468 5.2889 5.2110
ENERGY: 315000 3.0494 2.9173 4.2669 0.0000 -18687.1853 2526.3676 0.0000 0.0000 2687.8663 -13462.7178 274.3046 -16150.5841 -13457.6107 270.9149 -456.5995 -404.2261 49665.2161 5.0843 5.0168
ENERGY: 325000 3.7314 3.8242 1.7566 0.0000 -18802.8245 2653.0434 0.0000 0.0000 2683.9875 -13456.4815 273.9087 -16140.4690 -13449.7601 270.5698 451.6960 534.5877 48937.4561 4.4295 3.3805
TCL: Running 1000000 steps at 300 kelvin.
TCL: Setting parameter langevinTemp to 300
TCL: Running for 1000000 steps
ETITLE: TS BOND ANGLE DIHED IMPRP ELECT VDW BOUNDARY MISC KINETIC TOTAL TEMP POTENTIAL TOTAL3 TEMPAVG PRESSURE GPRESSURE VOLUME PRESSAVG GPRESSAVG
ENERGY: 325000 3.7314 3.8242 1.7566 0.0000 -18802.8245 2653.0434 0.0000 0.0000 2682.6663 -13457.8027 273.7739 -16140.4690 -13454.0195 273.7739 441.8242 536.0542 48937.4561 441.8242 536.0542
ENERGY: 525000 2.3562 2.3656 7.3954 0.0000 -17803.8630 2369.6869 0.0000 0.0000 2885.4118 -12536.6470 294.4647 -15422.0588 -12531.8764 301.4321 -63.0293 -16.2167 51139.1162 4.1057 3.6068
ENERGY: 725000 4.9360 6.5584 2.8090 0.0000 -17961.9687 2416.2129 0.0000 0.0000 2849.3770 -12682.0755 290.7872 -15531.4525 -12676.3995 297.3306 -155.7295 -51.5229 50741.0961 2.8065 2.4776
ENERGY: 925000 7.0420 3.4447 5.4105 0.0000 -17647.5713 2355.2193 0.0000 0.0000 2892.8225 -12383.6325 295.2209 -15276.4550 -12376.0615 300.3275 -92.3830 10.9628 51286.0564 3.5997 3.2606
ENERGY: 1125000 3.3538 3.9941 7.9876 0.0000 -17629.6860 2186.9350 0.0000 0.0000 2945.7031 -12481.7124 300.6176 -15427.4155 -12476.5264 300.5342 -1011.9773 -964.8613 51262.4973 3.9404 3.5091
ENERGY: 1325000 3.6292 5.4150 2.2139 0.0000 -17772.3339 2292.1203 0.0000 0.0000 2943.9448 -12525.0107 300.4381 -15468.9556 -12518.3777 299.6750 -540.9898 -475.5144 50602.0256 -1.8250 -1.5571
TCL: Exiting due to exit command.
