Info: SIMULATION PARAMETERS:
Info: TIMESTEP               2
Info: NUMBER OF STEPS        0
Info: STEPS PER CYCLE        10
Info: PERIODIC CELL BASIS 1  41.123 0 0
Info: PERIODIC CELL BASIS 2  0 39.303 0
Info: PERIODIC CELL BASIS 3  0 0 43.557
Info: PERIODIC CELL CENTER   0 0 0
Info: WRAPPING WATERS AROUND PERIODIC BOUNDARIES ON OUTPUT.
Info: WRAPPING ALL CLUSTERS AROUND PERIODIC BOUNDARIES ON OUTPUT.
Info: FIRST LDB TIMESTEP     50
Info: LAST LDB TIMESTEP     -1
Info: HOM BACKGROUND SCALING 1
Info: PME BACKGROUND SCALING 1
Info: MIN ATOMS PER PATCH    40
Info: EMPTY PATCH LOAD       40 ATOMS
Info: INITIAL TEMPERATURE    300
Info: CENTER OF MASS MOVING INITIALLY? NO
Info: DIELECTRIC             1
Info: EXCLUDE                SCALED ONE-FOUR
Info: 1-4 ELECTROSTATICS SCALED BY 0.833333
Info: MODIFIED 1-4 VDW PARAMETERS WILL BE USED
Info: DCD FILENAME           mobley_486214_min.dcd
Info: DCD FREQUENCY          5000
Info: DCD FIRST STEP         5000
Info: DCD FILE WILL CONTAIN UNIT CELL DATA
Info: XST FILENAME           mobley_486214_min.xst
Info: XST FREQUENCY          5000
Info: NO VELOCITY DCD OUTPUT
Info: NO FORCE DCD OUTPUT
Info: OUTPUT FILENAME        mobley_486214_min
Info: BINARY OUTPUT FILES WILL BE USED
Info: RESTART FILENAME       mobley_486214_min.restart
Info: RESTART FREQUENCY      5000
Info: BINARY RESTART FILES WILL BE USED
Info: CUTOFF                 9
Info: PAIRLIST DISTANCE      11
Info: PAIRLIST SHRINK RATE   0.01
Info: PAIRLIST GROW RATE     0.01
Info: PAIRLIST TRIGGER       0.3
Info: PAIRLISTS PER CYCLE    2
Info: PAIRLISTS ENABLED
Info: MARGIN                 8
Info: HYDROGEN GROUP CUTOFF  2.5
Info: PATCH DIMENSION        21.5
Info: ENERGY OUTPUT STEPS    5000
Info: ENERGY EVALUATION STEPS    5000
Info: OUTPUT ENERGY PRECISION 4
Info: CROSSTERM ENERGY INCLUDED IN DIHEDRAL
Info: TIMING OUTPUT STEPS    50000
Info: PRESSURE OUTPUT STEPS  5000
Info: LANGEVIN DYNAMICS ACTIVE
Info: LANGEVIN TEMPERATURE   300
Info: LANGEVIN USING BBK INTEGRATOR
Info: LANGEVIN DAMPING COEFFICIENT IS 1 INVERSE PS
Info: LANGEVIN DYNAMICS APPLIED TO HYDROGENS
Info: LANGEVIN PISTON PRESSURE CONTROL ACTIVE
Info:        TARGET PRESSURE IS 1.01325 BAR
Info:     OSCILLATION PERIOD IS 50 FS
Info:             DECAY TIME IS 25 FS
Info:     PISTON TEMPERATURE IS 300 K
Info:       PRESSURE CONTROL IS GROUP-BASED
Info:    INITIAL STRAIN RATE IS 0 0 0
Info:       CELL FLUCTUATION IS ISOTROPIC
Info: PARTICLE MESH EWALD (PME) ACTIVE
Info: PME TOLERANCE               1e-06
Info: PME EWALD COEFFICIENT       0.348832
Info: PME INTERPOLATION ORDER     4
Info: PME GRID DIMENSIONS         44 40 44
Info: PME MAXIMUM GRID SPACING    1
Info: FULL ELECTROSTATIC EVALUATION FREQUENCY      2
Info: USING VERLET I (r-RESPA) MTS SCHEME.
Info: C1 SPLITTING OF LONG RANGE ELECTROSTATICS
Info: PLACING ATOMS IN PATCHES BY HYDROGEN GROUPS
Info: RIGID BONDS TO HYDROGEN : ALL
Info:         ERROR TOLERANCE : 1e-08
Info:          MAX ITERATIONS : 100
Info: RIGID WATER USING SETTLE ALGORITHM
Info: RANDOM NUMBER SEED     1741343694
Info: USE HYDROGEN BONDS?    NO
Info: Using AMBER format force field!
Info: AMBER PARM FILE        mobley_486214.prmtop
Info: COORDINATE PDB         mobley_486214.pdb
Info: Exclusions will be read from PARM file!
Info: SCNB (VDW SCALING)     2
Info: USING ARITHMETIC MEAN TO COMBINE L-J SIGMA PARAMETERS
Info: SUMMARY OF PARAMETERS:
Info: 9 BONDS
Info: 8 ANGLES
Info:   8 HARMONIC
Info:   0 COSINE-BASED
Info: 5 DIHEDRAL
Info: 0 IMPROPER
Info: 0 CROSSTERM
Info: 0 VDW
Info: 45 VDW_PAIRS
Info: 0 NBTHOLE_PAIRS
Info: STRUCTURE SUMMARY:
Info: 5127 ATOMS
Info: 5127 BONDS
Info: 33 ANGLES
Info: 39 DIHEDRALS
Info: 0 IMPROPERS
Info: 0 CROSSTERMS
Info: 5193 EXCLUSIONS
Info: 5116 RIGID BONDS
Info: 10265 DEGREES OF FREEDOM
Info: 1713 HYDROGEN GROUPS
Info: 4 ATOMS IN LARGEST HYDROGEN GROUP
Info: 1713 MIGRATION GROUPS
Info: 4 ATOMS IN LARGEST MIGRATION GROUP
Info: TOTAL MASS = 30817.4 amu
Info: TOTAL CHARGE = 0.000300005 e
Info: MASS DENSITY = 0.72692 g/cm^3
Info: ATOM DENSITY = 0.0728274 atoms/A^3
Info: ADDED 0 IMPLICIT EXCLUSIONS
Info: NONBONDED TABLE R-SQUARED SPACING: 0.0625
Info: NONBONDED TABLE SIZE: 705 POINTS
Info: REMOVING COM VELOCITY -0.115897 0.0405854 -0.025547
TCL: Minimizing for 2000 steps
ETITLE: TS BOND ANGLE DIHED IMPRP ELECT VDW BOUNDARY MISC KINETIC TOTAL TEMP POTENTIAL TOTAL3 TEMPAVG PRESSURE GPRESSURE VOLUME PRESSAVG GPRESSAVG
ENERGY: 0 0.0634 0.5918 6.6410 0.0000 -15948.7356 1813.9507 0.0000 0.0000 0.0000 -14127.4888 0.0000 -14127.4888 -14127.4888 0.0000 11234.0267 -15686.5476 70399.3179 11234.0267 -15686.5476
ENERGY: 400 2.3548 4.0280 6.7925 0.0000 -21482.1204 3157.0739 0.0000 0.0000 0.0000 -18311.8711 0.0000 -18311.8711 -18311.8711 0.0000 16023.1956 10669.3857 70399.3179 16023.1956 10669.3857
ENERGY: 800 1.7614 4.7701 0.2930 0.0000 -22617.8716 3699.1622 0.0000 0.0000 0.0000 -18911.8849 0.0000 -18911.8849 -18911.8849 0.0000 18453.6735 12739.4669 70399.3179 18453.6735 12739.4669
ENERGY: 1200 8.1640 6.8829 0.3167 0.0000 -22986.7055 3848.8067 0.0000 0.0000 0.0000 -19122.5353 0.0000 -19122.5353 -19122.5353 0.0000 19147.0208 13249.4872 70399.3179 19147.0208 13249.4872
ENERGY: 1600 1.1242 3.8577 0.3368 0.0000 -23224.2132 3947.6780 0.0000 0.0000 0.0000 -19271.2165 0.0000 -19271.2165 -19271.2165 0.0000 19659.5734 13945.4536 70399.3179 19659.5734 13945.4536
ENERGY: 2000 0.8190 4.0149 0.3638 0.0000 -23376.1846 4017.9544 0.0000 0.0000 0.0000 -19353.0326 0.0000 -19353.0326 -19353.0326 0.0000 20041.4500 14400.5343 70399.3179 20041.4500 14400.5343
TCL: Exiting due to exit command.
Info: NAMD 3.0.1 for Linux-x86_64-multicore
Info: Please visit http://www.ks.uiuc.edu/Research/namd/
Info: for updates, documentation, and support information.
Info: Please cite Phillips et al., J. Chem. Phys. 153:044130 (2020) doi:10.1063/5.0014475
Info: in all publications reporting results obtained with NAMD.
Info: Based on Charm++/Converse 80000 for multicore-linux-x86_64-gcc
Info: Built Mon Oct 14 11:11:06 CDT 2024 by dhardy on athine.ks.uiuc.edu
Info: 1 NAMD  3.0.1  Linux-x86_64-multicore  16    k015  z5358697
Info: Running on 16 processors, 1 nodes, 1 physical nodes.
Info: CPU topology information available.
Info: Charm++/Converse parallel runtime startup completed at 0.00994497 s
Info: 1043.45 MB of memory in use based on /proc/self/stat
Info: Configuration file is mobley_486214_equil.namd
Info: Working in the current directory /srv/scratch/z5358697/prod_prep_6/486214
TCL: Running 25000 steps at 30 kelvin.
TCL: Suspending until startup complete.
Info: SIMULATION PARAMETERS:
Info: TIMESTEP               2
Info: NUMBER OF STEPS        0
Info: STEPS PER CYCLE        10
Info: PERIODIC CELL BASIS 1  41.123 0 0
Info: PERIODIC CELL BASIS 2  0 39.303 0
Info: PERIODIC CELL BASIS 3  0 0 43.557
Info: PERIODIC CELL CENTER   0 0 0
Info: WRAPPING WATERS AROUND PERIODIC BOUNDARIES ON OUTPUT.
Info: WRAPPING ALL CLUSTERS AROUND PERIODIC BOUNDARIES ON OUTPUT.
Info: FIRST LDB TIMESTEP     50
Info: LAST LDB TIMESTEP     -1
Info: HOM BACKGROUND SCALING 1
Info: PME BACKGROUND SCALING 1
Info: MIN ATOMS PER PATCH    40
Info: EMPTY PATCH LOAD       40 ATOMS
Info: INITIAL TEMPERATURE    300
Info: CENTER OF MASS MOVING INITIALLY? NO
Info: DIELECTRIC             1
Info: EXCLUDE                SCALED ONE-FOUR
Info: 1-4 ELECTROSTATICS SCALED BY 0.833333
Info: MODIFIED 1-4 VDW PARAMETERS WILL BE USED
Info: DCD FILENAME           mobley_486214_equil.dcd
Info: DCD FREQUENCY          5000
Info: DCD FIRST STEP         5000
Info: DCD FILE WILL CONTAIN UNIT CELL DATA
Info: XST FILENAME           mobley_486214_equil.xst
Info: XST FREQUENCY          5000
Info: NO VELOCITY DCD OUTPUT
Info: NO FORCE DCD OUTPUT
Info: OUTPUT FILENAME        mobley_486214_equil
Info: BINARY OUTPUT FILES WILL BE USED
Info: RESTART FILENAME       mobley_486214_equil.restart
Info: RESTART FREQUENCY      5000
Info: BINARY RESTART FILES WILL BE USED
Info: CUTOFF                 9
Info: PAIRLIST DISTANCE      11
Info: PAIRLIST SHRINK RATE   0.01
Info: PAIRLIST GROW RATE     0.01
Info: PAIRLIST TRIGGER       0.3
Info: PAIRLISTS PER CYCLE    2
Info: PAIRLISTS ENABLED
Info: MARGIN                 8
Info: HYDROGEN GROUP CUTOFF  2.5
Info: PATCH DIMENSION        21.5
Info: ENERGY OUTPUT STEPS    5000
Info: ENERGY EVALUATION STEPS    5000
Info: OUTPUT ENERGY PRECISION 4
Info: CROSSTERM ENERGY INCLUDED IN DIHEDRAL
Info: TIMING OUTPUT STEPS    50000
Info: PRESSURE OUTPUT STEPS  5000
Info: LANGEVIN DYNAMICS ACTIVE
Info: LANGEVIN TEMPERATURE   30
Info: LANGEVIN USING BBK INTEGRATOR
Info: LANGEVIN DAMPING COEFFICIENT IS 1 INVERSE PS
Info: LANGEVIN DYNAMICS APPLIED TO HYDROGENS
Info: LANGEVIN PISTON PRESSURE CONTROL ACTIVE
Info:        TARGET PRESSURE IS 1.01325 BAR
Info:     OSCILLATION PERIOD IS 50 FS
Info:             DECAY TIME IS 25 FS
Info:     PISTON TEMPERATURE IS 300 K
Info:       PRESSURE CONTROL IS GROUP-BASED
Info:    INITIAL STRAIN RATE IS 0 0 0
Info:       CELL FLUCTUATION IS ISOTROPIC
Info: PARTICLE MESH EWALD (PME) ACTIVE
Info: PME TOLERANCE               1e-06
Info: PME EWALD COEFFICIENT       0.348832
Info: PME INTERPOLATION ORDER     4
Info: PME GRID DIMENSIONS         44 40 44
Info: PME MAXIMUM GRID SPACING    1
Info: FULL ELECTROSTATIC EVALUATION FREQUENCY      2
Info: USING VERLET I (r-RESPA) MTS SCHEME.
Info: C1 SPLITTING OF LONG RANGE ELECTROSTATICS
Info: PLACING ATOMS IN PATCHES BY HYDROGEN GROUPS
Info: RIGID BONDS TO HYDROGEN : ALL
Info:         ERROR TOLERANCE : 1e-08
Info:          MAX ITERATIONS : 100
Info: RIGID WATER USING SETTLE ALGORITHM
Info: RANDOM NUMBER SEED     1741343710
Info: USE HYDROGEN BONDS?    NO
Info: Using AMBER format force field!
Info: AMBER PARM FILE        mobley_486214.prmtop
Info: COORDINATE PDB         mobley_486214.pdb
Info: Exclusions will be read from PARM file!
Info: SCNB (VDW SCALING)     2
Info: USING ARITHMETIC MEAN TO COMBINE L-J SIGMA PARAMETERS
Info: BINARY COORDINATES     mobley_486214_min.coor
Info: SUMMARY OF PARAMETERS:
Info: 9 BONDS
Info: 8 ANGLES
Info:   8 HARMONIC
Info:   0 COSINE-BASED
Info: 5 DIHEDRAL
Info: 0 IMPROPER
Info: 0 CROSSTERM
Info: 0 VDW
Info: 45 VDW_PAIRS
Info: 0 NBTHOLE_PAIRS
Info: STRUCTURE SUMMARY:
Info: 5127 ATOMS
Info: 5127 BONDS
Info: 33 ANGLES
Info: 39 DIHEDRALS
Info: 0 IMPROPERS
Info: 0 CROSSTERMS
Info: 5193 EXCLUSIONS
Info: 5116 RIGID BONDS
Info: 10265 DEGREES OF FREEDOM
Info: 1713 HYDROGEN GROUPS
Info: 4 ATOMS IN LARGEST HYDROGEN GROUP
Info: 1713 MIGRATION GROUPS
Info: 4 ATOMS IN LARGEST MIGRATION GROUP
Info: TOTAL MASS = 30817.4 amu
Info: TOTAL CHARGE = 0.000300005 e
Info: MASS DENSITY = 0.72692 g/cm^3
Info: ATOM DENSITY = 0.0728274 atoms/A^3
Info: ADDED 0 IMPLICIT EXCLUSIONS
Info: NONBONDED TABLE R-SQUARED SPACING: 0.0625
Info: NONBONDED TABLE SIZE: 705 POINTS
Info: REMOVING COM VELOCITY -0.0136073 0.056707 -0.0107548
TCL: Running for 25000 steps
ETITLE: TS BOND ANGLE DIHED IMPRP ELECT VDW BOUNDARY MISC KINETIC TOTAL TEMP POTENTIAL TOTAL3 TEMPAVG PRESSURE GPRESSURE VOLUME PRESSAVG GPRESSAVG
ENERGY: 0 0.8190 4.0149 0.3638 0.0000 -23376.1846 4017.9544 0.0000 0.0000 3052.8085 -16300.2241 299.3167 -19353.0326 -16299.6218 299.3167 196.1961 229.7301 70399.3179 196.1961 229.7301
ENERGY: 5000 1.1314 2.2635 0.7866 0.0000 -24761.0240 4435.8224 0.0000 0.0000 319.7566 -20001.2635 31.3510 -20321.0201 -20000.0383 47.7822 830.5607 875.4400 49349.5319 3.7218 3.7269
ENERGY: 10000 0.7785 2.0219 1.1596 0.0000 -24573.2418 4222.6617 0.0000 0.0000 304.1893 -20042.4307 29.8247 -20346.6201 -20041.8228 30.0275 -323.0888 -294.6233 49818.2565 2.1613 1.8947
ENERGY: 15000 0.8509 2.2799 0.8996 0.0000 -24672.7671 4297.5946 0.0000 0.0000 305.0218 -20066.1203 29.9063 -20371.1421 -20065.5422 30.2192 21.3364 68.4692 49594.5864 7.0664 7.1577
ENERGY: 20000 0.6825 1.8798 0.5946 0.0000 -24567.6102 4182.5895 0.0000 0.0000 309.4885 -20072.3753 30.3442 -20381.8638 -20071.6240 30.1762 -618.8185 -545.6056 49902.0954 -0.6367 -0.7604
ENERGY: 25000 0.6015 1.9490 0.7433 0.0000 -24763.5507 4360.0399 0.0000 0.0000 310.7044 -20089.5126 30.4634 -20400.2170 -20088.4185 30.2406 271.0883 320.0499 49563.8018 3.2991 3.2844
TCL: Running 25000 steps at 60 kelvin.
TCL: Setting parameter langevinTemp to 60
TCL: Running for 25000 steps
ETITLE: TS BOND ANGLE DIHED IMPRP ELECT VDW BOUNDARY MISC KINETIC TOTAL TEMP POTENTIAL TOTAL3 TEMPAVG PRESSURE GPRESSURE VOLUME PRESSAVG GPRESSAVG
ENERGY: 25000 0.6015 1.9490 0.7433 0.0000 -24763.5507 4360.0399 0.0000 0.0000 310.5554 -20089.6616 30.4488 -20400.2170 -20089.0952 30.4488 270.6166 320.2023 49563.8018 270.6166 320.2023
ENERGY: 30000 1.2032 3.7189 0.8597 0.0000 -24334.1002 4189.7495 0.0000 0.0000 618.7343 -19519.8346 60.6646 -20138.5689 -19517.9266 57.2645 24.6816 80.2875 49793.7685 5.1883 4.7791
ENERGY: 35000 0.7557 3.1714 0.8646 0.0000 -24465.5079 4305.5444 0.0000 0.0000 609.2867 -19545.8851 59.7383 -20155.1718 -19544.1305 60.4780 574.1140 627.0591 49630.8607 2.6246 2.5023
ENERGY: 40000 1.6825 3.1137 1.4411 0.0000 -24325.5213 4103.6075 0.0000 0.0000 606.4153 -19609.2612 59.4568 -20215.6765 -19607.4190 60.3030 -574.4764 -506.8358 49831.2473 -1.7596 -2.0196
ENERGY: 45000 1.3214 2.2105 3.2477 0.0000 -24419.2717 4185.4955 0.0000 0.0000 604.6713 -19622.3253 59.2858 -20226.9966 -19620.6760 59.8448 -76.3810 -15.8244 49511.8559 0.3387 0.3999
ENERGY: 50000 0.9871 3.1163 1.0890 0.0000 -24308.8514 4064.0613 0.0000 0.0000 636.5069 -19603.0908 62.4072 -20239.5978 -19601.0290 59.7899 -717.8914 -680.1524 49743.9698 -1.0302 -1.0262
TCL: Running 25000 steps at 90 kelvin.
TCL: Setting parameter langevinTemp to 90
TCL: Running for 25000 steps
ETITLE: TS BOND ANGLE DIHED IMPRP ELECT VDW BOUNDARY MISC KINETIC TOTAL TEMP POTENTIAL TOTAL3 TEMPAVG PRESSURE GPRESSURE VOLUME PRESSAVG GPRESSAVG
ENERGY: 50000 0.9871 3.1163 1.0890 0.0000 -24308.8514 4064.0613 0.0000 0.0000 636.2065 -19603.3913 62.3777 -20239.5978 -19601.9864 62.3777 -720.2461 -679.7977 49743.9698 -720.2461 -679.7977
ENERGY: 55000 0.5405 3.1851 2.0130 0.0000 -23896.8007 3960.3420 0.0000 0.0000 923.9621 -19006.7580 90.5911 -19930.7202 -19003.5753 86.7964 -513.9992 -463.1319 49949.7926 3.6937 3.4489
ENERGY: 60000 2.1830 4.2814 1.3827 0.0000 -24204.9264 4198.6236 0.0000 0.0000 931.3828 -19067.0729 91.3187 -19998.4557 -19063.9801 90.2515 470.5403 540.3849 49628.6222 4.6268 4.5890
ENERGY: 65000 1.4990 4.3131 0.8938 0.0000 -24001.0298 3958.7623 0.0000 0.0000 906.1389 -19129.4227 88.8436 -20035.5616 -19127.8186 89.9632 -792.6148 -752.5024 49971.5536 1.2231 1.4310
ENERGY: 70000 0.3235 4.5056 3.4824 0.0000 -24247.4689 4173.5377 0.0000 0.0000 915.9125 -19149.7072 89.8019 -20065.6197 -19146.3798 90.3789 248.6122 280.9910 49576.9259 5.4379 5.4290
ENERGY: 75000 1.1907 2.9786 0.8793 0.0000 -24177.4116 4113.2486 0.0000 0.0000 926.5597 -19132.5547 90.8458 -20059.1144 -19129.8791 90.3183 -9.0788 41.1825 49610.8960 4.3585 4.4606
TCL: Running 25000 steps at 120 kelvin.
TCL: Setting parameter langevinTemp to 120
TCL: Running for 25000 steps
ETITLE: TS BOND ANGLE DIHED IMPRP ELECT VDW BOUNDARY MISC KINETIC TOTAL TEMP POTENTIAL TOTAL3 TEMPAVG PRESSURE GPRESSURE VOLUME PRESSAVG GPRESSAVG
ENERGY: 75000 1.1907 2.9786 0.8793 0.0000 -24177.4116 4113.2486 0.0000 0.0000 926.1048 -19133.0095 90.8012 -20059.1144 -19131.1699 90.8012 -4.4332 41.4172 49610.8960 -4.4332 41.4172
ENERGY: 80000 1.7041 4.0273 2.2246 0.0000 -23726.8348 4002.1646 0.0000 0.0000 1239.6371 -18477.0770 121.5419 -19716.7142 -18475.4796 116.7901 203.0025 281.2433 49779.4704 -1.3928 -1.8130
ENERGY: 85000 1.6032 2.5765 1.2069 0.0000 -23926.0893 4152.5288 0.0000 0.0000 1232.3149 -18535.8589 120.8240 -19768.1738 -18534.2193 121.1359 781.1733 842.8903 49628.7026 7.7573 7.7374
ENERGY: 90000 1.4832 5.0462 0.7886 0.0000 -23975.1291 4163.2442 0.0000 0.0000 1205.5503 -18599.0166 118.1998 -19804.5668 -18594.6702 120.2352 762.1344 818.7536 49691.5717 2.3021 2.0957
ENERGY: 95000 2.4378 3.6143 1.7801 0.0000 -23734.3420 3936.0058 0.0000 0.0000 1224.0157 -18566.4884 120.0103 -19790.5041 -18564.3123 120.4090 -371.5955 -332.5868 50140.3878 6.0089 6.3566
ENERGY: 100000 1.9856 4.0092 2.4356 0.0000 -23712.8934 3902.2613 0.0000 0.0000 1243.0999 -18559.1019 121.8814 -19802.2018 -18555.6923 120.5778 -568.2308 -527.5126 50231.6972 1.6909 1.5022
TCL: Running 25000 steps at 150 kelvin.
TCL: Setting parameter langevinTemp to 150
TCL: Running for 25000 steps
ETITLE: TS BOND ANGLE DIHED IMPRP ELECT VDW BOUNDARY MISC KINETIC TOTAL TEMP POTENTIAL TOTAL3 TEMPAVG PRESSURE GPRESSURE VOLUME PRESSAVG GPRESSAVG
ENERGY: 100000 1.9856 4.0092 2.4356 0.0000 -23712.8934 3902.2613 0.0000 0.0000 1242.5023 -18559.6995 121.8228 -19802.2018 -18557.2278 121.8228 -582.5814 -526.8408 50231.6972 -582.5814 -526.8408
ENERGY: 105000 2.7905 5.4516 2.3017 0.0000 -23233.5560 3802.3265 0.0000 0.0000 1567.3891 -17853.2967 153.6768 -19420.6858 -17849.3144 146.6282 -163.2815 -133.0857 50234.6805 4.6257 4.1737
ENERGY: 110000 2.2213 5.7039 2.0812 0.0000 -23222.1624 3781.8797 0.0000 0.0000 1530.8777 -17899.3987 150.0970 -19430.2763 -17895.0677 149.6026 -385.3400 -340.1012 50504.2991 -0.9714 -1.2705
ENERGY: 115000 3.1594 3.8441 2.7029 0.0000 -23491.2790 3974.4670 0.0000 0.0000 1532.1084 -17974.9972 150.2176 -19507.1056 -17969.7185 149.9409 388.3467 447.2871 50119.0061 4.9858 5.1237
ENERGY: 120000 1.3815 3.7638 2.4495 0.0000 -23382.6913 3921.4801 0.0000 0.0000 1548.9289 -17904.6876 151.8668 -19453.6166 -17900.4708 150.6933 245.3154 315.6993 50220.5969 0.0583 -0.1098
ENERGY: 125000 2.3186 5.1546 1.7047 0.0000 -23186.1645 3736.8419 0.0000 0.0000 1551.8427 -17888.3021 152.1525 -19440.1447 -17884.6024 150.9711 -689.6262 -638.7883 50694.7691 1.5387 1.4513
TCL: Running 50000 steps at 180 kelvin.
TCL: Setting parameter langevinTemp to 180
TCL: Running for 50000 steps
ETITLE: TS BOND ANGLE DIHED IMPRP ELECT VDW BOUNDARY MISC KINETIC TOTAL TEMP POTENTIAL TOTAL3 TEMPAVG PRESSURE GPRESSURE VOLUME PRESSAVG GPRESSAVG
ENERGY: 125000 2.3186 5.1546 1.7047 0.0000 -23186.1644 3736.8419 0.0000 0.0000 1551.0788 -17889.0659 152.0776 -19440.1447 -17885.8421 152.0776 -690.8265 -638.7328 50694.7691 -690.8265 -638.7328
ENERGY: 135000 1.5110 4.1385 3.9661 0.0000 -22754.9231 3702.8244 0.0000 0.0000 1836.6706 -17205.8125 180.0788 -19042.4831 -17202.7839 179.8755 75.1847 130.1674 50466.9705 8.0447 8.0612
ENERGY: 145000 3.8688 4.9974 3.7034 0.0000 -22811.7610 3783.8537 0.0000 0.0000 1837.1639 -17178.1738 180.1272 -19015.3377 -17172.6228 178.6088 588.7021 667.7028 49819.5861 1.4233 1.7113
ENERGY: 155000 2.8898 5.7940 2.9576 0.0000 -22637.4704 3567.9274 0.0000 0.0000 1794.5799 -17263.3217 175.9520 -19057.9016 -17258.3715 180.3846 -627.1718 -520.7015 50134.9567 1.4259 1.2872
ENERGY: 165000 2.7876 6.2590 1.6282 0.0000 -22692.9698 3605.4304 0.0000 0.0000 1829.2912 -17247.5734 179.3553 -19076.8646 -17242.6394 181.6192 -326.8834 -227.3224 49781.7550 2.8161 3.0713
ENERGY: 175000 2.3698 4.1801 2.8432 0.0000 -22676.3937 3654.8256 0.0000 0.0000 1822.0491 -17190.1259 178.6453 -19012.1750 -17187.1834 179.2322 -8.3970 83.0186 50030.9553 1.4483 0.9037
TCL: Running 50000 steps at 210 kelvin.
TCL: Setting parameter langevinTemp to 210
TCL: Running for 50000 steps
ETITLE: TS BOND ANGLE DIHED IMPRP ELECT VDW BOUNDARY MISC KINETIC TOTAL TEMP POTENTIAL TOTAL3 TEMPAVG PRESSURE GPRESSURE VOLUME PRESSAVG GPRESSAVG
ENERGY: 175000 2.3698 4.1801 2.8432 0.0000 -22676.3937 3654.8256 0.0000 0.0000 1821.1170 -17191.0580 178.5539 -19012.1750 -17187.5161 178.5539 21.7067 83.1308 50030.9553 21.7067 83.1308
ENERGY: 185000 2.1889 3.4620 1.5485 0.0000 -21393.9383 3110.1016 0.0000 0.0000 2209.7569 -16066.8803 216.6586 -18276.6372 -16060.3495 210.4966 -848.7260 -783.2423 50052.1694 1.9928 1.9385
ENERGY: 195000 1.9837 7.4778 3.7733 0.0000 -21496.4405 3252.1163 0.0000 0.0000 2152.5452 -16078.5443 211.0492 -18231.0895 -16074.4575 209.2999 -171.0040 -101.5143 50171.3672 2.8528 3.5978
ENERGY: 205000 2.9586 5.0662 4.2732 0.0000 -21574.4706 3338.7447 0.0000 0.0000 2153.5325 -16069.8953 211.1460 -18223.4278 -16065.0976 210.2629 359.3793 456.2156 49678.7170 8.1840 7.6799
ENERGY: 215000 2.9678 4.8307 2.9909 0.0000 -21785.0811 3457.0949 0.0000 0.0000 2121.7037 -16195.4929 208.0253 -18317.1967 -16189.9911 211.2070 462.0605 545.2946 50033.9499 5.0559 5.5844
ENERGY: 225000 6.9948 7.2522 2.5958 0.0000 -21599.0418 3352.3342 0.0000 0.0000 2100.7723 -16129.0924 205.9731 -18229.8647 -16123.2993 211.0177 244.4886 328.9410 49745.4600 0.6834 0.6523
TCL: Running 50000 steps at 240 kelvin.
TCL: Setting parameter langevinTemp to 240
TCL: Running for 50000 steps
ETITLE: TS BOND ANGLE DIHED IMPRP ELECT VDW BOUNDARY MISC KINETIC TOTAL TEMP POTENTIAL TOTAL3 TEMPAVG PRESSURE GPRESSURE VOLUME PRESSAVG GPRESSAVG
ENERGY: 225000 6.9948 7.2522 2.5958 0.0000 -21599.0418 3352.3342 0.0000 0.0000 2099.7280 -16130.1367 205.8707 -18229.8647 -16126.4219 205.8707 246.0166 330.2557 49745.4600 246.0166 330.2557
ENERGY: 235000 4.7569 7.0102 2.4280 0.0000 -20481.8979 2924.0467 0.0000 0.0000 2441.5446 -15102.1115 239.3845 -17543.6561 -15097.5220 240.4819 -510.1397 -434.9664 50470.2037 5.2382 5.4093
ENERGY: 245000 2.2164 8.2488 1.8825 0.0000 -20467.4275 3009.1049 0.0000 0.0000 2474.8119 -14971.1631 242.6463 -17445.9749 -14966.2481 239.8147 85.9052 154.9424 50829.0409 0.1873 0.0107
ENERGY: 255000 4.6393 9.6593 4.4774 0.0000 -20611.1804 3126.6057 0.0000 0.0000 2483.0285 -14982.7702 243.4519 -17465.7987 -14976.3403 240.2561 670.5583 723.5742 50657.0644 4.5888 4.3533
ENERGY: 265000 3.8426 5.6300 2.5343 0.0000 -20307.9259 2873.6590 0.0000 0.0000 2478.8139 -14943.4461 243.0387 -17422.2600 -14938.1372 240.1871 -610.2249 -523.3436 51027.0987 4.6832 4.6535
ENERGY: 275000 1.8206 8.3572 3.9592 0.0000 -20588.2150 3046.1845 0.0000 0.0000 2498.0046 -15029.8890 244.9202 -17527.8936 -15025.9159 240.9855 179.5372 280.6568 50601.6666 -0.5495 -0.2118
TCL: Running 50000 steps at 270 kelvin.
TCL: Setting parameter langevinTemp to 270
TCL: Running for 50000 steps
ETITLE: TS BOND ANGLE DIHED IMPRP ELECT VDW BOUNDARY MISC KINETIC TOTAL TEMP POTENTIAL TOTAL3 TEMPAVG PRESSURE GPRESSURE VOLUME PRESSAVG GPRESSAVG
ENERGY: 275000 1.8206 8.3572 3.9592 0.0000 -20588.2150 3046.1845 0.0000 0.0000 2496.8031 -15031.0905 244.8024 -17527.8936 -15027.6568 244.8024 201.5093 280.3697 50601.6666 201.5093 280.3697
ENERGY: 285000 1.7660 7.5454 1.4378 0.0000 -19754.9247 2796.5068 0.0000 0.0000 2782.1758 -14165.4929 272.7822 -16947.6688 -14159.1231 268.9635 65.3607 119.2118 51122.6868 1.5977 1.2166
ENERGY: 295000 3.1466 6.4560 2.0865 0.0000 -19604.5682 2760.5168 0.0000 0.0000 2784.7350 -14047.6273 273.0331 -16832.3623 -14043.3824 270.9694 358.4419 435.0153 50666.5153 0.8889 0.4085
ENERGY: 305000 1.3316 5.3680 6.8010 0.0000 -19435.7028 2660.3839 0.0000 0.0000 2827.7704 -13934.0479 277.2526 -16761.8183 -13928.8660 270.7064 -337.4050 -230.3566 51658.9211 5.0045 4.5958
ENERGY: 315000 3.7198 8.5940 2.9763 0.0000 -19490.6608 2763.9893 0.0000 0.0000 2705.7055 -14005.6760 265.2845 -16711.3815 -14000.7271 269.0125 140.4512 205.1395 51859.9235 3.6540 2.6797
ENERGY: 325000 4.1156 6.0446 4.5083 0.0000 -19423.1539 2535.8632 0.0000 0.0000 2751.6322 -14120.9901 269.7875 -16872.6223 -14116.2027 269.1399 -1188.0195 -1125.2094 51509.3909 2.5796 2.9524
TCL: Running 1000000 steps at 300 kelvin.
TCL: Setting parameter langevinTemp to 300
TCL: Running for 1000000 steps
ETITLE: TS BOND ANGLE DIHED IMPRP ELECT VDW BOUNDARY MISC KINETIC TOTAL TEMP POTENTIAL TOTAL3 TEMPAVG PRESSURE GPRESSURE VOLUME PRESSAVG GPRESSAVG
ENERGY: 325000 4.1156 6.0446 4.5083 0.0000 -19423.1539 2535.8632 0.0000 0.0000 2750.2723 -14122.3500 269.6542 -16872.6223 -14117.9454 269.6542 -1204.8584 -1125.4602 51509.3909 -1204.8584 -1125.4602
ENERGY: 525000 4.6022 8.5469 5.5045 0.0000 -18390.9086 2379.2692 0.0000 0.0000 3132.8603 -12860.1255 307.1655 -15992.9858 -12855.2304 299.6467 -477.7967 -401.9460 52875.4868 -0.7686 -0.5351
ENERGY: 725000 7.5673 14.1787 3.2720 0.0000 -18480.5896 2410.4105 0.0000 0.0000 3077.5050 -12967.6562 301.7381 -16045.1611 -12961.9022 299.7988 -207.1298 -174.1938 52335.8858 2.8723 3.4327
ENERGY: 925000 3.1430 6.5358 2.9575 0.0000 -18605.9237 2524.4719 0.0000 0.0000 3089.6416 -12979.1738 302.9281 -16068.8154 -12972.5839 299.8675 192.6698 220.8553 52956.3331 0.3570 0.7087
ENERGY: 1125000 5.2089 6.7059 2.8688 0.0000 -18611.2698 2489.9382 0.0000 0.0000 3058.9722 -13047.5759 299.9211 -16106.5481 -13038.2228 300.7549 -189.2289 -90.3972 52638.6669 7.5401 7.4092
ENERGY: 1325000 4.7305 10.1506 7.3010 0.0000 -18625.6624 2552.9624 0.0000 0.0000 3124.5082 -12926.0096 306.3466 -16050.5178 -12919.9776 300.5685 154.0163 252.4788 52921.0793 2.5960 2.4084
TCL: Exiting due to exit command.
