Info: SIMULATION PARAMETERS:
Info: TIMESTEP               2
Info: NUMBER OF STEPS        0
Info: STEPS PER CYCLE        10
Info: PERIODIC CELL BASIS 1  36.281 0 0
Info: PERIODIC CELL BASIS 2  0 34.457 0
Info: PERIODIC CELL BASIS 3  0 0 35.723
Info: PERIODIC CELL CENTER   0 0 0
Info: WRAPPING WATERS AROUND PERIODIC BOUNDARIES ON OUTPUT.
Info: WRAPPING ALL CLUSTERS AROUND PERIODIC BOUNDARIES ON OUTPUT.
Info: FIRST LDB TIMESTEP     50
Info: LAST LDB TIMESTEP     -1
Info: HOM BACKGROUND SCALING 1
Info: PME BACKGROUND SCALING 1
Info: MIN ATOMS PER PATCH    40
Info: EMPTY PATCH LOAD       40 ATOMS
Info: INITIAL TEMPERATURE    300
Info: CENTER OF MASS MOVING INITIALLY? NO
Info: DIELECTRIC             1
Info: EXCLUDE                SCALED ONE-FOUR
Info: 1-4 ELECTROSTATICS SCALED BY 0.833333
Info: MODIFIED 1-4 VDW PARAMETERS WILL BE USED
Info: DCD FILENAME           mobley_7015518_equil.dcd
Info: DCD FREQUENCY          100000
Info: DCD FIRST STEP         100000
Info: DCD FILE WILL CONTAIN UNIT CELL DATA
Info: XST FILENAME           mobley_7015518_equil.xst
Info: XST FREQUENCY          100000
Info: NO VELOCITY DCD OUTPUT
Info: NO FORCE DCD OUTPUT
Info: OUTPUT FILENAME        mobley_7015518_equil
Info: BINARY OUTPUT FILES WILL BE USED
Info: RESTART FILENAME       mobley_7015518_equil.restart
Info: RESTART FREQUENCY      100000
Info: BINARY RESTART FILES WILL BE USED
Info: CUTOFF                 9
Info: PAIRLIST DISTANCE      11
Info: PAIRLIST SHRINK RATE   0.01
Info: PAIRLIST GROW RATE     0.01
Info: PAIRLIST TRIGGER       0.3
Info: PAIRLISTS PER CYCLE    2
Info: PAIRLISTS ENABLED
Info: MARGIN                 8
Info: HYDROGEN GROUP CUTOFF  2.5
Info: PATCH DIMENSION        21.5
Info: ENERGY OUTPUT STEPS    100000
Info: ENERGY EVALUATION STEPS    100000
Info: OUTPUT ENERGY PRECISION 4
Info: CROSSTERM ENERGY INCLUDED IN DIHEDRAL
Info: TIMING OUTPUT STEPS    1000000
Info: PRESSURE OUTPUT STEPS  100000
Info: LANGEVIN DYNAMICS ACTIVE
Info: LANGEVIN TEMPERATURE   30
Info: LANGEVIN USING BBK INTEGRATOR
Info: LANGEVIN DAMPING COEFFICIENT IS 1 INVERSE PS
Info: LANGEVIN DYNAMICS APPLIED TO HYDROGENS
Info: LANGEVIN PISTON PRESSURE CONTROL ACTIVE
Info:        TARGET PRESSURE IS 1.01325 BAR
Info:     OSCILLATION PERIOD IS 50 FS
Info:             DECAY TIME IS 25 FS
Info:     PISTON TEMPERATURE IS 300 K
Info:       PRESSURE CONTROL IS GROUP-BASED
Info:    INITIAL STRAIN RATE IS 0 0 0
Info:       CELL FLUCTUATION IS ISOTROPIC
Info: PARTICLE MESH EWALD (PME) ACTIVE
Info: PME TOLERANCE               1e-06
Info: PME EWALD COEFFICIENT       0.348832
Info: PME INTERPOLATION ORDER     4
Info: PME GRID DIMENSIONS         40 36 36
Info: PME MAXIMUM GRID SPACING    1
Info: FULL ELECTROSTATIC EVALUATION FREQUENCY      2
Info: USING VERLET I (r-RESPA) MTS SCHEME.
Info: C1 SPLITTING OF LONG RANGE ELECTROSTATICS
Info: PLACING ATOMS IN PATCHES BY HYDROGEN GROUPS
Info: RIGID BONDS TO HYDROGEN : ALL
Info:         ERROR TOLERANCE : 1e-08
Info:          MAX ITERATIONS : 100
Info: RIGID WATER USING SETTLE ALGORITHM
Info: RANDOM NUMBER SEED     1742449405
Info: USE HYDROGEN BONDS?    NO
Info: Using AMBER format force field!
Info: AMBER PARM FILE        mobley_7015518.prmtop
Info: COORDINATE PDB         mobley_7015518.pdb
Info: Exclusions will be read from PARM file!
Info: SCNB (VDW SCALING)     2
Info: USING ARITHMETIC MEAN TO COMBINE L-J SIGMA PARAMETERS
Info: BINARY COORDINATES     mobley_7015518_min.coor
Info: SUMMARY OF PARAMETERS:
Info: 4 BONDS
Info: 3 ANGLES
Info:   3 HARMONIC
Info:   0 COSINE-BASED
Info: 1 DIHEDRAL
Info: 0 IMPROPER
Info: 0 CROSSTERM
Info: 0 VDW
Info: 15 VDW_PAIRS
Info: 0 NBTHOLE_PAIRS
Info: STRUCTURE SUMMARY:
Info: 3000 ATOMS
Info: 2999 BONDS
Info: 13 ANGLES
Info: 6 DIHEDRALS
Info: 0 IMPROPERS
Info: 0 CROSSTERMS
Info: 3018 EXCLUSIONS
Info: 2997 RIGID BONDS
Info: 6003 DEGREES OF FREEDOM
Info: 1000 HYDROGEN GROUPS
Info: 4 ATOMS IN LARGEST HYDROGEN GROUP
Info: 1000 MIGRATION GROUPS
Info: 4 ATOMS IN LARGEST MIGRATION GROUP
Info: TOTAL MASS = 18008 amu
Info: TOTAL CHARGE = 9.99942e-05 e
Info: MASS DENSITY = 0.669608 g/cm^3
Info: ATOM DENSITY = 0.0671764 atoms/A^3
Info: ADDED 0 IMPLICIT EXCLUSIONS
Info: NONBONDED TABLE R-SQUARED SPACING: 0.0625
Info: NONBONDED TABLE SIZE: 705 POINTS
Info: REMOVING COM VELOCITY -0.146077 -0.0813176 -0.0201263
TCL: Running for 100000 steps
ETITLE: TS BOND ANGLE DIHED IMPRP ELECT VDW BOUNDARY MISC KINETIC TOTAL TEMP POTENTIAL TOTAL3 TEMPAVG PRESSURE GPRESSURE VOLUME PRESSAVG GPRESSAVG
ENERGY: 0 0.0392 0.0263 0.0201 0.0000 -13885.4738 2447.3342 0.0000 0.0000 1722.8112 -9715.2427 288.8416 -11438.0539 -9714.9075 288.8416 438.5580 466.9185 44658.5518 438.5580 466.9185
ENERGY: 100000 0.1140 0.3178 0.1153 0.0000 -14514.7361 2524.3562 0.0000 0.0000 179.2770 -11810.5557 30.0571 -11989.8327 -11810.0826 30.8657 204.4450 273.4102 28638.1485 4.3879 4.3233
TCL: Running 100000 steps at 60 kelvin.
TCL: Setting parameter langevinTemp to 60
TCL: Running for 100000 steps
ETITLE: TS BOND ANGLE DIHED IMPRP ELECT VDW BOUNDARY MISC KINETIC TOTAL TEMP POTENTIAL TOTAL3 TEMPAVG PRESSURE GPRESSURE VOLUME PRESSAVG GPRESSAVG
ENERGY: 100000 0.1140 0.3178 0.1153 0.0000 -14514.7361 2524.3562 0.0000 0.0000 179.1897 -11810.6430 30.0424 -11989.8327 -11810.2096 30.0424 225.0018 273.6222 28638.1485 225.0018 273.6222
ENERGY: 200000 0.1331 0.6735 0.2466 0.0000 -14272.6197 2372.2174 0.0000 0.0000 355.6466 -11543.7025 59.6267 -11899.3491 -11542.7958 60.0413 -858.0951 -782.4141 29087.5782 5.3955 5.4885
TCL: Running 100000 steps at 90 kelvin.
TCL: Setting parameter langevinTemp to 90
TCL: Running for 100000 steps
ETITLE: TS BOND ANGLE DIHED IMPRP ELECT VDW BOUNDARY MISC KINETIC TOTAL TEMP POTENTIAL TOTAL3 TEMPAVG PRESSURE GPRESSURE VOLUME PRESSAVG GPRESSAVG
ENERGY: 200000 0.1331 0.6735 0.2466 0.0000 -14272.6197 2372.2174 0.0000 0.0000 355.4597 -11543.8893 59.5954 -11899.3491 -11543.0203 59.5954 -820.6747 -782.6270 29087.5782 -820.6747 -782.6270
ENERGY: 300000 0.4051 0.9533 0.1957 0.0000 -14179.3171 2400.3651 0.0000 0.0000 535.4117 -11241.9860 89.7656 -11777.3978 -11240.9130 90.0527 -176.7007 -137.1357 29023.0257 3.9646 3.9310
TCL: Running 100000 steps at 120 kelvin.
TCL: Setting parameter langevinTemp to 120
TCL: Running for 100000 steps
ETITLE: TS BOND ANGLE DIHED IMPRP ELECT VDW BOUNDARY MISC KINETIC TOTAL TEMP POTENTIAL TOTAL3 TEMPAVG PRESSURE GPRESSURE VOLUME PRESSAVG GPRESSAVG
ENERGY: 300000 0.4051 0.9533 0.1957 0.0000 -14179.3171 2400.3651 0.0000 0.0000 535.1495 -11242.2483 89.7216 -11777.3978 -11241.2138 89.7216 -182.8222 -136.6135 29023.0257 -182.8222 -136.6135
ENERGY: 400000 0.1108 0.5937 1.1701 0.0000 -14023.8451 2349.6701 0.0000 0.0000 722.3388 -10949.9615 121.1053 -11672.3004 -10947.8597 119.9058 -256.5864 -196.7228 29246.5535 2.6634 2.7229
TCL: Running 100000 steps at 150 kelvin.
TCL: Setting parameter langevinTemp to 150
TCL: Running for 100000 steps
ETITLE: TS BOND ANGLE DIHED IMPRP ELECT VDW BOUNDARY MISC KINETIC TOTAL TEMP POTENTIAL TOTAL3 TEMPAVG PRESSURE GPRESSURE VOLUME PRESSAVG GPRESSAVG
ENERGY: 400000 0.1108 0.5937 1.1701 0.0000 -14023.8451 2349.6701 0.0000 0.0000 721.9654 -10950.3350 121.0426 -11672.3004 -10948.9818 121.0426 -255.8329 -196.7284 29246.5535 -255.8329 -196.7284
ENERGY: 500000 0.2130 2.4874 1.1878 0.0000 -13930.2033 2454.1073 0.0000 0.0000 883.0791 -10589.1287 148.0545 -11472.2078 -10588.1903 149.7763 1278.0424 1347.8031 29179.7063 4.3091 4.4257
TCL: Running 100000 steps at 180 kelvin.
TCL: Setting parameter langevinTemp to 180
TCL: Running for 100000 steps
ETITLE: TS BOND ANGLE DIHED IMPRP ELECT VDW BOUNDARY MISC KINETIC TOTAL TEMP POTENTIAL TOTAL3 TEMPAVG PRESSURE GPRESSURE VOLUME PRESSAVG GPRESSAVG
ENERGY: 500000 0.2130 2.4874 1.1878 0.0000 -13930.2033 2454.1073 0.0000 0.0000 882.6323 -10589.5755 147.9796 -11472.2078 -10588.4502 147.9796 1286.7000 1347.2951 29179.7063 1286.7000 1347.2951
ENERGY: 600000 1.4539 1.8002 0.0730 0.0000 -13438.6968 2227.0386 0.0000 0.0000 1092.5076 -10115.8234 183.1667 -11208.3311 -10112.1861 180.1096 238.2497 331.3819 29462.6553 3.4543 3.6398
TCL: Running 100000 steps at 210 kelvin.
TCL: Setting parameter langevinTemp to 210
TCL: Running for 100000 steps
ETITLE: TS BOND ANGLE DIHED IMPRP ELECT VDW BOUNDARY MISC KINETIC TOTAL TEMP POTENTIAL TOTAL3 TEMPAVG PRESSURE GPRESSURE VOLUME PRESSAVG GPRESSAVG
ENERGY: 600000 1.4539 1.8002 0.0730 0.0000 -13438.6968 2227.0386 0.0000 0.0000 1091.9786 -10116.3525 183.0780 -11208.3311 -10114.2461 183.0780 261.4905 331.7999 29462.6553 261.4905 331.7999
ENERGY: 700000 0.0352 3.1551 0.6635 0.0000 -12531.3092 1909.8335 0.0000 0.0000 1240.9187 -9376.7032 208.0489 -10617.6218 -9373.2149 209.6131 -33.3102 97.3625 29280.8427 3.2351 3.0957
TCL: Running 100000 steps at 240 kelvin.
TCL: Setting parameter langevinTemp to 240
TCL: Running for 100000 steps
ETITLE: TS BOND ANGLE DIHED IMPRP ELECT VDW BOUNDARY MISC KINETIC TOTAL TEMP POTENTIAL TOTAL3 TEMPAVG PRESSURE GPRESSURE VOLUME PRESSAVG GPRESSAVG
ENERGY: 700000 0.0352 3.1551 0.6635 0.0000 -12531.3092 1909.8335 0.0000 0.0000 1240.3022 -9377.3197 207.9455 -10617.6218 -9374.7219 207.9455 12.2459 97.2562 29280.8427 12.2459 97.2562
ENERGY: 800000 0.8794 3.9873 0.0402 0.0000 -12025.4299 1761.6509 0.0000 0.0000 1445.0281 -8813.8440 242.2693 -10258.8721 -8810.9295 240.1708 240.3276 362.1224 29044.6383 2.7460 2.8946
TCL: Running 100000 steps at 270 kelvin.
TCL: Setting parameter langevinTemp to 270
TCL: Running for 100000 steps
ETITLE: TS BOND ANGLE DIHED IMPRP ELECT VDW BOUNDARY MISC KINETIC TOTAL TEMP POTENTIAL TOTAL3 TEMPAVG PRESSURE GPRESSURE VOLUME PRESSAVG GPRESSAVG
ENERGY: 800000 0.8794 3.9873 0.0402 0.0000 -12025.4299 1761.6509 0.0000 0.0000 1444.3253 -8814.5468 242.1514 -10258.8721 -8812.0129 242.1514 271.8050 361.8423 29044.6383 271.8050 361.8423
ENERGY: 900000 0.6049 2.7534 0.4925 0.0000 -11352.9176 1514.7073 0.0000 0.0000 1623.0819 -8211.2777 272.1213 -9834.3595 -8206.4790 269.8108 -508.5765 -408.1790 29801.9280 3.3131 3.2910
TCL: Running 1000000 steps at 300 kelvin.
TCL: Setting parameter langevinTemp to 300
TCL: Running for 1000000 steps
ETITLE: TS BOND ANGLE DIHED IMPRP ELECT VDW BOUNDARY MISC KINETIC TOTAL TEMP POTENTIAL TOTAL3 TEMPAVG PRESSURE GPRESSURE VOLUME PRESSAVG GPRESSAVG
ENERGY: 900000 0.6049 2.7534 0.4925 0.0000 -11352.9176 1514.7073 0.0000 0.0000 1622.2949 -8212.0647 271.9893 -9834.3595 -8209.3287 271.9893 -488.9948 -408.1540 29801.9280 -488.9948 -408.1540
ENERGY: 1100000 1.4249 3.9673 0.3825 0.0000 -10856.6312 1448.5152 0.0000 0.0000 1802.4389 -7599.9023 302.1917 -9402.3413 -7596.0081 299.6543 -122.5636 -89.6051 30971.4861 5.1900 5.1720
ENERGY: 1300000 0.3471 2.7162 0.1372 0.0000 -10842.7384 1449.9770 0.0000 0.0000 1752.4343 -7637.1266 293.8081 -9389.5609 -7633.4144 299.6453 -262.3399 -127.0956 31006.0632 3.5304 3.6410
ENERGY: 1500000 0.3387 3.8899 1.0962 0.0000 -10891.3073 1511.3857 0.0000 0.0000 1802.1071 -7572.4898 302.1361 -9374.5969 -7569.6586 300.2829 639.4849 720.2645 30648.7713 3.7793 3.7078
ENERGY: 1700000 0.0359 3.4220 0.3817 0.0000 -10755.9807 1396.8841 0.0000 0.0000 1766.7557 -7588.5014 296.2092 -9355.2571 -7583.4096 300.3223 -660.2746 -547.9219 31612.1989 3.7877 3.8264
ENERGY: 1900000 0.3269 1.9600 0.1604 0.0000 -10874.4706 1426.7156 0.0000 0.0000 1795.9669 -7649.3408 301.1067 -9445.3076 -7645.6241 300.8901 18.2881 106.8745 30282.5126 5.2253 5.2080
TCL: Exiting due to exit command.
