Info: SIMULATION PARAMETERS:
Info: TIMESTEP               2
Info: NUMBER OF STEPS        0
Info: STEPS PER CYCLE        10
Info: PERIODIC CELL BASIS 1  41.123 0 0
Info: PERIODIC CELL BASIS 2  0 43.18 0
Info: PERIODIC CELL BASIS 3  0 0 41.935
Info: PERIODIC CELL CENTER   0 0 0
Info: WRAPPING WATERS AROUND PERIODIC BOUNDARIES ON OUTPUT.
Info: WRAPPING ALL CLUSTERS AROUND PERIODIC BOUNDARIES ON OUTPUT.
Info: FIRST LDB TIMESTEP     50
Info: LAST LDB TIMESTEP     -1
Info: HOM BACKGROUND SCALING 1
Info: PME BACKGROUND SCALING 1
Info: MIN ATOMS PER PATCH    40
Info: EMPTY PATCH LOAD       40 ATOMS
Info: INITIAL TEMPERATURE    300
Info: CENTER OF MASS MOVING INITIALLY? NO
Info: DIELECTRIC             1
Info: EXCLUDE                SCALED ONE-FOUR
Info: 1-4 ELECTROSTATICS SCALED BY 0.833333
Info: MODIFIED 1-4 VDW PARAMETERS WILL BE USED
Info: DCD FILENAME           mobley_6334915_min.dcd
Info: DCD FREQUENCY          5000
Info: DCD FIRST STEP         5000
Info: DCD FILE WILL CONTAIN UNIT CELL DATA
Info: XST FILENAME           mobley_6334915_min.xst
Info: XST FREQUENCY          5000
Info: NO VELOCITY DCD OUTPUT
Info: NO FORCE DCD OUTPUT
Info: OUTPUT FILENAME        mobley_6334915_min
Info: BINARY OUTPUT FILES WILL BE USED
Info: RESTART FILENAME       mobley_6334915_min.restart
Info: RESTART FREQUENCY      5000
Info: BINARY RESTART FILES WILL BE USED
Info: CUTOFF                 9
Info: PAIRLIST DISTANCE      11
Info: PAIRLIST SHRINK RATE   0.01
Info: PAIRLIST GROW RATE     0.01
Info: PAIRLIST TRIGGER       0.3
Info: PAIRLISTS PER CYCLE    2
Info: PAIRLISTS ENABLED
Info: MARGIN                 8
Info: HYDROGEN GROUP CUTOFF  2.5
Info: PATCH DIMENSION        21.5
Info: ENERGY OUTPUT STEPS    5000
Info: ENERGY EVALUATION STEPS    5000
Info: OUTPUT ENERGY PRECISION 4
Info: CROSSTERM ENERGY INCLUDED IN DIHEDRAL
Info: TIMING OUTPUT STEPS    50000
Info: PRESSURE OUTPUT STEPS  5000
Info: LANGEVIN DYNAMICS ACTIVE
Info: LANGEVIN TEMPERATURE   300
Info: LANGEVIN USING BBK INTEGRATOR
Info: LANGEVIN DAMPING COEFFICIENT IS 1 INVERSE PS
Info: LANGEVIN DYNAMICS APPLIED TO HYDROGENS
Info: LANGEVIN PISTON PRESSURE CONTROL ACTIVE
Info:        TARGET PRESSURE IS 1.01325 BAR
Info:     OSCILLATION PERIOD IS 50 FS
Info:             DECAY TIME IS 25 FS
Info:     PISTON TEMPERATURE IS 300 K
Info:       PRESSURE CONTROL IS GROUP-BASED
Info:    INITIAL STRAIN RATE IS 0 0 0
Info:       CELL FLUCTUATION IS ISOTROPIC
Info: PARTICLE MESH EWALD (PME) ACTIVE
Info: PME TOLERANCE               1e-06
Info: PME EWALD COEFFICIENT       0.348832
Info: PME INTERPOLATION ORDER     4
Info: PME GRID DIMENSIONS         44 44 44
Info: PME MAXIMUM GRID SPACING    1
Info: FULL ELECTROSTATIC EVALUATION FREQUENCY      2
Info: USING VERLET I (r-RESPA) MTS SCHEME.
Info: C1 SPLITTING OF LONG RANGE ELECTROSTATICS
Info: PLACING ATOMS IN PATCHES BY HYDROGEN GROUPS
Info: RIGID BONDS TO HYDROGEN : ALL
Info:         ERROR TOLERANCE : 1e-08
Info:          MAX ITERATIONS : 100
Info: RIGID WATER USING SETTLE ALGORITHM
Info: RANDOM NUMBER SEED     1741382349
Info: USE HYDROGEN BONDS?    NO
Info: Using AMBER format force field!
Info: AMBER PARM FILE        mobley_6334915.prmtop
Info: COORDINATE PDB         mobley_6334915.pdb
Info: Exclusions will be read from PARM file!
Info: SCNB (VDW SCALING)     2
Info: USING ARITHMETIC MEAN TO COMBINE L-J SIGMA PARAMETERS
Info: SUMMARY OF PARAMETERS:
Info: 11 BONDS
Info: 16 ANGLES
Info:   16 HARMONIC
Info:   0 COSINE-BASED
Info: 12 DIHEDRAL
Info: 0 IMPROPER
Info: 0 CROSSTERM
Info: 0 VDW
Info: 55 VDW_PAIRS
Info: 0 NBTHOLE_PAIRS
Info: STRUCTURE SUMMARY:
Info: 5306 ATOMS
Info: 5305 BONDS
Info: 33 ANGLES
Info: 38 DIHEDRALS
Info: 0 IMPROPERS
Info: 0 CROSSTERMS
Info: 5371 EXCLUSIONS
Info: 5294 RIGID BONDS
Info: 10624 DEGREES OF FREEDOM
Info: 1774 HYDROGEN GROUPS
Info: 4 ATOMS IN LARGEST HYDROGEN GROUP
Info: 1774 MIGRATION GROUPS
Info: 4 ATOMS IN LARGEST MIGRATION GROUP
Info: TOTAL MASS = 32001.6 amu
Info: TOTAL CHARGE = -9.99272e-05 e
Info: MASS DENSITY = 0.713653 g/cm^3
Info: ATOM DENSITY = 0.0712563 atoms/A^3
Info: ADDED 0 IMPLICIT EXCLUSIONS
Info: NONBONDED TABLE R-SQUARED SPACING: 0.0625
Info: NONBONDED TABLE SIZE: 705 POINTS
Info: REMOVING COM VELOCITY 0.0807896 0.114541 0.0515103
TCL: Minimizing for 2000 steps
ETITLE: TS BOND ANGLE DIHED IMPRP ELECT VDW BOUNDARY MISC KINETIC TOTAL TEMP POTENTIAL TOTAL3 TEMPAVG PRESSURE GPRESSURE VOLUME PRESSAVG GPRESSAVG
ENERGY: 0 0.7636 2.6036 9.9872 0.0000 -16449.6014 1836.8942 0.0000 0.0000 0.0000 -14599.3529 0.0000 -14599.3529 -14599.3529 0.0000 10920.6711 -15100.1070 74463.6080 10920.6711 -15100.1070
ENERGY: 400 6.7674 5.0036 7.4720 0.0000 -22286.4111 3237.7415 0.0000 0.0000 0.0000 -19029.4266 0.0000 -19029.4266 -19029.4266 0.0000 15604.5083 10912.8725 74463.6080 15604.5083 10912.8725
ENERGY: 800 1.8265 3.9449 7.3186 0.0000 -23340.0803 3758.3133 0.0000 0.0000 0.0000 -19568.6770 0.0000 -19568.6770 -19568.6770 0.0000 17766.3141 12926.5920 74463.6080 17766.3141 12926.5920
ENERGY: 1200 1.1916 3.0095 7.3916 0.0000 -23790.6783 3972.6080 0.0000 0.0000 0.0000 -19806.4776 0.0000 -19806.4776 -19806.4776 0.0000 18697.6429 13832.1295 74463.6080 18697.6429 13832.1295
ENERGY: 1600 0.9527 3.4578 7.4520 0.0000 -24101.6610 4146.7978 0.0000 0.0000 0.0000 -19943.0006 0.0000 -19943.0006 -19943.0006 0.0000 19478.5772 14469.2768 74463.6080 19478.5772 14469.2768
ENERGY: 2000 0.6763 3.9047 7.4889 0.0000 -24227.3152 4182.9395 0.0000 0.0000 0.0000 -20032.3059 0.0000 -20032.3059 -20032.3059 0.0000 19669.8834 14582.6645 74463.6080 19669.8834 14582.6645
TCL: Exiting due to exit command.
Info: NAMD 3.0.1 for Linux-x86_64-multicore
Info: Please visit http://www.ks.uiuc.edu/Research/namd/
Info: for updates, documentation, and support information.
Info: Please cite Phillips et al., J. Chem. Phys. 153:044130 (2020) doi:10.1063/5.0014475
Info: in all publications reporting results obtained with NAMD.
Info: Based on Charm++/Converse 80000 for multicore-linux-x86_64-gcc
Info: Built Mon Oct 14 11:11:06 CDT 2024 by dhardy on athine.ks.uiuc.edu
Info: 1 NAMD  3.0.1  Linux-x86_64-multicore  16    k012  z5358697
Info: Running on 16 processors, 1 nodes, 1 physical nodes.
Info: CPU topology information available.
Info: Charm++/Converse parallel runtime startup completed at 0.00969896 s
Info: 1043.45 MB of memory in use based on /proc/self/stat
Info: Configuration file is mobley_6334915_equil.namd
Info: Working in the current directory /srv/scratch/z5358697/prod_prep_8/6334915
TCL: Running 25000 steps at 30 kelvin.
TCL: Suspending until startup complete.
Info: SIMULATION PARAMETERS:
Info: TIMESTEP               2
Info: NUMBER OF STEPS        0
Info: STEPS PER CYCLE        10
Info: PERIODIC CELL BASIS 1  41.123 0 0
Info: PERIODIC CELL BASIS 2  0 43.18 0
Info: PERIODIC CELL BASIS 3  0 0 41.935
Info: PERIODIC CELL CENTER   0 0 0
Info: WRAPPING WATERS AROUND PERIODIC BOUNDARIES ON OUTPUT.
Info: WRAPPING ALL CLUSTERS AROUND PERIODIC BOUNDARIES ON OUTPUT.
Info: FIRST LDB TIMESTEP     50
Info: LAST LDB TIMESTEP     -1
Info: HOM BACKGROUND SCALING 1
Info: PME BACKGROUND SCALING 1
Info: MIN ATOMS PER PATCH    40
Info: EMPTY PATCH LOAD       40 ATOMS
Info: INITIAL TEMPERATURE    300
Info: CENTER OF MASS MOVING INITIALLY? NO
Info: DIELECTRIC             1
Info: EXCLUDE                SCALED ONE-FOUR
Info: 1-4 ELECTROSTATICS SCALED BY 0.833333
Info: MODIFIED 1-4 VDW PARAMETERS WILL BE USED
Info: DCD FILENAME           mobley_6334915_equil.dcd
Info: DCD FREQUENCY          5000
Info: DCD FIRST STEP         5000
Info: DCD FILE WILL CONTAIN UNIT CELL DATA
Info: XST FILENAME           mobley_6334915_equil.xst
Info: XST FREQUENCY          5000
Info: NO VELOCITY DCD OUTPUT
Info: NO FORCE DCD OUTPUT
Info: OUTPUT FILENAME        mobley_6334915_equil
Info: BINARY OUTPUT FILES WILL BE USED
Info: RESTART FILENAME       mobley_6334915_equil.restart
Info: RESTART FREQUENCY      5000
Info: BINARY RESTART FILES WILL BE USED
Info: CUTOFF                 9
Info: PAIRLIST DISTANCE      11
Info: PAIRLIST SHRINK RATE   0.01
Info: PAIRLIST GROW RATE     0.01
Info: PAIRLIST TRIGGER       0.3
Info: PAIRLISTS PER CYCLE    2
Info: PAIRLISTS ENABLED
Info: MARGIN                 8
Info: HYDROGEN GROUP CUTOFF  2.5
Info: PATCH DIMENSION        21.5
Info: ENERGY OUTPUT STEPS    5000
Info: ENERGY EVALUATION STEPS    5000
Info: OUTPUT ENERGY PRECISION 4
Info: CROSSTERM ENERGY INCLUDED IN DIHEDRAL
Info: TIMING OUTPUT STEPS    50000
Info: PRESSURE OUTPUT STEPS  5000
Info: LANGEVIN DYNAMICS ACTIVE
Info: LANGEVIN TEMPERATURE   30
Info: LANGEVIN USING BBK INTEGRATOR
Info: LANGEVIN DAMPING COEFFICIENT IS 1 INVERSE PS
Info: LANGEVIN DYNAMICS APPLIED TO HYDROGENS
Info: LANGEVIN PISTON PRESSURE CONTROL ACTIVE
Info:        TARGET PRESSURE IS 1.01325 BAR
Info:     OSCILLATION PERIOD IS 50 FS
Info:             DECAY TIME IS 25 FS
Info:     PISTON TEMPERATURE IS 300 K
Info:       PRESSURE CONTROL IS GROUP-BASED
Info:    INITIAL STRAIN RATE IS 0 0 0
Info:       CELL FLUCTUATION IS ISOTROPIC
Info: PARTICLE MESH EWALD (PME) ACTIVE
Info: PME TOLERANCE               1e-06
Info: PME EWALD COEFFICIENT       0.348832
Info: PME INTERPOLATION ORDER     4
Info: PME GRID DIMENSIONS         44 44 44
Info: PME MAXIMUM GRID SPACING    1
Info: FULL ELECTROSTATIC EVALUATION FREQUENCY      2
Info: USING VERLET I (r-RESPA) MTS SCHEME.
Info: C1 SPLITTING OF LONG RANGE ELECTROSTATICS
Info: PLACING ATOMS IN PATCHES BY HYDROGEN GROUPS
Info: RIGID BONDS TO HYDROGEN : ALL
Info:         ERROR TOLERANCE : 1e-08
Info:          MAX ITERATIONS : 100
Info: RIGID WATER USING SETTLE ALGORITHM
Info: RANDOM NUMBER SEED     1741382365
Info: USE HYDROGEN BONDS?    NO
Info: Using AMBER format force field!
Info: AMBER PARM FILE        mobley_6334915.prmtop
Info: COORDINATE PDB         mobley_6334915.pdb
Info: Exclusions will be read from PARM file!
Info: SCNB (VDW SCALING)     2
Info: USING ARITHMETIC MEAN TO COMBINE L-J SIGMA PARAMETERS
Info: BINARY COORDINATES     mobley_6334915_min.coor
Info: SUMMARY OF PARAMETERS:
Info: 11 BONDS
Info: 16 ANGLES
Info:   16 HARMONIC
Info:   0 COSINE-BASED
Info: 12 DIHEDRAL
Info: 0 IMPROPER
Info: 0 CROSSTERM
Info: 0 VDW
Info: 55 VDW_PAIRS
Info: 0 NBTHOLE_PAIRS
Info: STRUCTURE SUMMARY:
Info: 5306 ATOMS
Info: 5305 BONDS
Info: 33 ANGLES
Info: 38 DIHEDRALS
Info: 0 IMPROPERS
Info: 0 CROSSTERMS
Info: 5371 EXCLUSIONS
Info: 5294 RIGID BONDS
Info: 10624 DEGREES OF FREEDOM
Info: 1774 HYDROGEN GROUPS
Info: 4 ATOMS IN LARGEST HYDROGEN GROUP
Info: 1774 MIGRATION GROUPS
Info: 4 ATOMS IN LARGEST MIGRATION GROUP
Info: TOTAL MASS = 32001.6 amu
Info: TOTAL CHARGE = -9.99272e-05 e
Info: MASS DENSITY = 0.713653 g/cm^3
Info: ATOM DENSITY = 0.0712563 atoms/A^3
Info: ADDED 0 IMPLICIT EXCLUSIONS
Info: NONBONDED TABLE R-SQUARED SPACING: 0.0625
Info: NONBONDED TABLE SIZE: 705 POINTS
Info: REMOVING COM VELOCITY 0.0547906 0.0309352 -0.0701447
TCL: Running for 25000 steps
ETITLE: TS BOND ANGLE DIHED IMPRP ELECT VDW BOUNDARY MISC KINETIC TOTAL TEMP POTENTIAL TOTAL3 TEMPAVG PRESSURE GPRESSURE VOLUME PRESSAVG GPRESSAVG
ENERGY: 0 0.6763 3.9047 7.4889 0.0000 -24227.3152 4182.9395 0.0000 0.0000 3175.7298 -16856.5760 300.8471 -20032.3059 -16855.9671 300.8471 287.0384 316.7596 74463.6080 287.0384 316.7596
ENERGY: 5000 1.3798 3.6363 7.9156 0.0000 -25437.2493 4410.2895 0.0000 0.0000 317.1561 -20696.8720 30.0452 -21014.0281 -20695.8847 47.8971 9.2437 70.2105 51979.7323 4.3751 4.2328
ENERGY: 10000 1.4356 3.2318 8.2618 0.0000 -25545.1842 4470.8555 0.0000 0.0000 312.6931 -20748.7063 29.6224 -21061.3994 -20748.0639 29.9843 257.3119 304.5645 51820.4904 2.3331 2.5462
ENERGY: 15000 1.2619 3.5398 7.8934 0.0000 -25640.1868 4533.6676 0.0000 0.0000 313.8750 -20779.9491 29.7344 -21093.8242 -20779.1241 30.0803 542.4466 599.6195 51503.4353 2.6554 2.7969
ENERGY: 20000 1.7345 3.9779 8.2857 0.0000 -25597.6030 4459.0120 0.0000 0.0000 318.6943 -20805.8985 30.1909 -21124.5929 -20804.9953 30.2376 135.3898 179.2728 51538.6083 5.9664 5.9206
ENERGY: 25000 1.6895 3.9790 7.8341 0.0000 -25625.1961 4478.2113 0.0000 0.0000 317.0934 -20816.3887 30.0393 -21133.4821 -20815.2714 30.0467 132.3633 180.5095 51660.7825 0.3651 0.4930
TCL: Running 25000 steps at 60 kelvin.
TCL: Setting parameter langevinTemp to 60
TCL: Running for 25000 steps
ETITLE: TS BOND ANGLE DIHED IMPRP ELECT VDW BOUNDARY MISC KINETIC TOTAL TEMP POTENTIAL TOTAL3 TEMPAVG PRESSURE GPRESSURE VOLUME PRESSAVG GPRESSAVG
ENERGY: 25000 1.6895 3.9790 7.8341 0.0000 -25625.1961 4478.2113 0.0000 0.0000 316.9364 -20816.5457 30.0244 -21133.4821 -20815.8754 30.0244 129.9552 180.5935 51660.7825 129.9552 180.5935
ENERGY: 30000 1.0685 5.5598 7.6151 0.0000 -25159.7505 4310.2352 0.0000 0.0000 629.2482 -20206.0237 59.6107 -20835.2719 -20204.3746 56.6540 79.3050 148.4048 51735.0695 4.2823 4.3851
ENERGY: 35000 1.7101 5.4369 8.3185 0.0000 -25184.0491 4299.6090 0.0000 0.0000 636.8606 -20232.1141 60.3319 -20868.9747 -20229.8652 59.8356 -80.8912 -35.0855 51767.2066 1.7688 1.6544
ENERGY: 40000 1.5109 3.5015 7.9433 0.0000 -25344.5667 4410.2489 0.0000 0.0000 645.2902 -20276.0718 61.1304 -20921.3620 -20274.4283 59.9453 261.4666 317.0621 51775.3881 2.3979 2.2613
ENERGY: 45000 1.0210 4.1742 8.2679 0.0000 -25324.3021 4389.1854 0.0000 0.0000 633.1469 -20288.5067 59.9800 -20921.6536 -20287.3824 60.0363 247.1596 282.7193 51705.0238 -2.2806 -2.2286
ENERGY: 50000 1.4532 4.1277 8.0395 0.0000 -25232.2282 4289.2074 0.0000 0.0000 632.5521 -20296.8483 59.9237 -20929.4005 -20295.6425 60.3324 -357.5926 -276.6794 51869.5007 -0.8855 -0.6981
TCL: Running 25000 steps at 90 kelvin.
TCL: Setting parameter langevinTemp to 90
TCL: Running for 25000 steps
ETITLE: TS BOND ANGLE DIHED IMPRP ELECT VDW BOUNDARY MISC KINETIC TOTAL TEMP POTENTIAL TOTAL3 TEMPAVG PRESSURE GPRESSURE VOLUME PRESSAVG GPRESSAVG
ENERGY: 50000 1.4532 4.1277 8.0395 0.0000 -25232.2282 4289.2074 0.0000 0.0000 632.2320 -20297.1685 59.8934 -20929.4005 -20295.7233 59.8934 -331.7274 -277.0420 51869.5007 -331.7274 -277.0420
ENERGY: 55000 0.8414 5.6204 8.3613 0.0000 -24640.9339 4003.2484 0.0000 0.0000 958.9474 -19663.9149 90.8442 -20622.8623 -19661.2091 87.2637 -915.3524 -892.5010 52356.0736 3.0678 3.0342
ENERGY: 60000 1.4458 5.8681 7.7397 0.0000 -24884.0727 4227.4220 0.0000 0.0000 939.9680 -19701.6291 89.0462 -20641.5971 -19699.3012 89.8515 68.4649 109.5650 51957.5547 7.1263 7.2300
ENERGY: 65000 1.7628 4.7065 9.1112 0.0000 -24851.6954 4156.0048 0.0000 0.0000 951.8347 -19728.2755 90.1704 -20680.1102 -19725.8287 89.7700 -284.2278 -237.9336 51854.6835 5.0270 4.7609
ENERGY: 70000 2.1520 6.1511 8.6648 0.0000 -24856.3611 4118.8844 0.0000 0.0000 939.5010 -19781.0079 89.0020 -20720.5088 -19778.6519 89.4569 -487.6910 -460.4983 51681.2536 0.0023 -0.2526
ENERGY: 75000 1.8558 3.4802 9.4596 0.0000 -24981.4179 4228.3639 0.0000 0.0000 952.9984 -19785.2601 90.2806 -20738.2585 -19782.8343 90.1574 -137.4334 -90.8295 51801.8278 5.9391 6.0126
TCL: Running 25000 steps at 120 kelvin.
TCL: Setting parameter langevinTemp to 120
TCL: Running for 25000 steps
ETITLE: TS BOND ANGLE DIHED IMPRP ELECT VDW BOUNDARY MISC KINETIC TOTAL TEMP POTENTIAL TOTAL3 TEMPAVG PRESSURE GPRESSURE VOLUME PRESSAVG GPRESSAVG
ENERGY: 75000 1.8558 3.4802 9.4596 0.0000 -24981.4179 4228.3639 0.0000 0.0000 952.5209 -19785.7376 90.2354 -20738.2585 -19783.9472 90.2354 -143.1136 -90.6693 51801.8278 -143.1136 -90.6693
ENERGY: 80000 1.4538 6.9643 7.5314 0.0000 -24483.7784 4113.8047 0.0000 0.0000 1262.5209 -19091.5033 119.6027 -20354.0242 -19088.7177 117.3115 67.0299 142.2111 52247.9675 2.0473 2.3412
ENERGY: 85000 2.0066 7.3511 7.7381 0.0000 -24689.2578 4272.6524 0.0000 0.0000 1269.8152 -19129.6944 120.2937 -20399.5097 -19127.3183 120.0222 855.8940 910.5644 51645.8305 1.6389 1.5483
ENERGY: 90000 2.6799 6.7037 8.5147 0.0000 -24531.8290 4060.4139 0.0000 0.0000 1253.9309 -19199.5859 118.7889 -20453.5168 -19196.8420 120.3982 -402.3296 -343.9197 52386.0322 3.0535 3.2076
ENERGY: 95000 1.1382 6.7801 9.5223 0.0000 -24535.9997 4077.4099 0.0000 0.0000 1273.3699 -19167.7793 120.6304 -20441.1492 -19165.1387 119.4741 -249.3197 -214.4424 52366.0928 1.8538 2.4550
ENERGY: 100000 2.6281 5.2150 7.9747 0.0000 -24635.9681 4164.2262 0.0000 0.0000 1277.0865 -19178.8376 120.9825 -20455.9242 -19176.0376 120.5820 137.0619 179.0492 52052.5940 -2.3028 -2.1619
TCL: Running 25000 steps at 150 kelvin.
TCL: Setting parameter langevinTemp to 150
TCL: Running for 25000 steps
ETITLE: TS BOND ANGLE DIHED IMPRP ELECT VDW BOUNDARY MISC KINETIC TOTAL TEMP POTENTIAL TOTAL3 TEMPAVG PRESSURE GPRESSURE VOLUME PRESSAVG GPRESSAVG
ENERGY: 100000 2.6281 5.2150 7.9747 0.0000 -24635.9681 4164.2262 0.0000 0.0000 1276.4301 -19179.4941 120.9203 -20455.9242 -19176.7719 120.9203 113.0690 178.7068 52052.5940 113.0690 178.7068
ENERGY: 105000 2.7006 7.0650 7.8821 0.0000 -24008.9070 3911.6206 0.0000 0.0000 1570.9805 -18508.6582 148.8241 -20079.6388 -18504.6951 147.2663 -310.1851 -271.3856 52516.8829 2.3064 2.1680
ENERGY: 110000 1.8240 4.9935 8.7928 0.0000 -24228.0637 4115.8398 0.0000 0.0000 1619.8645 -18476.7491 153.4550 -20096.6136 -18474.1843 149.1298 692.8275 738.9257 52164.2366 2.3968 2.2991
ENERGY: 115000 0.6954 7.5990 7.7446 0.0000 -24089.2580 3900.2807 0.0000 0.0000 1570.9218 -18602.0165 148.8185 -20172.9383 -18598.3843 150.3880 -523.5735 -477.2023 52412.1182 0.1443 0.2846
ENERGY: 120000 2.4551 6.4706 8.0611 0.0000 -24259.5990 4091.1048 0.0000 0.0000 1579.6422 -18571.8652 149.6446 -20151.5073 -18567.1803 150.3706 414.4243 473.1006 52049.7568 6.5326 6.5043
ENERGY: 125000 1.3713 5.3198 9.4670 0.0000 -24237.5039 4010.6094 0.0000 0.0000 1603.9204 -18606.8159 151.9446 -20210.7363 -18603.9337 150.3370 -19.4684 8.3128 52126.3242 8.4643 8.2435
TCL: Running 50000 steps at 180 kelvin.
TCL: Setting parameter langevinTemp to 180
TCL: Running for 50000 steps
ETITLE: TS BOND ANGLE DIHED IMPRP ELECT VDW BOUNDARY MISC KINETIC TOTAL TEMP POTENTIAL TOTAL3 TEMPAVG PRESSURE GPRESSURE VOLUME PRESSAVG GPRESSAVG
ENERGY: 125000 1.3713 5.3198 9.4670 0.0000 -24237.5039 4010.6094 0.0000 0.0000 1603.1362 -18607.6001 151.8703 -20210.7363 -18604.7497 151.8703 -42.9410 7.7414 52126.3242 -42.9410 7.7414
ENERGY: 135000 3.4627 7.9774 7.3326 0.0000 -23439.0042 3751.3416 0.0000 0.0000 1863.9430 -17804.9468 176.5773 -19668.8898 -17800.7304 181.7397 -236.2923 -209.9609 52248.5941 5.8454 5.6813
ENERGY: 145000 1.6786 9.5551 7.4332 0.0000 -23375.0366 3647.2236 0.0000 0.0000 1903.8844 -17805.2619 180.3611 -19709.1462 -17801.7357 178.9603 -650.2260 -596.6064 52090.1162 6.0148 5.4542
ENERGY: 155000 4.4441 7.7018 8.5979 0.0000 -23334.2352 3630.2227 0.0000 0.0000 1926.4134 -17756.8552 182.4954 -19683.2686 -17752.1247 181.5721 -579.7518 -505.2011 51807.0353 3.9238 4.3970
ENERGY: 165000 1.0194 7.1761 8.6042 0.0000 -23575.9924 3803.0944 0.0000 0.0000 1896.3338 -17859.7646 179.6458 -19756.0984 -17853.6113 179.3708 -11.1359 36.5262 51963.8543 -2.1594 -1.9658
ENERGY: 175000 3.1555 8.4115 7.0137 0.0000 -23347.7632 3609.1935 0.0000 0.0000 1873.9609 -17846.0280 177.5264 -19719.9889 -17842.3543 180.0915 -804.5904 -781.1715 51977.2854 6.0108 6.4175
TCL: Running 50000 steps at 210 kelvin.
TCL: Setting parameter langevinTemp to 210
TCL: Running for 50000 steps
ETITLE: TS BOND ANGLE DIHED IMPRP ELECT VDW BOUNDARY MISC KINETIC TOTAL TEMP POTENTIAL TOTAL3 TEMPAVG PRESSURE GPRESSURE VOLUME PRESSAVG GPRESSAVG
ENERGY: 175000 3.1555 8.4115 7.0137 0.0000 -23347.7632 3609.1935 0.0000 0.0000 1872.9967 -17846.9922 177.4350 -19719.9889 -17843.6310 177.4350 -843.1099 -781.2312 51977.2854 -843.1099 -781.2312
ENERGY: 185000 1.1671 8.5601 7.4144 0.0000 -22436.3284 3443.0846 0.0000 0.0000 2207.8370 -16768.2653 209.1555 -18976.1023 -16762.2151 209.1775 -134.4893 -46.1174 52033.5271 0.7842 -0.1053
ENERGY: 195000 2.3201 8.7428 7.4315 0.0000 -22425.6947 3501.4860 0.0000 0.0000 2224.3012 -16681.4131 210.7152 -18905.7143 -16677.1147 210.9268 147.0370 236.9903 52527.7809 -0.3372 0.0138
ENERGY: 205000 3.1313 8.5121 7.4333 0.0000 -22387.5392 3483.1065 0.0000 0.0000 2248.5198 -16636.8362 213.0095 -18885.3561 -16634.5541 209.8097 455.2439 511.5828 51521.5137 4.8901 4.5683
ENERGY: 215000 0.8825 9.0230 7.5774 0.0000 -22605.2233 3595.2986 0.0000 0.0000 2241.0994 -16751.3425 212.3066 -18992.4418 -16748.2267 210.6936 779.5823 846.7633 51426.8463 -1.9102 -1.1777
ENERGY: 225000 1.2244 5.8515 7.8255 0.0000 -22256.0083 3344.5456 0.0000 0.0000 2212.0402 -16684.5211 209.5537 -18896.5612 -16679.0965 210.0177 -303.0532 -227.7897 51894.9086 2.7842 2.6949
TCL: Running 50000 steps at 240 kelvin.
TCL: Setting parameter langevinTemp to 240
TCL: Running for 50000 steps
ETITLE: TS BOND ANGLE DIHED IMPRP ELECT VDW BOUNDARY MISC KINETIC TOTAL TEMP POTENTIAL TOTAL3 TEMPAVG PRESSURE GPRESSURE VOLUME PRESSAVG GPRESSAVG
ENERGY: 225000 1.2244 5.8515 7.8255 0.0000 -22256.0083 3344.5456 0.0000 0.0000 2210.9378 -16685.6234 209.4493 -18896.5612 -16681.4560 209.4493 -305.6801 -227.6479 51894.9086 -305.6801 -227.6479
ENERGY: 235000 5.4302 10.1205 7.1304 0.0000 -21032.4524 3006.9320 0.0000 0.0000 2598.4922 -15404.3472 246.1635 -18002.8393 -15395.9012 239.7511 -379.0864 -272.3213 52928.4430 -0.2445 -0.1902
ENERGY: 245000 2.0503 7.0764 8.8865 0.0000 -21154.7738 3056.7315 0.0000 0.0000 2518.2025 -15561.8266 238.5574 -18080.0291 -15555.6116 239.0746 -185.7648 -74.0079 52345.2757 3.2565 2.9018
ENERGY: 255000 6.4568 13.1434 7.3812 0.0000 -21257.5635 3063.0850 0.0000 0.0000 2539.6172 -15627.8799 240.5861 -18167.4971 -15620.7490 240.2484 57.3087 168.5483 51651.6652 0.6097 0.1243
ENERGY: 265000 2.5525 8.7535 8.3101 0.0000 -21202.5410 3054.7543 0.0000 0.0000 2508.8466 -15619.3240 237.6711 -18128.1706 -15614.7658 238.5430 -240.0851 -148.1342 52484.4788 0.9220 0.8029
ENERGY: 275000 2.1875 6.3820 7.2564 0.0000 -21290.1882 3111.4831 0.0000 0.0000 2577.1736 -15585.7055 244.1440 -18162.8791 -15580.3169 240.1271 132.6819 198.2451 52236.9090 -0.7998 -0.5597
TCL: Running 50000 steps at 270 kelvin.
TCL: Setting parameter langevinTemp to 270
TCL: Running for 50000 steps
ETITLE: TS BOND ANGLE DIHED IMPRP ELECT VDW BOUNDARY MISC KINETIC TOTAL TEMP POTENTIAL TOTAL3 TEMPAVG PRESSURE GPRESSURE VOLUME PRESSAVG GPRESSAVG
ENERGY: 275000 2.1875 6.3820 7.2564 0.0000 -21290.1882 3111.4831 0.0000 0.0000 2575.9190 -15586.9602 244.0251 -18162.8791 -15582.8043 244.0251 116.6886 197.3917 52236.9090 116.6886 197.3917
ENERGY: 285000 3.9039 10.4614 8.9995 0.0000 -20362.3940 2927.8650 0.0000 0.0000 2876.2591 -14534.9051 272.4773 -17411.1642 -14530.3519 270.5134 427.5509 509.7218 53236.1124 -1.8145 -1.6256
ENERGY: 295000 2.4025 10.1020 7.9863 0.0000 -20176.4795 2777.1723 0.0000 0.0000 2827.0741 -14551.7423 267.8178 -17378.8164 -14545.2331 270.1915 -248.6650 -238.5223 53620.0368 5.0759 4.7329
ENERGY: 305000 4.1213 6.7715 8.2720 0.0000 -20063.8054 2729.4395 0.0000 0.0000 2811.2909 -14503.9103 266.3226 -17315.2011 -14496.3682 269.9754 -466.6068 -389.3570 53795.1316 3.6079 4.0937
ENERGY: 315000 4.3907 15.3515 7.9978 0.0000 -20021.7168 2654.3202 0.0000 0.0000 2814.1303 -14525.5263 266.5916 -17339.6565 -14521.8206 270.2050 -819.8415 -704.9680 53261.5139 2.2660 1.8818
ENERGY: 325000 2.7514 9.4813 8.3102 0.0000 -20225.8824 2747.9544 0.0000 0.0000 2808.5113 -14648.8737 266.0593 -17457.3851 -14640.5113 268.9419 -475.3505 -383.9987 53149.2020 1.1648 0.6170
TCL: Running 1000000 steps at 300 kelvin.
TCL: Setting parameter langevinTemp to 300
TCL: Running for 1000000 steps
ETITLE: TS BOND ANGLE DIHED IMPRP ELECT VDW BOUNDARY MISC KINETIC TOTAL TEMP POTENTIAL TOTAL3 TEMPAVG PRESSURE GPRESSURE VOLUME PRESSAVG GPRESSAVG
ENERGY: 325000 2.7514 9.4813 8.3102 0.0000 -20225.8824 2747.9544 0.0000 0.0000 2807.0778 -14650.3072 265.9235 -17457.3851 -14646.2068 265.9235 -464.6158 -381.8555 53149.2020 -464.6158 -381.8555
ENERGY: 525000 3.3932 14.0731 8.5713 0.0000 -19259.1377 2578.0689 0.0000 0.0000 3208.7976 -13446.2336 303.9797 -16655.0312 -13440.1946 301.9440 20.3585 99.4495 55182.9178 6.5534 6.2384
ENERGY: 725000 1.6976 7.2113 8.7922 0.0000 -19154.6296 2529.9306 0.0000 0.0000 3109.3739 -13497.6239 294.5610 -16606.9978 -13487.7778 300.0957 -264.1829 -125.6109 54667.6891 -0.3913 -0.5201
ENERGY: 925000 5.3507 6.1022 8.9803 0.0000 -19062.7091 2456.3231 0.0000 0.0000 3126.7894 -13459.1634 296.2108 -16585.9528 -13454.6017 298.6354 -576.2217 -448.5125 55023.0991 4.6722 4.8777
ENERGY: 1125000 2.4756 15.2104 7.2062 0.0000 -19130.0169 2466.5988 0.0000 0.0000 3149.1179 -13489.4080 298.3261 -16638.5259 -13481.3670 299.7232 -274.1517 -230.2660 54207.5059 8.0983 8.4116
ENERGY: 1325000 4.8940 10.7020 7.3268 0.0000 -19189.7594 2499.6908 0.0000 0.0000 3131.0538 -13536.0921 296.6148 -16667.1459 -13529.7021 299.1295 -629.4825 -526.0379 54959.6363 7.9906 7.0748
TCL: Exiting due to exit command.
