Info: SIMULATION PARAMETERS:
Info: TIMESTEP               2
Info: NUMBER OF STEPS        0
Info: STEPS PER CYCLE        10
Info: PERIODIC CELL BASIS 1  35.01 0 0
Info: PERIODIC CELL BASIS 2  0 35.411 0
Info: PERIODIC CELL BASIS 3  0 0 35.516
Info: PERIODIC CELL CENTER   0 0 0
Info: WRAPPING WATERS AROUND PERIODIC BOUNDARIES ON OUTPUT.
Info: WRAPPING ALL CLUSTERS AROUND PERIODIC BOUNDARIES ON OUTPUT.
Info: FIRST LDB TIMESTEP     50
Info: LAST LDB TIMESTEP     -1
Info: HOM BACKGROUND SCALING 1
Info: PME BACKGROUND SCALING 1
Info: MIN ATOMS PER PATCH    40
Info: EMPTY PATCH LOAD       40 ATOMS
Info: INITIAL TEMPERATURE    300
Info: CENTER OF MASS MOVING INITIALLY? NO
Info: DIELECTRIC             1
Info: EXCLUDE                SCALED ONE-FOUR
Info: 1-4 ELECTROSTATICS SCALED BY 0.833333
Info: MODIFIED 1-4 VDW PARAMETERS WILL BE USED
Info: DCD FILENAME           mobley_7326982_equil.dcd
Info: DCD FREQUENCY          100000
Info: DCD FIRST STEP         100000
Info: DCD FILE WILL CONTAIN UNIT CELL DATA
Info: XST FILENAME           mobley_7326982_equil.xst
Info: XST FREQUENCY          100000
Info: NO VELOCITY DCD OUTPUT
Info: NO FORCE DCD OUTPUT
Info: OUTPUT FILENAME        mobley_7326982_equil
Info: BINARY OUTPUT FILES WILL BE USED
Info: RESTART FILENAME       mobley_7326982_equil.restart
Info: RESTART FREQUENCY      100000
Info: BINARY RESTART FILES WILL BE USED
Info: CUTOFF                 9
Info: PAIRLIST DISTANCE      11
Info: PAIRLIST SHRINK RATE   0.01
Info: PAIRLIST GROW RATE     0.01
Info: PAIRLIST TRIGGER       0.3
Info: PAIRLISTS PER CYCLE    2
Info: PAIRLISTS ENABLED
Info: MARGIN                 8
Info: HYDROGEN GROUP CUTOFF  2.5
Info: PATCH DIMENSION        21.5
Info: ENERGY OUTPUT STEPS    100000
Info: ENERGY EVALUATION STEPS    100000
Info: OUTPUT ENERGY PRECISION 4
Info: CROSSTERM ENERGY INCLUDED IN DIHEDRAL
Info: TIMING OUTPUT STEPS    1000000
Info: PRESSURE OUTPUT STEPS  100000
Info: FIXED ATOMS ACTIVE
Info: LANGEVIN DYNAMICS ACTIVE
Info: LANGEVIN TEMPERATURE   30
Info: LANGEVIN USING BBK INTEGRATOR
Info: LANGEVIN DAMPING COEFFICIENT IS 1 INVERSE PS
Info: LANGEVIN DYNAMICS APPLIED TO HYDROGENS
Info: LANGEVIN PISTON PRESSURE CONTROL ACTIVE
Info:        TARGET PRESSURE IS 1.01325 BAR
Info:     OSCILLATION PERIOD IS 50 FS
Info:             DECAY TIME IS 25 FS
Info:     PISTON TEMPERATURE IS 300 K
Info:       PRESSURE CONTROL IS GROUP-BASED
Info:    INITIAL STRAIN RATE IS 0 0 0
Info:       CELL FLUCTUATION IS ISOTROPIC
Info: PARTICLE MESH EWALD (PME) ACTIVE
Info: PME TOLERANCE               1e-06
Info: PME EWALD COEFFICIENT       0.348832
Info: PME INTERPOLATION ORDER     4
Info: PME GRID DIMENSIONS         36 36 36
Info: PME MAXIMUM GRID SPACING    1
Info: FULL ELECTROSTATIC EVALUATION FREQUENCY      2
Info: USING VERLET I (r-RESPA) MTS SCHEME.
Info: C1 SPLITTING OF LONG RANGE ELECTROSTATICS
Info: PLACING ATOMS IN PATCHES BY HYDROGEN GROUPS
Info: RIGID BONDS TO HYDROGEN : ALL
Info:         ERROR TOLERANCE : 1e-08
Info:          MAX ITERATIONS : 100
Info: RIGID WATER USING SETTLE ALGORITHM
Info: RANDOM NUMBER SEED     1742540160
Info: USE HYDROGEN BONDS?    NO
Info: Using AMBER format force field!
Info: AMBER PARM FILE        mobley_7326982.prmtop
Info: COORDINATE PDB         mobley_7326982.pdb
Info: Exclusions will be read from PARM file!
Info: SCNB (VDW SCALING)     2
Info: USING ARITHMETIC MEAN TO COMBINE L-J SIGMA PARAMETERS
Info: BINARY COORDINATES     mobley_7326982_min.coor
Info: SUMMARY OF PARAMETERS:
Info: 7 BONDS
Info: 7 ANGLES
Info:   7 HARMONIC
Info:   0 COSINE-BASED
Info: 5 DIHEDRAL
Info: 0 IMPROPER
Info: 0 CROSSTERM
Info: 0 VDW
Info: 28 VDW_PAIRS
Info: 0 NBTHOLE_PAIRS
Info: STRUCTURE SUMMARY:
Info: 2940 ATOMS
Info: 2939 BONDS
Info: 19 ANGLES
Info: 21 DIHEDRALS
Info: 0 IMPROPERS
Info: 0 CROSSTERMS
Info: 2979 EXCLUSIONS
Info: 12 FIXED ATOMS
Info: 2936 RIGID BONDS
Info: 8 RIGID BONDS BETWEEN FIXED ATOMS
Info: 5856 DEGREES OF FREEDOM
Info: 980 HYDROGEN GROUPS
Info: 4 ATOMS IN LARGEST HYDROGEN GROUP
Info: 980 MIGRATION GROUPS
Info: 4 ATOMS IN LARGEST MIGRATION GROUP
Info: 4 HYDROGEN GROUPS WITH ALL ATOMS FIXED
Info: TOTAL MASS = 17643.7 amu
Info: TOTAL CHARGE = -0.000199985 e
Info: MASS DENSITY = 0.665418 g/cm^3
Info: ATOM DENSITY = 0.0667718 atoms/A^3
Info: ADDED 0 IMPLICIT EXCLUSIONS
Info: NONBONDED TABLE R-SQUARED SPACING: 0.0625
Info: NONBONDED TABLE SIZE: 705 POINTS
Info: REMOVING COM VELOCITY -0.182083 0.112169 0.0558905
TCL: Running for 100000 steps
ETITLE: TS BOND ANGLE DIHED IMPRP ELECT VDW BOUNDARY MISC KINETIC TOTAL TEMP POTENTIAL TOTAL3 TEMPAVG PRESSURE GPRESSURE VOLUME PRESSAVG GPRESSAVG
ENERGY: 0 0.0000 0.0000 0.0000 0.0000 -13723.9051 2436.7824 0.0000 0.0000 1726.9148 -9560.2080 296.7975 -11287.1227 -9559.8847 296.7975 565.9885 597.0830 44030.5742 565.9885 597.0830
ENERGY: 100000 0.0000 0.0000 0.0000 0.0000 -14385.1260 2603.6979 0.0000 0.0000 175.5014 -11605.9267 30.1627 -11781.4281 -11605.3488 30.8924 1192.2414 1279.6298 28057.1016 4.7886 4.7957
TCL: Running 100000 steps at 60 kelvin.
TCL: Setting parameter langevinTemp to 60
TCL: Running for 100000 steps
ETITLE: TS BOND ANGLE DIHED IMPRP ELECT VDW BOUNDARY MISC KINETIC TOTAL TEMP POTENTIAL TOTAL3 TEMPAVG PRESSURE GPRESSURE VOLUME PRESSAVG GPRESSAVG
ENERGY: 100000 0.0000 0.0000 0.0000 0.0000 -14385.1260 2603.6979 0.0000 0.0000 175.4108 -11606.0173 30.1471 -11781.4281 -11605.7055 30.1471 1210.8687 1279.7398 28057.1016 1210.8687 1279.7398
ENERGY: 200000 0.0000 0.0000 0.0000 0.0000 -14134.4917 2436.3986 0.0000 0.0000 352.9991 -11345.0941 60.6684 -11698.0931 -11344.2002 59.8651 -8.7374 51.4077 28267.7060 3.0338 2.8886
TCL: Running 100000 steps at 90 kelvin.
TCL: Setting parameter langevinTemp to 90
TCL: Running for 100000 steps
ETITLE: TS BOND ANGLE DIHED IMPRP ELECT VDW BOUNDARY MISC KINETIC TOTAL TEMP POTENTIAL TOTAL3 TEMPAVG PRESSURE GPRESSURE VOLUME PRESSAVG GPRESSAVG
ENERGY: 200000 0.0000 0.0000 0.0000 0.0000 -14134.4917 2436.3986 0.0000 0.0000 352.8246 -11345.2685 60.6385 -11698.0931 -11344.5124 60.6385 -24.3338 51.6294 28267.7060 -24.3338 51.6294
ENERGY: 300000 0.0000 0.0000 0.0000 0.0000 -13880.5883 2296.9112 0.0000 0.0000 541.9591 -11041.7180 93.1442 -11583.6771 -11040.2192 90.0432 -570.1262 -509.9945 28288.0386 3.6650 3.6639
TCL: Running 100000 steps at 120 kelvin.
TCL: Setting parameter langevinTemp to 120
TCL: Running for 100000 steps
ETITLE: TS BOND ANGLE DIHED IMPRP ELECT VDW BOUNDARY MISC KINETIC TOTAL TEMP POTENTIAL TOTAL3 TEMPAVG PRESSURE GPRESSURE VOLUME PRESSAVG GPRESSAVG
ENERGY: 300000 0.0000 0.0000 0.0000 0.0000 -13880.5883 2296.9112 0.0000 0.0000 541.7076 -11041.9695 93.1010 -11583.6771 -11040.9498 93.1010 -569.6058 -510.0529 28288.0386 -569.6058 -510.0529
ENERGY: 400000 0.0000 0.0000 0.0000 0.0000 -13822.3625 2368.3058 0.0000 0.0000 683.3992 -10770.6575 117.4529 -11454.0567 -10769.2140 119.9800 520.3190 516.3261 28356.5584 2.8458 2.7524
TCL: Running 100000 steps at 150 kelvin.
TCL: Setting parameter langevinTemp to 150
TCL: Running for 100000 steps
ETITLE: TS BOND ANGLE DIHED IMPRP ELECT VDW BOUNDARY MISC KINETIC TOTAL TEMP POTENTIAL TOTAL3 TEMPAVG PRESSURE GPRESSURE VOLUME PRESSAVG GPRESSAVG
ENERGY: 400000 0.0000 0.0000 0.0000 0.0000 -13822.3625 2368.3058 0.0000 0.0000 683.0399 -10771.0168 117.3912 -11454.0567 -10769.9300 117.3912 479.1193 515.6234 28356.5584 479.1193 515.6234
ENERGY: 500000 0.0000 0.0000 0.0000 0.0000 -13538.6131 2253.7576 0.0000 0.0000 903.7489 -10381.1066 155.3235 -11284.8555 -10379.1810 150.1276 -73.3036 -18.1591 28825.7178 4.4380 4.5226
TCL: Running 100000 steps at 180 kelvin.
TCL: Setting parameter langevinTemp to 180
TCL: Running for 100000 steps
ETITLE: TS BOND ANGLE DIHED IMPRP ELECT VDW BOUNDARY MISC KINETIC TOTAL TEMP POTENTIAL TOTAL3 TEMPAVG PRESSURE GPRESSURE VOLUME PRESSAVG GPRESSAVG
ENERGY: 500000 0.0000 0.0000 0.0000 0.0000 -13538.6131 2253.7576 0.0000 0.0000 903.3217 -10381.5337 155.2501 -11284.8555 -10379.8814 155.2501 -71.8716 -18.8059 28825.7178 -71.8716 -18.8059
ENERGY: 600000 0.0000 0.0000 0.0000 0.0000 -12992.4640 1995.6464 0.0000 0.0000 1055.5736 -9941.2440 181.4169 -10996.8176 -9939.4116 180.4463 -1154.2986 -1132.6347 29201.6242 3.5919 3.5792
TCL: Running 100000 steps at 210 kelvin.
TCL: Setting parameter langevinTemp to 210
TCL: Running for 100000 steps
ETITLE: TS BOND ANGLE DIHED IMPRP ELECT VDW BOUNDARY MISC KINETIC TOTAL TEMP POTENTIAL TOTAL3 TEMPAVG PRESSURE GPRESSURE VOLUME PRESSAVG GPRESSAVG
ENERGY: 600000 0.0000 0.0000 0.0000 0.0000 -12992.4640 1995.6464 0.0000 0.0000 1055.0680 -9941.7496 181.3300 -10996.8176 -9939.5138 181.3300 -1188.2704 -1134.0470 29201.6242 -1188.2704 -1134.0470
ENERGY: 700000 0.0000 0.0000 0.0000 0.0000 -12473.3730 1940.4844 0.0000 0.0000 1244.3155 -9288.5731 213.8552 -10532.8885 -9285.5153 210.0090 324.8961 406.1913 28676.7252 2.7734 2.7180
TCL: Running 100000 steps at 240 kelvin.
TCL: Setting parameter langevinTemp to 240
TCL: Running for 100000 steps
ETITLE: TS BOND ANGLE DIHED IMPRP ELECT VDW BOUNDARY MISC KINETIC TOTAL TEMP POTENTIAL TOTAL3 TEMPAVG PRESSURE GPRESSURE VOLUME PRESSAVG GPRESSAVG
ENERGY: 700000 0.0000 0.0000 0.0000 0.0000 -12473.3730 1940.4844 0.0000 0.0000 1243.6955 -9289.1931 213.7486 -10532.8885 -9287.0715 213.7486 336.9230 406.8916 28676.7252 336.9230 406.8916
ENERGY: 800000 0.0000 0.0000 0.0000 0.0000 -11821.9814 1728.7530 0.0000 0.0000 1426.8821 -8666.3463 245.2321 -10093.2284 -8663.4324 240.0985 -89.6793 14.8772 29203.5371 3.3132 3.1494
TCL: Running 100000 steps at 270 kelvin.
TCL: Setting parameter langevinTemp to 270
TCL: Running for 100000 steps
ETITLE: TS BOND ANGLE DIHED IMPRP ELECT VDW BOUNDARY MISC KINETIC TOTAL TEMP POTENTIAL TOTAL3 TEMPAVG PRESSURE GPRESSURE VOLUME PRESSAVG GPRESSAVG
ENERGY: 800000 0.0000 0.0000 0.0000 0.0000 -11821.9814 1728.7530 0.0000 0.0000 1426.1891 -8667.0393 245.1130 -10093.2284 -8664.1155 245.1130 -67.4622 13.8418 29203.5371 -67.4622 13.8418
ENERGY: 900000 0.0000 0.0000 0.0000 0.0000 -11165.0177 1559.9232 0.0000 0.0000 1624.6764 -7980.4182 279.2262 -9605.0945 -7976.8337 270.5937 216.4337 320.1373 29386.2854 3.4187 3.3598
TCL: Running 1000000 steps at 300 kelvin.
TCL: Setting parameter langevinTemp to 300
TCL: Running for 1000000 steps
ETITLE: TS BOND ANGLE DIHED IMPRP ELECT VDW BOUNDARY MISC KINETIC TOTAL TEMP POTENTIAL TOTAL3 TEMPAVG PRESSURE GPRESSURE VOLUME PRESSAVG GPRESSAVG
ENERGY: 900000 0.0000 0.0000 0.0000 0.0000 -11165.0177 1559.9232 0.0000 0.0000 1623.9093 -7981.1853 279.0944 -9605.0946 -7979.1533 279.0944 234.8868 320.7479 29386.2854 234.8868 320.7479
ENERGY: 1100000 0.0000 0.0000 0.0000 0.0000 -10807.9412 1482.0522 0.0000 0.0000 1773.7176 -7552.1714 304.8413 -9325.8890 -7549.0743 300.2425 300.1789 416.0818 30104.9805 2.9402 2.9043
ENERGY: 1300000 0.0000 0.0000 0.0000 0.0000 -10766.5148 1458.7023 0.0000 0.0000 1756.9875 -7550.8250 301.9660 -9307.8125 -7545.5897 299.9233 323.2331 376.9126 29841.7989 3.8812 3.6983
ENERGY: 1500000 0.0000 0.0000 0.0000 0.0000 -10787.7735 1503.1019 0.0000 0.0000 1701.9530 -7582.7185 292.5074 -9284.6715 -7577.5933 299.8764 712.4788 761.0950 29953.2444 2.4830 2.3792
ENERGY: 1700000 0.0000 0.0000 0.0000 0.0000 -10662.6013 1349.7957 0.0000 0.0000 1750.1490 -7562.6566 300.7906 -9312.8056 -7558.7418 300.2204 -997.8710 -918.5928 30706.9913 2.4558 2.2516
ENERGY: 1900000 0.0000 0.0000 0.0000 0.0000 -10688.1437 1461.1922 0.0000 0.0000 1766.9436 -7460.0079 303.6771 -9226.9514 -7456.4044 300.6424 531.3464 586.7508 29888.1453 2.3451 2.3206
TCL: Exiting due to exit command.
