Info: SIMULATION PARAMETERS:
Info: TIMESTEP               1
Info: NUMBER OF STEPS        0
Info: STEPS PER CYCLE        10
Info: PERIODIC CELL BASIS 1  30 0 0
Info: PERIODIC CELL BASIS 2  0 30 0
Info: PERIODIC CELL BASIS 3  0 0 30
Info: PERIODIC CELL CENTER   0 0 0
Info: WRAPPING ALL CLUSTERS AROUND PERIODIC BOUNDARIES ON OUTPUT.
Info: FIRST LDB TIMESTEP     50
Info: LAST LDB TIMESTEP     -1
Info: HOM BACKGROUND SCALING 1
Info: MIN ATOMS PER PATCH    40
Info: EMPTY PATCH LOAD       40 ATOMS
Info: INITIAL TEMPERATURE    298
Info: CENTER OF MASS MOVING INITIALLY? NO
Info: DIELECTRIC             1
Info: EXCLUDE                SCALED ONE-FOUR
Info: 1-4 ELECTROSTATICS SCALED BY 1
Info: MODIFIED 1-4 VDW PARAMETERS WILL BE USED
Info: DCD FILENAME           output.dcd
Info: DCD FREQUENCY          50
Info: DCD FIRST STEP         50
Info: DCD FILE WILL CONTAIN UNIT CELL DATA
Info: NO EXTENDED SYSTEM TRAJECTORY OUTPUT
Info: NO VELOCITY DCD OUTPUT
Info: NO FORCE DCD OUTPUT
Info: OUTPUT FILENAME        output
Info: BINARY OUTPUT FILES WILL BE USED
Info: NO RESTART FILE
Info: SWITCHING ACTIVE
Info: SWITCHING ON           10
Info: SWITCHING OFF          12
Info: PAIRLIST DISTANCE      14
Info: PAIRLIST SHRINK RATE   0.01
Info: PAIRLIST GROW RATE     0.01
Info: PAIRLIST TRIGGER       0.3
Info: PAIRLISTS PER CYCLE    2
Info: PAIRLISTS ENABLED
Info: MARGIN                 0
Info: HYDROGEN GROUP CUTOFF  2.5
Info: PATCH DIMENSION        16.5
Info: ENERGY OUTPUT STEPS    10
Info: ENERGY EVALUATION STEPS    10
Info: OUTPUT ENERGY PRECISION 4
Info: CROSSTERM ENERGY INCLUDED IN DIHEDRAL
Info: TIMING OUTPUT STEPS    100
Info: LANGEVIN DYNAMICS ACTIVE
Info: LANGEVIN TEMPERATURE   298
Info: LANGEVIN USING BBK INTEGRATOR
Info: LANGEVIN DAMPING COEFFICIENT IS 1 INVERSE PS
Info: LANGEVIN DYNAMICS NOT APPLIED TO HYDROGENS
Info: MULTILEVEL SUMMATION METHOD (MSM) FOR ELECTROSTATICS ACTIVE
Info: MSM WITH C1 CUBIC INTERPOLATION AND C2 TAYLOR SPLITTING
Info: FULL ELECTROSTATIC EVALUATION FREQUENCY      2
Info: USING VERLET I (r-RESPA) MTS SCHEME.
Info: C1 SPLITTING OF LONG RANGE ELECTROSTATICS
Info: PLACING ATOMS IN PATCHES BY HYDROGEN GROUPS
Info: RIGID BONDS TO HYDROGEN : ALL
Info:         ERROR TOLERANCE : 1e-08
Info:          MAX ITERATIONS : 100
Info: RIGID WATER USING SETTLE ALGORITHM
Info: RANDOM NUMBER SEED     1740114851
Info: USE HYDROGEN BONDS?    NO
Info: COORDINATE PDB         ionized.pdb
Info: STRUCTURE FILE         ionized.psf
Info: PARAMETER file: CHARMM format!
Info: PARAMETERS             par_all27_prot_lipid.inp
Info: USING ARITHMETIC MEAN TO COMBINE L-J SIGMA PARAMETERS
Info: SUMMARY OF PARAMETERS:
Info: 180 BONDS
Info: 447 ANGLES
Info: 566 DIHEDRAL
Info: 46 IMPROPER
Info: 6 CROSSTERM
Info: 119 VDW
Info: 0 VDW_PAIRS
Info: 0 NBTHOLE_PAIRS
Info: STRUCTURE SUMMARY:
Info: 2476 ATOMS
Info: 1650 BONDS
Info: 825 ANGLES
Info: 0 DIHEDRALS
Info: 0 IMPROPERS
Info: 0 CROSSTERMS
Info: 0 EXCLUSIONS
Info: 2475 RIGID BONDS
Info: 4953 DEGREES OF FREEDOM
Info: 826 HYDROGEN GROUPS
Info: 3 ATOMS IN LARGEST HYDROGEN GROUP
Info: 826 MIGRATION GROUPS
Info: 3 ATOMS IN LARGEST MIGRATION GROUP
Info: TOTAL MASS = 14885.7 amu
Info: TOTAL CHARGE = 1 e
Info: MASS DENSITY = 0.915513 g/cm^3
Info: ATOM DENSITY = 0.0917037 atoms/A^3
Info: ADDED 2475 IMPLICIT EXCLUSIONS
Info: NONBONDED TABLE R-SQUARED SPACING: 0.0625
Info: NONBONDED TABLE SIZE: 769 POINTS
Info: REMOVING COM VELOCITY 0.195099 0.108005 0.120192
Info: MSM using C1 cubic interpolation
Info: MSM using C2 Taylor splitting function
Info: MSM block size decomposition along X is 8 grid points
Info: MSM block size decomposition along Y is 8 grid points
Info: MSM block size decomposition along Z is 8 grid points
Info: MSM grid spacing along X is 2.5 A
Info: MSM grid spacing along Y is 2.5 A
Info: MSM grid spacing along Z is 2.5 A
Info: MSM using 3 levels
Info:     level 0:  [0..11] x [0..11] x [0..11]
Info:     level 1:  [0..5] x [0..5] x [0..5]
Info:     level 2:  [0..2] x [0..2] x [0..2]
Info: MSM finished calculating stencils
Info: MSM finished creating map for grid levels
Info: MSM finished creating map for patches
Info: MSM has 3 interpolation / anterpolation objects (one per patch)
Info: MSM grid level 0 decomposed into 8 blocks ( 2 x 2 x 2 )
Info: MSM grid level 1 decomposed into 1 block ( 1 x 1 x 1 )
Info: MSM grid level 2 decomposed into 1 block ( 1 x 1 x 1 )
Info: MSM grid cutoff calculation decomposed into 783 work objects
TCL: Minimizing for 100 steps
ETITLE: TS BOND ANGLE DIHED IMPRP ELECT VDW BOUNDARY MISC KINETIC TOTAL TEMP POTENTIAL TOTAL3 TEMPAVG PRESSURE GPRESSURE VOLUME PRESSAVG GPRESSAVG
ENERGY: 0 0.0000 0.0000 0.0000 0.0000 -7348.6496 6353.7252 0.0000 0.0000 0.0000 -994.9244 0.0000 -994.9244 -994.9244 0.0000 75204.0846 46428.1755 27000.0000 75204.0846 46428.1755
ENERGY: 20 0.0000 0.0000 0.0000 0.0000 -8744.5978 644.7588 0.0000 0.0000 0.0000 -8099.8390 0.0000 -8099.8390 -8099.8390 0.0000 14286.6721 -3736.9751 27000.0000 14286.6721 -3736.9751
ENERGY: 40 0.0000 0.0000 0.0000 0.0000 -9255.3680 673.7888 0.0000 0.0000 0.0000 -8581.5792 0.0000 -8581.5792 -8581.5792 0.0000 14306.7126 -4828.9796 27000.0000 14306.7126 -4828.9796
ENERGY: 60 0.0000 0.0000 0.0000 0.0000 -9570.7012 738.1056 0.0000 0.0000 0.0000 -8832.5956 0.0000 -8832.5956 -8832.5956 0.0000 14889.9956 -4943.3695 27000.0000 14889.9956 -4943.3695
ENERGY: 80 0.0000 0.0000 0.0000 0.0000 -9709.9737 782.3970 0.0000 0.0000 0.0000 -8927.5767 0.0000 -8927.5767 -8927.5767 0.0000 15331.0338 -4822.9077 27000.0000 15331.0338 -4822.9077
ENERGY: 100 0.0000 0.0000 0.0000 0.0000 -9872.5790 824.9321 0.0000 0.0000 0.0000 -9047.6470 0.0000 -9047.6470 -9047.6470 0.0000 15760.1421 14388.6636 27000.0000 15760.1421 14388.6636
TCL: Running for 100000 steps
ETITLE: TS BOND ANGLE DIHED IMPRP ELECT VDW BOUNDARY MISC KINETIC TOTAL TEMP POTENTIAL TOTAL3 TEMPAVG PRESSURE GPRESSURE VOLUME PRESSAVG GPRESSAVG
ENERGY: 100 0.0000 0.0000 0.0000 0.0000 -9872.5789 824.9321 0.0000 0.0000 1497.7272 -7549.9197 304.3370 -9047.6469 -7550.1867 304.3370 -4798.8292 -4772.9625 27000.0000 -4798.8292 -4772.9625
ENERGY: 20100 0.0000 0.0000 0.0000 0.0000 -8855.6547 839.1853 0.0000 0.0000 1511.0545 -6505.4149 307.0451 -8016.4694 -6505.3361 301.8880 -1315.6425 -1284.5828 27000.0000 -1199.0894 -1204.6085
ENERGY: 40100 0.0000 0.0000 0.0000 0.0000 -8808.2426 889.8712 0.0000 0.0000 1478.1173 -6440.2542 300.3523 -7918.3714 -6438.7002 301.6922 -658.1726 -639.1956 27000.0000 -687.6190 -692.6039
ENERGY: 60100 0.0000 0.0000 0.0000 0.0000 -8805.7602 861.7509 0.0000 0.0000 1455.6558 -6488.3535 295.7881 -7944.0093 -6488.1805 296.2446 -995.1400 -965.5996 27000.0000 -868.7098 -866.1232
ENERGY: 80100 0.0000 0.0000 0.0000 0.0000 -8794.3358 863.4515 0.0000 0.0000 1452.8376 -6478.0467 295.2155 -7930.8843 -6477.7834 295.0872 -984.6819 -959.5774 27000.0000 -949.1631 -950.8961
ENERGY: 100100 0.0000 0.0000 0.0000 0.0000 -8852.5212 880.5140 0.0000 0.0000 1477.7187 -6494.2886 300.2713 -7972.0072 -6493.0514 297.4242 -876.3914 -839.9119 27000.0000 -723.6626 -725.3608
