Info: SIMULATION PARAMETERS:
Info: TIMESTEP               2
Info: NUMBER OF STEPS        0
Info: STEPS PER CYCLE        10
Info: PERIODIC CELL BASIS 1  39.806 0 0
Info: PERIODIC CELL BASIS 2  0 40.459 0
Info: PERIODIC CELL BASIS 3  0 0 40.136
Info: PERIODIC CELL CENTER   0 0 0
Info: WRAPPING WATERS AROUND PERIODIC BOUNDARIES ON OUTPUT.
Info: WRAPPING ALL CLUSTERS AROUND PERIODIC BOUNDARIES ON OUTPUT.
Info: FIRST LDB TIMESTEP     50
Info: LAST LDB TIMESTEP     -1
Info: HOM BACKGROUND SCALING 1
Info: PME BACKGROUND SCALING 1
Info: MIN ATOMS PER PATCH    40
Info: EMPTY PATCH LOAD       40 ATOMS
Info: INITIAL TEMPERATURE    300
Info: CENTER OF MASS MOVING INITIALLY? NO
Info: DIELECTRIC             1
Info: EXCLUDE                SCALED ONE-FOUR
Info: 1-4 ELECTROSTATICS SCALED BY 0.833333
Info: MODIFIED 1-4 VDW PARAMETERS WILL BE USED
Info: DCD FILENAME           mobley_7010316_min.dcd
Info: DCD FREQUENCY          5000
Info: DCD FIRST STEP         5000
Info: DCD FILE WILL CONTAIN UNIT CELL DATA
Info: XST FILENAME           mobley_7010316_min.xst
Info: XST FREQUENCY          5000
Info: NO VELOCITY DCD OUTPUT
Info: NO FORCE DCD OUTPUT
Info: OUTPUT FILENAME        mobley_7010316_min
Info: BINARY OUTPUT FILES WILL BE USED
Info: RESTART FILENAME       mobley_7010316_min.restart
Info: RESTART FREQUENCY      5000
Info: BINARY RESTART FILES WILL BE USED
Info: CUTOFF                 9
Info: PAIRLIST DISTANCE      11
Info: PAIRLIST SHRINK RATE   0.01
Info: PAIRLIST GROW RATE     0.01
Info: PAIRLIST TRIGGER       0.3
Info: PAIRLISTS PER CYCLE    2
Info: PAIRLISTS ENABLED
Info: MARGIN                 8
Info: HYDROGEN GROUP CUTOFF  2.5
Info: PATCH DIMENSION        21.5
Info: ENERGY OUTPUT STEPS    5000
Info: ENERGY EVALUATION STEPS    5000
Info: OUTPUT ENERGY PRECISION 4
Info: CROSSTERM ENERGY INCLUDED IN DIHEDRAL
Info: TIMING OUTPUT STEPS    50000
Info: PRESSURE OUTPUT STEPS  5000
Info: LANGEVIN DYNAMICS ACTIVE
Info: LANGEVIN TEMPERATURE   300
Info: LANGEVIN USING BBK INTEGRATOR
Info: LANGEVIN DAMPING COEFFICIENT IS 1 INVERSE PS
Info: LANGEVIN DYNAMICS APPLIED TO HYDROGENS
Info: LANGEVIN PISTON PRESSURE CONTROL ACTIVE
Info:        TARGET PRESSURE IS 1.01325 BAR
Info:     OSCILLATION PERIOD IS 50 FS
Info:             DECAY TIME IS 25 FS
Info:     PISTON TEMPERATURE IS 300 K
Info:       PRESSURE CONTROL IS GROUP-BASED
Info:    INITIAL STRAIN RATE IS 0 0 0
Info:       CELL FLUCTUATION IS ISOTROPIC
Info: PARTICLE MESH EWALD (PME) ACTIVE
Info: PME TOLERANCE               1e-06
Info: PME EWALD COEFFICIENT       0.348832
Info: PME INTERPOLATION ORDER     4
Info: PME GRID DIMENSIONS         40 44 44
Info: PME MAXIMUM GRID SPACING    1
Info: FULL ELECTROSTATIC EVALUATION FREQUENCY      2
Info: USING VERLET I (r-RESPA) MTS SCHEME.
Info: C1 SPLITTING OF LONG RANGE ELECTROSTATICS
Info: PLACING ATOMS IN PATCHES BY HYDROGEN GROUPS
Info: RIGID BONDS TO HYDROGEN : ALL
Info:         ERROR TOLERANCE : 1e-08
Info:          MAX ITERATIONS : 100
Info: RIGID WATER USING SETTLE ALGORITHM
Info: RANDOM NUMBER SEED     1741386060
Info: USE HYDROGEN BONDS?    NO
Info: Using AMBER format force field!
Info: AMBER PARM FILE        mobley_7010316.prmtop
Info: COORDINATE PDB         mobley_7010316.pdb
Info: Exclusions will be read from PARM file!
Info: SCNB (VDW SCALING)     2
Info: USING ARITHMETIC MEAN TO COMBINE L-J SIGMA PARAMETERS
Info: SUMMARY OF PARAMETERS:
Info: 7 BONDS
Info: 7 ANGLES
Info:   7 HARMONIC
Info:   0 COSINE-BASED
Info: 8 DIHEDRAL
Info: 0 IMPROPER
Info: 0 CROSSTERM
Info: 0 VDW
Info: 28 VDW_PAIRS
Info: 0 NBTHOLE_PAIRS
Info: STRUCTURE SUMMARY:
Info: 4678 ATOMS
Info: 4678 BONDS
Info: 37 ANGLES
Info: 57 DIHEDRALS
Info: 0 IMPROPERS
Info: 0 CROSSTERMS
Info: 4769 EXCLUSIONS
Info: 4671 RIGID BONDS
Info: 9363 DEGREES OF FREEDOM
Info: 1560 HYDROGEN GROUPS
Info: 3 ATOMS IN LARGEST HYDROGEN GROUP
Info: 1560 MIGRATION GROUPS
Info: 3 ATOMS IN LARGEST MIGRATION GROUP
Info: TOTAL MASS = 28079 amu
Info: TOTAL CHARGE = -4.47035e-08 e
Info: MASS DENSITY = 0.721345 g/cm^3
Info: ATOM DENSITY = 0.0723706 atoms/A^3
Info: ADDED 0 IMPLICIT EXCLUSIONS
Info: NONBONDED TABLE R-SQUARED SPACING: 0.0625
Info: NONBONDED TABLE SIZE: 705 POINTS
Info: REMOVING COM VELOCITY -0.0167633 -0.063591 0.107578
TCL: Minimizing for 2000 steps
ETITLE: TS BOND ANGLE DIHED IMPRP ELECT VDW BOUNDARY MISC KINETIC TOTAL TEMP POTENTIAL TOTAL3 TEMPAVG PRESSURE GPRESSURE VOLUME PRESSAVG GPRESSAVG
ENERGY: 0 0.1082 0.4080 0.4110 0.0000 -14424.0109 1623.5413 0.0000 0.0000 0.0000 -12799.5424 0.0000 -12799.5424 -12799.5424 0.0000 10989.3285 -15728.7726 64639.4676 10989.3285 -15728.7726
ENERGY: 400 5.5023 4.6743 0.3866 0.0000 -19380.1579 2812.1930 0.0000 0.0000 0.0000 -16557.4017 0.0000 -16557.4017 -16557.4017 0.0000 15562.8350 15691.4860 64639.4676 15562.8350 15691.4860
ENERGY: 800 1.2882 1.1220 0.3920 0.0000 -20575.2278 3315.4237 0.0000 0.0000 0.0000 -17257.0019 0.0000 -17257.0019 -17257.0019 0.0000 17990.8360 18082.2514 64639.4676 17990.8360 18082.2514
ENERGY: 1200 0.5679 0.6759 0.4439 0.0000 -21060.3915 3539.3570 0.0000 0.0000 0.0000 -17519.3469 0.0000 -17519.3469 -17519.3469 0.0000 19091.8472 19183.2188 64639.4676 19091.8472 19183.2188
ENERGY: 1600 0.3061 0.7364 0.4047 0.0000 -21358.3522 3704.2656 0.0000 0.0000 0.0000 -17652.6394 0.0000 -17652.6394 -17652.6394 0.0000 19941.9060 20020.5775 64639.4676 19941.9060 20020.5775
ENERGY: 2000 1.0506 0.6795 0.4144 0.0000 -21449.9141 3731.7535 0.0000 0.0000 0.0000 -17716.0160 0.0000 -17716.0160 -17716.0160 0.0000 20072.4032 20145.8014 64639.4676 20072.4032 20145.8014
TCL: Exiting due to exit command.
Info: NAMD 3.0.1 for Linux-x86_64-multicore
Info: Please visit http://www.ks.uiuc.edu/Research/namd/
Info: for updates, documentation, and support information.
Info: Please cite Phillips et al., J. Chem. Phys. 153:044130 (2020) doi:10.1063/5.0014475
Info: in all publications reporting results obtained with NAMD.
Info: Based on Charm++/Converse 80000 for multicore-linux-x86_64-gcc
Info: Built Mon Oct 14 11:11:06 CDT 2024 by dhardy on athine.ks.uiuc.edu
Info: 1 NAMD  3.0.1  Linux-x86_64-multicore  16    k002  z5358697
Info: Running on 16 processors, 1 nodes, 1 physical nodes.
Info: CPU topology information available.
Info: Charm++/Converse parallel runtime startup completed at 0.00688466 s
Info: 1043.46 MB of memory in use based on /proc/self/stat
Info: Configuration file is mobley_7010316_equil.namd
Info: Working in the current directory /srv/scratch/z5358697/prod_prep_9/7010316
TCL: Running 25000 steps at 30 kelvin.
TCL: Suspending until startup complete.
Info: SIMULATION PARAMETERS:
Info: TIMESTEP               2
Info: NUMBER OF STEPS        0
Info: STEPS PER CYCLE        10
Info: PERIODIC CELL BASIS 1  39.806 0 0
Info: PERIODIC CELL BASIS 2  0 40.459 0
Info: PERIODIC CELL BASIS 3  0 0 40.136
Info: PERIODIC CELL CENTER   0 0 0
Info: WRAPPING WATERS AROUND PERIODIC BOUNDARIES ON OUTPUT.
Info: WRAPPING ALL CLUSTERS AROUND PERIODIC BOUNDARIES ON OUTPUT.
Info: FIRST LDB TIMESTEP     50
Info: LAST LDB TIMESTEP     -1
Info: HOM BACKGROUND SCALING 1
Info: PME BACKGROUND SCALING 1
Info: MIN ATOMS PER PATCH    40
Info: EMPTY PATCH LOAD       40 ATOMS
Info: INITIAL TEMPERATURE    300
Info: CENTER OF MASS MOVING INITIALLY? NO
Info: DIELECTRIC             1
Info: EXCLUDE                SCALED ONE-FOUR
Info: 1-4 ELECTROSTATICS SCALED BY 0.833333
Info: MODIFIED 1-4 VDW PARAMETERS WILL BE USED
Info: DCD FILENAME           mobley_7010316_equil.dcd
Info: DCD FREQUENCY          5000
Info: DCD FIRST STEP         5000
Info: DCD FILE WILL CONTAIN UNIT CELL DATA
Info: XST FILENAME           mobley_7010316_equil.xst
Info: XST FREQUENCY          5000
Info: NO VELOCITY DCD OUTPUT
Info: NO FORCE DCD OUTPUT
Info: OUTPUT FILENAME        mobley_7010316_equil
Info: BINARY OUTPUT FILES WILL BE USED
Info: RESTART FILENAME       mobley_7010316_equil.restart
Info: RESTART FREQUENCY      5000
Info: BINARY RESTART FILES WILL BE USED
Info: CUTOFF                 9
Info: PAIRLIST DISTANCE      11
Info: PAIRLIST SHRINK RATE   0.01
Info: PAIRLIST GROW RATE     0.01
Info: PAIRLIST TRIGGER       0.3
Info: PAIRLISTS PER CYCLE    2
Info: PAIRLISTS ENABLED
Info: MARGIN                 8
Info: HYDROGEN GROUP CUTOFF  2.5
Info: PATCH DIMENSION        21.5
Info: ENERGY OUTPUT STEPS    5000
Info: ENERGY EVALUATION STEPS    5000
Info: OUTPUT ENERGY PRECISION 4
Info: CROSSTERM ENERGY INCLUDED IN DIHEDRAL
Info: TIMING OUTPUT STEPS    50000
Info: PRESSURE OUTPUT STEPS  5000
Info: LANGEVIN DYNAMICS ACTIVE
Info: LANGEVIN TEMPERATURE   30
Info: LANGEVIN USING BBK INTEGRATOR
Info: LANGEVIN DAMPING COEFFICIENT IS 1 INVERSE PS
Info: LANGEVIN DYNAMICS APPLIED TO HYDROGENS
Info: LANGEVIN PISTON PRESSURE CONTROL ACTIVE
Info:        TARGET PRESSURE IS 1.01325 BAR
Info:     OSCILLATION PERIOD IS 50 FS
Info:             DECAY TIME IS 25 FS
Info:     PISTON TEMPERATURE IS 300 K
Info:       PRESSURE CONTROL IS GROUP-BASED
Info:    INITIAL STRAIN RATE IS 0 0 0
Info:       CELL FLUCTUATION IS ISOTROPIC
Info: PARTICLE MESH EWALD (PME) ACTIVE
Info: PME TOLERANCE               1e-06
Info: PME EWALD COEFFICIENT       0.348832
Info: PME INTERPOLATION ORDER     4
Info: PME GRID DIMENSIONS         40 44 44
Info: PME MAXIMUM GRID SPACING    1
Info: FULL ELECTROSTATIC EVALUATION FREQUENCY      2
Info: USING VERLET I (r-RESPA) MTS SCHEME.
Info: C1 SPLITTING OF LONG RANGE ELECTROSTATICS
Info: PLACING ATOMS IN PATCHES BY HYDROGEN GROUPS
Info: RIGID BONDS TO HYDROGEN : ALL
Info:         ERROR TOLERANCE : 1e-08
Info:          MAX ITERATIONS : 100
Info: RIGID WATER USING SETTLE ALGORITHM
Info: RANDOM NUMBER SEED     1741386078
Info: USE HYDROGEN BONDS?    NO
Info: Using AMBER format force field!
Info: AMBER PARM FILE        mobley_7010316.prmtop
Info: COORDINATE PDB         mobley_7010316.pdb
Info: Exclusions will be read from PARM file!
Info: SCNB (VDW SCALING)     2
Info: USING ARITHMETIC MEAN TO COMBINE L-J SIGMA PARAMETERS
Info: BINARY COORDINATES     mobley_7010316_min.coor
Info: SUMMARY OF PARAMETERS:
Info: 7 BONDS
Info: 7 ANGLES
Info: 8 DIHEDRAL
Info: 0 IMPROPER
Info: 0 CROSSTERM
Info: 0 VDW
Info: 28 VDW_PAIRS
Info: 0 NBTHOLE_PAIRS
Info: STRUCTURE SUMMARY:
Info: 4678 ATOMS
Info: 4678 BONDS
Info: 37 ANGLES
Info: 57 DIHEDRALS
Info: 0 IMPROPERS
Info: 0 CROSSTERMS
Info: 4769 EXCLUSIONS
Info: 4671 RIGID BONDS
Info: 9363 DEGREES OF FREEDOM
Info: 1560 HYDROGEN GROUPS
Info: 3 ATOMS IN LARGEST HYDROGEN GROUP
Info: 1560 MIGRATION GROUPS
Info: 3 ATOMS IN LARGEST MIGRATION GROUP
Info: TOTAL MASS = 28079 amu
Info: TOTAL CHARGE = -4.47035e-08 e
Info: MASS DENSITY = 0.721345 g/cm^3
Info: ATOM DENSITY = 0.0723706 atoms/A^3
Info: ADDED 0 IMPLICIT EXCLUSIONS
Info: NONBONDED TABLE R-SQUARED SPACING: 0.0625
Info: NONBONDED TABLE SIZE: 705 POINTS
Info: REMOVING COM VELOCITY -0.164195 0.00174669 0.089229
TCL: Running for 25000 steps
ETITLE: TS BOND ANGLE DIHED IMPRP ELECT VDW BOUNDARY MISC KINETIC TOTAL TEMP POTENTIAL TOTAL3 TEMPAVG PRESSURE GPRESSURE VOLUME PRESSAVG GPRESSAVG
ENERGY: 0 1.0506 0.6795 0.4144 0.0000 -21449.9141 3731.7535 0.0000 0.0000 2836.3880 -14879.6280 304.8885 -17716.0160 -14879.0247 304.8885 226.9403 268.8920 64639.4676 226.9403 268.8920
ENERGY: 5000 0.1566 1.0914 0.6060 0.0000 -22537.6707 3974.7020 0.0000 0.0000 279.6138 -18281.5008 30.0562 -18561.1146 -18280.8096 48.0244 393.6822 433.9812 45411.6008 2.8729 2.7552
ENERGY: 10000 0.3520 0.9633 0.6054 0.0000 -22575.9537 3987.5973 0.0000 0.0000 272.9351 -18313.5006 29.3383 -18586.4357 -18312.8028 30.1281 407.5479 463.1480 45324.8850 5.8074 5.7833
ENERGY: 15000 0.3077 1.1550 0.5391 0.0000 -22721.1738 4123.5205 0.0000 0.0000 279.6634 -18315.9881 30.0615 -18595.6514 -18315.3428 30.0282 1159.1522 1217.2380 45124.6575 1.6681 1.7178
ENERGY: 20000 0.5477 1.2229 0.5878 0.0000 -22535.8933 3904.8639 0.0000 0.0000 277.0024 -18351.6686 29.7755 -18628.6710 -18351.0297 30.1670 -117.7988 -61.9281 45424.3116 -0.4979 -0.5828
ENERGY: 25000 0.3643 1.6192 0.6669 0.0000 -22640.6011 3998.6111 0.0000 0.0000 280.7559 -18358.5837 30.1790 -18639.3396 -18357.9650 30.1426 423.2049 471.9019 45233.6189 1.1202 1.1039
TCL: Running 25000 steps at 60 kelvin.
TCL: Setting parameter langevinTemp to 60
TCL: Running for 25000 steps
ETITLE: TS BOND ANGLE DIHED IMPRP ELECT VDW BOUNDARY MISC KINETIC TOTAL TEMP POTENTIAL TOTAL3 TEMPAVG PRESSURE GPRESSURE VOLUME PRESSAVG GPRESSAVG
ENERGY: 25000 0.3643 1.6192 0.6669 0.0000 -22640.6011 3998.6111 0.0000 0.0000 280.6192 -18358.7204 30.1643 -18639.3396 -18358.1617 30.1643 417.7821 471.7288 45233.6189 417.7821 471.7288
ENERGY: 30000 1.0526 2.5266 0.5049 0.0000 -22272.8659 3883.2258 0.0000 0.0000 563.7219 -17821.8342 60.5955 -18385.5561 -17820.9269 57.2635 350.6548 430.1943 45358.1490 5.3758 5.2279
ENERGY: 35000 0.6862 2.3294 0.9723 0.0000 -22318.8878 3922.5973 0.0000 0.0000 555.9412 -17836.3614 59.7591 -18392.3026 -17835.6987 60.1227 524.7995 583.0310 45351.0611 5.8973 6.0071
ENERGY: 40000 0.1920 2.7924 0.7196 0.0000 -22360.4481 3950.1320 0.0000 0.0000 558.2123 -17848.3999 60.0033 -18406.6122 -17846.9282 60.0809 777.1832 876.2854 44944.0402 5.2543 5.0914
ENERGY: 45000 0.3108 1.7719 0.6924 0.0000 -22466.8734 4028.1236 0.0000 0.0000 557.1650 -17878.8098 59.8907 -18435.9748 -17877.2627 59.9976 1036.8406 1097.5267 45130.7871 3.4766 3.6931
ENERGY: 50000 0.3180 1.8736 0.5315 0.0000 -22212.9885 3758.8167 0.0000 0.0000 557.4945 -17893.9541 59.9261 -18451.4486 -17892.0007 60.3093 -457.7167 -399.2278 45504.1568 5.9167 5.9891
TCL: Running 25000 steps at 90 kelvin.
TCL: Setting parameter langevinTemp to 90
TCL: Running for 25000 steps
ETITLE: TS BOND ANGLE DIHED IMPRP ELECT VDW BOUNDARY MISC KINETIC TOTAL TEMP POTENTIAL TOTAL3 TEMPAVG PRESSURE GPRESSURE VOLUME PRESSAVG GPRESSAVG
ENERGY: 50000 0.3180 1.8736 0.5315 0.0000 -22212.9885 3758.8167 0.0000 0.0000 557.2189 -17894.2297 59.8965 -18451.4486 -17893.0423 59.8965 -455.2632 -398.8483 45504.1568 -455.2632 -398.8483
ENERGY: 55000 0.9601 3.0839 0.8870 0.0000 -21709.2366 3552.5365 0.0000 0.0000 863.3872 -17288.3819 92.8071 -18151.7691 -17285.2177 86.5073 -828.5917 -794.7084 45838.0971 4.4143 4.5197
ENERGY: 60000 0.6688 2.2808 0.8769 0.0000 -21835.0989 3616.9082 0.0000 0.0000 839.5760 -17374.7882 90.2475 -18214.3641 -17372.0644 89.9048 -559.2425 -497.0624 45618.6137 -0.9652 -0.9105
ENERGY: 65000 0.6458 3.2687 0.9885 0.0000 -21972.9348 3733.0997 0.0000 0.0000 826.8898 -17408.0422 88.8839 -18234.9320 -17406.2021 90.2337 30.2040 68.2989 45407.6031 4.8929 4.9877
ENERGY: 70000 1.8394 3.4181 0.6774 0.0000 -21855.5238 3583.0030 0.0000 0.0000 840.6311 -17425.9548 90.3610 -18266.5859 -17423.5916 91.1397 -864.6579 -790.7277 45596.4115 0.4536 0.1372
ENERGY: 75000 1.1268 4.2504 0.9787 0.0000 -22066.0647 3793.5850 0.0000 0.0000 840.0368 -17426.0870 90.2971 -18266.1238 -17423.9566 90.3718 247.3954 310.1204 45430.2281 1.3047 1.4702
TCL: Running 25000 steps at 120 kelvin.
TCL: Setting parameter langevinTemp to 120
TCL: Running for 25000 steps
ETITLE: TS BOND ANGLE DIHED IMPRP ELECT VDW BOUNDARY MISC KINETIC TOTAL TEMP POTENTIAL TOTAL3 TEMPAVG PRESSURE GPRESSURE VOLUME PRESSAVG GPRESSAVG
ENERGY: 75000 1.1268 4.2504 0.9787 0.0000 -22066.0647 3793.5850 0.0000 0.0000 839.6139 -17426.5099 90.2516 -18266.1238 -17425.0033 90.2516 250.0628 310.5545 45430.2281 250.0628 310.5545
ENERGY: 80000 1.0592 4.0315 0.6281 0.0000 -21416.0400 3441.0742 0.0000 0.0000 1142.2239 -16827.0231 122.7797 -17969.2470 -16823.2376 118.1888 -1024.8449 -965.2843 46155.8717 3.9324 4.3162
ENERGY: 85000 2.3441 5.3941 0.3440 0.0000 -21728.3768 3757.0399 0.0000 0.0000 1113.4595 -16849.7952 119.6878 -17963.2548 -16847.6348 120.5041 690.1131 732.9253 45478.0493 4.1322 4.3857
ENERGY: 90000 1.9698 3.1262 0.9412 0.0000 -21712.9448 3654.4404 0.0000 0.0000 1131.4874 -16920.9799 121.6256 -18052.4673 -16918.4984 120.2649 114.9125 189.2479 45468.8303 -0.7020 -0.7490
ENERGY: 95000 3.3458 4.2118 1.1331 0.0000 -21654.3381 3589.6661 0.0000 0.0000 1113.2524 -16942.7290 119.6655 -18055.9814 -16937.8678 120.3461 -442.5937 -378.7811 45704.0145 4.8989 4.9911
ENERGY: 100000 1.1504 2.9981 1.1751 0.0000 -21607.1221 3546.6754 0.0000 0.0000 1133.5470 -16921.5760 121.8470 -18055.1230 -16917.8180 121.4302 -471.3554 -410.7994 45396.9024 4.3100 4.0172
TCL: Running 25000 steps at 150 kelvin.
TCL: Setting parameter langevinTemp to 150
TCL: Running for 25000 steps
ETITLE: TS BOND ANGLE DIHED IMPRP ELECT VDW BOUNDARY MISC KINETIC TOTAL TEMP POTENTIAL TOTAL3 TEMPAVG PRESSURE GPRESSURE VOLUME PRESSAVG GPRESSAVG
ENERGY: 100000 1.1504 2.9981 1.1751 0.0000 -21607.1221 3546.6754 0.0000 0.0000 1132.9922 -16922.1308 121.7874 -18055.1230 -16919.5929 121.7874 -469.3841 -410.6159 45396.9024 -469.3841 -410.6159
ENERGY: 105000 1.1915 3.4299 0.9178 0.0000 -21133.2738 3410.2317 0.0000 0.0000 1367.2544 -16350.2485 146.9686 -17717.5029 -16347.9453 146.9475 -416.8558 -366.5372 45600.5215 -0.5333 -0.1629
ENERGY: 110000 0.3775 4.1839 1.2756 0.0000 -21373.8615 3571.5588 0.0000 0.0000 1405.0230 -16391.4427 151.0285 -17796.4657 -16387.6427 149.5447 341.0536 377.8416 45254.6515 0.9819 0.7461
ENERGY: 115000 1.1651 4.1863 0.9589 0.0000 -20999.9553 3295.7943 0.0000 0.0000 1412.9421 -16284.9085 151.8797 -17697.8506 -16281.1437 150.0636 -955.7361 -875.8042 45545.3064 5.3003 4.9305
ENERGY: 120000 1.0598 6.1964 1.2926 0.0000 -21341.7142 3499.4545 0.0000 0.0000 1379.0349 -16454.6760 148.2350 -17833.7109 -16451.3672 150.2147 -182.7601 -127.0874 45260.0245 11.6577 11.7147
ENERGY: 125000 0.8263 3.4910 0.8312 0.0000 -21425.7265 3644.9861 0.0000 0.0000 1450.3715 -16325.2204 155.9030 -17775.5918 -16322.3566 150.6127 771.2489 844.7683 45214.0545 4.5064 4.5527
TCL: Running 50000 steps at 180 kelvin.
TCL: Setting parameter langevinTemp to 180
TCL: Running for 50000 steps
ETITLE: TS BOND ANGLE DIHED IMPRP ELECT VDW BOUNDARY MISC KINETIC TOTAL TEMP POTENTIAL TOTAL3 TEMPAVG PRESSURE GPRESSURE VOLUME PRESSAVG GPRESSAVG
ENERGY: 125000 0.8263 3.4910 0.8312 0.0000 -21425.7265 3644.9861 0.0000 0.0000 1449.6936 -16325.8982 155.8302 -17775.5918 -16323.4633 155.8302 789.0129 844.4319 45214.0545 789.0129 844.4319
ENERGY: 135000 1.2387 6.5126 0.8560 0.0000 -20543.4978 3181.2418 0.0000 0.0000 1673.5615 -15680.0871 179.8942 -17353.6486 -15677.2340 180.9598 -1009.1664 -934.8361 46284.4603 -0.0279 -0.3518
ENERGY: 145000 0.9102 4.6961 0.6959 0.0000 -20694.3052 3364.3534 0.0000 0.0000 1705.9128 -15617.7368 183.3716 -17323.6495 -15615.1359 180.0773 180.4625 230.7547 45791.0334 1.6820 2.2575
ENERGY: 155000 1.7337 7.7890 0.4926 0.0000 -20721.5382 3320.4901 0.0000 0.0000 1705.1337 -15685.8991 183.2879 -17391.0328 -15681.6843 181.0643 -132.2674 -59.9172 45602.0716 5.3946 5.1838
ENERGY: 165000 0.9648 5.5867 0.8813 0.0000 -20633.7092 3272.6243 0.0000 0.0000 1692.4476 -15661.2046 181.9242 -17353.6521 -15654.0148 180.5189 -526.9160 -464.0555 46148.5286 -2.3751 -2.3554
ENERGY: 175000 2.1823 4.5848 1.0288 0.0000 -20701.7839 3318.0090 0.0000 0.0000 1685.7180 -15690.2609 181.2009 -17375.9789 -15685.4882 181.3451 -209.9281 -156.8236 45890.1461 9.5920 9.5959
TCL: Running 50000 steps at 210 kelvin.
TCL: Setting parameter langevinTemp to 210
TCL: Running for 50000 steps
ETITLE: TS BOND ANGLE DIHED IMPRP ELECT VDW BOUNDARY MISC KINETIC TOTAL TEMP POTENTIAL TOTAL3 TEMPAVG PRESSURE GPRESSURE VOLUME PRESSAVG GPRESSAVG
ENERGY: 175000 2.1823 4.5848 1.0288 0.0000 -20701.7839 3318.0090 0.0000 0.0000 1684.8891 -15691.0898 181.1118 -17375.9789 -15688.2876 181.1118 -216.6008 -156.1917 45890.1461 -216.6008 -156.1917
ENERGY: 185000 2.3856 10.0387 0.9737 0.0000 -19827.8751 3115.0219 0.0000 0.0000 1972.5192 -14726.9359 212.0297 -16699.4551 -14721.9971 210.8032 340.1100 412.1956 45695.4379 1.9001 1.9262
ENERGY: 195000 2.6260 5.7440 1.0799 0.0000 -19646.2702 3014.8994 0.0000 0.0000 1984.8956 -14637.0253 213.3600 -16621.9209 -14633.1030 211.3796 89.3644 175.2945 45580.0112 2.5688 1.9226
ENERGY: 205000 1.7021 4.8242 0.2859 0.0000 -19750.0827 3059.9178 0.0000 0.0000 1926.6845 -14756.6682 207.1028 -16683.3527 -14751.2673 209.3509 358.9439 434.1719 45342.5070 3.1626 3.7175
ENERGY: 215000 2.2389 4.8361 0.8204 0.0000 -19595.9613 2962.5596 0.0000 0.0000 1931.9569 -14693.5494 207.6695 -16625.5063 -14688.5116 209.9265 8.3691 113.2565 45233.1389 7.3842 7.7266
ENERGY: 225000 1.3321 5.9223 0.6597 0.0000 -19621.7043 2975.8262 0.0000 0.0000 1972.2582 -14665.7059 212.0016 -16637.9641 -14662.2795 209.5861 -104.2137 -52.5980 45704.4173 0.0620 -0.3206
TCL: Running 50000 steps at 240 kelvin.
TCL: Setting parameter langevinTemp to 240
TCL: Running for 50000 steps
ETITLE: TS BOND ANGLE DIHED IMPRP ELECT VDW BOUNDARY MISC KINETIC TOTAL TEMP POTENTIAL TOTAL3 TEMPAVG PRESSURE GPRESSURE VOLUME PRESSAVG GPRESSAVG
ENERGY: 225000 1.3321 5.9223 0.6597 0.0000 -19621.7043 2975.8262 0.0000 0.0000 1971.3277 -14666.6365 211.9016 -16637.9641 -14663.4945 211.9016 -126.1624 -53.9601 45704.4173 -126.1624 -53.9601
ENERGY: 235000 3.4254 10.5348 0.6891 0.0000 -18614.6799 2642.5350 0.0000 0.0000 2261.8452 -13695.6504 243.1298 -15957.4956 -13690.6839 240.5391 -574.1423 -469.1891 46533.9629 4.6592 5.2360
ENERGY: 245000 1.0034 8.9021 1.3212 0.0000 -18719.9449 2724.7620 0.0000 0.0000 2302.9589 -13680.9974 247.5492 -15983.9562 -13676.7720 239.4981 -126.2603 -94.4416 46326.3160 3.8666 4.1945
ENERGY: 255000 2.1656 5.5511 0.9049 0.0000 -18807.3488 2796.2570 0.0000 0.0000 2212.3956 -13790.0745 237.8144 -16002.4702 -13786.8894 238.9438 280.2094 407.6602 45892.4655 1.8375 2.1129
ENERGY: 265000 1.0832 5.0948 0.7318 0.0000 -18776.1252 2785.1403 0.0000 0.0000 2315.6834 -13668.3917 248.9170 -15984.0751 -13663.8767 238.1860 585.2508 674.6724 45430.2148 2.4140 2.6354
ENERGY: 275000 1.6015 6.1124 1.4043 0.0000 -18620.8781 2687.9086 0.0000 0.0000 2230.2351 -13693.6163 239.7320 -15923.8514 -13687.7953 239.9546 -316.2163 -206.2950 46506.3366 2.6872 2.3345
TCL: Running 50000 steps at 270 kelvin.
TCL: Setting parameter langevinTemp to 270
TCL: Running for 50000 steps
ETITLE: TS BOND ANGLE DIHED IMPRP ELECT VDW BOUNDARY MISC KINETIC TOTAL TEMP POTENTIAL TOTAL3 TEMPAVG PRESSURE GPRESSURE VOLUME PRESSAVG GPRESSAVG
ENERGY: 275000 1.6015 6.1124 1.4043 0.0000 -18620.8781 2687.9086 0.0000 0.0000 2229.0982 -13694.7532 239.6098 -15923.8514 -13691.6243 239.6098 -302.5687 -205.6133 46506.3366 -302.5687 -205.6133
ENERGY: 285000 3.0910 5.4558 0.7909 0.0000 -17745.2796 2402.7593 0.0000 0.0000 2515.7315 -12817.4511 270.4205 -15333.1826 -12809.9662 271.2234 -445.1780 -357.8525 46621.2523 0.3075 -0.3027
ENERGY: 295000 2.1648 3.8747 1.0826 0.0000 -17757.2268 2375.5030 0.0000 0.0000 2402.3071 -12972.2945 258.2283 -15374.6016 -12968.7601 269.9086 -919.1763 -799.5176 47518.7929 2.6837 2.3905
ENERGY: 305000 1.6434 8.3163 0.6058 0.0000 -17866.6079 2553.7893 0.0000 0.0000 2505.7862 -12796.4669 269.3515 -15302.2531 -12790.9368 270.7465 196.8136 279.5421 47686.3029 0.7519 1.2354
ENERGY: 315000 2.8179 6.2391 1.6903 0.0000 -17815.0161 2533.6030 0.0000 0.0000 2496.2843 -12774.3815 268.3301 -15270.6658 -12772.3596 270.0513 390.5504 486.8173 46871.7325 7.9359 7.2977
ENERGY: 325000 4.6256 10.6773 0.8478 0.0000 -17853.7510 2470.3752 0.0000 0.0000 2499.0384 -12868.1868 268.6262 -15367.2252 -12862.1316 269.8734 -415.0928 -330.3856 47109.5003 0.8644 0.0194
TCL: Running 1000000 steps at 300 kelvin.
TCL: Setting parameter langevinTemp to 300
TCL: Running for 1000000 steps
ETITLE: TS BOND ANGLE DIHED IMPRP ELECT VDW BOUNDARY MISC KINETIC TOTAL TEMP POTENTIAL TOTAL3 TEMPAVG PRESSURE GPRESSURE VOLUME PRESSAVG GPRESSAVG
ENERGY: 325000 4.6256 10.6773 0.8478 0.0000 -17853.7510 2470.3752 0.0000 0.0000 2497.7797 -12869.4455 268.4908 -15367.2252 -12865.9133 268.4908 -417.8600 -329.4925 47109.5003 -417.8600 -329.4925
ENERGY: 525000 1.3929 9.8056 1.4515 0.0000 -16973.1016 2295.4472 0.0000 0.0000 2780.1095 -11884.8948 298.8390 -14665.0043 -11881.7819 298.5024 125.2018 164.8734 48024.8858 4.8928 4.4211
ENERGY: 725000 1.0195 9.3606 1.6254 0.0000 -16910.7817 2308.9343 0.0000 0.0000 2754.8346 -11835.0073 296.1221 -14589.8419 -11826.3010 301.5801 284.1543 355.5973 48198.4148 3.9693 4.3113
ENERGY: 925000 1.2724 7.2440 2.6055 0.0000 -16864.0079 2159.1236 0.0000 0.0000 2769.5708 -11924.1916 297.7062 -14693.7625 -11919.9878 301.0663 -605.8386 -569.0348 48234.0121 -2.7433 -3.1400
ENERGY: 1125000 2.2075 12.1225 1.1616 0.0000 -16997.7939 2349.0115 0.0000 0.0000 2765.3746 -11867.9163 297.2551 -14633.2909 -11859.0878 299.5248 273.9188 357.0067 48277.4793 0.6244 0.7326
ENERGY: 1325000 1.0506 7.5233 1.7110 0.0000 -17006.9168 2316.1683 0.0000 0.0000 2738.2873 -11942.1763 294.3434 -14680.4636 -11937.0612 300.4537 204.8087 287.6196 48047.4521 -2.0198 -1.6264
TCL: Exiting due to exit command.
