Info: SIMULATION PARAMETERS:
Info: TIMESTEP               2
Info: NUMBER OF STEPS        0
Info: STEPS PER CYCLE        10
Info: PERIODIC CELL BASIS 1  41.123 0 0
Info: PERIODIC CELL BASIS 2  0 39.013 0
Info: PERIODIC CELL BASIS 3  0 0 40.136
Info: PERIODIC CELL CENTER   0 0 0
Info: WRAPPING WATERS AROUND PERIODIC BOUNDARIES ON OUTPUT.
Info: WRAPPING ALL CLUSTERS AROUND PERIODIC BOUNDARIES ON OUTPUT.
Info: FIRST LDB TIMESTEP     50
Info: LAST LDB TIMESTEP     -1
Info: HOM BACKGROUND SCALING 1
Info: PME BACKGROUND SCALING 1
Info: MIN ATOMS PER PATCH    40
Info: EMPTY PATCH LOAD       40 ATOMS
Info: INITIAL TEMPERATURE    300
Info: CENTER OF MASS MOVING INITIALLY? NO
Info: DIELECTRIC             1
Info: EXCLUDE                SCALED ONE-FOUR
Info: 1-4 ELECTROSTATICS SCALED BY 0.833333
Info: MODIFIED 1-4 VDW PARAMETERS WILL BE USED
Info: DCD FILENAME           mobley_1199854_min.dcd
Info: DCD FREQUENCY          5000
Info: DCD FIRST STEP         5000
Info: DCD FILE WILL CONTAIN UNIT CELL DATA
Info: XST FILENAME           mobley_1199854_min.xst
Info: XST FREQUENCY          5000
Info: NO VELOCITY DCD OUTPUT
Info: NO FORCE DCD OUTPUT
Info: OUTPUT FILENAME        mobley_1199854_min
Info: BINARY OUTPUT FILES WILL BE USED
Info: RESTART FILENAME       mobley_1199854_min.restart
Info: RESTART FREQUENCY      5000
Info: BINARY RESTART FILES WILL BE USED
Info: CUTOFF                 9
Info: PAIRLIST DISTANCE      11
Info: PAIRLIST SHRINK RATE   0.01
Info: PAIRLIST GROW RATE     0.01
Info: PAIRLIST TRIGGER       0.3
Info: PAIRLISTS PER CYCLE    2
Info: PAIRLISTS ENABLED
Info: MARGIN                 8
Info: HYDROGEN GROUP CUTOFF  2.5
Info: PATCH DIMENSION        21.5
Info: ENERGY OUTPUT STEPS    5000
Info: ENERGY EVALUATION STEPS    5000
Info: OUTPUT ENERGY PRECISION 4
Info: CROSSTERM ENERGY INCLUDED IN DIHEDRAL
Info: TIMING OUTPUT STEPS    50000
Info: PRESSURE OUTPUT STEPS  5000
Info: LANGEVIN DYNAMICS ACTIVE
Info: LANGEVIN TEMPERATURE   300
Info: LANGEVIN USING BBK INTEGRATOR
Info: LANGEVIN DAMPING COEFFICIENT IS 1 INVERSE PS
Info: LANGEVIN DYNAMICS APPLIED TO HYDROGENS
Info: LANGEVIN PISTON PRESSURE CONTROL ACTIVE
Info:        TARGET PRESSURE IS 1.01325 BAR
Info:     OSCILLATION PERIOD IS 50 FS
Info:             DECAY TIME IS 25 FS
Info:     PISTON TEMPERATURE IS 300 K
Info:       PRESSURE CONTROL IS GROUP-BASED
Info:    INITIAL STRAIN RATE IS 0 0 0
Info:       CELL FLUCTUATION IS ISOTROPIC
Info: PARTICLE MESH EWALD (PME) ACTIVE
Info: PME TOLERANCE               1e-06
Info: PME EWALD COEFFICIENT       0.348832
Info: PME INTERPOLATION ORDER     4
Info: PME GRID DIMENSIONS         44 40 44
Info: PME MAXIMUM GRID SPACING    1
Info: FULL ELECTROSTATIC EVALUATION FREQUENCY      2
Info: USING VERLET I (r-RESPA) MTS SCHEME.
Info: C1 SPLITTING OF LONG RANGE ELECTROSTATICS
Info: PLACING ATOMS IN PATCHES BY HYDROGEN GROUPS
Info: RIGID BONDS TO HYDROGEN : ALL
Info:         ERROR TOLERANCE : 1e-08
Info:          MAX ITERATIONS : 100
Info: RIGID WATER USING SETTLE ALGORITHM
Info: RANDOM NUMBER SEED     1741309220
Info: USE HYDROGEN BONDS?    NO
Info: Using AMBER format force field!
Info: AMBER PARM FILE        mobley_1199854.prmtop
Info: COORDINATE PDB         mobley_1199854.pdb
Info: Exclusions will be read from PARM file!
Info: SCNB (VDW SCALING)     2
Info: USING ARITHMETIC MEAN TO COMBINE L-J SIGMA PARAMETERS
Info: SUMMARY OF PARAMETERS:
Info: 6 BONDS
Info: 7 ANGLES
Info:   7 HARMONIC
Info:   0 COSINE-BASED
Info: 4 DIHEDRAL
Info: 0 IMPROPER
Info: 0 CROSSTERM
Info: 0 VDW
Info: 21 VDW_PAIRS
Info: 0 NBTHOLE_PAIRS
Info: STRUCTURE SUMMARY:
Info: 4598 ATOMS
Info: 4597 BONDS
Info: 18 ANGLES
Info: 18 DIHEDRALS
Info: 0 IMPROPERS
Info: 0 CROSSTERMS
Info: 4633 EXCLUSIONS
Info: 4594 RIGID BONDS
Info: 9200 DEGREES OF FREEDOM
Info: 1533 HYDROGEN GROUPS
Info: 4 ATOMS IN LARGEST HYDROGEN GROUP
Info: 1533 MIGRATION GROUPS
Info: 4 ATOMS IN LARGEST MIGRATION GROUP
Info: TOTAL MASS = 27716.5 amu
Info: TOTAL CHARGE = 2.23517e-08 e
Info: MASS DENSITY = 0.714774 g/cm^3
Info: ATOM DENSITY = 0.071407 atoms/A^3
Info: ADDED 0 IMPLICIT EXCLUSIONS
Info: NONBONDED TABLE R-SQUARED SPACING: 0.0625
Info: NONBONDED TABLE SIZE: 705 POINTS
Info: REMOVING COM VELOCITY -0.0483961 -0.155267 -0.015134
TCL: Minimizing for 2000 steps
ETITLE: TS BOND ANGLE DIHED IMPRP ELECT VDW BOUNDARY MISC KINETIC TOTAL TEMP POTENTIAL TOTAL3 TEMPAVG PRESSURE GPRESSURE VOLUME PRESSAVG GPRESSAVG
ENERGY: 0 0.7782 0.7023 0.0062 0.0000 -14316.4352 1657.5046 0.0000 0.0000 0.0000 -12657.4440 0.0000 -12657.4440 -12657.4440 0.0000 11095.5901 -15490.6916 64391.4531 11095.5901 -15490.6916
ENERGY: 400 3.4281 2.6253 0.1457 0.0000 -19687.3412 3089.0292 0.0000 0.0000 0.0000 -16592.1129 0.0000 -16592.1129 -16592.1129 0.0000 16927.0007 17042.3183 64391.4531 16927.0007 17042.3183
ENERGY: 800 1.9168 1.6549 0.0314 0.0000 -20470.6390 3401.1950 0.0000 0.0000 0.0000 -17065.8409 0.0000 -17065.8409 -17065.8409 0.0000 18373.2998 18500.7871 64391.4531 18373.2998 18500.7871
ENERGY: 1200 0.4308 0.5754 0.0175 0.0000 -20813.6487 3569.2614 0.0000 0.0000 0.0000 -17243.3636 0.0000 -17243.3636 -17243.3636 0.0000 19230.1269 19332.7362 64391.4531 19230.1269 19332.7362
ENERGY: 1600 0.2506 0.4312 0.0860 0.0000 -21012.0529 3658.8799 0.0000 0.0000 0.0000 -17352.4052 0.0000 -17352.4052 -17352.4052 0.0000 19734.6889 19831.2595 64391.4531 19734.6889 19831.2595
ENERGY: 2000 0.0837 0.3277 0.0176 0.0000 -21074.7488 3666.1351 0.0000 0.0000 0.0000 -17408.1848 0.0000 -17408.1848 -17408.1848 0.0000 19798.6881 19893.2650 64391.4531 19798.6881 19893.2650
TCL: Exiting due to exit command.
Info: NAMD 3.0.1 for Linux-x86_64-multicore
Info: Please visit http://www.ks.uiuc.edu/Research/namd/
Info: for updates, documentation, and support information.
Info: Please cite Phillips et al., J. Chem. Phys. 153:044130 (2020) doi:10.1063/5.0014475
Info: in all publications reporting results obtained with NAMD.
Info: Based on Charm++/Converse 80000 for multicore-linux-x86_64-gcc
Info: Built Mon Oct 14 11:11:06 CDT 2024 by dhardy on athine.ks.uiuc.edu
Info: 1 NAMD  3.0.1  Linux-x86_64-multicore  16    k005  z5358697
Info: Running on 16 processors, 1 nodes, 1 physical nodes.
Info: CPU topology information available.
Info: Charm++/Converse parallel runtime startup completed at 0.00972458 s
Info: 1043.45 MB of memory in use based on /proc/self/stat
Info: Configuration file is mobley_1199854_equil.namd
Info: Working in the current directory /srv/scratch/z5358697/prod_prep/1199854
TCL: Running 25000 steps at 30 kelvin.
TCL: Suspending until startup complete.
Info: SIMULATION PARAMETERS:
Info: TIMESTEP               2
Info: NUMBER OF STEPS        0
Info: STEPS PER CYCLE        10
Info: PERIODIC CELL BASIS 1  41.123 0 0
Info: PERIODIC CELL BASIS 2  0 39.013 0
Info: PERIODIC CELL BASIS 3  0 0 40.136
Info: PERIODIC CELL CENTER   0 0 0
Info: WRAPPING WATERS AROUND PERIODIC BOUNDARIES ON OUTPUT.
Info: WRAPPING ALL CLUSTERS AROUND PERIODIC BOUNDARIES ON OUTPUT.
Info: FIRST LDB TIMESTEP     50
Info: LAST LDB TIMESTEP     -1
Info: HOM BACKGROUND SCALING 1
Info: PME BACKGROUND SCALING 1
Info: MIN ATOMS PER PATCH    40
Info: EMPTY PATCH LOAD       40 ATOMS
Info: INITIAL TEMPERATURE    300
Info: CENTER OF MASS MOVING INITIALLY? NO
Info: DIELECTRIC             1
Info: EXCLUDE                SCALED ONE-FOUR
Info: 1-4 ELECTROSTATICS SCALED BY 0.833333
Info: MODIFIED 1-4 VDW PARAMETERS WILL BE USED
Info: DCD FILENAME           mobley_1199854_equil.dcd
Info: DCD FREQUENCY          5000
Info: DCD FIRST STEP         5000
Info: DCD FILE WILL CONTAIN UNIT CELL DATA
Info: XST FILENAME           mobley_1199854_equil.xst
Info: XST FREQUENCY          5000
Info: NO VELOCITY DCD OUTPUT
Info: NO FORCE DCD OUTPUT
Info: OUTPUT FILENAME        mobley_1199854_equil
Info: BINARY OUTPUT FILES WILL BE USED
Info: RESTART FILENAME       mobley_1199854_equil.restart
Info: RESTART FREQUENCY      5000
Info: BINARY RESTART FILES WILL BE USED
Info: CUTOFF                 9
Info: PAIRLIST DISTANCE      11
Info: PAIRLIST SHRINK RATE   0.01
Info: PAIRLIST GROW RATE     0.01
Info: PAIRLIST TRIGGER       0.3
Info: PAIRLISTS PER CYCLE    2
Info: PAIRLISTS ENABLED
Info: MARGIN                 8
Info: HYDROGEN GROUP CUTOFF  2.5
Info: PATCH DIMENSION        21.5
Info: ENERGY OUTPUT STEPS    5000
Info: ENERGY EVALUATION STEPS    5000
Info: OUTPUT ENERGY PRECISION 4
Info: CROSSTERM ENERGY INCLUDED IN DIHEDRAL
Info: TIMING OUTPUT STEPS    50000
Info: PRESSURE OUTPUT STEPS  5000
Info: LANGEVIN DYNAMICS ACTIVE
Info: LANGEVIN TEMPERATURE   30
Info: LANGEVIN USING BBK INTEGRATOR
Info: LANGEVIN DAMPING COEFFICIENT IS 1 INVERSE PS
Info: LANGEVIN DYNAMICS APPLIED TO HYDROGENS
Info: LANGEVIN PISTON PRESSURE CONTROL ACTIVE
Info:        TARGET PRESSURE IS 1.01325 BAR
Info:     OSCILLATION PERIOD IS 50 FS
Info:             DECAY TIME IS 25 FS
Info:     PISTON TEMPERATURE IS 300 K
Info:       PRESSURE CONTROL IS GROUP-BASED
Info:    INITIAL STRAIN RATE IS 0 0 0
Info:       CELL FLUCTUATION IS ISOTROPIC
Info: PARTICLE MESH EWALD (PME) ACTIVE
Info: PME TOLERANCE               1e-06
Info: PME EWALD COEFFICIENT       0.348832
Info: PME INTERPOLATION ORDER     4
Info: PME GRID DIMENSIONS         44 40 44
Info: PME MAXIMUM GRID SPACING    1
Info: FULL ELECTROSTATIC EVALUATION FREQUENCY      2
Info: USING VERLET I (r-RESPA) MTS SCHEME.
Info: C1 SPLITTING OF LONG RANGE ELECTROSTATICS
Info: PLACING ATOMS IN PATCHES BY HYDROGEN GROUPS
Info: RIGID BONDS TO HYDROGEN : ALL
Info:         ERROR TOLERANCE : 1e-08
Info:          MAX ITERATIONS : 100
Info: RIGID WATER USING SETTLE ALGORITHM
Info: RANDOM NUMBER SEED     1741309236
Info: USE HYDROGEN BONDS?    NO
Info: Using AMBER format force field!
Info: AMBER PARM FILE        mobley_1199854.prmtop
Info: COORDINATE PDB         mobley_1199854.pdb
Info: Exclusions will be read from PARM file!
Info: SCNB (VDW SCALING)     2
Info: USING ARITHMETIC MEAN TO COMBINE L-J SIGMA PARAMETERS
Info: BINARY COORDINATES     mobley_1199854_min.coor
Info: SUMMARY OF PARAMETERS:
Info: 6 BONDS
Info: 7 ANGLES
Info: 4 DIHEDRAL
Info: 0 IMPROPER
Info: 0 CROSSTERM
Info: 0 VDW
Info: 21 VDW_PAIRS
Info: 0 NBTHOLE_PAIRS
Info: STRUCTURE SUMMARY:
Info: 4598 ATOMS
Info: 4597 BONDS
Info: 18 ANGLES
Info: 18 DIHEDRALS
Info: 0 IMPROPERS
Info: 0 CROSSTERMS
Info: 4633 EXCLUSIONS
Info: 4594 RIGID BONDS
Info: 9200 DEGREES OF FREEDOM
Info: 1533 HYDROGEN GROUPS
Info: 4 ATOMS IN LARGEST HYDROGEN GROUP
Info: 1533 MIGRATION GROUPS
Info: 4 ATOMS IN LARGEST MIGRATION GROUP
Info: TOTAL MASS = 27716.5 amu
Info: TOTAL CHARGE = 2.23517e-08 e
Info: MASS DENSITY = 0.714774 g/cm^3
Info: ATOM DENSITY = 0.071407 atoms/A^3
Info: ADDED 0 IMPLICIT EXCLUSIONS
Info: NONBONDED TABLE R-SQUARED SPACING: 0.0625
Info: NONBONDED TABLE SIZE: 705 POINTS
Info: REMOVING COM VELOCITY 0.0195789 0.0629984 0.00250778
TCL: Running for 25000 steps
ETITLE: TS BOND ANGLE DIHED IMPRP ELECT VDW BOUNDARY MISC KINETIC TOTAL TEMP POTENTIAL TOTAL3 TEMPAVG PRESSURE GPRESSURE VOLUME PRESSAVG GPRESSAVG
ENERGY: 0 0.0837 0.3277 0.0176 0.0000 -21074.7488 3666.1351 0.0000 0.0000 2737.2216 -14670.9632 299.4419 -17408.1848 -14670.4319 299.4419 248.6939 283.7784 64391.4531 248.6939 283.7784
ENERGY: 5000 0.0633 0.9060 0.0774 0.0000 -22165.6708 3904.6833 0.0000 0.0000 277.1313 -17982.8095 30.3171 -18259.9408 -17982.1035 47.7666 306.5442 353.2821 44735.9254 7.7577 7.6904
ENERGY: 10000 0.1508 0.8436 0.0445 0.0000 -22103.6984 3792.3997 0.0000 0.0000 279.6307 -18030.6291 30.5906 -18310.2598 -18030.3715 30.5782 -363.4975 -317.1000 44770.2246 1.0023 1.0786
ENERGY: 15000 0.2367 0.8414 0.1206 0.0000 -21995.8698 3678.0110 0.0000 0.0000 281.2774 -18035.3827 30.7707 -18316.6601 -18034.5754 29.9897 -1004.8350 -966.8800 44871.9739 3.5351 3.7051
ENERGY: 20000 0.1899 0.6965 0.0290 0.0000 -22194.0618 3862.4941 0.0000 0.0000 273.6863 -18056.9660 29.9403 -18330.6523 -18055.8891 30.3166 -8.4696 52.6020 44490.1265 1.5235 1.2820
ENERGY: 25000 0.0430 1.0563 0.0307 0.0000 -22227.2137 3887.6452 0.0000 0.0000 273.5208 -18064.9176 29.9222 -18338.4385 -18064.5393 30.0016 192.0303 227.6090 44294.8262 6.7513 6.6695
TCL: Running 25000 steps at 60 kelvin.
TCL: Setting parameter langevinTemp to 60
TCL: Running for 25000 steps
ETITLE: TS BOND ANGLE DIHED IMPRP ELECT VDW BOUNDARY MISC KINETIC TOTAL TEMP POTENTIAL TOTAL3 TEMPAVG PRESSURE GPRESSURE VOLUME PRESSAVG GPRESSAVG
ENERGY: 25000 0.0430 1.0563 0.0307 0.0000 -22227.2137 3887.6452 0.0000 0.0000 273.3871 -18065.0513 29.9075 -18338.4385 -18064.3934 29.9075 171.3840 227.4330 44294.8262 171.3840 227.4330
ENERGY: 30000 0.0906 0.5525 0.0599 0.0000 -21900.3295 3817.1591 0.0000 0.0000 544.3426 -17538.1248 59.5491 -18082.4674 -17536.7682 57.3062 422.9568 462.0840 44468.9420 1.6707 1.6377
ENERGY: 35000 0.0820 1.2656 0.0906 0.0000 -21741.9998 3616.9476 0.0000 0.0000 557.7927 -17565.8214 61.0204 -18123.6141 -17564.1833 60.3330 -820.0207 -758.6606 44938.1153 -1.4569 -1.6139
ENERGY: 40000 0.0156 0.8885 0.1543 0.0000 -21965.9964 3827.4578 0.0000 0.0000 568.3521 -17569.1280 62.1756 -18137.4802 -17567.4269 59.9052 255.8233 324.4049 44691.9610 3.0880 2.9213
ENERGY: 45000 0.2526 0.8751 0.0132 0.0000 -22014.6373 3877.9040 0.0000 0.0000 554.5625 -17581.0299 60.6671 -18135.5924 -17579.2550 59.9497 574.2673 608.1065 44630.5138 7.3230 7.0205
ENERGY: 50000 0.2392 0.9824 0.1659 0.0000 -22138.7828 3976.5580 0.0000 0.0000 557.7192 -17603.1181 61.0124 -18160.8373 -17602.2213 60.2184 1094.6806 1143.3588 44348.7976 7.1164 7.2990
TCL: Running 25000 steps at 90 kelvin.
TCL: Setting parameter langevinTemp to 90
TCL: Running for 25000 steps
ETITLE: TS BOND ANGLE DIHED IMPRP ELECT VDW BOUNDARY MISC KINETIC TOTAL TEMP POTENTIAL TOTAL3 TEMPAVG PRESSURE GPRESSURE VOLUME PRESSAVG GPRESSAVG
ENERGY: 50000 0.2392 0.9824 0.1659 0.0000 -22138.7828 3976.5580 0.0000 0.0000 557.4431 -17603.3942 60.9822 -18160.8373 -17602.5018 60.9822 1090.0050 1143.3515 44348.7976 1090.0050 1143.3515
ENERGY: 55000 0.2526 1.6710 0.4154 0.0000 -21406.8521 3524.7856 0.0000 0.0000 819.7121 -17060.0155 89.6735 -17879.7275 -17057.1412 86.2637 -772.8211 -721.9147 45302.3271 1.7402 1.8924
ENERGY: 60000 0.0875 1.9140 0.1572 0.0000 -21694.8479 3779.8863 0.0000 0.0000 813.2696 -17099.5333 88.9687 -17912.8029 -17098.1858 89.8529 553.5486 586.4082 44863.2636 0.0584 0.0587
ENERGY: 65000 0.0376 1.4121 0.0607 0.0000 -21592.3032 3653.9906 0.0000 0.0000 816.5836 -17120.2187 89.3312 -17936.8023 -17118.0799 89.7041 -228.1470 -164.0697 45081.3019 0.1121 0.0419
ENERGY: 70000 0.2664 1.7229 0.0315 0.0000 -21562.0832 3591.9071 0.0000 0.0000 826.2753 -17141.8800 90.3914 -17968.1554 -17140.2920 90.4936 -590.8718 -523.5917 45011.3603 7.6800 7.6446
ENERGY: 75000 0.3398 2.2138 0.0556 0.0000 -21544.8454 3586.3818 0.0000 0.0000 835.7855 -17120.0689 91.4318 -17955.8544 -17118.3161 90.5034 -527.1617 -445.1244 44848.1087 -0.8670 -0.8653
TCL: Running 25000 steps at 120 kelvin.
TCL: Setting parameter langevinTemp to 120
TCL: Running for 25000 steps
ETITLE: TS BOND ANGLE DIHED IMPRP ELECT VDW BOUNDARY MISC KINETIC TOTAL TEMP POTENTIAL TOTAL3 TEMPAVG PRESSURE GPRESSURE VOLUME PRESSAVG GPRESSAVG
ENERGY: 75000 0.3398 2.2138 0.0556 0.0000 -21544.8454 3586.3818 0.0000 0.0000 835.3700 -17120.4844 91.3864 -17955.8544 -17118.6570 91.3864 -499.7391 -445.9426 44848.1087 -499.7391 -445.9426
ENERGY: 80000 0.4458 2.4979 0.1135 0.0000 -21186.9378 3543.4695 0.0000 0.0000 1123.3701 -16517.0411 122.8925 -17640.4112 -16514.1493 117.1572 9.7110 50.2349 45131.6468 3.6223 4.1861
ENERGY: 85000 1.2245 2.7508 0.5294 0.0000 -21186.1857 3498.6711 0.0000 0.0000 1111.7421 -16571.2678 121.6204 -17683.0099 -16568.0690 121.6919 -271.3088 -248.5353 44965.7613 12.3947 11.9561
ENERGY: 90000 0.1906 1.9839 0.2293 0.0000 -21115.7542 3406.4408 0.0000 0.0000 1112.7062 -16594.2032 121.7259 -17706.9095 -16592.3620 119.9885 -881.2235 -825.3579 45051.2284 0.6525 0.5597
ENERGY: 95000 0.2918 1.8574 0.0749 0.0000 -21200.5117 3434.2385 0.0000 0.0000 1122.5127 -16641.5364 122.7987 -17764.0491 -16639.6857 120.1297 -765.0617 -726.8425 44832.5731 7.1906 7.5829
ENERGY: 100000 0.2159 2.0766 0.2689 0.0000 -21267.1072 3485.2977 0.0000 0.0000 1085.6655 -16693.5827 118.7678 -17779.2482 -16690.8138 120.3712 -461.3893 -408.6677 44632.3243 1.5425 1.5920
TCL: Running 25000 steps at 150 kelvin.
TCL: Setting parameter langevinTemp to 150
TCL: Running for 25000 steps
ETITLE: TS BOND ANGLE DIHED IMPRP ELECT VDW BOUNDARY MISC KINETIC TOTAL TEMP POTENTIAL TOTAL3 TEMPAVG PRESSURE GPRESSURE VOLUME PRESSAVG GPRESSAVG
ENERGY: 100000 0.2159 2.0766 0.2689 0.0000 -21267.1072 3485.2977 0.0000 0.0000 1085.1298 -16694.1184 118.7092 -17779.2482 -16691.9241 118.7092 -466.4837 -409.0316 44632.3243 -466.4837 -409.0316
ENERGY: 105000 0.1421 1.2901 0.1228 0.0000 -20736.4075 3344.7444 0.0000 0.0000 1374.8093 -16015.2987 150.3990 -17390.1080 -16011.6373 148.2266 -130.8784 -100.5125 44616.7660 1.6507 1.7532
ENERGY: 110000 0.6248 3.9470 1.2847 0.0000 -20906.4233 3449.4424 0.0000 0.0000 1356.1939 -16094.9305 148.3626 -17451.1244 -16091.5836 150.3521 94.4891 171.0488 44658.4980 1.8435 2.5908
ENERGY: 115000 0.4336 1.8366 0.4629 0.0000 -20846.2978 3415.3536 0.0000 0.0000 1351.2534 -16076.9576 147.8221 -17428.2110 -16074.5572 150.2071 0.0898 32.6354 44722.2096 3.5118 3.7127
ENERGY: 120000 1.2453 1.8600 0.7637 0.0000 -21029.2471 3513.8828 0.0000 0.0000 1402.3675 -16109.1278 153.4138 -17511.4952 -16105.5432 150.6148 304.5399 405.2924 44567.0193 0.4134 0.1629
ENERGY: 125000 0.0430 3.4601 0.4645 0.0000 -20759.6500 3270.5590 0.0000 0.0000 1329.7710 -16155.3525 145.4720 -17485.1235 -16152.7391 150.2718 -958.2613 -914.2494 44846.8407 4.3316 4.0599
TCL: Running 50000 steps at 180 kelvin.
TCL: Setting parameter langevinTemp to 180
TCL: Running for 50000 steps
ETITLE: TS BOND ANGLE DIHED IMPRP ELECT VDW BOUNDARY MISC KINETIC TOTAL TEMP POTENTIAL TOTAL3 TEMPAVG PRESSURE GPRESSURE VOLUME PRESSAVG GPRESSAVG
ENERGY: 125000 0.0430 3.4601 0.4645 0.0000 -20759.6500 3270.5590 0.0000 0.0000 1329.1079 -16156.0156 145.3995 -17485.1235 -16153.3533 145.3995 -983.7685 -915.3249 44846.8407 -983.7685 -915.3249
ENERGY: 135000 0.3259 4.1303 0.8783 0.0000 -20398.2713 3321.8437 0.0000 0.0000 1632.1535 -15438.9397 178.5515 -17071.0932 -15437.0729 181.9035 274.7212 309.3776 44972.5796 -0.5227 -0.8150
ENERGY: 145000 0.2368 3.3601 0.3441 0.0000 -20388.0404 3240.1067 0.0000 0.0000 1661.4793 -15482.5134 181.7597 -17143.9927 -15478.8383 179.8723 -322.4431 -245.9754 44926.9311 6.8813 6.4693
ENERGY: 155000 0.3115 4.1650 0.2499 0.0000 -20490.4552 3374.7225 0.0000 0.0000 1687.1542 -15423.8522 184.5684 -17111.0064 -15418.1947 179.7981 510.8788 556.5077 44776.7051 1.2189 0.9476
ENERGY: 165000 0.6357 1.7666 0.0471 0.0000 -20401.9039 3228.3331 0.0000 0.0000 1639.9779 -15531.1435 179.4075 -17171.1215 -15526.9181 179.8785 -564.8766 -510.0213 45081.0964 6.6796 6.7416
ENERGY: 175000 1.4470 3.5610 0.3328 0.0000 -20507.8037 3361.6362 0.0000 0.0000 1645.4263 -15495.4003 180.0035 -17140.8266 -15491.2513 180.3205 300.9336 306.8646 44860.1266 4.5287 4.2025
TCL: Running 50000 steps at 210 kelvin.
TCL: Setting parameter langevinTemp to 210
TCL: Running for 50000 steps
ETITLE: TS BOND ANGLE DIHED IMPRP ELECT VDW BOUNDARY MISC KINETIC TOTAL TEMP POTENTIAL TOTAL3 TEMPAVG PRESSURE GPRESSURE VOLUME PRESSAVG GPRESSAVG
ENERGY: 175000 1.4470 3.5610 0.3328 0.0000 -20507.8037 3361.6362 0.0000 0.0000 1644.6010 -15496.2256 179.9132 -17140.8266 -15493.3901 179.9132 248.8103 306.4606 44860.1266 248.8103 306.4606
ENERGY: 185000 0.2163 4.1899 0.3853 0.0000 -19461.0827 3076.4307 0.0000 0.0000 1922.4795 -14457.3810 210.3121 -16379.8605 -14454.3415 211.2313 604.7342 686.0607 45074.6432 4.8428 4.8330
ENERGY: 195000 0.9219 5.1073 0.5638 0.0000 -19351.5664 2926.9349 0.0000 0.0000 1886.9734 -14531.0652 206.4279 -16418.0387 -14525.9365 209.0336 -133.6116 -94.6831 44989.1444 3.4020 3.0242
ENERGY: 205000 0.2205 2.9171 0.6379 0.0000 -19529.1490 3044.7353 0.0000 0.0000 1906.6998 -14573.9383 208.5859 -16480.6381 -14569.2303 209.4924 361.6613 405.3724 44474.0769 0.8236 1.3601
ENERGY: 215000 1.2659 3.2442 0.2219 0.0000 -19360.0802 2931.1035 0.0000 0.0000 1916.6627 -14507.5821 209.6758 -16424.2448 -14501.4753 210.5608 -65.0205 -34.1594 44559.1182 3.0408 3.1027
ENERGY: 225000 0.6209 2.5661 0.1886 0.0000 -19353.0096 2852.8943 0.0000 0.0000 1966.8720 -14529.8677 215.1685 -16496.7397 -14525.5228 211.0119 -934.6329 -893.2778 45631.1383 4.5069 4.4160
TCL: Running 50000 steps at 240 kelvin.
TCL: Setting parameter langevinTemp to 240
TCL: Running for 50000 steps
ETITLE: TS BOND ANGLE DIHED IMPRP ELECT VDW BOUNDARY MISC KINETIC TOTAL TEMP POTENTIAL TOTAL3 TEMPAVG PRESSURE GPRESSURE VOLUME PRESSAVG GPRESSAVG
ENERGY: 225000 0.6209 2.5661 0.1886 0.0000 -19353.0096 2852.8943 0.0000 0.0000 1965.9376 -14530.8021 215.0663 -16496.7397 -14527.1878 215.0663 -965.6487 -894.3241 45631.1383 -965.6487 -894.3241
ENERGY: 235000 0.1366 4.7055 1.0289 0.0000 -18347.3566 2667.4635 0.0000 0.0000 2149.7920 -13524.2301 235.1793 -15674.0221 -13518.3527 240.2727 -103.0014 -35.6560 45801.2000 -2.8239 -2.4139
ENERGY: 245000 0.0210 4.0322 0.6411 0.0000 -18501.1769 2762.0897 0.0000 0.0000 2174.8850 -13559.5081 237.9243 -15734.3931 -13554.7267 239.7294 391.2459 452.4292 45283.5588 1.8411 1.9588
ENERGY: 255000 0.1730 5.1482 0.5985 0.0000 -18405.0471 2661.2761 0.0000 0.0000 2194.9508 -13542.9005 240.1194 -15737.8513 -13539.9259 238.9454 32.5578 79.9306 45107.0047 10.4770 9.8861
ENERGY: 265000 1.2375 4.1063 0.2741 0.0000 -18339.7532 2668.5035 0.0000 0.0000 2210.3073 -13455.3244 241.7994 -15665.6317 -13451.4508 239.7897 123.7824 171.0044 45162.7113 0.9130 1.2073
ENERGY: 275000 0.1510 5.8007 0.4976 0.0000 -18426.9064 2676.8247 0.0000 0.0000 2193.0635 -13550.5689 239.9130 -15743.6324 -13544.6327 239.4051 -435.8178 -340.9762 45953.5268 -1.1105 -1.0184
TCL: Running 50000 steps at 270 kelvin.
TCL: Setting parameter langevinTemp to 270
TCL: Running for 50000 steps
ETITLE: TS BOND ANGLE DIHED IMPRP ELECT VDW BOUNDARY MISC KINETIC TOTAL TEMP POTENTIAL TOTAL3 TEMPAVG PRESSURE GPRESSURE VOLUME PRESSAVG GPRESSAVG
ENERGY: 275000 0.1510 5.8007 0.4976 0.0000 -18426.9064 2676.8247 0.0000 0.0000 2191.9955 -13551.6369 239.7962 -15743.6324 -13547.5514 239.7962 -426.0242 -340.6079 45953.5268 -426.0242 -340.6079
ENERGY: 285000 0.4036 5.3219 0.2780 0.0000 -17460.4599 2392.3371 0.0000 0.0000 2448.1803 -12613.9390 267.8218 -15062.1193 -12608.8361 270.9458 -290.2534 -195.0587 46231.0018 -4.7374 -4.1372
ENERGY: 295000 0.2699 6.5488 0.1280 0.0000 -17500.6147 2485.9369 0.0000 0.0000 2464.9871 -12542.7440 269.6604 -15007.7311 -12538.6562 270.3905 311.0194 347.7667 46088.6249 6.1497 5.8261
ENERGY: 305000 0.5525 4.9588 0.2050 0.0000 -17622.9340 2447.5357 0.0000 0.0000 2467.9914 -12701.6905 269.9891 -15169.6819 -12697.9455 268.8898 -184.8803 -83.2981 46390.0850 3.0950 3.6015
ENERGY: 315000 0.5067 2.9796 0.4627 0.0000 -17656.3402 2593.6625 0.0000 0.0000 2447.4435 -12611.2852 267.7412 -15058.7286 -12605.8579 270.3081 990.2724 1041.5587 45513.2749 5.0233 4.7589
ENERGY: 325000 0.2118 6.2623 0.2578 0.0000 -17505.9440 2460.0188 0.0000 0.0000 2430.9242 -12608.2690 265.9341 -15039.1932 -12602.3053 271.8138 143.0638 245.7145 45996.3626 5.8800 4.7415
TCL: Running 1000000 steps at 300 kelvin.
TCL: Setting parameter langevinTemp to 300
TCL: Running for 1000000 steps
ETITLE: TS BOND ANGLE DIHED IMPRP ELECT VDW BOUNDARY MISC KINETIC TOTAL TEMP POTENTIAL TOTAL3 TEMPAVG PRESSURE GPRESSURE VOLUME PRESSAVG GPRESSAVG
ENERGY: 325000 0.2118 6.2623 0.2578 0.0000 -17505.9440 2460.0188 0.0000 0.0000 2429.7240 -12609.4692 265.8028 -15039.1932 -12606.1598 265.8028 157.6230 247.5571 45996.3626 157.6230 247.5571
ENERGY: 525000 1.3711 4.0446 1.1133 0.0000 -16587.2744 2137.0761 0.0000 0.0000 2707.1722 -11736.4971 296.1546 -14443.6693 -11732.1136 300.6505 -636.3126 -540.7637 47626.4513 6.1997 6.7199
ENERGY: 725000 1.6861 5.7819 0.9128 0.0000 -16814.1031 2289.1154 0.0000 0.0000 2738.9905 -11777.6164 299.6354 -14516.6069 -11773.0636 300.7545 76.7553 170.2733 47124.9420 -0.1457 -0.5766
ENERGY: 925000 1.6633 5.2286 0.2147 0.0000 -16712.1953 2261.3808 0.0000 0.0000 2746.8135 -11696.8943 300.4912 -14443.7079 -11691.6930 299.4155 -123.5948 -22.9826 48053.7613 1.6700 1.5661
ENERGY: 1125000 0.8140 2.0482 0.1118 0.0000 -16747.3174 2275.3381 0.0000 0.0000 2684.7597 -11784.2456 293.7027 -14469.0054 -11779.4389 301.1599 68.1745 145.0956 47597.9793 2.0233 2.1395
ENERGY: 1325000 0.3466 4.3342 0.2970 0.0000 -16670.5491 2146.5158 0.0000 0.0000 2742.2590 -11776.7965 299.9929 -14519.0555 -11771.9369 299.1897 -865.8487 -737.0497 47555.2956 6.6297 6.3074
TCL: Exiting due to exit command.
