Info: SIMULATION PARAMETERS:
Info: TIMESTEP               2
Info: NUMBER OF STEPS        0
Info: STEPS PER CYCLE        10
Info: PERIODIC CELL BASIS 1  37.435 0 0
Info: PERIODIC CELL BASIS 2  0 35.847 0
Info: PERIODIC CELL BASIS 3  0 0 32.993
Info: PERIODIC CELL CENTER   0 0 0
Info: WRAPPING WATERS AROUND PERIODIC BOUNDARIES ON OUTPUT.
Info: WRAPPING ALL CLUSTERS AROUND PERIODIC BOUNDARIES ON OUTPUT.
Info: FIRST LDB TIMESTEP     50
Info: LAST LDB TIMESTEP     -1
Info: HOM BACKGROUND SCALING 1
Info: PME BACKGROUND SCALING 1
Info: MIN ATOMS PER PATCH    40
Info: EMPTY PATCH LOAD       40 ATOMS
Info: INITIAL TEMPERATURE    300
Info: CENTER OF MASS MOVING INITIALLY? NO
Info: DIELECTRIC             1
Info: EXCLUDE                SCALED ONE-FOUR
Info: 1-4 ELECTROSTATICS SCALED BY 0.833333
Info: MODIFIED 1-4 VDW PARAMETERS WILL BE USED
Info: DCD FILENAME           mobley_5857_equil.dcd
Info: DCD FREQUENCY          100000
Info: DCD FIRST STEP         100000
Info: DCD FILE WILL CONTAIN UNIT CELL DATA
Info: XST FILENAME           mobley_5857_equil.xst
Info: XST FREQUENCY          100000
Info: NO VELOCITY DCD OUTPUT
Info: NO FORCE DCD OUTPUT
Info: OUTPUT FILENAME        mobley_5857_equil
Info: BINARY OUTPUT FILES WILL BE USED
Info: RESTART FILENAME       mobley_5857_equil.restart
Info: RESTART FREQUENCY      100000
Info: BINARY RESTART FILES WILL BE USED
Info: CUTOFF                 9
Info: PAIRLIST DISTANCE      11
Info: PAIRLIST SHRINK RATE   0.01
Info: PAIRLIST GROW RATE     0.01
Info: PAIRLIST TRIGGER       0.3
Info: PAIRLISTS PER CYCLE    2
Info: PAIRLISTS ENABLED
Info: MARGIN                 8
Info: HYDROGEN GROUP CUTOFF  2.5
Info: PATCH DIMENSION        21.5
Info: ENERGY OUTPUT STEPS    100000
Info: ENERGY EVALUATION STEPS    100000
Info: OUTPUT ENERGY PRECISION 4
Info: CROSSTERM ENERGY INCLUDED IN DIHEDRAL
Info: TIMING OUTPUT STEPS    1000000
Info: PRESSURE OUTPUT STEPS  100000
Info: LANGEVIN DYNAMICS ACTIVE
Info: LANGEVIN TEMPERATURE   30
Info: LANGEVIN USING BBK INTEGRATOR
Info: LANGEVIN DAMPING COEFFICIENT IS 1 INVERSE PS
Info: LANGEVIN DYNAMICS APPLIED TO HYDROGENS
Info: LANGEVIN PISTON PRESSURE CONTROL ACTIVE
Info:        TARGET PRESSURE IS 1.01325 BAR
Info:     OSCILLATION PERIOD IS 50 FS
Info:             DECAY TIME IS 25 FS
Info:     PISTON TEMPERATURE IS 300 K
Info:       PRESSURE CONTROL IS GROUP-BASED
Info:    INITIAL STRAIN RATE IS 0 0 0
Info:       CELL FLUCTUATION IS ISOTROPIC
Info: PARTICLE MESH EWALD (PME) ACTIVE
Info: PME TOLERANCE               1e-06
Info: PME EWALD COEFFICIENT       0.348832
Info: PME INTERPOLATION ORDER     4
Info: PME GRID DIMENSIONS         40 36 36
Info: PME MAXIMUM GRID SPACING    1
Info: FULL ELECTROSTATIC EVALUATION FREQUENCY      2
Info: USING VERLET I (r-RESPA) MTS SCHEME.
Info: C1 SPLITTING OF LONG RANGE ELECTROSTATICS
Info: PLACING ATOMS IN PATCHES BY HYDROGEN GROUPS
Info: RIGID BONDS TO HYDROGEN : ALL
Info:         ERROR TOLERANCE : 1e-08
Info:          MAX ITERATIONS : 100
Info: RIGID WATER USING SETTLE ALGORITHM
Info: RANDOM NUMBER SEED     1742266570
Info: USE HYDROGEN BONDS?    NO
Info: Using AMBER format force field!
Info: AMBER PARM FILE        mobley_5857.prmtop
Info: COORDINATE PDB         mobley_5857.pdb
Info: Exclusions will be read from PARM file!
Info: SCNB (VDW SCALING)     2
Info: USING ARITHMETIC MEAN TO COMBINE L-J SIGMA PARAMETERS
Info: BINARY COORDINATES     mobley_5857_min.coor
Info: SUMMARY OF PARAMETERS:
Info: 6 BONDS
Info: 6 ANGLES
Info:   6 HARMONIC
Info:   0 COSINE-BASED
Info: 3 DIHEDRAL
Info: 0 IMPROPER
Info: 0 CROSSTERM
Info: 0 VDW
Info: 21 VDW_PAIRS
Info: 0 NBTHOLE_PAIRS
Info: STRUCTURE SUMMARY:
Info: 2993 ATOMS
Info: 2994 BONDS
Info: 28 ANGLES
Info: 46 DIHEDRALS
Info: 0 IMPROPERS
Info: 0 CROSSTERMS
Info: 3056 EXCLUSIONS
Info: 2983 RIGID BONDS
Info: 5996 DEGREES OF FREEDOM
Info: 1002 HYDROGEN GROUPS
Info: 3 ATOMS IN LARGEST HYDROGEN GROUP
Info: 1002 MIGRATION GROUPS
Info: 3 ATOMS IN LARGEST MIGRATION GROUP
Info: TOTAL MASS = 18001 amu
Info: TOTAL CHARGE = 0.000100004 e
Info: MASS DENSITY = 0.675156 g/cm^3
Info: ATOM DENSITY = 0.0676012 atoms/A^3
Info: ADDED 0 IMPLICIT EXCLUSIONS
Info: NONBONDED TABLE R-SQUARED SPACING: 0.0625
Info: NONBONDED TABLE SIZE: 705 POINTS
Info: REMOVING COM VELOCITY 0.118102 -0.0571445 -0.0224776
TCL: Running for 100000 steps
ETITLE: TS BOND ANGLE DIHED IMPRP ELECT VDW BOUNDARY MISC KINETIC TOTAL TEMP POTENTIAL TOTAL3 TEMPAVG PRESSURE GPRESSURE VOLUME PRESSAVG GPRESSAVG
ENERGY: 0 0.2786 0.5649 0.2144 0.0000 -13832.6174 2428.1529 0.0000 0.0000 1893.6849 -9509.7217 317.8604 -11403.4066 -9509.3381 317.8604 414.9361 450.5351 44274.3772 414.9361 450.5351
ENERGY: 100000 0.9958 0.8814 0.3994 0.0000 -14274.1974 2374.1974 0.0000 0.0000 179.5833 -11718.1401 30.1436 -11897.7234 -11717.3207 30.9807 -1278.0762 -1174.8461 29820.1883 4.0560 4.0715
TCL: Running 100000 steps at 60 kelvin.
TCL: Setting parameter langevinTemp to 60
TCL: Running for 100000 steps
ETITLE: TS BOND ANGLE DIHED IMPRP ELECT VDW BOUNDARY MISC KINETIC TOTAL TEMP POTENTIAL TOTAL3 TEMPAVG PRESSURE GPRESSURE VOLUME PRESSAVG GPRESSAVG
ENERGY: 100000 0.9958 0.8814 0.3994 0.0000 -14274.1974 2374.1974 0.0000 0.0000 179.4945 -11718.2289 30.1287 -11897.7234 -11717.8417 30.1287 -1243.8707 -1174.5126 29820.1883 -1243.8707 -1174.5126
ENERGY: 200000 1.3804 1.6271 1.5271 0.0000 -14101.8545 2257.1542 0.0000 0.0000 365.4691 -11474.6966 61.3450 -11840.1657 -11473.9057 59.9426 -1961.9201 -1876.2498 29749.3352 3.9627 3.9304
TCL: Running 100000 steps at 90 kelvin.
TCL: Setting parameter langevinTemp to 90
TCL: Running for 100000 steps
ETITLE: TS BOND ANGLE DIHED IMPRP ELECT VDW BOUNDARY MISC KINETIC TOTAL TEMP POTENTIAL TOTAL3 TEMPAVG PRESSURE GPRESSURE VOLUME PRESSAVG GPRESSAVG
ENERGY: 200000 1.3804 1.6271 1.5271 0.0000 -14101.8545 2257.1542 0.0000 0.0000 365.2897 -11474.8760 61.3149 -11840.1657 -11473.9940 61.3149 -1935.1610 -1876.6155 29749.3352 -1935.1610 -1876.6155
ENERGY: 300000 0.8502 2.1831 0.9635 0.0000 -14249.6302 2482.5555 0.0000 0.0000 517.8950 -11245.1829 86.9302 -11763.0779 -11244.1730 89.8612 301.6148 350.8503 29327.8079 3.7189 3.7258
TCL: Running 100000 steps at 120 kelvin.
TCL: Setting parameter langevinTemp to 120
TCL: Running for 100000 steps
ETITLE: TS BOND ANGLE DIHED IMPRP ELECT VDW BOUNDARY MISC KINETIC TOTAL TEMP POTENTIAL TOTAL3 TEMPAVG PRESSURE GPRESSURE VOLUME PRESSAVG GPRESSAVG
ENERGY: 300000 0.8502 2.1831 0.9635 0.0000 -14249.6302 2482.5555 0.0000 0.0000 517.6387 -11245.4393 86.8871 -11763.0779 -11244.5016 86.8871 309.7572 350.2980 29327.8079 309.7572 350.2980
ENERGY: 400000 3.1750 2.7466 1.4396 0.0000 -14025.7234 2426.9273 0.0000 0.0000 717.3070 -10874.1280 120.4020 -11591.4350 -10873.1988 119.9825 352.1447 425.0761 29321.1348 2.9827 2.8828
TCL: Running 100000 steps at 150 kelvin.
TCL: Setting parameter langevinTemp to 150
TCL: Running for 100000 steps
ETITLE: TS BOND ANGLE DIHED IMPRP ELECT VDW BOUNDARY MISC KINETIC TOTAL TEMP POTENTIAL TOTAL3 TEMPAVG PRESSURE GPRESSURE VOLUME PRESSAVG GPRESSAVG
ENERGY: 400000 3.1750 2.7466 1.4396 0.0000 -14025.7234 2426.9273 0.0000 0.0000 716.9459 -10874.4891 120.3414 -11591.4350 -10873.1254 120.3414 381.7103 423.8708 29321.1348 381.7103 423.8708
ENERGY: 500000 1.0726 2.4527 2.0943 0.0000 -13802.4902 2329.0827 0.0000 0.0000 886.8198 -10580.9680 148.8552 -11467.7878 -10579.1775 149.8108 259.4256 269.8254 29318.6029 3.8469 3.9494
TCL: Running 100000 steps at 180 kelvin.
TCL: Setting parameter langevinTemp to 180
TCL: Running for 100000 steps
ETITLE: TS BOND ANGLE DIHED IMPRP ELECT VDW BOUNDARY MISC KINETIC TOTAL TEMP POTENTIAL TOTAL3 TEMPAVG PRESSURE GPRESSURE VOLUME PRESSAVG GPRESSAVG
ENERGY: 500000 1.0726 2.4527 2.0943 0.0000 -13802.4902 2329.0827 0.0000 0.0000 886.3711 -10581.4166 148.7799 -11467.7878 -10579.5548 148.7799 212.3904 268.8380 29318.6029 212.3904 268.8380
ENERGY: 600000 2.2821 5.5480 5.3612 0.0000 -13228.9434 2084.2126 0.0000 0.0000 1052.3013 -10079.2382 176.6318 -11131.5396 -10077.2803 180.0379 -402.1824 -347.0062 29195.8357 3.0772 2.9887
TCL: Running 100000 steps at 210 kelvin.
TCL: Setting parameter langevinTemp to 210
TCL: Running for 100000 steps
ETITLE: TS BOND ANGLE DIHED IMPRP ELECT VDW BOUNDARY MISC KINETIC TOTAL TEMP POTENTIAL TOTAL3 TEMPAVG PRESSURE GPRESSURE VOLUME PRESSAVG GPRESSAVG
ENERGY: 600000 2.2821 5.5480 5.3612 0.0000 -13228.9434 2084.2126 0.0000 0.0000 1051.7735 -10079.7661 176.5432 -11131.5396 -10078.1617 176.5432 -396.4877 -347.3837 29195.8357 -396.4877 -347.3837
ENERGY: 700000 5.4766 4.0817 2.6276 0.0000 -12648.3663 1951.5328 0.0000 0.0000 1234.7769 -9449.8707 207.2608 -10684.6476 -9447.0902 210.0508 129.9113 159.7371 29097.1018 5.2291 5.1681
TCL: Running 100000 steps at 240 kelvin.
TCL: Setting parameter langevinTemp to 240
TCL: Running for 100000 steps
ETITLE: TS BOND ANGLE DIHED IMPRP ELECT VDW BOUNDARY MISC KINETIC TOTAL TEMP POTENTIAL TOTAL3 TEMPAVG PRESSURE GPRESSURE VOLUME PRESSAVG GPRESSAVG
ENERGY: 700000 5.4766 4.0817 2.6276 0.0000 -12648.3663 1951.5328 0.0000 0.0000 1234.1249 -9450.5227 207.1514 -10684.6476 -9448.2501 207.1514 74.9129 159.8949 29097.1018 74.9129 159.8949
ENERGY: 800000 2.4990 4.5906 3.1697 0.0000 -12025.5132 1770.8036 0.0000 0.0000 1437.4269 -8807.0233 241.2762 -10244.4502 -8805.7483 240.2734 151.4181 268.7007 29277.6519 3.0612 2.9751
TCL: Running 100000 steps at 270 kelvin.
TCL: Setting parameter langevinTemp to 270
TCL: Running for 100000 steps
ETITLE: TS BOND ANGLE DIHED IMPRP ELECT VDW BOUNDARY MISC KINETIC TOTAL TEMP POTENTIAL TOTAL3 TEMPAVG PRESSURE GPRESSURE VOLUME PRESSAVG GPRESSAVG
ENERGY: 800000 2.4990 4.5906 3.1697 0.0000 -12025.5132 1770.8036 0.0000 0.0000 1436.7143 -8807.7359 241.1566 -10244.4502 -8804.8494 241.1566 191.5624 267.7756 29277.6519 191.5624 267.7756
ENERGY: 900000 1.4832 5.2206 3.4189 0.0000 -11454.2489 1591.6778 0.0000 0.0000 1671.5727 -8180.8757 280.5783 -9852.4483 -8180.6380 269.3260 -201.9574 -84.9545 30003.7507 3.4035 3.2342
TCL: Running 1000000 steps at 300 kelvin.
TCL: Setting parameter langevinTemp to 300
TCL: Running for 1000000 steps
ETITLE: TS BOND ANGLE DIHED IMPRP ELECT VDW BOUNDARY MISC KINETIC TOTAL TEMP POTENTIAL TOTAL3 TEMPAVG PRESSURE GPRESSURE VOLUME PRESSAVG GPRESSAVG
ENERGY: 900000 1.4832 5.2206 3.4189 0.0000 -11454.2489 1591.6778 0.0000 0.0000 1670.7725 -8181.6758 280.4440 -9852.4483 -8179.4703 280.4440 -184.1326 -86.6877 30003.7507 -184.1326 -86.6877
ENERGY: 1100000 5.5657 5.8443 3.0719 0.0000 -10754.9646 1411.4792 0.0000 0.0000 1775.5880 -7553.4154 298.0375 -9329.0034 -7551.8984 300.2720 -338.7349 -218.4561 30758.9046 3.4034 3.3106
ENERGY: 1300000 3.6162 5.7103 1.7397 0.0000 -10692.7726 1351.8253 0.0000 0.0000 1850.3028 -7479.5784 310.5786 -9329.8812 -7474.3085 300.0813 -724.7096 -620.5574 31060.6720 3.0679 3.1061
ENERGY: 1500000 3.9938 4.9850 3.6893 0.0000 -10851.3518 1477.0445 0.0000 0.0000 1818.7450 -7542.8942 305.2816 -9361.6393 -7539.6868 300.1024 -55.4442 55.6665 31072.7768 3.4643 3.2889
ENERGY: 1700000 3.6810 6.2456 5.1088 0.0000 -10775.4165 1409.2252 0.0000 0.0000 1768.2898 -7582.8661 296.8125 -9351.1559 -7579.8414 299.5133 -145.5692 -74.8315 30760.5134 4.5030 4.5186
ENERGY: 1900000 3.4491 2.6734 4.7068 0.0000 -10942.1392 1498.9104 0.0000 0.0000 1706.9320 -7725.4673 286.5134 -9432.3994 -7725.0753 300.2109 291.7732 367.1760 30484.5421 4.0078 3.9025
TCL: Exiting due to exit command.
