Info: SIMULATION PARAMETERS:
Info: TIMESTEP               2
Info: NUMBER OF STEPS        0
Info: STEPS PER CYCLE        10
Info: PERIODIC CELL BASIS 1  36.592 0 0
Info: PERIODIC CELL BASIS 2  0 34.26 0
Info: PERIODIC CELL BASIS 3  0 0 34.954
Info: PERIODIC CELL CENTER   0 0 0
Info: WRAPPING WATERS AROUND PERIODIC BOUNDARIES ON OUTPUT.
Info: WRAPPING ALL CLUSTERS AROUND PERIODIC BOUNDARIES ON OUTPUT.
Info: FIRST LDB TIMESTEP     50
Info: LAST LDB TIMESTEP     -1
Info: HOM BACKGROUND SCALING 1
Info: PME BACKGROUND SCALING 1
Info: MIN ATOMS PER PATCH    40
Info: EMPTY PATCH LOAD       40 ATOMS
Info: INITIAL TEMPERATURE    300
Info: CENTER OF MASS MOVING INITIALLY? NO
Info: DIELECTRIC             1
Info: EXCLUDE                SCALED ONE-FOUR
Info: 1-4 ELECTROSTATICS SCALED BY 0.833333
Info: MODIFIED 1-4 VDW PARAMETERS WILL BE USED
Info: DCD FILENAME           mobley_994483_equil.dcd
Info: DCD FREQUENCY          100000
Info: DCD FIRST STEP         100000
Info: DCD FILE WILL CONTAIN UNIT CELL DATA
Info: XST FILENAME           mobley_994483_equil.xst
Info: XST FREQUENCY          100000
Info: NO VELOCITY DCD OUTPUT
Info: NO FORCE DCD OUTPUT
Info: OUTPUT FILENAME        mobley_994483_equil
Info: BINARY OUTPUT FILES WILL BE USED
Info: RESTART FILENAME       mobley_994483_equil.restart
Info: RESTART FREQUENCY      100000
Info: BINARY RESTART FILES WILL BE USED
Info: CUTOFF                 9
Info: PAIRLIST DISTANCE      11
Info: PAIRLIST SHRINK RATE   0.01
Info: PAIRLIST GROW RATE     0.01
Info: PAIRLIST TRIGGER       0.3
Info: PAIRLISTS PER CYCLE    2
Info: PAIRLISTS ENABLED
Info: MARGIN                 8
Info: HYDROGEN GROUP CUTOFF  2.5
Info: PATCH DIMENSION        21.5
Info: ENERGY OUTPUT STEPS    100000
Info: ENERGY EVALUATION STEPS    100000
Info: OUTPUT ENERGY PRECISION 4
Info: CROSSTERM ENERGY INCLUDED IN DIHEDRAL
Info: TIMING OUTPUT STEPS    1000000
Info: PRESSURE OUTPUT STEPS  100000
Info: FIXED ATOMS ACTIVE
Info: LANGEVIN DYNAMICS ACTIVE
Info: LANGEVIN TEMPERATURE   30
Info: LANGEVIN USING BBK INTEGRATOR
Info: LANGEVIN DAMPING COEFFICIENT IS 1 INVERSE PS
Info: LANGEVIN DYNAMICS APPLIED TO HYDROGENS
Info: LANGEVIN PISTON PRESSURE CONTROL ACTIVE
Info:        TARGET PRESSURE IS 1.01325 BAR
Info:     OSCILLATION PERIOD IS 50 FS
Info:             DECAY TIME IS 25 FS
Info:     PISTON TEMPERATURE IS 300 K
Info:       PRESSURE CONTROL IS GROUP-BASED
Info:    INITIAL STRAIN RATE IS 0 0 0
Info:       CELL FLUCTUATION IS ISOTROPIC
Info: PARTICLE MESH EWALD (PME) ACTIVE
Info: PME TOLERANCE               1e-06
Info: PME EWALD COEFFICIENT       0.348832
Info: PME INTERPOLATION ORDER     4
Info: PME GRID DIMENSIONS         40 36 36
Info: PME MAXIMUM GRID SPACING    1
Info: FULL ELECTROSTATIC EVALUATION FREQUENCY      2
Info: USING VERLET I (r-RESPA) MTS SCHEME.
Info: C1 SPLITTING OF LONG RANGE ELECTROSTATICS
Info: PLACING ATOMS IN PATCHES BY HYDROGEN GROUPS
Info: RIGID BONDS TO HYDROGEN : ALL
Info:         ERROR TOLERANCE : 1e-08
Info:          MAX ITERATIONS : 100
Info: RIGID WATER USING SETTLE ALGORITHM
Info: RANDOM NUMBER SEED     1742362966
Info: USE HYDROGEN BONDS?    NO
Info: Using AMBER format force field!
Info: AMBER PARM FILE        mobley_994483.prmtop
Info: COORDINATE PDB         mobley_994483.pdb
Info: Exclusions will be read from PARM file!
Info: SCNB (VDW SCALING)     2
Info: USING ARITHMETIC MEAN TO COMBINE L-J SIGMA PARAMETERS
Info: BINARY COORDINATES     mobley_994483_min.coor
Info: SUMMARY OF PARAMETERS:
Info: 6 BONDS
Info: 6 ANGLES
Info:   6 HARMONIC
Info:   0 COSINE-BASED
Info: 2 DIHEDRAL
Info: 0 IMPROPER
Info: 0 CROSSTERM
Info: 0 VDW
Info: 21 VDW_PAIRS
Info: 0 NBTHOLE_PAIRS
Info: STRUCTURE SUMMARY:
Info: 2987 ATOMS
Info: 2986 BONDS
Info: 12 ANGLES
Info: 9 DIHEDRALS
Info: 0 IMPROPERS
Info: 0 CROSSTERMS
Info: 3007 EXCLUSIONS
Info: 8 FIXED ATOMS
Info: 2984 RIGID BONDS
Info: 5 RIGID BONDS BETWEEN FIXED ATOMS
Info: 5958 DEGREES OF FREEDOM
Info: 996 HYDROGEN GROUPS
Info: 4 ATOMS IN LARGEST HYDROGEN GROUP
Info: 996 MIGRATION GROUPS
Info: 4 ATOMS IN LARGEST MIGRATION GROUP
Info: 3 HYDROGEN GROUPS WITH ALL ATOMS FIXED
Info: TOTAL MASS = 17998.8 amu
Info: TOTAL CHARGE = 4.19095e-09 e
Info: MASS DENSITY = 0.682077 g/cm^3
Info: ATOM DENSITY = 0.0681655 atoms/A^3
Info: ADDED 0 IMPLICIT EXCLUSIONS
Info: NONBONDED TABLE R-SQUARED SPACING: 0.0625
Info: NONBONDED TABLE SIZE: 705 POINTS
Info: REMOVING COM VELOCITY 0.0289457 0.00604422 -0.0173435
TCL: Running for 100000 steps
ETITLE: TS BOND ANGLE DIHED IMPRP ELECT VDW BOUNDARY MISC KINETIC TOTAL TEMP POTENTIAL TOTAL3 TEMPAVG PRESSURE GPRESSURE VOLUME PRESSAVG GPRESSAVG
ENERGY: 0 0.0000 0.0000 0.0000 0.0000 -13709.2250 2358.3057 0.0000 0.0000 1759.7292 -9591.1901 297.2595 -11350.9193 -9590.8583 297.2595 100.6514 138.8299 43819.7997 100.6514 138.8299
ENERGY: 100000 0.0000 0.0000 0.0000 0.0000 -14268.1161 2355.0431 0.0000 0.0000 180.7681 -11732.3048 30.5360 -11913.0730 -11731.8523 30.9731 -1487.4796 -1426.9998 30076.7273 3.8443 3.8595
TCL: Running 100000 steps at 60 kelvin.
TCL: Setting parameter langevinTemp to 60
TCL: Running for 100000 steps
ETITLE: TS BOND ANGLE DIHED IMPRP ELECT VDW BOUNDARY MISC KINETIC TOTAL TEMP POTENTIAL TOTAL3 TEMPAVG PRESSURE GPRESSURE VOLUME PRESSAVG GPRESSAVG
ENERGY: 100000 0.0000 0.0000 0.0000 0.0000 -14268.1161 2355.0431 0.0000 0.0000 180.6817 -11732.3913 30.5214 -11913.0730 -11731.8376 30.5214 -1490.7667 -1427.1579 30076.7273 -1490.7667 -1427.1579
ENERGY: 200000 0.0000 0.0000 0.0000 0.0000 -14373.0804 2546.3553 0.0000 0.0000 361.6626 -11465.0626 61.0933 -11826.7252 -11463.9471 59.9240 534.5831 588.4049 29354.7516 3.7527 3.6860
TCL: Running 100000 steps at 90 kelvin.
TCL: Setting parameter langevinTemp to 90
TCL: Running for 100000 steps
ETITLE: TS BOND ANGLE DIHED IMPRP ELECT VDW BOUNDARY MISC KINETIC TOTAL TEMP POTENTIAL TOTAL3 TEMPAVG PRESSURE GPRESSURE VOLUME PRESSAVG GPRESSAVG
ENERGY: 200000 0.0000 0.0000 0.0000 0.0000 -14373.0804 2546.3553 0.0000 0.0000 361.4859 -11465.2392 61.0634 -11826.7252 -11464.6572 61.0634 544.5210 589.0209 29354.7516 544.5210 589.0209
ENERGY: 300000 0.0000 0.0000 0.0000 0.0000 -14328.7004 2567.0233 0.0000 0.0000 531.8249 -11229.8522 89.8377 -11761.6770 -11228.6032 89.9076 1178.2671 1198.6070 28942.8397 5.0522 5.0636
TCL: Running 100000 steps at 120 kelvin.
TCL: Setting parameter langevinTemp to 120
TCL: Running for 100000 steps
ETITLE: TS BOND ANGLE DIHED IMPRP ELECT VDW BOUNDARY MISC KINETIC TOTAL TEMP POTENTIAL TOTAL3 TEMPAVG PRESSURE GPRESSURE VOLUME PRESSAVG GPRESSAVG
ENERGY: 300000 0.0000 0.0000 0.0000 0.0000 -14328.7004 2567.0233 0.0000 0.0000 531.5737 -11230.1033 89.7953 -11761.6770 -11229.2176 89.7953 1151.1559 1198.6071 28942.8397 1151.1559 1198.6071
ENERGY: 400000 0.0000 0.0000 0.0000 0.0000 -13860.9160 2258.2055 0.0000 0.0000 731.8400 -10870.8705 123.6249 -11602.7106 -10869.1658 119.6718 -1042.9758 -1015.0575 29694.6611 3.0262 3.2034
TCL: Running 100000 steps at 150 kelvin.
TCL: Setting parameter langevinTemp to 150
TCL: Running for 100000 steps
ETITLE: TS BOND ANGLE DIHED IMPRP ELECT VDW BOUNDARY MISC KINETIC TOTAL TEMP POTENTIAL TOTAL3 TEMPAVG PRESSURE GPRESSURE VOLUME PRESSAVG GPRESSAVG
ENERGY: 400000 0.0000 0.0000 0.0000 0.0000 -13860.9160 2258.2055 0.0000 0.0000 731.4797 -10871.2308 123.5641 -11602.7106 -10869.7261 123.5641 -1053.0213 -1014.6383 29694.6611 -1053.0213 -1014.6383
ENERGY: 500000 0.0000 0.0000 0.0000 0.0000 -13830.7227 2396.7490 0.0000 0.0000 895.6470 -10538.3267 151.2958 -11433.9736 -10535.9602 150.1259 822.4799 880.3791 29346.3164 3.2401 3.1128
TCL: Running 100000 steps at 180 kelvin.
TCL: Setting parameter langevinTemp to 180
TCL: Running for 100000 steps
ETITLE: TS BOND ANGLE DIHED IMPRP ELECT VDW BOUNDARY MISC KINETIC TOTAL TEMP POTENTIAL TOTAL3 TEMPAVG PRESSURE GPRESSURE VOLUME PRESSAVG GPRESSAVG
ENERGY: 500000 0.0000 0.0000 0.0000 0.0000 -13830.7227 2396.7490 0.0000 0.0000 895.1822 -10538.7914 151.2172 -11433.9736 -10537.4486 151.2172 827.0139 880.3120 29346.3164 827.0139 880.3120
ENERGY: 600000 0.0000 0.0000 0.0000 0.0000 -13198.6880 2105.9903 0.0000 0.0000 1063.0625 -10029.6352 179.5762 -11092.6977 -10026.4351 180.1710 -190.8843 -116.1731 29305.0446 4.0723 4.0352
TCL: Running 100000 steps at 210 kelvin.
TCL: Setting parameter langevinTemp to 210
TCL: Running for 100000 steps
ETITLE: TS BOND ANGLE DIHED IMPRP ELECT VDW BOUNDARY MISC KINETIC TOTAL TEMP POTENTIAL TOTAL3 TEMPAVG PRESSURE GPRESSURE VOLUME PRESSAVG GPRESSAVG
ENERGY: 600000 0.0000 0.0000 0.0000 0.0000 -13198.6880 2105.9903 0.0000 0.0000 1062.5340 -10030.1637 179.4869 -11092.6977 -10028.1816 179.4869 -184.4998 -115.0419 29305.0446 -184.4998 -115.0419
ENERGY: 700000 0.0000 0.0000 0.0000 0.0000 -12538.1963 1872.4776 0.0000 0.0000 1215.8235 -9449.8952 205.3811 -10665.7187 -9447.6424 210.0183 -383.3147 -326.0339 29221.8735 3.4473 3.4314
TCL: Running 100000 steps at 240 kelvin.
TCL: Setting parameter langevinTemp to 240
TCL: Running for 100000 steps
ETITLE: TS BOND ANGLE DIHED IMPRP ELECT VDW BOUNDARY MISC KINETIC TOTAL TEMP POTENTIAL TOTAL3 TEMPAVG PRESSURE GPRESSURE VOLUME PRESSAVG GPRESSAVG
ENERGY: 700000 0.0000 0.0000 0.0000 0.0000 -12538.1963 1872.4776 0.0000 0.0000 1215.2121 -9450.5066 205.2778 -10665.7187 -9448.9839 205.2778 -405.5754 -326.6928 29221.8735 -405.5754 -326.6928
ENERGY: 800000 0.0000 0.0000 0.0000 0.0000 -11773.2229 1626.4247 0.0000 0.0000 1414.1240 -8732.6742 238.8787 -10146.7982 -8730.0708 240.0930 -697.4051 -635.8719 29610.6158 3.8626 4.1200
TCL: Running 100000 steps at 270 kelvin.
TCL: Setting parameter langevinTemp to 270
TCL: Running for 100000 steps
ETITLE: TS BOND ANGLE DIHED IMPRP ELECT VDW BOUNDARY MISC KINETIC TOTAL TEMP POTENTIAL TOTAL3 TEMPAVG PRESSURE GPRESSURE VOLUME PRESSAVG GPRESSAVG
ENERGY: 800000 0.0000 0.0000 0.0000 0.0000 -11773.2229 1626.4247 0.0000 0.0000 1413.3941 -8733.4041 238.7554 -10146.7982 -8731.3438 238.7554 -716.0297 -635.9699 29610.6158 -716.0297 -635.9699
ENERGY: 900000 0.0000 0.0000 0.0000 0.0000 -11390.0817 1616.9913 0.0000 0.0000 1563.4590 -8209.6313 264.1049 -9773.0903 -8207.9622 270.2733 233.1479 315.0002 30130.8582 2.7690 2.7528
TCL: Running 1000000 steps at 300 kelvin.
TCL: Setting parameter langevinTemp to 300
TCL: Running for 1000000 steps
ETITLE: TS BOND ANGLE DIHED IMPRP ELECT VDW BOUNDARY MISC KINETIC TOTAL TEMP POTENTIAL TOTAL3 TEMPAVG PRESSURE GPRESSURE VOLUME PRESSAVG GPRESSAVG
ENERGY: 900000 0.0000 0.0000 0.0000 0.0000 -11390.0817 1616.9913 0.0000 0.0000 1562.6608 -8210.4296 263.9700 -9773.0903 -8208.6229 263.9700 231.1740 313.3383 30130.8582 231.1740 313.3383
ENERGY: 1100000 0.0000 0.0000 0.0000 0.0000 -10660.9385 1338.2023 0.0000 0.0000 1794.3743 -7528.3619 303.1119 -9322.7362 -7525.3745 300.3967 -876.4157 -757.8516 31021.8801 2.9306 2.8085
ENERGY: 1300000 0.0000 0.0000 0.0000 0.0000 -10847.2745 1485.1331 0.0000 0.0000 1807.7296 -7554.4118 305.3679 -9362.1414 -7551.1145 300.2965 290.6143 313.9142 31045.2945 3.8180 3.6477
ENERGY: 1500000 0.0000 0.0000 0.0000 0.0000 -10836.9350 1484.2764 0.0000 0.0000 1780.7166 -7571.9420 300.8048 -9352.6586 -7567.3459 300.9101 470.6911 564.4799 30593.9634 2.4566 2.6254
ENERGY: 1700000 0.0000 0.0000 0.0000 0.0000 -10866.1345 1447.2781 0.0000 0.0000 1774.6807 -7644.1757 299.7852 -9418.8565 -7641.0477 300.3447 -225.8368 -83.2512 30770.8381 1.1690 1.0550
ENERGY: 1900000 0.0000 0.0000 0.0000 0.0000 -10815.0394 1461.7055 0.0000 0.0000 1757.2150 -7596.1188 296.8348 -9353.3338 -7592.0105 300.1891 40.9871 101.3021 31069.6435 3.3658 3.2752
TCL: Exiting due to exit command.
