Info: SIMULATION PARAMETERS:
Info: TIMESTEP               2
Info: NUMBER OF STEPS        0
Info: STEPS PER CYCLE        10
Info: PERIODIC CELL BASIS 1  44.591 0 0
Info: PERIODIC CELL BASIS 2  0 43.772 0
Info: PERIODIC CELL BASIS 3  0 0 46.255
Info: PERIODIC CELL CENTER   0 0 0
Info: WRAPPING WATERS AROUND PERIODIC BOUNDARIES ON OUTPUT.
Info: WRAPPING ALL CLUSTERS AROUND PERIODIC BOUNDARIES ON OUTPUT.
Info: FIRST LDB TIMESTEP     50
Info: LAST LDB TIMESTEP     -1
Info: HOM BACKGROUND SCALING 1
Info: PME BACKGROUND SCALING 1
Info: MIN ATOMS PER PATCH    40
Info: EMPTY PATCH LOAD       40 ATOMS
Info: INITIAL TEMPERATURE    300
Info: CENTER OF MASS MOVING INITIALLY? NO
Info: DIELECTRIC             1
Info: EXCLUDE                SCALED ONE-FOUR
Info: 1-4 ELECTROSTATICS SCALED BY 0.833333
Info: MODIFIED 1-4 VDW PARAMETERS WILL BE USED
Info: DCD FILENAME           mobley_1849020_min.dcd
Info: DCD FREQUENCY          5000
Info: DCD FIRST STEP         5000
Info: DCD FILE WILL CONTAIN UNIT CELL DATA
Info: XST FILENAME           mobley_1849020_min.xst
Info: XST FREQUENCY          5000
Info: NO VELOCITY DCD OUTPUT
Info: NO FORCE DCD OUTPUT
Info: OUTPUT FILENAME        mobley_1849020_min
Info: BINARY OUTPUT FILES WILL BE USED
Info: RESTART FILENAME       mobley_1849020_min.restart
Info: RESTART FREQUENCY      5000
Info: BINARY RESTART FILES WILL BE USED
Info: CUTOFF                 9
Info: PAIRLIST DISTANCE      11
Info: PAIRLIST SHRINK RATE   0.01
Info: PAIRLIST GROW RATE     0.01
Info: PAIRLIST TRIGGER       0.3
Info: PAIRLISTS PER CYCLE    2
Info: PAIRLISTS ENABLED
Info: MARGIN                 8
Info: HYDROGEN GROUP CUTOFF  2.5
Info: PATCH DIMENSION        21.5
Info: ENERGY OUTPUT STEPS    5000
Info: ENERGY EVALUATION STEPS    5000
Info: OUTPUT ENERGY PRECISION 4
Info: CROSSTERM ENERGY INCLUDED IN DIHEDRAL
Info: TIMING OUTPUT STEPS    50000
Info: PRESSURE OUTPUT STEPS  5000
Info: LANGEVIN DYNAMICS ACTIVE
Info: LANGEVIN TEMPERATURE   300
Info: LANGEVIN USING BBK INTEGRATOR
Info: LANGEVIN DAMPING COEFFICIENT IS 1 INVERSE PS
Info: LANGEVIN DYNAMICS APPLIED TO HYDROGENS
Info: LANGEVIN PISTON PRESSURE CONTROL ACTIVE
Info:        TARGET PRESSURE IS 1.01325 BAR
Info:     OSCILLATION PERIOD IS 50 FS
Info:             DECAY TIME IS 25 FS
Info:     PISTON TEMPERATURE IS 300 K
Info:       PRESSURE CONTROL IS GROUP-BASED
Info:    INITIAL STRAIN RATE IS 0 0 0
Info:       CELL FLUCTUATION IS ISOTROPIC
Info: PARTICLE MESH EWALD (PME) ACTIVE
Info: PME TOLERANCE               1e-06
Info: PME EWALD COEFFICIENT       0.348832
Info: PME INTERPOLATION ORDER     4
Info: PME GRID DIMENSIONS         48 44 48
Info: PME MAXIMUM GRID SPACING    1
Info: FULL ELECTROSTATIC EVALUATION FREQUENCY      2
Info: USING VERLET I (r-RESPA) MTS SCHEME.
Info: C1 SPLITTING OF LONG RANGE ELECTROSTATICS
Info: PLACING ATOMS IN PATCHES BY HYDROGEN GROUPS
Info: RIGID BONDS TO HYDROGEN : ALL
Info:         ERROR TOLERANCE : 1e-08
Info:          MAX ITERATIONS : 100
Info: RIGID WATER USING SETTLE ALGORITHM
Info: RANDOM NUMBER SEED     1741313581
Info: USE HYDROGEN BONDS?    NO
Info: Using AMBER format force field!
Info: AMBER PARM FILE        mobley_1849020.prmtop
Info: COORDINATE PDB         mobley_1849020.pdb
Info: Exclusions will be read from PARM file!
Info: SCNB (VDW SCALING)     2
Info: USING ARITHMETIC MEAN TO COMBINE L-J SIGMA PARAMETERS
Info: SUMMARY OF PARAMETERS:
Info: 15 BONDS
Info: 20 ANGLES
Info:   20 HARMONIC
Info:   0 COSINE-BASED
Info: 14 DIHEDRAL
Info: 0 IMPROPER
Info: 0 CROSSTERM
Info: 0 VDW
Info: 78 VDW_PAIRS
Info: 0 NBTHOLE_PAIRS
Info: STRUCTURE SUMMARY:
Info: 6646 ATOMS
Info: 6646 BONDS
Info: 58 ANGLES
Info: 78 DIHEDRALS
Info: 0 IMPROPERS
Info: 0 CROSSTERMS
Info: 6766 EXCLUSIONS
Info: 6628 RIGID BONDS
Info: 13310 DEGREES OF FREEDOM
Info: 2222 HYDROGEN GROUPS
Info: 4 ATOMS IN LARGEST HYDROGEN GROUP
Info: 2222 MIGRATION GROUPS
Info: 4 ATOMS IN LARGEST MIGRATION GROUP
Info: TOTAL MASS = 40050.1 amu
Info: TOTAL CHARGE = -5.96046e-08 e
Info: MASS DENSITY = 0.736649 g/cm^3
Info: ATOM DENSITY = 0.0736136 atoms/A^3
Info: ADDED 0 IMPLICIT EXCLUSIONS
Info: NONBONDED TABLE R-SQUARED SPACING: 0.0625
Info: NONBONDED TABLE SIZE: 705 POINTS
Info: REMOVING COM VELOCITY 0.0502987 -0.0168872 0.0411726
TCL: Minimizing for 2000 steps
ETITLE: TS BOND ANGLE DIHED IMPRP ELECT VDW BOUNDARY MISC KINETIC TOTAL TEMP POTENTIAL TOTAL3 TEMPAVG PRESSURE GPRESSURE VOLUME PRESSAVG GPRESSAVG
ENERGY: 0 1.1175 4.1932 42.3314 0.0000 -20577.0334 2279.5608 0.0000 0.0000 0.0000 -18249.8306 0.0000 -18249.8306 -18249.8306 0.0000 11198.5774 -16064.6040 90282.2321 11198.5774 -16064.6040
ENERGY: 400 4.8756 4.7114 37.3478 0.0000 -27720.0182 3978.7880 0.0000 0.0000 0.0000 -23694.2954 0.0000 -23694.2954 -23694.2954 0.0000 15875.7528 16039.9044 90282.2321 15875.7528 16039.9044
ENERGY: 800 1.2567 1.8433 36.2683 0.0000 -29234.7925 4714.1458 0.0000 0.0000 0.0000 -24481.2784 0.0000 -24481.2784 -24481.2784 0.0000 18386.9032 18529.5073 90282.2321 18386.9032 18529.5073
ENERGY: 1200 1.3803 2.1143 32.8524 0.0000 -29826.2314 4951.8244 0.0000 0.0000 0.0000 -24838.0600 0.0000 -24838.0600 -24838.0600 0.0000 19254.1205 19382.8859 90282.2321 19254.1205 19382.8859
ENERGY: 1600 3.6171 5.2223 26.9994 0.0000 -30276.2037 5117.7879 0.0000 0.0000 0.0000 -25122.5770 0.0000 -25122.5770 -25122.5770 0.0000 19902.6295 20009.6523 90282.2321 19902.6295 20009.6523
ENERGY: 2000 0.4834 2.8747 26.3906 0.0000 -30475.9219 5192.5839 0.0000 0.0000 0.0000 -25253.5893 0.0000 -25253.5893 -25253.5893 0.0000 20203.4110 20318.2911 90282.2321 20203.4110 20318.2911
TCL: Exiting due to exit command.
Info: NAMD 3.0.1 for Linux-x86_64-multicore
Info: Please visit http://www.ks.uiuc.edu/Research/namd/
Info: for updates, documentation, and support information.
Info: Please cite Phillips et al., J. Chem. Phys. 153:044130 (2020) doi:10.1063/5.0014475
Info: in all publications reporting results obtained with NAMD.
Info: Based on Charm++/Converse 80000 for multicore-linux-x86_64-gcc
Info: Built Mon Oct 14 11:11:06 CDT 2024 by dhardy on athine.ks.uiuc.edu
Info: 1 NAMD  3.0.1  Linux-x86_64-multicore  16    k008  z5358697
Info: Running on 16 processors, 1 nodes, 1 physical nodes.
Info: CPU topology information available.
Info: Charm++/Converse parallel runtime startup completed at 0.00930707 s
Info: 1043.45 MB of memory in use based on /proc/self/stat
Info: Configuration file is mobley_1849020_equil.namd
Info: Working in the current directory /srv/scratch/z5358697/prod_prep_1/1849020
TCL: Running 25000 steps at 30 kelvin.
TCL: Suspending until startup complete.
Info: SIMULATION PARAMETERS:
Info: TIMESTEP               2
Info: NUMBER OF STEPS        0
Info: STEPS PER CYCLE        10
Info: PERIODIC CELL BASIS 1  44.591 0 0
Info: PERIODIC CELL BASIS 2  0 43.772 0
Info: PERIODIC CELL BASIS 3  0 0 46.255
Info: PERIODIC CELL CENTER   0 0 0
Info: WRAPPING WATERS AROUND PERIODIC BOUNDARIES ON OUTPUT.
Info: WRAPPING ALL CLUSTERS AROUND PERIODIC BOUNDARIES ON OUTPUT.
Info: FIRST LDB TIMESTEP     50
Info: LAST LDB TIMESTEP     -1
Info: HOM BACKGROUND SCALING 1
Info: PME BACKGROUND SCALING 1
Info: MIN ATOMS PER PATCH    40
Info: EMPTY PATCH LOAD       40 ATOMS
Info: INITIAL TEMPERATURE    300
Info: CENTER OF MASS MOVING INITIALLY? NO
Info: DIELECTRIC             1
Info: EXCLUDE                SCALED ONE-FOUR
Info: 1-4 ELECTROSTATICS SCALED BY 0.833333
Info: MODIFIED 1-4 VDW PARAMETERS WILL BE USED
Info: DCD FILENAME           mobley_1849020_equil.dcd
Info: DCD FREQUENCY          5000
Info: DCD FIRST STEP         5000
Info: DCD FILE WILL CONTAIN UNIT CELL DATA
Info: XST FILENAME           mobley_1849020_equil.xst
Info: XST FREQUENCY          5000
Info: NO VELOCITY DCD OUTPUT
Info: NO FORCE DCD OUTPUT
Info: OUTPUT FILENAME        mobley_1849020_equil
Info: BINARY OUTPUT FILES WILL BE USED
Info: RESTART FILENAME       mobley_1849020_equil.restart
Info: RESTART FREQUENCY      5000
Info: BINARY RESTART FILES WILL BE USED
Info: CUTOFF                 9
Info: PAIRLIST DISTANCE      11
Info: PAIRLIST SHRINK RATE   0.01
Info: PAIRLIST GROW RATE     0.01
Info: PAIRLIST TRIGGER       0.3
Info: PAIRLISTS PER CYCLE    2
Info: PAIRLISTS ENABLED
Info: MARGIN                 8
Info: HYDROGEN GROUP CUTOFF  2.5
Info: PATCH DIMENSION        21.5
Info: ENERGY OUTPUT STEPS    5000
Info: ENERGY EVALUATION STEPS    5000
Info: OUTPUT ENERGY PRECISION 4
Info: CROSSTERM ENERGY INCLUDED IN DIHEDRAL
Info: TIMING OUTPUT STEPS    50000
Info: PRESSURE OUTPUT STEPS  5000
Info: LANGEVIN DYNAMICS ACTIVE
Info: LANGEVIN TEMPERATURE   30
Info: LANGEVIN USING BBK INTEGRATOR
Info: LANGEVIN DAMPING COEFFICIENT IS 1 INVERSE PS
Info: LANGEVIN DYNAMICS APPLIED TO HYDROGENS
Info: LANGEVIN PISTON PRESSURE CONTROL ACTIVE
Info:        TARGET PRESSURE IS 1.01325 BAR
Info:     OSCILLATION PERIOD IS 50 FS
Info:             DECAY TIME IS 25 FS
Info:     PISTON TEMPERATURE IS 300 K
Info:       PRESSURE CONTROL IS GROUP-BASED
Info:    INITIAL STRAIN RATE IS 0 0 0
Info:       CELL FLUCTUATION IS ISOTROPIC
Info: PARTICLE MESH EWALD (PME) ACTIVE
Info: PME TOLERANCE               1e-06
Info: PME EWALD COEFFICIENT       0.348832
Info: PME INTERPOLATION ORDER     4
Info: PME GRID DIMENSIONS         48 44 48
Info: PME MAXIMUM GRID SPACING    1
Info: FULL ELECTROSTATIC EVALUATION FREQUENCY      2
Info: USING VERLET I (r-RESPA) MTS SCHEME.
Info: C1 SPLITTING OF LONG RANGE ELECTROSTATICS
Info: PLACING ATOMS IN PATCHES BY HYDROGEN GROUPS
Info: RIGID BONDS TO HYDROGEN : ALL
Info:         ERROR TOLERANCE : 1e-08
Info:          MAX ITERATIONS : 100
Info: RIGID WATER USING SETTLE ALGORITHM
Info: RANDOM NUMBER SEED     1741313611
Info: USE HYDROGEN BONDS?    NO
Info: Using AMBER format force field!
Info: AMBER PARM FILE        mobley_1849020.prmtop
Info: COORDINATE PDB         mobley_1849020.pdb
Info: Exclusions will be read from PARM file!
Info: SCNB (VDW SCALING)     2
Info: USING ARITHMETIC MEAN TO COMBINE L-J SIGMA PARAMETERS
Info: BINARY COORDINATES     mobley_1849020_min.coor
Info: SUMMARY OF PARAMETERS:
Info: 15 BONDS
Info: 20 ANGLES
Info:   20 HARMONIC
Info:   0 COSINE-BASED
Info: 14 DIHEDRAL
Info: 0 IMPROPER
Info: 0 CROSSTERM
Info: 0 VDW
Info: 78 VDW_PAIRS
Info: 0 NBTHOLE_PAIRS
Info: STRUCTURE SUMMARY:
Info: 6646 ATOMS
Info: 6646 BONDS
Info: 58 ANGLES
Info: 78 DIHEDRALS
Info: 0 IMPROPERS
Info: 0 CROSSTERMS
Info: 6766 EXCLUSIONS
Info: 6628 RIGID BONDS
Info: 13310 DEGREES OF FREEDOM
Info: 2222 HYDROGEN GROUPS
Info: 4 ATOMS IN LARGEST HYDROGEN GROUP
Info: 2222 MIGRATION GROUPS
Info: 4 ATOMS IN LARGEST MIGRATION GROUP
Info: TOTAL MASS = 40050.1 amu
Info: TOTAL CHARGE = -5.96046e-08 e
Info: MASS DENSITY = 0.736649 g/cm^3
Info: ATOM DENSITY = 0.0736136 atoms/A^3
Info: ADDED 0 IMPLICIT EXCLUSIONS
Info: NONBONDED TABLE R-SQUARED SPACING: 0.0625
Info: NONBONDED TABLE SIZE: 705 POINTS
Info: REMOVING COM VELOCITY 0.00388093 -0.0799839 0.130012
TCL: Running for 25000 steps
ETITLE: TS BOND ANGLE DIHED IMPRP ELECT VDW BOUNDARY MISC KINETIC TOTAL TEMP POTENTIAL TOTAL3 TEMPAVG PRESSURE GPRESSURE VOLUME PRESSAVG GPRESSAVG
ENERGY: 0 0.4834 2.8747 26.3906 0.0000 -30475.9219 5192.5839 0.0000 0.0000 4035.9856 -21217.6036 305.1841 -25253.5893 -21216.8358 305.1841 92.6632 136.6895 90282.2321 92.6632 136.6895
ENERGY: 5000 0.6886 3.9605 27.3204 0.0000 -31938.4092 5577.0762 0.0000 0.0000 396.1909 -25933.1726 29.9583 -26329.3635 -25931.9247 47.5519 305.4367 356.9457 64971.3301 2.3881 2.5183
ENERGY: 10000 0.6637 3.4953 28.1708 0.0000 -31914.0462 5493.2468 0.0000 0.0000 391.9803 -25996.4893 29.6399 -26388.4696 -25995.4412 30.3608 -117.9862 -61.4803 64953.7961 3.1220 3.0023
ENERGY: 15000 0.7359 3.2292 28.3200 0.0000 -31961.0229 5512.9372 0.0000 0.0000 400.6072 -26015.1934 30.2922 -26415.8006 -26013.7007 30.0275 -69.6168 9.3260 64666.8570 -3.9271 -3.9655
ENERGY: 20000 0.4531 4.2620 27.1988 0.0000 -31960.8113 5504.6461 0.0000 0.0000 402.5842 -26021.6670 30.4417 -26424.2512 -26020.5611 30.0543 -70.1122 -8.5926 64702.9198 6.0768 6.0026
ENERGY: 25000 0.7381 3.5563 27.5477 0.0000 -31664.1165 5208.9063 0.0000 0.0000 398.4275 -26024.9406 30.1274 -26423.3681 -26023.6851 30.0233 -1243.6454 -1167.3389 65236.6081 1.7029 1.8675
TCL: Running 25000 steps at 60 kelvin.
TCL: Setting parameter langevinTemp to 60
TCL: Running for 25000 steps
ETITLE: TS BOND ANGLE DIHED IMPRP ELECT VDW BOUNDARY MISC KINETIC TOTAL TEMP POTENTIAL TOTAL3 TEMPAVG PRESSURE GPRESSURE VOLUME PRESSAVG GPRESSAVG
ENERGY: 25000 0.7381 3.5563 27.5477 0.0000 -31664.1165 5208.9063 0.0000 0.0000 398.2278 -26025.1403 30.1123 -26423.3681 -26024.1789 30.1123 -1236.1636 -1167.3467 65236.6081 -1236.1636 -1167.3467
ENERGY: 30000 1.4478 3.9363 28.0854 0.0000 -31353.6311 5282.5623 0.0000 0.0000 802.4875 -25235.1117 60.6807 -26037.5992 -25232.7555 57.3368 -270.3957 -209.1677 64962.1069 2.7186 2.5872
ENERGY: 35000 1.4592 4.2115 27.5578 0.0000 -31485.8772 5312.2837 0.0000 0.0000 802.0756 -25338.2894 60.6496 -26140.3650 -25336.5058 60.1084 -320.7607 -243.9939 64828.4841 1.2282 1.0184
ENERGY: 40000 1.0074 4.9703 26.9940 0.0000 -31735.0820 5542.8631 0.0000 0.0000 782.7638 -25376.4834 59.1893 -26159.2472 -25373.9119 60.0216 600.8386 656.0156 64362.4206 -2.7164 -2.7046
ENERGY: 45000 1.2833 6.6594 27.8465 0.0000 -31740.0285 5517.9811 0.0000 0.0000 799.4130 -25386.8451 60.4482 -26186.2581 -25384.8462 60.1755 552.3305 600.1322 64128.0226 4.3009 4.0812
ENERGY: 50000 2.2143 3.6019 26.1127 0.0000 -31563.3003 5310.4839 0.0000 0.0000 791.0924 -25429.7951 59.8191 -26220.8875 -25427.6544 59.9233 -408.9226 -336.8478 64536.4433 0.0885 0.3304
TCL: Running 25000 steps at 90 kelvin.
TCL: Setting parameter langevinTemp to 90
TCL: Running for 25000 steps
ETITLE: TS BOND ANGLE DIHED IMPRP ELECT VDW BOUNDARY MISC KINETIC TOTAL TEMP POTENTIAL TOTAL3 TEMPAVG PRESSURE GPRESSURE VOLUME PRESSAVG GPRESSAVG
ENERGY: 50000 2.2143 3.6019 26.1127 0.0000 -31563.3003 5310.4839 0.0000 0.0000 790.6904 -25430.1971 59.7887 -26220.8875 -25428.4295 59.7887 -403.1119 -336.8047 64536.4433 -403.1119 -336.8047
ENERGY: 55000 0.9577 8.0084 26.4702 0.0000 -31054.2240 5240.1706 0.0000 0.0000 1178.2382 -24600.3789 89.0934 -25778.6171 -24597.4145 86.1920 95.7029 152.6445 64778.2360 1.6561 1.3863
ENERGY: 60000 2.1312 3.6046 28.5817 0.0000 -31078.7448 5178.6782 0.0000 0.0000 1189.9123 -24675.8368 89.9761 -25865.7490 -24672.8771 90.1158 -231.4325 -195.7728 64728.7276 4.9407 4.9178
ENERGY: 65000 1.1901 6.3100 27.6779 0.0000 -31230.5928 5301.3098 0.0000 0.0000 1193.8495 -24700.2554 90.2738 -25894.1049 -24697.5444 90.2021 132.8526 186.1543 64553.9806 4.9180 5.0389
ENERGY: 70000 2.5404 6.3714 26.5275 0.0000 -31112.4434 5119.5209 0.0000 0.0000 1176.5197 -24780.9635 88.9634 -25957.4832 -24777.5630 90.0160 -736.8030 -645.3878 64742.5601 4.2491 4.1144
ENERGY: 75000 1.8973 5.7410 26.1809 0.0000 -31262.1912 5267.8872 0.0000 0.0000 1179.1966 -24781.2883 89.1658 -25960.4849 -24778.2226 89.7578 -163.5285 -103.7845 64554.5293 3.3198 3.6500
TCL: Running 25000 steps at 120 kelvin.
TCL: Setting parameter langevinTemp to 120
TCL: Running for 25000 steps
ETITLE: TS BOND ANGLE DIHED IMPRP ELECT VDW BOUNDARY MISC KINETIC TOTAL TEMP POTENTIAL TOTAL3 TEMPAVG PRESSURE GPRESSURE VOLUME PRESSAVG GPRESSAVG
ENERGY: 75000 1.8973 5.7410 26.1809 0.0000 -31262.1912 5267.8872 0.0000 0.0000 1178.6004 -24781.8844 89.1208 -25960.4849 -24779.3767 89.1208 -161.3208 -104.3432 64554.5293 -161.3208 -104.3432
ENERGY: 80000 2.3890 9.3791 25.4175 0.0000 -30772.1341 5201.4203 0.0000 0.0000 1625.5158 -23908.0124 122.9146 -25533.5282 -23904.7822 116.6171 394.0350 472.2691 64527.0943 7.9527 8.0027
ENERGY: 85000 2.1885 8.3821 27.1199 0.0000 -30734.8358 5107.2782 0.0000 0.0000 1618.3675 -23971.4996 122.3741 -25589.8672 -23967.4493 120.3351 -130.6363 -37.2242 64706.5830 0.5480 0.4747
ENERGY: 90000 0.8805 10.9440 25.5158 0.0000 -30757.2567 5101.2618 0.0000 0.0000 1602.9773 -24015.6773 121.2103 -25618.6546 -24011.6878 120.9824 -141.6048 -65.0744 64640.7412 3.7357 3.8773
ENERGY: 95000 2.2735 8.6680 25.9914 0.0000 -30745.5834 5057.7554 0.0000 0.0000 1576.9904 -24073.9046 119.2453 -25650.8951 -24069.7671 120.1670 -393.1894 -331.0804 64673.2938 4.4688 4.2897
ENERGY: 100000 4.0662 10.1016 24.9324 0.0000 -30872.4015 5168.0178 0.0000 0.0000 1621.6154 -24043.6681 122.6197 -25665.2835 -24039.4742 119.9574 -60.3355 21.4793 64703.8871 -0.9357 -0.7791
TCL: Running 25000 steps at 150 kelvin.
TCL: Setting parameter langevinTemp to 150
TCL: Running for 25000 steps
ETITLE: TS BOND ANGLE DIHED IMPRP ELECT VDW BOUNDARY MISC KINETIC TOTAL TEMP POTENTIAL TOTAL3 TEMPAVG PRESSURE GPRESSURE VOLUME PRESSAVG GPRESSAVG
ENERGY: 100000 4.0662 10.1016 24.9324 0.0000 -30872.4015 5168.0178 0.0000 0.0000 1620.8237 -24044.4599 122.5598 -25665.2835 -24041.7921 122.5598 -40.7895 21.6265 64703.8871 -40.7895 21.6265
ENERGY: 105000 1.8249 11.0113 25.9477 0.0000 -30156.3138 4944.0146 0.0000 0.0000 1994.0999 -23179.4154 150.7854 -25173.5153 -23175.7901 147.2768 -16.7174 12.1479 65227.5749 1.9439 2.0246
ENERGY: 110000 3.1558 6.1466 25.5757 0.0000 -30306.3323 5070.7459 0.0000 0.0000 1962.2227 -23238.4855 148.3750 -25200.7082 -23233.1110 150.8129 350.2046 405.4583 65033.4667 5.5712 5.5085
ENERGY: 115000 1.2969 9.4851 25.3327 0.0000 -30333.4489 5074.8976 0.0000 0.0000 1955.2914 -23267.1452 147.8508 -25222.4366 -23263.5037 149.7826 301.4570 347.8206 65117.4195 1.2213 1.3705
ENERGY: 120000 2.9104 7.3701 28.1713 0.0000 -30184.6118 4914.8491 0.0000 0.0000 1955.0867 -23276.2242 147.8354 -25231.3109 -23270.8027 150.0889 -397.6252 -323.8658 65636.0840 -2.1859 -1.9308
ENERGY: 125000 4.7784 8.4562 28.0608 0.0000 -30201.6207 4905.0736 0.0000 0.0000 2003.8675 -23251.3842 151.5240 -25255.2517 -23245.9652 150.8212 -420.0562 -396.1864 65545.8761 3.2720 3.4140
TCL: Running 50000 steps at 180 kelvin.
TCL: Setting parameter langevinTemp to 180
TCL: Running for 50000 steps
ETITLE: TS BOND ANGLE DIHED IMPRP ELECT VDW BOUNDARY MISC KINETIC TOTAL TEMP POTENTIAL TOTAL3 TEMPAVG PRESSURE GPRESSURE VOLUME PRESSAVG GPRESSAVG
ENERGY: 125000 4.7784 8.4562 28.0608 0.0000 -30201.6207 4905.0736 0.0000 0.0000 2002.8888 -23252.3629 151.4500 -25255.2517 -23247.5868 151.4500 -447.4405 -396.8851 65545.8761 -447.4405 -396.8851
ENERGY: 135000 2.3105 10.2701 28.1581 0.0000 -29475.4867 4787.1880 0.0000 0.0000 2351.1326 -22296.4273 177.7827 -24647.5599 -22290.2099 179.9570 130.8750 220.6550 65478.9288 2.5164 2.2461
ENERGY: 145000 1.7848 9.0419 25.3776 0.0000 -29735.5726 4970.0979 0.0000 0.0000 2387.5458 -22341.7245 180.5361 -24729.2703 -22336.3967 179.7394 803.4920 852.9303 64973.3366 1.1812 0.8374
ENERGY: 155000 4.7807 14.4129 23.1453 0.0000 -29413.7321 4645.9516 0.0000 0.0000 2389.8966 -22335.5451 180.7138 -24725.4417 -22327.6134 180.6561 -402.5587 -335.9423 65271.4690 1.0966 0.9481
ENERGY: 165000 5.1293 14.0313 23.6576 0.0000 -29303.8724 4605.0075 0.0000 0.0000 2357.6276 -22298.4191 178.2738 -24656.0466 -22294.5891 179.0440 -502.2456 -424.0263 65080.4764 -1.7849 -1.9544
ENERGY: 175000 2.5749 12.8045 24.1003 0.0000 -29469.3728 4756.3286 0.0000 0.0000 2385.5286 -22288.0360 180.3836 -24673.5645 -22283.2716 179.8506 71.1291 165.1431 64842.5570 1.0512 0.9775
TCL: Running 50000 steps at 210 kelvin.
TCL: Setting parameter langevinTemp to 210
TCL: Running for 50000 steps
ETITLE: TS BOND ANGLE DIHED IMPRP ELECT VDW BOUNDARY MISC KINETIC TOTAL TEMP POTENTIAL TOTAL3 TEMPAVG PRESSURE GPRESSURE VOLUME PRESSAVG GPRESSAVG
ENERGY: 175000 2.5749 12.8045 24.1003 0.0000 -29469.3728 4756.3286 0.0000 0.0000 2384.3353 -22289.2292 180.2933 -24673.5645 -22285.1201 180.2933 97.1963 164.8581 64842.5570 97.1963 164.8581
ENERGY: 185000 5.5935 15.6713 25.2965 0.0000 -27928.9266 4122.8574 0.0000 0.0000 2808.2675 -20951.2403 212.3493 -23759.5078 -20943.5997 209.9391 -651.6651 -561.9415 65187.8681 3.3623 3.4388
ENERGY: 195000 4.1904 14.4788 25.3133 0.0000 -28012.1401 4240.3615 0.0000 0.0000 2803.8217 -20923.9744 212.0131 -23727.7961 -20916.2150 209.8876 -239.1672 -177.7770 65228.1445 3.1100 2.8483
ENERGY: 205000 2.0138 9.2139 23.0909 0.0000 -28064.0301 4218.5183 0.0000 0.0000 2791.4241 -21019.7692 211.0757 -23811.1933 -21014.2152 209.2961 -497.0945 -447.7425 65408.5216 0.2111 0.2630
ENERGY: 215000 4.6834 6.9733 26.2240 0.0000 -27992.9922 4202.0155 0.0000 0.0000 2776.6984 -20976.3977 209.9622 -23753.0961 -20970.2179 210.5467 -296.6471 -258.4877 64708.7492 0.8700 0.5031
ENERGY: 225000 2.7548 12.3180 27.2096 0.0000 -28103.6431 4323.5948 0.0000 0.0000 2824.2267 -20913.5391 213.5561 -23737.7659 -20905.3965 210.6960 191.0713 306.0284 64267.1878 -0.0651 -0.4110
TCL: Running 50000 steps at 240 kelvin.
TCL: Setting parameter langevinTemp to 240
TCL: Running for 50000 steps
ETITLE: TS BOND ANGLE DIHED IMPRP ELECT VDW BOUNDARY MISC KINETIC TOTAL TEMP POTENTIAL TOTAL3 TEMPAVG PRESSURE GPRESSURE VOLUME PRESSAVG GPRESSAVG
ENERGY: 225000 2.7548 12.3180 27.2096 0.0000 -28103.6431 4323.5948 0.0000 0.0000 2822.8588 -20914.9071 213.4526 -23737.7659 -20910.2189 213.4526 235.1722 306.4628 64267.1878 235.1722 306.4628
ENERGY: 235000 4.2922 13.8810 25.1756 0.0000 -26754.5150 3961.7323 0.0000 0.0000 3177.4948 -19571.9390 240.2687 -22749.4339 -19565.2570 238.3762 330.3187 374.7945 65423.2731 0.7085 0.4906
ENERGY: 245000 4.4511 11.8477 23.3437 0.0000 -26479.4192 3753.1138 0.0000 0.0000 3240.2967 -19446.3661 245.0175 -22686.6628 -19438.7263 241.1155 -248.3876 -180.7199 65505.6747 2.9406 2.7280
ENERGY: 255000 3.9974 11.1794 28.7632 0.0000 -26739.7644 3992.4559 0.0000 0.0000 3174.1353 -19529.2333 240.0147 -22703.3686 -19523.3235 241.0339 229.1174 315.5881 66418.2910 5.7781 5.8170
ENERGY: 265000 3.9048 13.0724 24.7851 0.0000 -26613.9254 3866.1866 0.0000 0.0000 3152.3897 -19553.5867 238.3703 -22705.9763 -19548.0019 239.8686 -38.8077 63.7242 65378.5210 -0.1261 -0.2361
ENERGY: 275000 2.2495 12.4114 26.4842 0.0000 -26511.8191 3854.0662 0.0000 0.0000 3151.7090 -19464.8988 238.3189 -22616.6078 -19459.9279 240.4589 95.6388 193.9046 65725.1086 0.8712 1.1178
TCL: Running 50000 steps at 270 kelvin.
TCL: Setting parameter langevinTemp to 270
TCL: Running for 50000 steps
ETITLE: TS BOND ANGLE DIHED IMPRP ELECT VDW BOUNDARY MISC KINETIC TOTAL TEMP POTENTIAL TOTAL3 TEMPAVG PRESSURE GPRESSURE VOLUME PRESSAVG GPRESSAVG
ENERGY: 275000 2.2495 12.4114 26.4842 0.0000 -26511.8191 3854.0662 0.0000 0.0000 3150.1396 -19466.4682 238.2002 -22616.6078 -19461.1795 238.2002 104.3195 192.7554 65725.1086 104.3195 192.7554
ENERGY: 285000 5.9864 13.4518 24.5302 0.0000 -25196.1631 3463.8861 0.0000 0.0000 3532.2928 -18156.0158 267.0970 -21688.3086 -18149.0093 269.5657 -54.2560 3.4259 66931.4240 2.9435 3.1309
ENERGY: 295000 6.1268 8.2631 24.5063 0.0000 -25343.6119 3447.6988 0.0000 0.0000 3547.0167 -18310.0002 268.2104 -21857.0170 -18303.1751 270.2122 -336.4085 -253.7707 66727.0634 3.1274 3.4035
ENERGY: 305000 7.1244 14.2009 25.5916 0.0000 -25236.2505 3451.6237 0.0000 0.0000 3592.5481 -18145.1618 271.6533 -21737.7099 -18135.9362 269.4027 -314.9734 -254.6083 67074.7301 1.9416 1.6381
ENERGY: 315000 4.2901 12.8238 33.7442 0.0000 -25338.0088 3553.9045 0.0000 0.0000 3514.8463 -18218.3999 265.7778 -21733.2461 -18213.3635 270.7273 23.7218 124.4682 67101.9166 0.8440 0.6735
ENERGY: 325000 4.4612 13.1875 26.1604 0.0000 -25339.7915 3446.7452 0.0000 0.0000 3540.2753 -18308.9620 267.7006 -21849.2373 -18299.0713 268.4932 -406.9670 -285.0005 66669.7155 2.2741 1.7629
TCL: Running 1000000 steps at 300 kelvin.
TCL: Setting parameter langevinTemp to 300
TCL: Running for 1000000 steps
ETITLE: TS BOND ANGLE DIHED IMPRP ELECT VDW BOUNDARY MISC KINETIC TOTAL TEMP POTENTIAL TOTAL3 TEMPAVG PRESSURE GPRESSURE VOLUME PRESSAVG GPRESSAVG
ENERGY: 325000 4.4612 13.1875 26.1604 0.0000 -25339.7915 3446.7452 0.0000 0.0000 3538.4934 -18310.7439 267.5659 -21849.2373 -18304.9954 267.5659 -369.0425 -283.8527 66669.7155 -369.0425 -283.8527
ENERGY: 525000 8.1175 11.2620 24.8977 0.0000 -24310.5037 3325.0440 0.0000 0.0000 3956.5337 -16984.6488 299.1763 -20941.1825 -16978.9173 300.2768 139.9254 206.0901 68278.2202 1.9127 1.7704
ENERGY: 725000 6.2147 13.9881 29.4533 0.0000 -24099.0040 3081.6496 0.0000 0.0000 4064.7761 -16902.9222 307.3611 -20967.6983 -16892.6070 299.5568 -664.7628 -561.2400 68165.0779 0.8339 0.2963
ENERGY: 925000 4.2272 13.3899 29.9771 0.0000 -24056.7176 3266.5516 0.0000 0.0000 4001.9991 -16740.5728 302.6142 -20742.5719 -16735.1653 300.6537 181.3260 243.9147 69399.4534 0.6145 -0.0257
ENERGY: 1125000 6.8120 17.9402 24.3848 0.0000 -24045.9867 3150.2713 0.0000 0.0000 3939.1399 -16907.4385 297.8611 -20846.5783 -16900.8107 299.0014 -521.3970 -389.9154 68983.4789 5.2581 5.5033
ENERGY: 1325000 5.4093 11.4666 29.4400 0.0000 -23994.1176 3168.9706 0.0000 0.0000 3966.0438 -16812.7874 299.8954 -20778.8312 -16807.2713 301.2747 -64.6890 65.0968 67581.1867 4.6843 3.9072
TCL: Exiting due to exit command.
