Info: SIMULATION PARAMETERS:
Info: TIMESTEP               2
Info: NUMBER OF STEPS        0
Info: STEPS PER CYCLE        10
Info: PERIODIC CELL BASIS 1  43.845 0 0
Info: PERIODIC CELL BASIS 2  0 40.459 0
Info: PERIODIC CELL BASIS 3  0 0 39.119
Info: PERIODIC CELL CENTER   0 0 0
Info: WRAPPING WATERS AROUND PERIODIC BOUNDARIES ON OUTPUT.
Info: WRAPPING ALL CLUSTERS AROUND PERIODIC BOUNDARIES ON OUTPUT.
Info: FIRST LDB TIMESTEP     50
Info: LAST LDB TIMESTEP     -1
Info: HOM BACKGROUND SCALING 1
Info: PME BACKGROUND SCALING 1
Info: MIN ATOMS PER PATCH    40
Info: EMPTY PATCH LOAD       40 ATOMS
Info: INITIAL TEMPERATURE    300
Info: CENTER OF MASS MOVING INITIALLY? NO
Info: DIELECTRIC             1
Info: EXCLUDE                SCALED ONE-FOUR
Info: 1-4 ELECTROSTATICS SCALED BY 0.833333
Info: MODIFIED 1-4 VDW PARAMETERS WILL BE USED
Info: DCD FILENAME           mobley_902954_min.dcd
Info: DCD FREQUENCY          5000
Info: DCD FIRST STEP         5000
Info: DCD FILE WILL CONTAIN UNIT CELL DATA
Info: XST FILENAME           mobley_902954_min.xst
Info: XST FREQUENCY          5000
Info: NO VELOCITY DCD OUTPUT
Info: NO FORCE DCD OUTPUT
Info: OUTPUT FILENAME        mobley_902954_min
Info: BINARY OUTPUT FILES WILL BE USED
Info: RESTART FILENAME       mobley_902954_min.restart
Info: RESTART FREQUENCY      5000
Info: BINARY RESTART FILES WILL BE USED
Info: CUTOFF                 9
Info: PAIRLIST DISTANCE      11
Info: PAIRLIST SHRINK RATE   0.01
Info: PAIRLIST GROW RATE     0.01
Info: PAIRLIST TRIGGER       0.3
Info: PAIRLISTS PER CYCLE    2
Info: PAIRLISTS ENABLED
Info: MARGIN                 8
Info: HYDROGEN GROUP CUTOFF  2.5
Info: PATCH DIMENSION        21.5
Info: ENERGY OUTPUT STEPS    5000
Info: ENERGY EVALUATION STEPS    5000
Info: OUTPUT ENERGY PRECISION 4
Info: CROSSTERM ENERGY INCLUDED IN DIHEDRAL
Info: TIMING OUTPUT STEPS    50000
Info: PRESSURE OUTPUT STEPS  5000
Info: LANGEVIN DYNAMICS ACTIVE
Info: LANGEVIN TEMPERATURE   300
Info: LANGEVIN USING BBK INTEGRATOR
Info: LANGEVIN DAMPING COEFFICIENT IS 1 INVERSE PS
Info: LANGEVIN DYNAMICS APPLIED TO HYDROGENS
Info: LANGEVIN PISTON PRESSURE CONTROL ACTIVE
Info:        TARGET PRESSURE IS 1.01325 BAR
Info:     OSCILLATION PERIOD IS 50 FS
Info:             DECAY TIME IS 25 FS
Info:     PISTON TEMPERATURE IS 300 K
Info:       PRESSURE CONTROL IS GROUP-BASED
Info:    INITIAL STRAIN RATE IS 0 0 0
Info:       CELL FLUCTUATION IS ISOTROPIC
Info: PARTICLE MESH EWALD (PME) ACTIVE
Info: PME TOLERANCE               1e-06
Info: PME EWALD COEFFICIENT       0.348832
Info: PME INTERPOLATION ORDER     4
Info: PME GRID DIMENSIONS         44 44 40
Info: PME MAXIMUM GRID SPACING    1
Info: FULL ELECTROSTATIC EVALUATION FREQUENCY      2
Info: USING VERLET I (r-RESPA) MTS SCHEME.
Info: C1 SPLITTING OF LONG RANGE ELECTROSTATICS
Info: PLACING ATOMS IN PATCHES BY HYDROGEN GROUPS
Info: RIGID BONDS TO HYDROGEN : ALL
Info:         ERROR TOLERANCE : 1e-08
Info:          MAX ITERATIONS : 100
Info: RIGID WATER USING SETTLE ALGORITHM
Info: RANDOM NUMBER SEED     1741399123
Info: USE HYDROGEN BONDS?    NO
Info: Using AMBER format force field!
Info: AMBER PARM FILE        mobley_902954.prmtop
Info: COORDINATE PDB         mobley_902954.pdb
Info: Exclusions will be read from PARM file!
Info: SCNB (VDW SCALING)     2
Info: USING ARITHMETIC MEAN TO COMBINE L-J SIGMA PARAMETERS
Info: SUMMARY OF PARAMETERS:
Info: 8 BONDS
Info: 10 ANGLES
Info:   10 HARMONIC
Info:   0 COSINE-BASED
Info: 8 DIHEDRAL
Info: 0 IMPROPER
Info: 0 CROSSTERM
Info: 0 VDW
Info: 36 VDW_PAIRS
Info: 0 NBTHOLE_PAIRS
Info: STRUCTURE SUMMARY:
Info: 4946 ATOMS
Info: 4945 BONDS
Info: 28 ANGLES
Info: 34 DIHEDRALS
Info: 0 IMPROPERS
Info: 0 CROSSTERMS
Info: 5005 EXCLUSIONS
Info: 4938 RIGID BONDS
Info: 9900 DEGREES OF FREEDOM
Info: 1651 HYDROGEN GROUPS
Info: 4 ATOMS IN LARGEST HYDROGEN GROUP
Info: 1651 MIGRATION GROUPS
Info: 4 ATOMS IN LARGEST MIGRATION GROUP
Info: TOTAL MASS = 29719.4 amu
Info: TOTAL CHARGE = -1.11759e-08 e
Info: MASS DENSITY = 0.711175 g/cm^3
Info: ATOM DENSITY = 0.071274 atoms/A^3
Info: ADDED 0 IMPLICIT EXCLUSIONS
Info: NONBONDED TABLE R-SQUARED SPACING: 0.0625
Info: NONBONDED TABLE SIZE: 705 POINTS
Info: REMOVING COM VELOCITY -0.0206403 0.0958808 0.0310348
TCL: Minimizing for 2000 steps
ETITLE: TS BOND ANGLE DIHED IMPRP ELECT VDW BOUNDARY MISC KINETIC TOTAL TEMP POTENTIAL TOTAL3 TEMPAVG PRESSURE GPRESSURE VOLUME PRESSAVG GPRESSAVG
ENERGY: 0 0.1211 1.6007 0.7790 0.0000 -15319.8882 1705.9035 0.0000 0.0000 0.0000 -13611.4838 0.0000 -13611.4838 -13611.4838 0.0000 10733.6732 -15217.4082 69394.1664 10733.6732 -15217.4082
ENERGY: 400 0.8660 2.3341 1.1747 0.0000 -20631.2182 3002.1613 0.0000 0.0000 0.0000 -17624.6821 0.0000 -17624.6821 -17624.6821 0.0000 15466.0929 15539.5106 69394.1664 15466.0929 15539.5106
ENERGY: 800 1.0084 1.9474 0.9516 0.0000 -21726.9192 3519.7731 0.0000 0.0000 0.0000 -18203.2386 0.0000 -18203.2386 -18203.2386 0.0000 17812.3455 17915.2471 69394.1664 17812.3455 17915.2471
ENERGY: 1200 0.5563 1.0809 0.8837 0.0000 -22166.8231 3668.7852 0.0000 0.0000 0.0000 -18495.5170 0.0000 -18495.5170 -18495.5170 0.0000 18559.8408 18588.5743 69394.1664 18559.8408 18588.5743
ENERGY: 1600 4.2314 3.2396 0.9517 0.0000 -22438.4235 3793.0285 0.0000 0.0000 0.0000 -18636.9722 0.0000 -18636.9722 -18636.9722 0.0000 19160.4833 19209.1544 69394.1664 19160.4833 19209.1544
ENERGY: 2000 0.4016 0.9609 0.9263 0.0000 -22605.2895 3884.2656 0.0000 0.0000 0.0000 -18718.7352 0.0000 -18718.7352 -18718.7352 0.0000 19609.4521 19635.8649 69394.1664 19609.4521 19635.8649
TCL: Exiting due to exit command.
Info: NAMD 3.0.1 for Linux-x86_64-multicore
Info: Please visit http://www.ks.uiuc.edu/Research/namd/
Info: for updates, documentation, and support information.
Info: Please cite Phillips et al., J. Chem. Phys. 153:044130 (2020) doi:10.1063/5.0014475
Info: in all publications reporting results obtained with NAMD.
Info: Based on Charm++/Converse 80000 for multicore-linux-x86_64-gcc
Info: Built Mon Oct 14 11:11:06 CDT 2024 by dhardy on athine.ks.uiuc.edu
Info: 1 NAMD  3.0.1  Linux-x86_64-multicore  16    k008  z5358697
Info: Running on 16 processors, 1 nodes, 1 physical nodes.
Info: CPU topology information available.
Info: Charm++/Converse parallel runtime startup completed at 0.00988158 s
Info: 1043.45 MB of memory in use based on /proc/self/stat
Info: Configuration file is mobley_902954_equil.namd
Info: Working in the current directory /srv/scratch/z5358697/prod_prep_11/902954
TCL: Running 25000 steps at 30 kelvin.
TCL: Suspending until startup complete.
Info: SIMULATION PARAMETERS:
Info: TIMESTEP               2
Info: NUMBER OF STEPS        0
Info: STEPS PER CYCLE        10
Info: PERIODIC CELL BASIS 1  43.845 0 0
Info: PERIODIC CELL BASIS 2  0 40.459 0
Info: PERIODIC CELL BASIS 3  0 0 39.119
Info: PERIODIC CELL CENTER   0 0 0
Info: WRAPPING WATERS AROUND PERIODIC BOUNDARIES ON OUTPUT.
Info: WRAPPING ALL CLUSTERS AROUND PERIODIC BOUNDARIES ON OUTPUT.
Info: FIRST LDB TIMESTEP     50
Info: LAST LDB TIMESTEP     -1
Info: HOM BACKGROUND SCALING 1
Info: PME BACKGROUND SCALING 1
Info: MIN ATOMS PER PATCH    40
Info: EMPTY PATCH LOAD       40 ATOMS
Info: INITIAL TEMPERATURE    300
Info: CENTER OF MASS MOVING INITIALLY? NO
Info: DIELECTRIC             1
Info: EXCLUDE                SCALED ONE-FOUR
Info: 1-4 ELECTROSTATICS SCALED BY 0.833333
Info: MODIFIED 1-4 VDW PARAMETERS WILL BE USED
Info: DCD FILENAME           mobley_902954_equil.dcd
Info: DCD FREQUENCY          5000
Info: DCD FIRST STEP         5000
Info: DCD FILE WILL CONTAIN UNIT CELL DATA
Info: XST FILENAME           mobley_902954_equil.xst
Info: XST FREQUENCY          5000
Info: NO VELOCITY DCD OUTPUT
Info: NO FORCE DCD OUTPUT
Info: OUTPUT FILENAME        mobley_902954_equil
Info: BINARY OUTPUT FILES WILL BE USED
Info: RESTART FILENAME       mobley_902954_equil.restart
Info: RESTART FREQUENCY      5000
Info: BINARY RESTART FILES WILL BE USED
Info: CUTOFF                 9
Info: PAIRLIST DISTANCE      11
Info: PAIRLIST SHRINK RATE   0.01
Info: PAIRLIST GROW RATE     0.01
Info: PAIRLIST TRIGGER       0.3
Info: PAIRLISTS PER CYCLE    2
Info: PAIRLISTS ENABLED
Info: MARGIN                 8
Info: HYDROGEN GROUP CUTOFF  2.5
Info: PATCH DIMENSION        21.5
Info: ENERGY OUTPUT STEPS    5000
Info: ENERGY EVALUATION STEPS    5000
Info: OUTPUT ENERGY PRECISION 4
Info: CROSSTERM ENERGY INCLUDED IN DIHEDRAL
Info: TIMING OUTPUT STEPS    50000
Info: PRESSURE OUTPUT STEPS  5000
Info: LANGEVIN DYNAMICS ACTIVE
Info: LANGEVIN TEMPERATURE   30
Info: LANGEVIN USING BBK INTEGRATOR
Info: LANGEVIN DAMPING COEFFICIENT IS 1 INVERSE PS
Info: LANGEVIN DYNAMICS APPLIED TO HYDROGENS
Info: LANGEVIN PISTON PRESSURE CONTROL ACTIVE
Info:        TARGET PRESSURE IS 1.01325 BAR
Info:     OSCILLATION PERIOD IS 50 FS
Info:             DECAY TIME IS 25 FS
Info:     PISTON TEMPERATURE IS 300 K
Info:       PRESSURE CONTROL IS GROUP-BASED
Info:    INITIAL STRAIN RATE IS 0 0 0
Info:       CELL FLUCTUATION IS ISOTROPIC
Info: PARTICLE MESH EWALD (PME) ACTIVE
Info: PME TOLERANCE               1e-06
Info: PME EWALD COEFFICIENT       0.348832
Info: PME INTERPOLATION ORDER     4
Info: PME GRID DIMENSIONS         44 44 40
Info: PME MAXIMUM GRID SPACING    1
Info: FULL ELECTROSTATIC EVALUATION FREQUENCY      2
Info: USING VERLET I (r-RESPA) MTS SCHEME.
Info: C1 SPLITTING OF LONG RANGE ELECTROSTATICS
Info: PLACING ATOMS IN PATCHES BY HYDROGEN GROUPS
Info: RIGID BONDS TO HYDROGEN : ALL
Info:         ERROR TOLERANCE : 1e-08
Info:          MAX ITERATIONS : 100
Info: RIGID WATER USING SETTLE ALGORITHM
Info: RANDOM NUMBER SEED     1741399142
Info: USE HYDROGEN BONDS?    NO
Info: Using AMBER format force field!
Info: AMBER PARM FILE        mobley_902954.prmtop
Info: COORDINATE PDB         mobley_902954.pdb
Info: Exclusions will be read from PARM file!
Info: SCNB (VDW SCALING)     2
Info: USING ARITHMETIC MEAN TO COMBINE L-J SIGMA PARAMETERS
Info: BINARY COORDINATES     mobley_902954_min.coor
Info: SUMMARY OF PARAMETERS:
Info: 8 BONDS
Info: 10 ANGLES
Info: 8 DIHEDRAL
Info: 0 IMPROPER
Info: 0 CROSSTERM
Info: 0 VDW
Info: 36 VDW_PAIRS
Info: 0 NBTHOLE_PAIRS
Info: STRUCTURE SUMMARY:
Info: 4946 ATOMS
Info: 4945 BONDS
Info: 28 ANGLES
Info: 34 DIHEDRALS
Info: 0 IMPROPERS
Info: 0 CROSSTERMS
Info: 5005 EXCLUSIONS
Info: 4938 RIGID BONDS
Info: 9900 DEGREES OF FREEDOM
Info: 1651 HYDROGEN GROUPS
Info: 4 ATOMS IN LARGEST HYDROGEN GROUP
Info: 1651 MIGRATION GROUPS
Info: 4 ATOMS IN LARGEST MIGRATION GROUP
Info: TOTAL MASS = 29719.4 amu
Info: TOTAL CHARGE = -1.11759e-08 e
Info: MASS DENSITY = 0.711175 g/cm^3
Info: ATOM DENSITY = 0.071274 atoms/A^3
Info: ADDED 0 IMPLICIT EXCLUSIONS
Info: NONBONDED TABLE R-SQUARED SPACING: 0.0625
Info: NONBONDED TABLE SIZE: 705 POINTS
Info: REMOVING COM VELOCITY 0.0212032 -0.0205306 0.0666863
TCL: Running for 25000 steps
ETITLE: TS BOND ANGLE DIHED IMPRP ELECT VDW BOUNDARY MISC KINETIC TOTAL TEMP POTENTIAL TOTAL3 TEMPAVG PRESSURE GPRESSURE VOLUME PRESSAVG GPRESSAVG
ENERGY: 0 0.4016 0.9609 0.9263 0.0000 -22605.2895 3884.2656 0.0000 0.0000 2921.1318 -15797.6034 296.9657 -18718.7352 -15797.0247 296.9657 143.6790 184.1545 69394.1664 143.6790 184.1545
ENERGY: 5000 0.2228 1.4904 1.4936 0.0000 -23820.7613 4211.3755 0.0000 0.0000 300.2274 -19305.9516 30.5215 -19606.1790 -19305.0620 47.7589 605.3459 659.4033 47865.4482 4.1831 4.2092
ENERGY: 10000 0.5502 1.2583 1.7059 0.0000 -23957.4894 4285.0513 0.0000 0.0000 293.8511 -19375.0726 29.8733 -19668.9237 -19374.2302 30.2117 844.6074 900.9450 47649.4228 0.7725 0.7480
ENERGY: 15000 0.2231 1.6631 1.1417 0.0000 -23743.7735 4059.8704 0.0000 0.0000 293.6408 -19387.2345 29.8519 -19680.8753 -19386.0878 30.0687 -332.5253 -282.5070 47977.0732 4.3551 4.2906
ENERGY: 20000 0.5845 1.5790 1.3217 0.0000 -23757.1833 4074.2877 0.0000 0.0000 292.1262 -19387.2843 29.6979 -19679.4105 -19386.5922 30.0146 -253.0007 -198.2746 47959.6090 3.7427 3.8490
ENERGY: 25000 0.3418 1.5528 1.2417 0.0000 -23825.2701 4132.4174 0.0000 0.0000 302.6664 -19387.0500 30.7694 -19689.7164 -19386.6453 29.8883 58.1811 105.3186 47802.4847 -7.3230 -7.3845
TCL: Running 25000 steps at 60 kelvin.
TCL: Setting parameter langevinTemp to 60
TCL: Running for 25000 steps
ETITLE: TS BOND ANGLE DIHED IMPRP ELECT VDW BOUNDARY MISC KINETIC TOTAL TEMP POTENTIAL TOTAL3 TEMPAVG PRESSURE GPRESSURE VOLUME PRESSAVG GPRESSAVG
ENERGY: 25000 0.3418 1.5528 1.2417 0.0000 -23825.2701 4132.4174 0.0000 0.0000 302.5194 -19387.1970 30.7545 -19689.7164 -19386.5863 30.7545 46.1723 105.0789 47802.4847 46.1723 105.0789
ENERGY: 30000 0.2044 1.9479 1.2329 0.0000 -23329.6312 3917.6511 0.0000 0.0000 598.2896 -18810.3053 60.8228 -19408.5950 -18808.7977 57.5661 -414.8120 -347.5785 48110.3894 0.5806 0.6538
ENERGY: 35000 0.6143 2.4649 1.5002 0.0000 -23528.8293 4083.1270 0.0000 0.0000 593.8879 -18847.2350 60.3754 -19441.1229 -18845.9884 60.1759 421.4830 485.4681 47793.9954 0.2225 0.0761
ENERGY: 40000 0.7870 2.0639 0.9882 0.0000 -23393.1390 3904.6794 0.0000 0.0000 610.1430 -18874.4777 62.0279 -19484.6206 -18872.5526 60.4279 -687.5281 -622.9001 48198.4467 6.7812 6.9436
ENERGY: 45000 0.5365 2.4811 1.6642 0.0000 -23531.0223 4004.0398 0.0000 0.0000 590.6880 -18931.6126 60.0500 -19522.3006 -18930.4607 60.2365 -271.1034 -213.0100 48090.8874 3.6207 3.7342
ENERGY: 50000 0.6146 2.1286 1.1606 0.0000 -23727.7341 4192.9714 0.0000 0.0000 576.0091 -18954.8497 58.5578 -19530.8588 -18954.2381 60.2745 711.0697 766.5701 47680.1019 1.8669 1.8667
TCL: Running 25000 steps at 90 kelvin.
TCL: Setting parameter langevinTemp to 90
TCL: Running for 25000 steps
ETITLE: TS BOND ANGLE DIHED IMPRP ELECT VDW BOUNDARY MISC KINETIC TOTAL TEMP POTENTIAL TOTAL3 TEMPAVG PRESSURE GPRESSURE VOLUME PRESSAVG GPRESSAVG
ENERGY: 50000 0.6146 2.1286 1.1606 0.0000 -23727.7341 4192.9714 0.0000 0.0000 575.7223 -18955.1365 58.5286 -19530.8588 -18954.1298 58.5286 705.9235 766.2131 47680.1019 705.9235 766.2131
ENERGY: 55000 0.9971 2.7670 2.1724 0.0000 -23267.9057 4029.8973 0.0000 0.0000 900.9349 -18331.1370 91.5901 -19232.0719 -18329.3892 87.3959 569.7301 642.8832 47772.2700 2.0802 2.1421
ENERGY: 60000 0.2201 2.9437 1.3669 0.0000 -22966.6437 3697.6354 0.0000 0.0000 877.7992 -18386.6784 89.2381 -19264.4776 -18384.4699 90.6797 -1182.1941 -1122.0833 48255.3666 5.6849 5.9705
ENERGY: 65000 0.9613 2.2592 1.0733 0.0000 -23232.6483 3911.7813 0.0000 0.0000 887.6118 -18428.9614 90.2357 -19316.5732 -18426.3948 90.2724 -232.2757 -181.2698 48003.1460 -1.2412 -1.6165
ENERGY: 70000 1.1085 3.8710 1.2285 0.0000 -23141.2966 3781.2161 0.0000 0.0000 895.1832 -18458.6892 91.0054 -19353.8724 -18456.1171 90.0711 -923.0806 -877.7879 47979.6369 0.3129 0.2940
ENERGY: 75000 0.4826 3.8026 1.3346 0.0000 -23192.8169 3823.2157 0.0000 0.0000 883.9613 -18480.0201 89.8646 -19363.9814 -18476.6477 89.9845 -697.7457 -669.7366 47889.9110 1.8422 2.1265
TCL: Running 25000 steps at 120 kelvin.
TCL: Setting parameter langevinTemp to 120
TCL: Running for 25000 steps
ETITLE: TS BOND ANGLE DIHED IMPRP ELECT VDW BOUNDARY MISC KINETIC TOTAL TEMP POTENTIAL TOTAL3 TEMPAVG PRESSURE GPRESSURE VOLUME PRESSAVG GPRESSAVG
ENERGY: 75000 0.4826 3.8026 1.3346 0.0000 -23192.8169 3823.2157 0.0000 0.0000 883.5265 -18480.4548 89.8204 -19363.9814 -18478.4304 89.8204 -716.8875 -669.0442 47889.9110 -716.8875 -669.0442
ENERGY: 80000 2.1116 2.2622 1.2253 0.0000 -22767.7971 3727.8511 0.0000 0.0000 1168.0114 -17866.3354 118.7414 -19034.3468 -17864.1340 116.1225 -484.9075 -383.7772 48025.3746 2.9808 3.4772
ENERGY: 85000 0.6963 3.6537 1.7431 0.0000 -22808.1367 3756.3897 0.0000 0.0000 1183.5977 -17862.0562 120.3260 -19045.6539 -17858.6626 118.6982 -311.0239 -259.9975 47933.2194 3.4067 3.5288
ENERGY: 90000 0.9764 4.3250 1.0018 0.0000 -22887.2652 3808.7175 0.0000 0.0000 1182.8081 -17889.4364 120.2457 -19072.2445 -17886.5048 120.3009 22.1670 71.2417 47842.5624 -1.5227 -1.1106
ENERGY: 95000 0.7413 4.1212 1.4348 0.0000 -22889.2564 3837.2667 0.0000 0.0000 1162.7955 -17882.8969 118.2112 -19045.6924 -17880.4861 120.3334 116.6278 156.7342 47816.0791 2.6823 2.5022
ENERGY: 100000 0.7151 3.4954 1.6907 0.0000 -23002.1239 3898.9640 0.0000 0.0000 1211.9274 -17885.3314 123.2060 -19097.2588 -17883.2119 121.1655 329.9338 362.2398 47775.6250 3.1852 3.6715
TCL: Running 25000 steps at 150 kelvin.
TCL: Setting parameter langevinTemp to 150
TCL: Running for 25000 steps
ETITLE: TS BOND ANGLE DIHED IMPRP ELECT VDW BOUNDARY MISC KINETIC TOTAL TEMP POTENTIAL TOTAL3 TEMPAVG PRESSURE GPRESSURE VOLUME PRESSAVG GPRESSAVG
ENERGY: 100000 0.7151 3.4954 1.6907 0.0000 -23002.1239 3898.9640 0.0000 0.0000 1211.3251 -17885.9336 123.1448 -19097.2588 -17883.3354 123.1448 304.2061 361.9167 47775.6250 304.2061 361.9167
ENERGY: 105000 0.9555 3.0486 1.7897 0.0000 -22324.8582 3603.8187 0.0000 0.0000 1451.2248 -17264.0208 147.5332 -18715.2457 -17260.7495 146.3203 -453.6436 -372.8582 48372.8843 2.2670 2.2804
ENERGY: 110000 1.2276 3.9939 1.9353 0.0000 -22350.2508 3626.6172 0.0000 0.0000 1490.2038 -17226.2730 151.4959 -18716.4768 -17222.6013 151.0640 -399.5218 -293.5721 48368.6664 3.2796 3.2052
ENERGY: 115000 1.4732 4.9703 1.7619 0.0000 -22382.3835 3566.1687 0.0000 0.0000 1462.6021 -17345.4072 148.6899 -18808.0093 -17341.6566 151.1403 -769.9054 -703.2280 48098.6880 2.1611 2.0791
ENERGY: 120000 2.2770 3.9043 1.5012 0.0000 -22463.2111 3625.0047 0.0000 0.0000 1489.4300 -17341.0938 151.4172 -18830.5238 -17337.5486 148.9604 -634.9869 -565.2018 48295.1944 2.7005 3.1476
ENERGY: 125000 0.4904 3.6156 1.8754 0.0000 -22421.7293 3602.4401 0.0000 0.0000 1501.3813 -17311.9265 152.6322 -18813.3077 -17308.0216 149.4783 -680.2624 -618.3183 48386.7417 3.6083 3.3118
TCL: Running 50000 steps at 180 kelvin.
TCL: Setting parameter langevinTemp to 180
TCL: Running for 50000 steps
ETITLE: TS BOND ANGLE DIHED IMPRP ELECT VDW BOUNDARY MISC KINETIC TOTAL TEMP POTENTIAL TOTAL3 TEMPAVG PRESSURE GPRESSURE VOLUME PRESSAVG GPRESSAVG
ENERGY: 125000 0.4904 3.6156 1.8754 0.0000 -22421.7293 3602.4401 0.0000 0.0000 1500.6614 -17312.6464 152.5590 -18813.3077 -17309.4506 152.5590 -672.9697 -618.9628 48386.7417 -672.9697 -618.9628
ENERGY: 135000 1.7526 6.7504 1.3786 0.0000 -21818.7302 3397.0389 0.0000 0.0000 1782.6232 -16629.1865 181.2236 -18411.8097 -16623.0133 179.5924 -842.1963 -778.9178 48616.1931 3.2700 3.4513
ENERGY: 145000 3.0247 6.0527 2.2567 0.0000 -22143.1542 3651.3266 0.0000 0.0000 1733.9976 -16746.4959 176.2803 -18480.4935 -16742.7817 178.4926 189.0773 264.4442 48330.5332 5.9735 5.5914
ENERGY: 155000 1.5512 6.5139 1.2464 0.0000 -22033.9394 3612.3593 0.0000 0.0000 1780.0918 -16632.1769 180.9663 -18412.2688 -16625.7998 179.2863 309.6123 387.7388 48201.3218 -0.2177 -0.1960
ENERGY: 165000 1.2131 7.2302 3.2043 0.0000 -21661.2997 3260.8867 0.0000 0.0000 1740.1480 -16648.6174 176.9055 -18388.7654 -16643.7105 180.3041 -1409.6627 -1338.1124 48472.1960 1.4170 1.2389
ENERGY: 175000 1.4638 2.8709 1.6638 0.0000 -21660.3845 3251.9696 0.0000 0.0000 1730.8454 -16671.5710 175.9598 -18402.4164 -16668.7985 179.2427 -1589.7870 -1525.0144 48914.3708 6.4035 6.9019
TCL: Running 50000 steps at 210 kelvin.
TCL: Setting parameter langevinTemp to 210
TCL: Running for 50000 steps
ETITLE: TS BOND ANGLE DIHED IMPRP ELECT VDW BOUNDARY MISC KINETIC TOTAL TEMP POTENTIAL TOTAL3 TEMPAVG PRESSURE GPRESSURE VOLUME PRESSAVG GPRESSAVG
ENERGY: 175000 1.4638 2.8709 1.6638 0.0000 -21660.3845 3251.9696 0.0000 0.0000 1729.9499 -16672.4665 175.8688 -18402.4164 -16669.1078 175.8688 -1585.7405 -1525.3790 48914.3708 -1585.7405 -1525.3790
ENERGY: 185000 1.2110 6.6382 2.1968 0.0000 -20840.7895 3099.9495 0.0000 0.0000 2028.5807 -15702.2133 206.2279 -17730.7940 -15697.1350 208.3481 -703.0756 -580.1479 48337.3314 5.7706 5.7791
ENERGY: 195000 1.7865 4.8207 1.8137 0.0000 -20773.6454 3101.9081 0.0000 0.0000 2030.9442 -15632.3721 206.4682 -17663.3164 -15630.2953 209.4618 -211.1122 -117.5177 47749.2361 -0.5325 0.5023
ENERGY: 205000 0.7919 8.9055 2.6452 0.0000 -20982.8142 3343.7704 0.0000 0.0000 2067.5586 -15559.1426 210.1905 -17626.7012 -15554.0108 211.4605 988.9813 1049.2285 47471.7569 3.6305 3.2754
ENERGY: 215000 1.0912 4.2811 1.6640 0.0000 -20888.6742 3305.2984 0.0000 0.0000 2032.0975 -15544.2419 206.5854 -17576.3394 -15542.0318 210.0467 648.7933 740.5625 48391.7275 1.7790 2.1688
ENERGY: 225000 3.1042 8.3267 1.3391 0.0000 -20924.9805 3172.9796 0.0000 0.0000 2014.7325 -15724.4982 204.8201 -17739.2308 -15722.7383 208.4824 -294.9280 -183.5881 48148.6046 3.3857 2.8588
TCL: Running 50000 steps at 240 kelvin.
TCL: Setting parameter langevinTemp to 240
TCL: Running for 50000 steps
ETITLE: TS BOND ANGLE DIHED IMPRP ELECT VDW BOUNDARY MISC KINETIC TOTAL TEMP POTENTIAL TOTAL3 TEMPAVG PRESSURE GPRESSURE VOLUME PRESSAVG GPRESSAVG
ENERGY: 225000 3.1042 8.3267 1.3391 0.0000 -20924.9805 3172.9796 0.0000 0.0000 2013.7113 -15725.5195 204.7163 -17739.2308 -15722.2630 204.7163 -270.7031 -184.7224 48148.6046 -270.7031 -184.7224
ENERGY: 235000 1.9508 5.2449 2.2831 0.0000 -19698.9091 2813.8335 0.0000 0.0000 2334.2185 -14541.3783 237.2994 -16875.5968 -14537.4775 239.2585 -345.4054 -306.0944 48877.4093 5.7917 5.9453
ENERGY: 245000 3.3103 4.7593 3.4382 0.0000 -19898.3266 2927.0007 0.0000 0.0000 2377.9088 -14581.9093 241.7410 -16959.8182 -14575.9166 239.2517 68.3963 129.9389 48666.9706 3.2646 3.3053
ENERGY: 255000 3.4194 6.7282 3.6705 0.0000 -20126.5097 3116.5546 0.0000 0.0000 2340.2235 -14655.9136 237.9099 -16996.1371 -14650.5545 239.1332 726.4055 802.8061 48863.6552 5.1291 5.0403
ENERGY: 265000 3.0932 6.4952 2.0474 0.0000 -19679.0719 2779.0343 0.0000 0.0000 2340.9287 -14547.4731 237.9816 -16888.4018 -14542.9792 240.0448 -418.1316 -334.2974 48886.6314 1.6973 2.1583
ENERGY: 275000 0.3607 7.4365 2.2876 0.0000 -19682.1011 2821.4815 0.0000 0.0000 2357.7916 -14492.7431 239.6959 -16850.5347 -14484.7881 239.9198 -380.6284 -302.5194 49199.3605 5.1350 5.2948
TCL: Running 50000 steps at 270 kelvin.
TCL: Setting parameter langevinTemp to 270
TCL: Running for 50000 steps
ETITLE: TS BOND ANGLE DIHED IMPRP ELECT VDW BOUNDARY MISC KINETIC TOTAL TEMP POTENTIAL TOTAL3 TEMPAVG PRESSURE GPRESSURE VOLUME PRESSAVG GPRESSAVG
ENERGY: 275000 0.3607 7.4365 2.2876 0.0000 -19682.1011 2821.4815 0.0000 0.0000 2356.6413 -14493.8934 239.5790 -16850.5347 -14489.8338 239.5790 -369.1198 -301.6172 49199.3605 -369.1198 -301.6172
ENERGY: 285000 1.2774 8.0445 1.8053 0.0000 -18691.0058 2619.4975 0.0000 0.0000 2649.6862 -13410.6950 269.3703 -16060.3812 -13406.5753 269.7460 195.8649 211.3321 49776.2321 3.8137 3.6056
ENERGY: 295000 1.2917 6.1600 1.5047 0.0000 -18775.1176 2549.6437 0.0000 0.0000 2642.4633 -13574.0544 268.6360 -16216.5176 -13569.8930 269.8474 -381.4867 -303.1389 49666.2451 3.5604 3.1848
ENERGY: 305000 2.4935 5.3961 2.8515 0.0000 -18848.9346 2647.1283 0.0000 0.0000 2713.7169 -13477.3483 275.8797 -16191.0653 -13469.5774 271.4486 -128.0957 -10.6707 50141.9469 2.2114 1.9325
ENERGY: 315000 0.8322 7.8397 1.8134 0.0000 -18723.6642 2550.8194 0.0000 0.0000 2603.8686 -13558.4908 264.7124 -16162.3594 -13553.1252 270.4298 -601.3998 -461.4495 50243.5443 0.7105 0.4596
ENERGY: 325000 2.5362 4.8548 2.7245 0.0000 -19017.2588 2800.8683 0.0000 0.0000 2716.0440 -13490.2310 276.1163 -16206.2750 -13485.6649 270.8844 1057.3568 1090.8736 49084.9782 4.2387 4.3505
TCL: Running 1000000 steps at 300 kelvin.
TCL: Setting parameter langevinTemp to 300
TCL: Running for 1000000 steps
ETITLE: TS BOND ANGLE DIHED IMPRP ELECT VDW BOUNDARY MISC KINETIC TOTAL TEMP POTENTIAL TOTAL3 TEMPAVG PRESSURE GPRESSURE VOLUME PRESSAVG GPRESSAVG
ENERGY: 325000 2.5362 4.8548 2.7245 0.0000 -19017.2588 2800.8683 0.0000 0.0000 2714.7096 -13491.5655 275.9806 -16206.2750 -13488.1096 275.9806 1003.8665 1091.0783 49084.9782 1003.8665 1091.0783
ENERGY: 525000 1.0873 7.9481 2.8278 0.0000 -17998.3181 2407.9343 0.0000 0.0000 2990.7998 -12587.7208 304.0483 -15578.5206 -12578.8586 297.9229 -53.0013 2.9208 51111.9291 3.5963 4.5313
ENERGY: 725000 1.1775 6.4046 1.3021 0.0000 -18003.6578 2405.0294 0.0000 0.0000 2938.4185 -12651.3256 298.7231 -15589.7441 -12647.3636 300.7049 -165.2516 -83.7756 50892.0577 1.8237 1.3841
ENERGY: 925000 2.5249 8.8374 4.8047 0.0000 -18067.2417 2438.4761 0.0000 0.0000 2934.1128 -12678.4858 298.2854 -15612.5986 -12672.0118 299.3545 124.7499 204.7332 50120.1983 -1.3256 -1.8245
ENERGY: 1125000 1.6541 7.7360 2.4928 0.0000 -17894.4591 2307.5274 0.0000 0.0000 2947.1902 -12627.8586 299.6149 -15575.0488 -12622.5275 300.7183 -721.5144 -667.0393 51383.4328 -0.4972 -1.2321
ENERGY: 1325000 2.0494 8.4934 1.6183 0.0000 -17857.3109 2301.6023 0.0000 0.0000 2937.1991 -12606.3484 298.5992 -15543.5475 -12597.1488 300.0081 -716.3204 -598.8084 51350.8104 2.1259 2.0710
TCL: Exiting due to exit command.
