Info: SIMULATION PARAMETERS:
Info: TIMESTEP               2
Info: NUMBER OF STEPS        0
Info: STEPS PER CYCLE        10
Info: PERIODIC CELL BASIS 1  30 0 0
Info: PERIODIC CELL BASIS 2  0 30 0
Info: PERIODIC CELL BASIS 3  0 0 30
Info: PERIODIC CELL CENTER   0 0 0
Info: WRAPPING ALL CLUSTERS AROUND PERIODIC BOUNDARIES ON OUTPUT.
Info: FIRST LDB TIMESTEP     50
Info: LAST LDB TIMESTEP     -1
Info: HOM BACKGROUND SCALING 1
Info: MIN ATOMS PER PATCH    40
Info: EMPTY PATCH LOAD       40 ATOMS
Info: INITIAL TEMPERATURE    298
Info: CENTER OF MASS MOVING INITIALLY? NO
Info: DIELECTRIC             1
Info: EXCLUDE                SCALED ONE-FOUR
Info: 1-4 ELECTROSTATICS SCALED BY 1
Info: MODIFIED 1-4 VDW PARAMETERS WILL BE USED
Info: DCD FILENAME           output.dcd
Info: DCD FREQUENCY          25000
Info: DCD FIRST STEP         25000
Info: DCD FILE WILL CONTAIN UNIT CELL DATA
Info: NO EXTENDED SYSTEM TRAJECTORY OUTPUT
Info: NO VELOCITY DCD OUTPUT
Info: NO FORCE DCD OUTPUT
Info: OUTPUT FILENAME        output
Info: BINARY OUTPUT FILES WILL BE USED
Info: NO RESTART FILE
Info: SWITCHING ACTIVE
Info: SWITCHING ON           10
Info: SWITCHING OFF          12
Info: PAIRLIST DISTANCE      14
Info: PAIRLIST SHRINK RATE   0.01
Info: PAIRLIST GROW RATE     0.01
Info: PAIRLIST TRIGGER       0.3
Info: PAIRLISTS PER CYCLE    2
Info: PAIRLISTS ENABLED
Info: MARGIN                 0
Info: HYDROGEN GROUP CUTOFF  2.5
Info: PATCH DIMENSION        16.5
Info: ENERGY OUTPUT STEPS    25000
Info: ENERGY EVALUATION STEPS    25000
Info: OUTPUT ENERGY PRECISION 4
Info: CROSSTERM ENERGY INCLUDED IN DIHEDRAL
Info: TIMING OUTPUT STEPS    250000
Info: LANGEVIN DYNAMICS ACTIVE
Info: LANGEVIN TEMPERATURE   298
Info: LANGEVIN USING BBK INTEGRATOR
Info: LANGEVIN DAMPING COEFFICIENT IS 1 INVERSE PS
Info: LANGEVIN DYNAMICS NOT APPLIED TO HYDROGENS
Info: MULTILEVEL SUMMATION METHOD (MSM) FOR ELECTROSTATICS ACTIVE
Info: MSM WITH C1 CUBIC INTERPOLATION AND C2 TAYLOR SPLITTING
Info: FULL ELECTROSTATIC EVALUATION FREQUENCY      2
Info: USING VERLET I (r-RESPA) MTS SCHEME.
Info: C1 SPLITTING OF LONG RANGE ELECTROSTATICS
Info: PLACING ATOMS IN PATCHES BY HYDROGEN GROUPS
Info: RIGID BONDS TO HYDROGEN : ALL
Info:         ERROR TOLERANCE : 1e-08
Info:          MAX ITERATIONS : 100
Info: RIGID WATER USING SETTLE ALGORITHM
Info: RANDOM NUMBER SEED     1740209674
Info: USE HYDROGEN BONDS?    NO
Info: COORDINATE PDB         ionized.pdb
Info: STRUCTURE FILE         ionized.psf
Info: PARAMETER file: CHARMM format!
Info: PARAMETERS             par_all27_prot_lipid.inp
Info: USING ARITHMETIC MEAN TO COMBINE L-J SIGMA PARAMETERS
Info: SUMMARY OF PARAMETERS:
Info: 180 BONDS
Info: 447 ANGLES
Info: 566 DIHEDRAL
Info: 46 IMPROPER
Info: 6 CROSSTERM
Info: 119 VDW
Info: 0 VDW_PAIRS
Info: 0 NBTHOLE_PAIRS
Info: STRUCTURE SUMMARY:
Info: 2476 ATOMS
Info: 1650 BONDS
Info: 825 ANGLES
Info: 0 DIHEDRALS
Info: 0 IMPROPERS
Info: 0 CROSSTERMS
Info: 0 EXCLUSIONS
Info: 2475 RIGID BONDS
Info: 4953 DEGREES OF FREEDOM
Info: 826 HYDROGEN GROUPS
Info: 3 ATOMS IN LARGEST HYDROGEN GROUP
Info: 826 MIGRATION GROUPS
Info: 3 ATOMS IN LARGEST MIGRATION GROUP
Info: TOTAL MASS = 14885.7 amu
Info: TOTAL CHARGE = 1 e
Info: MASS DENSITY = 0.915513 g/cm^3
Info: ATOM DENSITY = 0.0917037 atoms/A^3
Info: ADDED 2475 IMPLICIT EXCLUSIONS
Info: NONBONDED TABLE R-SQUARED SPACING: 0.0625
Info: NONBONDED TABLE SIZE: 769 POINTS
Info: REMOVING COM VELOCITY 0.0987623 0.0475387 0.018815
Info: MSM using C1 cubic interpolation
Info: MSM using C2 Taylor splitting function
Info: MSM block size decomposition along X is 8 grid points
Info: MSM block size decomposition along Y is 8 grid points
Info: MSM block size decomposition along Z is 8 grid points
Info: MSM grid spacing along X is 2.5 A
Info: MSM grid spacing along Y is 2.5 A
Info: MSM grid spacing along Z is 2.5 A
Info: MSM using 3 levels
Info:     level 0:  [0..11] x [0..11] x [0..11]
Info:     level 1:  [0..5] x [0..5] x [0..5]
Info:     level 2:  [0..2] x [0..2] x [0..2]
Info: MSM finished calculating stencils
Info: MSM finished creating map for grid levels
Info: MSM finished creating map for patches
Info: MSM has 3 interpolation / anterpolation objects (one per patch)
Info: MSM grid level 0 decomposed into 8 blocks ( 2 x 2 x 2 )
Info: MSM grid level 1 decomposed into 1 block ( 1 x 1 x 1 )
Info: MSM grid level 2 decomposed into 1 block ( 1 x 1 x 1 )
Info: MSM grid cutoff calculation decomposed into 783 work objects
TCL: Minimizing for 100 steps
ETITLE: TS BOND ANGLE DIHED IMPRP ELECT VDW BOUNDARY MISC KINETIC TOTAL TEMP POTENTIAL TOTAL3 TEMPAVG PRESSURE GPRESSURE VOLUME PRESSAVG GPRESSAVG
ENERGY: 0 0.0000 0.0000 0.0000 0.0000 -7348.6497 6353.7252 0.0000 0.0000 0.0000 -994.9245 0.0000 -994.9245 -994.9245 0.0000 75204.0846 45721.9269 27000.0000 75204.0846 45721.9269
ENERGY: 20 0.0000 0.0000 0.0000 0.0000 -8744.5974 644.7588 0.0000 0.0000 0.0000 -8099.8386 0.0000 -8099.8386 -8099.8386 0.0000 14286.6722 -2211.8574 27000.0000 14286.6722 -2211.8574
ENERGY: 40 0.0000 0.0000 0.0000 0.0000 -9255.3676 673.7887 0.0000 0.0000 0.0000 -8581.5788 0.0000 -8581.5788 -8581.5788 0.0000 14306.7125 -3064.4685 27000.0000 14306.7125 -3064.4685
ENERGY: 60 0.0000 0.0000 0.0000 0.0000 -9570.7002 738.1054 0.0000 0.0000 0.0000 -8832.5948 0.0000 -8832.5948 -8832.5948 0.0000 14889.9943 -3011.2730 27000.0000 14889.9943 -3011.2730
ENERGY: 80 0.0000 0.0000 0.0000 0.0000 -9709.8800 782.3567 0.0000 0.0000 0.0000 -8927.5233 0.0000 -8927.5233 -8927.5233 0.0000 15330.6208 -2810.6468 27000.0000 15330.6208 -2810.6468
ENERGY: 100 0.0000 0.0000 0.0000 0.0000 -9872.7463 825.2590 0.0000 0.0000 0.0000 -9047.4873 0.0000 -9047.4873 -9047.4873 0.0000 15763.4134 10563.3500 27000.0000 15763.4134 10563.3500
TCL: Running for 5000000 steps
ETITLE: TS BOND ANGLE DIHED IMPRP ELECT VDW BOUNDARY MISC KINETIC TOTAL TEMP POTENTIAL TOTAL3 TEMPAVG PRESSURE GPRESSURE VOLUME PRESSAVG GPRESSAVG
ENERGY: 25000 0.0000 0.0000 0.0000 0.0000 -8855.4599 827.4660 0.0000 0.0000 1504.6401 -6523.3537 305.7417 -8027.9939 -6519.5176 290.3871 -1522.7422 -1483.0853 27000.0000 -1393.1264 -1393.1781
ENERGY: 1025000 0.0000 0.0000 0.0000 0.0000 -8780.6743 831.1789 0.0000 0.0000 1425.2701 -6524.2253 289.6138 -7949.4954 -6520.8609 297.4395 -1360.1509 -1324.1210 27000.0000 -1329.5764 -1329.5069
ENERGY: 2025000 0.0000 0.0000 0.0000 0.0000 -8923.3163 929.4007 0.0000 0.0000 1401.2111 -6592.7044 284.7250 -7993.9156 -6589.5851 298.6592 -678.7204 -652.7249 27000.0000 -1275.1529 -1275.1355
ENERGY: 3000000 0.0000 0.0000 0.0000 0.0000 -8915.7248 893.0857 0.0000 0.0000 1425.2440 -6597.3952 289.6085 -8022.6392 -6593.9064 296.6708 -991.6052 -964.1142 27000.0000 -1313.8923 -1313.9307
ENERGY: 4000000 0.0000 0.0000 0.0000 0.0000 -8814.2126 845.1826 0.0000 0.0000 1498.2171 -6470.8130 304.4366 -7969.0300 -6467.3571 298.7970 -1256.9675 -1230.7197 27000.0000 -1275.7638 -1275.7810
ENERGY: 5000000 0.0000 0.0000 0.0000 0.0000 -8778.2755 863.6633 0.0000 0.0000 1455.7386 -6458.8736 295.8050 -7914.6123 -6453.8670 296.7785 -809.8056 -771.4716 27000.0000 -1331.2037 -1331.1651
