Info: SIMULATION PARAMETERS:
Info: TIMESTEP               2
Info: NUMBER OF STEPS        0
Info: STEPS PER CYCLE        10
Info: PERIODIC CELL BASIS 1  34.986 0 0
Info: PERIODIC CELL BASIS 2  0 34.1 0
Info: PERIODIC CELL BASIS 3  0 0 36.199
Info: PERIODIC CELL CENTER   0 0 0
Info: WRAPPING WATERS AROUND PERIODIC BOUNDARIES ON OUTPUT.
Info: WRAPPING ALL CLUSTERS AROUND PERIODIC BOUNDARIES ON OUTPUT.
Info: FIRST LDB TIMESTEP     50
Info: LAST LDB TIMESTEP     -1
Info: HOM BACKGROUND SCALING 1
Info: PME BACKGROUND SCALING 1
Info: MIN ATOMS PER PATCH    40
Info: EMPTY PATCH LOAD       40 ATOMS
Info: INITIAL TEMPERATURE    300
Info: CENTER OF MASS MOVING INITIALLY? NO
Info: DIELECTRIC             1
Info: EXCLUDE                SCALED ONE-FOUR
Info: 1-4 ELECTROSTATICS SCALED BY 0.833333
Info: MODIFIED 1-4 VDW PARAMETERS WILL BE USED
Info: DCD FILENAME           mobley_2789243_equil.dcd
Info: DCD FREQUENCY          100000
Info: DCD FIRST STEP         100000
Info: DCD FILE WILL CONTAIN UNIT CELL DATA
Info: XST FILENAME           mobley_2789243_equil.xst
Info: XST FREQUENCY          100000
Info: NO VELOCITY DCD OUTPUT
Info: NO FORCE DCD OUTPUT
Info: OUTPUT FILENAME        mobley_2789243_equil
Info: BINARY OUTPUT FILES WILL BE USED
Info: RESTART FILENAME       mobley_2789243_equil.restart
Info: RESTART FREQUENCY      100000
Info: BINARY RESTART FILES WILL BE USED
Info: CUTOFF                 9
Info: PAIRLIST DISTANCE      11
Info: PAIRLIST SHRINK RATE   0.01
Info: PAIRLIST GROW RATE     0.01
Info: PAIRLIST TRIGGER       0.3
Info: PAIRLISTS PER CYCLE    2
Info: PAIRLISTS ENABLED
Info: MARGIN                 8
Info: HYDROGEN GROUP CUTOFF  2.5
Info: PATCH DIMENSION        21.5
Info: ENERGY OUTPUT STEPS    100000
Info: ENERGY EVALUATION STEPS    100000
Info: OUTPUT ENERGY PRECISION 4
Info: CROSSTERM ENERGY INCLUDED IN DIHEDRAL
Info: TIMING OUTPUT STEPS    1000000
Info: PRESSURE OUTPUT STEPS  100000
Info: LANGEVIN DYNAMICS ACTIVE
Info: LANGEVIN TEMPERATURE   30
Info: LANGEVIN USING BBK INTEGRATOR
Info: LANGEVIN DAMPING COEFFICIENT IS 1 INVERSE PS
Info: LANGEVIN DYNAMICS APPLIED TO HYDROGENS
Info: LANGEVIN PISTON PRESSURE CONTROL ACTIVE
Info:        TARGET PRESSURE IS 1.01325 BAR
Info:     OSCILLATION PERIOD IS 50 FS
Info:             DECAY TIME IS 25 FS
Info:     PISTON TEMPERATURE IS 300 K
Info:       PRESSURE CONTROL IS GROUP-BASED
Info:    INITIAL STRAIN RATE IS 0 0 0
Info:       CELL FLUCTUATION IS ISOTROPIC
Info: PARTICLE MESH EWALD (PME) ACTIVE
Info: PME TOLERANCE               1e-06
Info: PME EWALD COEFFICIENT       0.348832
Info: PME INTERPOLATION ORDER     4
Info: PME GRID DIMENSIONS         36 36 40
Info: PME MAXIMUM GRID SPACING    1
Info: FULL ELECTROSTATIC EVALUATION FREQUENCY      2
Info: USING VERLET I (r-RESPA) MTS SCHEME.
Info: C1 SPLITTING OF LONG RANGE ELECTROSTATICS
Info: PLACING ATOMS IN PATCHES BY HYDROGEN GROUPS
Info: RIGID BONDS TO HYDROGEN : ALL
Info:         ERROR TOLERANCE : 1e-08
Info:          MAX ITERATIONS : 100
Info: RIGID WATER USING SETTLE ALGORITHM
Info: RANDOM NUMBER SEED     1742012257
Info: USE HYDROGEN BONDS?    NO
Info: Using AMBER format force field!
Info: AMBER PARM FILE        mobley_2789243.prmtop
Info: COORDINATE PDB         mobley_2789243.pdb
Info: Exclusions will be read from PARM file!
Info: SCNB (VDW SCALING)     2
Info: USING ARITHMETIC MEAN TO COMBINE L-J SIGMA PARAMETERS
Info: BINARY COORDINATES     mobley_2789243_min.coor
Info: SUMMARY OF PARAMETERS:
Info: 7 BONDS
Info: 7 ANGLES
Info:   7 HARMONIC
Info:   0 COSINE-BASED
Info: 3 DIHEDRAL
Info: 0 IMPROPER
Info: 0 CROSSTERM
Info: 0 VDW
Info: 28 VDW_PAIRS
Info: 0 NBTHOLE_PAIRS
Info: STRUCTURE SUMMARY:
Info: 2921 ATOMS
Info: 2921 BONDS
Info: 16 ANGLES
Info: 23 DIHEDRALS
Info: 0 IMPROPERS
Info: 0 CROSSTERMS
Info: 2954 EXCLUSIONS
Info: 2914 RIGID BONDS
Info: 5849 DEGREES OF FREEDOM
Info: 977 HYDROGEN GROUPS
Info: 3 ATOMS IN LARGEST HYDROGEN GROUP
Info: 977 MIGRATION GROUPS
Info: 3 ATOMS IN LARGEST MIGRATION GROUP
Info: TOTAL MASS = 17589.1 amu
Info: TOTAL CHARGE = 0.000200003 e
Info: MASS DENSITY = 0.676327 g/cm^3
Info: ATOM DENSITY = 0.0676373 atoms/A^3
Info: ADDED 0 IMPLICIT EXCLUSIONS
Info: NONBONDED TABLE R-SQUARED SPACING: 0.0625
Info: NONBONDED TABLE SIZE: 705 POINTS
Info: REMOVING COM VELOCITY 0.0101208 0.0148718 0.00933404
TCL: Running for 100000 steps
ETITLE: TS BOND ANGLE DIHED IMPRP ELECT VDW BOUNDARY MISC KINETIC TOTAL TEMP POTENTIAL TOTAL3 TEMPAVG PRESSURE GPRESSURE VOLUME PRESSAVG GPRESSAVG
ENERGY: 0 0.2398 0.2040 0.0056 0.0000 -13580.5391 2410.6739 0.0000 0.0000 1771.6631 -9397.7526 304.8526 -11169.4158 -9397.4023 304.8526 531.0550 565.5455 43186.2251 531.0550 565.5455
ENERGY: 100000 0.7021 0.7831 0.2510 0.0000 -14013.5726 2359.2294 0.0000 0.0000 173.2831 -11479.3238 29.8171 -11652.6069 -11479.0525 30.9344 -857.6698 -808.9853 28577.7033 4.1727 4.1892
TCL: Running 100000 steps at 60 kelvin.
TCL: Setting parameter langevinTemp to 60
TCL: Running for 100000 steps
ETITLE: TS BOND ANGLE DIHED IMPRP ELECT VDW BOUNDARY MISC KINETIC TOTAL TEMP POTENTIAL TOTAL3 TEMPAVG PRESSURE GPRESSURE VOLUME PRESSAVG GPRESSAVG
ENERGY: 100000 0.7021 0.7831 0.2510 0.0000 -14013.5726 2359.2294 0.0000 0.0000 173.1953 -11479.4116 29.8020 -11652.6069 -11479.0708 29.8020 -868.4029 -809.0664 28577.7033 -868.4029 -809.0664
ENERGY: 200000 0.8310 0.5351 0.3811 0.0000 -13892.2445 2296.4320 0.0000 0.0000 341.7944 -11252.2710 58.8130 -11594.0654 -11251.4394 59.9653 -1109.1078 -1044.7463 28509.2431 3.5358 3.4804
TCL: Running 100000 steps at 90 kelvin.
TCL: Setting parameter langevinTemp to 90
TCL: Running for 100000 steps
ETITLE: TS BOND ANGLE DIHED IMPRP ELECT VDW BOUNDARY MISC KINETIC TOTAL TEMP POTENTIAL TOTAL3 TEMPAVG PRESSURE GPRESSURE VOLUME PRESSAVG GPRESSAVG
ENERGY: 200000 0.8310 0.5351 0.3811 0.0000 -13892.2445 2296.4320 0.0000 0.0000 341.6216 -11252.4438 58.7833 -11594.0654 -11251.6503 58.7833 -1095.4159 -1045.1019 28509.2431 -1095.4159 -1045.1019
ENERGY: 300000 0.4092 1.3727 0.5227 0.0000 -13814.6190 2341.7691 0.0000 0.0000 531.1650 -10939.3804 91.3983 -11470.5454 -10937.6272 89.9962 -245.7690 -178.2569 28492.9770 4.2359 4.2918
TCL: Running 100000 steps at 120 kelvin.
TCL: Setting parameter langevinTemp to 120
TCL: Running for 100000 steps
ETITLE: TS BOND ANGLE DIHED IMPRP ELECT VDW BOUNDARY MISC KINETIC TOTAL TEMP POTENTIAL TOTAL3 TEMPAVG PRESSURE GPRESSURE VOLUME PRESSAVG GPRESSAVG
ENERGY: 300000 0.4092 1.3727 0.5227 0.0000 -13814.6190 2341.7691 0.0000 0.0000 530.9023 -10939.6431 91.3531 -11470.5454 -10938.5168 91.3531 -225.2655 -177.6637 28492.9770 -225.2655 -177.6637
ENERGY: 400000 1.3869 1.1158 0.7676 0.0000 -13570.3978 2203.9227 0.0000 0.0000 700.5589 -10662.6457 120.5462 -11363.2046 -10661.2529 119.9257 -941.9840 -908.5320 28463.8309 3.4596 3.4187
TCL: Running 100000 steps at 150 kelvin.
TCL: Setting parameter langevinTemp to 150
TCL: Running for 100000 steps
ETITLE: TS BOND ANGLE DIHED IMPRP ELECT VDW BOUNDARY MISC KINETIC TOTAL TEMP POTENTIAL TOTAL3 TEMPAVG PRESSURE GPRESSURE VOLUME PRESSAVG GPRESSAVG
ENERGY: 400000 1.3869 1.1158 0.7676 0.0000 -13570.3978 2203.9227 0.0000 0.0000 700.2008 -10663.0039 120.4845 -11363.2046 -10661.3187 120.4845 -956.1377 -910.0378 28463.8309 -956.1377 -910.0378
ENERGY: 500000 1.4571 2.0810 0.7705 0.0000 -13257.6157 2118.1840 0.0000 0.0000 864.8176 -10270.3055 148.8104 -11135.1231 -10268.1088 149.7702 -907.8327 -896.7666 28733.9831 5.2423 5.2614
TCL: Running 100000 steps at 180 kelvin.
TCL: Setting parameter langevinTemp to 180
TCL: Running for 100000 steps
ETITLE: TS BOND ANGLE DIHED IMPRP ELECT VDW BOUNDARY MISC KINETIC TOTAL TEMP POTENTIAL TOTAL3 TEMPAVG PRESSURE GPRESSURE VOLUME PRESSAVG GPRESSAVG
ENERGY: 500000 1.4571 2.0810 0.7705 0.0000 -13257.6157 2118.1840 0.0000 0.0000 864.3838 -10270.7393 148.7358 -11135.1231 -10268.8760 148.7358 -950.1886 -896.0749 28733.9831 -950.1886 -896.0749
ENERGY: 600000 1.1899 1.2532 1.0444 0.0000 -12919.4287 2050.0297 0.0000 0.0000 1104.9614 -9760.9502 190.1323 -10865.9116 -9758.5218 179.7177 -49.0922 20.5457 28489.1249 3.0497 2.9921
TCL: Running 100000 steps at 210 kelvin.
TCL: Setting parameter langevinTemp to 210
TCL: Running for 100000 steps
ETITLE: TS BOND ANGLE DIHED IMPRP ELECT VDW BOUNDARY MISC KINETIC TOTAL TEMP POTENTIAL TOTAL3 TEMPAVG PRESSURE GPRESSURE VOLUME PRESSAVG GPRESSAVG
ENERGY: 600000 1.1899 1.2532 1.0444 0.0000 -12919.4287 2050.0297 0.0000 0.0000 1104.4304 -9761.4811 190.0409 -10865.9116 -9759.3225 190.0409 -44.6623 21.3658 28489.1249 -44.6623 21.3658
ENERGY: 700000 2.0675 2.5388 2.0388 0.0000 -12209.0685 1793.9943 0.0000 0.0000 1200.2728 -9208.1563 206.5326 -10408.4291 -9204.3934 209.6975 -934.1870 -864.1764 28903.4216 3.7719 3.5506
TCL: Running 100000 steps at 240 kelvin.
TCL: Setting parameter langevinTemp to 240
TCL: Running for 100000 steps
ETITLE: TS BOND ANGLE DIHED IMPRP ELECT VDW BOUNDARY MISC KINETIC TOTAL TEMP POTENTIAL TOTAL3 TEMPAVG PRESSURE GPRESSURE VOLUME PRESSAVG GPRESSAVG
ENERGY: 700000 2.0675 2.5388 2.0388 0.0000 -12209.0685 1793.9943 0.0000 0.0000 1199.6836 -9208.7455 206.4313 -10408.4291 -9206.4114 206.4313 -937.4742 -863.4707 28903.4216 -937.4742 -863.4707
ENERGY: 800000 3.6052 2.2776 0.8250 0.0000 -11776.1579 1775.6514 0.0000 0.0000 1462.3488 -8531.4499 251.6284 -9993.7987 -8526.1584 239.3191 603.7281 680.8810 28584.9031 3.3313 3.3520
TCL: Running 100000 steps at 270 kelvin.
TCL: Setting parameter langevinTemp to 270
TCL: Running for 100000 steps
ETITLE: TS BOND ANGLE DIHED IMPRP ELECT VDW BOUNDARY MISC KINETIC TOTAL TEMP POTENTIAL TOTAL3 TEMPAVG PRESSURE GPRESSURE VOLUME PRESSAVG GPRESSAVG
ENERGY: 800000 3.6052 2.2776 0.8250 0.0000 -11776.1579 1775.6514 0.0000 0.0000 1461.6543 -8532.1444 251.5089 -9993.7987 -8529.3828 251.5089 596.9764 681.6405 28584.9031 596.9764 681.6405
ENERGY: 900000 1.3313 1.8775 1.2001 0.0000 -11134.3980 1579.7062 0.0000 0.0000 1557.3219 -7992.9610 267.9706 -9550.2829 -7990.9794 269.6682 69.5139 265.0812 29607.3585 3.6304 3.5036
TCL: Running 1000000 steps at 300 kelvin.
TCL: Setting parameter langevinTemp to 300
TCL: Running for 1000000 steps
ETITLE: TS BOND ANGLE DIHED IMPRP ELECT VDW BOUNDARY MISC KINETIC TOTAL TEMP POTENTIAL TOTAL3 TEMPAVG PRESSURE GPRESSURE VOLUME PRESSAVG GPRESSAVG
ENERGY: 900000 1.3313 1.8775 1.2001 0.0000 -11134.3980 1579.7062 0.0000 0.0000 1556.5695 -7993.7135 267.8411 -9550.2829 -7990.8510 267.8411 170.5163 264.6192 29607.3585 170.5163 264.6192
ENERGY: 1100000 1.7614 2.5328 1.3474 0.0000 -10675.1300 1496.8577 0.0000 0.0000 1738.4707 -7434.1599 299.1411 -9172.6306 -7431.1673 300.1162 545.2427 693.5112 29965.5199 3.9923 3.9120
ENERGY: 1300000 4.1793 2.7573 3.3918 0.0000 -10633.4528 1445.8595 0.0000 0.0000 1743.6906 -7433.5742 300.0393 -9177.2648 -7430.6853 300.6198 -41.7363 96.2318 30042.4918 3.6062 3.5471
ENERGY: 1500000 2.5334 1.8041 3.5633 0.0000 -10658.7260 1416.8451 0.0000 0.0000 1701.9363 -7532.0440 292.8546 -9233.9802 -7529.6516 300.0510 -395.2760 -357.0117 30057.0538 3.0890 3.2684
ENERGY: 1700000 0.8945 1.9770 2.9668 0.0000 -10652.3712 1463.6060 0.0000 0.0000 1735.2738 -7447.6531 298.5910 -9182.9268 -7445.9830 300.4591 340.3794 422.7164 30013.2373 3.6191 3.5723
ENERGY: 1900000 1.7261 0.6210 2.5285 0.0000 -10441.8951 1316.1178 0.0000 0.0000 1722.2058 -7398.6958 296.3424 -9120.9017 -7393.9573 300.6274 -970.4520 -829.4772 30379.5841 4.4600 4.4260
TCL: Exiting due to exit command.
