Info: SIMULATION PARAMETERS:
Info: TIMESTEP               2
Info: NUMBER OF STEPS        0
Info: STEPS PER CYCLE        10
Info: PERIODIC CELL BASIS 1  41.027 0 0
Info: PERIODIC CELL BASIS 2  0 41.628 0
Info: PERIODIC CELL BASIS 3  0 0 42.04
Info: PERIODIC CELL CENTER   0 0 0
Info: WRAPPING WATERS AROUND PERIODIC BOUNDARIES ON OUTPUT.
Info: WRAPPING ALL CLUSTERS AROUND PERIODIC BOUNDARIES ON OUTPUT.
Info: FIRST LDB TIMESTEP     50
Info: LAST LDB TIMESTEP     -1
Info: HOM BACKGROUND SCALING 1
Info: PME BACKGROUND SCALING 1
Info: MIN ATOMS PER PATCH    40
Info: EMPTY PATCH LOAD       40 ATOMS
Info: INITIAL TEMPERATURE    300
Info: CENTER OF MASS MOVING INITIALLY? NO
Info: DIELECTRIC             1
Info: EXCLUDE                SCALED ONE-FOUR
Info: 1-4 ELECTROSTATICS SCALED BY 0.833333
Info: MODIFIED 1-4 VDW PARAMETERS WILL BE USED
Info: DCD FILENAME           mobley_6978427_min.dcd
Info: DCD FREQUENCY          5000
Info: DCD FIRST STEP         5000
Info: DCD FILE WILL CONTAIN UNIT CELL DATA
Info: XST FILENAME           mobley_6978427_min.xst
Info: XST FREQUENCY          5000
Info: NO VELOCITY DCD OUTPUT
Info: NO FORCE DCD OUTPUT
Info: OUTPUT FILENAME        mobley_6978427_min
Info: BINARY OUTPUT FILES WILL BE USED
Info: RESTART FILENAME       mobley_6978427_min.restart
Info: RESTART FREQUENCY      5000
Info: BINARY RESTART FILES WILL BE USED
Info: CUTOFF                 9
Info: PAIRLIST DISTANCE      11
Info: PAIRLIST SHRINK RATE   0.01
Info: PAIRLIST GROW RATE     0.01
Info: PAIRLIST TRIGGER       0.3
Info: PAIRLISTS PER CYCLE    2
Info: PAIRLISTS ENABLED
Info: MARGIN                 8
Info: HYDROGEN GROUP CUTOFF  2.5
Info: PATCH DIMENSION        21.5
Info: ENERGY OUTPUT STEPS    5000
Info: ENERGY EVALUATION STEPS    5000
Info: OUTPUT ENERGY PRECISION 4
Info: CROSSTERM ENERGY INCLUDED IN DIHEDRAL
Info: TIMING OUTPUT STEPS    50000
Info: PRESSURE OUTPUT STEPS  5000
Info: LANGEVIN DYNAMICS ACTIVE
Info: LANGEVIN TEMPERATURE   300
Info: LANGEVIN USING BBK INTEGRATOR
Info: LANGEVIN DAMPING COEFFICIENT IS 1 INVERSE PS
Info: LANGEVIN DYNAMICS APPLIED TO HYDROGENS
Info: LANGEVIN PISTON PRESSURE CONTROL ACTIVE
Info:        TARGET PRESSURE IS 1.01325 BAR
Info:     OSCILLATION PERIOD IS 50 FS
Info:             DECAY TIME IS 25 FS
Info:     PISTON TEMPERATURE IS 300 K
Info:       PRESSURE CONTROL IS GROUP-BASED
Info:    INITIAL STRAIN RATE IS 0 0 0
Info:       CELL FLUCTUATION IS ISOTROPIC
Info: PARTICLE MESH EWALD (PME) ACTIVE
Info: PME TOLERANCE               1e-06
Info: PME EWALD COEFFICIENT       0.348832
Info: PME INTERPOLATION ORDER     4
Info: PME GRID DIMENSIONS         44 44 44
Info: PME MAXIMUM GRID SPACING    1
Info: FULL ELECTROSTATIC EVALUATION FREQUENCY      2
Info: USING VERLET I (r-RESPA) MTS SCHEME.
Info: C1 SPLITTING OF LONG RANGE ELECTROSTATICS
Info: PLACING ATOMS IN PATCHES BY HYDROGEN GROUPS
Info: RIGID BONDS TO HYDROGEN : ALL
Info:         ERROR TOLERANCE : 1e-08
Info:          MAX ITERATIONS : 100
Info: RIGID WATER USING SETTLE ALGORITHM
Info: RANDOM NUMBER SEED     1741405771
Info: USE HYDROGEN BONDS?    NO
Info: Using AMBER format force field!
Info: AMBER PARM FILE        mobley_6978427.prmtop
Info: COORDINATE PDB         mobley_6978427.pdb
Info: Exclusions will be read from PARM file!
Info: SCNB (VDW SCALING)     2
Info: USING ARITHMETIC MEAN TO COMBINE L-J SIGMA PARAMETERS
Info: SUMMARY OF PARAMETERS:
Info: 9 BONDS
Info: 11 ANGLES
Info:   11 HARMONIC
Info:   0 COSINE-BASED
Info: 20 DIHEDRAL
Info: 0 IMPROPER
Info: 0 CROSSTERM
Info: 0 VDW
Info: 36 VDW_PAIRS
Info: 0 NBTHOLE_PAIRS
Info: STRUCTURE SUMMARY:
Info: 5208 ATOMS
Info: 5208 BONDS
Info: 46 ANGLES
Info: 78 DIHEDRALS
Info: 0 IMPROPERS
Info: 0 CROSSTERMS
Info: 5316 EXCLUSIONS
Info: 5198 RIGID BONDS
Info: 10426 DEGREES OF FREEDOM
Info: 1738 HYDROGEN GROUPS
Info: 4 ATOMS IN LARGEST HYDROGEN GROUP
Info: 1738 MIGRATION GROUPS
Info: 4 ATOMS IN LARGEST MIGRATION GROUP
Info: TOTAL MASS = 31273.8 amu
Info: TOTAL CHARGE = -0.000199955 e
Info: MASS DENSITY = 0.723307 g/cm^3
Info: ATOM DENSITY = 0.0725359 atoms/A^3
Info: ADDED 0 IMPLICIT EXCLUSIONS
Info: NONBONDED TABLE R-SQUARED SPACING: 0.0625
Info: NONBONDED TABLE SIZE: 705 POINTS
Info: REMOVING COM VELOCITY 0.0330776 0.0304411 0.0892252
TCL: Minimizing for 2000 steps
ETITLE: TS BOND ANGLE DIHED IMPRP ELECT VDW BOUNDARY MISC KINETIC TOTAL TEMP POTENTIAL TOTAL3 TEMPAVG PRESSURE GPRESSURE VOLUME PRESSAVG GPRESSAVG
ENERGY: 0 0.2682 0.9335 14.8591 0.0000 -16206.5775 1818.8831 0.0000 0.0000 0.0000 -14371.6337 0.0000 -14371.6337 -14371.6337 0.0000 11166.6568 -15855.4490 71798.9370 11166.6568 -15855.4490
ENERGY: 400 2.7819 3.0089 9.7832 0.0000 -21762.3822 3098.2901 0.0000 0.0000 0.0000 -18648.5182 0.0000 -18648.5182 -18648.5182 0.0000 15496.3390 15650.9600 71798.9370 15496.3390 15650.9600
ENERGY: 800 1.2200 1.1726 9.8262 0.0000 -22799.1933 3561.6909 0.0000 0.0000 0.0000 -19225.2836 0.0000 -19225.2836 -19225.2836 0.0000 17475.6902 17593.3790 71798.9370 17475.6902 17593.3790
ENERGY: 1200 1.0089 0.8325 9.8029 0.0000 -23231.0810 3767.4703 0.0000 0.0000 0.0000 -19451.9664 0.0000 -19451.9664 -19451.9664 0.0000 18384.8536 18491.9380 71798.9370 18384.8536 18491.9380
ENERGY: 1600 0.7644 0.8633 9.7729 0.0000 -23543.7474 3924.4530 0.0000 0.0000 0.0000 -19607.8938 0.0000 -19607.8938 -19607.8938 0.0000 19129.2596 19221.2174 71798.9370 19129.2596 19221.2174
ENERGY: 2000 1.0767 1.0680 9.7741 0.0000 -23735.1173 4018.7357 0.0000 0.0000 0.0000 -19704.4630 0.0000 -19704.4630 -19704.4630 0.0000 19602.4159 19683.4154 71798.9370 19602.4159 19683.4154
TCL: Exiting due to exit command.
Info: NAMD 3.0.1 for Linux-x86_64-multicore
Info: Please visit http://www.ks.uiuc.edu/Research/namd/
Info: for updates, documentation, and support information.
Info: Please cite Phillips et al., J. Chem. Phys. 153:044130 (2020) doi:10.1063/5.0014475
Info: in all publications reporting results obtained with NAMD.
Info: Based on Charm++/Converse 80000 for multicore-linux-x86_64-gcc
Info: Built Mon Oct 14 11:11:06 CDT 2024 by dhardy on athine.ks.uiuc.edu
Info: 1 NAMD  3.0.1  Linux-x86_64-multicore  16    k007  z5358697
Info: Running on 16 processors, 1 nodes, 1 physical nodes.
Info: CPU topology information available.
Info: Charm++/Converse parallel runtime startup completed at 0.00934681 s
Info: 1043.45 MB of memory in use based on /proc/self/stat
Info: Configuration file is mobley_6978427_equil.namd
Info: Working in the current directory /srv/scratch/z5358697/prod_prep_8/6978427
TCL: Running 25000 steps at 30 kelvin.
TCL: Suspending until startup complete.
Info: SIMULATION PARAMETERS:
Info: TIMESTEP               2
Info: NUMBER OF STEPS        0
Info: STEPS PER CYCLE        10
Info: PERIODIC CELL BASIS 1  41.027 0 0
Info: PERIODIC CELL BASIS 2  0 41.628 0
Info: PERIODIC CELL BASIS 3  0 0 42.04
Info: PERIODIC CELL CENTER   0 0 0
Info: WRAPPING WATERS AROUND PERIODIC BOUNDARIES ON OUTPUT.
Info: WRAPPING ALL CLUSTERS AROUND PERIODIC BOUNDARIES ON OUTPUT.
Info: FIRST LDB TIMESTEP     50
Info: LAST LDB TIMESTEP     -1
Info: HOM BACKGROUND SCALING 1
Info: PME BACKGROUND SCALING 1
Info: MIN ATOMS PER PATCH    40
Info: EMPTY PATCH LOAD       40 ATOMS
Info: INITIAL TEMPERATURE    300
Info: CENTER OF MASS MOVING INITIALLY? NO
Info: DIELECTRIC             1
Info: EXCLUDE                SCALED ONE-FOUR
Info: 1-4 ELECTROSTATICS SCALED BY 0.833333
Info: MODIFIED 1-4 VDW PARAMETERS WILL BE USED
Info: DCD FILENAME           mobley_6978427_equil.dcd
Info: DCD FREQUENCY          5000
Info: DCD FIRST STEP         5000
Info: DCD FILE WILL CONTAIN UNIT CELL DATA
Info: XST FILENAME           mobley_6978427_equil.xst
Info: XST FREQUENCY          5000
Info: NO VELOCITY DCD OUTPUT
Info: NO FORCE DCD OUTPUT
Info: OUTPUT FILENAME        mobley_6978427_equil
Info: BINARY OUTPUT FILES WILL BE USED
Info: RESTART FILENAME       mobley_6978427_equil.restart
Info: RESTART FREQUENCY      5000
Info: BINARY RESTART FILES WILL BE USED
Info: CUTOFF                 9
Info: PAIRLIST DISTANCE      11
Info: PAIRLIST SHRINK RATE   0.01
Info: PAIRLIST GROW RATE     0.01
Info: PAIRLIST TRIGGER       0.3
Info: PAIRLISTS PER CYCLE    2
Info: PAIRLISTS ENABLED
Info: MARGIN                 8
Info: HYDROGEN GROUP CUTOFF  2.5
Info: PATCH DIMENSION        21.5
Info: ENERGY OUTPUT STEPS    5000
Info: ENERGY EVALUATION STEPS    5000
Info: OUTPUT ENERGY PRECISION 4
Info: CROSSTERM ENERGY INCLUDED IN DIHEDRAL
Info: TIMING OUTPUT STEPS    50000
Info: PRESSURE OUTPUT STEPS  5000
Info: LANGEVIN DYNAMICS ACTIVE
Info: LANGEVIN TEMPERATURE   30
Info: LANGEVIN USING BBK INTEGRATOR
Info: LANGEVIN DAMPING COEFFICIENT IS 1 INVERSE PS
Info: LANGEVIN DYNAMICS APPLIED TO HYDROGENS
Info: LANGEVIN PISTON PRESSURE CONTROL ACTIVE
Info:        TARGET PRESSURE IS 1.01325 BAR
Info:     OSCILLATION PERIOD IS 50 FS
Info:             DECAY TIME IS 25 FS
Info:     PISTON TEMPERATURE IS 300 K
Info:       PRESSURE CONTROL IS GROUP-BASED
Info:    INITIAL STRAIN RATE IS 0 0 0
Info:       CELL FLUCTUATION IS ISOTROPIC
Info: PARTICLE MESH EWALD (PME) ACTIVE
Info: PME TOLERANCE               1e-06
Info: PME EWALD COEFFICIENT       0.348832
Info: PME INTERPOLATION ORDER     4
Info: PME GRID DIMENSIONS         44 44 44
Info: PME MAXIMUM GRID SPACING    1
Info: FULL ELECTROSTATIC EVALUATION FREQUENCY      2
Info: USING VERLET I (r-RESPA) MTS SCHEME.
Info: C1 SPLITTING OF LONG RANGE ELECTROSTATICS
Info: PLACING ATOMS IN PATCHES BY HYDROGEN GROUPS
Info: RIGID BONDS TO HYDROGEN : ALL
Info:         ERROR TOLERANCE : 1e-08
Info:          MAX ITERATIONS : 100
Info: RIGID WATER USING SETTLE ALGORITHM
Info: RANDOM NUMBER SEED     1741405787
Info: USE HYDROGEN BONDS?    NO
Info: Using AMBER format force field!
Info: AMBER PARM FILE        mobley_6978427.prmtop
Info: COORDINATE PDB         mobley_6978427.pdb
Info: Exclusions will be read from PARM file!
Info: SCNB (VDW SCALING)     2
Info: USING ARITHMETIC MEAN TO COMBINE L-J SIGMA PARAMETERS
Info: BINARY COORDINATES     mobley_6978427_min.coor
Info: SUMMARY OF PARAMETERS:
Info: 9 BONDS
Info: 11 ANGLES
Info:   11 HARMONIC
Info:   0 COSINE-BASED
Info: 20 DIHEDRAL
Info: 0 IMPROPER
Info: 0 CROSSTERM
Info: 0 VDW
Info: 36 VDW_PAIRS
Info: 0 NBTHOLE_PAIRS
Info: STRUCTURE SUMMARY:
Info: 5208 ATOMS
Info: 5208 BONDS
Info: 46 ANGLES
Info: 78 DIHEDRALS
Info: 0 IMPROPERS
Info: 0 CROSSTERMS
Info: 5316 EXCLUSIONS
Info: 5198 RIGID BONDS
Info: 10426 DEGREES OF FREEDOM
Info: 1738 HYDROGEN GROUPS
Info: 4 ATOMS IN LARGEST HYDROGEN GROUP
Info: 1738 MIGRATION GROUPS
Info: 4 ATOMS IN LARGEST MIGRATION GROUP
Info: TOTAL MASS = 31273.8 amu
Info: TOTAL CHARGE = -0.000199955 e
Info: MASS DENSITY = 0.723307 g/cm^3
Info: ATOM DENSITY = 0.0725359 atoms/A^3
Info: ADDED 0 IMPLICIT EXCLUSIONS
Info: NONBONDED TABLE R-SQUARED SPACING: 0.0625
Info: NONBONDED TABLE SIZE: 705 POINTS
Info: REMOVING COM VELOCITY -0.0328262 0.00570924 0.0306278
TCL: Running for 25000 steps
ETITLE: TS BOND ANGLE DIHED IMPRP ELECT VDW BOUNDARY MISC KINETIC TOTAL TEMP POTENTIAL TOTAL3 TEMPAVG PRESSURE GPRESSURE VOLUME PRESSAVG GPRESSAVG
ENERGY: 0 1.0767 1.0680 9.7741 0.0000 -23735.1173 4018.7357 0.0000 0.0000 3100.5782 -16603.8848 299.3060 -19704.4630 -16603.2623 299.3060 -131.7709 -88.5574 71798.9370 -131.7709 -88.5574
ENERGY: 5000 0.6907 1.4561 9.7043 0.0000 -24878.9567 4300.2869 0.0000 0.0000 317.6751 -20249.1436 30.6659 -20566.8186 -20247.8701 47.4524 -121.6462 -57.9842 51276.4472 1.5936 1.4785
ENERGY: 10000 0.2761 1.6475 10.1404 0.0000 -25026.2790 4408.6309 0.0000 0.0000 308.7622 -20296.8219 29.8055 -20605.5841 -20295.6818 30.0897 323.0216 373.3904 51093.9448 4.1924 4.2473
ENERGY: 15000 0.3215 1.4822 9.6990 0.0000 -25243.4331 4634.0413 0.0000 0.0000 310.2634 -20287.6257 29.9504 -20597.8891 -20286.6281 30.1942 1504.6767 1544.2232 50718.8673 2.7573 2.6174
ENERGY: 20000 0.5481 1.6906 9.6686 0.0000 -24913.6738 4285.9498 0.0000 0.0000 309.1355 -20306.6813 29.8416 -20615.8168 -20305.9155 29.9610 -222.8663 -168.2935 51117.0743 2.3644 2.3591
ENERGY: 25000 0.5575 2.1477 9.6227 0.0000 -24873.2772 4222.9404 0.0000 0.0000 310.7828 -20327.2261 30.0006 -20638.0089 -20326.3121 30.0048 -543.9308 -484.6752 51183.4139 1.3537 1.4379
TCL: Running 25000 steps at 60 kelvin.
TCL: Setting parameter langevinTemp to 60
TCL: Running for 25000 steps
ETITLE: TS BOND ANGLE DIHED IMPRP ELECT VDW BOUNDARY MISC KINETIC TOTAL TEMP POTENTIAL TOTAL3 TEMPAVG PRESSURE GPRESSURE VOLUME PRESSAVG GPRESSAVG
ENERGY: 25000 0.5575 2.1477 9.6227 0.0000 -24873.2772 4222.9404 0.0000 0.0000 310.6296 -20327.3793 29.9858 -20638.0089 -20326.6770 29.9858 -541.8236 -484.8743 51183.4139 -541.8236 -484.8743
ENERGY: 30000 0.8988 2.2243 9.5472 0.0000 -24493.9347 4112.6704 0.0000 0.0000 627.9495 -19740.6444 60.6174 -20368.5939 -19739.6697 57.1588 -506.9080 -446.4508 51165.5199 6.3281 6.2249
ENERGY: 35000 0.5161 3.7973 9.8496 0.0000 -24714.5400 4262.0036 0.0000 0.0000 616.6446 -19821.7287 59.5261 -20438.3733 -19820.1045 60.3886 185.5838 262.0994 50587.1798 -1.7684 -1.8341
ENERGY: 40000 0.3639 3.3351 10.1094 0.0000 -24462.3077 4001.8387 0.0000 0.0000 613.8036 -19832.8569 59.2519 -20446.6606 -19830.7982 59.8563 -1104.2982 -1050.2548 51119.2766 4.4873 4.4836
ENERGY: 45000 1.0902 3.0994 9.5981 0.0000 -24787.1745 4281.2311 0.0000 0.0000 612.2222 -19879.9334 59.0992 -20492.1556 -19878.4419 60.0511 178.1668 249.6847 50439.5938 0.1202 0.4107
ENERGY: 50000 0.8803 3.0127 9.6854 0.0000 -24820.5076 4286.3640 0.0000 0.0000 626.4212 -19894.1441 60.4699 -20520.5653 -19892.6110 59.9420 185.9361 226.2036 50549.2464 4.2843 4.1651
TCL: Running 25000 steps at 90 kelvin.
TCL: Setting parameter langevinTemp to 90
TCL: Running for 25000 steps
ETITLE: TS BOND ANGLE DIHED IMPRP ELECT VDW BOUNDARY MISC KINETIC TOTAL TEMP POTENTIAL TOTAL3 TEMPAVG PRESSURE GPRESSURE VOLUME PRESSAVG GPRESSAVG
ENERGY: 50000 0.8803 3.0127 9.6854 0.0000 -24820.5076 4286.3640 0.0000 0.0000 626.1196 -19894.4457 60.4408 -20520.5653 -19893.0182 60.4408 165.3055 226.0143 50549.2464 165.3055 226.0143
ENERGY: 55000 1.2559 3.0539 9.8407 0.0000 -24282.0968 4046.5179 0.0000 0.0000 924.5991 -19296.8293 89.2537 -20221.4284 -19293.7723 87.5127 -437.6055 -354.1069 50983.8869 -1.2695 -0.9218
ENERGY: 60000 1.9767 4.9102 10.6118 0.0000 -24326.3430 4090.9384 0.0000 0.0000 914.6006 -19303.3053 88.2885 -20217.9060 -19299.6789 89.8177 -282.1844 -215.7626 50835.3856 0.6670 0.7176
ENERGY: 65000 1.4718 2.9428 10.1284 0.0000 -24478.3542 4170.1198 0.0000 0.0000 934.6203 -19359.0710 90.2210 -20293.6913 -19357.4943 90.1196 26.9561 41.1282 50926.7277 0.1907 0.2353
ENERGY: 70000 1.0288 4.0159 10.0212 0.0000 -24613.8569 4326.2863 0.0000 0.0000 945.3652 -19327.1396 91.2583 -20272.5047 -19325.3150 89.9205 757.0253 837.5740 50663.5132 5.0992 5.3627
ENERGY: 75000 1.4954 4.5689 11.3357 0.0000 -24511.8834 4206.7782 0.0000 0.0000 938.5792 -19349.1260 90.6032 -20287.7053 -19347.3356 90.0590 94.0748 147.5857 50867.0567 3.7535 3.8439
TCL: Running 25000 steps at 120 kelvin.
TCL: Setting parameter langevinTemp to 120
TCL: Running for 25000 steps
ETITLE: TS BOND ANGLE DIHED IMPRP ELECT VDW BOUNDARY MISC KINETIC TOTAL TEMP POTENTIAL TOTAL3 TEMPAVG PRESSURE GPRESSURE VOLUME PRESSAVG GPRESSAVG
ENERGY: 75000 1.4954 4.5689 11.3357 0.0000 -24511.8834 4206.7782 0.0000 0.0000 938.1101 -19349.5952 90.5579 -20287.7053 -19347.5969 90.5579 88.1467 147.2934 50867.0567 88.1467 147.2934
ENERGY: 80000 0.8911 5.6534 10.5791 0.0000 -23963.6227 4031.7873 0.0000 0.0000 1249.4434 -18665.2683 120.6117 -19914.7118 -18663.1697 117.3713 165.1298 254.2082 50815.8038 1.4736 1.6327
ENERGY: 85000 3.1017 2.4248 9.9481 0.0000 -23743.4420 3782.0321 0.0000 0.0000 1246.5835 -18699.3518 120.3356 -19945.9353 -18697.3080 120.9192 -942.7239 -910.9414 50878.5246 3.4194 3.3784
ENERGY: 90000 2.8289 4.6121 10.6640 0.0000 -24006.4987 3967.8645 0.0000 0.0000 1236.2899 -18784.2393 119.3419 -20020.5292 -18781.6145 120.9364 -404.5653 -342.0572 50741.0554 5.6113 5.8046
ENERGY: 95000 1.8859 6.8152 9.9815 0.0000 -24120.1477 4072.5073 0.0000 0.0000 1226.2548 -18802.7031 118.3732 -20028.9578 -18799.8396 119.6486 183.0198 228.6937 50606.9037 4.9131 5.4202
ENERGY: 100000 1.4863 4.6005 11.3651 0.0000 -24196.1853 4118.1305 0.0000 0.0000 1233.3055 -18827.2972 119.0538 -20060.6028 -18824.9553 120.0002 373.4284 418.7551 50512.0009 2.2483 2.3948
TCL: Running 25000 steps at 150 kelvin.
TCL: Setting parameter langevinTemp to 150
TCL: Running for 25000 steps
ETITLE: TS BOND ANGLE DIHED IMPRP ELECT VDW BOUNDARY MISC KINETIC TOTAL TEMP POTENTIAL TOTAL3 TEMPAVG PRESSURE GPRESSURE VOLUME PRESSAVG GPRESSAVG
ENERGY: 100000 1.4863 4.6005 11.3651 0.0000 -24196.1853 4118.1305 0.0000 0.0000 1232.7086 -18827.8941 118.9962 -20060.6028 -18825.2370 118.9962 365.9193 418.2082 50512.0009 365.9193 418.2082
ENERGY: 105000 0.9216 6.0009 10.9521 0.0000 -23741.7078 4036.1214 0.0000 0.0000 1540.1229 -18147.5889 148.6716 -19687.7118 -18143.1990 147.1424 694.8461 772.7126 50829.0456 2.5050 3.0266
ENERGY: 110000 1.3432 5.7482 9.7901 0.0000 -23607.0237 3923.5993 0.0000 0.0000 1599.4092 -18067.1338 154.3946 -19666.5429 -18066.0395 150.7102 295.5261 333.1862 50937.2601 2.6941 3.0745
ENERGY: 115000 2.7200 6.9438 12.5700 0.0000 -23534.2989 3796.6039 0.0000 0.0000 1540.6757 -18174.7855 148.7250 -19715.4612 -18170.5192 150.9357 -631.0982 -575.5679 51279.6927 6.4850 6.7271
ENERGY: 120000 0.8986 5.8160 11.8238 0.0000 -23752.3313 4011.7170 0.0000 0.0000 1551.6063 -18170.4696 149.7801 -19722.0759 -18167.8317 150.3049 528.3268 552.0370 50928.6697 0.7434 0.5977
ENERGY: 125000 1.4919 6.6751 10.2222 0.0000 -23840.2516 4087.8129 0.0000 0.0000 1548.4562 -18185.5933 149.4760 -19734.0495 -18180.5697 150.7654 813.6759 875.6840 50922.8058 4.4338 4.2488
TCL: Running 50000 steps at 180 kelvin.
TCL: Setting parameter langevinTemp to 180
TCL: Running for 50000 steps
ETITLE: TS BOND ANGLE DIHED IMPRP ELECT VDW BOUNDARY MISC KINETIC TOTAL TEMP POTENTIAL TOTAL3 TEMPAVG PRESSURE GPRESSURE VOLUME PRESSAVG GPRESSAVG
ENERGY: 125000 1.4919 6.6751 10.2222 0.0000 -23840.2516 4087.8129 0.0000 0.0000 1547.6928 -18186.3567 149.4024 -19734.0495 -18183.3900 149.4024 825.1127 876.0802 50922.8058 825.1127 876.0802
ENERGY: 135000 1.4381 6.6757 10.4095 0.0000 -23283.8557 3940.6599 0.0000 0.0000 1862.3265 -17462.3461 179.7747 -19324.6725 -17459.1075 180.5164 954.7648 985.8903 51094.6401 -0.1633 0.4200
ENERGY: 145000 1.4711 5.1736 10.6025 0.0000 -23019.4044 3708.6753 0.0000 0.0000 1872.2519 -17421.2300 180.7328 -19293.4819 -17416.2718 180.7211 -186.9717 -122.1961 51602.3581 2.3988 1.9986
ENERGY: 155000 3.4396 8.9132 11.2481 0.0000 -23181.5172 3782.3433 0.0000 0.0000 1896.9342 -17478.6389 183.1154 -19375.5730 -17474.8497 180.0384 82.6160 110.8717 51183.7793 2.8912 3.0026
ENERGY: 165000 3.8913 5.8546 12.3354 0.0000 -22919.6166 3555.1312 0.0000 0.0000 1879.6385 -17462.7656 181.4458 -19342.4041 -17456.6121 181.0844 -875.5154 -796.3741 51228.1513 -1.0225 -0.9880
ENERGY: 175000 1.7105 5.7470 9.9568 0.0000 -23128.4184 3784.5367 0.0000 0.0000 1851.6753 -17474.7921 178.7465 -19326.4673 -17468.7339 181.1936 398.8683 462.5956 50541.3769 3.3124 3.3617
TCL: Running 50000 steps at 210 kelvin.
TCL: Setting parameter langevinTemp to 210
TCL: Running for 50000 steps
ETITLE: TS BOND ANGLE DIHED IMPRP ELECT VDW BOUNDARY MISC KINETIC TOTAL TEMP POTENTIAL TOTAL3 TEMPAVG PRESSURE GPRESSURE VOLUME PRESSAVG GPRESSAVG
ENERGY: 175000 1.7105 5.7470 9.9568 0.0000 -23128.4184 3784.5367 0.0000 0.0000 1850.7538 -17475.7136 178.6575 -19326.4673 -17472.8767 178.6575 404.2529 463.3381 50541.3769 404.2529 463.3381
ENERGY: 185000 0.8773 6.4538 10.1992 0.0000 -21908.6855 3310.1463 0.0000 0.0000 2146.3069 -16434.7019 207.1879 -18581.0088 -16429.9261 210.2205 -338.5657 -270.4686 51110.3938 0.2424 -0.0080
ENERGY: 195000 2.8919 7.8268 10.2247 0.0000 -21922.5446 3345.9367 0.0000 0.0000 2145.4594 -16410.2052 207.1061 -18555.6646 -16405.9449 209.3525 -182.5089 -77.7783 50795.9359 2.3639 2.5280
ENERGY: 205000 2.3848 5.8973 9.5920 0.0000 -21866.5760 3314.2956 0.0000 0.0000 2247.2191 -16287.1873 216.9292 -18534.4063 -16281.3186 211.9669 -68.2980 49.4380 50552.5897 0.9273 0.4760
ENERGY: 215000 1.6809 9.0776 10.0267 0.0000 -21799.6449 3247.5444 0.0000 0.0000 2219.4193 -16311.8960 214.2457 -18531.3153 -16308.1590 209.3019 -622.0020 -535.6127 51472.4318 2.8441 3.2098
ENERGY: 225000 1.7579 9.0745 11.9314 0.0000 -22041.7388 3418.6128 0.0000 0.0000 2205.5867 -16394.7754 212.9104 -18600.3622 -16390.7585 209.4004 361.5486 452.0088 50526.8614 6.1831 6.3051
TCL: Running 50000 steps at 240 kelvin.
TCL: Setting parameter langevinTemp to 240
TCL: Running for 50000 steps
ETITLE: TS BOND ANGLE DIHED IMPRP ELECT VDW BOUNDARY MISC KINETIC TOTAL TEMP POTENTIAL TOTAL3 TEMPAVG PRESSURE GPRESSURE VOLUME PRESSAVG GPRESSAVG
ENERGY: 225000 1.7579 9.0745 11.9314 0.0000 -22041.7388 3418.6128 0.0000 0.0000 2204.4987 -16395.8635 212.8053 -18600.3622 -16392.4619 212.8053 383.3024 451.5219 50526.8614 383.3024 451.5219
ENERGY: 235000 2.9615 8.3068 11.0150 0.0000 -20838.5807 3096.0423 0.0000 0.0000 2541.1809 -15179.0742 245.3060 -17720.2552 -15171.5506 239.7658 413.9716 490.3198 51109.1553 4.8843 5.5815
ENERGY: 245000 1.7887 11.9256 12.6082 0.0000 -20811.1539 3040.7598 0.0000 0.0000 2497.0581 -15247.0134 241.0468 -17744.0715 -15240.4033 239.7674 128.7775 223.9053 51138.6488 4.4704 4.4808
ENERGY: 255000 3.6590 12.9016 11.3450 0.0000 -20848.5048 3061.0213 0.0000 0.0000 2476.7621 -15282.8159 239.0876 -17759.5780 -15279.6791 240.3864 141.3704 216.5588 51098.1748 4.7131 4.5869
ENERGY: 265000 4.9347 6.6737 10.5371 0.0000 -20816.0732 2992.6813 0.0000 0.0000 2480.0207 -15321.2257 239.4021 -17801.2464 -15316.5650 238.2210 -172.0941 -131.2624 51021.7000 3.2540 3.4583
ENERGY: 275000 2.2761 8.8667 12.3653 0.0000 -20942.5969 3097.0600 0.0000 0.0000 2468.1346 -15353.8942 238.2547 -17822.0288 -15347.5148 239.8837 134.0085 201.4109 51449.2451 -3.4182 -3.3434
TCL: Running 50000 steps at 270 kelvin.
TCL: Setting parameter langevinTemp to 270
TCL: Running for 50000 steps
ETITLE: TS BOND ANGLE DIHED IMPRP ELECT VDW BOUNDARY MISC KINETIC TOTAL TEMP POTENTIAL TOTAL3 TEMPAVG PRESSURE GPRESSURE VOLUME PRESSAVG GPRESSAVG
ENERGY: 275000 2.2761 8.8667 12.3653 0.0000 -20942.5969 3097.0600 0.0000 0.0000 2466.9035 -15355.1252 238.1359 -17822.0288 -15350.6501 238.1359 120.6181 201.3423 51449.2451 120.6181 201.3423
ENERGY: 285000 2.0702 10.4459 11.5295 0.0000 -19725.7064 2691.3106 0.0000 0.0000 2737.1004 -14273.2497 264.2186 -17010.3502 -14265.8384 270.9197 -484.5091 -426.9354 52638.4814 5.3328 4.9008
ENERGY: 295000 4.1418 10.6294 12.2551 0.0000 -19510.5168 2547.1340 0.0000 0.0000 2800.5018 -14135.8547 270.3389 -16936.3565 -14130.9128 270.3910 -1029.2050 -905.2430 52967.4058 0.4407 0.4460
ENERGY: 305000 2.4398 6.9744 11.2253 0.0000 -19802.5116 2798.8755 0.0000 0.0000 2784.5181 -14198.4785 268.7959 -16982.9966 -14192.5477 270.6200 272.7684 337.4250 52179.9383 -0.0115 -0.0258
ENERGY: 315000 2.0284 11.0444 12.2752 0.0000 -19841.2175 2826.7219 0.0000 0.0000 2827.8078 -14161.3397 272.9748 -16989.1475 -14156.3466 272.2009 352.7050 432.3879 52071.4710 0.9454 0.9287
ENERGY: 325000 2.6690 8.9425 10.1075 0.0000 -20004.1339 2910.8695 0.0000 0.0000 2863.7274 -14207.8179 276.4422 -17071.5453 -14203.0281 270.8587 591.1342 683.8030 51851.3541 -1.1729 -1.7245
TCL: Running 1000000 steps at 300 kelvin.
TCL: Setting parameter langevinTemp to 300
TCL: Running for 1000000 steps
ETITLE: TS BOND ANGLE DIHED IMPRP ELECT VDW BOUNDARY MISC KINETIC TOTAL TEMP POTENTIAL TOTAL3 TEMPAVG PRESSURE GPRESSURE VOLUME PRESSAVG GPRESSAVG
ENERGY: 325000 2.6690 8.9425 10.1075 0.0000 -20004.1339 2910.8695 0.0000 0.0000 2862.2943 -14209.2510 276.3039 -17071.5453 -14204.5167 276.3039 601.2033 683.5952 51851.3541 601.2033 683.5952
ENERGY: 525000 3.3747 9.1169 13.2772 0.0000 -18814.6214 2460.4039 0.0000 0.0000 3131.9460 -13196.5027 302.3340 -16328.4487 -13189.3571 302.1341 -473.2219 -338.0349 53797.4084 -3.1976 -3.5292
ENERGY: 725000 1.8237 10.4531 10.7491 0.0000 -18852.1315 2546.6305 0.0000 0.0000 3083.3388 -13199.1362 297.6418 -16282.4751 -13194.0316 298.3930 -92.6389 26.8736 53837.6460 7.3869 7.6274
ENERGY: 925000 5.3013 10.1783 11.3671 0.0000 -18749.1259 2428.6241 0.0000 0.0000 3041.1364 -13252.5187 293.5679 -16293.6551 -13243.3972 300.5205 -416.6522 -331.7525 53244.3117 4.1192 3.4856
ENERGY: 1125000 2.8309 13.1164 15.5698 0.0000 -18937.9401 2607.6576 0.0000 0.0000 3135.8343 -13162.9311 302.7093 -16298.7654 -13155.7128 301.7982 352.6745 414.1015 53821.3980 5.1814 5.2873
ENERGY: 1325000 5.1222 7.7819 11.8522 0.0000 -18799.5827 2417.4345 0.0000 0.0000 3078.0370 -13279.3549 297.1300 -16357.3919 -13273.7329 298.1514 -672.3658 -600.3407 54061.8570 -0.6498 -0.5847
TCL: Exiting due to exit command.
