Info: SIMULATION PARAMETERS:
Info: TIMESTEP               2
Info: NUMBER OF STEPS        0
Info: STEPS PER CYCLE        10
Info: PERIODIC CELL BASIS 1  34.207 0 0
Info: PERIODIC CELL BASIS 2  0 35.847 0
Info: PERIODIC CELL BASIS 3  0 0 36.199
Info: PERIODIC CELL CENTER   0 0 0
Info: WRAPPING WATERS AROUND PERIODIC BOUNDARIES ON OUTPUT.
Info: WRAPPING ALL CLUSTERS AROUND PERIODIC BOUNDARIES ON OUTPUT.
Info: FIRST LDB TIMESTEP     50
Info: LAST LDB TIMESTEP     -1
Info: HOM BACKGROUND SCALING 1
Info: PME BACKGROUND SCALING 1
Info: MIN ATOMS PER PATCH    40
Info: EMPTY PATCH LOAD       40 ATOMS
Info: INITIAL TEMPERATURE    300
Info: CENTER OF MASS MOVING INITIALLY? NO
Info: DIELECTRIC             1
Info: EXCLUDE                SCALED ONE-FOUR
Info: 1-4 ELECTROSTATICS SCALED BY 0.833333
Info: MODIFIED 1-4 VDW PARAMETERS WILL BE USED
Info: DCD FILENAME           mobley_6239320_equil.dcd
Info: DCD FREQUENCY          100000
Info: DCD FIRST STEP         100000
Info: DCD FILE WILL CONTAIN UNIT CELL DATA
Info: XST FILENAME           mobley_6239320_equil.xst
Info: XST FREQUENCY          100000
Info: NO VELOCITY DCD OUTPUT
Info: NO FORCE DCD OUTPUT
Info: OUTPUT FILENAME        mobley_6239320_equil
Info: BINARY OUTPUT FILES WILL BE USED
Info: RESTART FILENAME       mobley_6239320_equil.restart
Info: RESTART FREQUENCY      100000
Info: BINARY RESTART FILES WILL BE USED
Info: CUTOFF                 9
Info: PAIRLIST DISTANCE      11
Info: PAIRLIST SHRINK RATE   0.01
Info: PAIRLIST GROW RATE     0.01
Info: PAIRLIST TRIGGER       0.3
Info: PAIRLISTS PER CYCLE    2
Info: PAIRLISTS ENABLED
Info: MARGIN                 8
Info: HYDROGEN GROUP CUTOFF  2.5
Info: PATCH DIMENSION        21.5
Info: ENERGY OUTPUT STEPS    100000
Info: ENERGY EVALUATION STEPS    100000
Info: OUTPUT ENERGY PRECISION 4
Info: CROSSTERM ENERGY INCLUDED IN DIHEDRAL
Info: TIMING OUTPUT STEPS    1000000
Info: PRESSURE OUTPUT STEPS  100000
Info: FIXED ATOMS ACTIVE
Info: LANGEVIN DYNAMICS ACTIVE
Info: LANGEVIN TEMPERATURE   30
Info: LANGEVIN USING BBK INTEGRATOR
Info: LANGEVIN DAMPING COEFFICIENT IS 1 INVERSE PS
Info: LANGEVIN DYNAMICS APPLIED TO HYDROGENS
Info: LANGEVIN PISTON PRESSURE CONTROL ACTIVE
Info:        TARGET PRESSURE IS 1.01325 BAR
Info:     OSCILLATION PERIOD IS 50 FS
Info:             DECAY TIME IS 25 FS
Info:     PISTON TEMPERATURE IS 300 K
Info:       PRESSURE CONTROL IS GROUP-BASED
Info:    INITIAL STRAIN RATE IS 0 0 0
Info:       CELL FLUCTUATION IS ISOTROPIC
Info: PARTICLE MESH EWALD (PME) ACTIVE
Info: PME TOLERANCE               1e-06
Info: PME EWALD COEFFICIENT       0.348832
Info: PME INTERPOLATION ORDER     4
Info: PME GRID DIMENSIONS         36 36 40
Info: PME MAXIMUM GRID SPACING    1
Info: FULL ELECTROSTATIC EVALUATION FREQUENCY      2
Info: USING VERLET I (r-RESPA) MTS SCHEME.
Info: C1 SPLITTING OF LONG RANGE ELECTROSTATICS
Info: PLACING ATOMS IN PATCHES BY HYDROGEN GROUPS
Info: RIGID BONDS TO HYDROGEN : ALL
Info:         ERROR TOLERANCE : 1e-08
Info:          MAX ITERATIONS : 100
Info: RIGID WATER USING SETTLE ALGORITHM
Info: RANDOM NUMBER SEED     1742145692
Info: USE HYDROGEN BONDS?    NO
Info: Using AMBER format force field!
Info: AMBER PARM FILE        mobley_6239320.prmtop
Info: COORDINATE PDB         mobley_6239320.pdb
Info: Exclusions will be read from PARM file!
Info: SCNB (VDW SCALING)     2
Info: USING ARITHMETIC MEAN TO COMBINE L-J SIGMA PARAMETERS
Info: BINARY COORDINATES     mobley_6239320_min.coor
Info: SUMMARY OF PARAMETERS:
Info: 5 BONDS
Info: 4 ANGLES
Info:   4 HARMONIC
Info:   0 COSINE-BASED
Info: 4 DIHEDRAL
Info: 0 IMPROPER
Info: 0 CROSSTERM
Info: 0 VDW
Info: 21 VDW_PAIRS
Info: 0 NBTHOLE_PAIRS
Info: STRUCTURE SUMMARY:
Info: 2997 ATOMS
Info: 2997 BONDS
Info: 18 ANGLES
Info: 36 DIHEDRALS
Info: 0 IMPROPERS
Info: 0 CROSSTERMS
Info: 3036 EXCLUSIONS
Info: 12 FIXED ATOMS
Info: 2988 RIGID BONDS
Info: 3 RIGID BONDS BETWEEN FIXED ATOMS
Info: 5970 DEGREES OF FREEDOM
Info: 1004 HYDROGEN GROUPS
Info: 3 ATOMS IN LARGEST HYDROGEN GROUP
Info: 1004 MIGRATION GROUPS
Info: 3 ATOMS IN LARGEST MIGRATION GROUP
Info: 9 HYDROGEN GROUPS WITH ALL ATOMS FIXED
Info: TOTAL MASS = 18055 amu
Info: TOTAL CHARGE = 0.000199944 e
Info: MASS DENSITY = 0.675449 g/cm^3
Info: ATOM DENSITY = 0.0675184 atoms/A^3
Info: ADDED 0 IMPLICIT EXCLUSIONS
Info: NONBONDED TABLE R-SQUARED SPACING: 0.0625
Info: NONBONDED TABLE SIZE: 705 POINTS
Info: REMOVING COM VELOCITY 0.262991 -0.150997 0.061167
TCL: Running for 100000 steps
ETITLE: TS BOND ANGLE DIHED IMPRP ELECT VDW BOUNDARY MISC KINETIC TOTAL TEMP POTENTIAL TOTAL3 TEMPAVG PRESSURE GPRESSURE VOLUME PRESSAVG GPRESSAVG
ENERGY: 0 0.0000 0.0000 0.0000 0.0000 -14275.9441 2450.6376 0.0000 0.0000 1814.6281 -10010.6783 305.9171 -11825.3064 -10010.3025 305.9171 411.7251 451.6923 44387.8773 411.7251 451.6923
ENERGY: 100000 0.0000 0.0000 0.0000 0.0000 -14781.7679 2548.8879 0.0000 0.0000 175.1338 -12057.7463 29.5247 -12232.8801 -12057.3677 30.8741 382.7820 436.3816 29563.4700 4.0656 4.1082
TCL: Running 100000 steps at 60 kelvin.
TCL: Setting parameter langevinTemp to 60
TCL: Running for 100000 steps
ETITLE: TS BOND ANGLE DIHED IMPRP ELECT VDW BOUNDARY MISC KINETIC TOTAL TEMP POTENTIAL TOTAL3 TEMPAVG PRESSURE GPRESSURE VOLUME PRESSAVG GPRESSAVG
ENERGY: 100000 0.0000 0.0000 0.0000 0.0000 -14781.7679 2548.8879 0.0000 0.0000 175.0455 -12057.8346 29.5099 -12232.8801 -12057.4700 29.5099 396.5365 436.2198 29563.4700 396.5365 436.2198
ENERGY: 200000 0.0000 0.0000 0.0000 0.0000 -14741.6305 2557.8875 0.0000 0.0000 357.1329 -11826.6101 60.2068 -12183.7429 -11825.8133 59.9912 933.8255 974.3449 28870.8975 4.4153 4.4391
TCL: Running 100000 steps at 90 kelvin.
TCL: Setting parameter langevinTemp to 90
TCL: Running for 100000 steps
ETITLE: TS BOND ANGLE DIHED IMPRP ELECT VDW BOUNDARY MISC KINETIC TOTAL TEMP POTENTIAL TOTAL3 TEMPAVG PRESSURE GPRESSURE VOLUME PRESSAVG GPRESSAVG
ENERGY: 200000 0.0000 0.0000 0.0000 0.0000 -14741.6305 2557.8875 0.0000 0.0000 356.9583 -11826.7846 60.1774 -12183.7429 -11826.0125 60.1774 931.0306 974.3644 28870.8975 931.0306 974.3644
ENERGY: 300000 0.0000 0.0000 0.0000 0.0000 -14505.2507 2401.6389 0.0000 0.0000 526.1094 -11577.5025 88.6936 -12103.6119 -11576.5374 89.8608 -302.6171 -264.2794 29207.3238 4.8704 4.9631
TCL: Running 100000 steps at 120 kelvin.
TCL: Setting parameter langevinTemp to 120
TCL: Running for 100000 steps
ETITLE: TS BOND ANGLE DIHED IMPRP ELECT VDW BOUNDARY MISC KINETIC TOTAL TEMP POTENTIAL TOTAL3 TEMPAVG PRESSURE GPRESSURE VOLUME PRESSAVG GPRESSAVG
ENERGY: 300000 0.0000 0.0000 0.0000 0.0000 -14505.2507 2401.6389 0.0000 0.0000 525.8570 -11577.7549 88.6510 -12103.6119 -11576.8235 88.6510 -313.7682 -264.9899 29207.3238 -313.7682 -264.9899
ENERGY: 400000 0.0000 0.0000 0.0000 0.0000 -14398.9253 2418.8587 0.0000 0.0000 712.1331 -11267.9334 120.0542 -11980.0666 -11266.4930 120.0172 511.6629 534.9024 28877.3619 3.9782 3.9966
TCL: Running 100000 steps at 150 kelvin.
TCL: Setting parameter langevinTemp to 150
TCL: Running for 100000 steps
ETITLE: TS BOND ANGLE DIHED IMPRP ELECT VDW BOUNDARY MISC KINETIC TOTAL TEMP POTENTIAL TOTAL3 TEMPAVG PRESSURE GPRESSURE VOLUME PRESSAVG GPRESSAVG
ENERGY: 400000 0.0000 0.0000 0.0000 0.0000 -14398.9253 2418.8587 0.0000 0.0000 711.7797 -11268.2869 119.9946 -11980.0666 -11266.9590 119.9946 478.9958 534.7044 28877.3619 478.9958 534.7044
ENERGY: 500000 0.0000 0.0000 0.0000 0.0000 -14182.0931 2383.8060 0.0000 0.0000 911.8497 -10886.4374 153.7232 -11798.2871 -10884.4044 149.9984 855.3789 897.5171 29068.3204 3.9615 4.0346
TCL: Running 100000 steps at 180 kelvin.
TCL: Setting parameter langevinTemp to 180
TCL: Running for 100000 steps
ETITLE: TS BOND ANGLE DIHED IMPRP ELECT VDW BOUNDARY MISC KINETIC TOTAL TEMP POTENTIAL TOTAL3 TEMPAVG PRESSURE GPRESSURE VOLUME PRESSAVG GPRESSAVG
ENERGY: 500000 0.0000 0.0000 0.0000 0.0000 -14182.0931 2383.8060 0.0000 0.0000 911.4316 -10886.8555 153.6527 -11798.2871 -10885.4319 153.6527 844.6421 896.6095 29068.3204 844.6421 896.6095
ENERGY: 600000 0.0000 0.0000 0.0000 0.0000 -13702.1162 2196.5265 0.0000 0.0000 1058.3696 -10447.2201 178.4241 -11505.5897 -10444.3888 179.6410 379.2105 425.9469 29064.2616 3.7575 3.6491
TCL: Running 100000 steps at 210 kelvin.
TCL: Setting parameter langevinTemp to 210
TCL: Running for 100000 steps
ETITLE: TS BOND ANGLE DIHED IMPRP ELECT VDW BOUNDARY MISC KINETIC TOTAL TEMP POTENTIAL TOTAL3 TEMPAVG PRESSURE GPRESSURE VOLUME PRESSAVG GPRESSAVG
ENERGY: 600000 0.0000 0.0000 0.0000 0.0000 -13702.1162 2196.5265 0.0000 0.0000 1057.8539 -10447.7358 178.3371 -11505.5897 -10445.5694 178.3371 374.0261 425.0878 29064.2616 374.0261 425.0878
ENERGY: 700000 0.0000 0.0000 0.0000 0.0000 -12917.6654 1885.6485 0.0000 0.0000 1266.6094 -9765.4075 213.5299 -11032.0169 -9762.1358 209.6515 -589.3407 -501.0767 29461.5450 2.9905 2.9526
TCL: Running 100000 steps at 240 kelvin.
TCL: Setting parameter langevinTemp to 240
TCL: Running for 100000 steps
ETITLE: TS BOND ANGLE DIHED IMPRP ELECT VDW BOUNDARY MISC KINETIC TOTAL TEMP POTENTIAL TOTAL3 TEMPAVG PRESSURE GPRESSURE VOLUME PRESSAVG GPRESSAVG
ENERGY: 700000 0.0000 0.0000 0.0000 0.0000 -12917.6654 1885.6485 0.0000 0.0000 1265.9687 -9766.0482 213.4219 -11032.0169 -9763.8081 213.4219 -581.0206 -501.2645 29461.5450 -581.0206 -501.2645
ENERGY: 800000 0.0000 0.0000 0.0000 0.0000 -12481.1523 1859.4782 0.0000 0.0000 1431.9679 -9189.7062 241.4067 -10621.6741 -9188.0362 239.8851 918.2428 998.8040 29031.7192 4.4852 4.3219
TCL: Running 100000 steps at 270 kelvin.
TCL: Setting parameter langevinTemp to 270
TCL: Running for 100000 steps
ETITLE: TS BOND ANGLE DIHED IMPRP ELECT VDW BOUNDARY MISC KINETIC TOTAL TEMP POTENTIAL TOTAL3 TEMPAVG PRESSURE GPRESSURE VOLUME PRESSAVG GPRESSAVG
ENERGY: 800000 0.0000 0.0000 0.0000 0.0000 -12481.1523 1859.4782 0.0000 0.0000 1431.2400 -9190.4341 241.2840 -10621.6741 -9188.6851 241.2840 911.1199 998.1681 29031.7192 911.1199 998.1681
ENERGY: 900000 0.0000 0.0000 0.0000 0.0000 -11801.9326 1649.7454 0.0000 0.0000 1591.5577 -8560.6295 268.3110 -10152.1872 -8557.4329 270.4914 581.8225 582.2235 30021.0563 4.6192 4.2361
TCL: Running 1000000 steps at 300 kelvin.
TCL: Setting parameter langevinTemp to 300
TCL: Running for 1000000 steps
ETITLE: TS BOND ANGLE DIHED IMPRP ELECT VDW BOUNDARY MISC KINETIC TOTAL TEMP POTENTIAL TOTAL3 TEMPAVG PRESSURE GPRESSURE VOLUME PRESSAVG GPRESSAVG
ENERGY: 900000 0.0000 0.0000 0.0000 0.0000 -11801.9326 1649.7454 0.0000 0.0000 1590.7331 -8561.4541 268.1720 -10152.1872 -8559.1037 268.1720 502.0464 580.7558 30021.0563 502.0464 580.7558
ENERGY: 1100000 0.0000 0.0000 0.0000 0.0000 -11327.8998 1449.3700 0.0000 0.0000 1753.8708 -8124.6590 295.6743 -9878.5298 -8119.2386 300.2605 -389.4314 -286.0289 30443.3325 2.5451 2.4879
ENERGY: 1300000 0.0000 0.0000 0.0000 0.0000 -11115.8261 1424.2421 0.0000 0.0000 1782.3008 -7909.2831 300.4672 -9691.5840 -7906.9170 300.5345 -157.0784 -101.1270 30972.0224 3.0527 3.0739
ENERGY: 1500000 0.0000 0.0000 0.0000 0.0000 -11143.9602 1455.3877 0.0000 0.0000 1763.9293 -7924.6432 297.3701 -9688.5725 -7922.2116 300.5532 132.3118 220.5387 30833.4265 3.5390 3.5742
ENERGY: 1700000 0.0000 0.0000 0.0000 0.0000 -11120.6422 1385.2763 0.0000 0.0000 1770.7575 -7964.6084 298.5212 -9735.3659 -7962.0058 300.1289 -263.8532 -209.4323 30348.6362 2.8188 2.8637
ENERGY: 1900000 0.0000 0.0000 0.0000 0.0000 -10992.8353 1340.5336 0.0000 0.0000 1768.4555 -7883.8462 298.1331 -9652.3017 -7880.0670 300.8052 -964.1910 -885.7925 31475.3202 2.7461 2.7746
TCL: Exiting due to exit command.
