Info: SIMULATION PARAMETERS:
Info: TIMESTEP               2
Info: NUMBER OF STEPS        0
Info: STEPS PER CYCLE        10
Info: PERIODIC CELL BASIS 1  41.123 0 0
Info: PERIODIC CELL BASIS 2  0 39.303 0
Info: PERIODIC CELL BASIS 3  0 0 40.862
Info: PERIODIC CELL CENTER   0 0 0
Info: WRAPPING WATERS AROUND PERIODIC BOUNDARIES ON OUTPUT.
Info: WRAPPING ALL CLUSTERS AROUND PERIODIC BOUNDARIES ON OUTPUT.
Info: FIRST LDB TIMESTEP     50
Info: LAST LDB TIMESTEP     -1
Info: HOM BACKGROUND SCALING 1
Info: PME BACKGROUND SCALING 1
Info: MIN ATOMS PER PATCH    40
Info: EMPTY PATCH LOAD       40 ATOMS
Info: INITIAL TEMPERATURE    300
Info: CENTER OF MASS MOVING INITIALLY? NO
Info: DIELECTRIC             1
Info: EXCLUDE                SCALED ONE-FOUR
Info: 1-4 ELECTROSTATICS SCALED BY 0.833333
Info: MODIFIED 1-4 VDW PARAMETERS WILL BE USED
Info: DCD FILENAME           mobley_7066554_min.dcd
Info: DCD FREQUENCY          5000
Info: DCD FIRST STEP         5000
Info: DCD FILE WILL CONTAIN UNIT CELL DATA
Info: XST FILENAME           mobley_7066554_min.xst
Info: XST FREQUENCY          5000
Info: NO VELOCITY DCD OUTPUT
Info: NO FORCE DCD OUTPUT
Info: OUTPUT FILENAME        mobley_7066554_min
Info: BINARY OUTPUT FILES WILL BE USED
Info: RESTART FILENAME       mobley_7066554_min.restart
Info: RESTART FREQUENCY      5000
Info: BINARY RESTART FILES WILL BE USED
Info: CUTOFF                 9
Info: PAIRLIST DISTANCE      11
Info: PAIRLIST SHRINK RATE   0.01
Info: PAIRLIST GROW RATE     0.01
Info: PAIRLIST TRIGGER       0.3
Info: PAIRLISTS PER CYCLE    2
Info: PAIRLISTS ENABLED
Info: MARGIN                 8
Info: HYDROGEN GROUP CUTOFF  2.5
Info: PATCH DIMENSION        21.5
Info: ENERGY OUTPUT STEPS    5000
Info: ENERGY EVALUATION STEPS    5000
Info: OUTPUT ENERGY PRECISION 4
Info: CROSSTERM ENERGY INCLUDED IN DIHEDRAL
Info: TIMING OUTPUT STEPS    50000
Info: PRESSURE OUTPUT STEPS  5000
Info: LANGEVIN DYNAMICS ACTIVE
Info: LANGEVIN TEMPERATURE   300
Info: LANGEVIN USING BBK INTEGRATOR
Info: LANGEVIN DAMPING COEFFICIENT IS 1 INVERSE PS
Info: LANGEVIN DYNAMICS APPLIED TO HYDROGENS
Info: LANGEVIN PISTON PRESSURE CONTROL ACTIVE
Info:        TARGET PRESSURE IS 1.01325 BAR
Info:     OSCILLATION PERIOD IS 50 FS
Info:             DECAY TIME IS 25 FS
Info:     PISTON TEMPERATURE IS 300 K
Info:       PRESSURE CONTROL IS GROUP-BASED
Info:    INITIAL STRAIN RATE IS 0 0 0
Info:       CELL FLUCTUATION IS ISOTROPIC
Info: PARTICLE MESH EWALD (PME) ACTIVE
Info: PME TOLERANCE               1e-06
Info: PME EWALD COEFFICIENT       0.348832
Info: PME INTERPOLATION ORDER     4
Info: PME GRID DIMENSIONS         44 40 44
Info: PME MAXIMUM GRID SPACING    1
Info: FULL ELECTROSTATIC EVALUATION FREQUENCY      2
Info: USING VERLET I (r-RESPA) MTS SCHEME.
Info: C1 SPLITTING OF LONG RANGE ELECTROSTATICS
Info: PLACING ATOMS IN PATCHES BY HYDROGEN GROUPS
Info: RIGID BONDS TO HYDROGEN : ALL
Info:         ERROR TOLERANCE : 1e-08
Info:          MAX ITERATIONS : 100
Info: RIGID WATER USING SETTLE ALGORITHM
Info: RANDOM NUMBER SEED     1741386657
Info: USE HYDROGEN BONDS?    NO
Info: Using AMBER format force field!
Info: AMBER PARM FILE        mobley_7066554.prmtop
Info: COORDINATE PDB         mobley_7066554.pdb
Info: Exclusions will be read from PARM file!
Info: SCNB (VDW SCALING)     2
Info: USING ARITHMETIC MEAN TO COMBINE L-J SIGMA PARAMETERS
Info: SUMMARY OF PARAMETERS:
Info: 7 BONDS
Info: 5 ANGLES
Info:   5 HARMONIC
Info:   0 COSINE-BASED
Info: 3 DIHEDRAL
Info: 0 IMPROPER
Info: 0 CROSSTERM
Info: 0 VDW
Info: 28 VDW_PAIRS
Info: 0 NBTHOLE_PAIRS
Info: STRUCTURE SUMMARY:
Info: 4816 ATOMS
Info: 4816 BONDS
Info: 19 ANGLES
Info: 31 DIHEDRALS
Info: 0 IMPROPERS
Info: 0 CROSSTERMS
Info: 4858 EXCLUSIONS
Info: 4808 RIGID BONDS
Info: 9640 DEGREES OF FREEDOM
Info: 1609 HYDROGEN GROUPS
Info: 3 ATOMS IN LARGEST HYDROGEN GROUP
Info: 1609 MIGRATION GROUPS
Info: 3 ATOMS IN LARGEST MIGRATION GROUP
Info: TOTAL MASS = 28972.2 amu
Info: TOTAL CHARGE = -0.000200016 e
Info: MASS DENSITY = 0.728467 g/cm^3
Info: ATOM DENSITY = 0.0729216 atoms/A^3
Info: ADDED 0 IMPLICIT EXCLUSIONS
Info: NONBONDED TABLE R-SQUARED SPACING: 0.0625
Info: NONBONDED TABLE SIZE: 705 POINTS
Info: REMOVING COM VELOCITY -0.0118895 0.0592975 -0.101771
TCL: Minimizing for 2000 steps
ETITLE: TS BOND ANGLE DIHED IMPRP ELECT VDW BOUNDARY MISC KINETIC TOTAL TEMP POTENTIAL TOTAL3 TEMPAVG PRESSURE GPRESSURE VOLUME PRESSAVG GPRESSAVG
ENERGY: 0 0.2807 0.1197 0.0001 0.0000 -15083.0903 1727.3498 0.0000 0.0000 0.0000 -13355.3401 0.0000 -13355.3401 -13355.3401 0.0000 11356.0747 -15856.6269 66043.5045 11356.0747 -15856.6269
ENERGY: 400 3.5326 2.6150 0.8488 0.0000 -20197.4369 2918.6529 0.0000 0.0000 0.0000 -17271.7877 0.0000 -17271.7877 -17271.7877 0.0000 15818.8653 15900.7193 66043.5045 15818.8653 15900.7193
ENERGY: 800 0.6979 0.4916 0.1485 0.0000 -21335.5528 3517.7988 0.0000 0.0000 0.0000 -17816.4159 0.0000 -17816.4159 -17816.4159 0.0000 18691.0015 18765.8012 66043.5045 18691.0015 18765.8012
ENERGY: 1200 0.4366 0.3633 0.1383 0.0000 -21688.3965 3643.6473 0.0000 0.0000 0.0000 -18043.8109 0.0000 -18043.8109 -18043.8109 0.0000 19269.5532 19338.6152 66043.5045 19269.5532 19338.6152
ENERGY: 1600 0.2599 0.1821 0.1834 0.0000 -21939.3081 3763.5163 0.0000 0.0000 0.0000 -18175.1665 0.0000 -18175.1665 -18175.1665 0.0000 19902.3196 19937.5396 66043.5045 19902.3196 19937.5396
ENERGY: 2000 0.2296 0.0981 0.0978 0.0000 -22073.4545 3831.0664 0.0000 0.0000 0.0000 -18241.9627 0.0000 -18241.9627 -18241.9627 0.0000 20259.4074 20301.6422 66043.5045 20259.4074 20301.6422
TCL: Exiting due to exit command.
Info: NAMD 3.0.1 for Linux-x86_64-multicore
Info: Please visit http://www.ks.uiuc.edu/Research/namd/
Info: for updates, documentation, and support information.
Info: Please cite Phillips et al., J. Chem. Phys. 153:044130 (2020) doi:10.1063/5.0014475
Info: in all publications reporting results obtained with NAMD.
Info: Based on Charm++/Converse 80000 for multicore-linux-x86_64-gcc
Info: Built Mon Oct 14 11:11:06 CDT 2024 by dhardy on athine.ks.uiuc.edu
Info: 1 NAMD  3.0.1  Linux-x86_64-multicore  16    k025  z5358697
Info: Running on 16 processors, 1 nodes, 1 physical nodes.
Info: CPU topology information available.
Info: Charm++/Converse parallel runtime startup completed at 0.00781609 s
Info: 1043.46 MB of memory in use based on /proc/self/stat
Info: Configuration file is mobley_7066554_equil.namd
Info: Working in the current directory /srv/scratch/z5358697/prod_prep_9/7066554
TCL: Running 25000 steps at 30 kelvin.
TCL: Suspending until startup complete.
Info: SIMULATION PARAMETERS:
Info: TIMESTEP               2
Info: NUMBER OF STEPS        0
Info: STEPS PER CYCLE        10
Info: PERIODIC CELL BASIS 1  41.123 0 0
Info: PERIODIC CELL BASIS 2  0 39.303 0
Info: PERIODIC CELL BASIS 3  0 0 40.862
Info: PERIODIC CELL CENTER   0 0 0
Info: WRAPPING WATERS AROUND PERIODIC BOUNDARIES ON OUTPUT.
Info: WRAPPING ALL CLUSTERS AROUND PERIODIC BOUNDARIES ON OUTPUT.
Info: FIRST LDB TIMESTEP     50
Info: LAST LDB TIMESTEP     -1
Info: HOM BACKGROUND SCALING 1
Info: PME BACKGROUND SCALING 1
Info: MIN ATOMS PER PATCH    40
Info: EMPTY PATCH LOAD       40 ATOMS
Info: INITIAL TEMPERATURE    300
Info: CENTER OF MASS MOVING INITIALLY? NO
Info: DIELECTRIC             1
Info: EXCLUDE                SCALED ONE-FOUR
Info: 1-4 ELECTROSTATICS SCALED BY 0.833333
Info: MODIFIED 1-4 VDW PARAMETERS WILL BE USED
Info: DCD FILENAME           mobley_7066554_equil.dcd
Info: DCD FREQUENCY          5000
Info: DCD FIRST STEP         5000
Info: DCD FILE WILL CONTAIN UNIT CELL DATA
Info: XST FILENAME           mobley_7066554_equil.xst
Info: XST FREQUENCY          5000
Info: NO VELOCITY DCD OUTPUT
Info: NO FORCE DCD OUTPUT
Info: OUTPUT FILENAME        mobley_7066554_equil
Info: BINARY OUTPUT FILES WILL BE USED
Info: RESTART FILENAME       mobley_7066554_equil.restart
Info: RESTART FREQUENCY      5000
Info: BINARY RESTART FILES WILL BE USED
Info: CUTOFF                 9
Info: PAIRLIST DISTANCE      11
Info: PAIRLIST SHRINK RATE   0.01
Info: PAIRLIST GROW RATE     0.01
Info: PAIRLIST TRIGGER       0.3
Info: PAIRLISTS PER CYCLE    2
Info: PAIRLISTS ENABLED
Info: MARGIN                 8
Info: HYDROGEN GROUP CUTOFF  2.5
Info: PATCH DIMENSION        21.5
Info: ENERGY OUTPUT STEPS    5000
Info: ENERGY EVALUATION STEPS    5000
Info: OUTPUT ENERGY PRECISION 4
Info: CROSSTERM ENERGY INCLUDED IN DIHEDRAL
Info: TIMING OUTPUT STEPS    50000
Info: PRESSURE OUTPUT STEPS  5000
Info: LANGEVIN DYNAMICS ACTIVE
Info: LANGEVIN TEMPERATURE   30
Info: LANGEVIN USING BBK INTEGRATOR
Info: LANGEVIN DAMPING COEFFICIENT IS 1 INVERSE PS
Info: LANGEVIN DYNAMICS APPLIED TO HYDROGENS
Info: LANGEVIN PISTON PRESSURE CONTROL ACTIVE
Info:        TARGET PRESSURE IS 1.01325 BAR
Info:     OSCILLATION PERIOD IS 50 FS
Info:             DECAY TIME IS 25 FS
Info:     PISTON TEMPERATURE IS 300 K
Info:       PRESSURE CONTROL IS GROUP-BASED
Info:    INITIAL STRAIN RATE IS 0 0 0
Info:       CELL FLUCTUATION IS ISOTROPIC
Info: PARTICLE MESH EWALD (PME) ACTIVE
Info: PME TOLERANCE               1e-06
Info: PME EWALD COEFFICIENT       0.348832
Info: PME INTERPOLATION ORDER     4
Info: PME GRID DIMENSIONS         44 40 44
Info: PME MAXIMUM GRID SPACING    1
Info: FULL ELECTROSTATIC EVALUATION FREQUENCY      2
Info: USING VERLET I (r-RESPA) MTS SCHEME.
Info: C1 SPLITTING OF LONG RANGE ELECTROSTATICS
Info: PLACING ATOMS IN PATCHES BY HYDROGEN GROUPS
Info: RIGID BONDS TO HYDROGEN : ALL
Info:         ERROR TOLERANCE : 1e-08
Info:          MAX ITERATIONS : 100
Info: RIGID WATER USING SETTLE ALGORITHM
Info: RANDOM NUMBER SEED     1741386673
Info: USE HYDROGEN BONDS?    NO
Info: Using AMBER format force field!
Info: AMBER PARM FILE        mobley_7066554.prmtop
Info: COORDINATE PDB         mobley_7066554.pdb
Info: Exclusions will be read from PARM file!
Info: SCNB (VDW SCALING)     2
Info: USING ARITHMETIC MEAN TO COMBINE L-J SIGMA PARAMETERS
Info: BINARY COORDINATES     mobley_7066554_min.coor
Info: SUMMARY OF PARAMETERS:
Info: 7 BONDS
Info: 5 ANGLES
Info:   5 HARMONIC
Info:   0 COSINE-BASED
Info: 3 DIHEDRAL
Info: 0 IMPROPER
Info: 0 CROSSTERM
Info: 0 VDW
Info: 28 VDW_PAIRS
Info: 0 NBTHOLE_PAIRS
Info: STRUCTURE SUMMARY:
Info: 4816 ATOMS
Info: 4816 BONDS
Info: 19 ANGLES
Info: 31 DIHEDRALS
Info: 0 IMPROPERS
Info: 0 CROSSTERMS
Info: 4858 EXCLUSIONS
Info: 4808 RIGID BONDS
Info: 9640 DEGREES OF FREEDOM
Info: 1609 HYDROGEN GROUPS
Info: 3 ATOMS IN LARGEST HYDROGEN GROUP
Info: 1609 MIGRATION GROUPS
Info: 3 ATOMS IN LARGEST MIGRATION GROUP
Info: TOTAL MASS = 28972.2 amu
Info: TOTAL CHARGE = -0.000200016 e
Info: MASS DENSITY = 0.728467 g/cm^3
Info: ATOM DENSITY = 0.0729216 atoms/A^3
Info: ADDED 0 IMPLICIT EXCLUSIONS
Info: NONBONDED TABLE R-SQUARED SPACING: 0.0625
Info: NONBONDED TABLE SIZE: 705 POINTS
Info: REMOVING COM VELOCITY 0.0264538 -0.0157517 0.042846
TCL: Running for 25000 steps
ETITLE: TS BOND ANGLE DIHED IMPRP ELECT VDW BOUNDARY MISC KINETIC TOTAL TEMP POTENTIAL TOTAL3 TEMPAVG PRESSURE GPRESSURE VOLUME PRESSAVG GPRESSAVG
ENERGY: 0 0.2296 0.0981 0.0978 0.0000 -22073.4545 3831.0664 0.0000 0.0000 2923.7207 -15318.2420 305.2455 -18241.9627 -15317.6659 305.2455 340.7244 376.5120 66043.5045 340.7244 376.5120
ENERGY: 5000 0.3481 0.4008 0.5049 0.0000 -23258.9433 4116.3022 0.0000 0.0000 288.7311 -18852.6563 30.1444 -19141.3874 -18851.7592 48.1691 622.7396 674.0641 46371.2403 -1.7736 -1.8705
ENERGY: 10000 0.2104 0.4703 0.4343 0.0000 -22937.3009 3781.5146 0.0000 0.0000 294.4900 -18860.1812 30.7457 -19154.6712 -18859.3548 30.1627 -1189.0623 -1123.6223 46772.4480 4.5233 4.4324
ENERGY: 15000 0.2365 0.2209 0.6609 0.0000 -23112.1532 3939.9715 0.0000 0.0000 289.6286 -18881.4347 30.2381 -19171.0633 -18880.9834 30.1556 -368.9361 -315.0540 46547.4509 0.4346 0.3174
ENERGY: 20000 0.6612 0.6042 0.3637 0.0000 -23141.1393 3937.0212 0.0000 0.0000 293.4718 -18909.0171 30.6394 -19202.4890 -18908.4808 29.9863 -450.0609 -394.3015 46323.0857 1.8796 1.7503
ENERGY: 25000 0.2074 0.6051 0.4496 0.0000 -23172.6481 3962.4650 0.0000 0.0000 288.0613 -18920.8597 30.0745 -19208.9210 -18920.1835 29.9876 -351.5673 -280.1005 46270.1676 4.5448 4.5893
TCL: Running 25000 steps at 60 kelvin.
TCL: Setting parameter langevinTemp to 60
TCL: Running for 25000 steps
ETITLE: TS BOND ANGLE DIHED IMPRP ELECT VDW BOUNDARY MISC KINETIC TOTAL TEMP POTENTIAL TOTAL3 TEMPAVG PRESSURE GPRESSURE VOLUME PRESSAVG GPRESSAVG
ENERGY: 25000 0.2074 0.6051 0.4496 0.0000 -23172.6481 3962.4650 0.0000 0.0000 287.9202 -18921.0009 30.0598 -19208.9210 -18920.3987 30.0598 -334.0383 -280.2357 46270.1676 -334.0383 -280.2357
ENERGY: 30000 0.2028 0.5600 1.2918 0.0000 -22828.2656 3870.4169 0.0000 0.0000 597.6997 -18358.0945 62.4017 -18955.7942 -18357.4692 57.4323 -164.4984 -110.9162 46495.8493 3.7602 3.4529
ENERGY: 35000 0.1760 0.4691 0.2973 0.0000 -23090.4850 4063.9374 0.0000 0.0000 572.9583 -18452.6470 59.8186 -19025.6053 -18451.4524 60.6881 833.5572 899.8251 45772.3001 4.6734 4.6056
ENERGY: 40000 0.6497 0.3616 0.7356 0.0000 -23057.3318 4001.6657 0.0000 0.0000 574.5360 -18479.3831 59.9833 -19053.9191 -18477.7998 60.2871 297.1263 379.3034 46149.1962 2.0299 1.9300
ENERGY: 45000 0.7515 0.5173 0.7345 0.0000 -23004.5443 3928.6122 0.0000 0.0000 574.2378 -18499.6910 59.9522 -19073.9288 -18498.1682 60.0340 -108.7190 -65.4707 46222.9532 4.6991 4.4767
ENERGY: 50000 0.2741 0.4262 1.5486 0.0000 -22990.9700 3908.9834 0.0000 0.0000 584.1424 -18495.5952 60.9863 -19079.7377 -18494.4451 59.9654 -76.3302 -31.9919 46019.8428 2.8117 2.9609
TCL: Running 25000 steps at 90 kelvin.
TCL: Setting parameter langevinTemp to 90
TCL: Running for 25000 steps
ETITLE: TS BOND ANGLE DIHED IMPRP ELECT VDW BOUNDARY MISC KINETIC TOTAL TEMP POTENTIAL TOTAL3 TEMPAVG PRESSURE GPRESSURE VOLUME PRESSAVG GPRESSAVG
ENERGY: 50000 0.2741 0.4262 1.5486 0.0000 -22990.9700 3908.9834 0.0000 0.0000 583.8488 -18495.8888 60.9556 -19079.7377 -18494.6717 60.9556 -75.5717 -32.0456 46019.8428 -75.5717 -32.0456
ENERGY: 55000 0.8249 0.7332 1.2403 0.0000 -22591.1851 3775.7810 0.0000 0.0000 852.3455 -17960.2602 88.9875 -18812.6057 -17958.3774 87.3704 -343.6048 -288.9995 46564.3334 3.8976 3.6825
ENERGY: 60000 1.3460 0.5394 1.4772 0.0000 -22779.2577 3939.8791 0.0000 0.0000 880.3729 -17955.6430 91.9137 -18836.0159 -17954.1072 90.0406 520.1633 583.0188 46379.6124 4.2348 4.0456
ENERGY: 65000 1.0899 0.6936 1.4210 0.0000 -22712.9107 3847.1977 0.0000 0.0000 849.0698 -18013.4387 88.6455 -18862.5085 -18012.1063 90.0657 -105.9479 -53.7765 46699.6012 4.4876 4.3627
ENERGY: 70000 0.7060 1.2149 1.5933 0.0000 -22841.4733 3974.5077 0.0000 0.0000 878.6643 -17984.7871 91.7353 -18863.4514 -17982.9680 90.4502 571.0028 621.4949 46453.5203 0.3108 0.2830
ENERGY: 75000 0.5943 0.6755 0.5785 0.0000 -22713.9011 3816.5480 0.0000 0.0000 890.8665 -18004.6382 93.0092 -18895.5048 -18002.6402 90.5607 -333.9511 -240.9552 46638.3734 4.0297 4.6773
TCL: Running 25000 steps at 120 kelvin.
TCL: Setting parameter langevinTemp to 120
TCL: Running for 25000 steps
ETITLE: TS BOND ANGLE DIHED IMPRP ELECT VDW BOUNDARY MISC KINETIC TOTAL TEMP POTENTIAL TOTAL3 TEMPAVG PRESSURE GPRESSURE VOLUME PRESSAVG GPRESSAVG
ENERGY: 75000 0.5943 0.6755 0.5785 0.0000 -22713.9011 3816.5480 0.0000 0.0000 890.4275 -18005.0773 92.9634 -18895.5048 -18003.2084 92.9634 -292.0106 -241.1970 46638.3734 -292.0106 -241.1970
ENERGY: 80000 0.9283 0.8905 2.0771 0.0000 -22214.2622 3638.7212 0.0000 0.0000 1140.6143 -17431.0309 119.0837 -18571.6451 -17427.8348 116.7940 -419.3585 -337.8661 46950.6469 6.0891 5.4789
ENERGY: 85000 1.0067 0.8493 1.9719 0.0000 -22332.6881 3696.3101 0.0000 0.0000 1133.8813 -17498.6688 118.3807 -18632.5501 -17496.1601 120.0289 -383.9198 -340.4683 46940.9189 8.5494 9.0743
ENERGY: 90000 1.4213 1.3325 0.6281 0.0000 -22406.4847 3792.6832 0.0000 0.0000 1146.7641 -17463.6555 119.7257 -18610.4196 -17461.2165 120.0014 244.9408 325.0786 46675.9282 2.1066 2.3660
ENERGY: 95000 2.3037 0.9115 0.8182 0.0000 -22372.6396 3747.8964 0.0000 0.0000 1166.2405 -17454.4693 121.7591 -18620.7098 -17452.8421 119.9636 -91.7088 -33.2731 46692.1845 1.2173 1.1847
ENERGY: 100000 1.6414 0.5319 0.5375 0.0000 -22309.8158 3668.2493 0.0000 0.0000 1131.7310 -17507.1246 118.1562 -18638.8556 -17505.6416 120.8392 -503.8722 -460.2177 46778.9684 4.5737 4.3923
TCL: Running 25000 steps at 150 kelvin.
TCL: Setting parameter langevinTemp to 150
TCL: Running for 25000 steps
ETITLE: TS BOND ANGLE DIHED IMPRP ELECT VDW BOUNDARY MISC KINETIC TOTAL TEMP POTENTIAL TOTAL3 TEMPAVG PRESSURE GPRESSURE VOLUME PRESSAVG GPRESSAVG
ENERGY: 100000 1.6414 0.5319 0.5375 0.0000 -22309.8158 3668.2493 0.0000 0.0000 1131.1681 -17507.6876 118.0974 -18638.8556 -17505.8285 118.0974 -512.7902 -460.9467 46778.9684 -512.7902 -460.9467
ENERGY: 105000 0.3747 1.4211 1.7907 0.0000 -22023.2834 3695.4604 0.0000 0.0000 1411.3614 -16912.8751 147.3505 -18324.2365 -16910.0435 145.9466 335.7765 383.5195 47044.0498 1.0314 1.1369
ENERGY: 110000 0.6750 0.8912 0.9098 0.0000 -21934.5598 3628.0127 0.0000 0.0000 1425.1477 -16878.9234 148.7898 -18304.0711 -16874.3726 149.8821 -74.6372 -49.8811 47397.1444 0.6227 0.8537
ENERGY: 115000 1.3706 1.2497 1.5749 0.0000 -21902.8348 3614.7329 0.0000 0.0000 1452.4577 -16831.4490 151.6411 -18283.9068 -16828.9693 150.5681 -73.2589 15.5175 47247.3672 1.2573 1.4690
ENERGY: 120000 1.2984 2.6300 3.0307 0.0000 -22032.9264 3621.4236 0.0000 0.0000 1437.6361 -16966.9077 150.0936 -18404.5438 -16962.6077 150.0131 -334.9847 -274.1248 47310.3823 4.2727 4.1155
ENERGY: 125000 0.2174 1.0799 2.2522 0.0000 -21910.8903 3568.3992 0.0000 0.0000 1431.3886 -16907.5529 149.4414 -18338.9415 -16905.2438 149.4748 -492.9699 -454.3960 47524.6753 0.4328 0.2225
TCL: Running 50000 steps at 180 kelvin.
TCL: Setting parameter langevinTemp to 180
TCL: Running for 50000 steps
ETITLE: TS BOND ANGLE DIHED IMPRP ELECT VDW BOUNDARY MISC KINETIC TOTAL TEMP POTENTIAL TOTAL3 TEMPAVG PRESSURE GPRESSURE VOLUME PRESSAVG GPRESSAVG
ENERGY: 125000 0.2174 1.0799 2.2522 0.0000 -21910.8903 3568.3992 0.0000 0.0000 1430.6650 -16908.2765 149.3658 -18338.9415 -16904.9070 149.3658 -507.6263 -455.4543 47524.6753 -507.6263 -455.4543
ENERGY: 135000 1.1641 1.2456 2.0704 0.0000 -21294.9713 3392.9297 0.0000 0.0000 1729.9640 -16167.5974 180.6136 -17897.5615 -16164.3740 179.6250 -308.3153 -227.1562 47356.6428 3.3313 3.4006
ENERGY: 145000 1.0700 3.6290 2.5782 0.0000 -21392.6854 3548.9728 0.0000 0.0000 1686.9392 -16149.4962 176.1217 -17836.4353 -16144.5792 180.7810 691.2947 748.5530 47065.2126 -5.2591 -5.2012
ENERGY: 155000 0.5523 1.5308 2.8235 0.0000 -21437.1309 3536.0838 0.0000 0.0000 1725.3776 -16170.7628 180.1348 -17896.1404 -16165.9919 179.9020 476.8287 534.3006 47124.7978 4.1790 4.2173
ENERGY: 165000 1.0294 1.0670 2.6444 0.0000 -21291.7198 3370.2304 0.0000 0.0000 1747.9619 -16168.7867 182.4926 -17916.7486 -16163.8765 179.7618 -391.5163 -291.3363 47107.1287 4.1567 3.6878
ENERGY: 175000 2.9430 1.8825 1.1533 0.0000 -21350.2853 3395.3340 0.0000 0.0000 1711.8433 -16237.1291 178.7217 -17948.9724 -16233.0221 179.3467 -347.8211 -308.4698 47026.0240 2.8826 2.9306
TCL: Running 50000 steps at 210 kelvin.
TCL: Setting parameter langevinTemp to 210
TCL: Running for 50000 steps
ETITLE: TS BOND ANGLE DIHED IMPRP ELECT VDW BOUNDARY MISC KINETIC TOTAL TEMP POTENTIAL TOTAL3 TEMPAVG PRESSURE GPRESSURE VOLUME PRESSAVG GPRESSAVG
ENERGY: 175000 2.9430 1.8825 1.1533 0.0000 -21350.2853 3395.3340 0.0000 0.0000 1710.9999 -16237.9725 178.6337 -17948.9724 -16234.4211 178.6337 -367.0789 -308.8436 47026.0240 -367.0789 -308.8436
ENERGY: 185000 1.6534 2.1293 1.2695 0.0000 -20423.0159 3136.1392 0.0000 0.0000 1977.4563 -15304.3681 206.4525 -17281.8244 -15299.1433 207.9690 -267.1193 -150.0221 47631.9533 -2.3492 -2.4592
ENERGY: 195000 1.1001 1.8478 2.0818 0.0000 -20267.4806 3070.7365 0.0000 0.0000 2012.3114 -15179.4030 210.0915 -17191.7144 -15175.0746 210.1071 -111.9946 -101.1513 47041.5491 2.8441 2.6391
ENERGY: 205000 1.6498 1.0602 3.0601 0.0000 -20157.2521 2946.1418 0.0000 0.0000 2036.6324 -15168.7079 212.6307 -17205.3403 -15161.4256 209.2180 -971.3938 -864.0609 47389.6315 3.1067 3.3086
ENERGY: 215000 1.0654 2.1769 1.3823 0.0000 -20322.5060 3120.8373 0.0000 0.0000 1980.7371 -15216.3070 206.7951 -17197.0441 -15212.6618 210.9834 0.4705 99.7893 47002.2976 -1.9843 -1.6232
ENERGY: 225000 0.5716 1.5529 2.3146 0.0000 -20422.2847 3234.1868 0.0000 0.0000 1989.6139 -15194.0450 207.7218 -17183.6589 -15189.1016 210.3393 602.5448 645.4759 47173.0116 0.6850 0.8269
TCL: Running 50000 steps at 240 kelvin.
TCL: Setting parameter langevinTemp to 240
TCL: Running for 50000 steps
ETITLE: TS BOND ANGLE DIHED IMPRP ELECT VDW BOUNDARY MISC KINETIC TOTAL TEMP POTENTIAL TOTAL3 TEMPAVG PRESSURE GPRESSURE VOLUME PRESSAVG GPRESSAVG
ENERGY: 225000 0.5716 1.5529 2.3146 0.0000 -20422.2847 3234.1868 0.0000 0.0000 1988.6244 -15195.0345 207.6185 -17183.6589 -15191.2526 207.6185 560.1368 645.0272 47173.0116 560.1368 645.0272
ENERGY: 235000 2.2117 1.7059 1.2745 0.0000 -19251.8737 2712.5722 0.0000 0.0000 2361.4562 -14172.6532 246.5433 -16534.1094 -14166.8790 238.7540 -772.7936 -695.0324 48022.3056 5.0466 4.9820
ENERGY: 245000 1.1405 0.5141 5.6995 0.0000 -19534.7277 2902.1699 0.0000 0.0000 2295.6638 -14329.5399 239.6744 -16625.2037 -14322.6545 239.0208 373.1543 434.0819 46884.4036 0.7866 0.9555
ENERGY: 255000 1.9851 3.0177 2.2447 0.0000 -19333.9103 2844.7481 0.0000 0.0000 2314.6876 -14167.2271 241.6605 -16481.9147 -14163.0352 239.9046 130.8708 188.6916 47657.2026 1.4741 1.8172
ENERGY: 265000 3.3679 2.3699 2.6571 0.0000 -19335.4442 2787.5422 0.0000 0.0000 2315.4187 -14224.0885 241.7369 -16539.5072 -14217.8568 240.6296 -113.9737 -27.6523 47128.4859 2.1215 2.3685
ENERGY: 275000 0.9415 1.4088 2.6698 0.0000 -19568.1442 3010.7410 0.0000 0.0000 2326.2516 -14226.1314 242.8679 -16552.3830 -14222.2527 239.2449 920.8213 1003.9859 47160.8317 5.0855 5.3417
TCL: Running 50000 steps at 270 kelvin.
TCL: Setting parameter langevinTemp to 270
TCL: Running for 50000 steps
ETITLE: TS BOND ANGLE DIHED IMPRP ELECT VDW BOUNDARY MISC KINETIC TOTAL TEMP POTENTIAL TOTAL3 TEMPAVG PRESSURE GPRESSURE VOLUME PRESSAVG GPRESSAVG
ENERGY: 275000 0.9415 1.4088 2.6698 0.0000 -19568.1442 3010.7410 0.0000 0.0000 2325.1008 -14227.2822 242.7477 -16552.3830 -14223.9867 242.7477 918.3238 1002.3335 47160.8317 918.3238 1002.3335
ENERGY: 285000 1.7543 0.7946 4.5270 0.0000 -18320.9276 2508.3456 0.0000 0.0000 2569.5249 -13235.9813 268.2663 -15805.5061 -13230.9026 269.3146 -453.6956 -399.8918 48586.1330 -2.5479 -2.6112
ENERGY: 295000 1.5969 4.0175 4.4406 0.0000 -18302.6711 2481.0866 0.0000 0.0000 2579.9358 -13231.5937 269.3533 -15811.5295 -13227.8060 272.0897 -516.1455 -403.1253 48439.7768 -0.2684 -0.1728
ENERGY: 305000 1.1155 3.5283 5.7105 0.0000 -18222.3720 2453.3689 0.0000 0.0000 2547.7974 -13210.8514 265.9979 -15758.6488 -13201.3810 270.0378 -383.7074 -273.6616 48188.6075 4.3771 3.3835
ENERGY: 315000 2.0888 2.3763 1.0447 0.0000 -18406.6132 2641.9576 0.0000 0.0000 2557.4608 -13201.6850 267.0068 -15759.1458 -13195.6906 269.3289 460.7685 545.1698 48145.4877 -0.3458 -0.4201
ENERGY: 325000 1.1581 3.5269 3.8013 0.0000 -18395.1598 2531.7579 0.0000 0.0000 2606.4459 -13248.4696 272.1210 -15854.9155 -13243.4717 269.3751 -355.3564 -223.9526 48513.8019 6.4925 5.8863
TCL: Running 1000000 steps at 300 kelvin.
TCL: Setting parameter langevinTemp to 300
TCL: Running for 1000000 steps
ETITLE: TS BOND ANGLE DIHED IMPRP ELECT VDW BOUNDARY MISC KINETIC TOTAL TEMP POTENTIAL TOTAL3 TEMPAVG PRESSURE GPRESSURE VOLUME PRESSAVG GPRESSAVG
ENERGY: 325000 1.1581 3.5269 3.8013 0.0000 -18395.1598 2531.7579 0.0000 0.0000 2605.1639 -13249.7516 271.9872 -15854.9155 -13245.2079 271.9872 -298.5735 -223.8563 48513.8019 -298.5735 -223.8563
ENERGY: 525000 4.7542 4.4597 3.6969 0.0000 -17353.3319 2229.0052 0.0000 0.0000 2914.8660 -12196.5499 304.3210 -15111.4159 -12189.3780 301.9573 -467.2745 -425.6506 49473.1193 2.8555 3.3244
ENERGY: 725000 3.3239 4.4545 2.8916 0.0000 -17512.5132 2364.5030 0.0000 0.0000 2878.3291 -12259.0110 300.5064 -15137.3401 -12255.6870 299.4363 79.8772 109.6712 49801.4108 3.5384 3.1669
ENERGY: 925000 2.4428 3.3413 6.0148 0.0000 -17416.1809 2333.4644 0.0000 0.0000 2902.5880 -12168.3297 303.0392 -15070.9177 -12164.9718 299.9809 -184.3465 -121.9895 50169.7415 -2.2322 -1.7157
ENERGY: 1125000 4.7027 3.1416 2.8033 0.0000 -17437.0092 2352.0652 0.0000 0.0000 2882.0710 -12192.2254 300.8971 -15074.2963 -12184.1346 301.5733 59.9927 140.6676 49499.6037 0.2649 0.2324
ENERGY: 1325000 1.6573 3.0006 4.2840 0.0000 -17691.5226 2488.4172 0.0000 0.0000 2856.2138 -12337.9497 298.1975 -15194.1634 -12333.3619 298.2456 662.0965 715.0814 49211.3002 1.7301 1.6283
TCL: Exiting due to exit command.
