Info: SIMULATION PARAMETERS:
Info: TIMESTEP               2
Info: NUMBER OF STEPS        0
Info: STEPS PER CYCLE        10
Info: PERIODIC CELL BASIS 1  37.968 0 0
Info: PERIODIC CELL BASIS 2  0 37.796 0
Info: PERIODIC CELL BASIS 3  0 0 39.561
Info: PERIODIC CELL CENTER   0 0 0
Info: WRAPPING WATERS AROUND PERIODIC BOUNDARIES ON OUTPUT.
Info: WRAPPING ALL CLUSTERS AROUND PERIODIC BOUNDARIES ON OUTPUT.
Info: FIRST LDB TIMESTEP     50
Info: LAST LDB TIMESTEP     -1
Info: HOM BACKGROUND SCALING 1
Info: PME BACKGROUND SCALING 1
Info: MIN ATOMS PER PATCH    40
Info: EMPTY PATCH LOAD       40 ATOMS
Info: INITIAL TEMPERATURE    300
Info: CENTER OF MASS MOVING INITIALLY? NO
Info: DIELECTRIC             1
Info: EXCLUDE                SCALED ONE-FOUR
Info: 1-4 ELECTROSTATICS SCALED BY 0.833333
Info: MODIFIED 1-4 VDW PARAMETERS WILL BE USED
Info: DCD FILENAME           mobley_3762186_min.dcd
Info: DCD FREQUENCY          5000
Info: DCD FIRST STEP         5000
Info: DCD FILE WILL CONTAIN UNIT CELL DATA
Info: XST FILENAME           mobley_3762186_min.xst
Info: XST FREQUENCY          5000
Info: NO VELOCITY DCD OUTPUT
Info: NO FORCE DCD OUTPUT
Info: OUTPUT FILENAME        mobley_3762186_min
Info: BINARY OUTPUT FILES WILL BE USED
Info: RESTART FILENAME       mobley_3762186_min.restart
Info: RESTART FREQUENCY      5000
Info: BINARY RESTART FILES WILL BE USED
Info: CUTOFF                 9
Info: PAIRLIST DISTANCE      11
Info: PAIRLIST SHRINK RATE   0.01
Info: PAIRLIST GROW RATE     0.01
Info: PAIRLIST TRIGGER       0.3
Info: PAIRLISTS PER CYCLE    2
Info: PAIRLISTS ENABLED
Info: MARGIN                 8
Info: HYDROGEN GROUP CUTOFF  2.5
Info: PATCH DIMENSION        21.5
Info: ENERGY OUTPUT STEPS    5000
Info: ENERGY EVALUATION STEPS    5000
Info: OUTPUT ENERGY PRECISION 4
Info: CROSSTERM ENERGY INCLUDED IN DIHEDRAL
Info: TIMING OUTPUT STEPS    50000
Info: PRESSURE OUTPUT STEPS  5000
Info: LANGEVIN DYNAMICS ACTIVE
Info: LANGEVIN TEMPERATURE   300
Info: LANGEVIN USING BBK INTEGRATOR
Info: LANGEVIN DAMPING COEFFICIENT IS 1 INVERSE PS
Info: LANGEVIN DYNAMICS APPLIED TO HYDROGENS
Info: LANGEVIN PISTON PRESSURE CONTROL ACTIVE
Info:        TARGET PRESSURE IS 1.01325 BAR
Info:     OSCILLATION PERIOD IS 50 FS
Info:             DECAY TIME IS 25 FS
Info:     PISTON TEMPERATURE IS 300 K
Info:       PRESSURE CONTROL IS GROUP-BASED
Info:    INITIAL STRAIN RATE IS 0 0 0
Info:       CELL FLUCTUATION IS ISOTROPIC
Info: PARTICLE MESH EWALD (PME) ACTIVE
Info: PME TOLERANCE               1e-06
Info: PME EWALD COEFFICIENT       0.348832
Info: PME INTERPOLATION ORDER     4
Info: PME GRID DIMENSIONS         40 40 40
Info: PME MAXIMUM GRID SPACING    1
Info: FULL ELECTROSTATIC EVALUATION FREQUENCY      2
Info: USING VERLET I (r-RESPA) MTS SCHEME.
Info: C1 SPLITTING OF LONG RANGE ELECTROSTATICS
Info: PLACING ATOMS IN PATCHES BY HYDROGEN GROUPS
Info: RIGID BONDS TO HYDROGEN : ALL
Info:         ERROR TOLERANCE : 1e-08
Info:          MAX ITERATIONS : 100
Info: RIGID WATER USING SETTLE ALGORITHM
Info: RANDOM NUMBER SEED     1741329789
Info: USE HYDROGEN BONDS?    NO
Info: Using AMBER format force field!
Info: AMBER PARM FILE        mobley_3762186.prmtop
Info: COORDINATE PDB         mobley_3762186.pdb
Info: Exclusions will be read from PARM file!
Info: SCNB (VDW SCALING)     2
Info: USING ARITHMETIC MEAN TO COMBINE L-J SIGMA PARAMETERS
Info: SUMMARY OF PARAMETERS:
Info: 4 BONDS
Info: 3 ANGLES
Info:   3 HARMONIC
Info:   0 COSINE-BASED
Info: 0 DIHEDRAL
Info: 0 IMPROPER
Info: 0 CROSSTERM
Info: 0 VDW
Info: 15 VDW_PAIRS
Info: 0 NBTHOLE_PAIRS
Info: STRUCTURE SUMMARY:
Info: 3995 ATOMS
Info: 3994 BONDS
Info: 6 ANGLES
Info: 0 DIHEDRALS
Info: 0 IMPROPERS
Info: 0 CROSSTERMS
Info: 4000 EXCLUSIONS
Info: 3992 RIGID BONDS
Info: 7993 DEGREES OF FREEDOM
Info: 1333 HYDROGEN GROUPS
Info: 3 ATOMS IN LARGEST HYDROGEN GROUP
Info: 1333 MIGRATION GROUPS
Info: 3 ATOMS IN LARGEST MIGRATION GROUP
Info: TOTAL MASS = 24046.2 amu
Info: TOTAL CHARGE = 1.49012e-08 e
Info: MASS DENSITY = 0.703356 g/cm^3
Info: ATOM DENSITY = 0.0703697 atoms/A^3
Info: ADDED 0 IMPLICIT EXCLUSIONS
Info: NONBONDED TABLE R-SQUARED SPACING: 0.0625
Info: NONBONDED TABLE SIZE: 705 POINTS
Info: REMOVING COM VELOCITY 0.00164004 0.0643106 0.0992596
TCL: Minimizing for 2000 steps
ETITLE: TS BOND ANGLE DIHED IMPRP ELECT VDW BOUNDARY MISC KINETIC TOTAL TEMP POTENTIAL TOTAL3 TEMPAVG PRESSURE GPRESSURE VOLUME PRESSAVG GPRESSAVG
ENERGY: 0 0.5915 0.2711 0.0000 0.0000 -12211.7958 1415.8164 0.0000 0.0000 0.0000 -10795.1168 0.0000 -10795.1168 -10795.1168 0.0000 10753.5187 -14928.4162 56771.5592 10753.5187 -14928.4162
ENERGY: 400 1.3223 0.7089 0.0000 0.0000 -17042.8687 2645.0627 0.0000 0.0000 0.0000 -14395.7748 0.0000 -14395.7748 -14395.7748 0.0000 16408.6890 16545.0404 56771.5592 16408.6890 16545.0404
ENERGY: 800 0.9793 0.5598 0.0000 0.0000 -17963.5355 3037.6641 0.0000 0.0000 0.0000 -14924.3323 0.0000 -14924.3323 -14924.3323 0.0000 18582.6475 18711.6121 56771.5592 18582.6475 18711.6121
ENERGY: 1200 2.7312 1.0938 0.0000 0.0000 -18299.0408 3158.4026 0.0000 0.0000 0.0000 -15136.8133 0.0000 -15136.8133 -15136.8133 0.0000 19294.8334 19406.8637 56771.5592 19294.8334 19406.8637
ENERGY: 1600 0.0647 0.2421 0.0000 0.0000 -18466.6658 3256.8970 0.0000 0.0000 0.0000 -15209.4620 0.0000 -15209.4620 -15209.4620 0.0000 19918.6212 20016.2467 56771.5592 19918.6212 20016.2467
ENERGY: 2000 0.0560 0.2395 0.0000 0.0000 -18497.8754 3244.4258 0.0000 0.0000 0.0000 -15253.1542 0.0000 -15253.1542 -15253.1542 0.0000 19856.1748 19942.0446 56771.5592 19856.1748 19942.0446
TCL: Exiting due to exit command.
Info: NAMD 3.0.1 for Linux-x86_64-multicore
Info: Please visit http://www.ks.uiuc.edu/Research/namd/
Info: for updates, documentation, and support information.
Info: Please cite Phillips et al., J. Chem. Phys. 153:044130 (2020) doi:10.1063/5.0014475
Info: in all publications reporting results obtained with NAMD.
Info: Based on Charm++/Converse 80000 for multicore-linux-x86_64-gcc
Info: Built Mon Oct 14 11:11:06 CDT 2024 by dhardy on athine.ks.uiuc.edu
Info: 1 NAMD  3.0.1  Linux-x86_64-multicore  16    k008  z5358697
Info: Running on 16 processors, 1 nodes, 1 physical nodes.
Info: CPU topology information available.
Info: Charm++/Converse parallel runtime startup completed at 0.00843761 s
Info: 1043.45 MB of memory in use based on /proc/self/stat
Info: Configuration file is mobley_3762186_equil.namd
Info: Working in the current directory /srv/scratch/z5358697/prod_prep_4/3762186
TCL: Running 25000 steps at 30 kelvin.
TCL: Suspending until startup complete.
Info: SIMULATION PARAMETERS:
Info: TIMESTEP               2
Info: NUMBER OF STEPS        0
Info: STEPS PER CYCLE        10
Info: PERIODIC CELL BASIS 1  37.968 0 0
Info: PERIODIC CELL BASIS 2  0 37.796 0
Info: PERIODIC CELL BASIS 3  0 0 39.561
Info: PERIODIC CELL CENTER   0 0 0
Info: WRAPPING WATERS AROUND PERIODIC BOUNDARIES ON OUTPUT.
Info: WRAPPING ALL CLUSTERS AROUND PERIODIC BOUNDARIES ON OUTPUT.
Info: FIRST LDB TIMESTEP     50
Info: LAST LDB TIMESTEP     -1
Info: HOM BACKGROUND SCALING 1
Info: PME BACKGROUND SCALING 1
Info: MIN ATOMS PER PATCH    40
Info: EMPTY PATCH LOAD       40 ATOMS
Info: INITIAL TEMPERATURE    300
Info: CENTER OF MASS MOVING INITIALLY? NO
Info: DIELECTRIC             1
Info: EXCLUDE                SCALED ONE-FOUR
Info: 1-4 ELECTROSTATICS SCALED BY 0.833333
Info: MODIFIED 1-4 VDW PARAMETERS WILL BE USED
Info: DCD FILENAME           mobley_3762186_equil.dcd
Info: DCD FREQUENCY          5000
Info: DCD FIRST STEP         5000
Info: DCD FILE WILL CONTAIN UNIT CELL DATA
Info: XST FILENAME           mobley_3762186_equil.xst
Info: XST FREQUENCY          5000
Info: NO VELOCITY DCD OUTPUT
Info: NO FORCE DCD OUTPUT
Info: OUTPUT FILENAME        mobley_3762186_equil
Info: BINARY OUTPUT FILES WILL BE USED
Info: RESTART FILENAME       mobley_3762186_equil.restart
Info: RESTART FREQUENCY      5000
Info: BINARY RESTART FILES WILL BE USED
Info: CUTOFF                 9
Info: PAIRLIST DISTANCE      11
Info: PAIRLIST SHRINK RATE   0.01
Info: PAIRLIST GROW RATE     0.01
Info: PAIRLIST TRIGGER       0.3
Info: PAIRLISTS PER CYCLE    2
Info: PAIRLISTS ENABLED
Info: MARGIN                 8
Info: HYDROGEN GROUP CUTOFF  2.5
Info: PATCH DIMENSION        21.5
Info: ENERGY OUTPUT STEPS    5000
Info: ENERGY EVALUATION STEPS    5000
Info: OUTPUT ENERGY PRECISION 4
Info: CROSSTERM ENERGY INCLUDED IN DIHEDRAL
Info: TIMING OUTPUT STEPS    50000
Info: PRESSURE OUTPUT STEPS  5000
Info: LANGEVIN DYNAMICS ACTIVE
Info: LANGEVIN TEMPERATURE   30
Info: LANGEVIN USING BBK INTEGRATOR
Info: LANGEVIN DAMPING COEFFICIENT IS 1 INVERSE PS
Info: LANGEVIN DYNAMICS APPLIED TO HYDROGENS
Info: LANGEVIN PISTON PRESSURE CONTROL ACTIVE
Info:        TARGET PRESSURE IS 1.01325 BAR
Info:     OSCILLATION PERIOD IS 50 FS
Info:             DECAY TIME IS 25 FS
Info:     PISTON TEMPERATURE IS 300 K
Info:       PRESSURE CONTROL IS GROUP-BASED
Info:    INITIAL STRAIN RATE IS 0 0 0
Info:       CELL FLUCTUATION IS ISOTROPIC
Info: PARTICLE MESH EWALD (PME) ACTIVE
Info: PME TOLERANCE               1e-06
Info: PME EWALD COEFFICIENT       0.348832
Info: PME INTERPOLATION ORDER     4
Info: PME GRID DIMENSIONS         40 40 40
Info: PME MAXIMUM GRID SPACING    1
Info: FULL ELECTROSTATIC EVALUATION FREQUENCY      2
Info: USING VERLET I (r-RESPA) MTS SCHEME.
Info: C1 SPLITTING OF LONG RANGE ELECTROSTATICS
Info: PLACING ATOMS IN PATCHES BY HYDROGEN GROUPS
Info: RIGID BONDS TO HYDROGEN : ALL
Info:         ERROR TOLERANCE : 1e-08
Info:          MAX ITERATIONS : 100
Info: RIGID WATER USING SETTLE ALGORITHM
Info: RANDOM NUMBER SEED     1741329805
Info: USE HYDROGEN BONDS?    NO
Info: Using AMBER format force field!
Info: AMBER PARM FILE        mobley_3762186.prmtop
Info: COORDINATE PDB         mobley_3762186.pdb
Info: Exclusions will be read from PARM file!
Info: SCNB (VDW SCALING)     2
Info: USING ARITHMETIC MEAN TO COMBINE L-J SIGMA PARAMETERS
Info: BINARY COORDINATES     mobley_3762186_min.coor
Info: SUMMARY OF PARAMETERS:
Info: 4 BONDS
Info: 3 ANGLES
Info:   3 HARMONIC
Info:   0 COSINE-BASED
Info: 0 DIHEDRAL
Info: 0 IMPROPER
Info: 0 CROSSTERM
Info: 0 VDW
Info: 15 VDW_PAIRS
Info: 0 NBTHOLE_PAIRS
Info: STRUCTURE SUMMARY:
Info: 3995 ATOMS
Info: 3994 BONDS
Info: 6 ANGLES
Info: 0 DIHEDRALS
Info: 0 IMPROPERS
Info: 0 CROSSTERMS
Info: 4000 EXCLUSIONS
Info: 3992 RIGID BONDS
Info: 7993 DEGREES OF FREEDOM
Info: 1333 HYDROGEN GROUPS
Info: 3 ATOMS IN LARGEST HYDROGEN GROUP
Info: 1333 MIGRATION GROUPS
Info: 3 ATOMS IN LARGEST MIGRATION GROUP
Info: TOTAL MASS = 24046.2 amu
Info: TOTAL CHARGE = 1.49012e-08 e
Info: MASS DENSITY = 0.703356 g/cm^3
Info: ATOM DENSITY = 0.0703697 atoms/A^3
Info: ADDED 0 IMPLICIT EXCLUSIONS
Info: NONBONDED TABLE R-SQUARED SPACING: 0.0625
Info: NONBONDED TABLE SIZE: 705 POINTS
Info: REMOVING COM VELOCITY 0.0232062 -0.040471 0.160372
TCL: Running for 25000 steps
ETITLE: TS BOND ANGLE DIHED IMPRP ELECT VDW BOUNDARY MISC KINETIC TOTAL TEMP POTENTIAL TOTAL3 TEMPAVG PRESSURE GPRESSURE VOLUME PRESSAVG GPRESSAVG
ENERGY: 0 0.0560 0.2395 0.0000 0.0000 -18497.8754 3244.4258 0.0000 0.0000 2444.6289 -12808.5253 307.8177 -15253.1542 -12808.0090 307.8177 366.9185 395.4622 56771.5592 366.9185 395.4622
ENERGY: 5000 0.0087 0.6151 0.0000 0.0000 -19334.5115 3466.9871 0.0000 0.0000 240.3245 -15626.5761 30.2607 -15866.9005 -15625.8697 47.3522 869.1168 924.3878 38924.6179 0.6639 0.8272
ENERGY: 10000 0.0119 0.3111 0.0000 0.0000 -19207.1428 3312.0357 0.0000 0.0000 241.0258 -15653.7582 30.3490 -15894.7840 -15653.1371 30.0418 -218.4862 -193.9504 39137.6658 5.8129 6.0238
ENERGY: 15000 0.0849 0.3571 0.0000 0.0000 -19334.6939 3418.9364 0.0000 0.0000 234.3277 -15680.9878 29.5056 -15915.3155 -15680.3646 29.9422 411.9409 459.9395 38856.4344 2.4157 2.5456
ENERGY: 20000 0.0379 0.3354 0.0000 0.0000 -19280.7656 3360.2641 0.0000 0.0000 240.9685 -15679.1597 30.3418 -15920.1283 -15678.6578 30.0333 91.3670 144.4627 38923.7879 2.9488 3.0774
ENERGY: 25000 0.0468 0.2722 0.0000 0.0000 -19288.5377 3354.5260 0.0000 0.0000 244.7445 -15688.9482 30.8172 -15933.6927 -15687.9513 30.1573 -38.1265 25.2145 38860.4484 8.6765 8.7589
TCL: Running 25000 steps at 60 kelvin.
TCL: Setting parameter langevinTemp to 60
TCL: Running for 25000 steps
ETITLE: TS BOND ANGLE DIHED IMPRP ELECT VDW BOUNDARY MISC KINETIC TOTAL TEMP POTENTIAL TOTAL3 TEMPAVG PRESSURE GPRESSURE VOLUME PRESSAVG GPRESSAVG
ENERGY: 25000 0.0468 0.2722 0.0000 0.0000 -19288.5377 3354.5260 0.0000 0.0000 244.6252 -15689.0675 30.8022 -15933.6927 -15688.3905 30.8022 -33.5993 25.3732 38860.4484 -33.5993 25.3732
ENERGY: 30000 0.0508 0.8564 0.0000 0.0000 -19015.4353 3265.8714 0.0000 0.0000 479.1361 -15269.5207 60.3308 -15748.6567 -15267.8962 57.1238 -45.5691 13.0421 38986.8802 -0.2199 -0.0821
ENERGY: 35000 0.0286 0.5484 0.0000 0.0000 -19081.3222 3294.0112 0.0000 0.0000 478.8504 -15307.8836 60.2949 -15786.7340 -15306.2852 60.2743 140.9754 188.3034 38707.4126 1.8836 1.5442
ENERGY: 40000 0.2398 0.3130 0.0000 0.0000 -19066.4378 3260.5414 0.0000 0.0000 489.5878 -15315.7558 61.6469 -15805.3436 -15313.9131 60.3978 -57.3546 -22.9360 38731.3459 3.8228 3.9963
ENERGY: 45000 0.0716 0.4300 0.0000 0.0000 -19066.3194 3223.1266 0.0000 0.0000 474.1766 -15368.5146 59.7064 -15842.6912 -15367.0783 59.9165 -506.7796 -439.2569 38809.4861 3.4568 3.2294
ENERGY: 50000 0.0698 0.6616 0.0000 0.0000 -19143.9082 3310.8392 0.0000 0.0000 477.1217 -15355.2159 60.0772 -15832.3376 -15353.8599 60.2688 90.2622 156.5722 38667.0845 8.3696 8.2446
TCL: Running 25000 steps at 90 kelvin.
TCL: Setting parameter langevinTemp to 90
TCL: Running for 25000 steps
ETITLE: TS BOND ANGLE DIHED IMPRP ELECT VDW BOUNDARY MISC KINETIC TOTAL TEMP POTENTIAL TOTAL3 TEMPAVG PRESSURE GPRESSURE VOLUME PRESSAVG GPRESSAVG
ENERGY: 50000 0.0698 0.6616 0.0000 0.0000 -19143.9082 3310.8392 0.0000 0.0000 476.8822 -15355.4554 60.0470 -15832.3376 -15354.4586 60.0470 99.7931 156.8441 38667.0845 99.7931 156.8441
ENERGY: 55000 0.2438 0.4859 0.0000 0.0000 -18785.4768 3183.2349 0.0000 0.0000 734.2344 -14867.2778 92.4518 -15601.5122 -14864.4520 87.5711 46.1527 95.3647 38814.7285 1.6515 1.6839
ENERGY: 60000 0.0736 0.3392 0.0000 0.0000 -18793.5594 3185.0145 0.0000 0.0000 711.7233 -14896.4088 89.6173 -15608.1321 -14894.3090 90.2558 -65.8377 -7.5099 38987.2951 4.4299 4.5887
ENERGY: 65000 0.2356 0.4933 0.0000 0.0000 -18732.3516 3079.8248 0.0000 0.0000 723.1175 -14928.6804 91.0520 -15651.7979 -14926.9558 90.6771 -765.9956 -688.9696 39046.1477 2.6399 2.9573
ENERGY: 70000 0.6219 0.3249 0.0000 0.0000 -18814.3681 3162.3993 0.0000 0.0000 730.0995 -14920.9225 91.9311 -15651.0220 -14919.3368 90.2888 -310.2617 -279.6152 38920.7715 5.9296 6.0375
ENERGY: 75000 0.0232 0.5683 0.0000 0.0000 -19001.0061 3355.0072 0.0000 0.0000 721.2461 -14924.1612 90.8164 -15645.4073 -14922.6964 90.1253 899.7672 1016.2759 38620.1604 3.2319 3.1341
TCL: Running 25000 steps at 120 kelvin.
TCL: Setting parameter langevinTemp to 120
TCL: Running for 25000 steps
ETITLE: TS BOND ANGLE DIHED IMPRP ELECT VDW BOUNDARY MISC KINETIC TOTAL TEMP POTENTIAL TOTAL3 TEMPAVG PRESSURE GPRESSURE VOLUME PRESSAVG GPRESSAVG
ENERGY: 75000 0.0232 0.5683 0.0000 0.0000 -19001.0061 3355.0072 0.0000 0.0000 720.8863 -14924.5211 90.7710 -15645.4073 -14923.2279 90.7710 949.8226 1016.0637 38620.1604 949.8226 1016.0637
ENERGY: 80000 0.1616 0.8747 0.0000 0.0000 -18497.9753 3137.6565 0.0000 0.0000 965.7299 -14393.5528 121.6007 -15359.2826 -14390.9768 116.9422 310.2535 389.0309 39044.4226 0.7596 1.0453
ENERGY: 85000 0.5183 0.8955 0.0000 0.0000 -18556.6948 3149.4132 0.0000 0.0000 963.2829 -14442.5850 121.2926 -15405.8679 -14438.9338 120.7491 369.2241 366.1085 38932.2992 3.4568 3.2303
ENERGY: 90000 0.2163 1.0330 0.0000 0.0000 -18679.8338 3237.8319 0.0000 0.0000 974.0327 -14466.7199 122.6462 -15440.7526 -14463.6873 119.9876 728.7731 775.7716 38895.0606 6.9495 7.2397
ENERGY: 95000 0.3113 1.8826 0.0000 0.0000 -18569.1460 3083.1547 0.0000 0.0000 958.4082 -14525.3892 120.6788 -15483.7974 -14523.0833 120.4186 -446.0613 -361.5671 39167.8043 6.0353 6.0557
ENERGY: 100000 0.2416 1.0618 0.0000 0.0000 -18504.7965 3057.2387 0.0000 0.0000 933.8527 -14512.4017 117.5869 -15446.2545 -14510.0489 119.8134 -516.5551 -453.6151 39265.8270 0.3613 0.4640
TCL: Running 25000 steps at 150 kelvin.
TCL: Setting parameter langevinTemp to 150
TCL: Running for 25000 steps
ETITLE: TS BOND ANGLE DIHED IMPRP ELECT VDW BOUNDARY MISC KINETIC TOTAL TEMP POTENTIAL TOTAL3 TEMPAVG PRESSURE GPRESSURE VOLUME PRESSAVG GPRESSAVG
ENERGY: 100000 0.2416 1.0618 0.0000 0.0000 -18504.7965 3057.2387 0.0000 0.0000 933.3832 -14512.8712 117.5278 -15446.2545 -14511.3127 117.5278 -505.0094 -452.9753 39265.8270 -505.0094 -452.9753
ENERGY: 105000 0.8388 0.7795 0.0000 0.0000 -18275.1934 3117.4577 0.0000 0.0000 1172.9868 -13983.1306 147.6977 -15156.1174 -13981.8183 146.9180 635.7837 700.0441 39127.0123 4.2862 3.6474
ENERGY: 110000 0.0752 0.3963 0.0000 0.0000 -18131.9062 2971.3199 0.0000 0.0000 1235.1002 -13925.0147 155.5187 -15160.1148 -13921.6799 150.8524 -208.0501 -180.9405 39335.8461 2.4823 2.3855
ENERGY: 115000 0.1095 0.9907 0.0000 0.0000 -18224.7820 3015.8864 0.0000 0.0000 1178.8287 -14028.9666 148.4333 -15207.7954 -14025.7774 149.8898 -126.6571 -93.5984 39382.7107 -0.9669 -1.0829
ENERGY: 120000 0.1792 0.5342 0.0000 0.0000 -18209.1027 2990.4924 0.0000 0.0000 1205.7578 -14012.1391 151.8241 -15217.8969 -14008.9517 149.8942 -313.5560 -245.5075 39262.6937 -0.9600 -1.2463
ENERGY: 125000 0.1580 0.8596 0.0000 0.0000 -18322.0725 3111.6889 0.0000 0.0000 1201.7880 -14007.5781 151.3242 -15209.3660 -14005.2965 151.6726 468.3327 526.2956 39106.1859 2.7202 2.5126
TCL: Running 50000 steps at 180 kelvin.
TCL: Setting parameter langevinTemp to 180
TCL: Running for 50000 steps
ETITLE: TS BOND ANGLE DIHED IMPRP ELECT VDW BOUNDARY MISC KINETIC TOTAL TEMP POTENTIAL TOTAL3 TEMPAVG PRESSURE GPRESSURE VOLUME PRESSAVG GPRESSAVG
ENERGY: 125000 0.1580 0.8596 0.0000 0.0000 -18322.0725 3111.6889 0.0000 0.0000 1201.1740 -14008.1921 151.2469 -15209.3660 -14006.0605 151.2469 473.4329 526.2768 39106.1859 473.4329 526.2768
ENERGY: 135000 0.7231 0.6554 0.0000 0.0000 -17749.8080 2878.6287 0.0000 0.0000 1407.9137 -13461.8871 177.2787 -14869.8008 -13458.1300 180.7113 -132.7209 -126.4447 39720.2581 2.2259 1.8933
ENERGY: 145000 0.6899 0.8758 0.0000 0.0000 -17599.8439 2761.7980 0.0000 0.0000 1416.0592 -13420.4209 178.3044 -14836.4802 -13417.9815 179.3152 -691.1789 -591.9161 39716.5334 4.8479 5.5669
ENERGY: 155000 0.3180 1.4689 0.0000 0.0000 -17629.0518 2778.7993 0.0000 0.0000 1457.7301 -13390.7354 183.5514 -14848.4656 -13386.5660 179.6201 -700.5050 -618.9404 39937.8471 4.8558 4.4900
ENERGY: 165000 0.3506 0.4156 0.0000 0.0000 -17780.6746 2895.0996 0.0000 0.0000 1459.9358 -13424.8730 183.8291 -14884.8088 -13420.1258 179.6106 26.1071 50.7771 39759.9133 0.9677 1.3160
ENERGY: 175000 0.0541 0.5496 0.0000 0.0000 -17728.6429 2858.7006 0.0000 0.0000 1444.8746 -13424.4641 181.9327 -14869.3387 -13420.2188 180.8720 -26.4528 74.7615 39262.0711 0.2384 0.1196
TCL: Running 50000 steps at 210 kelvin.
TCL: Setting parameter langevinTemp to 210
TCL: Running for 50000 steps
ETITLE: TS BOND ANGLE DIHED IMPRP ELECT VDW BOUNDARY MISC KINETIC TOTAL TEMP POTENTIAL TOTAL3 TEMPAVG PRESSURE GPRESSURE VOLUME PRESSAVG GPRESSAVG
ENERGY: 175000 0.0541 0.5496 0.0000 0.0000 -17728.6429 2858.7006 0.0000 0.0000 1444.1423 -13425.1964 181.8405 -14869.3387 -13422.4363 181.8405 -6.4333 75.2883 39262.0711 -6.4333 75.2883
ENERGY: 185000 0.4810 1.4507 0.0000 0.0000 -16868.6160 2542.6216 0.0000 0.0000 1653.6191 -12670.4436 208.2169 -14324.0627 -12667.3799 210.0673 -189.1524 -176.2359 38856.2298 4.1879 4.3311
ENERGY: 195000 0.1855 0.4194 0.0000 0.0000 -16803.0133 2527.9684 0.0000 0.0000 1615.9647 -12658.4753 203.4756 -14274.4400 -12654.1652 211.6852 -585.5409 -574.8243 39688.7845 -1.1525 -0.4584
ENERGY: 205000 0.2667 2.3402 0.0000 0.0000 -16820.8821 2574.9868 0.0000 0.0000 1670.3793 -12572.9092 210.3273 -14243.2884 -12569.2240 211.0199 177.3106 234.9200 38809.6983 -1.8919 -2.4705
ENERGY: 215000 0.1697 0.7797 0.0000 0.0000 -16982.2455 2651.1713 0.0000 0.0000 1681.4044 -12648.7204 211.7155 -14330.1248 -12644.3795 210.0510 309.4167 360.1462 39042.6687 2.8475 2.7047
ENERGY: 225000 0.0936 0.6776 0.0000 0.0000 -16599.7076 2356.4871 0.0000 0.0000 1643.9532 -12598.4961 206.9998 -14242.4493 -12591.8581 210.5593 -1042.6070 -1029.4390 38774.8580 2.0760 2.5200
TCL: Running 50000 steps at 240 kelvin.
TCL: Setting parameter langevinTemp to 240
TCL: Running for 50000 steps
ETITLE: TS BOND ANGLE DIHED IMPRP ELECT VDW BOUNDARY MISC KINETIC TOTAL TEMP POTENTIAL TOTAL3 TEMPAVG PRESSURE GPRESSURE VOLUME PRESSAVG GPRESSAVG
ENERGY: 225000 0.0936 0.6776 0.0000 0.0000 -16599.7076 2356.4871 0.0000 0.0000 1643.1495 -12599.2997 206.8987 -14242.4493 -12596.6475 206.8987 -1102.5402 -1027.7391 38774.8580 -1102.5402 -1027.7391
ENERGY: 235000 0.1750 0.8823 0.0000 0.0000 -15862.8866 2278.4716 0.0000 0.0000 1891.9332 -11691.4247 238.2245 -13583.3578 -11689.3141 240.7870 -113.2498 27.4224 39231.7229 0.0072 0.0317
ENERGY: 245000 0.0884 0.5593 0.0000 0.0000 -16046.7010 2361.8295 0.0000 0.0000 1925.4763 -11758.7474 242.4481 -13684.2238 -11756.1887 238.1547 84.4110 202.4519 39463.3642 2.2324 2.7512
ENERGY: 255000 0.4905 3.0239 0.0000 0.0000 -15927.9596 2264.6359 0.0000 0.0000 1910.6866 -11749.1227 240.5858 -13659.8093 -11743.2519 239.9971 -222.0319 -168.8760 39247.5741 5.2544 4.8712
ENERGY: 265000 0.9271 0.5154 0.0000 0.0000 -16032.6601 2307.5645 0.0000 0.0000 1864.5577 -11859.0955 234.7775 -13723.6532 -11853.5242 237.8339 -88.7110 -49.3141 38918.1693 1.1263 1.8153
ENERGY: 275000 0.6263 2.3826 0.0000 0.0000 -16133.2951 2410.1187 0.0000 0.0000 1926.4623 -11793.7053 242.5722 -13720.1675 -11789.2080 239.5174 590.1825 708.1087 38921.0851 1.1235 2.2386
TCL: Running 50000 steps at 270 kelvin.
TCL: Setting parameter langevinTemp to 270
TCL: Running for 50000 steps
ETITLE: TS BOND ANGLE DIHED IMPRP ELECT VDW BOUNDARY MISC KINETIC TOTAL TEMP POTENTIAL TOTAL3 TEMPAVG PRESSURE GPRESSURE VOLUME PRESSAVG GPRESSAVG
ENERGY: 275000 0.6263 2.3826 0.0000 0.0000 -16133.2951 2410.1187 0.0000 0.0000 1925.5031 -11794.6645 242.4514 -13720.1675 -11791.7504 242.4514 622.3157 708.3574 38921.0851 622.3157 708.3574
ENERGY: 285000 0.7174 0.3491 0.0000 0.0000 -15201.0823 2073.3075 0.0000 0.0000 2135.7379 -10990.9703 268.9234 -13126.7082 -10985.1808 271.7510 -358.3888 -286.5884 40173.0526 0.5507 0.3072
ENERGY: 295000 0.6900 1.0475 0.0000 0.0000 -15284.1386 2096.3643 0.0000 0.0000 2154.9606 -11031.0762 271.3438 -13186.0368 -11023.4010 271.0174 -240.3452 -112.1472 39943.3008 4.0770 4.2143
ENERGY: 305000 0.3771 1.7318 0.0000 0.0000 -15263.5211 2110.0932 0.0000 0.0000 2146.7029 -11004.6162 270.3040 -13151.3191 -11002.4160 267.7871 -311.1182 -225.1321 40224.5893 3.5750 3.3209
ENERGY: 315000 0.0273 1.2862 0.0000 0.0000 -15199.7954 2104.9599 0.0000 0.0000 2071.2996 -11022.2224 260.8096 -13093.5220 -11019.2879 271.2118 -202.1499 -135.4421 40153.9100 3.9892 4.1834
ENERGY: 325000 0.4670 0.7578 0.0000 0.0000 -15198.6210 2100.7492 0.0000 0.0000 2162.0758 -10934.5712 272.2397 -13096.6470 -10931.0690 271.4992 130.0120 187.6647 39945.5404 0.9263 1.3136
TCL: Running 1000000 steps at 300 kelvin.
TCL: Setting parameter langevinTemp to 300
TCL: Running for 1000000 steps
ETITLE: TS BOND ANGLE DIHED IMPRP ELECT VDW BOUNDARY MISC KINETIC TOTAL TEMP POTENTIAL TOTAL3 TEMPAVG PRESSURE GPRESSURE VOLUME PRESSAVG GPRESSAVG
ENERGY: 325000 0.4670 0.7578 0.0000 0.0000 -15198.6210 2100.7492 0.0000 0.0000 2161.0176 -10935.6294 272.1065 -13096.6470 -10931.9647 272.1065 112.3739 187.6866 39945.5404 112.3739 187.6866
ENERGY: 525000 0.1145 1.6465 0.0000 0.0000 -14459.2823 1848.4032 0.0000 0.0000 2388.8461 -10220.2721 300.7937 -12609.1182 -10214.8703 300.2102 -754.4872 -631.6495 41387.6703 2.9680 3.1623
ENERGY: 725000 0.8318 1.9944 0.0000 0.0000 -14424.9827 1858.8387 0.0000 0.0000 2360.2083 -10203.1096 297.1878 -12563.3179 -10197.3005 300.4921 -417.2098 -397.0977 41297.4957 -0.4746 -0.5191
ENERGY: 925000 0.0182 0.4090 0.0000 0.0000 -14515.5378 1955.3370 0.0000 0.0000 2450.4426 -10109.3310 308.5497 -12559.7735 -10106.9742 300.0337 9.2772 146.4111 41042.9654 2.6711 2.2920
ENERGY: 1125000 1.4444 1.2796 0.0000 0.0000 -14589.4194 1899.4073 0.0000 0.0000 2396.4792 -10290.8089 301.7548 -12687.2881 -10282.4365 300.1743 -196.7990 -120.6133 40217.7375 5.9651 6.0663
ENERGY: 1325000 4.3689 1.9744 0.0000 0.0000 -14559.4141 1979.5967 0.0000 0.0000 2356.7994 -10216.6747 296.7585 -12573.4741 -10211.8416 299.3437 -94.2119 45.6748 41123.6976 1.1094 1.0237
TCL: Exiting due to exit command.
