Info: SIMULATION PARAMETERS:
Info: TIMESTEP               2
Info: NUMBER OF STEPS        0
Info: STEPS PER CYCLE        10
Info: PERIODIC CELL BASIS 1  39.546 0 0
Info: PERIODIC CELL BASIS 2  0 39.757 0
Info: PERIODIC CELL BASIS 3  0 0 40.136
Info: PERIODIC CELL CENTER   0 0 0
Info: WRAPPING WATERS AROUND PERIODIC BOUNDARIES ON OUTPUT.
Info: WRAPPING ALL CLUSTERS AROUND PERIODIC BOUNDARIES ON OUTPUT.
Info: FIRST LDB TIMESTEP     50
Info: LAST LDB TIMESTEP     -1
Info: HOM BACKGROUND SCALING 1
Info: PME BACKGROUND SCALING 1
Info: MIN ATOMS PER PATCH    40
Info: EMPTY PATCH LOAD       40 ATOMS
Info: INITIAL TEMPERATURE    300
Info: CENTER OF MASS MOVING INITIALLY? NO
Info: DIELECTRIC             1
Info: EXCLUDE                SCALED ONE-FOUR
Info: 1-4 ELECTROSTATICS SCALED BY 0.833333
Info: MODIFIED 1-4 VDW PARAMETERS WILL BE USED
Info: DCD FILENAME           mobley_3982371_min.dcd
Info: DCD FREQUENCY          5000
Info: DCD FIRST STEP         5000
Info: DCD FILE WILL CONTAIN UNIT CELL DATA
Info: XST FILENAME           mobley_3982371_min.xst
Info: XST FREQUENCY          5000
Info: NO VELOCITY DCD OUTPUT
Info: NO FORCE DCD OUTPUT
Info: OUTPUT FILENAME        mobley_3982371_min
Info: BINARY OUTPUT FILES WILL BE USED
Info: RESTART FILENAME       mobley_3982371_min.restart
Info: RESTART FREQUENCY      5000
Info: BINARY RESTART FILES WILL BE USED
Info: CUTOFF                 9
Info: PAIRLIST DISTANCE      11
Info: PAIRLIST SHRINK RATE   0.01
Info: PAIRLIST GROW RATE     0.01
Info: PAIRLIST TRIGGER       0.3
Info: PAIRLISTS PER CYCLE    2
Info: PAIRLISTS ENABLED
Info: MARGIN                 8
Info: HYDROGEN GROUP CUTOFF  2.5
Info: PATCH DIMENSION        21.5
Info: ENERGY OUTPUT STEPS    5000
Info: ENERGY EVALUATION STEPS    5000
Info: OUTPUT ENERGY PRECISION 4
Info: CROSSTERM ENERGY INCLUDED IN DIHEDRAL
Info: TIMING OUTPUT STEPS    50000
Info: PRESSURE OUTPUT STEPS  5000
Info: LANGEVIN DYNAMICS ACTIVE
Info: LANGEVIN TEMPERATURE   300
Info: LANGEVIN USING BBK INTEGRATOR
Info: LANGEVIN DAMPING COEFFICIENT IS 1 INVERSE PS
Info: LANGEVIN DYNAMICS APPLIED TO HYDROGENS
Info: LANGEVIN PISTON PRESSURE CONTROL ACTIVE
Info:        TARGET PRESSURE IS 1.01325 BAR
Info:     OSCILLATION PERIOD IS 50 FS
Info:             DECAY TIME IS 25 FS
Info:     PISTON TEMPERATURE IS 300 K
Info:       PRESSURE CONTROL IS GROUP-BASED
Info:    INITIAL STRAIN RATE IS 0 0 0
Info:       CELL FLUCTUATION IS ISOTROPIC
Info: PARTICLE MESH EWALD (PME) ACTIVE
Info: PME TOLERANCE               1e-06
Info: PME EWALD COEFFICIENT       0.348832
Info: PME INTERPOLATION ORDER     4
Info: PME GRID DIMENSIONS         40 40 44
Info: PME MAXIMUM GRID SPACING    1
Info: FULL ELECTROSTATIC EVALUATION FREQUENCY      2
Info: USING VERLET I (r-RESPA) MTS SCHEME.
Info: C1 SPLITTING OF LONG RANGE ELECTROSTATICS
Info: PLACING ATOMS IN PATCHES BY HYDROGEN GROUPS
Info: RIGID BONDS TO HYDROGEN : ALL
Info:         ERROR TOLERANCE : 1e-08
Info:          MAX ITERATIONS : 100
Info: RIGID WATER USING SETTLE ALGORITHM
Info: RANDOM NUMBER SEED     1741341864
Info: USE HYDROGEN BONDS?    NO
Info: Using AMBER format force field!
Info: AMBER PARM FILE        mobley_3982371.prmtop
Info: COORDINATE PDB         mobley_3982371.pdb
Info: Exclusions will be read from PARM file!
Info: SCNB (VDW SCALING)     2
Info: USING ARITHMETIC MEAN TO COMBINE L-J SIGMA PARAMETERS
Info: SUMMARY OF PARAMETERS:
Info: 8 BONDS
Info: 8 ANGLES
Info:   8 HARMONIC
Info:   0 COSINE-BASED
Info: 10 DIHEDRAL
Info: 0 IMPROPER
Info: 0 CROSSTERM
Info: 0 VDW
Info: 36 VDW_PAIRS
Info: 0 NBTHOLE_PAIRS
Info: STRUCTURE SUMMARY:
Info: 4550 ATOMS
Info: 4549 BONDS
Info: 16 ANGLES
Info: 18 DIHEDRALS
Info: 0 IMPROPERS
Info: 0 CROSSTERMS
Info: 4576 EXCLUSIONS
Info: 4545 RIGID BONDS
Info: 9105 DEGREES OF FREEDOM
Info: 1518 HYDROGEN GROUPS
Info: 4 ATOMS IN LARGEST HYDROGEN GROUP
Info: 1518 MIGRATION GROUPS
Info: 4 ATOMS IN LARGEST MIGRATION GROUP
Info: TOTAL MASS = 27332.3 amu
Info: TOTAL CHARGE = 0.000199992 e
Info: MASS DENSITY = 0.719258 g/cm^3
Info: ATOM DENSITY = 0.0721043 atoms/A^3
Info: ADDED 0 IMPLICIT EXCLUSIONS
Info: NONBONDED TABLE R-SQUARED SPACING: 0.0625
Info: NONBONDED TABLE SIZE: 705 POINTS
Info: REMOVING COM VELOCITY -0.00457257 0.135982 0.0462093
TCL: Minimizing for 2000 steps
ETITLE: TS BOND ANGLE DIHED IMPRP ELECT VDW BOUNDARY MISC KINETIC TOTAL TEMP POTENTIAL TOTAL3 TEMPAVG PRESSURE GPRESSURE VOLUME PRESSAVG GPRESSAVG
ENERGY: 0 0.1956 0.7780 26.8631 0.0000 -14221.9227 1661.0651 0.0000 0.0000 0.0000 -12533.0211 0.0000 -12533.0211 -12533.0211 0.0000 11256.9642 -15698.2055 63103.0362 11256.9642 -15698.2055
ENERGY: 400 8.9898 4.0073 24.8488 0.0000 -19249.0493 2912.9250 0.0000 0.0000 0.0000 -16298.2784 0.0000 -16298.2784 -16298.2784 0.0000 16307.2484 16420.6865 63103.0362 16307.2484 16420.6865
ENERGY: 800 0.6274 1.7741 25.0927 0.0000 -19955.3423 3160.0689 0.0000 0.0000 0.0000 -16767.7792 0.0000 -16767.7792 -16767.7792 0.0000 17550.9016 17662.6458 63103.0362 17550.9016 17662.6458
ENERGY: 1200 0.3211 1.2687 25.3937 0.0000 -20452.9552 3408.5695 0.0000 0.0000 0.0000 -17017.4023 0.0000 -17017.4023 -17017.4023 0.0000 18835.6124 18955.3220 63103.0362 18835.6124 18955.3220
ENERGY: 1600 0.1964 1.1433 25.5112 0.0000 -20769.9468 3575.9479 0.0000 0.0000 0.0000 -17167.1481 0.0000 -17167.1481 -17167.1481 0.0000 19747.3472 19859.4664 63103.0362 19747.3472 19859.4664
ENERGY: 2000 0.2275 1.2410 25.3625 0.0000 -20910.8201 3643.6406 0.0000 0.0000 0.0000 -17240.3485 0.0000 -17240.3485 -17240.3485 0.0000 20087.8735 20191.1069 63103.0362 20087.8735 20191.1069
TCL: Exiting due to exit command.
Info: NAMD 3.0.1 for Linux-x86_64-multicore
Info: Please visit http://www.ks.uiuc.edu/Research/namd/
Info: for updates, documentation, and support information.
Info: Please cite Phillips et al., J. Chem. Phys. 153:044130 (2020) doi:10.1063/5.0014475
Info: in all publications reporting results obtained with NAMD.
Info: Based on Charm++/Converse 80000 for multicore-linux-x86_64-gcc
Info: Built Mon Oct 14 11:11:06 CDT 2024 by dhardy on athine.ks.uiuc.edu
Info: 1 NAMD  3.0.1  Linux-x86_64-multicore  16    k063  z5358697
Info: Running on 16 processors, 1 nodes, 1 physical nodes.
Info: CPU topology information available.
Info: Charm++/Converse parallel runtime startup completed at 0.0238669 s
Info: 1043.46 MB of memory in use based on /proc/self/stat
Info: Configuration file is mobley_3982371_equil.namd
Info: Working in the current directory /srv/scratch/z5358697/prod_prep_4/3982371
TCL: Running 25000 steps at 30 kelvin.
TCL: Suspending until startup complete.
Info: SIMULATION PARAMETERS:
Info: TIMESTEP               2
Info: NUMBER OF STEPS        0
Info: STEPS PER CYCLE        10
Info: PERIODIC CELL BASIS 1  39.546 0 0
Info: PERIODIC CELL BASIS 2  0 39.757 0
Info: PERIODIC CELL BASIS 3  0 0 40.136
Info: PERIODIC CELL CENTER   0 0 0
Info: WRAPPING WATERS AROUND PERIODIC BOUNDARIES ON OUTPUT.
Info: WRAPPING ALL CLUSTERS AROUND PERIODIC BOUNDARIES ON OUTPUT.
Info: FIRST LDB TIMESTEP     50
Info: LAST LDB TIMESTEP     -1
Info: HOM BACKGROUND SCALING 1
Info: PME BACKGROUND SCALING 1
Info: MIN ATOMS PER PATCH    40
Info: EMPTY PATCH LOAD       40 ATOMS
Info: INITIAL TEMPERATURE    300
Info: CENTER OF MASS MOVING INITIALLY? NO
Info: DIELECTRIC             1
Info: EXCLUDE                SCALED ONE-FOUR
Info: 1-4 ELECTROSTATICS SCALED BY 0.833333
Info: MODIFIED 1-4 VDW PARAMETERS WILL BE USED
Info: DCD FILENAME           mobley_3982371_equil.dcd
Info: DCD FREQUENCY          5000
Info: DCD FIRST STEP         5000
Info: DCD FILE WILL CONTAIN UNIT CELL DATA
Info: XST FILENAME           mobley_3982371_equil.xst
Info: XST FREQUENCY          5000
Info: NO VELOCITY DCD OUTPUT
Info: NO FORCE DCD OUTPUT
Info: OUTPUT FILENAME        mobley_3982371_equil
Info: BINARY OUTPUT FILES WILL BE USED
Info: RESTART FILENAME       mobley_3982371_equil.restart
Info: RESTART FREQUENCY      5000
Info: BINARY RESTART FILES WILL BE USED
Info: CUTOFF                 9
Info: PAIRLIST DISTANCE      11
Info: PAIRLIST SHRINK RATE   0.01
Info: PAIRLIST GROW RATE     0.01
Info: PAIRLIST TRIGGER       0.3
Info: PAIRLISTS PER CYCLE    2
Info: PAIRLISTS ENABLED
Info: MARGIN                 8
Info: HYDROGEN GROUP CUTOFF  2.5
Info: PATCH DIMENSION        21.5
Info: ENERGY OUTPUT STEPS    5000
Info: ENERGY EVALUATION STEPS    5000
Info: OUTPUT ENERGY PRECISION 4
Info: CROSSTERM ENERGY INCLUDED IN DIHEDRAL
Info: TIMING OUTPUT STEPS    50000
Info: PRESSURE OUTPUT STEPS  5000
Info: LANGEVIN DYNAMICS ACTIVE
Info: LANGEVIN TEMPERATURE   30
Info: LANGEVIN USING BBK INTEGRATOR
Info: LANGEVIN DAMPING COEFFICIENT IS 1 INVERSE PS
Info: LANGEVIN DYNAMICS APPLIED TO HYDROGENS
Info: LANGEVIN PISTON PRESSURE CONTROL ACTIVE
Info:        TARGET PRESSURE IS 1.01325 BAR
Info:     OSCILLATION PERIOD IS 50 FS
Info:             DECAY TIME IS 25 FS
Info:     PISTON TEMPERATURE IS 300 K
Info:       PRESSURE CONTROL IS GROUP-BASED
Info:    INITIAL STRAIN RATE IS 0 0 0
Info:       CELL FLUCTUATION IS ISOTROPIC
Info: PARTICLE MESH EWALD (PME) ACTIVE
Info: PME TOLERANCE               1e-06
Info: PME EWALD COEFFICIENT       0.348832
Info: PME INTERPOLATION ORDER     4
Info: PME GRID DIMENSIONS         40 40 44
Info: PME MAXIMUM GRID SPACING    1
Info: FULL ELECTROSTATIC EVALUATION FREQUENCY      2
Info: USING VERLET I (r-RESPA) MTS SCHEME.
Info: C1 SPLITTING OF LONG RANGE ELECTROSTATICS
Info: PLACING ATOMS IN PATCHES BY HYDROGEN GROUPS
Info: RIGID BONDS TO HYDROGEN : ALL
Info:         ERROR TOLERANCE : 1e-08
Info:          MAX ITERATIONS : 100
Info: RIGID WATER USING SETTLE ALGORITHM
Info: RANDOM NUMBER SEED     1741341878
Info: USE HYDROGEN BONDS?    NO
Info: Using AMBER format force field!
Info: AMBER PARM FILE        mobley_3982371.prmtop
Info: COORDINATE PDB         mobley_3982371.pdb
Info: Exclusions will be read from PARM file!
Info: SCNB (VDW SCALING)     2
Info: USING ARITHMETIC MEAN TO COMBINE L-J SIGMA PARAMETERS
Info: BINARY COORDINATES     mobley_3982371_min.coor
Info: SUMMARY OF PARAMETERS:
Info: 8 BONDS
Info: 8 ANGLES
Info:   8 HARMONIC
Info:   0 COSINE-BASED
Info: 10 DIHEDRAL
Info: 0 IMPROPER
Info: 0 CROSSTERM
Info: 0 VDW
Info: 36 VDW_PAIRS
Info: 0 NBTHOLE_PAIRS
Info: STRUCTURE SUMMARY:
Info: 4550 ATOMS
Info: 4549 BONDS
Info: 16 ANGLES
Info: 18 DIHEDRALS
Info: 0 IMPROPERS
Info: 0 CROSSTERMS
Info: 4576 EXCLUSIONS
Info: 4545 RIGID BONDS
Info: 9105 DEGREES OF FREEDOM
Info: 1518 HYDROGEN GROUPS
Info: 4 ATOMS IN LARGEST HYDROGEN GROUP
Info: 1518 MIGRATION GROUPS
Info: 4 ATOMS IN LARGEST MIGRATION GROUP
Info: TOTAL MASS = 27332.3 amu
Info: TOTAL CHARGE = 0.000199992 e
Info: MASS DENSITY = 0.719258 g/cm^3
Info: ATOM DENSITY = 0.0721043 atoms/A^3
Info: ADDED 0 IMPLICIT EXCLUSIONS
Info: NONBONDED TABLE R-SQUARED SPACING: 0.0625
Info: NONBONDED TABLE SIZE: 705 POINTS
Info: REMOVING COM VELOCITY 0.0992769 0.0566863 -0.0821841
TCL: Running for 25000 steps
ETITLE: TS BOND ANGLE DIHED IMPRP ELECT VDW BOUNDARY MISC KINETIC TOTAL TEMP POTENTIAL TOTAL3 TEMPAVG PRESSURE GPRESSURE VOLUME PRESSAVG GPRESSAVG
ENERGY: 0 0.2275 1.2410 25.3625 0.0000 -20910.8201 3643.6406 0.0000 0.0000 2699.8818 -14540.4667 298.4387 -17240.3485 -14539.9314 298.4387 253.5100 293.8608 63103.0362 253.5100 293.8608
ENERGY: 5000 0.1973 1.5987 25.0273 0.0000 -21804.0919 3675.3599 0.0000 0.0000 274.4705 -17827.4382 30.3393 -18101.9086 -17826.7570 47.9066 -702.8587 -626.9664 44149.7657 0.5539 0.5159
ENERGY: 10000 0.0444 2.2513 24.7303 0.0000 -21859.9542 3698.3151 0.0000 0.0000 272.5032 -17862.1100 30.1219 -18134.6132 -17861.3161 30.0799 -600.7040 -522.2229 43874.2914 6.2948 6.5931
ENERGY: 15000 0.3635 1.6539 25.3480 0.0000 -21881.8403 3705.7403 0.0000 0.0000 270.4309 -17878.3037 29.8928 -18148.7346 -17877.4604 29.9245 -653.8040 -581.1018 43870.3209 3.8496 4.0224
ENERGY: 20000 0.2605 2.2030 24.8700 0.0000 -22002.2275 3817.6030 0.0000 0.0000 278.4543 -17878.8366 30.7797 -18157.2909 -17878.2913 30.0541 -5.3162 50.5853 43798.3742 1.1766 1.0461
ENERGY: 25000 0.0347 1.3458 25.7079 0.0000 -22006.6342 3808.9984 0.0000 0.0000 273.1753 -17897.3721 30.1962 -18170.5475 -17896.8847 30.0118 -67.1170 -3.4468 43792.4852 -0.2512 -0.3209
TCL: Running 25000 steps at 60 kelvin.
TCL: Setting parameter langevinTemp to 60
TCL: Running for 25000 steps
ETITLE: TS BOND ANGLE DIHED IMPRP ELECT VDW BOUNDARY MISC KINETIC TOTAL TEMP POTENTIAL TOTAL3 TEMPAVG PRESSURE GPRESSURE VOLUME PRESSAVG GPRESSAVG
ENERGY: 25000 0.0347 1.3458 25.7079 0.0000 -22006.6342 3808.9984 0.0000 0.0000 273.0409 -17897.5066 30.1813 -18170.5475 -17896.8645 30.1813 -68.6289 -3.4202 43792.4852 -68.6289 -3.4202
ENERGY: 30000 0.1364 1.6131 25.5843 0.0000 -21681.8357 3755.3415 0.0000 0.0000 549.0133 -17350.1471 60.6867 -17899.1604 -17349.4332 57.2492 322.0325 379.2508 43905.3646 -0.2462 -0.0987
ENERGY: 35000 0.3973 1.5551 25.7544 0.0000 -21774.3109 3799.5976 0.0000 0.0000 549.1851 -17397.8215 60.7057 -17947.0065 -17396.7055 60.4683 428.6923 469.6110 43849.0492 5.0508 5.0767
ENERGY: 40000 0.4587 1.4204 25.8725 0.0000 -21875.7934 3865.7006 0.0000 0.0000 539.6861 -17442.6551 59.6557 -17982.3412 -17442.1663 60.1166 743.4637 796.3839 43629.5694 -0.0192 -0.3479
ENERGY: 45000 0.3764 2.2272 25.8229 0.0000 -21734.8772 3696.8947 0.0000 0.0000 537.7082 -17471.8478 59.4370 -18009.5561 -17470.5443 60.5151 -271.0964 -181.2232 43750.5849 4.3818 4.0118
ENERGY: 50000 0.2441 2.3123 25.6431 0.0000 -21821.6096 3783.1375 0.0000 0.0000 539.8554 -17470.4172 59.6744 -18010.2726 -17468.7318 60.4323 190.2104 244.3363 43702.3252 0.3552 0.3871
TCL: Running 25000 steps at 90 kelvin.
TCL: Setting parameter langevinTemp to 90
TCL: Running for 25000 steps
ETITLE: TS BOND ANGLE DIHED IMPRP ELECT VDW BOUNDARY MISC KINETIC TOTAL TEMP POTENTIAL TOTAL3 TEMPAVG PRESSURE GPRESSURE VOLUME PRESSAVG GPRESSAVG
ENERGY: 50000 0.2441 2.3123 25.6431 0.0000 -21821.6096 3783.1375 0.0000 0.0000 539.5784 -17470.6942 59.6438 -18010.2726 -17469.7331 59.6438 178.7282 244.7322 43702.3252 178.7282 244.7322
ENERGY: 55000 0.5241 2.5054 25.5969 0.0000 -21298.2578 3525.4998 0.0000 0.0000 816.8183 -16927.3133 90.2892 -17744.1316 -16924.7963 87.3317 -573.8098 -519.1399 44196.6241 -2.7805 -2.6907
ENERGY: 60000 0.7789 0.7363 26.0463 0.0000 -21508.0684 3710.7035 0.0000 0.0000 829.8482 -16939.9552 91.7295 -17769.8034 -16937.6073 90.8030 435.9609 483.7328 43838.1121 1.3802 1.5083
ENERGY: 65000 0.2535 2.4680 25.3099 0.0000 -21352.1245 3558.7018 0.0000 0.0000 829.6304 -16935.7608 91.7054 -17765.3913 -16932.9220 90.0710 -407.7031 -362.9692 44075.1233 0.7418 0.9236
ENERGY: 70000 0.0653 2.0503 25.1788 0.0000 -21457.5868 3609.4864 0.0000 0.0000 793.9816 -17026.8244 87.7649 -17820.8060 -17024.6133 90.7174 -245.1116 -170.6221 43864.0918 0.6669 0.7357
ENERGY: 75000 0.4496 1.7426 25.5192 0.0000 -21426.3867 3563.9108 0.0000 0.0000 817.4165 -17017.3480 90.3553 -17834.7645 -17014.7674 89.1222 -592.2515 -531.5661 44026.6052 8.1410 7.8124
TCL: Running 25000 steps at 120 kelvin.
TCL: Setting parameter langevinTemp to 120
TCL: Running for 25000 steps
ETITLE: TS BOND ANGLE DIHED IMPRP ELECT VDW BOUNDARY MISC KINETIC TOTAL TEMP POTENTIAL TOTAL3 TEMPAVG PRESSURE GPRESSURE VOLUME PRESSAVG GPRESSAVG
ENERGY: 75000 0.4496 1.7426 25.5192 0.0000 -21426.3867 3563.9108 0.0000 0.0000 817.0116 -17017.7529 90.3106 -17834.7645 -17016.0024 90.3106 -599.1635 -531.2021 44026.6052 -599.1635 -531.2021
ENERGY: 80000 0.7000 3.0144 25.4310 0.0000 -21084.1585 3517.8377 0.0000 0.0000 1104.0891 -16433.0863 122.0435 -17537.1754 -16431.6586 117.4130 -57.2351 19.9300 44142.8481 4.5797 4.3022
ENERGY: 85000 0.7375 1.6559 26.2047 0.0000 -21025.6484 3433.4963 0.0000 0.0000 1074.3141 -16489.2399 118.7522 -17563.5540 -16487.9590 119.9644 -594.2480 -540.7699 44351.0475 0.6779 0.5629
ENERGY: 90000 0.4180 2.6500 27.4045 0.0000 -21221.0162 3593.9620 0.0000 0.0000 1077.0118 -16519.5699 119.0504 -17596.5817 -16517.1289 119.0789 278.6863 288.1178 44006.4749 2.5813 2.7615
ENERGY: 95000 0.2580 2.3714 25.5534 0.0000 -21220.7930 3632.6823 0.0000 0.0000 1111.6778 -16448.2502 122.8823 -17559.9280 -16445.9095 120.3065 473.3738 556.1884 44009.3169 0.3116 0.2213
ENERGY: 100000 0.2232 3.4904 25.9482 0.0000 -21284.5926 3664.0214 0.0000 0.0000 1085.3701 -16505.5392 119.9743 -17590.9093 -16503.6345 120.6539 632.9843 672.8186 43943.1973 1.4682 0.9202
TCL: Running 25000 steps at 150 kelvin.
TCL: Setting parameter langevinTemp to 150
TCL: Running for 25000 steps
ETITLE: TS BOND ANGLE DIHED IMPRP ELECT VDW BOUNDARY MISC KINETIC TOTAL TEMP POTENTIAL TOTAL3 TEMPAVG PRESSURE GPRESSURE VOLUME PRESSAVG GPRESSAVG
ENERGY: 100000 0.2232 3.4904 25.9482 0.0000 -21284.5926 3664.0214 0.0000 0.0000 1084.8380 -16506.0713 119.9155 -17590.9093 -16503.9156 119.9155 612.7050 671.8897 43943.1973 612.7050 671.8897
ENERGY: 105000 0.3496 2.5197 25.9391 0.0000 -20819.6693 3576.0924 0.0000 0.0000 1369.5467 -15845.2218 151.3865 -17214.7684 -15842.0560 145.8075 1110.7890 1155.2572 44064.0303 7.4350 7.4857
ENERGY: 110000 0.7549 4.7704 25.5682 0.0000 -20755.8464 3469.7737 0.0000 0.0000 1349.8325 -15905.1467 149.2074 -17254.9792 -15902.5553 149.5994 343.8084 397.4413 44185.0453 3.6668 3.4797
ENERGY: 115000 0.5487 2.8507 26.0926 0.0000 -20664.9270 3372.6566 0.0000 0.0000 1343.3300 -15919.4484 148.4886 -17262.7784 -15915.6238 149.1982 -297.4921 -230.5642 44616.0886 5.6994 5.1577
ENERGY: 120000 0.4387 1.9945 27.4992 0.0000 -20522.5881 3224.3350 0.0000 0.0000 1382.3941 -15885.9266 152.8067 -17268.3207 -15882.1608 150.1234 -1020.5748 -977.1526 44636.9743 5.1829 5.6498
ENERGY: 125000 0.4043 1.5842 27.5097 0.0000 -20809.5770 3469.8976 0.0000 0.0000 1361.9302 -15948.2509 150.5446 -17310.1811 -15945.7818 150.6231 248.9422 287.6324 44239.7019 6.2271 6.0113
TCL: Running 50000 steps at 180 kelvin.
TCL: Setting parameter langevinTemp to 180
TCL: Running for 50000 steps
ETITLE: TS BOND ANGLE DIHED IMPRP ELECT VDW BOUNDARY MISC KINETIC TOTAL TEMP POTENTIAL TOTAL3 TEMPAVG PRESSURE GPRESSURE VOLUME PRESSAVG GPRESSAVG
ENERGY: 125000 0.4043 1.5842 27.5097 0.0000 -20809.5770 3469.8976 0.0000 0.0000 1361.2783 -15948.9028 150.4726 -17310.1811 -15945.9530 150.4726 229.1384 287.2149 44239.7019 229.1384 287.2149
ENERGY: 135000 0.1714 3.4854 26.0980 0.0000 -20175.8717 3228.9479 0.0000 0.0000 1644.7630 -15272.4061 181.8083 -16917.1691 -15269.6074 179.5509 -237.6529 -131.0291 44517.6238 3.5923 3.8277
ENERGY: 145000 1.4487 3.7561 25.8245 0.0000 -20194.3839 3226.1557 0.0000 0.0000 1643.6582 -15293.5407 181.6862 -16937.1989 -15287.8662 180.6674 -441.6701 -415.4434 44839.7981 2.4717 1.9316
ENERGY: 155000 0.0720 1.8174 27.8072 0.0000 -20329.7146 3307.2020 0.0000 0.0000 1656.9975 -15335.8185 183.1607 -16992.8160 -15332.2254 180.4719 3.4235 72.3634 44738.7421 4.9719 5.0387
ENERGY: 165000 0.8692 2.5715 26.7202 0.0000 -20280.7092 3346.3909 0.0000 0.0000 1591.1684 -15312.9891 175.8841 -16904.1575 -15310.1262 179.8286 368.6720 398.2316 44541.4268 -2.1063 -2.2931
ENERGY: 175000 0.6205 2.8524 25.7580 0.0000 -20085.5675 3089.9542 0.0000 0.0000 1652.8186 -15313.5638 182.6988 -16966.3824 -15308.3202 181.0309 -1246.9910 -1134.3459 45221.0438 2.9930 3.0516
TCL: Running 50000 steps at 210 kelvin.
TCL: Setting parameter langevinTemp to 210
TCL: Running for 50000 steps
ETITLE: TS BOND ANGLE DIHED IMPRP ELECT VDW BOUNDARY MISC KINETIC TOTAL TEMP POTENTIAL TOTAL3 TEMPAVG PRESSURE GPRESSURE VOLUME PRESSAVG GPRESSAVG
ENERGY: 175000 0.6205 2.8524 25.7580 0.0000 -20085.5675 3089.9542 0.0000 0.0000 1651.9972 -15314.3852 182.6080 -16966.3824 -15311.0749 182.6080 -1194.2220 -1133.4274 45221.0438 -1194.2220 -1133.4274
ENERGY: 185000 1.4130 5.0230 26.7226 0.0000 -19444.2722 3061.1306 0.0000 0.0000 1874.4991 -14475.4839 207.2028 -16349.9830 -14471.7783 208.8000 510.7867 585.7995 44139.8877 1.5783 1.4837
ENERGY: 195000 0.8108 3.6292 27.2950 0.0000 -19234.3562 2955.6006 0.0000 0.0000 1920.9651 -14326.0554 212.3391 -16247.0205 -14320.3180 211.0423 119.5074 187.8041 44311.0114 0.6974 0.9505
ENERGY: 205000 1.0303 4.0543 26.5081 0.0000 -19260.6764 2973.3581 0.0000 0.0000 1919.1534 -14336.5722 212.1388 -16255.7256 -14332.7640 210.4414 93.3220 183.3498 44638.3400 2.8245 3.3301
ENERGY: 215000 0.3628 4.3609 24.8409 0.0000 -19118.4229 2827.2977 0.0000 0.0000 1882.3506 -14379.2100 208.0707 -16261.5606 -14373.6259 209.5726 -692.2123 -612.7664 44509.9894 1.5476 1.3201
ENERGY: 225000 2.3824 2.2279 26.2389 0.0000 -19073.6547 2828.5088 0.0000 0.0000 1959.2517 -14255.0451 216.5712 -16214.2968 -14248.4788 210.9581 -595.6612 -482.4685 44549.9987 3.1454 3.1110
TCL: Running 50000 steps at 240 kelvin.
TCL: Setting parameter langevinTemp to 240
TCL: Running for 50000 steps
ETITLE: TS BOND ANGLE DIHED IMPRP ELECT VDW BOUNDARY MISC KINETIC TOTAL TEMP POTENTIAL TOTAL3 TEMPAVG PRESSURE GPRESSURE VOLUME PRESSAVG GPRESSAVG
ENERGY: 225000 2.3824 2.2279 26.2389 0.0000 -19073.6547 2828.5088 0.0000 0.0000 1958.3120 -14255.9848 216.4673 -16214.2968 -14252.5594 216.4673 -571.5283 -481.5865 44549.9987 -571.5283 -481.5865
ENERGY: 235000 1.4789 3.6006 29.7231 0.0000 -18306.7200 2717.6823 0.0000 0.0000 2215.8338 -13338.4013 244.9332 -15554.2351 -13332.1492 240.0648 372.1183 438.4132 44476.3618 2.1313 1.6331
ENERGY: 245000 1.0331 4.2383 25.1642 0.0000 -18171.4011 2573.1526 0.0000 0.0000 2141.8186 -13425.9943 236.7517 -15567.8129 -13419.2031 239.3342 -458.9381 -389.8645 44779.2049 2.5237 2.8292
ENERGY: 255000 1.8492 3.6907 27.0341 0.0000 -18288.6583 2684.6492 0.0000 0.0000 2180.0640 -13391.3711 240.9793 -15571.4351 -13383.7828 238.7973 7.0908 51.1849 45224.6710 -0.6505 -0.4585
ENERGY: 265000 1.0061 4.8532 25.1024 0.0000 -18212.7338 2661.2299 0.0000 0.0000 2161.6996 -13358.8427 238.9493 -15520.5422 -13353.2513 240.9586 -68.2251 25.9260 45003.5967 -1.8956 -2.0128
ENERGY: 275000 0.3713 4.9623 25.3996 0.0000 -18333.2770 2724.2418 0.0000 0.0000 2142.5310 -13435.7711 236.8305 -15578.3021 -13433.0241 239.4866 290.5613 395.4656 44653.8067 2.4287 2.7611
TCL: Running 50000 steps at 270 kelvin.
TCL: Setting parameter langevinTemp to 270
TCL: Running for 50000 steps
ETITLE: TS BOND ANGLE DIHED IMPRP ELECT VDW BOUNDARY MISC KINETIC TOTAL TEMP POTENTIAL TOTAL3 TEMPAVG PRESSURE GPRESSURE VOLUME PRESSAVG GPRESSAVG
ENERGY: 275000 0.3713 4.9623 25.3996 0.0000 -18333.2770 2724.2418 0.0000 0.0000 2141.4522 -13436.8498 236.7112 -15578.3021 -13433.7885 236.7112 327.7555 394.9385 44653.8067 327.7555 394.9385
ENERGY: 285000 0.3732 4.5067 26.9501 0.0000 -17206.5698 2292.8408 0.0000 0.0000 2523.6677 -12358.2313 278.9604 -14881.8990 -12352.1636 271.3963 -335.8984 -291.5216 45149.1613 3.4618 3.2082
ENERGY: 295000 1.1888 4.1790 28.6504 0.0000 -17273.8543 2267.0681 0.0000 0.0000 2450.2882 -12522.4798 270.8492 -14972.7680 -12515.6337 271.3377 -1000.5074 -868.7823 45832.8764 2.8559 3.0154
ENERGY: 305000 0.4734 4.3586 26.2246 0.0000 -17234.0591 2320.9069 0.0000 0.0000 2537.3209 -12344.7748 280.4696 -14882.0957 -12337.5002 270.3852 -701.0519 -568.7397 46165.2010 4.5826 4.8567
ENERGY: 315000 1.9038 4.7928 25.5993 0.0000 -17358.8519 2491.9415 0.0000 0.0000 2485.2583 -12349.3562 274.7147 -14834.6145 -12345.0031 271.5457 323.0918 379.8390 45816.1101 4.3869 5.3157
ENERGY: 325000 0.2106 3.2336 26.3175 0.0000 -17470.4227 2495.0588 0.0000 0.0000 2443.2256 -12502.3766 270.0685 -14945.6022 -12498.4834 269.0550 290.0190 375.4306 45447.3942 -0.0001 -0.4120
TCL: Running 1000000 steps at 300 kelvin.
TCL: Setting parameter langevinTemp to 300
TCL: Running for 1000000 steps
ETITLE: TS BOND ANGLE DIHED IMPRP ELECT VDW BOUNDARY MISC KINETIC TOTAL TEMP POTENTIAL TOTAL3 TEMPAVG PRESSURE GPRESSURE VOLUME PRESSAVG GPRESSAVG
ENERGY: 325000 0.2106 3.2336 26.3175 0.0000 -17470.4227 2495.0588 0.0000 0.0000 2441.9448 -12503.6574 269.9270 -14945.6022 -12500.1303 269.9270 306.5711 374.9746 45447.3942 306.5711 374.9746
ENERGY: 525000 1.1988 3.4366 26.0217 0.0000 -16459.7645 2115.1223 0.0000 0.0000 2705.2928 -11608.6923 299.0368 -14313.9851 -11602.7470 299.2492 -625.4451 -549.3010 46874.5577 -1.4828 -1.6553
ENERGY: 725000 0.6426 4.1980 27.5955 0.0000 -16402.5643 2100.0499 0.0000 0.0000 2667.6241 -11602.4542 294.8730 -14270.0783 -11596.9478 298.4711 -700.8731 -635.1778 47331.6071 0.3455 0.6236
ENERGY: 925000 0.8491 4.1536 26.9546 0.0000 -16525.5849 2150.4690 0.0000 0.0000 2669.7812 -11673.3773 295.1115 -14343.1585 -11665.7019 300.0321 -548.3937 -439.9801 46917.8134 -0.3396 0.2820
ENERGY: 1125000 0.2112 2.0038 26.5629 0.0000 -16434.0734 2166.7966 0.0000 0.0000 2613.7706 -11624.7284 288.9202 -14238.4989 -11618.6756 299.7373 -355.2542 -280.9098 47317.5123 8.0249 7.8959
ENERGY: 1325000 0.9777 4.5904 25.6607 0.0000 -16434.8309 2056.1688 0.0000 0.0000 2748.0365 -11599.3967 303.7616 -14347.4333 -11594.9914 300.9929 -889.6887 -776.1858 46770.0333 1.2766 0.6894
TCL: Exiting due to exit command.
