Info: SIMULATION PARAMETERS:
Info: TIMESTEP               2
Info: NUMBER OF STEPS        0
Info: STEPS PER CYCLE        10
Info: PERIODIC CELL BASIS 1  78.0405 0 0
Info: PERIODIC CELL BASIS 2  0 78.0405 0
Info: PERIODIC CELL BASIS 3  0 0 78.0405
Info: PERIODIC CELL CENTER   41.723 41.723 41.723
Info: WRAPPING ALL CLUSTERS AROUND PERIODIC BOUNDARIES ON OUTPUT.
Info: FIRST LDB TIMESTEP     50
Info: LAST LDB TIMESTEP     -1
Info: HOM BACKGROUND SCALING 1
Info: PME BACKGROUND SCALING 1
Info: MIN ATOMS PER PATCH    40
Info: EMPTY PATCH LOAD       40 ATOMS
Info: VELOCITY FILE          mobley_5282042_equilibrated.vel
Info: CENTER OF MASS MOVING INITIALLY? NO
Info: DIELECTRIC             1
Info: EXCLUDE                SCALED ONE-FOUR
Info: 1-4 ELECTROSTATICS SCALED BY 1
Info: MODIFIED 1-4 VDW PARAMETERS WILL BE USED
Info: DCD FILENAME           mobley_5282042_forwards.dcd
Info: DCD FREQUENCY          500
Info: DCD FIRST STEP         500
Info: DCD FILE WILL CONTAIN UNIT CELL DATA
Info: NO EXTENDED SYSTEM TRAJECTORY OUTPUT
Info: NO VELOCITY DCD OUTPUT
Info: NO FORCE DCD OUTPUT
Info: OUTPUT FILENAME        mobley_5282042_forwards
Info: BINARY OUTPUT FILES WILL BE USED
Info: NO RESTART FILE
Info: SWITCHING ACTIVE
Info: SWITCHING ON           10
Info: SWITCHING OFF          12
Info: PAIRLIST DISTANCE      14
Info: PAIRLIST SHRINK RATE   0.01
Info: PAIRLIST GROW RATE     0.01
Info: PAIRLIST TRIGGER       0.3
Info: PAIRLISTS PER CYCLE    2
Info: PAIRLISTS ENABLED
Info: MARGIN                 8
Info: HYDROGEN GROUP CUTOFF  2.5
Info: PATCH DIMENSION        24.5
Info: ENERGY OUTPUT STEPS    500
Info: ENERGY EVALUATION STEPS    500
Info: OUTPUT ENERGY PRECISION 4
Info: CROSSTERM ENERGY INCLUDED IN DIHEDRAL
Info: TIMING OUTPUT STEPS    500
Info: PRESSURE OUTPUT STEPS  500
Info: ALCHEMICAL FEP ON
Info: FEP CURRENT LAMBDA VALUE     0
Info: FEP COMPARISON LAMBDA VALUE  0.0625
Info: FEP INTRA-ALCHEMICAL NON-BONDED INTERACTIONS WILL BE DECOUPLED
Info: FEP INTRA-ALCHEMICAL BONDED INTERACTIONS WILL BE RETAINED
Info: FEP VDW SHIFTING COEFFICIENT 6
Info: FEP ELEC. ACTIVE FOR ANNIHILATED PARTICLES BETWEEN LAMBDA = 0 AND LAMBDA = 0.5
Info: FEP ELEC. ACTIVE FOR EXNIHILATED PARTICLES BETWEEN LAMBDA = 0.5 AND LAMBDA = 1
Info: FEP VDW ACTIVE FOR ANNIHILATED PARTICLES BETWEEN LAMBDA = 0 AND LAMBDA = 1
Info: FEP VDW ACTIVE FOR EXNIHILATED PARTICLES BETWEEN LAMBDA = 0 AND LAMBDA = 1
Info: FEP BOND ACTIVE FOR ANNIHILATED PARTICLES BETWEEN LAMBDA = 1 AND LAMBDA = 1
Info: FEP BOND ACTIVE FOR EXNIHILATED PARTICLES BETWEEN LAMBDA = 0 AND LAMBDA = 0
Info: LANGEVIN DYNAMICS ACTIVE
Info: LANGEVIN TEMPERATURE   298
Info: LANGEVIN USING BBK INTEGRATOR
Info: LANGEVIN DAMPING COEFFICIENT IS 1 INVERSE PS
Info: LANGEVIN DYNAMICS NOT APPLIED TO HYDROGENS
Info: LANGEVIN PISTON PRESSURE CONTROL ACTIVE
Info:        TARGET PRESSURE IS 1.01325 BAR
Info:     OSCILLATION PERIOD IS 100 FS
Info:             DECAY TIME IS 50 FS
Info:     PISTON TEMPERATURE IS 298 K
Info:       PRESSURE CONTROL IS GROUP-BASED
Info:    INITIAL STRAIN RATE IS -0.000110484 -0.000110484 -0.000110484
Info:       CELL FLUCTUATION IS ISOTROPIC
Info: PARTICLE MESH EWALD (PME) ACTIVE
Info: PME TOLERANCE               1e-05
Info: PME EWALD COEFFICIENT       0.226635
Info: PME INTERPOLATION ORDER     4
Info: PME GRID DIMENSIONS         80 80 80
Info: PME MAXIMUM GRID SPACING    1
Info: FULL ELECTROSTATIC EVALUATION FREQUENCY      1
Info: USING VERLET I (r-RESPA) MTS SCHEME.
Info: C1 SPLITTING OF LONG RANGE ELECTROSTATICS
Info: PLACING ATOMS IN PATCHES BY HYDROGEN GROUPS
Info: RIGID BONDS TO HYDROGEN : ALL
Info:         ERROR TOLERANCE : 1e-08
Info:          MAX ITERATIONS : 100
Info: RIGID WATER USING SETTLE ALGORITHM
Info: RANDOM NUMBER SEED     1740645152
Info: USE HYDROGEN BONDS?    NO
Info: COORDINATE PDB         mobley_5282042.pdb
Info: STRUCTURE FILE         mobley_5282042.psf
Info: PARAMETER file: CHARMM format!
Info: PARAMETERS             ../common/par_all27_prot_lipid.inp
Info: PARAMETERS             mobley_5282042.prm
Info: USING ARITHMETIC MEAN TO COMBINE L-J SIGMA PARAMETERS
Info: BINARY COORDINATES     mobley_5282042_equilibrated.coor
Info: SUMMARY OF PARAMETERS:
Info: 191 BONDS
Info: 467 ANGLES
Info: 594 DIHEDRAL
Info: 51 IMPROPER
Info: 6 CROSSTERM
Info: 127 VDW
Info: 0 VDW_PAIRS
Info: 0 NBTHOLE_PAIRS
Info: To read alchdata from file: mobley_5282042.pdb
Info: To read alchflag data from column: 5
Info: STRUCTURE SUMMARY:
Info: 7142 ATOMS
Info: 4778 BONDS
Info: 2447 ANGLES
Info: 114 DIHEDRALS
Info: 14 IMPROPERS
Info: 0 CROSSTERMS
Info: 0 EXCLUSIONS
Info: 7121 RIGID BONDS
Info: ALCH: 0 ATOMS TO DISAPPEAR IN FINAL STATE
Info: ALCH: 44 ATOMS TO APPEAR IN FINAL STATE
Info: 14305 DEGREES OF FREEDOM
Info: 2387 HYDROGEN GROUPS
Info: 4 ATOMS IN LARGEST HYDROGEN GROUP
Info: 2387 MIGRATION GROUPS
Info: 4 ATOMS IN LARGEST MIGRATION GROUP
Info: TOTAL MASS = 42901.8 amu
Info: TOTAL CHARGE = -9.36911e-07 e
Info: MASS DENSITY = 0.149891 g/cm^3
Info: ATOM DENSITY = 0.0150266 atoms/A^3
Info: ADDED 7333 IMPLICIT EXCLUSIONS
Info: NONBONDED TABLE R-SQUARED SPACING: 0.0625
Info: NONBONDED TABLE SIZE: 769 POINTS
Info: REMOVING COM VELOCITY -0.102848 0.0185226 -0.112006
TCL: Running for 5000 steps
ETITLE: TS BOND ANGLE DIHED IMPRP ELECT VDW BOUNDARY MISC KINETIC TOTAL TEMP POTENTIAL TOTAL3 TEMPAVG PRESSURE GPRESSURE VOLUME PRESSAVG GPRESSAVG
ENERGY: 0 11.4855 13.5420 12.2207 0.1461 -24828.0633 2673.8356 0.0000 0.0000 4245.2168 -17871.6166 298.6774 -22116.8334 -17863.0627 298.6774 48.7133 48.7433 475292.0089 48.7133 48.7433
ENERGY: 1000 4.0089 25.3809 11.1049 0.5611 -24682.2902 2570.0767 0.0000 0.0000 4180.2589 -17890.8989 294.1072 -22071.1578 -17883.8826 295.5149 -11.6451 -11.5951 459995.5228 -0.2756 -0.2664
ENERGY: 2000 4.3353 25.2306 9.2988 0.5069 -24713.1123 2639.1203 0.0000 0.0000 4254.8872 -17779.7334 299.3578 -22034.6206 -17772.6796 298.5675 42.5894 43.4477 458478.4851 2.1313 2.1319
ENERGY: 3000 5.9432 29.8534 10.6818 0.5906 -24791.7032 2672.0661 0.0000 0.0000 4219.2890 -17853.2792 296.8532 -22072.5681 -17843.7702 296.4864 65.9110 64.9148 440983.8994 -0.3158 -0.3101
ENERGY: 4000 7.1229 17.5919 17.7548 1.1588 -24729.7630 2631.8766 0.0000 0.0000 4268.8988 -17785.3593 300.3436 -22054.2581 -17776.3412 298.7793 43.5370 43.9774 430322.6009 1.5329 1.5923
ENERGY: 5000 6.9564 21.8509 11.3981 0.4343 -24766.0660 2599.5848 0.0000 0.0000 4247.5580 -17878.2834 298.8421 -22125.8414 -17870.0973 296.7790 -2.3722 -2.3326 421282.0906 -0.6234 -0.6764
TCL: Running FEP window   2: Lambda1 0.0625 Lambda2 0.125  [dLambda 0.0625]
TCL: Setting parameter firsttimestep to 0
TCL: Setting parameter alchLambda to 0.0625
Info: NONBONDED TABLE R-SQUARED SPACING: 0.0625
Info: NONBONDED TABLE SIZE: 769 POINTS
TCL: Setting parameter alchLambda2 to 0.125
Info: NONBONDED TABLE R-SQUARED SPACING: 0.0625
Info: NONBONDED TABLE SIZE: 769 POINTS
TCL: Running for 5000 steps
ETITLE: TS BOND ANGLE DIHED IMPRP ELECT VDW BOUNDARY MISC KINETIC TOTAL TEMP POTENTIAL TOTAL3 TEMPAVG PRESSURE GPRESSURE VOLUME PRESSAVG GPRESSAVG
ENERGY: 0 6.9564 21.8509 11.3981 0.4343 -24766.0660 2602.0027 0.0000 0.0000 4247.4318 -17875.9918 298.8333 -22123.4236 -17868.0471 298.8333 -1.9765 -1.7972 421282.0906 -1.9765 -1.7972
ENERGY: 1000 6.8667 23.2152 12.4333 0.4372 -24845.8363 2740.2223 0.0000 0.0000 4191.1642 -17871.4975 294.8745 -22062.6616 -17861.8905 298.2991 103.1969 102.5975 426369.2388 2.3432 2.3872
ENERGY: 2000 5.3472 25.3358 13.1933 0.5696 -24668.8532 2593.2030 0.0000 0.0000 4166.7830 -17864.4213 293.1591 -22031.2042 -17856.4989 297.8888 34.8980 33.8690 427662.8768 1.8941 1.9207
ENERGY: 3000 8.1732 23.6435 8.2050 0.4950 -24785.5525 2665.0921 0.0000 0.0000 4186.6727 -17893.2710 294.5585 -22079.9437 -17883.0598 296.4551 32.8989 33.2108 429620.7220 2.8623 2.8387
ENERGY: 4000 5.7422 30.8313 12.3007 0.6777 -24646.6108 2598.7234 0.0000 0.0000 4190.4354 -17807.9000 294.8232 -21998.3355 -17798.9545 298.5739 18.2699 19.2354 436770.8090 -0.8776 -0.8695
ENERGY: 5000 7.2387 19.6882 14.9030 0.9012 -24605.3169 2528.4502 0.0000 0.0000 4188.1430 -17845.9927 294.6619 -22034.1356 -17834.6430 297.6308 -31.2852 -30.9605 443370.0263 -0.5803 -0.5597
TCL: Running FEP window   3: Lambda1 0.125  Lambda2 0.1875 [dLambda 0.0625]
TCL: Setting parameter firsttimestep to 0
TCL: Setting parameter alchLambda to 0.125
Info: NONBONDED TABLE R-SQUARED SPACING: 0.0625
Info: NONBONDED TABLE SIZE: 769 POINTS
TCL: Setting parameter alchLambda2 to 0.1875
Info: NONBONDED TABLE R-SQUARED SPACING: 0.0625
Info: NONBONDED TABLE SIZE: 769 POINTS
TCL: Running for 5000 steps
ETITLE: TS BOND ANGLE DIHED IMPRP ELECT VDW BOUNDARY MISC KINETIC TOTAL TEMP POTENTIAL TOTAL3 TEMPAVG PRESSURE GPRESSURE VOLUME PRESSAVG GPRESSAVG
ENERGY: 0 7.2387 19.6882 14.9030 0.9012 -24605.3169 2533.0767 0.0000 0.0000 4188.0127 -17841.4965 294.6528 -22029.5092 -17833.2345 294.6528 -29.8565 -29.7791 443370.0263 -29.8565 -29.7791
ENERGY: 1000 3.4449 21.9836 13.0792 0.4361 -24727.2986 2644.4010 0.0000 0.0000 4262.2028 -17781.7511 299.8725 -22043.9539 -17771.1834 295.5411 51.7410 52.4802 441431.6849 1.0756 1.0812
ENERGY: 2000 6.1509 25.5954 9.1947 0.5071 -24782.5686 2728.0710 0.0000 0.0000 4285.5560 -17727.4935 301.5155 -22013.0495 -17719.7436 301.1761 95.4903 96.6283 460567.8889 0.2554 0.2784
ENERGY: 3000 8.1764 26.3787 10.0175 0.3791 -24590.5097 2527.9903 0.0000 0.0000 4292.3440 -17725.2237 301.9931 -22017.5677 -17718.8703 298.4882 -30.5501 -30.8896 457878.4118 3.4201 3.4473
ENERGY: 4000 10.7793 22.2670 7.8117 0.2782 -24710.0727 2486.6998 0.0000 0.0000 4286.4138 -17895.8231 301.5759 -22182.2369 -17889.5891 298.8294 -50.0166 -49.0449 443884.1709 1.4206 1.4450
ENERGY: 5000 4.5088 17.9243 15.2569 0.8133 -24670.3459 2567.3184 0.0000 0.0000 4262.2461 -17802.2781 299.8755 -22064.5242 -17792.8607 297.5112 -14.6288 -15.4840 442219.0621 0.2234 0.2554
TCL: Running FEP window   4: Lambda1 0.1875 Lambda2 0.25   [dLambda 0.0625]
TCL: Setting parameter firsttimestep to 0
TCL: Setting parameter alchLambda to 0.1875
Info: NONBONDED TABLE R-SQUARED SPACING: 0.0625
Info: NONBONDED TABLE SIZE: 769 POINTS
TCL: Setting parameter alchLambda2 to 0.25
Info: NONBONDED TABLE R-SQUARED SPACING: 0.0625
Info: NONBONDED TABLE SIZE: 769 POINTS
TCL: Running for 5000 steps
ETITLE: TS BOND ANGLE DIHED IMPRP ELECT VDW BOUNDARY MISC KINETIC TOTAL TEMP POTENTIAL TOTAL3 TEMPAVG PRESSURE GPRESSURE VOLUME PRESSAVG GPRESSAVG
ENERGY: 0 4.5088 17.9243 15.2569 0.8133 -24670.3459 2570.6068 0.0000 0.0000 4262.1128 -17799.1230 299.8662 -22061.2358 -17790.2367 299.8662 -14.0538 -13.9006 442219.0621 -14.0538 -13.9006
ENERGY: 1000 7.7062 19.2023 17.9828 0.8753 -24654.3013 2600.5523 0.0000 0.0000 4284.5769 -17723.4056 301.4467 -22007.9825 -17716.8510 302.3580 46.2687 46.9373 446119.2081 -1.1176 -1.1307
ENERGY: 2000 4.5229 23.5091 9.8539 0.8149 -24636.4121 2626.9400 0.0000 0.0000 4272.8870 -17697.8843 300.6242 -21970.7713 -17692.0178 300.5614 47.1900 46.9685 446490.7207 2.6000 2.5821
ENERGY: 3000 6.1647 29.6850 10.9287 0.4012 -24770.1654 2636.8677 0.0000 0.0000 4269.1621 -17816.9560 300.3621 -22086.1181 -17806.4540 299.2137 28.3755 28.4001 434971.1859 -0.2073 -0.2162
ENERGY: 4000 8.8283 22.4866 18.9115 0.5873 -24695.5547 2626.2896 0.0000 0.0000 4129.7210 -17888.7304 290.5516 -22018.4514 -17879.8400 296.7136 34.7065 32.1837 429985.8494 1.0216 0.9807
ENERGY: 5000 8.5077 20.9550 11.1720 0.3631 -24887.8567 2658.8307 0.0000 0.0000 4232.4787 -17955.5494 297.7812 -22188.0281 -17947.2058 294.4240 55.2076 55.8623 428320.6514 3.8715 3.8918
TCL: Running FEP window   5: Lambda1 0.25   Lambda2 0.3125 [dLambda 0.0625]
TCL: Setting parameter firsttimestep to 0
TCL: Setting parameter alchLambda to 0.25
Info: NONBONDED TABLE R-SQUARED SPACING: 0.0625
Info: NONBONDED TABLE SIZE: 769 POINTS
TCL: Setting parameter alchLambda2 to 0.3125
Info: NONBONDED TABLE R-SQUARED SPACING: 0.0625
Info: NONBONDED TABLE SIZE: 769 POINTS
TCL: Running for 5000 steps
ETITLE: TS BOND ANGLE DIHED IMPRP ELECT VDW BOUNDARY MISC KINETIC TOTAL TEMP POTENTIAL TOTAL3 TEMPAVG PRESSURE GPRESSURE VOLUME PRESSAVG GPRESSAVG
ENERGY: 0 8.5077 20.9550 11.1720 0.3631 -24887.8567 2659.6559 0.0000 0.0000 4232.3486 -17954.8542 297.7721 -22187.2029 -17946.6537 297.7721 57.0800 56.9711 428320.6514 57.0800 56.9711
ENERGY: 1000 7.6012 19.3702 13.4111 0.8923 -24714.0144 2549.3323 0.0000 0.0000 4196.3575 -17927.0500 295.2399 -22123.4074 -17920.9271 297.0554 -20.4845 -21.1296 431924.3932 -0.1793 -0.1641
ENERGY: 2000 8.4135 16.8774 14.0662 0.3583 -24551.0318 2482.1150 0.0000 0.0000 4140.6623 -17888.5392 291.3214 -22029.2015 -17879.7103 295.1682 -47.7860 -47.1124 432876.6629 2.5734 2.5545
ENERGY: 3000 4.8436 17.4794 14.2179 0.5944 -24732.1082 2612.4653 0.0000 0.0000 4240.8785 -17841.6291 298.3722 -22082.5076 -17833.1148 298.6430 43.5980 43.1199 436500.5499 1.5206 1.4979
ENERGY: 4000 12.4696 24.0911 11.4312 0.6739 -24878.6456 2628.6969 0.0000 0.0000 4230.9282 -17970.3547 297.6721 -22201.2828 -17961.3421 296.5390 39.2163 39.3035 434112.0170 -0.1383 -0.1294
ENERGY: 5000 6.0882 24.0872 14.0142 0.6764 -24732.2004 2577.6128 0.0000 0.0000 4134.7746 -17974.9471 290.9071 -22109.7217 -17970.0054 295.6410 -13.6472 -13.1152 446029.1917 2.3285 2.3069
TCL: Running FEP window   6: Lambda1 0.3125 Lambda2 0.375  [dLambda 0.0625]
TCL: Setting parameter firsttimestep to 0
TCL: Setting parameter alchLambda to 0.3125
Info: NONBONDED TABLE R-SQUARED SPACING: 0.0625
Info: NONBONDED TABLE SIZE: 769 POINTS
TCL: Setting parameter alchLambda2 to 0.375
Info: NONBONDED TABLE R-SQUARED SPACING: 0.0625
Info: NONBONDED TABLE SIZE: 769 POINTS
TCL: Running for 5000 steps
ETITLE: TS BOND ANGLE DIHED IMPRP ELECT VDW BOUNDARY MISC KINETIC TOTAL TEMP POTENTIAL TOTAL3 TEMPAVG PRESSURE GPRESSURE VOLUME PRESSAVG GPRESSAVG
ENERGY: 0 6.0882 24.0872 14.0142 0.6764 -24732.2004 2578.4795 0.0000 0.0000 4134.6461 -17974.2088 290.8981 -22108.8549 -17965.5600 290.8981 -12.1888 -12.1749 446029.1917 -12.1888 -12.1749
ENERGY: 1000 5.6601 25.8807 10.8389 0.3191 -24647.8894 2532.5612 0.0000 0.0000 4205.0050 -17867.6244 295.8483 -22072.6294 -17859.5221 297.0669 -8.3762 -9.6776 445097.4978 0.1544 0.1428
ENERGY: 2000 8.4881 26.4189 9.5522 0.5445 -24712.8178 2589.8839 0.0000 0.0000 4245.2499 -17832.6803 298.6798 -22077.9302 -17824.5659 296.5023 10.9900 9.8037 421371.4815 3.6082 3.5581
ENERGY: 3000 6.6922 22.2308 13.6428 0.6561 -24680.1560 2524.0823 0.0000 0.0000 4269.5798 -17843.2722 300.3915 -22112.8519 -17834.2149 296.7481 -86.3854 -84.9775 424909.3953 1.7735 1.7109
ENERGY: 4000 5.7643 22.2317 13.5908 0.8064 -24821.4257 2615.8364 0.0000 0.0000 4195.3538 -17967.8423 295.1692 -22163.1960 -17959.4776 296.7293 -15.8604 -16.3588 428467.0242 0.2460 0.2580
ENERGY: 5000 7.2001 26.0152 10.7757 0.2419 -24803.8562 2549.8687 0.0000 0.0000 4226.7430 -17983.0116 297.3777 -22209.7546 -17975.9499 295.1466 -56.9054 -56.1313 415830.6502 2.4406 2.4269
TCL: Running FEP window   7: Lambda1 0.375  Lambda2 0.4375 [dLambda 0.0625]
TCL: Setting parameter firsttimestep to 0
TCL: Setting parameter alchLambda to 0.375
Info: NONBONDED TABLE R-SQUARED SPACING: 0.0625
Info: NONBONDED TABLE SIZE: 769 POINTS
TCL: Setting parameter alchLambda2 to 0.4375
Info: NONBONDED TABLE R-SQUARED SPACING: 0.0625
Info: NONBONDED TABLE SIZE: 769 POINTS
TCL: Running for 5000 steps
ETITLE: TS BOND ANGLE DIHED IMPRP ELECT VDW BOUNDARY MISC KINETIC TOTAL TEMP POTENTIAL TOTAL3 TEMPAVG PRESSURE GPRESSURE VOLUME PRESSAVG GPRESSAVG
ENERGY: 0 7.2001 26.0152 10.7757 0.2419 -24803.8562 2548.7257 0.0000 0.0000 4226.6116 -17984.2860 297.3684 -22210.8976 -17975.9800 297.3684 -55.7216 -55.4124 415830.6502 -55.7216 -55.4124
ENERGY: 1000 6.8640 22.5184 11.1424 0.3635 -24803.1760 2573.3176 0.0000 0.0000 4202.9001 -17986.0701 295.7002 -22188.9702 -17978.1753 296.0611 -4.0084 -4.7494 411444.5474 4.1731 4.1574
ENERGY: 2000 3.1743 19.4714 13.8055 0.3677 -24695.3411 2566.6357 0.0000 0.0000 4274.4637 -17817.4226 300.7351 -22091.8864 -17809.5763 298.3125 -15.5132 -15.2302 410212.1365 0.3229 0.3530
ENERGY: 3000 5.9270 20.3262 13.8823 0.8457 -24601.1080 2520.5524 0.0000 0.0000 4289.3849 -17750.1895 301.7849 -22039.5744 -17744.5065 299.5529 -41.0913 -40.2229 426789.3106 0.9706 0.9246
ENERGY: 4000 4.8927 19.1660 10.5690 0.3670 -24748.9941 2632.9089 0.0000 0.0000 4290.5041 -17790.5864 301.8637 -22081.0905 -17782.1395 298.8521 49.5323 49.6333 430766.9586 0.3438 0.3678
ENERGY: 5000 7.2597 24.0174 14.1235 0.4569 -24687.3371 2623.7285 0.0000 0.0000 4244.8187 -17772.9324 298.6494 -22017.7511 -17763.6097 297.6055 17.5443 17.7167 438183.5379 0.9754 1.0030
TCL: Running FEP window   8: Lambda1 0.4375 Lambda2 0.5    [dLambda 0.0625]
TCL: Setting parameter firsttimestep to 0
TCL: Setting parameter alchLambda to 0.4375
Info: NONBONDED TABLE R-SQUARED SPACING: 0.0625
Info: NONBONDED TABLE SIZE: 769 POINTS
TCL: Setting parameter alchLambda2 to 0.5
Info: NONBONDED TABLE R-SQUARED SPACING: 0.0625
Info: NONBONDED TABLE SIZE: 769 POINTS
TCL: Running for 5000 steps
ETITLE: TS BOND ANGLE DIHED IMPRP ELECT VDW BOUNDARY MISC KINETIC TOTAL TEMP POTENTIAL TOTAL3 TEMPAVG PRESSURE GPRESSURE VOLUME PRESSAVG GPRESSAVG
ENERGY: 0 7.2597 24.0174 14.1235 0.4569 -24687.3371 2624.1998 0.0000 0.0000 4244.6888 -17772.5909 298.6403 -22017.2798 -17764.4107 298.6403 19.6228 19.3945 438183.5379 19.6228 19.3945
ENERGY: 1000 10.5138 20.0958 17.1863 0.9123 -24784.7241 2613.2932 0.0000 0.0000 4287.9669 -17834.7557 301.6852 -22122.7226 -17825.7068 297.7596 38.5600 38.8977 423105.6039 -0.9307 -0.9337
ENERGY: 2000 8.3130 18.9447 15.3441 0.6403 -24852.8891 2752.7335 0.0000 0.0000 4194.1994 -17862.7142 295.0880 -22056.9136 -17853.4183 297.0339 66.5062 65.9990 438946.8527 0.8983 0.9740
ENERGY: 3000 7.6840 16.4627 12.0035 0.5666 -24734.7043 2570.8371 0.0000 0.0000 4217.2257 -17909.9246 296.7081 -22127.1503 -17903.2572 294.6909 25.4273 26.1967 428495.6127 0.6641 0.6713
ENERGY: 4000 6.4903 18.9791 11.9240 0.3286 -24583.5479 2491.3131 0.0000 0.0000 4183.1576 -17871.3553 294.3112 -22054.5128 -17860.7469 297.1135 -79.8131 -78.5121 442818.3975 1.6105 1.6349
ENERGY: 5000 8.5211 17.9381 17.3122 0.7673 -24778.1166 2535.7052 0.0000 0.0000 4223.7839 -17974.0888 297.1695 -22197.8727 -17965.9829 295.7175 -0.7387 -0.3367 428899.5558 0.1500 0.1654
TCL: Running FEP window   9: Lambda1 0.5    Lambda2 0.5625 [dLambda 0.0625]
TCL: Setting parameter firsttimestep to 0
TCL: Setting parameter alchLambda to 0.5
Info: NONBONDED TABLE R-SQUARED SPACING: 0.0625
Info: NONBONDED TABLE SIZE: 769 POINTS
TCL: Setting parameter alchLambda2 to 0.5625
Info: NONBONDED TABLE R-SQUARED SPACING: 0.0625
Info: NONBONDED TABLE SIZE: 769 POINTS
TCL: Running for 5000 steps
ETITLE: TS BOND ANGLE DIHED IMPRP ELECT VDW BOUNDARY MISC KINETIC TOTAL TEMP POTENTIAL TOTAL3 TEMPAVG PRESSURE GPRESSURE VOLUME PRESSAVG GPRESSAVG
ENERGY: 0 8.5211 17.9381 17.3122 0.7673 -24778.1166 2534.9331 0.0000 0.0000 4223.6545 -17974.9903 297.1604 -22198.6448 -17967.0742 297.1604 0.9048 0.8624 428899.5558 0.9048 0.8624
ENERGY: 1000 8.9735 31.0557 12.1124 0.5913 -24691.9561 2584.8113 0.0000 0.0000 4136.2606 -17918.1513 291.0117 -22054.4119 -17909.8203 295.3627 36.1694 35.7865 433032.9060 3.2101 3.2225
ENERGY: 2000 10.8652 24.1506 13.0940 0.5927 -24657.8941 2546.9970 0.0000 0.0000 4231.3848 -17830.8098 297.7043 -22062.1946 -17821.7229 297.2771 -15.1016 -14.6495 422756.7878 -1.0259 -1.0376
ENERGY: 3000 6.0984 20.4113 11.9171 0.3060 -24548.7896 2537.7126 0.0000 0.0000 4178.7071 -17793.6372 293.9981 -21972.3443 -17784.0241 298.0874 -10.6956 -11.7672 432651.0408 0.1444 0.0716
ENERGY: 4000 6.1179 23.2226 13.1163 0.5331 -24678.7012 2563.4754 0.0000 0.0000 4234.2241 -17838.0118 297.9040 -22072.2360 -17828.4563 297.0786 -26.2041 -25.9037 438654.7624 3.5133 3.4951
ENERGY: 5000 10.8608 15.7080 14.2953 0.3109 -24988.1298 2698.0083 0.0000 0.0000 4195.9046 -18053.0419 295.2080 -22248.9465 -18045.2367 294.2468 61.0148 62.2323 437994.7221 0.6199 0.6027
TCL: Running FEP window  10: Lambda1 0.5625 Lambda2 0.625  [dLambda 0.0625]
TCL: Setting parameter firsttimestep to 0
TCL: Setting parameter alchLambda to 0.5625
Info: NONBONDED TABLE R-SQUARED SPACING: 0.0625
Info: NONBONDED TABLE SIZE: 769 POINTS
TCL: Setting parameter alchLambda2 to 0.625
Info: NONBONDED TABLE R-SQUARED SPACING: 0.0625
Info: NONBONDED TABLE SIZE: 769 POINTS
TCL: Running for 5000 steps
ETITLE: TS BOND ANGLE DIHED IMPRP ELECT VDW BOUNDARY MISC KINETIC TOTAL TEMP POTENTIAL TOTAL3 TEMPAVG PRESSURE GPRESSURE VOLUME PRESSAVG GPRESSAVG
ENERGY: 0 10.8608 15.7080 14.2953 0.3109 -24986.7202 2698.9291 0.0000 0.0000 4195.7764 -18050.8398 295.1990 -22246.6161 -18042.4436 295.1990 65.0027 64.8907 437994.7221 65.0027 64.8907
ENERGY: 1000 6.5842 20.5391 20.0703 0.4448 -24801.1652 2600.6349 0.0000 0.0000 4162.4530 -17990.4389 292.8545 -22152.8919 -17980.6464 294.4011 -14.8540 -15.5038 440104.8383 -0.5600 -0.4792
ENERGY: 2000 13.0796 20.5033 18.7339 0.7487 -24698.4219 2522.5426 0.0000 0.0000 4236.8039 -17886.0098 298.0855 -22122.8137 -17880.0418 297.8032 -34.6784 -35.1288 436567.6045 0.8782 0.8723
ENERGY: 3000 6.4296 25.1822 12.9378 0.3756 -24441.1697 2411.6121 0.0000 0.0000 4288.7639 -17695.8685 301.7412 -21984.6324 -17685.9614 300.9176 -99.8537 -99.6374 430133.4373 2.8160 2.8069
ENERGY: 4000 6.5067 30.4478 19.5124 1.0033 -24648.2320 2544.5685 0.0000 0.0000 4185.4569 -17860.7364 294.4729 -22046.1933 -17852.7163 301.4256 -9.2934 -9.3392 443649.8427 1.9456 2.0265
ENERGY: 5000 11.0311 20.1944 11.9440 0.3440 -24613.2133 2515.7898 0.0000 0.0000 4168.0871 -17885.8230 293.2509 -22053.9100 -17878.3239 298.3063 -40.3493 -39.8423 456557.2380 0.1012 0.0746
TCL: Running FEP window  11: Lambda1 0.625  Lambda2 0.6875 [dLambda 0.0625]
TCL: Setting parameter firsttimestep to 0
TCL: Setting parameter alchLambda to 0.625
Info: NONBONDED TABLE R-SQUARED SPACING: 0.0625
Info: NONBONDED TABLE SIZE: 769 POINTS
TCL: Setting parameter alchLambda2 to 0.6875
Info: NONBONDED TABLE R-SQUARED SPACING: 0.0625
Info: NONBONDED TABLE SIZE: 769 POINTS
TCL: Running for 5000 steps
ETITLE: TS BOND ANGLE DIHED IMPRP ELECT VDW BOUNDARY MISC KINETIC TOTAL TEMP POTENTIAL TOTAL3 TEMPAVG PRESSURE GPRESSURE VOLUME PRESSAVG GPRESSAVG
ENERGY: 0 11.0311 20.1944 11.9440 0.3440 -24612.8955 2516.0421 0.0000 0.0000 4167.9572 -17885.3828 293.2417 -22053.3399 -17876.4924 293.2417 -38.1430 -37.8935 456557.2380 -38.1430 -37.8935
ENERGY: 1000 6.6451 22.7597 12.1480 0.3235 -24830.5128 2652.2506 0.0000 0.0000 4187.0304 -17949.3555 294.5836 -22136.3858 -17942.5545 297.5860 42.8364 42.8155 448457.6035 0.8743 0.7785
ENERGY: 2000 5.1771 18.8343 14.5312 0.5877 -24851.8075 2659.5416 0.0000 0.0000 4229.3573 -17923.7784 297.5616 -22153.1356 -17918.0699 296.9467 88.3328 86.9283 426708.1740 1.8028 1.7937
ENERGY: 3000 6.6382 25.7187 14.9481 0.4518 -24667.2281 2566.8344 0.0000 0.0000 4280.2276 -17772.4093 301.1407 -22052.6370 -17763.5874 299.3408 -8.3273 -8.1418 426840.2583 -1.8453 -1.8212
ENERGY: 4000 11.2029 17.5685 15.6603 0.5946 -24733.9844 2590.5911 0.0000 0.0000 4184.5660 -17913.8009 294.4103 -22098.3670 -17907.2836 297.6492 25.1438 25.5543 435298.6370 3.9413 3.9921
ENERGY: 5000 6.7035 14.5147 12.7851 0.3081 -24642.5428 2475.5234 0.0000 0.0000 4194.1213 -17938.5868 295.0825 -22132.7081 -17932.3375 295.2737 -91.0603 -91.1316 451423.4702 0.1319 0.1440
TCL: Running FEP window  12: Lambda1 0.6875 Lambda2 0.75   [dLambda 0.0625]
TCL: Setting parameter firsttimestep to 0
TCL: Setting parameter alchLambda to 0.6875
Info: NONBONDED TABLE R-SQUARED SPACING: 0.0625
Info: NONBONDED TABLE SIZE: 769 POINTS
TCL: Setting parameter alchLambda2 to 0.75
Info: NONBONDED TABLE R-SQUARED SPACING: 0.0625
Info: NONBONDED TABLE SIZE: 769 POINTS
TCL: Running for 5000 steps
ETITLE: TS BOND ANGLE DIHED IMPRP ELECT VDW BOUNDARY MISC KINETIC TOTAL TEMP POTENTIAL TOTAL3 TEMPAVG PRESSURE GPRESSURE VOLUME PRESSAVG GPRESSAVG
ENERGY: 0 6.7035 14.5147 12.7851 0.3081 -24642.7646 2479.9459 0.0000 0.0000 4193.9911 -17934.5163 295.0734 -22128.5074 -17925.3081 295.0734 -86.5099 -86.4350 451423.4702 -86.5099 -86.4350
ENERGY: 1000 3.8606 22.4044 13.4208 0.3158 -24701.2900 2520.4146 0.0000 0.0000 4246.0941 -17894.7796 298.7391 -22140.8737 -17884.7500 297.0887 -36.5023 -35.5891 450535.9409 -0.8219 -0.8658
ENERGY: 2000 5.8407 20.6849 12.2262 0.4634 -24747.8604 2546.5317 0.0000 0.0000 4253.0370 -17909.0765 299.2276 -22162.1135 -17899.1256 295.2623 -28.4294 -29.5137 435370.6214 3.1707 3.1921
ENERGY: 3000 3.8701 16.6622 15.7141 0.6223 -24931.8488 2628.2910 0.0000 0.0000 4208.0749 -18058.6143 296.0643 -22266.6892 -18049.3119 293.9976 -15.8690 -15.6717 424305.1672 3.1157 3.1408
ENERGY: 4000 9.2134 15.6920 15.6600 0.7008 -24835.9671 2578.2167 0.0000 0.0000 4190.8079 -18025.6764 294.8494 -22216.4843 -18017.5590 293.7386 -4.0449 -4.3971 412225.6544 3.7126 3.7164
ENERGY: 5000 6.6900 18.2459 15.8230 0.3673 -24800.8914 2659.2135 0.0000 0.0000 4133.1544 -17967.3973 290.7931 -22100.5517 -17959.4037 293.3514 42.9237 41.3850 416341.0398 -0.4396 -0.4348
TCL: Running FEP window  13: Lambda1 0.75   Lambda2 0.8125 [dLambda 0.0625]
TCL: Setting parameter firsttimestep to 0
TCL: Setting parameter alchLambda to 0.75
Info: NONBONDED TABLE R-SQUARED SPACING: 0.0625
Info: NONBONDED TABLE SIZE: 769 POINTS
TCL: Setting parameter alchLambda2 to 0.8125
Info: NONBONDED TABLE R-SQUARED SPACING: 0.0625
Info: NONBONDED TABLE SIZE: 769 POINTS
TCL: Running for 5000 steps
ETITLE: TS BOND ANGLE DIHED IMPRP ELECT VDW BOUNDARY MISC KINETIC TOTAL TEMP POTENTIAL TOTAL3 TEMPAVG PRESSURE GPRESSURE VOLUME PRESSAVG GPRESSAVG
ENERGY: 0 6.6900 18.2459 15.8230 0.3673 -24801.7981 2660.4202 0.0000 0.0000 4133.0196 -17967.2322 290.7837 -22100.2517 -17959.8308 290.7837 44.7880 45.0032 416341.0398 44.7880 45.0032
ENERGY: 1000 10.9026 19.0747 14.9304 0.4733 -24777.4947 2576.7226 0.0000 0.0000 4224.5678 -17930.8233 297.2246 -22155.3911 -17921.3050 296.9959 -6.5376 -5.4231 408926.7665 4.2866 4.2713
ENERGY: 2000 2.7959 17.9875 14.3264 0.4617 -24944.1387 2645.9030 0.0000 0.0000 4267.5784 -17995.0858 300.2507 -22262.6642 -17985.8117 295.4116 29.1652 29.6282 392229.7003 2.7656 2.8121
ENERGY: 3000 7.9373 17.1041 12.9699 0.2480 -24595.9114 2507.0735 0.0000 0.0000 4091.3673 -17959.2113 287.8532 -22050.5786 -17950.7809 295.1169 -4.6680 -5.8682 383585.1178 -1.8618 -1.9270
ENERGY: 4000 6.8271 18.4546 14.9589 0.2566 -24622.6855 2499.0981 0.0000 0.0000 4182.4073 -17900.6829 294.2584 -22083.0902 -17892.6758 295.7122 -56.9140 -57.5259 389300.7295 6.3221 6.2823
ENERGY: 5000 5.2507 15.3955 16.0020 0.3504 -24742.0355 2710.7142 0.0000 0.0000 4171.6474 -17822.6752 293.5014 -21994.3226 -17811.5990 296.4302 133.8782 134.8999 395109.2388 4.0045 3.9633
TCL: Running FEP window  14: Lambda1 0.8125 Lambda2 0.875  [dLambda 0.0625]
TCL: Setting parameter firsttimestep to 0
TCL: Setting parameter alchLambda to 0.8125
Info: NONBONDED TABLE R-SQUARED SPACING: 0.0625
Info: NONBONDED TABLE SIZE: 769 POINTS
TCL: Setting parameter alchLambda2 to 0.875
Info: NONBONDED TABLE R-SQUARED SPACING: 0.0625
Info: NONBONDED TABLE SIZE: 769 POINTS
TCL: Running for 5000 steps
ETITLE: TS BOND ANGLE DIHED IMPRP ELECT VDW BOUNDARY MISC KINETIC TOTAL TEMP POTENTIAL TOTAL3 TEMPAVG PRESSURE GPRESSURE VOLUME PRESSAVG GPRESSAVG
ENERGY: 0 5.2507 15.3955 16.0020 0.3504 -24742.2850 2718.1121 0.0000 0.0000 4171.5159 -17815.6583 293.4921 -21987.1742 -17808.8632 293.4921 144.8956 145.1017 395109.2388 144.8956 145.1017
ENERGY: 1000 6.1833 13.3469 16.7987 0.8515 -24549.2745 2518.8327 0.0000 0.0000 4264.4492 -17728.8121 300.0305 -21993.2613 -17721.4892 298.8984 15.7269 14.2359 402798.5269 0.5448 0.5460
ENERGY: 2000 10.0567 21.6077 13.0392 0.3431 -24708.5347 2645.1721 0.0000 0.0000 4253.7957 -17764.5201 299.2810 -22018.3158 -17756.3852 300.9237 55.1866 55.4358 395604.3241 -0.0265 -0.0124
ENERGY: 3000 7.5720 22.6143 15.5641 0.4288 -24819.7562 2702.0528 0.0000 0.0000 4224.3458 -17847.1783 297.2090 -22071.5241 -17838.8702 298.5151 106.0444 107.2333 397045.9933 -0.1196 -0.1192
ENERGY: 4000 6.8624 19.6227 16.1319 0.6018 -24897.8251 2693.9456 0.0000 0.0000 4254.4052 -17906.2555 299.3239 -22160.6607 -17897.5828 297.7700 92.5979 92.5995 389409.7304 0.4520 0.4867
ENERGY: 5000 6.2269 18.3378 11.4794 0.2659 -24829.3819 2624.5813 0.0000 0.0000 4260.3372 -17908.1534 299.7412 -22168.4906 -17896.5715 297.8486 22.4761 21.7864 403864.2556 1.5648 1.5301
TCL: Running FEP window  15: Lambda1 0.875  Lambda2 0.9375 [dLambda 0.0625]
TCL: Setting parameter firsttimestep to 0
TCL: Setting parameter alchLambda to 0.875
Info: NONBONDED TABLE R-SQUARED SPACING: 0.0625
Info: NONBONDED TABLE SIZE: 769 POINTS
TCL: Setting parameter alchLambda2 to 0.9375
Info: NONBONDED TABLE R-SQUARED SPACING: 0.0625
Info: NONBONDED TABLE SIZE: 769 POINTS
TCL: Running for 5000 steps
ETITLE: TS BOND ANGLE DIHED IMPRP ELECT VDW BOUNDARY MISC KINETIC TOTAL TEMP POTENTIAL TOTAL3 TEMPAVG PRESSURE GPRESSURE VOLUME PRESSAVG GPRESSAVG
ENERGY: 0 6.2269 18.3378 11.4794 0.2659 -24831.0458 2632.6917 0.0000 0.0000 4260.2067 -17901.8374 299.7321 -22162.0441 -17893.2246 299.7321 32.9936 32.8815 403864.2556 32.9936 32.8815
ENERGY: 1000 7.5131 20.9810 18.3097 0.6350 -24490.7894 2490.2769 0.0000 0.0000 4191.4095 -17761.6642 294.8917 -21953.0737 -17753.2157 298.6764 -10.2620 -9.8493 408889.2426 3.3503 3.3520
ENERGY: 2000 6.5021 20.1505 16.0499 0.7971 -24710.0821 2637.9893 0.0000 0.0000 4205.5428 -17823.0505 295.8861 -22028.5933 -17815.2028 298.2061 63.0791 62.9247 417180.2955 2.2188 2.2765
ENERGY: 3000 7.6099 16.8960 15.4170 0.4709 -24670.3843 2590.3238 0.0000 0.0000 4253.8525 -17785.8142 299.2850 -22039.6667 -17778.5485 297.4152 19.8087 18.9650 424294.6003 2.6687 2.6917
ENERGY: 4000 5.9451 16.6516 20.6010 0.4735 -24888.7702 2721.7423 0.0000 0.0000 4270.8759 -17852.4809 300.4827 -22123.3568 -17842.7245 297.4011 90.6992 90.6897 416757.3220 5.7247 5.6726
ENERGY: 5000 6.1475 20.8498 14.6743 0.6239 -24635.2537 2484.6439 0.0000 0.0000 4288.9981 -17819.3162 301.7577 -22108.3143 -17809.4586 297.4035 -49.5864 -49.4952 409595.6738 2.8986 2.9129
TCL: Running FEP window  16: Lambda1 0.9375 Lambda2 1.0    [dLambda 0.0625]
TCL: Setting parameter firsttimestep to 0
TCL: Setting parameter alchLambda to 0.9375
Info: NONBONDED TABLE R-SQUARED SPACING: 0.0625
Info: NONBONDED TABLE SIZE: 769 POINTS
TCL: Setting parameter alchLambda2 to 1.0
Info: NONBONDED TABLE R-SQUARED SPACING: 0.0625
Info: NONBONDED TABLE SIZE: 769 POINTS
TCL: Running for 5000 steps
ETITLE: TS BOND ANGLE DIHED IMPRP ELECT VDW BOUNDARY MISC KINETIC TOTAL TEMP POTENTIAL TOTAL3 TEMPAVG PRESSURE GPRESSURE VOLUME PRESSAVG GPRESSAVG
ENERGY: 0 6.1475 20.8498 14.6743 0.6239 -24636.1912 2491.8305 0.0000 0.0000 4288.8746 -17813.1905 301.7490 -22102.0651 -17804.6934 301.7490 -39.4440 -39.4275 409595.6738 -39.4440 -39.4275
ENERGY: 1000 7.6520 16.8007 18.2543 0.7025 -24879.5332 2643.2481 0.0000 0.0000 4174.6136 -18018.2620 293.7100 -22192.8756 -18011.8858 296.3760 46.3386 45.8500 406744.8160 3.3652 3.3316
ENERGY: 2000 7.6661 17.2270 16.1332 0.6349 -24777.5449 2579.7844 0.0000 0.0000 4166.4161 -17989.6832 293.1333 -22156.0993 -17978.6472 294.4225 -5.2119 -4.9431 402917.3460 -0.3484 -0.3080
ENERGY: 3000 6.8024 26.5544 15.5262 0.3826 -24738.4466 2626.8369 0.0000 0.0000 4234.4652 -17827.8789 297.9210 -22062.3442 -17820.0450 297.1502 58.2401 58.7982 407579.4155 2.7713 2.8167
ENERGY: 4000 8.9475 22.1646 12.0306 0.1815 -24701.1081 2573.9164 0.0000 0.0000 4343.3384 -17740.5291 305.5809 -22083.8676 -17732.0664 300.4989 -14.4720 -13.8368 407446.9538 1.9881 1.9347
ENERGY: 5000 9.3967 15.4513 17.9279 0.6536 -24584.7120 2559.9486 0.0000 0.0000 4218.3553 -17762.9785 296.7876 -21981.3339 -17755.8692 299.7998 -20.0026 -18.7351 401197.0777 1.4766 1.4657
