Info: SIMULATION PARAMETERS:
Info: TIMESTEP               2
Info: NUMBER OF STEPS        0
Info: STEPS PER CYCLE        10
Info: PERIODIC CELL BASIS 1  38.861 0 0
Info: PERIODIC CELL BASIS 2  0 39.757 0
Info: PERIODIC CELL BASIS 3  0 0 40.136
Info: PERIODIC CELL CENTER   0 0 0
Info: WRAPPING WATERS AROUND PERIODIC BOUNDARIES ON OUTPUT.
Info: WRAPPING ALL CLUSTERS AROUND PERIODIC BOUNDARIES ON OUTPUT.
Info: FIRST LDB TIMESTEP     50
Info: LAST LDB TIMESTEP     -1
Info: HOM BACKGROUND SCALING 1
Info: PME BACKGROUND SCALING 1
Info: MIN ATOMS PER PATCH    40
Info: EMPTY PATCH LOAD       40 ATOMS
Info: INITIAL TEMPERATURE    300
Info: CENTER OF MASS MOVING INITIALLY? NO
Info: DIELECTRIC             1
Info: EXCLUDE                SCALED ONE-FOUR
Info: 1-4 ELECTROSTATICS SCALED BY 0.833333
Info: MODIFIED 1-4 VDW PARAMETERS WILL BE USED
Info: DCD FILENAME           mobley_5157661_min.dcd
Info: DCD FREQUENCY          5000
Info: DCD FIRST STEP         5000
Info: DCD FILE WILL CONTAIN UNIT CELL DATA
Info: XST FILENAME           mobley_5157661_min.xst
Info: XST FREQUENCY          5000
Info: NO VELOCITY DCD OUTPUT
Info: NO FORCE DCD OUTPUT
Info: OUTPUT FILENAME        mobley_5157661_min
Info: BINARY OUTPUT FILES WILL BE USED
Info: RESTART FILENAME       mobley_5157661_min.restart
Info: RESTART FREQUENCY      5000
Info: BINARY RESTART FILES WILL BE USED
Info: CUTOFF                 9
Info: PAIRLIST DISTANCE      11
Info: PAIRLIST SHRINK RATE   0.01
Info: PAIRLIST GROW RATE     0.01
Info: PAIRLIST TRIGGER       0.3
Info: PAIRLISTS PER CYCLE    2
Info: PAIRLISTS ENABLED
Info: MARGIN                 8
Info: HYDROGEN GROUP CUTOFF  2.5
Info: PATCH DIMENSION        21.5
Info: ENERGY OUTPUT STEPS    5000
Info: ENERGY EVALUATION STEPS    5000
Info: OUTPUT ENERGY PRECISION 4
Info: CROSSTERM ENERGY INCLUDED IN DIHEDRAL
Info: TIMING OUTPUT STEPS    50000
Info: PRESSURE OUTPUT STEPS  5000
Info: LANGEVIN DYNAMICS ACTIVE
Info: LANGEVIN TEMPERATURE   300
Info: LANGEVIN USING BBK INTEGRATOR
Info: LANGEVIN DAMPING COEFFICIENT IS 1 INVERSE PS
Info: LANGEVIN DYNAMICS APPLIED TO HYDROGENS
Info: LANGEVIN PISTON PRESSURE CONTROL ACTIVE
Info:        TARGET PRESSURE IS 1.01325 BAR
Info:     OSCILLATION PERIOD IS 50 FS
Info:             DECAY TIME IS 25 FS
Info:     PISTON TEMPERATURE IS 300 K
Info:       PRESSURE CONTROL IS GROUP-BASED
Info:    INITIAL STRAIN RATE IS 0 0 0
Info:       CELL FLUCTUATION IS ISOTROPIC
Info: PARTICLE MESH EWALD (PME) ACTIVE
Info: PME TOLERANCE               1e-06
Info: PME EWALD COEFFICIENT       0.348832
Info: PME INTERPOLATION ORDER     4
Info: PME GRID DIMENSIONS         40 40 44
Info: PME MAXIMUM GRID SPACING    1
Info: FULL ELECTROSTATIC EVALUATION FREQUENCY      2
Info: USING VERLET I (r-RESPA) MTS SCHEME.
Info: C1 SPLITTING OF LONG RANGE ELECTROSTATICS
Info: PLACING ATOMS IN PATCHES BY HYDROGEN GROUPS
Info: RIGID BONDS TO HYDROGEN : ALL
Info:         ERROR TOLERANCE : 1e-08
Info:          MAX ITERATIONS : 100
Info: RIGID WATER USING SETTLE ALGORITHM
Info: RANDOM NUMBER SEED     1741352462
Info: USE HYDROGEN BONDS?    NO
Info: Using AMBER format force field!
Info: AMBER PARM FILE        mobley_5157661.prmtop
Info: COORDINATE PDB         mobley_5157661.pdb
Info: Exclusions will be read from PARM file!
Info: SCNB (VDW SCALING)     2
Info: USING ARITHMETIC MEAN TO COMBINE L-J SIGMA PARAMETERS
Info: SUMMARY OF PARAMETERS:
Info: 4 BONDS
Info: 3 ANGLES
Info:   3 HARMONIC
Info:   0 COSINE-BASED
Info: 2 DIHEDRAL
Info: 0 IMPROPER
Info: 0 CROSSTERM
Info: 0 VDW
Info: 10 VDW_PAIRS
Info: 0 NBTHOLE_PAIRS
Info: STRUCTURE SUMMARY:
Info: 4457 ATOMS
Info: 4456 BONDS
Info: 24 ANGLES
Info: 27 DIHEDRALS
Info: 0 IMPROPERS
Info: 0 CROSSTERMS
Info: 4507 EXCLUSIONS
Info: 4453 RIGID BONDS
Info: 8918 DEGREES OF FREEDOM
Info: 1485 HYDROGEN GROUPS
Info: 4 ATOMS IN LARGEST HYDROGEN GROUP
Info: 1485 MIGRATION GROUPS
Info: 4 ATOMS IN LARGEST MIGRATION GROUP
Info: TOTAL MASS = 26739.8 amu
Info: TOTAL CHARGE = 0.000200011 e
Info: MASS DENSITY = 0.716071 g/cm^3
Info: ATOM DENSITY = 0.0718755 atoms/A^3
Info: ADDED 0 IMPLICIT EXCLUSIONS
Info: NONBONDED TABLE R-SQUARED SPACING: 0.0625
Info: NONBONDED TABLE SIZE: 705 POINTS
Info: REMOVING COM VELOCITY 0.0523992 -0.0741146 -0.0781485
TCL: Minimizing for 2000 steps
ETITLE: TS BOND ANGLE DIHED IMPRP ELECT VDW BOUNDARY MISC KINETIC TOTAL TEMP POTENTIAL TOTAL3 TEMPAVG PRESSURE GPRESSURE VOLUME PRESSAVG GPRESSAVG
ENERGY: 0 0.0473 0.5071 0.0158 0.0000 -13878.0583 1610.6588 0.0000 0.0000 0.0000 -12266.8294 0.0000 -12266.8294 -12266.8294 0.0000 11154.3808 -15642.5777 62009.9906 11154.3808 -15642.5777
ENERGY: 400 1.3071 2.0768 0.0747 0.0000 -19169.1229 2970.7918 0.0000 0.0000 0.0000 -16194.8724 0.0000 -16194.8724 -16194.8724 0.0000 16888.2770 16614.6707 62009.9906 16888.2770 16614.6707
ENERGY: 800 0.3530 0.7911 0.0352 0.0000 -19992.7484 3326.0709 0.0000 0.0000 0.0000 -16665.4981 0.0000 -16665.4981 -16665.4981 0.0000 18690.7026 18504.8348 62009.9906 18690.7026 18504.8348
ENERGY: 1200 0.2838 0.6297 0.0307 0.0000 -20300.6769 3481.6568 0.0000 0.0000 0.0000 -16818.0759 0.0000 -16818.0759 -16818.0759 0.0000 19536.9036 19326.2095 62009.9906 19536.9036 19326.2095
ENERGY: 1600 2.0055 1.2233 0.0405 0.0000 -20524.8788 3607.9727 0.0000 0.0000 0.0000 -16913.6368 0.0000 -16913.6368 -16913.6368 0.0000 20269.6741 20042.5778 62009.9906 20269.6741 20042.5778
ENERGY: 2000 0.0640 0.5545 0.0284 0.0000 -20629.1756 3649.2319 0.0000 0.0000 0.0000 -16979.2967 0.0000 -16979.2967 -16979.2967 0.0000 20500.0570 20243.0822 62009.9906 20500.0570 20243.0822
TCL: Exiting due to exit command.
Info: NAMD 3.0.1 for Linux-x86_64-multicore
Info: Please visit http://www.ks.uiuc.edu/Research/namd/
Info: for updates, documentation, and support information.
Info: Please cite Phillips et al., J. Chem. Phys. 153:044130 (2020) doi:10.1063/5.0014475
Info: in all publications reporting results obtained with NAMD.
Info: Based on Charm++/Converse 80000 for multicore-linux-x86_64-gcc
Info: Built Mon Oct 14 11:11:06 CDT 2024 by dhardy on athine.ks.uiuc.edu
Info: 1 NAMD  3.0.1  Linux-x86_64-multicore  16    k006  z5358697
Info: Running on 16 processors, 1 nodes, 1 physical nodes.
Info: CPU topology information available.
Info: Charm++/Converse parallel runtime startup completed at 0.0108597 s
Info: 1043.45 MB of memory in use based on /proc/self/stat
Info: Configuration file is mobley_5157661_equil.namd
Info: Working in the current directory /srv/scratch/z5358697/prod_prep_6/5157661
TCL: Running 25000 steps at 30 kelvin.
TCL: Suspending until startup complete.
Info: SIMULATION PARAMETERS:
Info: TIMESTEP               2
Info: NUMBER OF STEPS        0
Info: STEPS PER CYCLE        10
Info: PERIODIC CELL BASIS 1  38.861 0 0
Info: PERIODIC CELL BASIS 2  0 39.757 0
Info: PERIODIC CELL BASIS 3  0 0 40.136
Info: PERIODIC CELL CENTER   0 0 0
Info: WRAPPING WATERS AROUND PERIODIC BOUNDARIES ON OUTPUT.
Info: WRAPPING ALL CLUSTERS AROUND PERIODIC BOUNDARIES ON OUTPUT.
Info: FIRST LDB TIMESTEP     50
Info: LAST LDB TIMESTEP     -1
Info: HOM BACKGROUND SCALING 1
Info: PME BACKGROUND SCALING 1
Info: MIN ATOMS PER PATCH    40
Info: EMPTY PATCH LOAD       40 ATOMS
Info: INITIAL TEMPERATURE    300
Info: CENTER OF MASS MOVING INITIALLY? NO
Info: DIELECTRIC             1
Info: EXCLUDE                SCALED ONE-FOUR
Info: 1-4 ELECTROSTATICS SCALED BY 0.833333
Info: MODIFIED 1-4 VDW PARAMETERS WILL BE USED
Info: DCD FILENAME           mobley_5157661_equil.dcd
Info: DCD FREQUENCY          5000
Info: DCD FIRST STEP         5000
Info: DCD FILE WILL CONTAIN UNIT CELL DATA
Info: XST FILENAME           mobley_5157661_equil.xst
Info: XST FREQUENCY          5000
Info: NO VELOCITY DCD OUTPUT
Info: NO FORCE DCD OUTPUT
Info: OUTPUT FILENAME        mobley_5157661_equil
Info: BINARY OUTPUT FILES WILL BE USED
Info: RESTART FILENAME       mobley_5157661_equil.restart
Info: RESTART FREQUENCY      5000
Info: BINARY RESTART FILES WILL BE USED
Info: CUTOFF                 9
Info: PAIRLIST DISTANCE      11
Info: PAIRLIST SHRINK RATE   0.01
Info: PAIRLIST GROW RATE     0.01
Info: PAIRLIST TRIGGER       0.3
Info: PAIRLISTS PER CYCLE    2
Info: PAIRLISTS ENABLED
Info: MARGIN                 8
Info: HYDROGEN GROUP CUTOFF  2.5
Info: PATCH DIMENSION        21.5
Info: ENERGY OUTPUT STEPS    5000
Info: ENERGY EVALUATION STEPS    5000
Info: OUTPUT ENERGY PRECISION 4
Info: CROSSTERM ENERGY INCLUDED IN DIHEDRAL
Info: TIMING OUTPUT STEPS    50000
Info: PRESSURE OUTPUT STEPS  5000
Info: LANGEVIN DYNAMICS ACTIVE
Info: LANGEVIN TEMPERATURE   30
Info: LANGEVIN USING BBK INTEGRATOR
Info: LANGEVIN DAMPING COEFFICIENT IS 1 INVERSE PS
Info: LANGEVIN DYNAMICS APPLIED TO HYDROGENS
Info: LANGEVIN PISTON PRESSURE CONTROL ACTIVE
Info:        TARGET PRESSURE IS 1.01325 BAR
Info:     OSCILLATION PERIOD IS 50 FS
Info:             DECAY TIME IS 25 FS
Info:     PISTON TEMPERATURE IS 300 K
Info:       PRESSURE CONTROL IS GROUP-BASED
Info:    INITIAL STRAIN RATE IS 0 0 0
Info:       CELL FLUCTUATION IS ISOTROPIC
Info: PARTICLE MESH EWALD (PME) ACTIVE
Info: PME TOLERANCE               1e-06
Info: PME EWALD COEFFICIENT       0.348832
Info: PME INTERPOLATION ORDER     4
Info: PME GRID DIMENSIONS         40 40 44
Info: PME MAXIMUM GRID SPACING    1
Info: FULL ELECTROSTATIC EVALUATION FREQUENCY      2
Info: USING VERLET I (r-RESPA) MTS SCHEME.
Info: C1 SPLITTING OF LONG RANGE ELECTROSTATICS
Info: PLACING ATOMS IN PATCHES BY HYDROGEN GROUPS
Info: RIGID BONDS TO HYDROGEN : ALL
Info:         ERROR TOLERANCE : 1e-08
Info:          MAX ITERATIONS : 100
Info: RIGID WATER USING SETTLE ALGORITHM
Info: RANDOM NUMBER SEED     1741352475
Info: USE HYDROGEN BONDS?    NO
Info: Using AMBER format force field!
Info: AMBER PARM FILE        mobley_5157661.prmtop
Info: COORDINATE PDB         mobley_5157661.pdb
Info: Exclusions will be read from PARM file!
Info: SCNB (VDW SCALING)     2
Info: USING ARITHMETIC MEAN TO COMBINE L-J SIGMA PARAMETERS
Info: BINARY COORDINATES     mobley_5157661_min.coor
Info: SUMMARY OF PARAMETERS:
Info: 4 BONDS
Info: 3 ANGLES
Info:   3 HARMONIC
Info:   0 COSINE-BASED
Info: 2 DIHEDRAL
Info: 0 IMPROPER
Info: 0 CROSSTERM
Info: 0 VDW
Info: 10 VDW_PAIRS
Info: 0 NBTHOLE_PAIRS
Info: STRUCTURE SUMMARY:
Info: 4457 ATOMS
Info: 4456 BONDS
Info: 24 ANGLES
Info: 27 DIHEDRALS
Info: 0 IMPROPERS
Info: 0 CROSSTERMS
Info: 4507 EXCLUSIONS
Info: 4453 RIGID BONDS
Info: 8918 DEGREES OF FREEDOM
Info: 1485 HYDROGEN GROUPS
Info: 4 ATOMS IN LARGEST HYDROGEN GROUP
Info: 1485 MIGRATION GROUPS
Info: 4 ATOMS IN LARGEST MIGRATION GROUP
Info: TOTAL MASS = 26739.8 amu
Info: TOTAL CHARGE = 0.000200011 e
Info: MASS DENSITY = 0.716071 g/cm^3
Info: ATOM DENSITY = 0.0718755 atoms/A^3
Info: ADDED 0 IMPLICIT EXCLUSIONS
Info: NONBONDED TABLE R-SQUARED SPACING: 0.0625
Info: NONBONDED TABLE SIZE: 705 POINTS
Info: REMOVING COM VELOCITY 0.0849033 0.0132594 -0.123895
TCL: Running for 25000 steps
ETITLE: TS BOND ANGLE DIHED IMPRP ELECT VDW BOUNDARY MISC KINETIC TOTAL TEMP POTENTIAL TOTAL3 TEMPAVG PRESSURE GPRESSURE VOLUME PRESSAVG GPRESSAVG
ENERGY: 0 0.0640 0.5545 0.0284 0.0000 -20629.1756 3649.2319 0.0000 0.0000 2685.1823 -14294.1144 303.0377 -16979.2967 -14293.5606 303.0377 541.8884 576.0913 62009.9906 541.8884 576.0913
ENERGY: 5000 0.1690 1.1665 0.0794 0.0000 -21435.8584 3710.4839 0.0000 0.0000 271.9914 -17451.9683 30.6957 -17723.9597 -17451.1641 47.7381 -91.6449 -28.9010 43229.6844 1.9953 2.0041
ENERGY: 10000 0.0412 0.8531 0.1083 0.0000 -21482.3358 3722.2933 0.0000 0.0000 265.7673 -17493.2726 29.9933 -17759.0399 -17492.6878 30.3413 -108.5337 -36.6784 43211.5286 2.4448 2.6071
ENERGY: 15000 0.0200 0.7267 0.0431 0.0000 -21654.4718 3885.4329 0.0000 0.0000 268.5926 -17499.6565 30.3122 -17768.2491 -17498.8524 30.0552 840.9937 905.5397 42908.0915 -2.8147 -2.6810
ENERGY: 20000 0.2976 0.7922 0.0998 0.0000 -21427.2500 3650.5617 0.0000 0.0000 268.9022 -17506.5965 30.3471 -17775.4987 -17505.9194 30.1315 -508.5372 -451.1669 43252.8908 6.2463 6.2763
ENERGY: 25000 0.3086 0.6649 0.0667 0.0000 -21542.6503 3750.7870 0.0000 0.0000 269.1077 -17521.7154 30.3703 -17790.8230 -17520.9589 30.1555 26.2051 80.7381 43011.2609 2.2622 2.4157
TCL: Running 25000 steps at 60 kelvin.
TCL: Setting parameter langevinTemp to 60
TCL: Running for 25000 steps
ETITLE: TS BOND ANGLE DIHED IMPRP ELECT VDW BOUNDARY MISC KINETIC TOTAL TEMP POTENTIAL TOTAL3 TEMPAVG PRESSURE GPRESSURE VOLUME PRESSAVG GPRESSAVG
ENERGY: 25000 0.3086 0.6649 0.0667 0.0000 -21542.6503 3750.7870 0.0000 0.0000 268.9754 -17521.8476 30.3554 -17790.8230 -17521.2381 30.3554 25.1016 80.6870 43011.2609 25.1016 80.6870
ENERGY: 30000 0.5645 1.5876 0.0629 0.0000 -21155.3917 3597.5923 0.0000 0.0000 531.5917 -17023.9927 59.9931 -17555.5844 -17022.2591 56.8809 -295.4604 -227.2613 43373.9849 0.0726 0.0256
ENERGY: 35000 0.8582 1.4824 0.2396 0.0000 -21065.2666 3498.7667 0.0000 0.0000 536.7741 -17027.1456 60.5779 -17563.9197 -17025.8405 59.8423 -793.5790 -728.9729 43212.9185 -0.7634 -0.5185
ENERGY: 40000 0.4161 1.6675 0.1421 0.0000 -21120.2092 3524.0217 0.0000 0.0000 534.0811 -17059.8807 60.2740 -17593.9618 -17058.3030 60.3324 -735.4198 -681.7785 43298.4274 2.1480 1.9928
ENERGY: 45000 0.3563 1.6619 0.1503 0.0000 -21302.8751 3676.5515 0.0000 0.0000 529.9639 -17094.1912 59.8094 -17624.1551 -17092.8420 59.9817 42.9401 94.2011 43063.6970 4.8842 4.6481
ENERGY: 50000 0.0959 1.5089 0.3187 0.0000 -21401.7670 3769.7817 0.0000 0.0000 544.4107 -17085.6512 61.4398 -17630.0619 -17084.0910 60.2483 722.2473 784.6669 42675.4091 0.7522 0.9185
TCL: Running 25000 steps at 90 kelvin.
TCL: Setting parameter langevinTemp to 90
TCL: Running for 25000 steps
ETITLE: TS BOND ANGLE DIHED IMPRP ELECT VDW BOUNDARY MISC KINETIC TOTAL TEMP POTENTIAL TOTAL3 TEMPAVG PRESSURE GPRESSURE VOLUME PRESSAVG GPRESSAVG
ENERGY: 50000 0.0959 1.5089 0.3187 0.0000 -21401.7670 3769.7817 0.0000 0.0000 544.1510 -17085.9109 61.4105 -17630.0619 -17084.9049 61.4105 728.0666 784.9064 42675.4091 728.0666 784.9064
ENERGY: 55000 0.2341 3.3707 0.5846 0.0000 -20817.2850 3469.7392 0.0000 0.0000 797.8033 -16545.5530 90.0365 -17343.3564 -16544.1400 86.6563 -339.5640 -307.1917 43164.9739 4.3173 4.6251
ENERGY: 60000 0.8895 2.5887 0.0483 0.0000 -20994.3318 3601.8918 0.0000 0.0000 773.3835 -16615.5300 87.2806 -17388.9135 -16613.4401 91.0572 169.3294 229.3732 43021.8673 3.3103 3.6227
ENERGY: 65000 0.5881 1.4595 0.2511 0.0000 -20881.0601 3474.0786 0.0000 0.0000 776.7720 -16627.9108 87.6630 -17404.6828 -16625.4611 89.4177 -564.7765 -496.8894 43153.7242 5.8729 5.9292
ENERGY: 70000 0.0447 1.7215 0.2230 0.0000 -20907.1175 3477.2328 0.0000 0.0000 811.2596 -16616.6358 91.5552 -17427.8955 -16614.7040 90.0127 -476.1380 -445.3741 43147.0514 1.0519 1.3132
ENERGY: 75000 0.3495 1.8885 0.4722 0.0000 -20886.3944 3459.7734 0.0000 0.0000 810.4168 -16613.4942 91.4600 -17423.9110 -16611.3132 90.7002 -628.4938 -557.1492 43246.3315 7.0484 7.3568
TCL: Running 25000 steps at 120 kelvin.
TCL: Setting parameter langevinTemp to 120
TCL: Running for 25000 steps
ETITLE: TS BOND ANGLE DIHED IMPRP ELECT VDW BOUNDARY MISC KINETIC TOTAL TEMP POTENTIAL TOTAL3 TEMPAVG PRESSURE GPRESSURE VOLUME PRESSAVG GPRESSAVG
ENERGY: 75000 0.3495 1.8885 0.4722 0.0000 -20886.3944 3459.7734 0.0000 0.0000 810.0187 -16613.8923 91.4151 -17423.9110 -16612.0389 91.4151 -606.4066 -557.0322 43246.3315 -606.4066 -557.0322
ENERGY: 80000 0.2420 4.0919 0.2283 0.0000 -20642.8935 3508.9850 0.0000 0.0000 1043.9640 -16085.3823 117.8171 -17129.3463 -16082.7909 116.2603 394.0313 468.6396 43189.2121 1.2490 1.3589
ENERGY: 85000 0.0721 2.5166 0.7819 0.0000 -20526.7798 3391.5774 0.0000 0.0000 1047.2511 -16084.5807 118.1881 -17131.8318 -16082.5144 120.4571 -301.0346 -283.1888 43538.7225 3.1447 2.8159
ENERGY: 90000 0.1974 3.6918 0.3112 0.0000 -20671.3075 3472.7399 0.0000 0.0000 1098.7253 -16095.6419 123.9972 -17194.3672 -16092.5647 119.7330 -68.9772 21.9620 43484.0064 -0.5612 0.0638
ENERGY: 95000 0.0214 3.4621 0.3401 0.0000 -20867.5998 3668.0188 0.0000 0.0000 1055.3871 -16140.3702 119.1063 -17195.7573 -16138.5159 120.4368 1155.0543 1182.7938 43060.0843 0.8711 0.4283
ENERGY: 100000 0.2988 3.4795 0.1827 0.0000 -20669.1792 3432.0778 0.0000 0.0000 1054.4655 -16178.6750 119.0023 -17233.1405 -16176.8033 119.7153 -256.6468 -193.8317 43305.3400 4.4567 4.1142
TCL: Running 25000 steps at 150 kelvin.
TCL: Setting parameter langevinTemp to 150
TCL: Running for 25000 steps
ETITLE: TS BOND ANGLE DIHED IMPRP ELECT VDW BOUNDARY MISC KINETIC TOTAL TEMP POTENTIAL TOTAL3 TEMPAVG PRESSURE GPRESSURE VOLUME PRESSAVG GPRESSAVG
ENERGY: 100000 0.2988 3.4795 0.1827 0.0000 -20669.1792 3432.0778 0.0000 0.0000 1053.9321 -16179.2084 118.9421 -17233.1405 -16177.1348 118.9421 -250.5377 -194.7906 43305.3400 -250.5377 -194.7906
ENERGY: 105000 0.4501 3.1705 0.6156 0.0000 -20118.7717 3248.8613 0.0000 0.0000 1329.8245 -15535.8497 150.0781 -16865.6742 -15531.7239 147.1555 -414.1921 -388.5605 43679.6160 6.1597 5.8237
ENERGY: 110000 0.8971 2.3313 0.3439 0.0000 -20089.5376 3157.2818 0.0000 0.0000 1327.4236 -15601.2599 149.8071 -16928.6836 -15599.1647 150.1817 -1118.5569 -1070.3545 43719.0745 1.9323 1.6620
ENERGY: 115000 0.3706 4.6738 0.3227 0.0000 -20258.4093 3368.1712 0.0000 0.0000 1309.3295 -15575.5416 147.7651 -16884.8711 -15573.4035 150.3377 245.4218 293.5519 43295.0614 4.6862 4.5566
ENERGY: 120000 0.8231 1.7888 0.5163 0.0000 -20351.2636 3439.8447 0.0000 0.0000 1332.3406 -15575.9500 150.3620 -16908.2906 -15571.9982 150.6170 536.4314 584.9451 43321.3442 8.7684 9.5827
ENERGY: 125000 0.2857 3.9155 0.3339 0.0000 -20371.6480 3394.1403 0.0000 0.0000 1343.4512 -15629.5214 151.6159 -16972.9726 -15625.7350 151.6847 226.1602 264.3476 43263.9230 8.9626 9.1952
TCL: Running 50000 steps at 180 kelvin.
TCL: Setting parameter langevinTemp to 180
TCL: Running for 50000 steps
ETITLE: TS BOND ANGLE DIHED IMPRP ELECT VDW BOUNDARY MISC KINETIC TOTAL TEMP POTENTIAL TOTAL3 TEMPAVG PRESSURE GPRESSURE VOLUME PRESSAVG GPRESSAVG
ENERGY: 125000 0.2857 3.9155 0.3339 0.0000 -20371.6480 3394.1403 0.0000 0.0000 1342.7841 -15630.1885 151.5406 -16972.9726 -15627.8771 151.5406 211.4029 266.3223 43263.9230 211.4029 266.3223
ENERGY: 135000 0.7010 5.2904 1.3867 0.0000 -19672.3120 3136.3294 0.0000 0.0000 1617.1000 -14911.5044 182.4987 -16528.6045 -14908.1865 179.6521 -354.1149 -302.5884 43902.1701 4.6467 4.7507
ENERGY: 145000 0.7226 4.8745 0.3359 0.0000 -19738.2251 3208.3786 0.0000 0.0000 1603.6128 -14920.3008 180.9766 -16523.9136 -14915.1780 179.8392 114.2076 136.0705 43703.6044 1.5660 1.1776
ENERGY: 155000 0.5694 4.1442 0.5038 0.0000 -19747.8670 3150.2925 0.0000 0.0000 1590.8427 -15001.5144 179.5354 -16592.3571 -14999.9167 181.0869 -365.7199 -325.3801 43856.0128 6.9106 6.7082
ENERGY: 165000 0.1096 5.1902 0.2602 0.0000 -20016.5787 3346.4832 0.0000 0.0000 1535.7214 -15128.8140 173.3147 -16664.5355 -15126.9467 179.9797 749.6170 793.9979 43266.6415 4.3581 4.6518
ENERGY: 175000 2.5905 4.0910 0.9622 0.0000 -19752.5692 3188.3543 0.0000 0.0000 1609.9438 -14946.6274 181.6911 -16556.5712 -14943.6460 179.8825 -0.7069 35.5302 43500.6234 5.9461 5.8746
TCL: Running 50000 steps at 210 kelvin.
TCL: Setting parameter langevinTemp to 210
TCL: Running for 50000 steps
ETITLE: TS BOND ANGLE DIHED IMPRP ELECT VDW BOUNDARY MISC KINETIC TOTAL TEMP POTENTIAL TOTAL3 TEMPAVG PRESSURE GPRESSURE VOLUME PRESSAVG GPRESSAVG
ENERGY: 175000 2.5905 4.0910 0.9622 0.0000 -19752.5692 3188.3543 0.0000 0.0000 1609.1300 -14947.4411 181.5993 -16556.5712 -14944.6910 181.5993 -23.8669 35.4693 43500.6234 -23.8669 35.4693
ENERGY: 185000 0.6863 4.8416 0.5291 0.0000 -18999.9348 2984.3238 0.0000 0.0000 1884.9168 -14124.6372 212.7233 -16009.5540 -14120.0065 209.5609 223.5540 295.4527 43717.1101 3.4562 3.6971
ENERGY: 195000 0.9601 4.0640 0.3877 0.0000 -18855.7192 2962.5614 0.0000 0.0000 1825.9640 -14061.7820 206.0702 -15887.7460 -14058.9378 210.9938 476.6859 553.9491 43323.5111 -1.0607 -0.9587
ENERGY: 205000 0.8224 4.3381 1.6713 0.0000 -18785.4191 2912.6027 0.0000 0.0000 1867.6815 -13998.3030 210.7782 -15865.9845 -13994.3713 210.4391 246.0400 380.9852 43305.6843 6.4770 7.2299
ENERGY: 215000 0.8141 6.8826 0.3256 0.0000 -18655.6882 2800.0126 0.0000 0.0000 1919.8651 -13927.7881 216.6674 -15847.6533 -13924.8448 209.7035 -345.6189 -268.6049 43567.7105 -2.0695 -1.3961
ENERGY: 225000 0.6833 3.0441 0.7462 0.0000 -18604.2304 2712.5341 0.0000 0.0000 1857.1151 -14030.1076 209.5857 -15887.2227 -14025.6223 209.2592 -936.6973 -840.7100 43621.8869 3.1819 3.3545
TCL: Running 50000 steps at 240 kelvin.
TCL: Setting parameter langevinTemp to 240
TCL: Running for 50000 steps
ETITLE: TS BOND ANGLE DIHED IMPRP ELECT VDW BOUNDARY MISC KINETIC TOTAL TEMP POTENTIAL TOTAL3 TEMPAVG PRESSURE GPRESSURE VOLUME PRESSAVG GPRESSAVG
ENERGY: 225000 0.6833 3.0441 0.7462 0.0000 -18604.2304 2712.5341 0.0000 0.0000 1856.1995 -14031.0232 209.4824 -15887.2227 -14026.9000 209.4824 -921.7951 -840.4482 43621.8869 -921.7951 -840.4482
ENERGY: 235000 0.9159 2.6262 0.3900 0.0000 -17810.9296 2608.6925 0.0000 0.0000 2135.1185 -13063.1867 240.9600 -15198.3052 -13059.7086 240.7435 -22.1214 54.4213 43945.0733 -0.1865 -0.5251
ENERGY: 245000 0.1549 4.0610 0.6930 0.0000 -17845.5963 2598.7767 0.0000 0.0000 2153.1051 -13088.8057 242.9899 -15241.9107 -13083.2156 238.3861 -154.4081 -27.1895 43985.3854 -5.2277 -5.4632
ENERGY: 255000 1.2781 6.9958 0.4580 0.0000 -17868.8187 2591.7419 0.0000 0.0000 2088.5052 -13179.8397 235.6994 -15268.3448 -13177.3669 240.9195 -344.0161 -213.3392 44371.7905 5.9857 6.2058
ENERGY: 265000 0.0517 3.6990 0.3011 0.0000 -17813.9687 2546.1247 0.0000 0.0000 2171.9346 -13091.8575 245.1149 -15263.7921 -13086.1912 239.5212 -366.8898 -311.5197 44027.3382 0.6765 0.8474
ENERGY: 275000 0.1226 5.8411 1.3940 0.0000 -17729.5995 2506.5080 0.0000 0.0000 2209.0214 -13006.7124 249.3003 -15215.7338 -13002.3338 240.9385 -459.5650 -382.0662 44084.0396 1.1346 0.7399
TCL: Running 50000 steps at 270 kelvin.
TCL: Setting parameter langevinTemp to 270
TCL: Running for 50000 steps
ETITLE: TS BOND ANGLE DIHED IMPRP ELECT VDW BOUNDARY MISC KINETIC TOTAL TEMP POTENTIAL TOTAL3 TEMPAVG PRESSURE GPRESSURE VOLUME PRESSAVG GPRESSAVG
ENERGY: 275000 0.1226 5.8411 1.3940 0.0000 -17729.5995 2506.5080 0.0000 0.0000 2207.9733 -13007.7605 249.1820 -15215.7338 -13005.0938 249.1820 -477.8167 -381.4025 44084.0396 -477.8167 -381.4025
ENERGY: 285000 0.7165 7.4759 0.6763 0.0000 -16945.6160 2290.7533 0.0000 0.0000 2423.2388 -12222.7553 273.4759 -14645.9940 -12219.1015 270.8495 -577.8719 -506.8603 44869.7419 4.4593 5.3201
ENERGY: 295000 0.2798 4.1852 0.2593 0.0000 -16978.7197 2334.1786 0.0000 0.0000 2417.2616 -12222.5552 272.8014 -14639.8168 -12217.4196 269.0478 -278.5796 -206.0050 44829.8132 2.5614 2.4417
ENERGY: 305000 0.7412 5.7280 1.4071 0.0000 -17052.1038 2375.1017 0.0000 0.0000 2437.2894 -12231.8364 275.0616 -14669.1258 -12224.3702 268.6381 79.8375 153.4285 43988.3482 2.0878 2.3191
ENERGY: 315000 0.2143 2.5948 0.4788 0.0000 -16978.5041 2340.0584 0.0000 0.0000 2393.7218 -12241.4360 270.1448 -14635.1578 -12236.2340 269.5988 -222.8738 -162.4814 44774.9973 -0.1985 -0.9572
ENERGY: 325000 3.7853 3.3172 0.3137 0.0000 -17078.1391 2443.8316 0.0000 0.0000 2366.2911 -12260.6002 267.0491 -14626.8913 -12255.5539 270.2394 124.5557 221.4689 44877.0382 0.1682 -0.2165
TCL: Running 1000000 steps at 300 kelvin.
TCL: Setting parameter langevinTemp to 300
TCL: Running for 1000000 steps
ETITLE: TS BOND ANGLE DIHED IMPRP ELECT VDW BOUNDARY MISC KINETIC TOTAL TEMP POTENTIAL TOTAL3 TEMPAVG PRESSURE GPRESSURE VOLUME PRESSAVG GPRESSAVG
ENERGY: 325000 3.7853 3.3172 0.3137 0.0000 -17078.1391 2443.8316 0.0000 0.0000 2365.1115 -12261.7798 266.9160 -14626.8913 -12257.9091 266.9160 137.9159 221.8253 44877.0382 137.9159 221.8253
ENERGY: 525000 0.3820 7.2119 0.5673 0.0000 -16183.3244 2120.6909 0.0000 0.0000 2706.3328 -11348.1394 305.4247 -14054.4723 -11340.6355 301.1815 -755.9068 -651.8795 46601.2655 3.0887 2.0646
ENERGY: 725000 0.8020 5.0772 0.6235 0.0000 -16200.2423 2186.5585 0.0000 0.0000 2658.5749 -11348.6061 300.0349 -14007.1810 -11341.8856 297.1906 63.4072 166.9493 45676.7703 0.9285 0.9266
ENERGY: 925000 1.9964 8.8628 1.7515 0.0000 -15938.1650 2019.5217 0.0000 0.0000 2702.0077 -11204.0249 304.9366 -13906.0326 -11202.4588 300.3654 -908.6792 -814.7721 46638.8201 7.9513 7.3693
ENERGY: 1125000 1.2099 6.5537 0.5878 0.0000 -16217.4130 2198.3512 0.0000 0.0000 2690.0316 -11320.6789 303.5850 -14010.7105 -11317.7671 301.6340 8.7693 110.9569 45932.3407 4.1078 5.2017
ENERGY: 1325000 0.1285 8.5274 1.0036 0.0000 -15982.0885 2147.1985 0.0000 0.0000 2644.9883 -11180.2423 298.5016 -13825.2306 -11172.4218 299.7434 7.3775 120.8522 46167.2006 3.1026 3.1508
TCL: Exiting due to exit command.
