Info: SIMULATION PARAMETERS:
Info: TIMESTEP               2
Info: NUMBER OF STEPS        0
Info: STEPS PER CYCLE        10
Info: PERIODIC CELL BASIS 1  41.102 0 0
Info: PERIODIC CELL BASIS 2  0 40.343 0
Info: PERIODIC CELL BASIS 3  0 0 41.374
Info: PERIODIC CELL CENTER   0 0 0
Info: WRAPPING WATERS AROUND PERIODIC BOUNDARIES ON OUTPUT.
Info: WRAPPING ALL CLUSTERS AROUND PERIODIC BOUNDARIES ON OUTPUT.
Info: FIRST LDB TIMESTEP     50
Info: LAST LDB TIMESTEP     -1
Info: HOM BACKGROUND SCALING 1
Info: PME BACKGROUND SCALING 1
Info: MIN ATOMS PER PATCH    40
Info: EMPTY PATCH LOAD       40 ATOMS
Info: INITIAL TEMPERATURE    300
Info: CENTER OF MASS MOVING INITIALLY? NO
Info: DIELECTRIC             1
Info: EXCLUDE                SCALED ONE-FOUR
Info: 1-4 ELECTROSTATICS SCALED BY 0.833333
Info: MODIFIED 1-4 VDW PARAMETERS WILL BE USED
Info: DCD FILENAME           mobley_1674094_min.dcd
Info: DCD FREQUENCY          5000
Info: DCD FIRST STEP         5000
Info: DCD FILE WILL CONTAIN UNIT CELL DATA
Info: XST FILENAME           mobley_1674094_min.xst
Info: XST FREQUENCY          5000
Info: NO VELOCITY DCD OUTPUT
Info: NO FORCE DCD OUTPUT
Info: OUTPUT FILENAME        mobley_1674094_min
Info: BINARY OUTPUT FILES WILL BE USED
Info: RESTART FILENAME       mobley_1674094_min.restart
Info: RESTART FREQUENCY      5000
Info: BINARY RESTART FILES WILL BE USED
Info: CUTOFF                 9
Info: PAIRLIST DISTANCE      11
Info: PAIRLIST SHRINK RATE   0.01
Info: PAIRLIST GROW RATE     0.01
Info: PAIRLIST TRIGGER       0.3
Info: PAIRLISTS PER CYCLE    2
Info: PAIRLISTS ENABLED
Info: MARGIN                 8
Info: HYDROGEN GROUP CUTOFF  2.5
Info: PATCH DIMENSION        21.5
Info: ENERGY OUTPUT STEPS    5000
Info: ENERGY EVALUATION STEPS    5000
Info: OUTPUT ENERGY PRECISION 4
Info: CROSSTERM ENERGY INCLUDED IN DIHEDRAL
Info: TIMING OUTPUT STEPS    50000
Info: PRESSURE OUTPUT STEPS  5000
Info: LANGEVIN DYNAMICS ACTIVE
Info: LANGEVIN TEMPERATURE   300
Info: LANGEVIN USING BBK INTEGRATOR
Info: LANGEVIN DAMPING COEFFICIENT IS 1 INVERSE PS
Info: LANGEVIN DYNAMICS APPLIED TO HYDROGENS
Info: LANGEVIN PISTON PRESSURE CONTROL ACTIVE
Info:        TARGET PRESSURE IS 1.01325 BAR
Info:     OSCILLATION PERIOD IS 50 FS
Info:             DECAY TIME IS 25 FS
Info:     PISTON TEMPERATURE IS 300 K
Info:       PRESSURE CONTROL IS GROUP-BASED
Info:    INITIAL STRAIN RATE IS 0 0 0
Info:       CELL FLUCTUATION IS ISOTROPIC
Info: PARTICLE MESH EWALD (PME) ACTIVE
Info: PME TOLERANCE               1e-06
Info: PME EWALD COEFFICIENT       0.348832
Info: PME INTERPOLATION ORDER     4
Info: PME GRID DIMENSIONS         44 44 44
Info: PME MAXIMUM GRID SPACING    1
Info: FULL ELECTROSTATIC EVALUATION FREQUENCY      2
Info: USING VERLET I (r-RESPA) MTS SCHEME.
Info: C1 SPLITTING OF LONG RANGE ELECTROSTATICS
Info: PLACING ATOMS IN PATCHES BY HYDROGEN GROUPS
Info: RIGID BONDS TO HYDROGEN : ALL
Info:         ERROR TOLERANCE : 1e-08
Info:          MAX ITERATIONS : 100
Info: RIGID WATER USING SETTLE ALGORITHM
Info: RANDOM NUMBER SEED     1741317390
Info: USE HYDROGEN BONDS?    NO
Info: Using AMBER format force field!
Info: AMBER PARM FILE        mobley_1674094.prmtop
Info: COORDINATE PDB         mobley_1674094.pdb
Info: Exclusions will be read from PARM file!
Info: SCNB (VDW SCALING)     2
Info: USING ARITHMETIC MEAN TO COMBINE L-J SIGMA PARAMETERS
Info: SUMMARY OF PARAMETERS:
Info: 7 BONDS
Info: 7 ANGLES
Info:   7 HARMONIC
Info:   0 COSINE-BASED
Info: 5 DIHEDRAL
Info: 0 IMPROPER
Info: 0 CROSSTERM
Info: 0 VDW
Info: 21 VDW_PAIRS
Info: 0 NBTHOLE_PAIRS
Info: STRUCTURE SUMMARY:
Info: 4993 ATOMS
Info: 4992 BONDS
Info: 26 ANGLES
Info: 31 DIHEDRALS
Info: 0 IMPROPERS
Info: 0 CROSSTERMS
Info: 5049 EXCLUSIONS
Info: 4987 RIGID BONDS
Info: 9992 DEGREES OF FREEDOM
Info: 1665 HYDROGEN GROUPS
Info: 4 ATOMS IN LARGEST HYDROGEN GROUP
Info: 1665 MIGRATION GROUPS
Info: 4 ATOMS IN LARGEST MIGRATION GROUP
Info: TOTAL MASS = 29970.7 amu
Info: TOTAL CHARGE = 0.000199989 e
Info: MASS DENSITY = 0.725433 g/cm^3
Info: ATOM DENSITY = 0.0727785 atoms/A^3
Info: ADDED 0 IMPLICIT EXCLUSIONS
Info: NONBONDED TABLE R-SQUARED SPACING: 0.0625
Info: NONBONDED TABLE SIZE: 705 POINTS
Info: REMOVING COM VELOCITY 0.291285 -0.085485 -0.0345695
TCL: Minimizing for 2000 steps
ETITLE: TS BOND ANGLE DIHED IMPRP ELECT VDW BOUNDARY MISC KINETIC TOTAL TEMP POTENTIAL TOTAL3 TEMPAVG PRESSURE GPRESSURE VOLUME PRESSAVG GPRESSAVG
ENERGY: 0 0.1368 0.1847 0.0104 0.0000 -15695.0125 1783.1718 0.0000 0.0000 0.0000 -13911.5088 0.0000 -13911.5088 -13911.5088 0.0000 11343.4783 -15981.0159 68605.4560 11343.4783 -15981.0159
ENERGY: 400 3.0457 0.8538 0.0349 0.0000 -20828.0988 2945.2402 0.0000 0.0000 0.0000 -17878.9243 0.0000 -17878.9243 -17878.9243 0.0000 15559.4736 15399.0559 68605.4560 15559.4736 15399.0559
ENERGY: 800 0.9963 0.3301 0.0240 0.0000 -21944.6206 3521.4493 0.0000 0.0000 0.0000 -18421.8208 0.0000 -18421.8208 -18421.8208 0.0000 18217.5982 17999.8840 68605.4560 18217.5982 17999.8840
ENERGY: 1200 0.3149 0.3242 0.0311 0.0000 -22411.9147 3751.6956 0.0000 0.0000 0.0000 -18659.5488 0.0000 -18659.5488 -18659.5488 0.0000 19282.4789 19126.2939 68605.4560 19282.4789 19126.2939
ENERGY: 1600 0.3806 0.2804 0.0226 0.0000 -22649.1722 3862.9015 0.0000 0.0000 0.0000 -18785.5872 0.0000 -18785.5872 -18785.5872 0.0000 19807.0135 19639.3666 68605.4560 19807.0135 19639.3666
ENERGY: 2000 0.2728 0.2741 0.0321 0.0000 -22831.2189 3934.5705 0.0000 0.0000 0.0000 -18896.0694 0.0000 -18896.0694 -18896.0694 0.0000 20146.9790 19958.8265 68605.4560 20146.9790 19958.8265
TCL: Exiting due to exit command.
Info: NAMD 3.0.1 for Linux-x86_64-multicore
Info: Please visit http://www.ks.uiuc.edu/Research/namd/
Info: for updates, documentation, and support information.
Info: Please cite Phillips et al., J. Chem. Phys. 153:044130 (2020) doi:10.1063/5.0014475
Info: in all publications reporting results obtained with NAMD.
Info: Based on Charm++/Converse 80000 for multicore-linux-x86_64-gcc
Info: Built Mon Oct 14 11:11:06 CDT 2024 by dhardy on athine.ks.uiuc.edu
Info: 1 NAMD  3.0.1  Linux-x86_64-multicore  16    k065  z5358697
Info: Running on 16 processors, 1 nodes, 1 physical nodes.
Info: CPU topology information available.
Info: Charm++/Converse parallel runtime startup completed at 0.00942304 s
Info: 1043.46 MB of memory in use based on /proc/self/stat
Info: Configuration file is mobley_1674094_equil.namd
Info: Working in the current directory /srv/scratch/z5358697/prod_prep/1674094
TCL: Running 25000 steps at 30 kelvin.
TCL: Suspending until startup complete.
Info: SIMULATION PARAMETERS:
Info: TIMESTEP               2
Info: NUMBER OF STEPS        0
Info: STEPS PER CYCLE        10
Info: PERIODIC CELL BASIS 1  41.102 0 0
Info: PERIODIC CELL BASIS 2  0 40.343 0
Info: PERIODIC CELL BASIS 3  0 0 41.374
Info: PERIODIC CELL CENTER   0 0 0
Info: WRAPPING WATERS AROUND PERIODIC BOUNDARIES ON OUTPUT.
Info: WRAPPING ALL CLUSTERS AROUND PERIODIC BOUNDARIES ON OUTPUT.
Info: FIRST LDB TIMESTEP     50
Info: LAST LDB TIMESTEP     -1
Info: HOM BACKGROUND SCALING 1
Info: PME BACKGROUND SCALING 1
Info: MIN ATOMS PER PATCH    40
Info: EMPTY PATCH LOAD       40 ATOMS
Info: INITIAL TEMPERATURE    300
Info: CENTER OF MASS MOVING INITIALLY? NO
Info: DIELECTRIC             1
Info: EXCLUDE                SCALED ONE-FOUR
Info: 1-4 ELECTROSTATICS SCALED BY 0.833333
Info: MODIFIED 1-4 VDW PARAMETERS WILL BE USED
Info: DCD FILENAME           mobley_1674094_equil.dcd
Info: DCD FREQUENCY          5000
Info: DCD FIRST STEP         5000
Info: DCD FILE WILL CONTAIN UNIT CELL DATA
Info: XST FILENAME           mobley_1674094_equil.xst
Info: XST FREQUENCY          5000
Info: NO VELOCITY DCD OUTPUT
Info: NO FORCE DCD OUTPUT
Info: OUTPUT FILENAME        mobley_1674094_equil
Info: BINARY OUTPUT FILES WILL BE USED
Info: RESTART FILENAME       mobley_1674094_equil.restart
Info: RESTART FREQUENCY      5000
Info: BINARY RESTART FILES WILL BE USED
Info: CUTOFF                 9
Info: PAIRLIST DISTANCE      11
Info: PAIRLIST SHRINK RATE   0.01
Info: PAIRLIST GROW RATE     0.01
Info: PAIRLIST TRIGGER       0.3
Info: PAIRLISTS PER CYCLE    2
Info: PAIRLISTS ENABLED
Info: MARGIN                 8
Info: HYDROGEN GROUP CUTOFF  2.5
Info: PATCH DIMENSION        21.5
Info: ENERGY OUTPUT STEPS    5000
Info: ENERGY EVALUATION STEPS    5000
Info: OUTPUT ENERGY PRECISION 4
Info: CROSSTERM ENERGY INCLUDED IN DIHEDRAL
Info: TIMING OUTPUT STEPS    50000
Info: PRESSURE OUTPUT STEPS  5000
Info: LANGEVIN DYNAMICS ACTIVE
Info: LANGEVIN TEMPERATURE   30
Info: LANGEVIN USING BBK INTEGRATOR
Info: LANGEVIN DAMPING COEFFICIENT IS 1 INVERSE PS
Info: LANGEVIN DYNAMICS APPLIED TO HYDROGENS
Info: LANGEVIN PISTON PRESSURE CONTROL ACTIVE
Info:        TARGET PRESSURE IS 1.01325 BAR
Info:     OSCILLATION PERIOD IS 50 FS
Info:             DECAY TIME IS 25 FS
Info:     PISTON TEMPERATURE IS 300 K
Info:       PRESSURE CONTROL IS GROUP-BASED
Info:    INITIAL STRAIN RATE IS 0 0 0
Info:       CELL FLUCTUATION IS ISOTROPIC
Info: PARTICLE MESH EWALD (PME) ACTIVE
Info: PME TOLERANCE               1e-06
Info: PME EWALD COEFFICIENT       0.348832
Info: PME INTERPOLATION ORDER     4
Info: PME GRID DIMENSIONS         44 44 44
Info: PME MAXIMUM GRID SPACING    1
Info: FULL ELECTROSTATIC EVALUATION FREQUENCY      2
Info: USING VERLET I (r-RESPA) MTS SCHEME.
Info: C1 SPLITTING OF LONG RANGE ELECTROSTATICS
Info: PLACING ATOMS IN PATCHES BY HYDROGEN GROUPS
Info: RIGID BONDS TO HYDROGEN : ALL
Info:         ERROR TOLERANCE : 1e-08
Info:          MAX ITERATIONS : 100
Info: RIGID WATER USING SETTLE ALGORITHM
Info: RANDOM NUMBER SEED     1741317405
Info: USE HYDROGEN BONDS?    NO
Info: Using AMBER format force field!
Info: AMBER PARM FILE        mobley_1674094.prmtop
Info: COORDINATE PDB         mobley_1674094.pdb
Info: Exclusions will be read from PARM file!
Info: SCNB (VDW SCALING)     2
Info: USING ARITHMETIC MEAN TO COMBINE L-J SIGMA PARAMETERS
Info: BINARY COORDINATES     mobley_1674094_min.coor
Info: SUMMARY OF PARAMETERS:
Info: 7 BONDS
Info: 7 ANGLES
Info:   7 HARMONIC
Info:   0 COSINE-BASED
Info: 5 DIHEDRAL
Info: 0 IMPROPER
Info: 0 CROSSTERM
Info: 0 VDW
Info: 21 VDW_PAIRS
Info: 0 NBTHOLE_PAIRS
Info: STRUCTURE SUMMARY:
Info: 4993 ATOMS
Info: 4992 BONDS
Info: 26 ANGLES
Info: 31 DIHEDRALS
Info: 0 IMPROPERS
Info: 0 CROSSTERMS
Info: 5049 EXCLUSIONS
Info: 4987 RIGID BONDS
Info: 9992 DEGREES OF FREEDOM
Info: 1665 HYDROGEN GROUPS
Info: 4 ATOMS IN LARGEST HYDROGEN GROUP
Info: 1665 MIGRATION GROUPS
Info: 4 ATOMS IN LARGEST MIGRATION GROUP
Info: TOTAL MASS = 29970.7 amu
Info: TOTAL CHARGE = 0.000199989 e
Info: MASS DENSITY = 0.725433 g/cm^3
Info: ATOM DENSITY = 0.0727785 atoms/A^3
Info: ADDED 0 IMPLICIT EXCLUSIONS
Info: NONBONDED TABLE R-SQUARED SPACING: 0.0625
Info: NONBONDED TABLE SIZE: 705 POINTS
Info: REMOVING COM VELOCITY -0.0360986 -0.0356478 -0.0969566
TCL: Running for 25000 steps
ETITLE: TS BOND ANGLE DIHED IMPRP ELECT VDW BOUNDARY MISC KINETIC TOTAL TEMP POTENTIAL TOTAL3 TEMPAVG PRESSURE GPRESSURE VOLUME PRESSAVG GPRESSAVG
ENERGY: 0 0.2728 0.2741 0.0321 0.0000 -22831.2189 3934.5705 0.0000 0.0000 3002.0999 -15893.9695 302.3870 -18896.0694 -15893.3647 302.3870 245.2746 285.5889 68605.4560 245.2746 285.5889
ENERGY: 5000 0.3410 0.6414 0.2307 0.0000 -23868.8882 4070.7279 0.0000 0.0000 299.4320 -19497.5151 30.1603 -19796.9471 -19496.5016 47.9400 -452.7694 -390.1861 49137.9428 4.4823 4.5039
ENERGY: 10000 0.1575 0.9873 0.0708 0.0000 -24037.4157 4204.2744 0.0000 0.0000 301.2310 -19530.6947 30.3415 -19831.9257 -19530.1583 30.1140 199.9673 251.2700 48927.2009 1.3348 1.4537
ENERGY: 15000 0.2564 0.7344 0.2789 0.0000 -24003.9684 4164.7438 0.0000 0.0000 303.6506 -19534.3043 30.5853 -19837.9549 -19533.6567 30.0288 -53.0119 0.9179 49048.8909 2.9856 3.0951
ENERGY: 20000 0.2286 0.4870 0.1185 0.0000 -24028.4024 4158.7315 0.0000 0.0000 296.3083 -19572.5285 29.8457 -19868.8368 -19571.7901 30.2798 -109.2578 -63.3316 48879.4462 -0.7285 -0.6856
ENERGY: 25000 0.1926 1.2022 0.1897 0.0000 -23839.2731 3956.7719 0.0000 0.0000 302.5550 -19578.3617 30.4749 -19880.9167 -19577.3308 30.0769 -1111.2794 -1056.3827 49073.5616 4.5474 4.5483
TCL: Running 25000 steps at 60 kelvin.
TCL: Setting parameter langevinTemp to 60
TCL: Running for 25000 steps
ETITLE: TS BOND ANGLE DIHED IMPRP ELECT VDW BOUNDARY MISC KINETIC TOTAL TEMP POTENTIAL TOTAL3 TEMPAVG PRESSURE GPRESSURE VOLUME PRESSAVG GPRESSAVG
ENERGY: 25000 0.1926 1.2022 0.1897 0.0000 -23839.2731 3956.7719 0.0000 0.0000 302.4062 -19578.5104 30.4599 -19880.9167 -19577.8779 30.4599 -1113.3530 -1056.2869 49073.5616 -1113.3530 -1056.2869
ENERGY: 30000 0.3586 1.3862 0.0409 0.0000 -23561.8396 3941.2546 0.0000 0.0000 584.6026 -19034.1966 58.8842 -19618.7992 -19033.0080 57.2747 -632.2294 -576.4366 49079.1508 1.9609 1.9216
ENERGY: 35000 0.0938 2.3447 0.2786 0.0000 -23741.8790 4088.3435 0.0000 0.0000 613.9894 -19036.8290 61.8442 -19650.8184 -19035.2985 59.8945 142.9743 194.8305 48696.9821 -0.0080 -0.3740
ENERGY: 40000 0.4586 1.0747 0.1334 0.0000 -23668.2935 3997.8252 0.0000 0.0000 590.9839 -19077.8177 59.5269 -19668.8016 -19075.6243 60.6101 -370.0361 -315.5284 48813.1501 5.1065 5.4686
ENERGY: 45000 0.3580 1.4337 0.1501 0.0000 -23858.4329 4160.7771 0.0000 0.0000 604.2307 -19091.4834 60.8612 -19695.7140 -19090.2771 60.0755 341.6818 410.5237 48639.8509 0.5442 0.8538
ENERGY: 50000 0.2015 2.1145 0.3262 0.0000 -23842.1715 4122.6850 0.0000 0.0000 588.7972 -19128.0470 59.3067 -19716.8442 -19126.8224 59.9476 114.0411 159.1250 48563.3998 5.8383 5.9388
TCL: Running 25000 steps at 90 kelvin.
TCL: Setting parameter langevinTemp to 90
TCL: Running for 25000 steps
ETITLE: TS BOND ANGLE DIHED IMPRP ELECT VDW BOUNDARY MISC KINETIC TOTAL TEMP POTENTIAL TOTAL3 TEMPAVG PRESSURE GPRESSURE VOLUME PRESSAVG GPRESSAVG
ENERGY: 50000 0.2015 2.1145 0.3262 0.0000 -23842.1714 4122.6850 0.0000 0.0000 588.5017 -19128.3424 59.2769 -19716.8442 -19127.1124 59.2769 113.6991 158.8753 48563.3998 113.6991 158.8753
ENERGY: 55000 0.4133 2.7010 0.3127 0.0000 -23295.3835 3880.4989 0.0000 0.0000 923.1803 -18488.2773 92.9875 -19411.4575 -18486.1869 87.3261 -472.6461 -409.0952 49158.0197 3.4816 3.4499
ENERGY: 60000 0.4677 2.5261 0.1796 0.0000 -23406.3649 3940.5069 0.0000 0.0000 880.9764 -18581.7082 88.7365 -19462.6846 -18579.0296 90.4395 -283.2821 -195.8146 49018.0284 5.1912 4.8032
ENERGY: 65000 0.5359 2.8854 0.3624 0.0000 -23335.0311 3854.7401 0.0000 0.0000 883.9844 -18592.5228 89.0395 -19476.5072 -18589.5022 89.9781 -753.5241 -688.9186 49167.8374 0.0213 0.0779
ENERGY: 70000 0.3491 2.6760 0.1336 0.0000 -23646.5472 4143.5317 0.0000 0.0000 882.8137 -18617.0431 88.9215 -19499.8568 -18615.6637 90.1934 728.7339 768.9800 48616.8527 1.7502 1.7396
ENERGY: 75000 0.6944 1.7992 0.0958 0.0000 -23451.4131 3921.3440 0.0000 0.0000 903.2884 -18624.1914 90.9839 -19527.4798 -18622.2712 89.9317 -547.2018 -495.9526 49181.5924 4.3235 4.8598
TCL: Running 25000 steps at 120 kelvin.
TCL: Setting parameter langevinTemp to 120
TCL: Running for 25000 steps
ETITLE: TS BOND ANGLE DIHED IMPRP ELECT VDW BOUNDARY MISC KINETIC TOTAL TEMP POTENTIAL TOTAL3 TEMPAVG PRESSURE GPRESSURE VOLUME PRESSAVG GPRESSAVG
ENERGY: 75000 0.6944 1.7992 0.0958 0.0000 -23451.4131 3921.3440 0.0000 0.0000 902.8481 -18624.6317 90.9395 -19527.4798 -18622.7658 90.9395 -559.8291 -496.6466 49181.5924 -559.8291 -496.6466
ENERGY: 80000 0.4249 2.8004 0.7904 0.0000 -23039.1644 3822.3816 0.0000 0.0000 1187.4218 -18025.3454 119.6032 -19212.7672 -18021.2874 116.4357 -304.4096 -230.6488 49466.2524 0.9710 1.1274
ENERGY: 85000 0.2970 2.7633 0.5557 0.0000 -23072.6215 3869.8025 0.0000 0.0000 1177.2646 -18021.9383 118.5802 -19199.2029 -18019.2631 120.3985 -96.6437 -68.9890 49418.4367 2.7344 2.2878
ENERGY: 90000 0.5174 2.7571 0.1121 0.0000 -23303.6156 4066.8975 0.0000 0.0000 1209.6038 -18023.7278 121.8375 -19233.3315 -18020.4847 119.4045 810.8418 861.6574 49186.4290 3.6883 3.9346
ENERGY: 95000 0.1987 3.0182 0.2297 0.0000 -22959.1384 3723.7293 0.0000 0.0000 1199.6613 -18032.3012 120.8361 -19231.9625 -18030.0749 120.0433 -960.2360 -895.0868 49754.0734 3.1542 3.1540
ENERGY: 100000 0.8987 3.3065 0.1818 0.0000 -23216.0831 3924.4871 0.0000 0.0000 1190.2488 -18096.9602 119.8880 -19287.2090 -18093.2798 120.0407 -33.0362 41.7275 49422.7985 4.5201 4.5077
TCL: Running 25000 steps at 150 kelvin.
TCL: Setting parameter langevinTemp to 150
TCL: Running for 25000 steps
ETITLE: TS BOND ANGLE DIHED IMPRP ELECT VDW BOUNDARY MISC KINETIC TOTAL TEMP POTENTIAL TOTAL3 TEMPAVG PRESSURE GPRESSURE VOLUME PRESSAVG GPRESSAVG
ENERGY: 100000 0.8987 3.3065 0.1818 0.0000 -23216.0831 3924.4871 0.0000 0.0000 1189.6584 -18097.5506 119.8285 -19287.2090 -18094.9490 119.8285 -11.7770 42.1608 49422.7985 -11.7770 42.1608
ENERGY: 105000 0.5112 2.4819 1.1035 0.0000 -22706.7314 3840.7390 0.0000 0.0000 1485.9727 -17375.9231 149.6748 -18861.8959 -17371.3751 147.3865 361.5001 457.8573 49499.8658 2.1630 1.9779
ENERGY: 110000 0.5889 3.4512 1.0355 0.0000 -22787.7051 3811.3749 0.0000 0.0000 1491.2163 -17480.0383 150.2030 -18971.2546 -17473.9640 149.3147 236.5702 259.6687 49086.8210 -1.8551 -2.1801
ENERGY: 115000 0.6135 3.8821 0.3386 0.0000 -22959.5796 4005.2404 0.0000 0.0000 1510.9559 -17438.5490 152.1913 -18949.5050 -17436.4767 149.9069 1150.3558 1207.1200 49128.3726 3.5286 3.4253
ENERGY: 120000 0.7610 4.4249 0.0588 0.0000 -22778.4112 3805.4695 0.0000 0.0000 1491.6426 -17476.0543 150.2459 -18967.6969 -17472.7180 150.0291 71.9405 119.1706 49303.7243 -1.8419 -2.1850
ENERGY: 125000 0.7823 2.5575 0.1359 0.0000 -22787.8287 3788.6880 0.0000 0.0000 1488.2113 -17507.4538 149.9003 -18995.6651 -17504.2206 150.2058 86.0116 104.3571 49204.0704 9.9814 9.7328
TCL: Running 50000 steps at 180 kelvin.
TCL: Setting parameter langevinTemp to 180
TCL: Running for 50000 steps
ETITLE: TS BOND ANGLE DIHED IMPRP ELECT VDW BOUNDARY MISC KINETIC TOTAL TEMP POTENTIAL TOTAL3 TEMPAVG PRESSURE GPRESSURE VOLUME PRESSAVG GPRESSAVG
ENERGY: 125000 0.7823 2.5575 0.1359 0.0000 -22787.8287 3788.6880 0.0000 0.0000 1487.4451 -17508.2200 149.8231 -18995.6651 -17505.1256 149.8231 57.4686 103.9713 49204.0704 57.4686 103.9713
ENERGY: 135000 0.5559 4.0378 0.1126 0.0000 -22146.0722 3583.7224 0.0000 0.0000 1794.5837 -16763.0598 180.7597 -18557.6434 -16760.9723 179.5915 -87.7583 5.4683 49174.7284 -1.7991 -1.7233
ENERGY: 145000 1.4129 3.9332 1.5275 0.0000 -22131.5187 3598.0461 0.0000 0.0000 1810.5081 -16716.0908 182.3637 -18526.5990 -16711.6937 180.5138 170.6598 227.3508 49035.9097 0.9066 1.0001
ENERGY: 155000 0.6948 5.1051 0.2305 0.0000 -22272.2352 3697.1410 0.0000 0.0000 1793.4253 -16775.6385 180.6430 -18569.0638 -16771.8406 180.4736 465.4600 510.5763 49193.7917 0.5461 0.4692
ENERGY: 165000 0.7263 3.8046 0.2490 0.0000 -22163.5243 3618.3227 0.0000 0.0000 1782.9552 -16757.4665 179.5884 -18540.4216 -16754.9197 179.4537 322.0532 351.7941 48874.4561 -0.6115 0.1869
ENERGY: 175000 1.3646 6.0250 0.8507 0.0000 -22253.2234 3712.4192 0.0000 0.0000 1786.6763 -16745.8875 179.9633 -18532.5638 -16742.6485 181.4362 714.2697 809.5182 48620.9951 5.7018 5.7780
TCL: Running 50000 steps at 210 kelvin.
TCL: Setting parameter langevinTemp to 210
TCL: Running for 50000 steps
ETITLE: TS BOND ANGLE DIHED IMPRP ELECT VDW BOUNDARY MISC KINETIC TOTAL TEMP POTENTIAL TOTAL3 TEMPAVG PRESSURE GPRESSURE VOLUME PRESSAVG GPRESSAVG
ENERGY: 175000 1.3646 6.0250 0.8507 0.0000 -22253.2234 3712.4192 0.0000 0.0000 1785.7833 -16746.7806 179.8733 -18532.5638 -16743.4882 179.8733 741.3898 808.4235 48620.9951 741.3898 808.4235
ENERGY: 185000 1.6055 4.2737 0.4733 0.0000 -21098.3911 3212.5859 0.0000 0.0000 2118.2486 -15761.2040 213.3609 -17879.4526 -15755.0173 208.1650 -283.4679 -243.9177 49263.8786 3.5470 3.5820
ENERGY: 195000 2.2704 5.3715 0.7801 0.0000 -21245.5655 3388.9935 0.0000 0.0000 2090.2958 -15757.8542 210.5454 -17848.1500 -15750.7947 208.9732 775.6832 889.0658 48495.0552 3.7926 3.4237
ENERGY: 205000 0.5541 3.3714 1.0245 0.0000 -20862.5121 3075.0160 0.0000 0.0000 2051.0149 -15731.5311 206.5888 -17782.5460 -15726.9446 210.5261 -535.2865 -495.5437 48641.0862 4.2170 4.0842
ENERGY: 215000 0.8871 4.7993 0.4940 0.0000 -21179.2690 3333.5760 0.0000 0.0000 2129.7078 -15709.8048 214.5152 -17839.5126 -15705.1720 209.7379 592.8857 603.9085 48392.5053 5.7078 6.2064
ENERGY: 225000 0.1476 5.0964 0.4145 0.0000 -21150.2696 3295.7973 0.0000 0.0000 2141.1179 -15707.6959 215.6644 -17848.8137 -15703.4881 208.9639 315.5578 423.9457 48819.6438 3.4225 3.0012
TCL: Running 50000 steps at 240 kelvin.
TCL: Setting parameter langevinTemp to 240
TCL: Running for 50000 steps
ETITLE: TS BOND ANGLE DIHED IMPRP ELECT VDW BOUNDARY MISC KINETIC TOTAL TEMP POTENTIAL TOTAL3 TEMPAVG PRESSURE GPRESSURE VOLUME PRESSAVG GPRESSAVG
ENERGY: 225000 0.1476 5.0964 0.4145 0.0000 -21150.2696 3295.7973 0.0000 0.0000 2140.1067 -15708.7070 215.5626 -17848.8137 -15704.6472 215.5626 355.5633 424.0031 48819.6438 355.5633 424.0031
ENERGY: 235000 1.3195 8.4156 1.0013 0.0000 -19879.3054 2789.9678 0.0000 0.0000 2376.6180 -14701.9832 239.3852 -17078.6012 -14699.7450 240.4282 -629.1396 -511.4645 48793.6271 2.7390 2.9224
ENERGY: 245000 0.2496 6.6260 0.8061 0.0000 -20151.8191 3053.7530 0.0000 0.0000 2414.8485 -14675.5359 243.2360 -17090.3844 -14672.6376 241.4316 636.2260 765.1402 48952.0714 7.6440 7.5591
ENERGY: 255000 0.1500 5.0673 1.1751 0.0000 -20132.5650 3050.9255 0.0000 0.0000 2421.9164 -14653.3308 243.9479 -17075.2472 -14648.3027 238.8288 777.9192 797.8172 48944.5856 6.1067 6.3238
ENERGY: 265000 3.0031 6.9386 0.2089 0.0000 -20018.1559 2989.6465 0.0000 0.0000 2328.2847 -14690.0741 234.5168 -17018.3588 -14683.8774 239.8100 215.2360 318.0085 49673.5893 6.3393 6.5866
ENERGY: 275000 1.2250 5.3987 0.3289 0.0000 -19805.4890 2741.8795 0.0000 0.0000 2407.3141 -14649.3428 242.4771 -17056.6569 -14642.6154 240.1042 -933.7321 -855.0825 49808.9594 4.5748 4.6624
TCL: Running 50000 steps at 270 kelvin.
TCL: Setting parameter langevinTemp to 270
TCL: Running for 50000 steps
ETITLE: TS BOND ANGLE DIHED IMPRP ELECT VDW BOUNDARY MISC KINETIC TOTAL TEMP POTENTIAL TOTAL3 TEMPAVG PRESSURE GPRESSURE VOLUME PRESSAVG GPRESSAVG
ENERGY: 275000 1.2250 5.3987 0.3289 0.0000 -19805.4890 2741.8795 0.0000 0.0000 2406.1151 -14650.5417 242.3563 -17056.6569 -14646.1085 242.3563 -940.0650 -853.9954 49808.9594 -940.0650 -853.9954
ENERGY: 285000 5.7121 4.7437 1.7282 0.0000 -19362.2490 2920.4888 0.0000 0.0000 2673.9718 -13755.6043 269.3362 -16429.5761 -13750.5647 269.8021 1164.6743 1243.5698 49590.5152 5.8891 6.3854
ENERGY: 295000 0.8842 5.4528 1.6220 0.0000 -19127.2556 2704.2100 0.0000 0.0000 2664.7899 -13750.2966 268.4114 -16415.0865 -13745.8480 270.2179 86.8041 196.1623 50007.9362 4.5487 4.8393
ENERGY: 305000 0.4634 3.6471 0.3353 0.0000 -18886.6209 2643.6702 0.0000 0.0000 2692.0872 -13546.4178 271.1609 -16238.5050 -13541.5211 272.0702 -10.3160 55.8430 50485.8655 1.7616 1.6524
ENERGY: 315000 0.8909 5.0830 1.1081 0.0000 -19111.4360 2687.7171 0.0000 0.0000 2625.1719 -13791.4650 264.4209 -16416.6368 -13788.2656 270.3647 73.4368 87.7580 49932.0112 4.0115 4.1802
ENERGY: 325000 2.4372 4.7158 0.8983 0.0000 -18824.6739 2574.6935 0.0000 0.0000 2594.3589 -13647.5702 261.3172 -16241.9291 -13642.3688 271.3171 -400.9148 -299.5251 50521.3108 6.0845 6.0870
TCL: Running 1000000 steps at 300 kelvin.
TCL: Setting parameter langevinTemp to 300
TCL: Running for 1000000 steps
ETITLE: TS BOND ANGLE DIHED IMPRP ELECT VDW BOUNDARY MISC KINETIC TOTAL TEMP POTENTIAL TOTAL3 TEMPAVG PRESSURE GPRESSURE VOLUME PRESSAVG GPRESSAVG
ENERGY: 325000 2.4372 4.7158 0.8983 0.0000 -18824.6739 2574.6935 0.0000 0.0000 2593.0069 -13648.9223 261.1810 -16241.9291 -13644.1299 261.1810 -390.5577 -299.7237 50521.3108 -390.5577 -299.7237
ENERGY: 525000 2.4780 11.4103 0.3548 0.0000 -17973.5235 2293.8845 0.0000 0.0000 3034.3095 -12631.0864 305.6313 -15665.3959 -12623.8561 300.0375 -795.9176 -721.0363 51936.9639 2.8112 2.7147
ENERGY: 725000 3.0309 4.8671 0.2056 0.0000 -18125.1066 2445.9934 0.0000 0.0000 3005.1416 -12665.8680 302.6934 -15671.0096 -12659.4162 300.0450 188.4717 282.8636 51045.3546 5.8851 5.6015
ENERGY: 925000 0.3760 4.1672 0.9136 0.0000 -18016.4023 2343.8338 0.0000 0.0000 3047.8443 -12619.2674 306.9946 -15667.1117 -12614.0464 303.6610 -146.9131 -110.2761 50910.6881 0.2110 0.4171
ENERGY: 1125000 1.5531 6.7435 1.0236 0.0000 -18203.9669 2597.1954 0.0000 0.0000 2909.9445 -12687.5068 293.1046 -15597.4513 -12682.3231 301.8938 729.4734 798.8978 51627.1275 3.3111 3.8489
ENERGY: 1325000 0.6461 6.9631 0.4308 0.0000 -17830.4014 2248.5842 0.0000 0.0000 3043.9720 -12529.8052 306.6046 -15573.7772 -12526.0620 301.8851 -652.5878 -565.7539 51308.7120 1.0078 1.3325
TCL: Exiting due to exit command.
