Info: SIMULATION PARAMETERS:
Info: TIMESTEP               2
Info: NUMBER OF STEPS        0
Info: STEPS PER CYCLE        10
Info: PERIODIC CELL BASIS 1  37.968 0 0
Info: PERIODIC CELL BASIS 2  0 39.303 0
Info: PERIODIC CELL BASIS 3  0 0 39.527
Info: PERIODIC CELL CENTER   0 0 0
Info: WRAPPING WATERS AROUND PERIODIC BOUNDARIES ON OUTPUT.
Info: WRAPPING ALL CLUSTERS AROUND PERIODIC BOUNDARIES ON OUTPUT.
Info: FIRST LDB TIMESTEP     50
Info: LAST LDB TIMESTEP     -1
Info: HOM BACKGROUND SCALING 1
Info: PME BACKGROUND SCALING 1
Info: MIN ATOMS PER PATCH    40
Info: EMPTY PATCH LOAD       40 ATOMS
Info: INITIAL TEMPERATURE    300
Info: CENTER OF MASS MOVING INITIALLY? NO
Info: DIELECTRIC             1
Info: EXCLUDE                SCALED ONE-FOUR
Info: 1-4 ELECTROSTATICS SCALED BY 0.833333
Info: MODIFIED 1-4 VDW PARAMETERS WILL BE USED
Info: DCD FILENAME           mobley_8578590_min.dcd
Info: DCD FREQUENCY          5000
Info: DCD FIRST STEP         5000
Info: DCD FILE WILL CONTAIN UNIT CELL DATA
Info: XST FILENAME           mobley_8578590_min.xst
Info: XST FREQUENCY          5000
Info: NO VELOCITY DCD OUTPUT
Info: NO FORCE DCD OUTPUT
Info: OUTPUT FILENAME        mobley_8578590_min
Info: BINARY OUTPUT FILES WILL BE USED
Info: RESTART FILENAME       mobley_8578590_min.restart
Info: RESTART FREQUENCY      5000
Info: BINARY RESTART FILES WILL BE USED
Info: CUTOFF                 9
Info: PAIRLIST DISTANCE      11
Info: PAIRLIST SHRINK RATE   0.01
Info: PAIRLIST GROW RATE     0.01
Info: PAIRLIST TRIGGER       0.3
Info: PAIRLISTS PER CYCLE    2
Info: PAIRLISTS ENABLED
Info: MARGIN                 8
Info: HYDROGEN GROUP CUTOFF  2.5
Info: PATCH DIMENSION        21.5
Info: ENERGY OUTPUT STEPS    5000
Info: ENERGY EVALUATION STEPS    5000
Info: OUTPUT ENERGY PRECISION 4
Info: CROSSTERM ENERGY INCLUDED IN DIHEDRAL
Info: TIMING OUTPUT STEPS    50000
Info: PRESSURE OUTPUT STEPS  5000
Info: LANGEVIN DYNAMICS ACTIVE
Info: LANGEVIN TEMPERATURE   300
Info: LANGEVIN USING BBK INTEGRATOR
Info: LANGEVIN DAMPING COEFFICIENT IS 1 INVERSE PS
Info: LANGEVIN DYNAMICS APPLIED TO HYDROGENS
Info: LANGEVIN PISTON PRESSURE CONTROL ACTIVE
Info:        TARGET PRESSURE IS 1.01325 BAR
Info:     OSCILLATION PERIOD IS 50 FS
Info:             DECAY TIME IS 25 FS
Info:     PISTON TEMPERATURE IS 300 K
Info:       PRESSURE CONTROL IS GROUP-BASED
Info:    INITIAL STRAIN RATE IS 0 0 0
Info:       CELL FLUCTUATION IS ISOTROPIC
Info: PARTICLE MESH EWALD (PME) ACTIVE
Info: PME TOLERANCE               1e-06
Info: PME EWALD COEFFICIENT       0.348832
Info: PME INTERPOLATION ORDER     4
Info: PME GRID DIMENSIONS         40 40 40
Info: PME MAXIMUM GRID SPACING    1
Info: FULL ELECTROSTATIC EVALUATION FREQUENCY      2
Info: USING VERLET I (r-RESPA) MTS SCHEME.
Info: C1 SPLITTING OF LONG RANGE ELECTROSTATICS
Info: PLACING ATOMS IN PATCHES BY HYDROGEN GROUPS
Info: RIGID BONDS TO HYDROGEN : ALL
Info:         ERROR TOLERANCE : 1e-08
Info:          MAX ITERATIONS : 100
Info: RIGID WATER USING SETTLE ALGORITHM
Info: RANDOM NUMBER SEED     1741408635
Info: USE HYDROGEN BONDS?    NO
Info: Using AMBER format force field!
Info: AMBER PARM FILE        mobley_8578590.prmtop
Info: COORDINATE PDB         mobley_8578590.pdb
Info: Exclusions will be read from PARM file!
Info: SCNB (VDW SCALING)     2
Info: USING ARITHMETIC MEAN TO COMBINE L-J SIGMA PARAMETERS
Info: SUMMARY OF PARAMETERS:
Info: 5 BONDS
Info: 4 ANGLES
Info:   4 HARMONIC
Info:   0 COSINE-BASED
Info: 2 DIHEDRAL
Info: 0 IMPROPER
Info: 0 CROSSTERM
Info: 0 VDW
Info: 21 VDW_PAIRS
Info: 0 NBTHOLE_PAIRS
Info: STRUCTURE SUMMARY:
Info: 4210 ATOMS
Info: 4209 BONDS
Info: 15 ANGLES
Info: 15 DIHEDRALS
Info: 0 IMPROPERS
Info: 0 CROSSTERMS
Info: 4236 EXCLUSIONS
Info: 4206 RIGID BONDS
Info: 8424 DEGREES OF FREEDOM
Info: 1404 HYDROGEN GROUPS
Info: 4 ATOMS IN LARGEST HYDROGEN GROUP
Info: 1404 MIGRATION GROUPS
Info: 4 ATOMS IN LARGEST MIGRATION GROUP
Info: TOTAL MASS = 25300.5 amu
Info: TOTAL CHARGE = 0.00030005 e
Info: MASS DENSITY = 0.712281 g/cm^3
Info: ATOM DENSITY = 0.0713748 atoms/A^3
Info: ADDED 0 IMPLICIT EXCLUSIONS
Info: NONBONDED TABLE R-SQUARED SPACING: 0.0625
Info: NONBONDED TABLE SIZE: 705 POINTS
Info: REMOVING COM VELOCITY -0.144191 0.0869712 -0.217107
TCL: Minimizing for 2000 steps
ETITLE: TS BOND ANGLE DIHED IMPRP ELECT VDW BOUNDARY MISC KINETIC TOTAL TEMP POTENTIAL TOTAL3 TEMPAVG PRESSURE GPRESSURE VOLUME PRESSAVG GPRESSAVG
ENERGY: 0 0.5860 0.5343 0.2294 0.0000 -12970.2550 1492.3436 0.0000 0.0000 0.0000 -11476.5617 0.0000 -11476.5617 -11476.5617 0.0000 10862.1971 -15304.1741 58984.4149 10862.1971 -15304.1741
ENERGY: 400 1.5918 0.8770 0.0484 0.0000 -17786.6630 2665.9763 0.0000 0.0000 0.0000 -15118.1694 0.0000 -15118.1694 -15118.1694 0.0000 15959.2148 16063.4438 58984.4149 15959.2148 16063.4438
ENERGY: 800 0.7154 0.4039 0.0403 0.0000 -18700.1144 3082.5562 0.0000 0.0000 0.0000 -15616.3986 0.0000 -15616.3986 -15616.3986 0.0000 18233.9098 18341.6115 58984.4149 18233.9098 18341.6115
ENERGY: 1200 0.4167 0.6441 0.1122 0.0000 -19059.9921 3243.2402 0.0000 0.0000 0.0000 -15815.5790 0.0000 -15815.5790 -15815.5790 0.0000 19114.9001 19223.2639 58984.4149 19114.9001 19223.2639
ENERGY: 1600 0.3257 0.5075 0.0785 0.0000 -19313.9672 3369.1529 0.0000 0.0000 0.0000 -15943.9026 0.0000 -15943.9026 -15943.9026 0.0000 19816.4704 19900.9973 58984.4149 19816.4704 19900.9973
ENERGY: 2000 0.1279 0.3209 0.0430 0.0000 -19412.5531 3399.9073 0.0000 0.0000 0.0000 -16012.1540 0.0000 -16012.1540 -16012.1540 0.0000 20045.3897 20128.7276 58984.4149 20045.3897 20128.7276
TCL: Exiting due to exit command.
Info: NAMD 3.0.1 for Linux-x86_64-multicore
Info: Please visit http://www.ks.uiuc.edu/Research/namd/
Info: for updates, documentation, and support information.
Info: Please cite Phillips et al., J. Chem. Phys. 153:044130 (2020) doi:10.1063/5.0014475
Info: in all publications reporting results obtained with NAMD.
Info: Based on Charm++/Converse 80000 for multicore-linux-x86_64-gcc
Info: Built Mon Oct 14 11:11:06 CDT 2024 by dhardy on athine.ks.uiuc.edu
Info: 1 NAMD  3.0.1  Linux-x86_64-multicore  16    k026  z5358697
Info: Running on 16 processors, 1 nodes, 1 physical nodes.
Info: CPU topology information available.
Info: Charm++/Converse parallel runtime startup completed at 0.00777513 s
Info: 1043.46 MB of memory in use based on /proc/self/stat
Info: Configuration file is mobley_8578590_equil.namd
Info: Working in the current directory /srv/scratch/z5358697/prod_prep_11/8578590
TCL: Running 25000 steps at 30 kelvin.
TCL: Suspending until startup complete.
Info: SIMULATION PARAMETERS:
Info: TIMESTEP               2
Info: NUMBER OF STEPS        0
Info: STEPS PER CYCLE        10
Info: PERIODIC CELL BASIS 1  37.968 0 0
Info: PERIODIC CELL BASIS 2  0 39.303 0
Info: PERIODIC CELL BASIS 3  0 0 39.527
Info: PERIODIC CELL CENTER   0 0 0
Info: WRAPPING WATERS AROUND PERIODIC BOUNDARIES ON OUTPUT.
Info: WRAPPING ALL CLUSTERS AROUND PERIODIC BOUNDARIES ON OUTPUT.
Info: FIRST LDB TIMESTEP     50
Info: LAST LDB TIMESTEP     -1
Info: HOM BACKGROUND SCALING 1
Info: PME BACKGROUND SCALING 1
Info: MIN ATOMS PER PATCH    40
Info: EMPTY PATCH LOAD       40 ATOMS
Info: INITIAL TEMPERATURE    300
Info: CENTER OF MASS MOVING INITIALLY? NO
Info: DIELECTRIC             1
Info: EXCLUDE                SCALED ONE-FOUR
Info: 1-4 ELECTROSTATICS SCALED BY 0.833333
Info: MODIFIED 1-4 VDW PARAMETERS WILL BE USED
Info: DCD FILENAME           mobley_8578590_equil.dcd
Info: DCD FREQUENCY          5000
Info: DCD FIRST STEP         5000
Info: DCD FILE WILL CONTAIN UNIT CELL DATA
Info: XST FILENAME           mobley_8578590_equil.xst
Info: XST FREQUENCY          5000
Info: NO VELOCITY DCD OUTPUT
Info: NO FORCE DCD OUTPUT
Info: OUTPUT FILENAME        mobley_8578590_equil
Info: BINARY OUTPUT FILES WILL BE USED
Info: RESTART FILENAME       mobley_8578590_equil.restart
Info: RESTART FREQUENCY      5000
Info: BINARY RESTART FILES WILL BE USED
Info: CUTOFF                 9
Info: PAIRLIST DISTANCE      11
Info: PAIRLIST SHRINK RATE   0.01
Info: PAIRLIST GROW RATE     0.01
Info: PAIRLIST TRIGGER       0.3
Info: PAIRLISTS PER CYCLE    2
Info: PAIRLISTS ENABLED
Info: MARGIN                 8
Info: HYDROGEN GROUP CUTOFF  2.5
Info: PATCH DIMENSION        21.5
Info: ENERGY OUTPUT STEPS    5000
Info: ENERGY EVALUATION STEPS    5000
Info: OUTPUT ENERGY PRECISION 4
Info: CROSSTERM ENERGY INCLUDED IN DIHEDRAL
Info: TIMING OUTPUT STEPS    50000
Info: PRESSURE OUTPUT STEPS  5000
Info: LANGEVIN DYNAMICS ACTIVE
Info: LANGEVIN TEMPERATURE   30
Info: LANGEVIN USING BBK INTEGRATOR
Info: LANGEVIN DAMPING COEFFICIENT IS 1 INVERSE PS
Info: LANGEVIN DYNAMICS APPLIED TO HYDROGENS
Info: LANGEVIN PISTON PRESSURE CONTROL ACTIVE
Info:        TARGET PRESSURE IS 1.01325 BAR
Info:     OSCILLATION PERIOD IS 50 FS
Info:             DECAY TIME IS 25 FS
Info:     PISTON TEMPERATURE IS 300 K
Info:       PRESSURE CONTROL IS GROUP-BASED
Info:    INITIAL STRAIN RATE IS 0 0 0
Info:       CELL FLUCTUATION IS ISOTROPIC
Info: PARTICLE MESH EWALD (PME) ACTIVE
Info: PME TOLERANCE               1e-06
Info: PME EWALD COEFFICIENT       0.348832
Info: PME INTERPOLATION ORDER     4
Info: PME GRID DIMENSIONS         40 40 40
Info: PME MAXIMUM GRID SPACING    1
Info: FULL ELECTROSTATIC EVALUATION FREQUENCY      2
Info: USING VERLET I (r-RESPA) MTS SCHEME.
Info: C1 SPLITTING OF LONG RANGE ELECTROSTATICS
Info: PLACING ATOMS IN PATCHES BY HYDROGEN GROUPS
Info: RIGID BONDS TO HYDROGEN : ALL
Info:         ERROR TOLERANCE : 1e-08
Info:          MAX ITERATIONS : 100
Info: RIGID WATER USING SETTLE ALGORITHM
Info: RANDOM NUMBER SEED     1741408651
Info: USE HYDROGEN BONDS?    NO
Info: Using AMBER format force field!
Info: AMBER PARM FILE        mobley_8578590.prmtop
Info: COORDINATE PDB         mobley_8578590.pdb
Info: Exclusions will be read from PARM file!
Info: SCNB (VDW SCALING)     2
Info: USING ARITHMETIC MEAN TO COMBINE L-J SIGMA PARAMETERS
Info: BINARY COORDINATES     mobley_8578590_min.coor
Info: SUMMARY OF PARAMETERS:
Info: 5 BONDS
Info: 4 ANGLES
Info:   4 HARMONIC
Info:   0 COSINE-BASED
Info: 2 DIHEDRAL
Info: 0 IMPROPER
Info: 0 CROSSTERM
Info: 0 VDW
Info: 21 VDW_PAIRS
Info: 0 NBTHOLE_PAIRS
Info: STRUCTURE SUMMARY:
Info: 4210 ATOMS
Info: 4209 BONDS
Info: 15 ANGLES
Info: 15 DIHEDRALS
Info: 0 IMPROPERS
Info: 0 CROSSTERMS
Info: 4236 EXCLUSIONS
Info: 4206 RIGID BONDS
Info: 8424 DEGREES OF FREEDOM
Info: 1404 HYDROGEN GROUPS
Info: 4 ATOMS IN LARGEST HYDROGEN GROUP
Info: 1404 MIGRATION GROUPS
Info: 4 ATOMS IN LARGEST MIGRATION GROUP
Info: TOTAL MASS = 25300.5 amu
Info: TOTAL CHARGE = 0.00030005 e
Info: MASS DENSITY = 0.712281 g/cm^3
Info: ATOM DENSITY = 0.0713748 atoms/A^3
Info: ADDED 0 IMPLICIT EXCLUSIONS
Info: NONBONDED TABLE R-SQUARED SPACING: 0.0625
Info: NONBONDED TABLE SIZE: 705 POINTS
Info: REMOVING COM VELOCITY 0.00198002 0.0780281 0.0917838
TCL: Running for 25000 steps
ETITLE: TS BOND ANGLE DIHED IMPRP ELECT VDW BOUNDARY MISC KINETIC TOTAL TEMP POTENTIAL TOTAL3 TEMPAVG PRESSURE GPRESSURE VOLUME PRESSAVG GPRESSAVG
ENERGY: 0 0.1279 0.3209 0.0430 0.0000 -19412.5531 3399.9073 0.0000 0.0000 2579.2852 -13432.8688 308.1565 -16012.1540 -13432.3172 308.1565 386.4290 420.7361 58984.4149 386.4290 420.7361
ENERGY: 5000 0.0236 0.5825 0.1243 0.0000 -20152.3461 3360.6346 0.0000 0.0000 254.3575 -16536.6236 30.3890 -16790.9811 -16535.6361 48.3208 -1069.4521 -1003.6052 41194.9839 -1.6137 -1.7308
ENERGY: 10000 0.0082 0.6663 0.0714 0.0000 -20236.5978 3427.8375 0.0000 0.0000 246.9468 -16561.0676 29.5036 -16808.0144 -16560.1556 30.1011 -730.0103 -670.7843 41092.7876 3.7296 3.7692
ENERGY: 15000 0.2499 0.6913 0.5378 0.0000 -20410.4097 3591.7387 0.0000 0.0000 255.7054 -16561.4866 30.5501 -16817.1920 -16560.7674 30.0603 302.1373 358.8771 40835.1465 2.6404 2.6216
ENERGY: 20000 0.0480 0.6492 0.1896 0.0000 -20339.3665 3508.1117 0.0000 0.0000 251.9605 -16578.4076 30.1026 -16830.3681 -16577.7375 30.0446 -252.0490 -190.4117 40859.2971 -0.6255 -0.9164
ENERGY: 25000 0.2121 0.7817 0.0886 0.0000 -20523.1876 3698.1527 0.0000 0.0000 245.2120 -16578.7405 29.2964 -16823.9525 -16578.1447 30.0163 923.9499 984.9909 40567.6161 6.0368 6.2128
TCL: Running 25000 steps at 60 kelvin.
TCL: Setting parameter langevinTemp to 60
TCL: Running for 25000 steps
ETITLE: TS BOND ANGLE DIHED IMPRP ELECT VDW BOUNDARY MISC KINETIC TOTAL TEMP POTENTIAL TOTAL3 TEMPAVG PRESSURE GPRESSURE VOLUME PRESSAVG GPRESSAVG
ENERGY: 25000 0.2121 0.7817 0.0886 0.0000 -20523.1876 3698.1527 0.0000 0.0000 245.0843 -16578.8682 29.2811 -16823.9525 -16578.5083 29.2811 922.9270 984.9651 40567.6161 922.9270 984.9651
ENERGY: 30000 0.0572 1.7828 0.1360 0.0000 -19986.6548 3418.0673 0.0000 0.0000 505.5491 -16061.0625 60.3998 -16566.6116 -16059.9806 57.6215 -37.1429 21.0109 40963.4633 3.7742 3.7164
ENERGY: 35000 0.1484 1.2396 0.1498 0.0000 -20060.9057 3455.4943 0.0000 0.0000 502.0467 -16101.8269 59.9813 -16603.8737 -16100.7560 60.3751 133.1348 201.9868 40811.9925 -2.6938 -2.4572
ENERGY: 40000 0.0384 0.7329 0.1203 0.0000 -20036.3799 3410.4138 0.0000 0.0000 499.5906 -16125.4838 59.6879 -16625.0744 -16124.5494 60.6162 -212.6905 -156.5066 40933.2761 3.3429 3.4176
ENERGY: 45000 0.2765 1.2860 0.1616 0.0000 -20092.8815 3454.3672 0.0000 0.0000 519.3874 -16117.4028 62.0531 -16636.7902 -16115.7141 59.9407 72.1449 113.8929 40830.6882 2.9953 2.8569
ENERGY: 50000 0.0492 1.0785 0.1865 0.0000 -19909.5389 3265.9979 0.0000 0.0000 520.0470 -16122.1797 62.1319 -16642.2267 -16120.8439 60.0912 -1167.2704 -1102.0900 41250.9100 -0.6958 -0.6465
TCL: Running 25000 steps at 90 kelvin.
TCL: Setting parameter langevinTemp to 90
TCL: Running for 25000 steps
ETITLE: TS BOND ANGLE DIHED IMPRP ELECT VDW BOUNDARY MISC KINETIC TOTAL TEMP POTENTIAL TOTAL3 TEMPAVG PRESSURE GPRESSURE VOLUME PRESSAVG GPRESSAVG
ENERGY: 50000 0.0492 1.0785 0.1865 0.0000 -19909.5389 3265.9979 0.0000 0.0000 519.7923 -16122.4344 62.1015 -16642.2267 -16121.0549 62.1015 -1156.1375 -1102.5257 41250.9100 -1156.1375 -1102.5257
ENERGY: 55000 0.3061 1.9242 0.4745 0.0000 -19694.3331 3303.2878 0.0000 0.0000 769.3252 -15619.0153 91.9141 -16388.3404 -15616.6432 87.0426 -233.0261 -186.9092 41019.5999 5.8254 5.3367
ENERGY: 60000 0.1251 2.0617 0.3058 0.0000 -19903.8354 3438.1700 0.0000 0.0000 781.4970 -15681.6758 93.3683 -16463.1728 -15680.4105 91.3811 414.4818 469.8258 40666.1751 -1.1617 -1.2875
ENERGY: 65000 0.5036 2.3827 0.0760 0.0000 -19900.3613 3428.4657 0.0000 0.0000 734.4261 -15734.5071 87.7446 -16468.9333 -15732.3511 89.5275 335.6800 359.5310 40702.8248 3.4735 4.0314
ENERGY: 70000 0.0095 2.0043 0.8319 0.0000 -19875.2843 3378.6025 0.0000 0.0000 749.9855 -15743.8506 89.6035 -16493.8361 -15741.6521 89.6030 -31.7209 41.3430 40598.7844 -1.0207 -0.4847
ENERGY: 75000 0.5650 1.8765 0.3681 0.0000 -19886.2956 3399.2647 0.0000 0.0000 751.5877 -15732.6335 89.7949 -16484.2212 -15729.6988 89.9829 77.2117 150.3718 40774.5404 4.5716 4.5662
TCL: Running 25000 steps at 120 kelvin.
TCL: Setting parameter langevinTemp to 120
TCL: Running for 25000 steps
ETITLE: TS BOND ANGLE DIHED IMPRP ELECT VDW BOUNDARY MISC KINETIC TOTAL TEMP POTENTIAL TOTAL3 TEMPAVG PRESSURE GPRESSURE VOLUME PRESSAVG GPRESSAVG
ENERGY: 75000 0.5650 1.8765 0.3681 0.0000 -19886.2956 3399.2647 0.0000 0.0000 751.2174 -15733.0039 89.7507 -16484.2212 -15731.4267 89.7507 97.0984 150.1995 40774.5404 97.0984 150.1995
ENERGY: 80000 0.3475 2.9421 0.4490 0.0000 -19514.1611 3300.5026 0.0000 0.0000 1015.1530 -15194.7669 121.2840 -16209.9199 -15192.2244 116.9838 301.3252 329.6351 40901.6201 3.2050 3.2579
ENERGY: 85000 0.3794 2.2837 0.6431 0.0000 -19512.2364 3280.9031 0.0000 0.0000 1009.5703 -15218.4568 120.6170 -16228.0271 -15215.8309 120.9273 188.5379 267.4460 40724.8459 2.3208 2.3698
ENERGY: 90000 0.3008 1.7528 0.1631 0.0000 -19431.5203 3187.2497 0.0000 0.0000 1007.6814 -15234.3726 120.3913 -16242.0540 -15232.8336 120.4107 -325.5630 -264.0493 40684.3850 4.5344 4.5009
ENERGY: 95000 0.0305 1.0967 0.3339 0.0000 -19695.7131 3390.2696 0.0000 0.0000 1027.2958 -15276.6866 122.7348 -16303.9824 -15273.2107 120.1650 781.8679 816.0422 40342.2152 6.2968 6.5765
ENERGY: 100000 0.9269 1.0955 0.0621 0.0000 -19639.6161 3339.7074 0.0000 0.0000 988.4679 -15309.3565 118.0958 -16297.8243 -15306.5316 120.1072 413.5789 470.2583 40350.6258 -1.2236 -0.6027
TCL: Running 25000 steps at 150 kelvin.
TCL: Setting parameter langevinTemp to 150
TCL: Running for 25000 steps
ETITLE: TS BOND ANGLE DIHED IMPRP ELECT VDW BOUNDARY MISC KINETIC TOTAL TEMP POTENTIAL TOTAL3 TEMPAVG PRESSURE GPRESSURE VOLUME PRESSAVG GPRESSAVG
ENERGY: 100000 0.9269 1.0955 0.0621 0.0000 -19639.6161 3339.7074 0.0000 0.0000 987.9757 -15309.8486 118.0370 -16297.8243 -15308.1077 118.0370 413.9861 471.0426 40350.6258 413.9861 471.0426
ENERGY: 105000 0.1951 2.4063 0.2831 0.0000 -19009.8557 3040.0523 0.0000 0.0000 1227.4891 -14739.4299 146.6526 -15966.9190 -14735.7576 147.1355 -665.9623 -579.9673 41072.3119 4.2950 4.2213
ENERGY: 110000 0.5851 2.5145 0.2456 0.0000 -19014.6103 3018.1595 0.0000 0.0000 1243.6032 -14749.5025 148.5778 -15993.1056 -14746.2385 149.9505 -915.9371 -853.5005 41475.9697 6.2134 5.7350
ENERGY: 115000 0.3819 2.3398 0.0940 0.0000 -19251.5769 3241.3407 0.0000 0.0000 1238.3261 -14769.0943 147.9473 -16007.4204 -14764.7885 150.4065 484.0861 567.1708 40828.1243 8.1427 8.1959
ENERGY: 120000 1.4179 1.7302 0.3057 0.0000 -19222.5785 3185.7277 0.0000 0.0000 1265.8716 -14767.5254 151.2383 -16033.3970 -14762.0657 149.4521 252.0688 280.3938 40883.1196 4.7511 4.8482
ENERGY: 125000 0.2726 2.0503 0.5476 0.0000 -19294.1105 3233.1462 0.0000 0.0000 1278.3859 -14779.7078 152.7334 -16058.0937 -14777.6828 150.6657 465.0896 480.8652 40739.9755 -1.5415 -1.5293
TCL: Running 50000 steps at 180 kelvin.
TCL: Setting parameter langevinTemp to 180
TCL: Running for 50000 steps
ETITLE: TS BOND ANGLE DIHED IMPRP ELECT VDW BOUNDARY MISC KINETIC TOTAL TEMP POTENTIAL TOTAL3 TEMPAVG PRESSURE GPRESSURE VOLUME PRESSAVG GPRESSAVG
ENERGY: 125000 0.2726 2.0503 0.5476 0.0000 -19294.1105 3233.1462 0.0000 0.0000 1277.7508 -14780.3429 152.6575 -16058.0937 -14778.0093 152.6575 424.1136 480.5012 40739.9755 424.1136 480.5012
ENERGY: 135000 2.1162 1.5890 0.2090 0.0000 -18635.5148 2990.5542 0.0000 0.0000 1494.6421 -14146.4043 178.5703 -15641.0463 -14142.5023 179.9273 -221.1583 -145.1164 41571.3148 -0.4637 0.3434
ENERGY: 145000 0.5886 1.9908 0.1844 0.0000 -18941.2440 3274.5087 0.0000 0.0000 1535.5526 -14128.4188 183.4580 -15663.9715 -14124.5480 179.3612 1649.2093 1717.1368 40825.5321 -0.9642 -0.8573
ENERGY: 155000 0.8710 2.2674 0.3127 0.0000 -18689.5149 3011.2068 0.0000 0.0000 1499.6663 -14175.1907 179.1706 -15674.8570 -14171.4712 180.7304 32.8733 100.9167 41152.0909 0.9832 1.2513
ENERGY: 165000 0.6440 1.6891 0.1089 0.0000 -18737.0718 3045.6924 0.0000 0.0000 1485.8034 -14203.1339 177.5143 -15688.9373 -14199.7501 179.5919 388.9047 391.9261 40834.0105 1.9210 1.5678
ENERGY: 175000 0.7868 4.1978 0.3990 0.0000 -18861.0454 3154.0120 0.0000 0.0000 1520.4734 -14181.1765 181.6565 -15701.6499 -14179.1829 179.4700 813.8937 874.8546 40985.1273 4.1073 4.2165
TCL: Running 50000 steps at 210 kelvin.
TCL: Setting parameter langevinTemp to 210
TCL: Running for 50000 steps
ETITLE: TS BOND ANGLE DIHED IMPRP ELECT VDW BOUNDARY MISC KINETIC TOTAL TEMP POTENTIAL TOTAL3 TEMPAVG PRESSURE GPRESSURE VOLUME PRESSAVG GPRESSAVG
ENERGY: 175000 0.7868 4.1978 0.3990 0.0000 -18861.0454 3154.0120 0.0000 0.0000 1519.6707 -14181.9791 181.5606 -15701.6499 -14179.3903 181.5606 815.8711 874.2585 40985.1273 815.8711 874.2585
ENERGY: 185000 0.3065 1.7061 0.3067 0.0000 -17865.8669 2766.9677 0.0000 0.0000 1751.0750 -13345.5049 209.2073 -15096.5799 -13342.6530 208.4286 -39.0756 11.6785 41567.2513 -1.2989 -0.9532
ENERGY: 195000 0.3664 2.7780 0.0945 0.0000 -17694.5393 2658.3732 0.0000 0.0000 1775.7429 -13257.1844 212.1544 -15032.9272 -13254.7206 210.4781 -296.4554 -218.1794 41099.0016 1.8357 1.4097
ENERGY: 205000 0.9736 1.8277 0.9846 0.0000 -17897.1045 2728.8355 0.0000 0.0000 1721.9709 -13442.5122 205.7301 -15164.4830 -13439.2649 208.3161 -197.5116 -171.1438 41188.2252 0.0239 0.4686
ENERGY: 215000 0.2934 3.4039 0.0954 0.0000 -17894.4465 2824.8443 0.0000 0.0000 1736.3249 -13329.4846 207.4450 -15065.8095 -13326.1830 210.2708 402.7706 482.7225 41213.6461 -1.2203 -1.1988
ENERGY: 225000 0.1430 2.1503 0.3098 0.0000 -17686.2667 2696.6775 0.0000 0.0000 1692.5575 -13294.4287 202.2160 -14986.9862 -13290.4847 210.4167 77.0012 145.3322 41000.4512 0.4665 0.9616
TCL: Running 50000 steps at 240 kelvin.
TCL: Setting parameter langevinTemp to 240
TCL: Running for 50000 steps
ETITLE: TS BOND ANGLE DIHED IMPRP ELECT VDW BOUNDARY MISC KINETIC TOTAL TEMP POTENTIAL TOTAL3 TEMPAVG PRESSURE GPRESSURE VOLUME PRESSAVG GPRESSAVG
ENERGY: 225000 0.1430 2.1503 0.3098 0.0000 -17686.2667 2696.6775 0.0000 0.0000 1691.6955 -13295.2907 202.1130 -14986.9862 -13292.2508 202.1130 66.2642 145.7406 41000.4512 66.2642 145.7406
ENERGY: 235000 0.6468 8.5628 0.6396 0.0000 -16924.1725 2513.5715 0.0000 0.0000 2039.4240 -12361.3278 243.6574 -14400.7519 -12356.5162 239.3322 129.7754 249.3011 41858.4003 7.7341 6.7953
ENERGY: 245000 2.2147 2.2840 0.5417 0.0000 -16931.2150 2473.7335 0.0000 0.0000 1985.4905 -12466.9506 237.2137 -14452.4411 -12462.8435 240.0877 -89.8053 5.9722 41442.8077 2.4691 2.5141
ENERGY: 255000 0.7986 3.1813 1.3004 0.0000 -16905.2638 2502.7048 0.0000 0.0000 1958.0156 -12439.2630 233.9312 -14397.2786 -12435.7155 240.7924 342.4791 436.3786 41188.8875 -2.1494 -1.9316
ENERGY: 265000 0.1346 3.9893 0.2664 0.0000 -16689.0830 2359.5027 0.0000 0.0000 1995.4773 -12329.7127 238.4069 -14325.1900 -12325.3814 242.1433 -331.6841 -279.2131 41892.1258 4.5065 4.9515
ENERGY: 275000 1.2748 2.9125 0.3502 0.0000 -16977.8708 2563.7362 0.0000 0.0000 2010.9761 -12398.6210 240.2586 -14409.5971 -12394.9927 242.4695 718.2094 805.7783 41120.2657 0.4613 0.8400
TCL: Running 50000 steps at 270 kelvin.
TCL: Setting parameter langevinTemp to 270
TCL: Running for 50000 steps
ETITLE: TS BOND ANGLE DIHED IMPRP ELECT VDW BOUNDARY MISC KINETIC TOTAL TEMP POTENTIAL TOTAL3 TEMPAVG PRESSURE GPRESSURE VOLUME PRESSAVG GPRESSAVG
ENERGY: 275000 1.2748 2.9125 0.3502 0.0000 -16977.8708 2563.7362 0.0000 0.0000 2009.9386 -12399.6585 240.1346 -14409.5971 -12396.8023 240.1346 713.6264 805.6138 41120.2657 713.6264 805.6138
ENERGY: 285000 0.9570 2.0938 0.1842 0.0000 -16183.5319 2319.7020 0.0000 0.0000 2353.5239 -11507.0711 281.1840 -13860.5950 -11501.7103 269.6116 470.8609 599.5198 42095.4427 1.6323 1.6385
ENERGY: 295000 0.5378 3.1933 1.3509 0.0000 -16242.2783 2312.1343 0.0000 0.0000 2221.4198 -11703.6421 265.4011 -13925.0619 -11697.8926 268.8813 218.1480 243.8495 42216.8839 1.2892 1.8139
ENERGY: 305000 0.1325 4.1853 0.0883 0.0000 -15997.7532 2122.8929 0.0000 0.0000 2265.4124 -11605.0418 270.6570 -13870.4542 -11600.8417 270.0147 -733.8008 -651.5592 42322.5025 3.6488 4.5071
ENERGY: 315000 0.5920 4.7221 1.7777 0.0000 -15989.8691 2285.1064 0.0000 0.0000 2287.0825 -11410.5884 273.2460 -13697.6709 -11406.0997 269.7259 225.8054 305.7470 42827.9164 -0.3622 -0.1268
ENERGY: 325000 0.7556 6.6801 1.1969 0.0000 -16016.5007 2191.7571 0.0000 0.0000 2283.5738 -11532.5372 272.8268 -13816.1110 -11527.9881 269.9484 -202.9582 -109.2846 42353.7811 4.2155 4.0605
TCL: Running 1000000 steps at 300 kelvin.
TCL: Setting parameter langevinTemp to 300
TCL: Running for 1000000 steps
ETITLE: TS BOND ANGLE DIHED IMPRP ELECT VDW BOUNDARY MISC KINETIC TOTAL TEMP POTENTIAL TOTAL3 TEMPAVG PRESSURE GPRESSURE VOLUME PRESSAVG GPRESSAVG
ENERGY: 325000 0.7556 6.6801 1.1969 0.0000 -16016.5007 2191.7571 0.0000 0.0000 2282.4396 -11533.6713 272.6913 -13816.1110 -11529.9960 272.6913 -196.4450 -109.0388 42353.7811 -196.4450 -109.0388
ENERGY: 525000 1.3947 2.9481 1.1169 0.0000 -15262.3003 1965.1209 0.0000 0.0000 2512.4245 -10779.2952 300.1685 -13291.7197 -10774.7555 301.5668 -549.4164 -441.8522 43249.2044 1.8078 1.5705
ENERGY: 725000 1.1733 3.4609 0.3486 0.0000 -15379.9169 2167.6308 0.0000 0.0000 2481.2758 -10726.0275 296.4470 -13207.3032 -10719.6398 301.9932 519.6596 574.6897 43897.1971 4.7820 4.7143
ENERGY: 925000 0.5854 4.6648 2.2853 0.0000 -15279.6524 2034.8663 0.0000 0.0000 2502.8851 -10734.3656 299.0287 -13237.2507 -10728.1085 302.4264 -140.8981 -35.2173 43479.1837 2.6642 2.7381
ENERGY: 1125000 2.4428 3.6686 0.3207 0.0000 -15236.0876 2015.2421 0.0000 0.0000 2504.8728 -10709.5408 299.2662 -13214.4136 -10704.8176 299.6413 -316.9624 -224.0846 44068.2640 7.5054 7.6921
ENERGY: 1325000 1.0027 5.0738 0.4794 0.0000 -15413.2469 2136.8504 0.0000 0.0000 2468.9485 -10800.8922 294.9742 -13269.8407 -10796.0756 299.3366 208.8219 333.5662 43662.0356 8.3751 8.0321
TCL: Exiting due to exit command.
