Info: SIMULATION PARAMETERS:
Info: TIMESTEP               2
Info: NUMBER OF STEPS        0
Info: STEPS PER CYCLE        10
Info: PERIODIC CELL BASIS 1  36.005 0 0
Info: PERIODIC CELL BASIS 2  0 36.451 0
Info: PERIODIC CELL BASIS 3  0 0 34.229
Info: PERIODIC CELL CENTER   0 0 0
Info: WRAPPING WATERS AROUND PERIODIC BOUNDARIES ON OUTPUT.
Info: WRAPPING ALL CLUSTERS AROUND PERIODIC BOUNDARIES ON OUTPUT.
Info: FIRST LDB TIMESTEP     50
Info: LAST LDB TIMESTEP     -1
Info: HOM BACKGROUND SCALING 1
Info: PME BACKGROUND SCALING 1
Info: MIN ATOMS PER PATCH    40
Info: EMPTY PATCH LOAD       40 ATOMS
Info: INITIAL TEMPERATURE    300
Info: CENTER OF MASS MOVING INITIALLY? NO
Info: DIELECTRIC             1
Info: EXCLUDE                SCALED ONE-FOUR
Info: 1-4 ELECTROSTATICS SCALED BY 0.833333
Info: MODIFIED 1-4 VDW PARAMETERS WILL BE USED
Info: DCD FILENAME           mobley_6474572_equil.dcd
Info: DCD FREQUENCY          100000
Info: DCD FIRST STEP         100000
Info: DCD FILE WILL CONTAIN UNIT CELL DATA
Info: XST FILENAME           mobley_6474572_equil.xst
Info: XST FREQUENCY          100000
Info: NO VELOCITY DCD OUTPUT
Info: NO FORCE DCD OUTPUT
Info: OUTPUT FILENAME        mobley_6474572_equil
Info: BINARY OUTPUT FILES WILL BE USED
Info: RESTART FILENAME       mobley_6474572_equil.restart
Info: RESTART FREQUENCY      100000
Info: BINARY RESTART FILES WILL BE USED
Info: CUTOFF                 9
Info: PAIRLIST DISTANCE      11
Info: PAIRLIST SHRINK RATE   0.01
Info: PAIRLIST GROW RATE     0.01
Info: PAIRLIST TRIGGER       0.3
Info: PAIRLISTS PER CYCLE    2
Info: PAIRLISTS ENABLED
Info: MARGIN                 8
Info: HYDROGEN GROUP CUTOFF  2.5
Info: PATCH DIMENSION        21.5
Info: ENERGY OUTPUT STEPS    100000
Info: ENERGY EVALUATION STEPS    100000
Info: OUTPUT ENERGY PRECISION 4
Info: CROSSTERM ENERGY INCLUDED IN DIHEDRAL
Info: TIMING OUTPUT STEPS    1000000
Info: PRESSURE OUTPUT STEPS  100000
Info: FIXED ATOMS ACTIVE
Info: LANGEVIN DYNAMICS ACTIVE
Info: LANGEVIN TEMPERATURE   30
Info: LANGEVIN USING BBK INTEGRATOR
Info: LANGEVIN DAMPING COEFFICIENT IS 1 INVERSE PS
Info: LANGEVIN DYNAMICS APPLIED TO HYDROGENS
Info: LANGEVIN PISTON PRESSURE CONTROL ACTIVE
Info:        TARGET PRESSURE IS 1.01325 BAR
Info:     OSCILLATION PERIOD IS 50 FS
Info:             DECAY TIME IS 25 FS
Info:     PISTON TEMPERATURE IS 300 K
Info:       PRESSURE CONTROL IS GROUP-BASED
Info:    INITIAL STRAIN RATE IS 0 0 0
Info:       CELL FLUCTUATION IS ISOTROPIC
Info: PARTICLE MESH EWALD (PME) ACTIVE
Info: PME TOLERANCE               1e-06
Info: PME EWALD COEFFICIENT       0.348832
Info: PME INTERPOLATION ORDER     4
Info: PME GRID DIMENSIONS         40 40 36
Info: PME MAXIMUM GRID SPACING    1
Info: FULL ELECTROSTATIC EVALUATION FREQUENCY      2
Info: USING VERLET I (r-RESPA) MTS SCHEME.
Info: C1 SPLITTING OF LONG RANGE ELECTROSTATICS
Info: PLACING ATOMS IN PATCHES BY HYDROGEN GROUPS
Info: RIGID BONDS TO HYDROGEN : ALL
Info:         ERROR TOLERANCE : 1e-08
Info:          MAX ITERATIONS : 100
Info: RIGID WATER USING SETTLE ALGORITHM
Info: RANDOM NUMBER SEED     1742447103
Info: USE HYDROGEN BONDS?    NO
Info: Using AMBER format force field!
Info: AMBER PARM FILE        mobley_6474572.prmtop
Info: COORDINATE PDB         mobley_6474572.pdb
Info: Exclusions will be read from PARM file!
Info: SCNB (VDW SCALING)     2
Info: USING ARITHMETIC MEAN TO COMBINE L-J SIGMA PARAMETERS
Info: BINARY COORDINATES     mobley_6474572_min.coor
Info: SUMMARY OF PARAMETERS:
Info: 6 BONDS
Info: 5 ANGLES
Info:   5 HARMONIC
Info:   0 COSINE-BASED
Info: 1 DIHEDRAL
Info: 0 IMPROPER
Info: 0 CROSSTERM
Info: 0 VDW
Info: 21 VDW_PAIRS
Info: 0 NBTHOLE_PAIRS
Info: STRUCTURE SUMMARY:
Info: 2922 ATOMS
Info: 2921 BONDS
Info: 6 ANGLES
Info: 4 DIHEDRALS
Info: 0 IMPROPERS
Info: 0 CROSSTERMS
Info: 2931 EXCLUSIONS
Info: 6 FIXED ATOMS
Info: 2919 RIGID BONDS
Info: 3 RIGID BONDS BETWEEN FIXED ATOMS
Info: 5832 DEGREES OF FREEDOM
Info: 975 HYDROGEN GROUPS
Info: 3 ATOMS IN LARGEST HYDROGEN GROUP
Info: 975 MIGRATION GROUPS
Info: 3 ATOMS IN LARGEST MIGRATION GROUP
Info: 3 HYDROGEN GROUPS WITH ALL ATOMS FIXED
Info: TOTAL MASS = 17574 amu
Info: TOTAL CHARGE = 1.49012e-08 e
Info: MASS DENSITY = 0.649628 g/cm^3
Info: ATOM DENSITY = 0.065045 atoms/A^3
Info: ADDED 0 IMPLICIT EXCLUSIONS
Info: NONBONDED TABLE R-SQUARED SPACING: 0.0625
Info: NONBONDED TABLE SIZE: 705 POINTS
Info: REMOVING COM VELOCITY 0.013574 -0.134998 0.0098902
TCL: Running for 100000 steps
ETITLE: TS BOND ANGLE DIHED IMPRP ELECT VDW BOUNDARY MISC KINETIC TOTAL TEMP POTENTIAL TOTAL3 TEMPAVG PRESSURE GPRESSURE VOLUME PRESSAVG GPRESSAVG
ENERGY: 0 0.0000 0.0000 0.0000 0.0000 -13533.5012 2390.6655 0.0000 0.0000 1729.2255 -9413.6103 298.4176 -11142.8358 -9413.2803 298.4176 562.2301 597.9094 44922.7645 562.2301 597.9094
ENERGY: 100000 0.0000 0.0000 0.0000 0.0000 -13934.3610 2363.6859 0.0000 0.0000 166.1977 -11404.4774 28.6812 -11570.6751 -11404.1506 30.9071 -603.3746 -517.4924 29619.8014 4.3535 4.3432
TCL: Running 100000 steps at 60 kelvin.
TCL: Setting parameter langevinTemp to 60
TCL: Running for 100000 steps
ETITLE: TS BOND ANGLE DIHED IMPRP ELECT VDW BOUNDARY MISC KINETIC TOTAL TEMP POTENTIAL TOTAL3 TEMPAVG PRESSURE GPRESSURE VOLUME PRESSAVG GPRESSAVG
ENERGY: 100000 0.0000 0.0000 0.0000 0.0000 -13934.3610 2363.6859 0.0000 0.0000 166.1120 -11404.5631 28.6664 -11570.6751 -11404.1555 28.6664 -576.7056 -517.5795 29619.8014 -576.7056 -517.5795
ENERGY: 200000 0.0000 0.0000 0.0000 0.0000 -13945.5716 2398.9619 0.0000 0.0000 344.6736 -11201.9362 59.4814 -11546.6098 -11201.2934 59.9218 -221.5960 -154.9605 29177.5753 4.5788 4.5829
TCL: Running 100000 steps at 90 kelvin.
TCL: Setting parameter langevinTemp to 90
TCL: Running for 100000 steps
ETITLE: TS BOND ANGLE DIHED IMPRP ELECT VDW BOUNDARY MISC KINETIC TOTAL TEMP POTENTIAL TOTAL3 TEMPAVG PRESSURE GPRESSURE VOLUME PRESSAVG GPRESSAVG
ENERGY: 200000 0.0000 0.0000 0.0000 0.0000 -13945.5716 2398.9619 0.0000 0.0000 344.5042 -11202.1056 59.4521 -11546.6098 -11201.4699 59.4521 -212.8893 -155.1677 29177.5753 -212.8893 -155.1677
ENERGY: 300000 0.0000 0.0000 0.0000 0.0000 -13588.6169 2161.5845 0.0000 0.0000 533.1166 -10893.9157 92.0015 -11427.0324 -10891.7097 89.7754 -1664.6865 -1662.9007 29375.6448 2.8487 2.7112
TCL: Running 100000 steps at 120 kelvin.
TCL: Setting parameter langevinTemp to 120
TCL: Running for 100000 steps
ETITLE: TS BOND ANGLE DIHED IMPRP ELECT VDW BOUNDARY MISC KINETIC TOTAL TEMP POTENTIAL TOTAL3 TEMPAVG PRESSURE GPRESSURE VOLUME PRESSAVG GPRESSAVG
ENERGY: 300000 0.0000 0.0000 0.0000 0.0000 -13588.6169 2161.5845 0.0000 0.0000 532.8528 -10894.1796 91.9560 -11427.0324 -10892.8737 91.9560 -1713.9717 -1662.7476 29375.6448 -1713.9717 -1662.7476
ENERGY: 400000 0.0000 0.0000 0.0000 0.0000 -13428.3041 2104.6472 0.0000 0.0000 699.5832 -10624.0737 120.7292 -11323.6569 -10622.7909 119.9070 -1605.6094 -1577.8744 29144.6975 3.8578 3.9269
TCL: Running 100000 steps at 150 kelvin.
TCL: Setting parameter langevinTemp to 150
TCL: Running for 100000 steps
ETITLE: TS BOND ANGLE DIHED IMPRP ELECT VDW BOUNDARY MISC KINETIC TOTAL TEMP POTENTIAL TOTAL3 TEMPAVG PRESSURE GPRESSURE VOLUME PRESSAVG GPRESSAVG
ENERGY: 400000 0.0000 0.0000 0.0000 0.0000 -13428.3041 2104.6472 0.0000 0.0000 699.2384 -10624.4185 120.6697 -11323.6569 -10623.0013 120.6697 -1631.9461 -1577.5797 29144.6975 -1631.9461 -1577.5797
ENERGY: 500000 0.0000 0.0000 0.0000 0.0000 -13284.0414 2121.0836 0.0000 0.0000 891.7965 -10271.1613 153.9000 -11162.9578 -10268.4052 150.0118 -1009.3540 -956.1801 28919.5128 2.4488 2.4340
TCL: Running 100000 steps at 180 kelvin.
TCL: Setting parameter langevinTemp to 180
TCL: Running for 100000 steps
ETITLE: TS BOND ANGLE DIHED IMPRP ELECT VDW BOUNDARY MISC KINETIC TOTAL TEMP POTENTIAL TOTAL3 TEMPAVG PRESSURE GPRESSURE VOLUME PRESSAVG GPRESSAVG
ENERGY: 500000 0.0000 0.0000 0.0000 0.0000 -13284.0414 2121.0836 0.0000 0.0000 891.3535 -10271.6043 153.8236 -11162.9578 -10269.2646 153.8236 -1006.0294 -955.6853 28919.5128 -1006.0294 -955.6853
ENERGY: 600000 0.0000 0.0000 0.0000 0.0000 -13100.6910 2151.9255 0.0000 0.0000 1036.9267 -9911.8388 178.9456 -10948.7655 -9909.5967 179.5994 412.2807 488.0749 28264.3333 3.2378 3.1918
TCL: Running 100000 steps at 210 kelvin.
TCL: Setting parameter langevinTemp to 210
TCL: Running for 100000 steps
ETITLE: TS BOND ANGLE DIHED IMPRP ELECT VDW BOUNDARY MISC KINETIC TOTAL TEMP POTENTIAL TOTAL3 TEMPAVG PRESSURE GPRESSURE VOLUME PRESSAVG GPRESSAVG
ENERGY: 600000 0.0000 0.0000 0.0000 0.0000 -13100.6910 2151.9255 0.0000 0.0000 1036.4189 -9912.3466 178.8579 -10948.7655 -9910.5904 178.8579 421.3673 487.4060 28264.3333 421.3673 487.4060
ENERGY: 700000 0.0000 0.0000 0.0000 0.0000 -12418.8167 1918.8959 0.0000 0.0000 1212.5865 -9287.3344 209.2597 -10499.9208 -9284.1555 209.9171 -88.6129 4.8682 28652.3523 3.5839 3.6443
TCL: Running 100000 steps at 240 kelvin.
TCL: Setting parameter langevinTemp to 240
TCL: Running for 100000 steps
ETITLE: TS BOND ANGLE DIHED IMPRP ELECT VDW BOUNDARY MISC KINETIC TOTAL TEMP POTENTIAL TOTAL3 TEMPAVG PRESSURE GPRESSURE VOLUME PRESSAVG GPRESSAVG
ENERGY: 700000 0.0000 0.0000 0.0000 0.0000 -12418.8167 1918.8959 0.0000 0.0000 1211.9587 -9287.9621 209.1514 -10499.9208 -9286.3902 209.1514 -82.0965 4.4785 28652.3523 -82.0965 4.4785
ENERGY: 800000 0.0000 0.0000 0.0000 0.0000 -11763.9539 1726.8294 0.0000 0.0000 1396.1302 -8640.9942 240.9344 -10037.1244 -8638.2455 239.9543 52.1848 134.7805 28739.7263 3.4841 3.5521
TCL: Running 100000 steps at 270 kelvin.
TCL: Setting parameter langevinTemp to 270
TCL: Running for 100000 steps
ETITLE: TS BOND ANGLE DIHED IMPRP ELECT VDW BOUNDARY MISC KINETIC TOTAL TEMP POTENTIAL TOTAL3 TEMPAVG PRESSURE GPRESSURE VOLUME PRESSAVG GPRESSAVG
ENERGY: 800000 0.0000 0.0000 0.0000 0.0000 -11763.9539 1726.8294 0.0000 0.0000 1395.4476 -8641.6769 240.8166 -10037.1244 -8639.6244 240.8166 48.9117 134.3749 28739.7263 48.9117 134.3749
ENERGY: 900000 0.0000 0.0000 0.0000 0.0000 -11203.2720 1590.4734 0.0000 0.0000 1547.4242 -8065.3744 267.0436 -9612.7986 -8061.8354 269.9221 251.2235 366.8280 29282.9843 3.8494 3.8563
TCL: Running 1000000 steps at 300 kelvin.
TCL: Setting parameter langevinTemp to 300
TCL: Running for 1000000 steps
ETITLE: TS BOND ANGLE DIHED IMPRP ELECT VDW BOUNDARY MISC KINETIC TOTAL TEMP POTENTIAL TOTAL3 TEMPAVG PRESSURE GPRESSURE VOLUME PRESSAVG GPRESSAVG
ENERGY: 900000 0.0000 0.0000 0.0000 0.0000 -11203.2720 1590.4734 0.0000 0.0000 1546.6534 -8066.1452 266.9106 -9612.7986 -8063.9315 266.9106 301.3868 366.5706 29282.9843 301.3868 366.5706
ENERGY: 1100000 0.0000 0.0000 0.0000 0.0000 -10677.9485 1493.1883 0.0000 0.0000 1777.0020 -7407.7582 306.6626 -9184.7601 -7403.1047 300.8055 564.8803 673.3221 30188.6461 4.0443 4.1081
ENERGY: 1300000 0.0000 0.0000 0.0000 0.0000 -10581.0546 1367.1020 0.0000 0.0000 1723.6243 -7490.3284 297.4510 -9213.9527 -7484.8749 300.2225 -574.8718 -522.6064 30204.2349 3.4447 3.4189
ENERGY: 1500000 0.0000 0.0000 0.0000 0.0000 -10507.6837 1310.1155 0.0000 0.0000 1728.1877 -7469.3804 298.2386 -9197.5682 -7465.5236 300.6237 -756.8980 -689.3588 29819.3266 2.9090 2.7322
ENERGY: 1700000 0.0000 0.0000 0.0000 0.0000 -10535.4396 1353.2310 0.0000 0.0000 1749.4152 -7432.7934 301.9018 -9182.2086 -7428.1202 300.2552 -699.9190 -535.2114 30280.6911 2.0694 2.2146
ENERGY: 1900000 0.0000 0.0000 0.0000 0.0000 -10708.5469 1495.7283 0.0000 0.0000 1723.3766 -7489.4420 297.4083 -9212.8186 -7488.8589 299.6450 519.0925 573.6500 30084.7564 3.2249 3.1218
TCL: Exiting due to exit command.
