Info: SIMULATION PARAMETERS:
Info: TIMESTEP               2
Info: NUMBER OF STEPS        0
Info: STEPS PER CYCLE        10
Info: PERIODIC CELL BASIS 1  39.456 0 0
Info: PERIODIC CELL BASIS 2  0 41.891 0
Info: PERIODIC CELL BASIS 3  0 0 37.638
Info: PERIODIC CELL CENTER   0 0 0
Info: WRAPPING WATERS AROUND PERIODIC BOUNDARIES ON OUTPUT.
Info: WRAPPING ALL CLUSTERS AROUND PERIODIC BOUNDARIES ON OUTPUT.
Info: FIRST LDB TIMESTEP     50
Info: LAST LDB TIMESTEP     -1
Info: HOM BACKGROUND SCALING 1
Info: PME BACKGROUND SCALING 1
Info: MIN ATOMS PER PATCH    40
Info: EMPTY PATCH LOAD       40 ATOMS
Info: INITIAL TEMPERATURE    300
Info: CENTER OF MASS MOVING INITIALLY? NO
Info: DIELECTRIC             1
Info: EXCLUDE                SCALED ONE-FOUR
Info: 1-4 ELECTROSTATICS SCALED BY 0.833333
Info: MODIFIED 1-4 VDW PARAMETERS WILL BE USED
Info: DCD FILENAME           mobley_6497672_min.dcd
Info: DCD FREQUENCY          5000
Info: DCD FIRST STEP         5000
Info: DCD FILE WILL CONTAIN UNIT CELL DATA
Info: XST FILENAME           mobley_6497672_min.xst
Info: XST FREQUENCY          5000
Info: NO VELOCITY DCD OUTPUT
Info: NO FORCE DCD OUTPUT
Info: OUTPUT FILENAME        mobley_6497672_min
Info: BINARY OUTPUT FILES WILL BE USED
Info: RESTART FILENAME       mobley_6497672_min.restart
Info: RESTART FREQUENCY      5000
Info: BINARY RESTART FILES WILL BE USED
Info: CUTOFF                 9
Info: PAIRLIST DISTANCE      11
Info: PAIRLIST SHRINK RATE   0.01
Info: PAIRLIST GROW RATE     0.01
Info: PAIRLIST TRIGGER       0.3
Info: PAIRLISTS PER CYCLE    2
Info: PAIRLISTS ENABLED
Info: MARGIN                 8
Info: HYDROGEN GROUP CUTOFF  2.5
Info: PATCH DIMENSION        21.5
Info: ENERGY OUTPUT STEPS    5000
Info: ENERGY EVALUATION STEPS    5000
Info: OUTPUT ENERGY PRECISION 4
Info: CROSSTERM ENERGY INCLUDED IN DIHEDRAL
Info: TIMING OUTPUT STEPS    50000
Info: PRESSURE OUTPUT STEPS  5000
Info: LANGEVIN DYNAMICS ACTIVE
Info: LANGEVIN TEMPERATURE   300
Info: LANGEVIN USING BBK INTEGRATOR
Info: LANGEVIN DAMPING COEFFICIENT IS 1 INVERSE PS
Info: LANGEVIN DYNAMICS APPLIED TO HYDROGENS
Info: LANGEVIN PISTON PRESSURE CONTROL ACTIVE
Info:        TARGET PRESSURE IS 1.01325 BAR
Info:     OSCILLATION PERIOD IS 50 FS
Info:             DECAY TIME IS 25 FS
Info:     PISTON TEMPERATURE IS 300 K
Info:       PRESSURE CONTROL IS GROUP-BASED
Info:    INITIAL STRAIN RATE IS 0 0 0
Info:       CELL FLUCTUATION IS ISOTROPIC
Info: PARTICLE MESH EWALD (PME) ACTIVE
Info: PME TOLERANCE               1e-06
Info: PME EWALD COEFFICIENT       0.348832
Info: PME INTERPOLATION ORDER     4
Info: PME GRID DIMENSIONS         40 44 40
Info: PME MAXIMUM GRID SPACING    1
Info: FULL ELECTROSTATIC EVALUATION FREQUENCY      2
Info: USING VERLET I (r-RESPA) MTS SCHEME.
Info: C1 SPLITTING OF LONG RANGE ELECTROSTATICS
Info: PLACING ATOMS IN PATCHES BY HYDROGEN GROUPS
Info: RIGID BONDS TO HYDROGEN : ALL
Info:         ERROR TOLERANCE : 1e-08
Info:          MAX ITERATIONS : 100
Info: RIGID WATER USING SETTLE ALGORITHM
Info: RANDOM NUMBER SEED     1741405561
Info: USE HYDROGEN BONDS?    NO
Info: Using AMBER format force field!
Info: AMBER PARM FILE        mobley_6497672.prmtop
Info: COORDINATE PDB         mobley_6497672.pdb
Info: Exclusions will be read from PARM file!
Info: SCNB (VDW SCALING)     2
Info: USING ARITHMETIC MEAN TO COMBINE L-J SIGMA PARAMETERS
Info: SUMMARY OF PARAMETERS:
Info: 10 BONDS
Info: 11 ANGLES
Info:   11 HARMONIC
Info:   0 COSINE-BASED
Info: 4 DIHEDRAL
Info: 0 IMPROPER
Info: 0 CROSSTERM
Info: 0 VDW
Info: 36 VDW_PAIRS
Info: 0 NBTHOLE_PAIRS
Info: STRUCTURE SUMMARY:
Info: 4433 ATOMS
Info: 4432 BONDS
Info: 15 ANGLES
Info: 15 DIHEDRALS
Info: 0 IMPROPERS
Info: 0 CROSSTERMS
Info: 4461 EXCLUSIONS
Info: 4428 RIGID BONDS
Info: 8871 DEGREES OF FREEDOM
Info: 1479 HYDROGEN GROUPS
Info: 4 ATOMS IN LARGEST HYDROGEN GROUP
Info: 1479 MIGRATION GROUPS
Info: 4 ATOMS IN LARGEST MIGRATION GROUP
Info: TOTAL MASS = 26625.7 amu
Info: TOTAL CHARGE = 3.72529e-08 e
Info: MASS DENSITY = 0.710722 g/cm^3
Info: ATOM DENSITY = 0.0712586 atoms/A^3
Info: ADDED 0 IMPLICIT EXCLUSIONS
Info: NONBONDED TABLE R-SQUARED SPACING: 0.0625
Info: NONBONDED TABLE SIZE: 705 POINTS
Info: REMOVING COM VELOCITY 0.0567403 -0.0677476 -0.0414505
TCL: Minimizing for 2000 steps
ETITLE: TS BOND ANGLE DIHED IMPRP ELECT VDW BOUNDARY MISC KINETIC TOTAL TEMP POTENTIAL TOTAL3 TEMPAVG PRESSURE GPRESSURE VOLUME PRESSAVG GPRESSAVG
ENERGY: 0 0.1375 0.5328 0.0003 0.0000 -13562.1800 1488.2505 0.0000 0.0000 0.0000 -12073.2589 0.0000 -12073.2589 -12073.2589 0.0000 10521.6694 -15501.2278 62210.0171 10521.6694 -15501.2278
ENERGY: 400 3.5131 1.1750 0.1114 0.0000 -18076.1211 2467.1942 0.0000 0.0000 0.0000 -15604.1273 0.0000 -15604.1273 -15604.1273 0.0000 14308.5548 14448.7457 62210.0171 14308.5548 14448.7457
ENERGY: 800 0.6343 0.3751 0.0376 0.0000 -19272.4774 3055.5266 0.0000 0.0000 0.0000 -16215.9039 0.0000 -16215.9039 -16215.9039 0.0000 17263.8581 17354.7984 62210.0171 17263.8581 17354.7984
ENERGY: 1200 0.7391 0.2139 0.0549 0.0000 -19731.7006 3254.4573 0.0000 0.0000 0.0000 -16476.2355 0.0000 -16476.2355 -16476.2355 0.0000 18304.7774 18398.6113 62210.0171 18304.7774 18398.6113
ENERGY: 1600 2.0380 0.7779 0.2027 0.0000 -20072.2642 3436.7982 0.0000 0.0000 0.0000 -16632.4473 0.0000 -16632.4473 -16632.4473 0.0000 19301.9323 19385.2511 62210.0171 19301.9323 19385.2511
ENERGY: 2000 0.1054 0.1798 0.0205 0.0000 -20201.9913 3481.1720 0.0000 0.0000 0.0000 -16720.5137 0.0000 -16720.5137 -16720.5137 0.0000 19520.9643 19621.2183 62210.0171 19520.9643 19621.2183
TCL: Exiting due to exit command.
Info: NAMD 3.0.1 for Linux-x86_64-multicore
Info: Please visit http://www.ks.uiuc.edu/Research/namd/
Info: for updates, documentation, and support information.
Info: Please cite Phillips et al., J. Chem. Phys. 153:044130 (2020) doi:10.1063/5.0014475
Info: in all publications reporting results obtained with NAMD.
Info: Based on Charm++/Converse 80000 for multicore-linux-x86_64-gcc
Info: Built Mon Oct 14 11:11:06 CDT 2024 by dhardy on athine.ks.uiuc.edu
Info: 1 NAMD  3.0.1  Linux-x86_64-multicore  16    k015  z5358697
Info: Running on 16 processors, 1 nodes, 1 physical nodes.
Info: CPU topology information available.
Info: Charm++/Converse parallel runtime startup completed at 0.00954635 s
Info: 1043.45 MB of memory in use based on /proc/self/stat
Info: Configuration file is mobley_6497672_equil.namd
Info: Working in the current directory /srv/scratch/z5358697/prod_prep_8/6497672
TCL: Running 25000 steps at 30 kelvin.
TCL: Suspending until startup complete.
Info: SIMULATION PARAMETERS:
Info: TIMESTEP               2
Info: NUMBER OF STEPS        0
Info: STEPS PER CYCLE        10
Info: PERIODIC CELL BASIS 1  39.456 0 0
Info: PERIODIC CELL BASIS 2  0 41.891 0
Info: PERIODIC CELL BASIS 3  0 0 37.638
Info: PERIODIC CELL CENTER   0 0 0
Info: WRAPPING WATERS AROUND PERIODIC BOUNDARIES ON OUTPUT.
Info: WRAPPING ALL CLUSTERS AROUND PERIODIC BOUNDARIES ON OUTPUT.
Info: FIRST LDB TIMESTEP     50
Info: LAST LDB TIMESTEP     -1
Info: HOM BACKGROUND SCALING 1
Info: PME BACKGROUND SCALING 1
Info: MIN ATOMS PER PATCH    40
Info: EMPTY PATCH LOAD       40 ATOMS
Info: INITIAL TEMPERATURE    300
Info: CENTER OF MASS MOVING INITIALLY? NO
Info: DIELECTRIC             1
Info: EXCLUDE                SCALED ONE-FOUR
Info: 1-4 ELECTROSTATICS SCALED BY 0.833333
Info: MODIFIED 1-4 VDW PARAMETERS WILL BE USED
Info: DCD FILENAME           mobley_6497672_equil.dcd
Info: DCD FREQUENCY          5000
Info: DCD FIRST STEP         5000
Info: DCD FILE WILL CONTAIN UNIT CELL DATA
Info: XST FILENAME           mobley_6497672_equil.xst
Info: XST FREQUENCY          5000
Info: NO VELOCITY DCD OUTPUT
Info: NO FORCE DCD OUTPUT
Info: OUTPUT FILENAME        mobley_6497672_equil
Info: BINARY OUTPUT FILES WILL BE USED
Info: RESTART FILENAME       mobley_6497672_equil.restart
Info: RESTART FREQUENCY      5000
Info: BINARY RESTART FILES WILL BE USED
Info: CUTOFF                 9
Info: PAIRLIST DISTANCE      11
Info: PAIRLIST SHRINK RATE   0.01
Info: PAIRLIST GROW RATE     0.01
Info: PAIRLIST TRIGGER       0.3
Info: PAIRLISTS PER CYCLE    2
Info: PAIRLISTS ENABLED
Info: MARGIN                 8
Info: HYDROGEN GROUP CUTOFF  2.5
Info: PATCH DIMENSION        21.5
Info: ENERGY OUTPUT STEPS    5000
Info: ENERGY EVALUATION STEPS    5000
Info: OUTPUT ENERGY PRECISION 4
Info: CROSSTERM ENERGY INCLUDED IN DIHEDRAL
Info: TIMING OUTPUT STEPS    50000
Info: PRESSURE OUTPUT STEPS  5000
Info: LANGEVIN DYNAMICS ACTIVE
Info: LANGEVIN TEMPERATURE   30
Info: LANGEVIN USING BBK INTEGRATOR
Info: LANGEVIN DAMPING COEFFICIENT IS 1 INVERSE PS
Info: LANGEVIN DYNAMICS APPLIED TO HYDROGENS
Info: LANGEVIN PISTON PRESSURE CONTROL ACTIVE
Info:        TARGET PRESSURE IS 1.01325 BAR
Info:     OSCILLATION PERIOD IS 50 FS
Info:             DECAY TIME IS 25 FS
Info:     PISTON TEMPERATURE IS 300 K
Info:       PRESSURE CONTROL IS GROUP-BASED
Info:    INITIAL STRAIN RATE IS 0 0 0
Info:       CELL FLUCTUATION IS ISOTROPIC
Info: PARTICLE MESH EWALD (PME) ACTIVE
Info: PME TOLERANCE               1e-06
Info: PME EWALD COEFFICIENT       0.348832
Info: PME INTERPOLATION ORDER     4
Info: PME GRID DIMENSIONS         40 44 40
Info: PME MAXIMUM GRID SPACING    1
Info: FULL ELECTROSTATIC EVALUATION FREQUENCY      2
Info: USING VERLET I (r-RESPA) MTS SCHEME.
Info: C1 SPLITTING OF LONG RANGE ELECTROSTATICS
Info: PLACING ATOMS IN PATCHES BY HYDROGEN GROUPS
Info: RIGID BONDS TO HYDROGEN : ALL
Info:         ERROR TOLERANCE : 1e-08
Info:          MAX ITERATIONS : 100
Info: RIGID WATER USING SETTLE ALGORITHM
Info: RANDOM NUMBER SEED     1741405581
Info: USE HYDROGEN BONDS?    NO
Info: Using AMBER format force field!
Info: AMBER PARM FILE        mobley_6497672.prmtop
Info: COORDINATE PDB         mobley_6497672.pdb
Info: Exclusions will be read from PARM file!
Info: SCNB (VDW SCALING)     2
Info: USING ARITHMETIC MEAN TO COMBINE L-J SIGMA PARAMETERS
Info: BINARY COORDINATES     mobley_6497672_min.coor
Info: SUMMARY OF PARAMETERS:
Info: 10 BONDS
Info: 11 ANGLES
Info:   11 HARMONIC
Info:   0 COSINE-BASED
Info: 4 DIHEDRAL
Info: 0 IMPROPER
Info: 0 CROSSTERM
Info: 0 VDW
Info: 36 VDW_PAIRS
Info: 0 NBTHOLE_PAIRS
Info: STRUCTURE SUMMARY:
Info: 4433 ATOMS
Info: 4432 BONDS
Info: 15 ANGLES
Info: 15 DIHEDRALS
Info: 0 IMPROPERS
Info: 0 CROSSTERMS
Info: 4461 EXCLUSIONS
Info: 4428 RIGID BONDS
Info: 8871 DEGREES OF FREEDOM
Info: 1479 HYDROGEN GROUPS
Info: 4 ATOMS IN LARGEST HYDROGEN GROUP
Info: 1479 MIGRATION GROUPS
Info: 4 ATOMS IN LARGEST MIGRATION GROUP
Info: TOTAL MASS = 26625.7 amu
Info: TOTAL CHARGE = 3.72529e-08 e
Info: MASS DENSITY = 0.710722 g/cm^3
Info: ATOM DENSITY = 0.0712586 atoms/A^3
Info: ADDED 0 IMPLICIT EXCLUSIONS
Info: NONBONDED TABLE R-SQUARED SPACING: 0.0625
Info: NONBONDED TABLE SIZE: 705 POINTS
Info: REMOVING COM VELOCITY 0.176853 0.0941275 0.142438
TCL: Running for 25000 steps
ETITLE: TS BOND ANGLE DIHED IMPRP ELECT VDW BOUNDARY MISC KINETIC TOTAL TEMP POTENTIAL TOTAL3 TEMPAVG PRESSURE GPRESSURE VOLUME PRESSAVG GPRESSAVG
ENERGY: 0 0.1054 0.1798 0.0205 0.0000 -20201.9913 3481.1720 0.0000 0.0000 2595.0410 -14125.4727 294.4164 -16720.5137 -14124.9713 294.4164 98.7970 144.2137 62210.0171 98.7970 144.2137
ENERGY: 5000 0.3276 0.1072 0.2728 0.0000 -21251.4231 3716.7589 0.0000 0.0000 274.4302 -17259.5264 31.1351 -17533.9566 -17259.2030 47.6584 178.9926 240.9115 43813.8831 4.0844 3.9318
ENERGY: 10000 0.1330 0.8137 0.0646 0.0000 -21279.9930 3698.4458 0.0000 0.0000 269.8119 -17310.7240 30.6111 -17580.5359 -17310.0059 30.4279 -41.0372 17.5698 43788.9529 2.3199 2.4560
ENERGY: 15000 0.1781 0.7742 0.1499 0.0000 -21240.3019 3634.7906 0.0000 0.0000 264.2455 -17340.1637 29.9796 -17604.4092 -17339.4408 30.4539 -523.3849 -442.1780 43946.3277 4.0289 4.3197
ENERGY: 20000 0.1196 0.7185 0.2927 0.0000 -21375.7986 3758.4167 0.0000 0.0000 263.5852 -17352.6659 29.9047 -17616.2511 -17352.0987 29.7579 156.6869 245.4107 43663.6614 3.3754 3.2238
ENERGY: 25000 0.2269 0.5011 0.0682 0.0000 -21352.6474 3715.4349 0.0000 0.0000 258.2348 -17378.1815 29.2976 -17636.4163 -17377.6607 30.0934 -132.8992 -70.7198 43719.7964 3.4631 3.4912
TCL: Running 25000 steps at 60 kelvin.
TCL: Setting parameter langevinTemp to 60
TCL: Running for 25000 steps
ETITLE: TS BOND ANGLE DIHED IMPRP ELECT VDW BOUNDARY MISC KINETIC TOTAL TEMP POTENTIAL TOTAL3 TEMPAVG PRESSURE GPRESSURE VOLUME PRESSAVG GPRESSAVG
ENERGY: 25000 0.2269 0.5011 0.0682 0.0000 -21352.6474 3715.4349 0.0000 0.0000 258.0978 -17378.3185 29.2821 -17636.4163 -17377.7448 29.2821 -132.8979 -70.7292 43719.7964 -132.8979 -70.7292
ENERGY: 30000 0.2833 0.4602 0.4596 0.0000 -21055.9896 3675.3088 0.0000 0.0000 531.9883 -16847.4895 60.3559 -17379.4778 -16845.9106 56.4950 384.8141 427.5648 43723.0707 1.2675 1.1084
ENERGY: 35000 0.0720 0.5273 0.2765 0.0000 -21015.9496 3607.5540 0.0000 0.0000 534.3672 -16873.1526 60.6258 -17407.5198 -16872.1723 60.3120 -57.8784 7.8797 43614.0294 4.5057 4.4648
ENERGY: 40000 0.4211 0.9676 0.1062 0.0000 -21089.1358 3645.1070 0.0000 0.0000 529.5954 -16912.9385 60.0844 -17442.5338 -16911.6848 60.2813 41.6570 92.7246 43546.8147 4.0281 4.2547
ENERGY: 45000 0.1253 0.9436 0.0938 0.0000 -21048.5170 3572.5344 0.0000 0.0000 531.1778 -16943.6421 60.2640 -17474.8199 -16941.4746 60.4464 -424.8924 -366.3444 43556.3712 3.6293 3.3564
ENERGY: 50000 0.5906 0.7700 0.2562 0.0000 -21132.0750 3622.4366 0.0000 0.0000 528.2951 -16979.7265 59.9369 -17508.0216 -16978.2674 60.1909 -237.7872 -193.5331 43580.8450 3.7044 3.8394
TCL: Running 25000 steps at 90 kelvin.
TCL: Setting parameter langevinTemp to 90
TCL: Running for 25000 steps
ETITLE: TS BOND ANGLE DIHED IMPRP ELECT VDW BOUNDARY MISC KINETIC TOTAL TEMP POTENTIAL TOTAL3 TEMPAVG PRESSURE GPRESSURE VOLUME PRESSAVG GPRESSAVG
ENERGY: 50000 0.5906 0.7700 0.2562 0.0000 -21132.0750 3622.4366 0.0000 0.0000 528.0309 -16979.9907 59.9069 -17508.0216 -16978.8103 59.9069 -244.8093 -193.5136 43580.8450 -244.8093 -193.5136
ENERGY: 55000 0.1991 1.5747 0.2115 0.0000 -20883.1986 3648.1319 0.0000 0.0000 788.0453 -16445.0362 89.4065 -17233.0815 -16442.8124 86.6703 668.9194 699.1260 43530.0676 1.8027 2.1350
ENERGY: 60000 0.3136 1.7354 0.2827 0.0000 -20914.9129 3615.1063 0.0000 0.0000 813.5370 -16483.9378 92.2986 -17297.4748 -16482.4618 90.3226 271.4304 323.6798 43628.1251 4.0977 4.0719
ENERGY: 65000 0.8012 0.8472 0.5559 0.0000 -20905.1413 3599.6209 0.0000 0.0000 811.7971 -16491.5191 92.1012 -17303.3162 -16489.6200 90.2626 103.0917 183.4524 43662.3422 6.1922 6.0672
ENERGY: 70000 1.2011 1.1677 0.6098 0.0000 -20829.7010 3507.1562 0.0000 0.0000 794.4104 -16525.1558 90.1286 -17319.5662 -16524.0621 89.9147 -510.7093 -431.4140 43848.5657 5.5426 5.4794
ENERGY: 75000 0.1949 1.3074 0.4261 0.0000 -20846.6552 3505.2093 0.0000 0.0000 785.4295 -16554.0880 89.1097 -17339.5175 -16552.2001 90.6661 -392.4853 -337.1378 43626.9354 6.6429 7.1478
TCL: Running 25000 steps at 120 kelvin.
TCL: Setting parameter langevinTemp to 120
TCL: Running for 25000 steps
ETITLE: TS BOND ANGLE DIHED IMPRP ELECT VDW BOUNDARY MISC KINETIC TOTAL TEMP POTENTIAL TOTAL3 TEMPAVG PRESSURE GPRESSURE VOLUME PRESSAVG GPRESSAVG
ENERGY: 75000 0.1949 1.3074 0.4261 0.0000 -20846.6552 3505.2093 0.0000 0.0000 785.0266 -16554.4909 89.0640 -17339.5175 -16552.9588 89.0640 -394.1081 -336.8380 43626.9354 -394.1081 -336.8380
ENERGY: 80000 0.0379 1.0630 0.8736 0.0000 -20366.2213 3331.0783 0.0000 0.0000 1053.8822 -15979.2864 119.5666 -17033.1686 -15977.2869 116.9451 -640.3392 -599.3547 44057.6137 -3.7815 -3.8651
ENERGY: 85000 0.3389 0.7231 1.3403 0.0000 -20484.8382 3413.3057 0.0000 0.0000 1047.3914 -16021.7388 118.8302 -17069.1302 -16018.7268 119.7295 -291.8948 -217.9236 43766.6718 1.8285 1.8843
ENERGY: 90000 0.9697 0.7282 0.1950 0.0000 -20423.6427 3347.8637 0.0000 0.0000 1037.1991 -16036.6870 117.6738 -17073.8861 -16034.9290 120.2757 -672.2202 -591.1096 43745.1271 0.5236 0.5959
ENERGY: 95000 0.4683 2.5711 0.8224 0.0000 -20711.1527 3581.7453 0.0000 0.0000 1062.0095 -16063.5363 120.4887 -17125.5458 -16060.2572 119.8881 470.2827 529.5418 43664.8257 6.9666 7.0746
ENERGY: 100000 0.5512 1.6335 0.4565 0.0000 -20766.6818 3621.8084 0.0000 0.0000 1032.6369 -16109.5954 117.1562 -17142.2323 -16106.8996 119.6770 722.4114 794.8987 43510.4508 7.7406 7.7386
TCL: Running 25000 steps at 150 kelvin.
TCL: Setting parameter langevinTemp to 150
TCL: Running for 25000 steps
ETITLE: TS BOND ANGLE DIHED IMPRP ELECT VDW BOUNDARY MISC KINETIC TOTAL TEMP POTENTIAL TOTAL3 TEMPAVG PRESSURE GPRESSURE VOLUME PRESSAVG GPRESSAVG
ENERGY: 100000 0.5512 1.6335 0.4565 0.0000 -20766.6818 3621.8084 0.0000 0.0000 1032.1124 -16110.1199 117.0967 -17142.2323 -16108.1037 117.0967 742.6081 795.6414 43510.4508 742.6081 795.6414
ENERGY: 105000 1.1561 1.6592 0.8273 0.0000 -20082.1927 3310.4952 0.0000 0.0000 1350.9625 -15417.0925 153.2714 -16768.0549 -15413.9960 145.8302 -74.1695 5.2895 43916.8730 1.0175 1.1418
ENERGY: 110000 0.3656 3.3167 2.7152 0.0000 -20120.8944 3300.3327 0.0000 0.0000 1345.4549 -15468.7092 152.6465 -16814.1642 -15465.6224 150.7183 -266.0222 -168.9056 43815.5214 2.1386 2.0666
ENERGY: 115000 0.5192 1.4514 1.7316 0.0000 -20238.9311 3384.8229 0.0000 0.0000 1289.6181 -15560.7879 146.3117 -16850.4060 -15558.2461 150.6463 265.8315 376.4993 43300.7081 3.2972 3.3321
ENERGY: 120000 0.4212 1.5971 0.8908 0.0000 -20025.3533 3180.6766 0.0000 0.0000 1294.2881 -15547.4796 146.8415 -16841.7677 -15544.3597 150.8245 -887.2465 -826.8448 43630.8527 2.3804 2.1090
ENERGY: 125000 1.0189 1.3158 0.8671 0.0000 -20197.7810 3338.3272 0.0000 0.0000 1329.0395 -15527.2126 150.7841 -16856.2521 -15524.2239 150.2023 -51.6403 -0.6992 43483.2894 3.7950 3.4199
TCL: Running 50000 steps at 180 kelvin.
TCL: Setting parameter langevinTemp to 180
TCL: Running for 50000 steps
ETITLE: TS BOND ANGLE DIHED IMPRP ELECT VDW BOUNDARY MISC KINETIC TOTAL TEMP POTENTIAL TOTAL3 TEMPAVG PRESSURE GPRESSURE VOLUME PRESSAVG GPRESSAVG
ENERGY: 125000 1.0189 1.3158 0.8671 0.0000 -20197.7810 3338.3272 0.0000 0.0000 1328.3544 -15527.8977 150.7064 -16856.2521 -15525.4725 150.7064 -65.4738 -0.9765 43483.2894 -65.4738 -0.9765
ENERGY: 135000 0.4657 3.7951 0.7920 0.0000 -19747.2119 3209.4407 0.0000 0.0000 1588.8527 -14943.8656 180.2609 -16532.7184 -14942.0741 178.7323 -28.9077 87.1428 43646.1725 7.6919 7.3883
ENERGY: 145000 0.1375 1.2990 0.8619 0.0000 -19684.9130 3207.5345 0.0000 0.0000 1600.4692 -14874.6110 181.5788 -16475.0802 -14871.8462 180.5424 102.7440 180.6337 43705.0656 2.4528 2.4550
ENERGY: 155000 0.8593 3.0750 2.0184 0.0000 -19574.8884 3092.1855 0.0000 0.0000 1553.5859 -14923.1642 176.2597 -16476.7502 -14919.5493 180.5953 -564.8509 -528.1357 43691.9943 3.0887 2.9248
ENERGY: 165000 0.1935 1.8860 0.4772 0.0000 -19687.5920 3191.3767 0.0000 0.0000 1605.1178 -14888.5407 182.1062 -16493.6586 -14882.8657 181.7524 15.7053 67.0078 43582.3599 6.6236 6.4299
ENERGY: 175000 0.8978 1.4657 0.2301 0.0000 -19723.2388 3182.2052 0.0000 0.0000 1549.2406 -14989.1995 175.7667 -16538.4401 -14984.6013 180.3064 -110.0053 -10.3824 43406.8938 10.2075 9.7277
TCL: Running 50000 steps at 210 kelvin.
TCL: Setting parameter langevinTemp to 210
TCL: Running for 50000 steps
ETITLE: TS BOND ANGLE DIHED IMPRP ELECT VDW BOUNDARY MISC KINETIC TOTAL TEMP POTENTIAL TOTAL3 TEMPAVG PRESSURE GPRESSURE VOLUME PRESSAVG GPRESSAVG
ENERGY: 175000 0.8978 1.4657 0.2301 0.0000 -19723.2388 3182.2052 0.0000 0.0000 1548.4320 -14990.0081 175.6750 -16538.4401 -14986.8757 175.6750 -80.0431 -9.5998 43406.8938 -80.0431 -9.5998
ENERGY: 185000 0.3756 1.2259 0.5626 0.0000 -18698.9951 2886.3750 0.0000 0.0000 1883.3758 -13927.0801 213.6755 -15810.4560 -13921.7455 210.0443 -72.4836 19.6298 43739.9492 7.1288 7.0908
ENERGY: 195000 1.3357 3.5499 1.1005 0.0000 -18873.3418 2949.9625 0.0000 0.0000 1853.6830 -14063.7103 210.3068 -15917.3932 -14060.5405 209.5619 318.5971 393.0620 43417.1053 4.9055 5.6276
ENERGY: 205000 0.2665 1.3794 1.0306 0.0000 -18572.3341 2796.6901 0.0000 0.0000 1833.9213 -13939.0463 208.0647 -15772.9676 -13936.6027 210.7372 -62.7994 -1.4419 43147.9782 7.8636 6.9854
ENERGY: 215000 0.9005 5.2778 1.8774 0.0000 -18744.4718 2863.5405 0.0000 0.0000 1895.0174 -13977.8582 214.9963 -15872.8756 -13975.7691 210.1616 -108.6890 -28.2435 43192.7772 8.5691 8.7792
ENERGY: 225000 2.3590 0.8783 2.0486 0.0000 -18565.2711 2824.1363 0.0000 0.0000 1874.8036 -13861.0453 212.7030 -15735.8488 -13856.5757 209.8700 -82.7281 19.2759 43231.3272 2.1189 2.2999
TCL: Running 50000 steps at 240 kelvin.
TCL: Setting parameter langevinTemp to 240
TCL: Running for 50000 steps
ETITLE: TS BOND ANGLE DIHED IMPRP ELECT VDW BOUNDARY MISC KINETIC TOTAL TEMP POTENTIAL TOTAL3 TEMPAVG PRESSURE GPRESSURE VOLUME PRESSAVG GPRESSAVG
ENERGY: 225000 2.3590 0.8783 2.0486 0.0000 -18565.2711 2824.1363 0.0000 0.0000 1873.9055 -13861.9433 212.6011 -15735.8488 -13858.7175 212.6011 -65.4669 18.6513 43231.3272 -65.4669 18.6513
ENERGY: 235000 0.3984 1.8672 1.7310 0.0000 -17666.0825 2497.4946 0.0000 0.0000 2087.5411 -13077.0502 236.8388 -15164.5914 -13074.0503 239.6069 -603.6677 -505.5766 43863.1044 8.0348 8.0328
ENERGY: 245000 0.4488 0.7070 1.9458 0.0000 -17855.7787 2613.4215 0.0000 0.0000 2124.8488 -13114.4070 241.0715 -15239.2557 -13109.7509 239.5123 -153.1522 -45.3713 43746.5829 9.4668 9.0978
ENERGY: 255000 2.5784 3.9905 0.5809 0.0000 -17627.2831 2504.8738 0.0000 0.0000 2137.6331 -12977.6265 242.5219 -15115.2596 -12973.8643 240.8361 -596.2771 -497.8039 44080.1426 6.1511 5.5627
ENERGY: 265000 0.6785 1.8919 1.5348 0.0000 -17724.7130 2541.4665 0.0000 0.0000 2053.2537 -13125.8876 232.9488 -15179.1413 -13119.4485 241.5545 -446.1653 -392.8643 43977.1594 3.9425 4.1152
ENERGY: 275000 1.0985 2.2446 2.5495 0.0000 -17570.0447 2364.1951 0.0000 0.0000 2147.1710 -13052.7860 243.6040 -15199.9570 -13046.9669 240.8407 -1325.7169 -1264.7558 43852.8555 -0.6005 -0.4252
TCL: Running 50000 steps at 270 kelvin.
TCL: Setting parameter langevinTemp to 270
TCL: Running for 50000 steps
ETITLE: TS BOND ANGLE DIHED IMPRP ELECT VDW BOUNDARY MISC KINETIC TOTAL TEMP POTENTIAL TOTAL3 TEMPAVG PRESSURE GPRESSURE VOLUME PRESSAVG GPRESSAVG
ENERGY: 275000 1.0985 2.2446 2.5495 0.0000 -17570.0447 2364.1951 0.0000 0.0000 2146.1451 -13053.8119 243.4876 -15199.9570 -13048.8498 243.4876 -1351.7878 -1264.7397 43852.8555 -1351.7878 -1264.7397
ENERGY: 285000 1.0387 3.8109 2.2074 0.0000 -16878.4352 2295.2849 0.0000 0.0000 2349.4403 -12226.6531 266.5522 -14576.0934 -12221.0227 269.1938 -422.0235 -329.4940 44541.8486 3.8730 4.1111
ENERGY: 295000 0.5078 3.2370 0.8730 0.0000 -16763.6921 2270.0851 0.0000 0.0000 2388.9711 -12100.0181 271.0371 -14488.9892 -12093.9654 269.4571 -311.0103 -218.6147 44232.9952 0.3293 0.4670
ENERGY: 305000 0.5661 5.4141 0.6794 0.0000 -16803.4368 2266.0699 0.0000 0.0000 2343.2358 -12187.4716 265.8482 -14530.7074 -12179.6170 269.8990 -605.1696 -508.3849 44732.8833 3.8598 4.3424
ENERGY: 315000 0.4536 4.3251 0.7132 0.0000 -16894.5015 2373.8716 0.0000 0.0000 2330.4115 -12184.7265 264.3933 -14515.1381 -12179.2530 268.9957 -30.9507 93.1169 44637.8204 0.5340 1.4134
ENERGY: 325000 2.0496 1.7705 2.1812 0.0000 -16770.7176 2295.9659 0.0000 0.0000 2366.4111 -12102.3393 268.4776 -14468.7504 -12096.3072 271.9464 -392.4597 -358.4089 44986.0102 2.5603 3.2351
TCL: Running 1000000 steps at 300 kelvin.
TCL: Setting parameter langevinTemp to 300
TCL: Running for 1000000 steps
ETITLE: TS BOND ANGLE DIHED IMPRP ELECT VDW BOUNDARY MISC KINETIC TOTAL TEMP POTENTIAL TOTAL3 TEMPAVG PRESSURE GPRESSURE VOLUME PRESSAVG GPRESSAVG
ENERGY: 325000 2.0496 1.7705 2.1812 0.0000 -16770.7176 2295.9659 0.0000 0.0000 2365.2349 -12103.5155 268.3441 -14468.7504 -12099.9864 268.3441 -432.5175 -356.6577 44986.0102 -432.5175 -356.6577
ENERGY: 525000 0.7903 1.0033 2.8073 0.0000 -16184.9266 2139.1186 0.0000 0.0000 2657.6729 -11383.5342 301.5222 -14041.2071 -11378.3265 302.0675 -406.4910 -345.9044 46165.2590 2.2801 2.4443
ENERGY: 725000 1.3591 1.9836 1.4252 0.0000 -15988.9531 2100.9381 0.0000 0.0000 2660.4438 -11222.8033 301.8366 -13883.2470 -11219.0392 301.1566 -347.3062 -259.3054 46136.8062 5.8530 5.4354
ENERGY: 925000 0.4464 1.7298 1.9397 0.0000 -16077.3592 2179.2124 0.0000 0.0000 2652.5595 -11241.4714 300.9421 -13894.0310 -11234.1400 300.6572 110.2494 196.4011 45713.9215 2.1829 2.1610
ENERGY: 1125000 0.9590 3.9523 1.2147 0.0000 -15972.9055 2094.7262 0.0000 0.0000 2568.2484 -11303.8049 291.3767 -13872.0533 -11296.9495 299.2392 -529.1935 -355.1877 45967.9569 6.4592 5.9308
ENERGY: 1325000 0.7939 1.3448 0.4351 0.0000 -16094.0534 2150.3672 0.0000 0.0000 2617.5506 -11323.5618 296.9702 -13941.1123 -11320.7285 300.2233 -168.9765 -77.1854 45639.0557 3.1147 2.1335
TCL: Exiting due to exit command.
