Info: SIMULATION PARAMETERS:
Info: TIMESTEP               2
Info: NUMBER OF STEPS        0
Info: STEPS PER CYCLE        10
Info: PERIODIC CELL BASIS 1  75.6237 0 0
Info: PERIODIC CELL BASIS 2  0 75.6237 0
Info: PERIODIC CELL BASIS 3  0 0 75.6237
Info: PERIODIC CELL CENTER   36.584 36.584 36.584
Info: WRAPPING ALL CLUSTERS AROUND PERIODIC BOUNDARIES ON OUTPUT.
Info: FIRST LDB TIMESTEP     50
Info: LAST LDB TIMESTEP     -1
Info: HOM BACKGROUND SCALING 1
Info: PME BACKGROUND SCALING 1
Info: MIN ATOMS PER PATCH    40
Info: EMPTY PATCH LOAD       40 ATOMS
Info: VELOCITY FILE          mobley_4043951_equilibrated.vel
Info: CENTER OF MASS MOVING INITIALLY? NO
Info: DIELECTRIC             1
Info: EXCLUDE                SCALED ONE-FOUR
Info: 1-4 ELECTROSTATICS SCALED BY 1
Info: MODIFIED 1-4 VDW PARAMETERS WILL BE USED
Info: DCD FILENAME           mobley_4043951_backwards.dcd
Info: DCD FREQUENCY          500
Info: DCD FIRST STEP         500
Info: DCD FILE WILL CONTAIN UNIT CELL DATA
Info: NO EXTENDED SYSTEM TRAJECTORY OUTPUT
Info: NO VELOCITY DCD OUTPUT
Info: NO FORCE DCD OUTPUT
Info: OUTPUT FILENAME        mobley_4043951_backwards
Info: BINARY OUTPUT FILES WILL BE USED
Info: NO RESTART FILE
Info: SWITCHING ACTIVE
Info: SWITCHING ON           10
Info: SWITCHING OFF          12
Info: PAIRLIST DISTANCE      14
Info: PAIRLIST SHRINK RATE   0.01
Info: PAIRLIST GROW RATE     0.01
Info: PAIRLIST TRIGGER       0.3
Info: PAIRLISTS PER CYCLE    2
Info: PAIRLISTS ENABLED
Info: MARGIN                 8
Info: HYDROGEN GROUP CUTOFF  2.5
Info: PATCH DIMENSION        24.5
Info: ENERGY OUTPUT STEPS    500
Info: ENERGY EVALUATION STEPS    500
Info: OUTPUT ENERGY PRECISION 4
Info: CROSSTERM ENERGY INCLUDED IN DIHEDRAL
Info: TIMING OUTPUT STEPS    500
Info: PRESSURE OUTPUT STEPS  500
Info: ALCHEMICAL FEP ON
Info: FEP CURRENT LAMBDA VALUE     1
Info: FEP COMPARISON LAMBDA VALUE  0.9375
Info: FEP INTRA-ALCHEMICAL NON-BONDED INTERACTIONS WILL BE DECOUPLED
Info: FEP INTRA-ALCHEMICAL BONDED INTERACTIONS WILL BE RETAINED
Info: FEP VDW SHIFTING COEFFICIENT 6
Info: FEP ELEC. ACTIVE FOR ANNIHILATED PARTICLES BETWEEN LAMBDA = 0 AND LAMBDA = 0.5
Info: FEP ELEC. ACTIVE FOR EXNIHILATED PARTICLES BETWEEN LAMBDA = 0.5 AND LAMBDA = 1
Info: FEP VDW ACTIVE FOR ANNIHILATED PARTICLES BETWEEN LAMBDA = 0 AND LAMBDA = 1
Info: FEP VDW ACTIVE FOR EXNIHILATED PARTICLES BETWEEN LAMBDA = 0 AND LAMBDA = 1
Info: FEP BOND ACTIVE FOR ANNIHILATED PARTICLES BETWEEN LAMBDA = 1 AND LAMBDA = 1
Info: FEP BOND ACTIVE FOR EXNIHILATED PARTICLES BETWEEN LAMBDA = 0 AND LAMBDA = 0
Info: LANGEVIN DYNAMICS ACTIVE
Info: LANGEVIN TEMPERATURE   298
Info: LANGEVIN USING BBK INTEGRATOR
Info: LANGEVIN DAMPING COEFFICIENT IS 1 INVERSE PS
Info: LANGEVIN DYNAMICS NOT APPLIED TO HYDROGENS
Info: LANGEVIN PISTON PRESSURE CONTROL ACTIVE
Info:        TARGET PRESSURE IS 1.01325 BAR
Info:     OSCILLATION PERIOD IS 100 FS
Info:             DECAY TIME IS 50 FS
Info:     PISTON TEMPERATURE IS 298 K
Info:       PRESSURE CONTROL IS GROUP-BASED
Info:    INITIAL STRAIN RATE IS -9.69256e-05 -9.69256e-05 -9.69256e-05
Info:       CELL FLUCTUATION IS ISOTROPIC
Info: PARTICLE MESH EWALD (PME) ACTIVE
Info: PME TOLERANCE               1e-05
Info: PME EWALD COEFFICIENT       0.226635
Info: PME INTERPOLATION ORDER     4
Info: PME GRID DIMENSIONS         80 80 80
Info: PME MAXIMUM GRID SPACING    1
Info: FULL ELECTROSTATIC EVALUATION FREQUENCY      1
Info: USING VERLET I (r-RESPA) MTS SCHEME.
Info: C1 SPLITTING OF LONG RANGE ELECTROSTATICS
Info: PLACING ATOMS IN PATCHES BY HYDROGEN GROUPS
Info: RIGID BONDS TO HYDROGEN : ALL
Info:         ERROR TOLERANCE : 1e-08
Info:          MAX ITERATIONS : 100
Info: RIGID WATER USING SETTLE ALGORITHM
Info: RANDOM NUMBER SEED     1740642090
Info: USE HYDROGEN BONDS?    NO
Info: COORDINATE PDB         mobley_4043951.pdb
Info: STRUCTURE FILE         mobley_4043951.psf
Info: PARAMETER file: CHARMM format!
Info: PARAMETERS             ../common/par_all27_prot_lipid.inp
Info: PARAMETERS             mobley_4043951.prm
Info: USING ARITHMETIC MEAN TO COMBINE L-J SIGMA PARAMETERS
Info: BINARY COORDINATES     mobley_4043951_equilibrated.coor
Info: SUMMARY OF PARAMETERS:
Info: 185 BONDS
Info: 456 ANGLES
Info: 577 DIHEDRAL
Info: 48 IMPROPER
Info: 6 CROSSTERM
Info: 123 VDW
Info: 0 VDW_PAIRS
Info: 0 NBTHOLE_PAIRS
Info: To read alchdata from file: mobley_4043951.pdb
Info: To read alchflag data from column: 5
Info: STRUCTURE SUMMARY:
Info: 4662 ATOMS
Info: 3112 BONDS
Info: 1573 ANGLES
Info: 28 DIHEDRALS
Info: 2 IMPROPERS
Info: 0 CROSSTERMS
Info: 0 EXCLUSIONS
Info: 4657 RIGID BONDS
Info: ALCH: 0 ATOMS TO DISAPPEAR IN FINAL STATE
Info: ALCH: 15 ATOMS TO APPEAR IN FINAL STATE
Info: 9329 DEGREES OF FREEDOM
Info: 1554 HYDROGEN GROUPS
Info: 4 ATOMS IN LARGEST HYDROGEN GROUP
Info: 1554 MIGRATION GROUPS
Info: 4 ATOMS IN LARGEST MIGRATION GROUP
Info: TOTAL MASS = 27976 amu
Info: TOTAL CHARGE = 0 e
Info: MASS DENSITY = 0.107416 g/cm^3
Info: ATOM DENSITY = 0.0107795 atoms/A^3
Info: ADDED 4713 IMPLICIT EXCLUSIONS
Info: NONBONDED TABLE R-SQUARED SPACING: 0.0625
Info: NONBONDED TABLE SIZE: 769 POINTS
Info: REMOVING COM VELOCITY -0.0497987 -0.149393 0.223238
TCL: Running for 5000 steps
ETITLE: TS BOND ANGLE DIHED IMPRP ELECT VDW BOUNDARY MISC KINETIC TOTAL TEMP POTENTIAL TOTAL3 TEMPAVG PRESSURE GPRESSURE VOLUME PRESSAVG GPRESSAVG
ENERGY: 0 0.0405 6.4710 2.6106 0.0724 -16078.7785 1716.8116 0.0000 0.0000 2750.9831 -11601.7892 296.7859 -14352.7723 -11596.4386 296.7859 3.8159 3.8797 432488.1738 3.8159 3.8797
ENERGY: 1000 0.9696 4.0063 3.9107 0.0321 -16032.5891 1676.3094 0.0000 0.0000 2753.5114 -11593.8496 297.0586 -14347.3610 -11588.6212 297.0372 -3.6499 -3.8930 460594.0840 1.1902 1.1763
ENERGY: 2000 3.0887 6.1659 2.1894 0.0708 -16104.8388 1702.5708 0.0000 0.0000 2838.6445 -11552.1088 306.2431 -14390.7533 -11547.4956 296.5668 13.3668 13.0497 468685.5547 2.4770 2.4999
ENERGY: 3000 1.1417 5.5889 4.5325 0.0797 -15930.7196 1666.0251 0.0000 0.0000 2690.9195 -11562.4322 290.3060 -14253.3517 -11557.8852 297.9441 1.2297 0.7991 502160.2199 1.8152 1.8047
ENERGY: 4000 0.4362 6.9025 5.5840 0.1112 -16052.6482 1707.3126 0.0000 0.0000 2776.3902 -11555.9115 299.5269 -14332.3017 -11549.3715 299.0915 11.9383 10.8220 489762.7775 0.0302 0.0404
ENERGY: 5000 2.1426 5.5223 5.3487 0.0431 -16048.4210 1668.9100 0.0000 0.0000 2762.8634 -11603.5909 298.0676 -14366.4543 -11598.2261 297.5087 1.7330 0.6341 472745.7336 -0.1846 -0.1673
TCL: Running FEP window   2: Lambda1 0.9375 Lambda2 0.875  [dLambda -0.0625]
TCL: Setting parameter firsttimestep to 0
TCL: Setting parameter alchLambda to 0.9375
Info: NONBONDED TABLE R-SQUARED SPACING: 0.0625
Info: NONBONDED TABLE SIZE: 769 POINTS
TCL: Setting parameter alchLambda2 to 0.875
Info: NONBONDED TABLE R-SQUARED SPACING: 0.0625
Info: NONBONDED TABLE SIZE: 769 POINTS
TCL: Running for 5000 steps
ETITLE: TS BOND ANGLE DIHED IMPRP ELECT VDW BOUNDARY MISC KINETIC TOTAL TEMP POTENTIAL TOTAL3 TEMPAVG PRESSURE GPRESSURE VOLUME PRESSAVG GPRESSAVG
ENERGY: 0 2.1426 5.5223 5.3487 0.0431 -16048.6346 1668.4612 0.0000 0.0000 2762.7799 -11604.3368 298.0586 -14367.1167 -11598.6756 298.0586 -0.6647 -0.6320 472745.7336 -0.6647 -0.6320
ENERGY: 1000 3.6645 2.3984 5.7487 0.2907 -16155.2206 1729.9121 0.0000 0.0000 2800.5384 -11612.6678 302.1321 -14413.2061 -11607.5945 295.7751 -7.7897 -7.4843 487685.7993 -0.5704 -0.5614
ENERGY: 2000 3.2420 7.8858 4.0625 0.3371 -16031.8249 1741.3552 0.0000 0.0000 2706.8792 -11568.0630 292.0278 -14274.9422 -11563.0359 296.1459 38.0217 38.2402 493983.4384 -0.2342 -0.2439
ENERGY: 3000 0.6326 8.6630 2.5521 0.0097 -15848.5536 1634.5522 0.0000 0.0000 2759.8224 -11442.3217 297.7395 -14202.1440 -11438.3000 302.0718 -16.0846 -16.4665 511005.7803 0.6550 0.6247
ENERGY: 4000 0.7529 8.4845 1.9184 0.0299 -15884.5434 1619.6455 0.0000 0.0000 2776.5923 -11477.1199 299.5487 -14253.7122 -11472.7373 300.8817 -24.1442 -24.4077 528904.2540 2.9044 2.8873
ENERGY: 5000 0.8719 4.2544 5.3880 0.0885 -16007.0282 1771.9297 0.0000 0.0000 2794.8390 -11429.6567 301.5172 -14224.4956 -11423.3546 304.0123 59.7801 59.8774 526067.8487 1.6130 1.5740
TCL: Running FEP window   3: Lambda1 0.875  Lambda2 0.8125 [dLambda -0.0625]
TCL: Setting parameter firsttimestep to 0
TCL: Setting parameter alchLambda to 0.875
Info: NONBONDED TABLE R-SQUARED SPACING: 0.0625
Info: NONBONDED TABLE SIZE: 769 POINTS
TCL: Setting parameter alchLambda2 to 0.8125
Info: NONBONDED TABLE R-SQUARED SPACING: 0.0625
Info: NONBONDED TABLE SIZE: 769 POINTS
TCL: Running for 5000 steps
ETITLE: TS BOND ANGLE DIHED IMPRP ELECT VDW BOUNDARY MISC KINETIC TOTAL TEMP POTENTIAL TOTAL3 TEMPAVG PRESSURE GPRESSURE VOLUME PRESSAVG GPRESSAVG
ENERGY: 0 0.8719 4.2544 5.3880 0.0885 -16007.2291 1771.9793 0.0000 0.0000 2794.7524 -11429.8946 301.5079 -14224.6470 -11424.2628 301.5079 59.1549 59.2186 526067.8487 59.1549 59.2186
ENERGY: 1000 0.0570 4.4223 3.9331 0.0516 -16047.0231 1680.8820 0.0000 0.0000 2744.4259 -11613.2512 296.0784 -14357.6771 -11608.2122 296.1460 -24.9860 -23.8456 527766.3617 1.5309 1.5266
ENERGY: 2000 0.6655 8.1864 3.4230 0.1330 -15970.3407 1693.7496 0.0000 0.0000 2741.0540 -11523.1293 295.7147 -14264.1833 -11519.2594 299.1658 18.8226 18.0022 511091.1306 0.5008 0.4875
ENERGY: 3000 0.7458 7.2220 1.8319 0.0853 -15886.1135 1646.1049 0.0000 0.0000 2750.9682 -11479.1555 296.7843 -14230.1237 -11472.6609 299.6185 -15.3145 -14.6275 520132.8856 1.4413 1.4347
ENERGY: 4000 1.4054 6.4474 3.7028 0.0088 -15993.3146 1711.5665 0.0000 0.0000 2805.2022 -11464.9815 302.6352 -14270.1838 -11460.3116 299.8986 1.2222 1.3362 528223.6864 0.9946 0.9929
ENERGY: 5000 1.4308 6.2263 3.0155 0.1235 -16033.9711 1752.7141 0.0000 0.0000 2758.2798 -11512.1811 297.5731 -14270.4609 -11506.8912 299.6692 28.6956 28.3560 512228.5694 1.3535 1.3241
TCL: Running FEP window   4: Lambda1 0.8125 Lambda2 0.75   [dLambda -0.0625]
TCL: Setting parameter firsttimestep to 0
TCL: Setting parameter alchLambda to 0.8125
Info: NONBONDED TABLE R-SQUARED SPACING: 0.0625
Info: NONBONDED TABLE SIZE: 769 POINTS
TCL: Setting parameter alchLambda2 to 0.75
Info: NONBONDED TABLE R-SQUARED SPACING: 0.0625
Info: NONBONDED TABLE SIZE: 769 POINTS
TCL: Running for 5000 steps
ETITLE: TS BOND ANGLE DIHED IMPRP ELECT VDW BOUNDARY MISC KINETIC TOTAL TEMP POTENTIAL TOTAL3 TEMPAVG PRESSURE GPRESSURE VOLUME PRESSAVG GPRESSAVG
ENERGY: 0 1.4308 6.2263 3.0155 0.1235 -16034.2134 1752.1509 0.0000 0.0000 2758.1950 -11513.0713 297.5639 -14271.2664 -11507.7556 297.5639 27.0421 27.0113 512228.5694 27.0421 27.0113
ENERGY: 1000 0.3810 8.5101 1.8986 0.0338 -15905.5191 1639.8818 0.0000 0.0000 2774.0081 -11480.8057 299.2699 -14254.8138 -11476.4675 300.1620 -18.3978 -18.2652 519657.3040 0.5996 0.5802
ENERGY: 2000 1.2917 10.9341 2.4494 0.0857 -15916.9215 1630.0195 0.0000 0.0000 2725.5169 -11546.6243 294.0385 -14272.1411 -11541.8617 299.8546 -37.3117 -37.7674 526665.0950 2.2647 2.2255
ENERGY: 3000 2.0506 8.5177 2.7594 0.0511 -16042.2677 1745.7331 0.0000 0.0000 2765.3389 -11517.8170 298.3346 -14283.1558 -11511.9975 299.8741 35.1296 35.4524 540777.4144 1.2193 1.2415
ENERGY: 4000 0.6475 6.6737 2.1703 0.0339 -16079.2745 1638.7720 0.0000 0.0000 2735.7131 -11695.2639 295.1385 -14430.9770 -11689.5333 295.9291 -49.1112 -48.6234 528806.8917 1.0775 1.0774
ENERGY: 5000 1.5531 9.1824 2.3973 0.0246 -16200.8953 1736.4453 0.0000 0.0000 2750.2030 -11701.0896 296.7017 -14451.2926 -11695.9777 293.9172 7.0959 7.2521 514955.7067 0.0813 0.1039
TCL: Running FEP window   5: Lambda1 0.75   Lambda2 0.6875 [dLambda -0.0625]
TCL: Setting parameter firsttimestep to 0
TCL: Setting parameter alchLambda to 0.75
Info: NONBONDED TABLE R-SQUARED SPACING: 0.0625
Info: NONBONDED TABLE SIZE: 769 POINTS
TCL: Setting parameter alchLambda2 to 0.6875
Info: NONBONDED TABLE R-SQUARED SPACING: 0.0625
Info: NONBONDED TABLE SIZE: 769 POINTS
TCL: Running for 5000 steps
ETITLE: TS BOND ANGLE DIHED IMPRP ELECT VDW BOUNDARY MISC KINETIC TOTAL TEMP POTENTIAL TOTAL3 TEMPAVG PRESSURE GPRESSURE VOLUME PRESSAVG GPRESSAVG
ENERGY: 0 1.5531 9.1824 2.3973 0.0246 -16201.1851 1736.5375 0.0000 0.0000 2750.1178 -11701.3724 296.6925 -14451.4901 -11696.3806 296.6925 6.5457 6.6647 514955.7067 6.5457 6.6647
ENERGY: 1000 0.2468 6.2444 4.4469 0.0382 -16195.9906 1779.9543 0.0000 0.0000 2709.7039 -11695.3562 292.3325 -14405.0601 -11689.8615 294.5791 47.4053 48.1362 515572.5503 2.4508 2.4758
ENERGY: 2000 0.7339 8.5873 3.9534 0.0396 -16115.1176 1694.6517 0.0000 0.0000 2745.6069 -11661.5447 296.2059 -14407.1517 -11655.7048 296.2316 -19.2802 -19.1986 516557.2052 1.2237 1.2152
ENERGY: 3000 0.7538 4.4351 2.1489 0.0294 -16082.3667 1665.2528 0.0000 0.0000 2675.6921 -11734.0547 288.6632 -14409.7468 -11726.9690 292.4155 -13.5098 -14.6623 520357.9177 1.0764 1.0644
ENERGY: 4000 0.3880 5.8252 2.8131 0.1106 -16094.9937 1740.4227 0.0000 0.0000 2726.3922 -11619.0420 294.1329 -14345.4341 -11613.3644 296.0415 19.6230 19.7294 538021.6975 1.2447 1.2593
ENERGY: 5000 0.3952 6.7690 2.2900 0.0284 -15965.8708 1642.4810 0.0000 0.0000 2726.2134 -11587.6938 294.1136 -14313.9072 -11582.3322 296.0352 -26.7575 -26.8632 524221.1063 0.8409 0.8420
TCL: Running FEP window   6: Lambda1 0.6875 Lambda2 0.625  [dLambda -0.0625]
TCL: Setting parameter firsttimestep to 0
TCL: Setting parameter alchLambda to 0.6875
Info: NONBONDED TABLE R-SQUARED SPACING: 0.0625
Info: NONBONDED TABLE SIZE: 769 POINTS
TCL: Setting parameter alchLambda2 to 0.625
Info: NONBONDED TABLE R-SQUARED SPACING: 0.0625
Info: NONBONDED TABLE SIZE: 769 POINTS
TCL: Running for 5000 steps
ETITLE: TS BOND ANGLE DIHED IMPRP ELECT VDW BOUNDARY MISC KINETIC TOTAL TEMP POTENTIAL TOTAL3 TEMPAVG PRESSURE GPRESSURE VOLUME PRESSAVG GPRESSAVG
ENERGY: 0 0.3952 6.7690 2.2900 0.0284 -15966.2804 1642.8809 0.0000 0.0000 2726.1271 -11587.7897 294.1043 -14313.9168 -11582.4282 294.1043 -27.3176 -27.2714 524221.1063 -27.3176 -27.2714
ENERGY: 1000 0.0880 4.7417 3.2328 0.1061 -16099.9679 1779.7105 0.0000 0.0000 2738.4183 -11573.6705 295.4303 -14312.0888 -11567.9625 297.5055 30.0536 31.5329 513486.1552 1.9748 1.9323
ENERGY: 2000 1.2621 6.5198 3.1508 0.0024 -16031.1088 1667.9588 0.0000 0.0000 2697.2990 -11654.9158 290.9942 -14352.2148 -11651.0415 294.4233 8.9867 8.7462 506478.5806 1.2561 1.2450
ENERGY: 3000 0.4419 5.7604 4.6045 0.1127 -15978.6311 1662.6033 0.0000 0.0000 2734.9866 -11570.1219 295.0601 -14305.1084 -11563.6314 295.3199 -13.9606 -14.1200 500616.3360 1.4742 1.4625
ENERGY: 4000 0.8272 7.0226 2.4944 0.0152 -16067.2683 1715.6641 0.0000 0.0000 2715.4247 -11625.8202 292.9497 -14341.2449 -11620.2445 297.3897 27.4014 27.5896 495465.1261 0.5629 0.5894
ENERGY: 5000 0.2968 2.5417 1.9109 0.0344 -16059.4942 1698.1889 0.0000 0.0000 2796.7578 -11559.7638 301.7242 -14356.5215 -11554.8501 296.9660 -12.8897 -12.2155 494755.7012 3.1961 3.1910
TCL: Running FEP window   7: Lambda1 0.625  Lambda2 0.5625 [dLambda -0.0625]
TCL: Setting parameter firsttimestep to 0
TCL: Setting parameter alchLambda to 0.625
Info: NONBONDED TABLE R-SQUARED SPACING: 0.0625
Info: NONBONDED TABLE SIZE: 769 POINTS
TCL: Setting parameter alchLambda2 to 0.5625
Info: NONBONDED TABLE R-SQUARED SPACING: 0.0625
Info: NONBONDED TABLE SIZE: 769 POINTS
TCL: Running for 5000 steps
ETITLE: TS BOND ANGLE DIHED IMPRP ELECT VDW BOUNDARY MISC KINETIC TOTAL TEMP POTENTIAL TOTAL3 TEMPAVG PRESSURE GPRESSURE VOLUME PRESSAVG GPRESSAVG
ENERGY: 0 0.2968 2.5417 1.9109 0.0344 -16059.6213 1697.8708 0.0000 0.0000 2796.6714 -11560.2953 301.7149 -14356.9667 -11554.6408 301.7149 -13.2217 -13.1971 494755.7012 -13.2217 -13.1971
ENERGY: 1000 1.5301 4.4079 2.8164 0.0244 -16029.4273 1716.4577 0.0000 0.0000 2797.7993 -11506.3916 301.8366 -14304.1909 -11502.1880 300.1588 13.4624 12.9216 496869.0142 0.3341 0.3661
ENERGY: 2000 0.7586 2.7848 2.0264 0.0568 -16116.7089 1748.8433 0.0000 0.0000 2778.4260 -11583.8130 299.7465 -14362.2390 -11579.9647 296.8024 32.1907 33.3906 486887.1540 1.5846 1.5627
ENERGY: 3000 0.9854 3.2577 1.8241 0.0003 -16035.9523 1670.8937 0.0000 0.0000 2700.9603 -11658.0308 291.3892 -14358.9910 -11652.0801 295.5169 -5.1738 -5.0771 508486.5216 2.2202 2.2427
ENERGY: 4000 0.9373 3.8597 1.9023 0.0761 -16037.8452 1725.1459 0.0000 0.0000 2740.5409 -11565.3829 295.6593 -14305.9238 -11560.6009 299.7973 22.2567 22.2255 504458.0623 0.1863 0.1688
ENERGY: 5000 0.4328 5.2962 4.6151 0.3411 -15983.6580 1712.1747 0.0000 0.0000 2775.8004 -11484.9976 299.4632 -14260.7980 -11480.7031 300.1992 24.5062 24.4135 526369.8104 1.7737 1.7789
TCL: Running FEP window   8: Lambda1 0.5625 Lambda2 0.5    [dLambda -0.0625]
TCL: Setting parameter firsttimestep to 0
TCL: Setting parameter alchLambda to 0.5625
Info: NONBONDED TABLE R-SQUARED SPACING: 0.0625
Info: NONBONDED TABLE SIZE: 769 POINTS
TCL: Setting parameter alchLambda2 to 0.5
Info: NONBONDED TABLE R-SQUARED SPACING: 0.0625
Info: NONBONDED TABLE SIZE: 769 POINTS
TCL: Running for 5000 steps
ETITLE: TS BOND ANGLE DIHED IMPRP ELECT VDW BOUNDARY MISC KINETIC TOTAL TEMP POTENTIAL TOTAL3 TEMPAVG PRESSURE GPRESSURE VOLUME PRESSAVG GPRESSAVG
ENERGY: 0 0.4328 5.2962 4.6151 0.3411 -15983.9998 1712.1096 0.0000 0.0000 2775.7187 -11485.4862 299.4544 -14261.2049 -11480.2918 299.4544 23.5090 23.6770 526369.8104 23.5090 23.6770
ENERGY: 1000 2.5356 6.6697 2.9493 0.0993 -16119.2323 1726.6918 0.0000 0.0000 2770.0237 -11610.2629 298.8400 -14380.2866 -11603.5455 296.2374 9.3519 10.4156 532651.9402 0.7775 0.8064
ENERGY: 2000 0.4309 5.8090 2.3781 0.0042 -16260.0160 1811.1985 0.0000 0.0000 2683.1409 -11757.0544 289.4668 -14440.1952 -11752.4885 292.0424 50.8837 51.2667 544322.1243 0.4353 0.4510
ENERGY: 3000 0.4599 4.1298 1.9408 0.0284 -16209.2103 1717.7844 0.0000 0.0000 2717.7479 -11767.1192 293.2003 -14484.8670 -11763.1644 291.2089 -12.8812 -12.8653 543860.7117 0.2269 0.2402
ENERGY: 4000 0.3184 5.8037 2.6706 0.1049 -16285.8423 1775.2905 0.0000 0.0000 2785.7299 -11715.9242 300.5345 -14501.6541 -11709.9280 292.4637 30.2451 30.4368 525507.0597 0.7956 0.7848
ENERGY: 5000 1.2634 5.6567 2.8924 0.0533 -16124.8641 1735.3448 0.0000 0.0000 2659.6144 -11720.0391 286.9287 -14379.6535 -11714.6305 292.3262 16.1995 15.8675 522861.5522 0.1301 0.1397
TCL: Running FEP window   9: Lambda1 0.5    Lambda2 0.4375 [dLambda -0.0625]
TCL: Setting parameter firsttimestep to 0
TCL: Setting parameter alchLambda to 0.5
Info: NONBONDED TABLE R-SQUARED SPACING: 0.0625
Info: NONBONDED TABLE SIZE: 769 POINTS
TCL: Setting parameter alchLambda2 to 0.4375
Info: NONBONDED TABLE R-SQUARED SPACING: 0.0625
Info: NONBONDED TABLE SIZE: 769 POINTS
TCL: Running for 5000 steps
ETITLE: TS BOND ANGLE DIHED IMPRP ELECT VDW BOUNDARY MISC KINETIC TOTAL TEMP POTENTIAL TOTAL3 TEMPAVG PRESSURE GPRESSURE VOLUME PRESSAVG GPRESSAVG
ENERGY: 0 1.2634 5.6567 2.8924 0.0533 -16125.3512 1735.3995 0.0000 0.0000 2659.5323 -11720.5536 286.9198 -14380.0859 -11715.8890 286.9198 15.2749 15.3995 522861.5522 15.2749 15.3995
ENERGY: 1000 2.9715 4.4493 3.8212 0.0682 -16058.0489 1659.6307 0.0000 0.0000 2731.3121 -11655.7960 294.6637 -14387.1081 -11651.0901 295.7718 -28.4500 -28.7483 502470.1093 -0.5819 -0.5609
ENERGY: 2000 0.4547 4.3109 1.8106 0.0288 -15966.4536 1589.5289 0.0000 0.0000 2695.4441 -11674.8755 290.7941 -14370.3196 -11668.6341 296.3935 -59.2660 -59.6123 479833.7226 2.8566 2.8521
ENERGY: 3000 0.4172 6.0565 4.0474 0.0701 -16114.4933 1725.3296 0.0000 0.0000 2771.8611 -11606.7115 299.0383 -14378.5726 -11602.7183 296.3315 7.5002 7.1041 489491.7116 -0.0644 -0.0402
ENERGY: 4000 0.3866 4.5207 4.1290 0.2794 -15955.8353 1657.6361 0.0000 0.0000 2722.1413 -11566.7422 293.6743 -14288.8835 -11560.3407 297.2164 -12.8821 -13.1869 501442.1448 -0.9334 -0.8938
ENERGY: 5000 0.5908 5.5647 3.3875 0.0269 -16088.0151 1747.8494 0.0000 0.0000 2771.1340 -11559.4619 298.9598 -14330.5959 -11554.2368 299.8516 15.3191 14.9352 533815.4490 0.1885 0.1742
TCL: Running FEP window  10: Lambda1 0.4375 Lambda2 0.375  [dLambda -0.0625]
TCL: Setting parameter firsttimestep to 0
TCL: Setting parameter alchLambda to 0.4375
Info: NONBONDED TABLE R-SQUARED SPACING: 0.0625
Info: NONBONDED TABLE SIZE: 769 POINTS
TCL: Setting parameter alchLambda2 to 0.375
Info: NONBONDED TABLE R-SQUARED SPACING: 0.0625
Info: NONBONDED TABLE SIZE: 769 POINTS
TCL: Running for 5000 steps
ETITLE: TS BOND ANGLE DIHED IMPRP ELECT VDW BOUNDARY MISC KINETIC TOTAL TEMP POTENTIAL TOTAL3 TEMPAVG PRESSURE GPRESSURE VOLUME PRESSAVG GPRESSAVG
ENERGY: 0 0.5908 5.5647 3.3875 0.0269 -16088.0151 1748.3969 0.0000 0.0000 2771.0461 -11559.0022 298.9503 -14330.0484 -11553.2441 298.9503 14.6953 14.7388 533815.4490 14.6953 14.7388
ENERGY: 1000 0.4384 4.6056 3.9311 0.0118 -15982.2042 1729.3698 0.0000 0.0000 2719.6359 -11524.2116 293.4040 -14243.8475 -11521.6638 301.4921 23.5737 22.9584 527104.6805 0.2238 0.1977
ENERGY: 2000 3.2670 5.2255 4.1756 0.0027 -15943.6454 1672.0361 0.0000 0.0000 2714.5798 -11544.3586 292.8586 -14258.9385 -11537.7768 298.5514 10.4915 11.0875 509679.7102 1.2889 1.3038
ENERGY: 3000 2.6722 5.8305 3.6097 0.0087 -16092.8021 1765.0520 0.0000 0.0000 2730.6548 -11584.9744 294.5928 -14315.6292 -11577.9902 297.9467 36.5562 35.8009 518584.9500 -0.2707 -0.2733
ENERGY: 4000 0.9808 5.1070 3.2820 0.0658 -15962.0027 1600.4006 0.0000 0.0000 2773.7350 -11578.4313 299.2404 -14352.1664 -11573.2033 298.5300 -51.2417 -50.5575 511511.1789 -0.9223 -0.9164
ENERGY: 5000 0.8509 4.2481 2.2166 0.0321 -16123.5577 1777.7941 0.0000 0.0000 2787.3244 -11551.0916 300.7065 -14338.4160 -11546.0568 298.8801 64.5616 65.7007 513008.6738 0.4584 0.4458
TCL: Running FEP window  11: Lambda1 0.375  Lambda2 0.3125 [dLambda -0.0625]
TCL: Setting parameter firsttimestep to 0
TCL: Setting parameter alchLambda to 0.375
Info: NONBONDED TABLE R-SQUARED SPACING: 0.0625
Info: NONBONDED TABLE SIZE: 769 POINTS
TCL: Setting parameter alchLambda2 to 0.3125
Info: NONBONDED TABLE R-SQUARED SPACING: 0.0625
Info: NONBONDED TABLE SIZE: 769 POINTS
TCL: Running for 5000 steps
ETITLE: TS BOND ANGLE DIHED IMPRP ELECT VDW BOUNDARY MISC KINETIC TOTAL TEMP POTENTIAL TOTAL3 TEMPAVG PRESSURE GPRESSURE VOLUME PRESSAVG GPRESSAVG
ENERGY: 0 0.8509 4.2481 2.2166 0.0321 -16123.5577 1777.9628 0.0000 0.0000 2787.2387 -11551.0086 300.6972 -14338.2473 -11546.1503 300.6972 65.3667 65.4254 513008.6738 65.3667 65.4254
ENERGY: 1000 0.3313 8.4282 5.7016 0.0971 -15899.8396 1680.4895 0.0000 0.0000 2745.1136 -11459.6783 296.1526 -14204.7920 -11453.2336 299.6200 24.8810 24.6345 523501.0823 2.1895 2.1933
ENERGY: 2000 1.2126 12.9232 3.1433 0.0765 -15997.8633 1660.9883 0.0000 0.0000 2718.8403 -11600.6792 293.3182 -14319.5194 -11596.3826 297.1495 -10.5687 -11.1446 514221.7800 -0.0669 -0.0512
ENERGY: 3000 5.3410 7.1242 4.3527 0.1582 -16023.2626 1690.2895 0.0000 0.0000 2758.2271 -11557.7699 297.5674 -14315.9970 -11551.9734 299.5911 7.7931 8.8642 500800.0212 2.1585 2.1356
ENERGY: 4000 1.0099 4.9171 3.0118 0.2145 -16060.2217 1739.8613 0.0000 0.0000 2722.1779 -11589.0291 293.6783 -14311.2070 -11583.9614 299.9050 30.6163 31.1917 508651.8429 1.7069 1.6832
ENERGY: 5000 1.2611 5.8584 4.0134 0.2453 -16060.7406 1726.7806 0.0000 0.0000 2739.6340 -11582.9477 295.5615 -14322.5817 -11579.7625 299.3976 30.6401 29.7941 497241.2234 -0.2928 -0.2761
TCL: Running FEP window  12: Lambda1 0.3125 Lambda2 0.25   [dLambda -0.0625]
TCL: Setting parameter firsttimestep to 0
TCL: Setting parameter alchLambda to 0.3125
Info: NONBONDED TABLE R-SQUARED SPACING: 0.0625
Info: NONBONDED TABLE SIZE: 769 POINTS
TCL: Setting parameter alchLambda2 to 0.25
Info: NONBONDED TABLE R-SQUARED SPACING: 0.0625
Info: NONBONDED TABLE SIZE: 769 POINTS
TCL: Running for 5000 steps
ETITLE: TS BOND ANGLE DIHED IMPRP ELECT VDW BOUNDARY MISC KINETIC TOTAL TEMP POTENTIAL TOTAL3 TEMPAVG PRESSURE GPRESSURE VOLUME PRESSAVG GPRESSAVG
ENERGY: 0 1.2611 5.8584 4.0134 0.2453 -16060.7406 1726.8914 0.0000 0.0000 2739.5500 -11582.9210 295.5524 -14322.4710 -11578.0021 295.5524 29.5543 29.5925 497241.2234 29.5543 29.5925
ENERGY: 1000 0.3868 4.3498 3.7575 0.1008 -16128.6229 1775.0926 0.0000 0.0000 2807.3453 -11537.5900 302.8664 -14344.9354 -11532.2911 300.3795 38.1228 38.3289 486137.0967 2.6814 2.6773
ENERGY: 2000 0.5013 6.7300 3.8372 0.0746 -16097.3635 1718.7313 0.0000 0.0000 2746.5310 -11620.9580 296.3056 -14367.4890 -11613.1330 296.3726 3.3228 4.2124 459733.0036 0.6188 0.6051
ENERGY: 3000 3.1165 6.7032 3.6184 0.2565 -16018.9869 1695.7420 0.0000 0.0000 2733.4764 -11576.0740 294.8972 -14309.5504 -11571.5515 295.4052 -3.5602 -2.8166 456363.3025 3.3715 3.3307
ENERGY: 4000 4.9399 4.1175 2.6937 0.0088 -16013.6032 1657.2968 0.0000 0.0000 2772.7019 -11571.8445 299.1290 -14344.5464 -11566.5431 298.2612 -40.2511 -39.9633 437974.8849 -0.9081 -0.8860
ENERGY: 5000 2.1286 9.6731 2.3242 0.0027 -15994.4409 1693.3100 0.0000 0.0000 2788.9998 -11498.0026 300.8872 -14287.0024 -11491.5781 297.1432 -16.3463 -15.8464 422467.9197 -1.8222 -1.7882
TCL: Running FEP window  13: Lambda1 0.25   Lambda2 0.1875 [dLambda -0.0625]
TCL: Setting parameter firsttimestep to 0
TCL: Setting parameter alchLambda to 0.25
Info: NONBONDED TABLE R-SQUARED SPACING: 0.0625
Info: NONBONDED TABLE SIZE: 769 POINTS
TCL: Setting parameter alchLambda2 to 0.1875
Info: NONBONDED TABLE R-SQUARED SPACING: 0.0625
Info: NONBONDED TABLE SIZE: 769 POINTS
TCL: Running for 5000 steps
ETITLE: TS BOND ANGLE DIHED IMPRP ELECT VDW BOUNDARY MISC KINETIC TOTAL TEMP POTENTIAL TOTAL3 TEMPAVG PRESSURE GPRESSURE VOLUME PRESSAVG GPRESSAVG
ENERGY: 0 2.1286 9.6731 2.3242 0.0027 -15994.4409 1693.4916 0.0000 0.0000 2788.9124 -11497.9083 300.8778 -14286.8208 -11492.9318 300.8778 -15.9075 -15.7744 422467.9197 -15.9075 -15.7744
ENERGY: 1000 2.3349 5.0765 3.7262 0.1216 -16008.5999 1684.4728 0.0000 0.0000 2689.0983 -11623.7695 290.1095 -14312.8678 -11618.4616 295.6674 -15.2273 -15.0945 424753.6854 1.1179 1.0974
ENERGY: 2000 0.3527 6.5733 2.5996 0.0030 -16118.6441 1717.1238 0.0000 0.0000 2728.9933 -11662.9983 294.4135 -14391.9916 -11658.1764 293.6080 -2.6329 -2.0261 432425.3888 3.3129 3.2858
ENERGY: 3000 0.2882 6.3876 2.9382 0.0006 -16083.1249 1703.5596 0.0000 0.0000 2741.5789 -11628.3719 295.7713 -14369.9509 -11623.3846 296.9315 -20.4219 -20.6388 420457.9267 3.1214 3.1602
ENERGY: 4000 2.3682 13.4214 3.7939 0.2226 -16027.7170 1720.3699 0.0000 0.0000 2784.1620 -11503.3790 300.3653 -14287.5410 -11497.2014 299.2502 10.5685 10.8071 411235.9309 2.0836 2.0979
ENERGY: 5000 4.3148 8.7672 6.9582 0.0175 -16097.7772 1743.8506 0.0000 0.0000 2784.4739 -11549.3949 300.3990 -14333.8688 -11545.0210 297.2388 20.0854 20.4611 389997.4632 -1.6184 -1.5871
TCL: Running FEP window  14: Lambda1 0.1875 Lambda2 0.125  [dLambda -0.0625]
TCL: Setting parameter firsttimestep to 0
TCL: Setting parameter alchLambda to 0.1875
Info: NONBONDED TABLE R-SQUARED SPACING: 0.0625
Info: NONBONDED TABLE SIZE: 769 POINTS
TCL: Setting parameter alchLambda2 to 0.125
Info: NONBONDED TABLE R-SQUARED SPACING: 0.0625
Info: NONBONDED TABLE SIZE: 769 POINTS
TCL: Running for 5000 steps
ETITLE: TS BOND ANGLE DIHED IMPRP ELECT VDW BOUNDARY MISC KINETIC TOTAL TEMP POTENTIAL TOTAL3 TEMPAVG PRESSURE GPRESSURE VOLUME PRESSAVG GPRESSAVG
ENERGY: 0 4.3148 8.7672 6.9582 0.0175 -16097.7771 1743.8385 0.0000 0.0000 2784.3915 -11549.4894 300.3901 -14333.8809 -11544.6571 300.3901 20.1803 20.3006 389997.4632 20.1803 20.3006
ENERGY: 1000 1.6306 4.0315 2.2954 0.0018 -16083.1333 1736.2043 0.0000 0.0000 2737.4285 -11601.5412 295.3235 -14338.9697 -11597.6645 297.2845 58.7526 59.4805 375403.3791 -0.1507 -0.1505
ENERGY: 2000 0.8759 7.2845 4.5476 0.1822 -16260.5690 1799.1141 0.0000 0.0000 2776.0349 -11672.5298 299.4885 -14448.5647 -11669.2747 293.8226 43.7288 43.2438 365809.1104 -0.5274 -0.5728
ENERGY: 3000 0.4384 5.6382 2.4200 0.0173 -16050.4885 1628.7991 0.0000 0.0000 2737.0724 -11676.1031 295.2851 -14413.1756 -11669.8367 294.0964 -65.6826 -66.7774 346605.3004 1.2463 1.2373
ENERGY: 4000 0.7234 7.4275 3.8313 0.2698 -16123.7199 1689.0471 0.0000 0.0000 2752.9419 -11669.4789 296.9972 -14422.4208 -11664.4649 294.6392 -25.2091 -24.8164 347062.8726 -3.6865 -3.7168
ENERGY: 5000 1.4797 11.0567 2.7957 0.0954 -16195.7232 1690.5146 0.0000 0.0000 2714.1896 -11775.5916 292.8165 -14489.7812 -11769.5457 293.1531 -41.4314 -39.6863 339792.7667 3.4209 3.4060
TCL: Running FEP window  15: Lambda1 0.125  Lambda2 0.0625 [dLambda -0.0625]
TCL: Setting parameter firsttimestep to 0
TCL: Setting parameter alchLambda to 0.125
Info: NONBONDED TABLE R-SQUARED SPACING: 0.0625
Info: NONBONDED TABLE SIZE: 769 POINTS
TCL: Setting parameter alchLambda2 to 0.0625
Info: NONBONDED TABLE R-SQUARED SPACING: 0.0625
Info: NONBONDED TABLE SIZE: 769 POINTS
TCL: Running for 5000 steps
ETITLE: TS BOND ANGLE DIHED IMPRP ELECT VDW BOUNDARY MISC KINETIC TOTAL TEMP POTENTIAL TOTAL3 TEMPAVG PRESSURE GPRESSURE VOLUME PRESSAVG GPRESSAVG
ENERGY: 0 1.4797 11.0567 2.7957 0.0954 -16195.7232 1690.8109 0.0000 0.0000 2714.1079 -11775.3769 292.8076 -14489.4849 -11770.0301 292.8076 -39.5253 -39.5395 339792.7667 -39.5253 -39.5395
ENERGY: 1000 0.9757 8.8840 2.5793 0.1007 -16166.3768 1681.8323 0.0000 0.0000 2765.8402 -11706.1646 298.3887 -14472.0048 -11699.8350 292.4522 -54.0405 -55.4340 332361.7860 2.0994 2.0821
ENERGY: 2000 0.2550 4.4467 2.1145 0.1088 -16066.5888 1715.5895 0.0000 0.0000 2675.9668 -11668.1075 288.6928 -14344.0743 -11662.5385 294.7137 27.2690 26.6334 323771.3939 -2.3067 -2.3765
ENERGY: 3000 0.9551 6.6162 4.7907 0.0746 -16064.2962 1709.6272 0.0000 0.0000 2742.9005 -11599.3318 295.9139 -14342.2323 -11594.3570 298.2226 14.1823 13.2917 332141.4587 -1.8300 -1.8317
ENERGY: 4000 0.7604 3.6358 3.1854 0.1092 -16190.5423 1836.7682 0.0000 0.0000 2820.1173 -11525.9660 304.2443 -14346.0833 -11520.6134 299.0621 105.4817 105.0974 334750.4616 2.2863 2.2764
ENERGY: 5000 1.9464 4.4553 1.5422 0.0250 -16083.3686 1729.0802 0.0000 0.0000 2730.6788 -11615.6408 294.5954 -14346.3196 -11608.5357 297.8339 15.9460 15.9144 339999.2928 3.6196 3.5983
TCL: Running FEP window  16: Lambda1 0.0625 Lambda2 0.0    [dLambda -0.0625]
TCL: Setting parameter firsttimestep to 0
TCL: Setting parameter alchLambda to 0.0625
Info: NONBONDED TABLE R-SQUARED SPACING: 0.0625
Info: NONBONDED TABLE SIZE: 769 POINTS
TCL: Setting parameter alchLambda2 to 0.0
Info: NONBONDED TABLE R-SQUARED SPACING: 0.0625
Info: NONBONDED TABLE SIZE: 769 POINTS
TCL: Running for 5000 steps
ETITLE: TS BOND ANGLE DIHED IMPRP ELECT VDW BOUNDARY MISC KINETIC TOTAL TEMP POTENTIAL TOTAL3 TEMPAVG PRESSURE GPRESSURE VOLUME PRESSAVG GPRESSAVG
ENERGY: 0 1.9464 4.4553 1.5422 0.0250 -16083.3686 1729.1220 0.0000 0.0000 2730.5939 -11615.6838 294.5862 -14346.2778 -11610.1736 294.5862 16.1293 16.1305 339999.2928 16.1293 16.1305
ENERGY: 1000 2.5312 4.6329 2.6610 0.0890 -16051.5699 1742.1762 0.0000 0.0000 2679.5942 -11619.8855 289.0842 -14299.4797 -11616.1515 294.8554 32.2218 32.4191 344703.6947 1.3936 1.4248
ENERGY: 2000 2.3747 3.0267 2.7373 0.0416 -16048.2012 1659.2025 0.0000 0.0000 2750.7038 -11630.1148 296.7557 -14380.8185 -11624.4245 296.9267 -30.4878 -31.1116 349671.8881 4.3085 4.3120
ENERGY: 3000 0.3756 5.5214 3.4832 0.0460 -16098.4101 1703.7028 0.0000 0.0000 2746.0768 -11639.2043 296.2566 -14385.2811 -11633.0898 293.8462 -7.6899 -6.9584 362845.1200 -1.5395 -1.4804
ENERGY: 4000 0.2993 4.4219 4.4171 0.0203 -16207.5190 1717.5472 0.0000 0.0000 2829.7556 -11651.0574 305.2841 -14480.8130 -11646.6709 297.3393 4.3511 4.3529 363235.5972 2.1788 2.2050
ENERGY: 5000 1.5088 6.2085 3.8631 0.0270 -16067.2729 1697.9481 0.0000 0.0000 2742.6064 -11615.1110 295.8822 -14357.7175 -11609.5114 296.3956 -21.1946 -21.4717 372020.4068 3.8992 3.8655
