Info: SIMULATION PARAMETERS:
Info: TIMESTEP               2
Info: NUMBER OF STEPS        0
Info: STEPS PER CYCLE        10
Info: PERIODIC CELL BASIS 1  31.0699 0 0
Info: PERIODIC CELL BASIS 2  0 31.4473 0
Info: PERIODIC CELL BASIS 3  0 0 31.7244
Info: PERIODIC CELL CENTER   0 0 0
Info: WRAPPING WATERS AROUND PERIODIC BOUNDARIES ON OUTPUT.
Info: WRAPPING ALL CLUSTERS AROUND PERIODIC BOUNDARIES ON OUTPUT.
Info: FIRST LDB TIMESTEP     50
Info: LAST LDB TIMESTEP     -1
Info: HOM BACKGROUND SCALING 1
Info: PME BACKGROUND SCALING 1
Info: MIN ATOMS PER PATCH    40
Info: EMPTY PATCH LOAD       40 ATOMS
Info: VELOCITY FILE          mobley_2784376_equil.vel
Info: CENTER OF MASS MOVING INITIALLY? NO
Info: DIELECTRIC             1
Info: EXCLUDE                SCALED ONE-FOUR
Info: 1-4 ELECTROSTATICS SCALED BY 0.833333
Info: MODIFIED 1-4 VDW PARAMETERS WILL BE USED
Info: DCD FILENAME           mobley_2784376_prod.dcd
Info: DCD FREQUENCY          100000
Info: DCD FIRST STEP         100000
Info: DCD FILE WILL CONTAIN UNIT CELL DATA
Info: XST FILENAME           mobley_2784376_prod.xst
Info: XST FREQUENCY          100000
Info: NO VELOCITY DCD OUTPUT
Info: NO FORCE DCD OUTPUT
Info: OUTPUT FILENAME        mobley_2784376_prod
Info: BINARY OUTPUT FILES WILL BE USED
Info: RESTART FILENAME       mobley_2784376_prod.restart
Info: RESTART FREQUENCY      100000
Info: BINARY RESTART FILES WILL BE USED
Info: CUTOFF                 9
Info: PAIRLIST DISTANCE      11
Info: PAIRLIST SHRINK RATE   0.01
Info: PAIRLIST GROW RATE     0.01
Info: PAIRLIST TRIGGER       0.3
Info: PAIRLISTS PER CYCLE    2
Info: PAIRLISTS ENABLED
Info: MARGIN                 2
Info: HYDROGEN GROUP CUTOFF  2.5
Info: PATCH DIMENSION        15.5
Info: ENERGY OUTPUT STEPS    100000
Info: ENERGY EVALUATION STEPS    100000
Info: OUTPUT ENERGY PRECISION 4
Info: CROSSTERM ENERGY INCLUDED IN DIHEDRAL
Info: TIMING OUTPUT STEPS    1000000
Info: PRESSURE OUTPUT STEPS  100000
Info: ALCHEMICAL FEP ON
Info: FEP CURRENT LAMBDA VALUE     1
Info: FEP COMPARISON LAMBDA VALUE  0.95
Info: FEP INTRA-ALCHEMICAL NON-BONDED INTERACTIONS WILL BE RETAINED
Info: FEP INTRA-ALCHEMICAL BONDED INTERACTIONS WILL BE RETAINED
Info: FEP VDW SHIFTING COEFFICIENT 5
Info: FEP ELEC. ACTIVE FOR ANNIHILATED PARTICLES BETWEEN LAMBDA = 0 AND LAMBDA = 0.5
Info: FEP ELEC. ACTIVE FOR EXNIHILATED PARTICLES BETWEEN LAMBDA = 0.5 AND LAMBDA = 1
Info: FEP VDW ACTIVE FOR ANNIHILATED PARTICLES BETWEEN LAMBDA = 0 AND LAMBDA = 1
Info: FEP VDW ACTIVE FOR EXNIHILATED PARTICLES BETWEEN LAMBDA = 0 AND LAMBDA = 1
Info: FEP BOND ACTIVE FOR ANNIHILATED PARTICLES BETWEEN LAMBDA = 1 AND LAMBDA = 1
Info: FEP BOND ACTIVE FOR EXNIHILATED PARTICLES BETWEEN LAMBDA = 0 AND LAMBDA = 0
Info: LANGEVIN DYNAMICS ACTIVE
Info: LANGEVIN TEMPERATURE   300
Info: LANGEVIN USING BBK INTEGRATOR
Info: LANGEVIN DAMPING COEFFICIENT IS 1 INVERSE PS
Info: LANGEVIN DYNAMICS APPLIED TO HYDROGENS
Info: LANGEVIN PISTON PRESSURE CONTROL ACTIVE
Info:        TARGET PRESSURE IS 1.01325 BAR
Info:     OSCILLATION PERIOD IS 50 FS
Info:             DECAY TIME IS 25 FS
Info:     PISTON TEMPERATURE IS 300 K
Info:       PRESSURE CONTROL IS GROUP-BASED
Info:    INITIAL STRAIN RATE IS 4.40434e-05 4.40434e-05 4.40434e-05
Info:       CELL FLUCTUATION IS ISOTROPIC
Info: PARTICLE MESH EWALD (PME) ACTIVE
Info: PME TOLERANCE               1e-06
Info: PME EWALD COEFFICIENT       0.348832
Info: PME INTERPOLATION ORDER     4
Info: PME GRID DIMENSIONS         32 32 32
Info: PME MAXIMUM GRID SPACING    1
Info: PME CALCULATION WILL BE PERFORMED ON GPU
Info: FULL ELECTROSTATIC EVALUATION FREQUENCY      2
Info: USING VERLET I (r-RESPA) MTS SCHEME.
Info: C1 SPLITTING OF LONG RANGE ELECTROSTATICS
Info: PLACING ATOMS IN PATCHES BY HYDROGEN GROUPS
Info: RIGID BONDS TO HYDROGEN : ALL
Info:         ERROR TOLERANCE : 1e-08
Info:          MAX ITERATIONS : 100
Info: RIGID WATER USING SETTLE ALGORITHM
Info: RANDOM NUMBER SEED     1742108905
Info: USE HYDROGEN BONDS?    NO
Info: Using AMBER format force field!
Info: AMBER PARM FILE        mobley_2784376.prmtop
Info: COORDINATE PDB         mobley_2784376.pdb
Info: Exclusions will be read from PARM file!
Info: SCNB (VDW SCALING)     2
Info: USING ARITHMETIC MEAN TO COMBINE L-J SIGMA PARAMETERS
Info: BINARY COORDINATES     mobley_2784376_equil.coor
Info: SUMMARY OF PARAMETERS:
Info: 4 BONDS
Info: 3 ANGLES
Info:   3 HARMONIC
Info:   0 COSINE-BASED
Info: 1 DIHEDRAL
Info: 0 IMPROPER
Info: 0 CROSSTERM
Info: 0 VDW
Info: 10 VDW_PAIRS
Info: 0 NBTHOLE_PAIRS
Info: To read alchdata from file: mobley_2784376.pdb
Info: To read alchflag data from column: 5
Info: STRUCTURE SUMMARY:
Info: 2985 ATOMS
Info: 2985 BONDS
Info: 18 ANGLES
Info: 24 DIHEDRALS
Info: 0 IMPROPERS
Info: 0 CROSSTERMS
Info: 3012 EXCLUSIONS
Info: 2982 RIGID BONDS
Info: ALCH: 0 ATOMS TO DISAPPEAR IN FINAL STATE
Info: ALCH: 9 ATOMS TO APPEAR IN FINAL STATE
Info: 5973 DEGREES OF FREEDOM
Info: 995 HYDROGEN GROUPS
Info: 3 ATOMS IN LARGEST HYDROGEN GROUP
Info: 995 MIGRATION GROUPS
Info: 3 ATOMS IN LARGEST MIGRATION GROUP
Info: TOTAL MASS = 17914 amu
Info: TOTAL CHARGE = 0.000300005 e
Info: MASS DENSITY = 0.959695 g/cm^3
Info: ATOM DENSITY = 0.0963001 atoms/A^3
Info: ADDED 0 IMPLICIT EXCLUSIONS
Info: NONBONDED TABLE R-SQUARED SPACING: 0.0625
Info: NONBONDED TABLE SIZE: 705 POINTS
Info: REMOVING COM VELOCITY 0.0539063 -0.140986 -0.104379
Info: Use 3D box decompostion in PME FFT.
Info: Updated CUDA force table with 4096 elements.
Info: Updated CUDA LJ table with 4 x 4 elements.
Info: Found 12 unique exclusion lists needing 20 bytes
TCL: Running for 1500000 steps
ETITLE: TS BOND ANGLE DIHED IMPRP ELECT VDW BOUNDARY MISC KINETIC TOTAL TEMP POTENTIAL TOTALAVG TEMPAVG PRESSURE GPRESSURE VOLUME PRESSAVG GPRESSAVG
ENERGY: 0 0.4836 3.9508 6.2062 0.0000 -10897.4526 1473.7391 0.0000 0.0000 1800.4791 -7612.5937 303.3793 -9413.0728 -7612.5937 303.3793 -158.2778 -91.4602 30996.8460 -158.2778 -91.4602
ENERGY: 300000 0.2736 6.5345 5.8434 0.0000 -10835.6082 1438.9758 0.0000 0.0000 1843.7312 -7540.2497 310.6673 -9383.9809 -7560.9000 304.7349 -10.8648 113.4808 30612.3811 39.7625 108.9305
ENERGY: 600000 0.2855 4.8681 6.0451 0.0000 -10665.5411 1381.9759 0.0000 0.0000 1788.0627 -7484.3037 301.2872 -9272.3665 -7549.1398 302.6263 -500.5509 -429.8903 31232.5460 -84.0877 -24.2390
ENERGY: 900000 1.0406 4.5084 6.3060 0.0000 -10827.8483 1486.5110 0.0000 0.0000 1822.5536 -7506.9286 307.0988 -9329.4822 -7537.7556 302.5041 525.6112 498.9221 30597.3686 -58.4104 -10.5063
ENERGY: 1200000 0.1035 2.7846 6.1898 0.0000 -10961.3881 1531.6286 0.0000 0.0000 1750.7126 -7669.9690 294.9937 -9420.6816 -7545.5565 301.8197 292.1418 388.7291 30934.2528 -35.7171 26.3631
ENERGY: 1500000 0.7867 2.7125 6.1290 0.0000 -10721.3608 1410.4763 0.0000 0.0000 1842.9786 -7458.2777 310.5404 -9301.2562 -7537.2545 302.4705 -166.0389 -101.5434 30950.8461 -57.2155 4.2598
TCL: Running FEP window   2: Lambda1 0.95   Lambda2 0.8999999999999999 [dLambda -0.050000000000000044]
TCL: Setting parameter firsttimestep to 0
TCL: Setting parameter alchLambda to 0.95
Info: NONBONDED TABLE R-SQUARED SPACING: 0.0625
Info: NONBONDED TABLE SIZE: 705 POINTS
TCL: Setting parameter alchLambda2 to 0.8999999999999999
Info: NONBONDED TABLE R-SQUARED SPACING: 0.0625
Info: NONBONDED TABLE SIZE: 705 POINTS
TCL: Running for 1500000 steps
ETITLE: TS BOND ANGLE DIHED IMPRP ELECT VDW BOUNDARY MISC KINETIC TOTAL TEMP POTENTIAL TOTALAVG TEMPAVG PRESSURE GPRESSURE VOLUME PRESSAVG GPRESSAVG
ENERGY: 0 0.7867 2.7125 6.1290 0.0000 -10721.3525 1410.6207 0.0000 0.0000 1842.0557 -7459.0478 310.3849 -9301.1035 -7459.0478 310.3849 -196.0506 -106.8190 30950.8461 -196.0506 -106.8190
ENERGY: 300000 1.6608 3.9392 6.2951 0.0000 -10729.1151 1386.1203 0.0000 0.0000 1785.8123 -7545.2874 300.9080 -9331.0997 -7551.9658 299.3008 -341.4443 -255.6835 30541.9517 -105.5913 -36.8337
ENERGY: 600000 0.1204 2.5463 6.4173 0.0000 -10836.1035 1554.7790 0.0000 0.0000 1808.3358 -7463.9048 304.7032 -9272.2406 -7563.0200 299.3320 659.7694 742.0487 31338.3194 318.1589 376.1546
ENERGY: 900000 0.0686 4.5689 6.0923 0.0000 -10931.7773 1520.8378 0.0000 0.0000 1736.8374 -7663.3724 292.6557 -9400.2097 -7576.5719 298.0039 293.0445 386.2762 30621.2643 282.6661 344.8483
ENERGY: 1200000 0.5021 4.8300 6.1845 0.0000 -10937.9007 1531.0148 0.0000 0.0000 1798.7555 -7596.6137 303.0889 -9395.3692 -7589.4831 297.7968 505.1278 624.8227 30494.1550 365.6183 430.3953
ENERGY: 1500000 1.3475 4.8533 6.2441 0.0000 -10963.9531 1542.0870 0.0000 0.0000 1782.3914 -7627.0298 300.3315 -9409.4212 -7587.7370 298.2098 615.2540 706.1405 30485.5005 332.3995 392.3347
TCL: Running FEP window   3: Lambda1 0.8999999999999999 Lambda2 0.8499999999999999 [dLambda -0.050000000000000044]
TCL: Setting parameter firsttimestep to 0
TCL: Setting parameter alchLambda to 0.8999999999999999
Info: NONBONDED TABLE R-SQUARED SPACING: 0.0625
Info: NONBONDED TABLE SIZE: 705 POINTS
TCL: Setting parameter alchLambda2 to 0.8499999999999999
Info: NONBONDED TABLE R-SQUARED SPACING: 0.0625
Info: NONBONDED TABLE SIZE: 705 POINTS
TCL: Running for 1500000 steps
ETITLE: TS BOND ANGLE DIHED IMPRP ELECT VDW BOUNDARY MISC KINETIC TOTAL TEMP POTENTIAL TOTALAVG TEMPAVG PRESSURE GPRESSURE VOLUME PRESSAVG GPRESSAVG
ENERGY: 0 1.3475 4.8533 6.2441 0.0000 -10963.9497 1542.5053 0.0000 0.0000 1781.5282 -7627.4714 300.1861 -9408.9996 -7627.4714 300.1861 625.5879 703.9460 30485.5005 625.5879 703.9460
ENERGY: 300000 1.0253 5.0073 6.1004 0.0000 -10819.6240 1440.9986 0.0000 0.0000 1774.8985 -7591.5939 299.0690 -9366.4924 -7606.4866 299.1686 -86.8484 -61.5237 30655.7790 170.5645 223.0880
ENERGY: 600000 0.9199 3.5969 6.2682 0.0000 -10826.0820 1454.0004 0.0000 0.0000 1726.0528 -7635.2439 290.8385 -9361.2967 -7592.5606 299.5772 74.0593 127.5982 30594.0446 81.8012 140.0629
ENERGY: 900000 0.9924 5.2225 6.1888 0.0000 -10874.5371 1456.0881 0.0000 0.0000 1815.4189 -7590.6264 305.8966 -9406.0453 -7587.1451 300.3331 -166.2577 -80.3043 30655.2161 -49.3118 8.3723
ENERGY: 1200000 0.8621 4.7567 6.1031 0.0000 -10838.3185 1449.5675 0.0000 0.0000 1745.5084 -7631.5207 294.1168 -9377.0291 -7582.7166 300.4766 -197.8549 -143.0892 30669.9430 -49.9964 8.3726
ENERGY: 1500000 1.1417 2.8153 6.1597 0.0000 -10772.5610 1421.0337 0.0000 0.0000 1726.9387 -7614.4719 290.9878 -9341.4106 -7585.6762 299.3032 -206.0025 -103.3281 30467.8328 -84.3398 -26.6738
TCL: Running FEP window   4: Lambda1 0.8499999999999999 Lambda2 0.7999999999999998 [dLambda -0.050000000000000044]
TCL: Setting parameter firsttimestep to 0
TCL: Setting parameter alchLambda to 0.8499999999999999
Info: NONBONDED TABLE R-SQUARED SPACING: 0.0625
Info: NONBONDED TABLE SIZE: 705 POINTS
TCL: Setting parameter alchLambda2 to 0.7999999999999998
Info: NONBONDED TABLE R-SQUARED SPACING: 0.0625
Info: NONBONDED TABLE SIZE: 705 POINTS
TCL: Running for 1500000 steps
ETITLE: TS BOND ANGLE DIHED IMPRP ELECT VDW BOUNDARY MISC KINETIC TOTAL TEMP POTENTIAL TOTALAVG TEMPAVG PRESSURE GPRESSURE VOLUME PRESSAVG GPRESSAVG
ENERGY: 0 1.1417 2.8153 6.1597 0.0000 -10772.5719 1421.3127 0.0000 0.0000 1726.0658 -7615.0768 290.8407 -9341.1425 -7615.0768 290.8407 -203.3234 -105.7319 30467.8328 -203.3234 -105.7319
ENERGY: 200000 0.5856 4.2225 5.9931 0.0000 -10904.5346 1480.3285 0.0000 0.0000 1820.3759 -7593.0291 306.7319 -9413.4050 -7632.6560 297.7342 4.5914 2.5651 30845.5811 -138.7157 -91.1049
ENERGY: 500000 0.3669 1.3959 6.3099 0.0000 -10948.5211 1564.5714 0.0000 0.0000 1761.8994 -7613.9777 296.8787 -9375.8771 -7600.8871 296.9572 856.6604 956.9953 30396.7691 -111.3304 -50.8501
ENERGY: 700000 0.5311 4.9626 6.0292 0.0000 -10857.8738 1439.4271 0.0000 0.0000 1908.0758 -7498.8479 321.5093 -9406.9237 -7575.5760 301.1033 44.0878 124.7029 30417.0380 -85.5512 -29.2161
ENERGY: 1000000 0.1295 4.4305 6.2855 0.0000 -10922.1454 1562.2275 0.0000 0.0000 1800.4493 -7548.6231 303.3743 -9349.0724 -7566.1022 301.1096 675.2270 768.1232 30987.8297 -145.8114 -92.6219
ENERGY: 1200000 1.5518 3.0886 6.2188 0.0000 -10821.0189 1430.4754 0.0000 0.0000 1826.6367 -7553.0477 307.7868 -9379.6844 -7570.8922 300.8059 -259.3442 -198.4833 30724.5479 -116.3797 -60.7063
