Info: SIMULATION PARAMETERS:
Info: TIMESTEP               1
Info: NUMBER OF STEPS        0
Info: STEPS PER CYCLE        10
Info: PERIODIC CELL BASIS 1  30 0 0
Info: PERIODIC CELL BASIS 2  0 30 0
Info: PERIODIC CELL BASIS 3  0 0 30
Info: PERIODIC CELL CENTER   0 0 0
Info: WRAPPING ALL CLUSTERS AROUND PERIODIC BOUNDARIES ON OUTPUT.
Info: FIRST LDB TIMESTEP     50
Info: LAST LDB TIMESTEP     -1
Info: HOM BACKGROUND SCALING 1
Info: MIN ATOMS PER PATCH    40
Info: EMPTY PATCH LOAD       40 ATOMS
Info: INITIAL TEMPERATURE    298
Info: CENTER OF MASS MOVING INITIALLY? NO
Info: DIELECTRIC             1
Info: EXCLUDE                SCALED ONE-FOUR
Info: 1-4 ELECTROSTATICS SCALED BY 1
Info: MODIFIED 1-4 VDW PARAMETERS WILL BE USED
Info: DCD FILENAME           output.dcd
Info: DCD FREQUENCY          5
Info: DCD FIRST STEP         5
Info: DCD FILE WILL CONTAIN UNIT CELL DATA
Info: NO EXTENDED SYSTEM TRAJECTORY OUTPUT
Info: NO VELOCITY DCD OUTPUT
Info: NO FORCE DCD OUTPUT
Info: OUTPUT FILENAME        output
Info: BINARY OUTPUT FILES WILL BE USED
Info: NO RESTART FILE
Info: SWITCHING ACTIVE
Info: SWITCHING ON           10
Info: SWITCHING OFF          12
Info: PAIRLIST DISTANCE      14
Info: PAIRLIST SHRINK RATE   0.01
Info: PAIRLIST GROW RATE     0.01
Info: PAIRLIST TRIGGER       0.3
Info: PAIRLISTS PER CYCLE    2
Info: PAIRLISTS ENABLED
Info: MARGIN                 0
Info: HYDROGEN GROUP CUTOFF  2.5
Info: PATCH DIMENSION        16.5
Info: ENERGY OUTPUT STEPS    5
Info: ENERGY EVALUATION STEPS    5
Info: OUTPUT ENERGY PRECISION 4
Info: CROSSTERM ENERGY INCLUDED IN DIHEDRAL
Info: TIMING OUTPUT STEPS    5
Info: LANGEVIN DYNAMICS ACTIVE
Info: LANGEVIN TEMPERATURE   298
Info: LANGEVIN USING BBK INTEGRATOR
Info: LANGEVIN DAMPING COEFFICIENT IS 0.25 INVERSE PS
Info: LANGEVIN DYNAMICS NOT APPLIED TO HYDROGENS
Info: MULTILEVEL SUMMATION METHOD (MSM) FOR ELECTROSTATICS ACTIVE
Info: MSM WITH C1 CUBIC INTERPOLATION AND C2 TAYLOR SPLITTING
Info: FULL ELECTROSTATIC EVALUATION FREQUENCY      1
Info: USING VERLET I (r-RESPA) MTS SCHEME.
Info: C1 SPLITTING OF LONG RANGE ELECTROSTATICS
Info: PLACING ATOMS IN PATCHES BY HYDROGEN GROUPS
Info: RIGID BONDS TO HYDROGEN : ALL
Info:         ERROR TOLERANCE : 1e-08
Info:          MAX ITERATIONS : 100
Info: RIGID WATER USING SETTLE ALGORITHM
Info: RANDOM NUMBER SEED     1740238693
Info: USE HYDROGEN BONDS?    NO
Info: COORDINATE PDB         ionized.pdb
Info: STRUCTURE FILE         ionized.psf
Info: PARAMETER file: CHARMM format!
Info: PARAMETERS             par_all27_prot_lipid.inp
Info: USING ARITHMETIC MEAN TO COMBINE L-J SIGMA PARAMETERS
Info: SUMMARY OF PARAMETERS:
Info: 180 BONDS
Info: 447 ANGLES
Info: 566 DIHEDRAL
Info: 46 IMPROPER
Info: 6 CROSSTERM
Info: 119 VDW
Info: 0 VDW_PAIRS
Info: 0 NBTHOLE_PAIRS
Info: STRUCTURE SUMMARY:
Info: 2476 ATOMS
Info: 1650 BONDS
Info: 825 ANGLES
Info: 0 DIHEDRALS
Info: 0 IMPROPERS
Info: 0 CROSSTERMS
Info: 0 EXCLUSIONS
Info: 2475 RIGID BONDS
Info: 4953 DEGREES OF FREEDOM
Info: 826 HYDROGEN GROUPS
Info: 3 ATOMS IN LARGEST HYDROGEN GROUP
Info: 826 MIGRATION GROUPS
Info: 3 ATOMS IN LARGEST MIGRATION GROUP
Info: TOTAL MASS = 14885.7 amu
Info: TOTAL CHARGE = 1 e
Info: MASS DENSITY = 0.915513 g/cm^3
Info: ATOM DENSITY = 0.0917037 atoms/A^3
Info: ADDED 2475 IMPLICIT EXCLUSIONS
Info: NONBONDED TABLE R-SQUARED SPACING: 0.0625
Info: NONBONDED TABLE SIZE: 769 POINTS
Info: REMOVING COM VELOCITY 0.1435 0.167466 0.0525693
Info: MSM using C1 cubic interpolation
Info: MSM using C2 Taylor splitting function
Info: MSM block size decomposition along X is 8 grid points
Info: MSM block size decomposition along Y is 8 grid points
Info: MSM block size decomposition along Z is 8 grid points
Info: MSM grid spacing along X is 2.5 A
Info: MSM grid spacing along Y is 2.5 A
Info: MSM grid spacing along Z is 2.5 A
Info: MSM using 3 levels
Info:     level 0:  [0..11] x [0..11] x [0..11]
Info:     level 1:  [0..5] x [0..5] x [0..5]
Info:     level 2:  [0..2] x [0..2] x [0..2]
Info: MSM finished calculating stencils
Info: MSM finished creating map for grid levels
Info: MSM finished creating map for patches
Info: MSM has 9 interpolation / anterpolation objects (one per patch)
Info: MSM grid level 0 decomposed into 8 blocks ( 2 x 2 x 2 )
Info: MSM grid level 1 decomposed into 1 block ( 1 x 1 x 1 )
Info: MSM grid level 2 decomposed into 1 block ( 1 x 1 x 1 )
Info: MSM grid cutoff calculation decomposed into 783 work objects
TCL: Minimizing for 100 steps
ETITLE: TS BOND ANGLE DIHED IMPRP ELECT VDW BOUNDARY MISC KINETIC TOTAL TEMP POTENTIAL TOTAL3 TEMPAVG PRESSURE GPRESSURE VOLUME PRESSAVG GPRESSAVG
ENERGY: 0 0.0000 0.0000 0.0000 0.0000 -7348.6496 6353.7252 0.0000 0.0000 0.0000 -994.9244 0.0000 -994.9244 -994.9244 0.0000 75204.0846 46356.0500 27000.0000 75204.0846 46356.0500
ENERGY: 20 0.0000 0.0000 0.0000 0.0000 -8744.5977 644.7588 0.0000 0.0000 0.0000 -8099.8389 0.0000 -8099.8389 -8099.8389 0.0000 14286.6723 -2608.4245 27000.0000 14286.6723 -2608.4245
ENERGY: 40 0.0000 0.0000 0.0000 0.0000 -9255.3680 673.7887 0.0000 0.0000 0.0000 -8581.5793 0.0000 -8581.5793 -8581.5793 0.0000 14306.7124 -3612.4723 27000.0000 14306.7124 -3612.4723
ENERGY: 60 0.0000 0.0000 0.0000 0.0000 -9570.7008 738.1055 0.0000 0.0000 0.0000 -8832.5953 0.0000 -8832.5953 -8832.5953 0.0000 14889.9953 -3661.0807 27000.0000 14889.9953 -3661.0807
ENERGY: 80 0.0000 0.0000 0.0000 0.0000 -9709.8934 782.3624 0.0000 0.0000 0.0000 -8927.5310 0.0000 -8927.5310 -8927.5310 0.0000 15330.6795 -3519.6745 27000.0000 15330.6795 -3519.6745
ENERGY: 100 0.0000 0.0000 0.0000 0.0000 -9872.7830 825.2818 0.0000 0.0000 0.0000 -9047.5012 0.0000 -9047.5012 -9047.5012 0.0000 15763.6545 15684.6785 27000.0000 15763.6545 15684.6785
TCL: Running for 1000 steps
ETITLE: TS BOND ANGLE DIHED IMPRP ELECT VDW BOUNDARY MISC KINETIC TOTAL TEMP POTENTIAL TOTAL3 TEMPAVG PRESSURE GPRESSURE VOLUME PRESSAVG GPRESSAVG
ENERGY: 100 0.0000 0.0000 0.0000 0.0000 -9872.7830 825.2818 0.0000 0.0000 1497.9662 -7549.5349 304.3856 -9047.5011 -7549.7901 304.3856 -4737.2872 -4737.2872 27000.0000 -4737.2872 -4737.2872
ENERGY: 300 0.0000 0.0000 0.0000 0.0000 -9422.1253 892.2222 0.0000 0.0000 994.9251 -7534.9780 202.1680 -8529.9031 -7534.2006 202.1472 -2698.5268 -2703.7097 27000.0000 -2697.4213 -2694.5633
ENERGY: 500 0.0000 0.0000 0.0000 0.0000 -9564.8979 988.3859 0.0000 0.0000 1071.5211 -7504.9909 217.7323 -8576.5120 -7504.7488 216.5612 -1836.0054 -1835.3321 27000.0000 -1802.6658 -1802.8822
ENERGY: 700 0.0000 0.0000 0.0000 0.0000 -9615.2332 1005.0303 0.0000 0.0000 1111.1103 -7499.0925 225.7768 -8610.2029 -7499.0623 224.0853 -1813.6873 -1807.4132 27000.0000 -1778.0935 -1777.3018
ENERGY: 900 0.0000 0.0000 0.0000 0.0000 -9579.5112 992.4360 0.0000 0.0000 1098.1125 -7488.9627 223.1356 -8587.0753 -7488.4045 223.2910 -1794.1909 -1792.3391 27000.0000 -1798.7820 -1797.2143
ENERGY: 1100 0.0000 0.0000 0.0000 0.0000 -9692.3292 1090.0554 0.0000 0.0000 1118.1128 -7484.1610 227.1997 -8602.2738 -7484.0406 227.8553 -901.1690 -902.0096 27000.0000 -901.7082 -902.8327
