Info: SIMULATION PARAMETERS:
Info: TIMESTEP               2
Info: NUMBER OF STEPS        0
Info: STEPS PER CYCLE        10
Info: PERIODIC CELL BASIS 1  31.5456 0 0
Info: PERIODIC CELL BASIS 2  0 31.1246 0
Info: PERIODIC CELL BASIS 3  0 0 31.3988
Info: PERIODIC CELL CENTER   0 0 0
Info: WRAPPING WATERS AROUND PERIODIC BOUNDARIES ON OUTPUT.
Info: WRAPPING ALL CLUSTERS AROUND PERIODIC BOUNDARIES ON OUTPUT.
Info: FIRST LDB TIMESTEP     50
Info: LAST LDB TIMESTEP     -1
Info: HOM BACKGROUND SCALING 1
Info: PME BACKGROUND SCALING 1
Info: MIN ATOMS PER PATCH    40
Info: EMPTY PATCH LOAD       40 ATOMS
Info: VELOCITY FILE          mobley_8006582_equil.vel
Info: CENTER OF MASS MOVING INITIALLY? NO
Info: DIELECTRIC             1
Info: EXCLUDE                SCALED ONE-FOUR
Info: 1-4 ELECTROSTATICS SCALED BY 0.833333
Info: MODIFIED 1-4 VDW PARAMETERS WILL BE USED
Info: DCD FILENAME           mobley_8006582_prod.dcd
Info: DCD FREQUENCY          100000
Info: DCD FIRST STEP         100000
Info: DCD FILE WILL CONTAIN UNIT CELL DATA
Info: XST FILENAME           mobley_8006582_prod.xst
Info: XST FREQUENCY          100000
Info: NO VELOCITY DCD OUTPUT
Info: NO FORCE DCD OUTPUT
Info: OUTPUT FILENAME        mobley_8006582_prod
Info: BINARY OUTPUT FILES WILL BE USED
Info: RESTART FILENAME       mobley_8006582_prod.restart
Info: RESTART FREQUENCY      100000
Info: BINARY RESTART FILES WILL BE USED
Info: CUTOFF                 9
Info: PAIRLIST DISTANCE      11
Info: PAIRLIST SHRINK RATE   0.01
Info: PAIRLIST GROW RATE     0.01
Info: PAIRLIST TRIGGER       0.3
Info: PAIRLISTS PER CYCLE    2
Info: PAIRLISTS ENABLED
Info: MARGIN                 2
Info: HYDROGEN GROUP CUTOFF  2.5
Info: PATCH DIMENSION        15.5
Info: ENERGY OUTPUT STEPS    100000
Info: ENERGY EVALUATION STEPS    100000
Info: OUTPUT ENERGY PRECISION 4
Info: CROSSTERM ENERGY INCLUDED IN DIHEDRAL
Info: TIMING OUTPUT STEPS    1000000
Info: PRESSURE OUTPUT STEPS  100000
Info: ALCHEMICAL FEP ON
Info: FEP CURRENT LAMBDA VALUE     1
Info: FEP COMPARISON LAMBDA VALUE  0.95
Info: FEP INTRA-ALCHEMICAL NON-BONDED INTERACTIONS WILL BE RETAINED
Info: FEP INTRA-ALCHEMICAL BONDED INTERACTIONS WILL BE RETAINED
Info: FEP VDW SHIFTING COEFFICIENT 5
Info: FEP ELEC. ACTIVE FOR ANNIHILATED PARTICLES BETWEEN LAMBDA = 0 AND LAMBDA = 0.5
Info: FEP ELEC. ACTIVE FOR EXNIHILATED PARTICLES BETWEEN LAMBDA = 0.5 AND LAMBDA = 1
Info: FEP VDW ACTIVE FOR ANNIHILATED PARTICLES BETWEEN LAMBDA = 0 AND LAMBDA = 1
Info: FEP VDW ACTIVE FOR EXNIHILATED PARTICLES BETWEEN LAMBDA = 0 AND LAMBDA = 1
Info: FEP BOND ACTIVE FOR ANNIHILATED PARTICLES BETWEEN LAMBDA = 1 AND LAMBDA = 1
Info: FEP BOND ACTIVE FOR EXNIHILATED PARTICLES BETWEEN LAMBDA = 0 AND LAMBDA = 0
Info: LANGEVIN DYNAMICS ACTIVE
Info: LANGEVIN TEMPERATURE   300
Info: LANGEVIN USING BBK INTEGRATOR
Info: LANGEVIN DAMPING COEFFICIENT IS 1 INVERSE PS
Info: LANGEVIN DYNAMICS APPLIED TO HYDROGENS
Info: LANGEVIN PISTON PRESSURE CONTROL ACTIVE
Info:        TARGET PRESSURE IS 1.01325 BAR
Info:     OSCILLATION PERIOD IS 50 FS
Info:             DECAY TIME IS 25 FS
Info:     PISTON TEMPERATURE IS 300 K
Info:       PRESSURE CONTROL IS GROUP-BASED
Info:    INITIAL STRAIN RATE IS -7.21505e-05 -7.21505e-05 -7.21505e-05
Info:       CELL FLUCTUATION IS ISOTROPIC
Info: PARTICLE MESH EWALD (PME) ACTIVE
Info: PME TOLERANCE               1e-06
Info: PME EWALD COEFFICIENT       0.348832
Info: PME INTERPOLATION ORDER     4
Info: PME GRID DIMENSIONS         32 32 32
Info: PME MAXIMUM GRID SPACING    1
Info: PME CALCULATION WILL BE PERFORMED ON GPU
Info: FULL ELECTROSTATIC EVALUATION FREQUENCY      2
Info: USING VERLET I (r-RESPA) MTS SCHEME.
Info: C1 SPLITTING OF LONG RANGE ELECTROSTATICS
Info: PLACING ATOMS IN PATCHES BY HYDROGEN GROUPS
Info: RIGID BONDS TO HYDROGEN : ALL
Info:         ERROR TOLERANCE : 1e-08
Info:          MAX ITERATIONS : 100
Info: RIGID WATER USING SETTLE ALGORITHM
Info: RANDOM NUMBER SEED     1742284272
Info: USE HYDROGEN BONDS?    NO
Info: Using AMBER format force field!
Info: AMBER PARM FILE        mobley_8006582.prmtop
Info: COORDINATE PDB         mobley_8006582.pdb
Info: Exclusions will be read from PARM file!
Info: SCNB (VDW SCALING)     2
Info: USING ARITHMETIC MEAN TO COMBINE L-J SIGMA PARAMETERS
Info: BINARY COORDINATES     mobley_8006582_equil.coor
Info: SUMMARY OF PARAMETERS:
Info: 4 BONDS
Info: 3 ANGLES
Info:   3 HARMONIC
Info:   0 COSINE-BASED
Info: 3 DIHEDRAL
Info: 0 IMPROPER
Info: 0 CROSSTERM
Info: 0 VDW
Info: 10 VDW_PAIRS
Info: 0 NBTHOLE_PAIRS
Info: To read alchdata from file: mobley_8006582.pdb
Info: To read alchflag data from column: 5
Info: STRUCTURE SUMMARY:
Info: 2991 ATOMS
Info: 2991 BONDS
Info: 30 ANGLES
Info: 45 DIHEDRALS
Info: 0 IMPROPERS
Info: 0 CROSSTERMS
Info: 3061 EXCLUSIONS
Info: 2986 RIGID BONDS
Info: ALCH: 0 ATOMS TO DISAPPEAR IN FINAL STATE
Info: ALCH: 15 ATOMS TO APPEAR IN FINAL STATE
Info: 5987 DEGREES OF FREEDOM
Info: 997 HYDROGEN GROUPS
Info: 3 ATOMS IN LARGEST HYDROGEN GROUP
Info: 997 MIGRATION GROUPS
Info: 3 ATOMS IN LARGEST MIGRATION GROUP
Info: TOTAL MASS = 17942 amu
Info: TOTAL CHARGE = -0.000499971 e
Info: MASS DENSITY = 0.966441 g/cm^3
Info: ATOM DENSITY = 0.09702 atoms/A^3
Info: ADDED 0 IMPLICIT EXCLUSIONS
Info: NONBONDED TABLE R-SQUARED SPACING: 0.0625
Info: NONBONDED TABLE SIZE: 705 POINTS
Info: REMOVING COM VELOCITY -0.101959 0.209333 0.125304
Info: Use 3D box decompostion in PME FFT.
Info: Updated CUDA force table with 4096 elements.
Info: Updated CUDA LJ table with 4 x 4 elements.
Info: Found 18 unique exclusion lists needing 40 bytes
TCL: Running for 1500000 steps
ETITLE: TS BOND ANGLE DIHED IMPRP ELECT VDW BOUNDARY MISC KINETIC TOTAL TEMP POTENTIAL TOTALAVG TEMPAVG PRESSURE GPRESSURE VOLUME PRESSAVG GPRESSAVG
ENERGY: 0 2.5245 14.4638 11.2281 0.0000 -10720.4996 1460.0903 0.0000 0.0000 1775.4433 -7456.7496 298.4612 -9232.1930 -7456.7496 298.4612 291.2459 375.0555 30828.6854 291.2459 375.0555
ENERGY: 300000 1.4246 13.7577 10.0286 0.0000 -10948.7314 1608.3950 0.0000 0.0000 1782.5102 -7532.6151 299.6492 -9315.1254 -7550.7450 296.0807 1276.7112 1376.6681 30799.5310 164.4533 248.5607
ENERGY: 600000 4.2233 14.6240 7.1925 0.0000 -10841.7297 1471.4926 0.0000 0.0000 1781.6790 -7562.5183 299.5095 -9344.1973 -7539.6011 298.0603 346.9727 458.5611 30426.6929 77.2997 163.5162
ENERGY: 900000 2.9643 9.6392 8.4492 0.0000 -10881.9625 1475.0318 0.0000 0.0000 1866.0136 -7519.8644 313.6866 -9385.8780 -7541.6299 300.3895 147.2739 163.4249 30881.0810 30.5544 102.3740
ENERGY: 1200000 2.0570 7.1942 11.7006 0.0000 -10759.5261 1448.9425 0.0000 0.0000 1855.0749 -7434.5568 311.8477 -9289.6318 -7537.7283 302.0029 -20.8206 25.6953 31151.5148 75.7226 146.4350
ENERGY: 1500000 1.4865 8.9371 10.7439 0.0000 -10930.9046 1509.5262 0.0000 0.0000 1804.3988 -7595.8121 303.3288 -9400.2109 -7548.2656 301.9611 267.6050 327.4301 30794.9716 81.6654 155.9730
TCL: Running FEP window   2: Lambda1 0.95   Lambda2 0.8999999999999999 [dLambda -0.050000000000000044]
TCL: Setting parameter firsttimestep to 0
TCL: Setting parameter alchLambda to 0.95
Info: NONBONDED TABLE R-SQUARED SPACING: 0.0625
Info: NONBONDED TABLE SIZE: 705 POINTS
TCL: Setting parameter alchLambda2 to 0.8999999999999999
Info: NONBONDED TABLE R-SQUARED SPACING: 0.0625
Info: NONBONDED TABLE SIZE: 705 POINTS
TCL: Running for 1500000 steps
ETITLE: TS BOND ANGLE DIHED IMPRP ELECT VDW BOUNDARY MISC KINETIC TOTAL TEMP POTENTIAL TOTALAVG TEMPAVG PRESSURE GPRESSURE VOLUME PRESSAVG GPRESSAVG
ENERGY: 0 1.4865 8.9371 10.7439 0.0000 -10930.8892 1509.9893 0.0000 0.0000 1803.4926 -7596.2398 303.1765 -9399.7324 -7596.2398 303.1765 240.4239 322.2605 30794.9716 240.4239 322.2605
ENERGY: 300000 1.6222 10.8296 10.3746 0.0000 -10878.8176 1410.4625 0.0000 0.0000 1744.3650 -7701.1638 293.2368 -9445.5288 -7585.4725 300.0069 -623.2550 -557.8173 30746.8937 -243.7211 -173.4257
ENERGY: 600000 1.5877 11.7980 9.4057 0.0000 -10871.3943 1523.5758 0.0000 0.0000 1798.8323 -7526.1947 302.3930 -9325.0270 -7599.7223 300.1362 836.5601 861.7975 30535.5331 -122.6928 -35.0961
ENERGY: 900000 2.6916 11.7422 10.2861 0.0000 -11032.4927 1617.9388 0.0000 0.0000 1839.6314 -7550.2026 309.2516 -9389.8339 -7576.1555 299.9264 1342.8609 1422.5299 30372.8409 -57.4829 37.1829
ENERGY: 1200000 2.7726 9.9387 11.1946 0.0000 -10634.8933 1309.2156 0.0000 0.0000 1790.7955 -7510.9763 301.0420 -9301.7719 -7572.6521 299.8714 -824.7544 -805.0583 30799.5109 -121.9139 -31.5406
ENERGY: 1500000 1.5188 10.0425 10.0690 0.0000 -10803.4619 1473.1907 0.0000 0.0000 1823.4404 -7485.2005 306.5298 -9308.6409 -7574.5627 300.0443 301.4162 334.0785 30766.2067 -5.4094 71.8126
TCL: Running FEP window   3: Lambda1 0.8999999999999999 Lambda2 0.8499999999999999 [dLambda -0.050000000000000044]
TCL: Setting parameter firsttimestep to 0
TCL: Setting parameter alchLambda to 0.8999999999999999
Info: NONBONDED TABLE R-SQUARED SPACING: 0.0625
Info: NONBONDED TABLE SIZE: 705 POINTS
TCL: Setting parameter alchLambda2 to 0.8499999999999999
Info: NONBONDED TABLE R-SQUARED SPACING: 0.0625
Info: NONBONDED TABLE SIZE: 705 POINTS
TCL: Running for 1500000 steps
ETITLE: TS BOND ANGLE DIHED IMPRP ELECT VDW BOUNDARY MISC KINETIC TOTAL TEMP POTENTIAL TOTALAVG TEMPAVG PRESSURE GPRESSURE VOLUME PRESSAVG GPRESSAVG
ENERGY: 0 1.5188 10.0425 10.0690 0.0000 -10803.4505 1473.3477 0.0000 0.0000 1822.5330 -7485.9395 306.3773 -9308.4725 -7485.9395 306.3773 238.9527 325.6644 30766.2067 238.9527 325.6644
ENERGY: 300000 2.0162 9.4165 8.7083 0.0000 -10847.6404 1488.2715 0.0000 0.0000 1740.1784 -7599.0495 292.5330 -9339.2278 -7522.4585 301.5693 340.9632 409.9762 30627.9686 94.3868 143.1506
ENERGY: 600000 1.5202 8.1500 11.5153 0.0000 -10873.3809 1482.3092 0.0000 0.0000 1770.4017 -7599.4845 297.6137 -9369.8863 -7549.8879 300.5024 -193.8829 -143.2038 31376.7089 -50.6577 12.5402
ENERGY: 900000 2.2986 11.4675 8.9770 0.0000 -10875.1113 1484.4341 0.0000 0.0000 1761.0976 -7606.8365 296.0497 -9367.9341 -7562.5366 299.2995 -21.4772 68.2170 30771.5216 -31.0403 30.1747
ENERGY: 1200000 2.4369 13.7611 9.1982 0.0000 -10822.0164 1427.0414 0.0000 0.0000 1794.2577 -7575.3212 301.6240 -9369.5788 -7572.5013 298.9692 -409.1726 -298.2501 30595.8695 -168.5263 -103.9799
ENERGY: 1500000 0.7204 11.9906 7.6926 0.0000 -10768.7041 1390.7979 0.0000 0.0000 1769.1251 -7588.3775 297.3991 -9357.5026 -7568.4425 299.5853 -406.2761 -407.4228 30771.9143 -185.5636 -121.6494
TCL: Running FEP window   4: Lambda1 0.8499999999999999 Lambda2 0.7999999999999998 [dLambda -0.050000000000000044]
TCL: Setting parameter firsttimestep to 0
TCL: Setting parameter alchLambda to 0.8499999999999999
Info: NONBONDED TABLE R-SQUARED SPACING: 0.0625
Info: NONBONDED TABLE SIZE: 705 POINTS
TCL: Setting parameter alchLambda2 to 0.7999999999999998
Info: NONBONDED TABLE R-SQUARED SPACING: 0.0625
Info: NONBONDED TABLE SIZE: 705 POINTS
TCL: Running for 1500000 steps
ETITLE: TS BOND ANGLE DIHED IMPRP ELECT VDW BOUNDARY MISC KINETIC TOTAL TEMP POTENTIAL TOTALAVG TEMPAVG PRESSURE GPRESSURE VOLUME PRESSAVG GPRESSAVG
ENERGY: 0 0.7204 11.9906 7.6926 0.0000 -10768.6955 1390.7245 0.0000 0.0000 1768.2009 -7589.3664 297.2438 -9357.5674 -7589.3664 297.2438 -520.3540 -419.8648 30771.9143 -520.3540 -419.8648
ENERGY: 300000 1.5466 10.5959 9.4087 0.0000 -10800.9940 1431.9341 0.0000 0.0000 1815.4024 -7532.1063 305.1786 -9347.5088 -7596.0605 298.7837 -14.4866 8.8456 30582.5027 -423.2758 -358.4271
ENERGY: 600000 1.4032 12.3289 10.1562 0.0000 -10836.6210 1450.7249 0.0000 0.0000 1777.7200 -7584.2877 298.8440 -9362.0077 -7554.7195 300.2692 5.6411 55.7409 30848.1192 -302.2186 -247.9847
ENERGY: 900000 0.9495 11.7989 11.1592 0.0000 -10821.9295 1423.7406 0.0000 0.0000 1760.2859 -7613.9955 295.9132 -9374.2814 -7569.5637 300.7010 -410.3057 -418.4167 31015.1303 -244.6947 -191.6011
ENERGY: 1200000 0.5386 15.2766 9.9469 0.0000 -10712.4397 1336.2573 0.0000 0.0000 1827.7043 -7522.7161 307.2466 -9350.4204 -7567.3620 301.3620 -910.2755 -843.5018 31038.2950 -345.7079 -286.5531
ENERGY: 1500000 0.4804 10.9485 9.6955 0.0000 -10878.4714 1453.9500 0.0000 0.0000 1797.6443 -7605.7527 302.1933 -9403.3970 -7562.7979 301.4526 -389.7924 -267.7517 31234.5403 -337.6542 -273.3117
TCL: Running FEP window   5: Lambda1 0.7999999999999998 Lambda2 0.7499999999999998 [dLambda -0.050000000000000044]
TCL: Setting parameter firsttimestep to 0
TCL: Setting parameter alchLambda to 0.7999999999999998
Info: NONBONDED TABLE R-SQUARED SPACING: 0.0625
Info: NONBONDED TABLE SIZE: 705 POINTS
TCL: Setting parameter alchLambda2 to 0.7499999999999998
Info: NONBONDED TABLE R-SQUARED SPACING: 0.0625
Info: NONBONDED TABLE SIZE: 705 POINTS
TCL: Running for 1500000 steps
ETITLE: TS BOND ANGLE DIHED IMPRP ELECT VDW BOUNDARY MISC KINETIC TOTAL TEMP POTENTIAL TOTALAVG TEMPAVG PRESSURE GPRESSURE VOLUME PRESSAVG GPRESSAVG
ENERGY: 0 0.4804 10.9485 9.6955 0.0000 -10878.4674 1454.3885 0.0000 0.0000 1796.7944 -7606.1600 302.0505 -9402.9544 -7606.1600 302.0505 -362.7599 -271.1133 31234.5403 -362.7599 -271.1133
ENERGY: 300000 2.9866 8.1434 11.3902 0.0000 -10872.5311 1504.0951 0.0000 0.0000 1780.8619 -7565.0540 299.3721 -9345.9160 -7566.6790 303.0065 277.9027 282.5599 30993.2670 -368.9368 -337.2695
ENERGY: 600000 0.9525 11.4534 9.1869 0.0000 -10872.1734 1485.4191 0.0000 0.0000 1798.9844 -7566.1772 302.4186 -9365.1615 -7555.2841 302.6115 152.3969 235.8799 30604.3610 -72.4862 -9.9897
ENERGY: 900000 0.7072 10.9954 8.4248 0.0000 -10874.7986 1456.5711 0.0000 0.0000 1760.0563 -7638.0437 295.8746 -9398.1000 -7556.9135 301.7494 45.4352 65.0964 30650.9358 119.7698 180.0326
ENERGY: 1200000 0.4781 11.5879 9.1282 0.0000 -10889.4163 1515.1746 0.0000 0.0000 1778.2102 -7574.8373 298.9264 -9353.0475 -7565.7210 299.9299 326.5367 410.4240 30928.6934 148.3045 215.1380
ENERGY: 1500000 2.1894 10.3955 9.3591 0.0000 -10850.0097 1450.9910 0.0000 0.0000 1760.8134 -7616.2613 296.0019 -9377.0747 -7567.9280 299.6278 -166.8675 -114.9429 30956.4934 93.2273 156.9303
TCL: Running FEP window   6: Lambda1 0.7499999999999998 Lambda2 0.6999999999999997 [dLambda -0.050000000000000044]
TCL: Setting parameter firsttimestep to 0
TCL: Setting parameter alchLambda to 0.7499999999999998
Info: NONBONDED TABLE R-SQUARED SPACING: 0.0625
Info: NONBONDED TABLE SIZE: 705 POINTS
TCL: Setting parameter alchLambda2 to 0.6999999999999997
Info: NONBONDED TABLE R-SQUARED SPACING: 0.0625
Info: NONBONDED TABLE SIZE: 705 POINTS
TCL: Running for 1500000 steps
ETITLE: TS BOND ANGLE DIHED IMPRP ELECT VDW BOUNDARY MISC KINETIC TOTAL TEMP POTENTIAL TOTALAVG TEMPAVG PRESSURE GPRESSURE VOLUME PRESSAVG GPRESSAVG
ENERGY: 0 2.1894 10.3955 9.3591 0.0000 -10850.0387 1451.4173 0.0000 0.0000 1759.9171 -7616.7603 295.8512 -9376.6774 -7616.7603 295.8512 -210.9740 -117.3276 30956.4934 -210.9740 -117.3276
ENERGY: 300000 0.6950 9.0712 10.3366 0.0000 -10932.2483 1525.4826 0.0000 0.0000 1792.4583 -7594.2045 301.3215 -9386.6629 -7618.3056 298.5335 616.0137 672.9933 30338.2050 146.2406 208.3331
ENERGY: 600000 0.7540 11.7456 8.2220 0.0000 -10760.6887 1382.0203 0.0000 0.0000 1773.5511 -7584.3957 298.1432 -9357.9468 -7596.4907 300.5020 -451.7608 -385.1311 30622.8035 -113.6201 -48.5151
ENERGY: 900000 1.5717 15.2184 8.3007 0.0000 -10864.8344 1463.1703 0.0000 0.0000 1835.3300 -7541.2433 308.5285 -9376.5733 -7599.6037 300.9504 147.3905 117.5256 30445.4309 -113.1101 -53.2762
ENERGY: 1200000 0.5649 8.0662 10.5463 0.0000 -10720.0768 1416.9038 0.0000 0.0000 1788.7196 -7495.2762 300.6930 -9283.9957 -7592.0558 300.6112 -57.1019 -20.6132 30825.6904 10.2090 63.1190
ENERGY: 1500000 2.4502 6.7146 13.4325 0.0000 -10748.4659 1399.9244 0.0000 0.0000 1813.7465 -7512.1977 304.9002 -9325.9442 -7582.4747 300.4376 -290.0382 -262.3042 30808.5806 -66.5281 -13.5960
TCL: Running FEP window   7: Lambda1 0.6999999999999997 Lambda2 0.6499999999999997 [dLambda -0.050000000000000044]
TCL: Setting parameter firsttimestep to 0
TCL: Setting parameter alchLambda to 0.6999999999999997
Info: NONBONDED TABLE R-SQUARED SPACING: 0.0625
Info: NONBONDED TABLE SIZE: 705 POINTS
TCL: Setting parameter alchLambda2 to 0.6499999999999997
Info: NONBONDED TABLE R-SQUARED SPACING: 0.0625
Info: NONBONDED TABLE SIZE: 705 POINTS
TCL: Running for 1500000 steps
ETITLE: TS BOND ANGLE DIHED IMPRP ELECT VDW BOUNDARY MISC KINETIC TOTAL TEMP POTENTIAL TOTALAVG TEMPAVG PRESSURE GPRESSURE VOLUME PRESSAVG GPRESSAVG
ENERGY: 0 2.4502 6.7146 13.4325 0.0000 -10748.4660 1400.4522 0.0000 0.0000 1812.8642 -7512.5523 304.7519 -9325.4164 -7512.5523 304.7519 -351.0261 -264.6186 30808.5806 -351.0261 -264.6186
ENERGY: 300000 0.6329 12.8708 8.0190 0.0000 -10847.8509 1453.1508 0.0000 0.0000 1765.3147 -7607.8627 296.7586 -9373.1774 -7561.6462 301.2504 -282.7956 -141.9518 30907.6287 -316.2655 -235.0542
ENERGY: 600000 2.2592 12.5501 7.9058 0.0000 -10906.1218 1583.4290 0.0000 0.0000 1790.1169 -7509.8607 300.9279 -9299.9776 -7556.5354 300.4246 1434.0667 1428.1104 30287.0925 -9.7715 54.2532
ENERGY: 900000 2.8406 13.5640 9.2855 0.0000 -10786.4442 1404.5076 0.0000 0.0000 1769.9464 -7586.3000 297.5372 -9356.2464 -7571.7889 299.5572 -515.7019 -503.0926 30847.3059 -151.6251 -106.9853
ENERGY: 1200000 0.6565 11.4168 11.7159 0.0000 -10873.5564 1445.5430 0.0000 0.0000 1780.7930 -7623.4312 299.3605 -9404.2242 -7574.8390 299.1895 -208.2933 -84.8723 30504.3899 -109.1976 -54.9641
ENERGY: 1500000 3.1059 10.3217 10.4169 0.0000 -10992.4284 1614.4995 0.0000 0.0000 1777.7147 -7576.3697 298.8431 -9354.0844 -7583.2304 298.9422 1376.9914 1517.5808 30380.2275 29.2583 89.9256
TCL: Running FEP window   8: Lambda1 0.6499999999999997 Lambda2 0.5999999999999996 [dLambda -0.050000000000000044]
TCL: Setting parameter firsttimestep to 0
TCL: Setting parameter alchLambda to 0.6499999999999997
Info: NONBONDED TABLE R-SQUARED SPACING: 0.0625
Info: NONBONDED TABLE SIZE: 705 POINTS
TCL: Setting parameter alchLambda2 to 0.5999999999999996
Info: NONBONDED TABLE R-SQUARED SPACING: 0.0625
Info: NONBONDED TABLE SIZE: 705 POINTS
TCL: Running for 1500000 steps
ETITLE: TS BOND ANGLE DIHED IMPRP ELECT VDW BOUNDARY MISC KINETIC TOTAL TEMP POTENTIAL TOTALAVG TEMPAVG PRESSURE GPRESSURE VOLUME PRESSAVG GPRESSAVG
ENERGY: 0 3.1059 10.3217 10.4169 0.0000 -10992.4275 1615.0527 0.0000 0.0000 1776.8402 -7576.6902 298.6961 -9353.5303 -7576.6902 298.6961 1436.7480 1518.8514 30380.2275 1436.7480 1518.8514
ENERGY: 300000 2.5876 8.7830 12.3618 0.0000 -10757.6560 1409.1331 0.0000 0.0000 1804.1425 -7520.6480 303.2857 -9324.7905 -7556.7845 299.4336 -246.0791 -154.2923 30883.4088 132.2734 223.2034
ENERGY: 600000 3.3638 11.8492 7.4627 0.0000 -10712.3654 1429.6707 0.0000 0.0000 1807.3777 -7452.6414 303.8296 -9260.0191 -7560.9404 297.9430 21.2034 107.6198 30667.7887 105.1066 188.8228
ENERGY: 900000 0.3816 12.9457 7.5330 0.0000 -10778.4491 1348.6347 0.0000 0.0000 1788.0743 -7620.8799 300.5846 -9408.9541 -7560.5950 299.1672 -765.8235 -709.1285 30557.3026 -36.2337 42.8001
ENERGY: 1200000 1.2334 14.0237 9.9476 0.0000 -11033.8756 1512.5607 0.0000 0.0000 1794.1516 -7701.9586 301.6062 -9496.1102 -7579.7048 299.8019 149.4464 248.9689 30613.2863 -123.8144 -46.2870
ENERGY: 1500000 1.6030 7.4303 12.7641 0.0000 -10797.7633 1402.3101 0.0000 0.0000 1776.3874 -7597.2685 298.6199 -9373.6559 -7584.2220 300.0867 -431.5639 -367.4193 30808.5987 -129.1304 -54.2936
TCL: Running FEP window   9: Lambda1 0.5999999999999996 Lambda2 0.5499999999999996 [dLambda -0.050000000000000044]
TCL: Setting parameter firsttimestep to 0
TCL: Setting parameter alchLambda to 0.5999999999999996
Info: NONBONDED TABLE R-SQUARED SPACING: 0.0625
Info: NONBONDED TABLE SIZE: 705 POINTS
TCL: Setting parameter alchLambda2 to 0.5499999999999996
Info: NONBONDED TABLE R-SQUARED SPACING: 0.0625
Info: NONBONDED TABLE SIZE: 705 POINTS
TCL: Running for 1500000 steps
ETITLE: TS BOND ANGLE DIHED IMPRP ELECT VDW BOUNDARY MISC KINETIC TOTAL TEMP POTENTIAL TOTALAVG TEMPAVG PRESSURE GPRESSURE VOLUME PRESSAVG GPRESSAVG
ENERGY: 0 1.6030 7.4303 12.7641 0.0000 -10797.7646 1402.4704 0.0000 0.0000 1775.4845 -7598.0124 298.4682 -9373.4969 -7598.0124 298.4682 -468.2584 -369.4487 30808.5987 -468.2584 -369.4487
ENERGY: 300000 1.9202 10.9443 9.3549 0.0000 -10986.8729 1552.7852 0.0000 0.0000 1719.3526 -7692.5156 289.0321 -9411.8682 -7587.4951 297.2397 776.1436 802.7032 30199.9371 -79.4125 -9.7828
ENERGY: 600000 2.0642 13.3956 8.5670 0.0000 -10872.8739 1488.4910 0.0000 0.0000 1773.4250 -7586.9311 298.1220 -9360.3561 -7583.0245 299.3187 552.4951 584.6481 30308.1014 -175.2384 -119.4925
ENERGY: 900000 0.2025 10.3802 9.5998 0.0000 -10725.1920 1363.0057 0.0000 0.0000 1755.9654 -7586.0384 295.1869 -9342.0038 -7593.8987 298.3635 -646.6822 -560.0465 30925.4764 -230.6691 -165.2418
ENERGY: 1200000 1.8140 16.2296 8.5377 0.0000 -10827.6786 1423.3115 0.0000 0.0000 1807.6361 -7570.1498 303.8730 -9377.7859 -7597.7064 298.5098 -308.0817 -248.5020 30588.5029 -217.4084 -149.6707
ENERGY: 1500000 1.8213 12.4903 8.7719 0.0000 -10899.3046 1469.0358 0.0000 0.0000 1794.4452 -7612.7401 301.6555 -9407.1853 -7594.9620 299.6162 -257.4639 -159.1140 30864.6273 -249.5280 -180.0265
TCL: Running FEP window  10: Lambda1 0.5499999999999996 Lambda2 0.4999999999999996 [dLambda -0.04999999999999999]
TCL: Setting parameter firsttimestep to 0
TCL: Setting parameter alchLambda to 0.5499999999999996
Info: NONBONDED TABLE R-SQUARED SPACING: 0.0625
Info: NONBONDED TABLE SIZE: 705 POINTS
TCL: Setting parameter alchLambda2 to 0.4999999999999996
Info: NONBONDED TABLE R-SQUARED SPACING: 0.0625
Info: NONBONDED TABLE SIZE: 705 POINTS
TCL: Running for 1500000 steps
ETITLE: TS BOND ANGLE DIHED IMPRP ELECT VDW BOUNDARY MISC KINETIC TOTAL TEMP POTENTIAL TOTALAVG TEMPAVG PRESSURE GPRESSURE VOLUME PRESSAVG GPRESSAVG
ENERGY: 0 1.8213 12.4903 8.7719 0.0000 -10899.3048 1469.5128 0.0000 0.0000 1793.5896 -7613.1190 301.5117 -9406.7085 -7613.1190 301.5117 -248.8529 -159.1311 30864.6273 -248.8529 -159.1311
ENERGY: 300000 0.7137 7.8230 10.4275 0.0000 -10890.4241 1470.4939 0.0000 0.0000 1832.2301 -7568.7358 308.0074 -9400.9659 -7542.0477 304.1115 -7.9516 100.6001 30663.1112 -271.9493 -171.0219
ENERGY: 600000 0.3401 11.5654 9.3982 0.0000 -10947.5842 1515.8086 0.0000 0.0000 1783.9332 -7626.5388 299.8884 -9410.4720 -7567.7409 301.3371 333.7918 366.4901 30482.7876 -264.5149 -191.6563
ENERGY: 900000 2.0975 14.2187 6.8472 0.0000 -10806.9295 1408.1649 0.0000 0.0000 1774.7648 -7600.8363 298.3472 -9375.6012 -7574.9992 300.7924 -636.2883 -588.9545 30973.5867 -115.6406 -46.7286
ENERGY: 1200000 1.1829 10.8548 7.9859 0.0000 -10747.1469 1429.0211 0.0000 0.0000 1794.4743 -7503.6280 301.6604 -9298.1022 -7574.7483 300.1184 -245.9817 -261.1903 30976.3677 -79.8471 -11.9815
ENERGY: 1500000 2.2147 15.3141 10.8752 0.0000 -10843.8519 1476.8133 0.0000 0.0000 1777.5048 -7561.1297 298.8078 -9338.6346 -7574.2737 299.9157 68.3891 121.2530 30756.6936 -97.0632 -30.0208
TCL: Running FEP window  11: Lambda1 0.4999999999999996 Lambda2 0.4499999999999996 [dLambda -0.04999999999999999]
TCL: Setting parameter firsttimestep to 0
TCL: Setting parameter alchLambda to 0.4999999999999996
Info: NONBONDED TABLE R-SQUARED SPACING: 0.0625
Info: NONBONDED TABLE SIZE: 705 POINTS
TCL: Setting parameter alchLambda2 to 0.4499999999999996
Info: NONBONDED TABLE R-SQUARED SPACING: 0.0625
Info: NONBONDED TABLE SIZE: 705 POINTS
TCL: Running for 1500000 steps
ETITLE: TS BOND ANGLE DIHED IMPRP ELECT VDW BOUNDARY MISC KINETIC TOTAL TEMP POTENTIAL TOTALAVG TEMPAVG PRESSURE GPRESSURE VOLUME PRESSAVG GPRESSAVG
ENERGY: 0 2.2147 15.3141 10.8752 0.0000 -10843.8589 1476.7751 0.0000 0.0000 1776.6245 -7562.0553 298.6598 -9338.6798 -7562.0553 298.6598 33.3847 115.1371 30756.6936 33.3847 115.1371
ENERGY: 300000 1.7347 11.1122 8.6213 0.0000 -10913.4349 1513.5995 0.0000 0.0000 1800.7647 -7577.6027 302.7179 -9378.3673 -7577.3497 299.2779 473.2933 469.5902 30753.5867 -66.6138 8.8226
ENERGY: 600000 0.2959 16.1874 8.7964 0.0000 -10832.6553 1468.6906 0.0000 0.0000 1818.5551 -7520.1300 305.7085 -9338.6850 -7545.8294 301.8749 293.3916 358.0539 30342.0339 -118.5810 -44.2749
ENERGY: 900000 0.8278 11.7479 11.3497 0.0000 -10754.5700 1415.5375 0.0000 0.0000 1851.8001 -7463.3069 311.2972 -9315.1070 -7539.0843 301.5615 4.7285 74.2255 30524.5808 33.7505 100.1753
ENERGY: 1200000 1.9425 8.5143 10.4113 0.0000 -10877.2192 1485.5433 0.0000 0.0000 1779.8082 -7590.9996 299.1950 -9370.8078 -7547.3280 300.9266 -123.4338 -67.2562 31247.5336 -44.3057 16.0082
ENERGY: 1500000 1.3049 10.3438 10.9341 0.0000 -10750.4263 1424.8392 0.0000 0.0000 1785.7693 -7517.2350 300.1971 -9303.0043 -7558.1834 300.1383 -546.5861 -479.6337 31276.8415 -61.0999 -2.3815
TCL: Running FEP window  12: Lambda1 0.4499999999999996 Lambda2 0.39999999999999963 [dLambda -0.04999999999999999]
TCL: Setting parameter firsttimestep to 0
TCL: Setting parameter alchLambda to 0.4499999999999996
Info: NONBONDED TABLE R-SQUARED SPACING: 0.0625
Info: NONBONDED TABLE SIZE: 705 POINTS
TCL: Setting parameter alchLambda2 to 0.39999999999999963
Info: NONBONDED TABLE R-SQUARED SPACING: 0.0625
Info: NONBONDED TABLE SIZE: 705 POINTS
TCL: Running for 1500000 steps
ETITLE: TS BOND ANGLE DIHED IMPRP ELECT VDW BOUNDARY MISC KINETIC TOTAL TEMP POTENTIAL TOTALAVG TEMPAVG PRESSURE GPRESSURE VOLUME PRESSAVG GPRESSAVG
ENERGY: 0 1.3049 10.3438 10.9341 0.0000 -10750.4267 1425.0224 0.0000 0.0000 1784.8928 -7517.9287 300.0498 -9302.8215 -7517.9287 300.0498 -554.7070 -481.3203 31276.8415 -554.7070 -481.3203
ENERGY: 300000 0.0958 10.2238 11.7192 0.0000 -10792.6096 1403.9095 0.0000 0.0000 1772.0239 -7594.6374 297.8864 -9366.6612 -7551.6478 298.1195 -500.4497 -506.2318 30692.5195 -238.1475 -190.5335
ENERGY: 600000 1.4818 13.5331 8.3456 0.0000 -10943.8919 1497.6973 0.0000 0.0000 1783.2842 -7639.5499 299.7793 -9422.8341 -7561.8850 299.1980 34.7294 159.4879 30903.0479 -111.3249 -43.8610
ENERGY: 900000 0.8181 9.4362 10.0987 0.0000 -10896.9413 1434.2170 0.0000 0.0000 1765.7768 -7676.5943 296.8363 -9442.3712 -7581.5964 298.2124 -307.2760 -222.7050 30146.0935 -207.8125 -147.5258
ENERGY: 1200000 2.4976 7.1907 11.8798 0.0000 -10826.6345 1443.6561 0.0000 0.0000 1748.4460 -7612.9644 293.9228 -9361.4104 -7580.4001 297.6463 -208.4600 -180.4059 30941.6083 -216.9607 -160.0611
ENERGY: 1500000 1.7106 9.7502 9.5439 0.0000 -10729.5478 1417.0807 0.0000 0.0000 1778.9991 -7512.4633 299.0590 -9291.4624 -7564.6550 298.5387 -131.0415 -144.5848 30911.9084 -206.1563 -154.3910
TCL: Running FEP window  13: Lambda1 0.39999999999999963 Lambda2 0.34999999999999964 [dLambda -0.04999999999999999]
TCL: Setting parameter firsttimestep to 0
TCL: Setting parameter alchLambda to 0.39999999999999963
Info: NONBONDED TABLE R-SQUARED SPACING: 0.0625
Info: NONBONDED TABLE SIZE: 705 POINTS
TCL: Setting parameter alchLambda2 to 0.34999999999999964
Info: NONBONDED TABLE R-SQUARED SPACING: 0.0625
Info: NONBONDED TABLE SIZE: 705 POINTS
TCL: Running for 1500000 steps
ETITLE: TS BOND ANGLE DIHED IMPRP ELECT VDW BOUNDARY MISC KINETIC TOTAL TEMP POTENTIAL TOTALAVG TEMPAVG PRESSURE GPRESSURE VOLUME PRESSAVG GPRESSAVG
ENERGY: 0 1.7106 9.7502 9.5439 0.0000 -10729.5479 1417.2596 0.0000 0.0000 1778.0589 -7513.2248 298.9009 -9291.2837 -7513.2248 298.9009 -216.4166 -152.5512 30911.9084 -216.4166 -152.5512
ENERGY: 300000 1.3560 12.8734 8.6948 0.0000 -11023.5792 1596.7540 0.0000 0.0000 1765.2372 -7638.6638 296.7455 -9403.9009 -7560.7254 298.6738 762.0399 852.0205 30807.1868 36.1386 90.6414
ENERGY: 600000 0.4508 14.6508 9.0717 0.0000 -10890.4858 1452.2550 0.0000 0.0000 1730.1043 -7683.9532 290.8395 -9414.0575 -7583.9124 298.7930 -39.9955 -2.2612 30405.6212 -150.8750 -84.5775
ENERGY: 900000 0.8187 13.1154 8.7827 0.0000 -10880.8068 1429.2974 0.0000 0.0000 1730.0655 -7698.7271 290.8330 -9428.7926 -7589.9812 299.9397 -329.2848 -208.3342 30541.8030 -70.0903 -0.0189
ENERGY: 1200000 1.0698 8.2194 11.6652 0.0000 -10824.9174 1470.3213 0.0000 0.0000 1756.9927 -7576.6490 295.3596 -9333.6417 -7575.0452 299.7065 147.6593 211.6373 30639.1250 73.5744 141.0339
ENERGY: 1500000 0.9388 12.6565 9.5997 0.0000 -10930.5021 1476.3610 0.0000 0.0000 1843.8943 -7587.0519 309.9682 -9430.9462 -7578.8111 300.2231 4.4205 116.8469 30492.6325 88.2973 156.5691
TCL: Running FEP window  14: Lambda1 0.34999999999999964 Lambda2 0.29999999999999966 [dLambda -0.04999999999999999]
TCL: Setting parameter firsttimestep to 0
TCL: Setting parameter alchLambda to 0.34999999999999964
Info: NONBONDED TABLE R-SQUARED SPACING: 0.0625
Info: NONBONDED TABLE SIZE: 705 POINTS
TCL: Setting parameter alchLambda2 to 0.29999999999999966
Info: NONBONDED TABLE R-SQUARED SPACING: 0.0625
Info: NONBONDED TABLE SIZE: 705 POINTS
TCL: Running for 1500000 steps
ETITLE: TS BOND ANGLE DIHED IMPRP ELECT VDW BOUNDARY MISC KINETIC TOTAL TEMP POTENTIAL TOTALAVG TEMPAVG PRESSURE GPRESSURE VOLUME PRESSAVG GPRESSAVG
ENERGY: 0 0.9388 12.6565 9.5997 0.0000 -10930.5032 1476.7828 0.0000 0.0000 1842.9806 -7587.5448 309.8146 -9430.5255 -7587.5448 309.8146 34.1079 116.0570 30492.6325 34.1079 116.0570
ENERGY: 300000 0.3427 11.4591 9.6154 0.0000 -10810.0494 1403.2637 0.0000 0.0000 1818.8856 -7566.4829 305.7641 -9385.3685 -7557.5850 302.7070 -409.6552 -297.7477 30589.6629 128.9512 176.8899
ENERGY: 600000 1.2405 8.0612 10.5341 0.0000 -10769.8416 1386.7358 0.0000 0.0000 1786.7097 -7576.5604 300.3552 -9363.2701 -7550.9769 302.6295 -557.1173 -539.2666 30725.6644 -21.3808 30.8044
ENERGY: 900000 1.8186 13.0513 9.2907 0.0000 -10687.6319 1333.2718 0.0000 0.0000 1792.4160 -7537.7835 301.3144 -9330.1994 -7550.0793 302.7323 -842.1435 -848.9966 30610.4845 -200.0979 -149.2369
ENERGY: 1200000 1.3043 11.5060 12.7445 0.0000 -10679.7743 1375.6490 0.0000 0.0000 1782.5073 -7496.0632 299.6487 -9278.5705 -7548.0414 301.3617 -635.9120 -599.1886 31232.3541 -199.8168 -147.8486
ENERGY: 1500000 0.9963 11.2529 8.6137 0.0000 -10785.5987 1433.4801 0.0000 0.0000 1748.2563 -7582.9994 293.8910 -9331.2556 -7543.6188 300.8292 -72.5411 -62.1330 30838.5605 -158.1548 -101.6578
TCL: Running FEP window  15: Lambda1 0.29999999999999966 Lambda2 0.24999999999999967 [dLambda -0.04999999999999999]
TCL: Setting parameter firsttimestep to 0
TCL: Setting parameter alchLambda to 0.29999999999999966
Info: NONBONDED TABLE R-SQUARED SPACING: 0.0625
Info: NONBONDED TABLE SIZE: 705 POINTS
TCL: Setting parameter alchLambda2 to 0.24999999999999967
Info: NONBONDED TABLE R-SQUARED SPACING: 0.0625
Info: NONBONDED TABLE SIZE: 705 POINTS
TCL: Running for 1500000 steps
ETITLE: TS BOND ANGLE DIHED IMPRP ELECT VDW BOUNDARY MISC KINETIC TOTAL TEMP POTENTIAL TOTALAVG TEMPAVG PRESSURE GPRESSURE VOLUME PRESSAVG GPRESSAVG
ENERGY: 0 0.9963 11.2529 8.6137 0.0000 -10785.5982 1433.2477 0.0000 0.0000 1747.3984 -7584.0891 293.7467 -9331.4875 -7584.0891 293.7467 -148.6914 -68.4930 30838.5605 -148.6914 -68.4930
ENERGY: 300000 0.5875 12.2381 7.8045 0.0000 -10878.3680 1492.5071 0.0000 0.0000 1724.5155 -7640.7153 289.9000 -9365.2309 -7575.9937 298.6348 145.5448 167.1782 30769.2899 -177.9204 -118.5317
ENERGY: 600000 0.7988 10.1355 10.5448 0.0000 -10698.6931 1398.2734 0.0000 0.0000 1776.4471 -7502.4934 298.6300 -9278.9405 -7571.4352 298.2260 -387.5355 -332.6394 31015.9411 -238.0119 -194.6893
ENERGY: 900000 2.6647 9.3465 11.0940 0.0000 -10808.4923 1493.8277 0.0000 0.0000 1769.6206 -7521.9388 297.4824 -9291.5594 -7560.6257 298.6592 392.7405 456.7509 30672.6310 -106.4606 -64.3407
ENERGY: 1200000 0.4592 8.0062 10.1561 0.0000 -10910.5475 1467.8419 0.0000 0.0000 1805.4338 -7618.6503 303.5028 -9424.0841 -7564.5047 299.0534 -45.8848 -7.3845 30535.4579 -69.9062 -31.0500
ENERGY: 1500000 0.6380 13.1645 6.7695 0.0000 -10718.4460 1378.6288 0.0000 0.0000 1773.4280 -7545.8172 298.1225 -9319.2452 -7568.7073 299.1810 -630.5266 -506.7530 30895.2577 -12.9102 37.7162
TCL: Running FEP window  16: Lambda1 0.24999999999999967 Lambda2 0.19999999999999968 [dLambda -0.04999999999999999]
TCL: Setting parameter firsttimestep to 0
TCL: Setting parameter alchLambda to 0.24999999999999967
Info: NONBONDED TABLE R-SQUARED SPACING: 0.0625
Info: NONBONDED TABLE SIZE: 705 POINTS
TCL: Setting parameter alchLambda2 to 0.19999999999999968
Info: NONBONDED TABLE R-SQUARED SPACING: 0.0625
Info: NONBONDED TABLE SIZE: 705 POINTS
TCL: Running for 1500000 steps
ETITLE: TS BOND ANGLE DIHED IMPRP ELECT VDW BOUNDARY MISC KINETIC TOTAL TEMP POTENTIAL TOTALAVG TEMPAVG PRESSURE GPRESSURE VOLUME PRESSAVG GPRESSAVG
ENERGY: 0 0.6380 13.1645 6.7695 0.0000 -10718.4450 1379.0213 0.0000 0.0000 1772.5260 -7546.3257 297.9708 -9318.8517 -7546.3257 297.9708 -580.3041 -505.0129 30895.2577 -580.3041 -505.0129
ENERGY: 300000 1.4550 14.7423 7.9700 0.0000 -10883.7715 1428.1690 0.0000 0.0000 1751.3293 -7680.1059 294.4076 -9431.4352 -7612.6383 297.5134 -662.0395 -549.8833 30630.4702 -452.7802 -385.0589
ENERGY: 600000 3.5429 10.8707 8.8266 0.0000 -10874.4407 1468.3718 0.0000 0.0000 1735.8927 -7646.9361 291.8126 -9382.8288 -7602.7293 298.8512 -124.0143 -96.0312 30806.3405 -498.4769 -447.5328
ENERGY: 900000 1.6549 13.9442 8.7511 0.0000 -10926.5665 1546.1416 0.0000 0.0000 1774.1257 -7581.9490 298.2397 -9356.0746 -7593.0628 298.5413 922.3236 963.5056 30241.7618 -315.7506 -257.4121
ENERGY: 1200000 1.3381 11.8703 9.8004 0.0000 -10868.8663 1465.1730 0.0000 0.0000 1762.4171 -7618.2674 296.2715 -9380.6844 -7591.8408 298.2957 -44.3574 -34.9756 30595.5567 -214.5096 -155.2708
ENERGY: 1500000 3.5067 14.3725 9.8818 0.0000 -10913.0875 1494.4152 0.0000 0.0000 1797.0677 -7593.8436 302.0964 -9390.9113 -7590.8982 298.9375 114.6662 193.6147 30572.8910 -174.7658 -111.1801
TCL: Running FEP window  17: Lambda1 0.19999999999999968 Lambda2 0.1499999999999997 [dLambda -0.04999999999999999]
TCL: Setting parameter firsttimestep to 0
TCL: Setting parameter alchLambda to 0.19999999999999968
Info: NONBONDED TABLE R-SQUARED SPACING: 0.0625
Info: NONBONDED TABLE SIZE: 705 POINTS
TCL: Setting parameter alchLambda2 to 0.1499999999999997
Info: NONBONDED TABLE R-SQUARED SPACING: 0.0625
Info: NONBONDED TABLE SIZE: 705 POINTS
TCL: Running for 1500000 steps
ETITLE: TS BOND ANGLE DIHED IMPRP ELECT VDW BOUNDARY MISC KINETIC TOTAL TEMP POTENTIAL TOTALAVG TEMPAVG PRESSURE GPRESSURE VOLUME PRESSAVG GPRESSAVG
ENERGY: 0 3.5067 14.3725 9.8818 0.0000 -10913.0881 1494.8445 0.0000 0.0000 1796.1167 -7594.3659 301.9365 -9390.4826 -7594.3659 301.9365 117.3886 194.4991 30572.8910 117.3886 194.4991
ENERGY: 300000 0.4342 13.2793 8.7990 0.0000 -10889.4256 1493.1343 0.0000 0.0000 1817.1420 -7556.6368 305.4710 -9373.7788 -7577.3005 301.9422 146.8662 229.7676 30854.5145 -175.9568 -105.7648
ENERGY: 600000 1.2708 13.6694 8.4695 0.0000 -10843.4467 1476.8095 0.0000 0.0000 1801.0007 -7542.2268 302.7576 -9343.2275 -7563.8109 302.5809 216.2657 235.9137 30770.4225 -32.6719 45.6494
ENERGY: 900000 2.1296 10.5642 11.4534 0.0000 -11045.3548 1553.0526 0.0000 0.0000 1806.5966 -7661.5585 303.6983 -9468.1551 -7571.9029 301.7018 865.6625 951.0829 29738.4358 52.7598 124.7042
ENERGY: 1200000 2.3751 10.8798 10.3151 0.0000 -10915.1062 1434.6498 0.0000 0.0000 1773.3164 -7683.5700 298.1037 -9456.8864 -7582.4101 300.2250 -414.7184 -392.0332 30661.4303 44.7473 106.5471
ENERGY: 1500000 3.8508 12.7997 7.9898 0.0000 -10825.8961 1420.3190 0.0000 0.0000 1798.8606 -7582.0761 302.3978 -9380.9367 -7577.0744 300.4058 -417.5746 -355.6005 30496.8966 29.7169 87.7345
TCL: Running FEP window  18: Lambda1 0.1499999999999997 Lambda2 0.09999999999999969 [dLambda -0.05 ]
TCL: Setting parameter firsttimestep to 0
TCL: Setting parameter alchLambda to 0.1499999999999997
Info: NONBONDED TABLE R-SQUARED SPACING: 0.0625
Info: NONBONDED TABLE SIZE: 705 POINTS
TCL: Setting parameter alchLambda2 to 0.09999999999999969
Info: NONBONDED TABLE R-SQUARED SPACING: 0.0625
Info: NONBONDED TABLE SIZE: 705 POINTS
TCL: Running for 1500000 steps
ETITLE: TS BOND ANGLE DIHED IMPRP ELECT VDW BOUNDARY MISC KINETIC TOTAL TEMP POTENTIAL TOTALAVG TEMPAVG PRESSURE GPRESSURE VOLUME PRESSAVG GPRESSAVG
ENERGY: 0 3.8508 12.7997 7.9898 0.0000 -10825.8961 1420.5234 0.0000 0.0000 1797.9422 -7582.7902 302.2434 -9380.7323 -7582.7902 302.2434 -436.9533 -356.7352 30496.8966 -436.9533 -356.7352
ENERGY: 300000 1.4107 13.5104 11.4767 0.0000 -10850.9933 1491.6562 0.0000 0.0000 1740.0968 -7592.8424 292.5193 -9332.9392 -7565.2738 300.7309 493.0844 550.2130 30170.4721 -170.5542 -121.6450
ENERGY: 600000 0.8793 10.5200 8.2755 0.0000 -10775.1882 1450.0044 0.0000 0.0000 1787.7415 -7517.7676 300.5286 -9305.5091 -7551.5599 300.7195 231.9719 332.3952 30308.0289 -81.5765 -13.5658
ENERGY: 900000 4.4084 13.8417 8.8044 0.0000 -10741.2418 1385.9984 0.0000 0.0000 1799.6754 -7528.5136 302.5348 -9328.1890 -7563.4460 299.4665 -593.3590 -559.5888 31045.5690 -214.3654 -153.2729
ENERGY: 1200000 1.4497 12.6894 8.5623 0.0000 -10760.2166 1382.2526 0.0000 0.0000 1799.5727 -7555.6900 302.5175 -9355.2627 -7566.9383 299.0640 -685.8950 -569.6804 30753.5496 -203.2485 -141.4939
ENERGY: 1500000 0.4205 9.8791 8.8801 0.0000 -10813.6377 1438.6244 0.0000 0.0000 1807.0649 -7548.7686 303.7770 -9355.8335 -7572.0519 299.5680 -119.9061 -12.8431 30571.1102 -172.7744 -116.2376
TCL: Running FEP window  19: Lambda1 0.09999999999999969 Lambda2 0.049999999999999684 [dLambda -0.05 ]
TCL: Setting parameter firsttimestep to 0
TCL: Setting parameter alchLambda to 0.09999999999999969
Info: NONBONDED TABLE R-SQUARED SPACING: 0.0625
Info: NONBONDED TABLE SIZE: 705 POINTS
TCL: Setting parameter alchLambda2 to 0.049999999999999684
Info: NONBONDED TABLE R-SQUARED SPACING: 0.0625
Info: NONBONDED TABLE SIZE: 705 POINTS
TCL: Running for 1500000 steps
ETITLE: TS BOND ANGLE DIHED IMPRP ELECT VDW BOUNDARY MISC KINETIC TOTAL TEMP POTENTIAL TOTALAVG TEMPAVG PRESSURE GPRESSURE VOLUME PRESSAVG GPRESSAVG
ENERGY: 0 0.4205 9.8791 8.8801 0.0000 -10813.6376 1438.4292 0.0000 0.0000 1806.1768 -7549.8518 303.6277 -9356.0287 -7549.8518 303.6277 -103.1047 -13.9665 30571.1102 -103.1047 -13.9665
ENERGY: 300000 0.3700 8.1960 13.0137 0.0000 -10801.2056 1480.9211 0.0000 0.0000 1786.3912 -7512.3136 300.3016 -9298.7048 -7556.0432 299.0116 32.8579 82.6450 31182.7963 -347.2908 -263.8119
ENERGY: 600000 0.7575 11.3545 10.3279 0.0000 -10772.3225 1387.4939 0.0000 0.0000 1812.8872 -7549.5014 304.7558 -9362.3886 -7550.3607 301.7214 -504.7145 -518.9566 30595.1165 -314.2020 -246.6933
ENERGY: 900000 0.9113 6.1620 12.7723 0.0000 -10852.6920 1453.0057 0.0000 0.0000 1823.9642 -7555.8765 306.6178 -9379.8407 -7547.3066 301.8231 -28.1455 11.1448 30567.8679 -205.7698 -144.1151
ENERGY: 1200000 0.2242 10.4791 8.7086 0.0000 -10971.6511 1552.6180 0.0000 0.0000 1778.4568 -7621.1644 298.9678 -9399.6212 -7558.5924 300.5510 607.9524 658.8892 30459.8625 -210.6704 -147.9199
ENERGY: 1500000 1.4511 11.1412 8.7494 0.0000 -10802.7887 1451.8687 0.0000 0.0000 1834.2514 -7495.3269 308.3472 -9329.5784 -7559.8596 301.1275 -37.9483 52.5734 30912.9010 -216.8389 -157.1988
TCL: Running FEP window  20: Lambda1 0.049999999999999684 Lambda2 0.0    [dLambda -0.049999999999999684]
TCL: Setting parameter firsttimestep to 0
TCL: Setting parameter alchLambda to 0.049999999999999684
Info: NONBONDED TABLE R-SQUARED SPACING: 0.0625
Info: NONBONDED TABLE SIZE: 705 POINTS
TCL: Setting parameter alchLambda2 to 0.0
Info: NONBONDED TABLE R-SQUARED SPACING: 0.0625
Info: NONBONDED TABLE SIZE: 705 POINTS
TCL: Running for 1500000 steps
ETITLE: TS BOND ANGLE DIHED IMPRP ELECT VDW BOUNDARY MISC KINETIC TOTAL TEMP POTENTIAL TOTALAVG TEMPAVG PRESSURE GPRESSURE VOLUME PRESSAVG GPRESSAVG
ENERGY: 0 1.4511 11.1412 8.7494 0.0000 -10802.7905 1452.2931 0.0000 0.0000 1833.3546 -7495.8013 308.1964 -9329.1558 -7495.8013 308.1964 -29.9194 52.1847 30912.9010 -29.9194 52.1847
ENERGY: 300000 0.8019 7.4621 11.7888 0.0000 -10789.3893 1471.9346 0.0000 0.0000 1796.3554 -7501.0465 301.9767 -9297.4019 -7497.9798 302.5446 109.7262 221.7518 31005.1618 346.3098 451.6422
ENERGY: 600000 1.6837 12.1774 8.5120 0.0000 -10807.7631 1474.2164 0.0000 0.0000 1772.5889 -7538.5847 297.9814 -9311.1736 -7527.3921 300.0897 123.5343 134.2376 30861.2832 210.2165 281.7809
ENERGY: 900000 1.3247 9.0723 10.3579 0.0000 -10901.0184 1523.6592 0.0000 0.0000 1769.8267 -7586.7775 297.5171 -9356.6043 -7537.3901 300.0233 540.8605 575.4870 30636.4094 115.2639 188.3496
ENERGY: 1200000 1.7992 11.6068 9.1216 0.0000 -10818.3634 1445.2577 0.0000 0.0000 1834.4327 -7516.1454 308.3777 -9350.5780 -7549.1783 300.1228 177.2910 212.8848 30304.0968 12.0669 77.5406
ENERGY: 1500000 2.6392 13.2780 8.6170 0.0000 -10785.5296 1487.6112 0.0000 0.0000 1765.5150 -7507.8692 296.7922 -9273.3842 -7554.4056 299.9503 395.5585 382.7876 30584.4493 -5.4105 55.2445
TCL: Exiting due to exit command.
