Info: SIMULATION PARAMETERS:
Info: TIMESTEP               2
Info: NUMBER OF STEPS        0
Info: STEPS PER CYCLE        10
Info: PERIODIC CELL BASIS 1  79.1719 0 0
Info: PERIODIC CELL BASIS 2  0 79.1719 0
Info: PERIODIC CELL BASIS 3  0 0 79.1719
Info: PERIODIC CELL CENTER   35.979 35.979 35.979
Info: WRAPPING ALL CLUSTERS AROUND PERIODIC BOUNDARIES ON OUTPUT.
Info: FIRST LDB TIMESTEP     50
Info: LAST LDB TIMESTEP     -1
Info: HOM BACKGROUND SCALING 1
Info: PME BACKGROUND SCALING 1
Info: MIN ATOMS PER PATCH    40
Info: EMPTY PATCH LOAD       40 ATOMS
Info: VELOCITY FILE          mobley_4715906_equilibrated.vel
Info: CENTER OF MASS MOVING INITIALLY? NO
Info: DIELECTRIC             1
Info: EXCLUDE                SCALED ONE-FOUR
Info: 1-4 ELECTROSTATICS SCALED BY 1
Info: MODIFIED 1-4 VDW PARAMETERS WILL BE USED
Info: DCD FILENAME           mobley_4715906_backwards.dcd
Info: DCD FREQUENCY          500
Info: DCD FIRST STEP         500
Info: DCD FILE WILL CONTAIN UNIT CELL DATA
Info: NO EXTENDED SYSTEM TRAJECTORY OUTPUT
Info: NO VELOCITY DCD OUTPUT
Info: NO FORCE DCD OUTPUT
Info: OUTPUT FILENAME        mobley_4715906_backwards
Info: BINARY OUTPUT FILES WILL BE USED
Info: NO RESTART FILE
Info: SWITCHING ACTIVE
Info: SWITCHING ON           10
Info: SWITCHING OFF          12
Info: PAIRLIST DISTANCE      14
Info: PAIRLIST SHRINK RATE   0.01
Info: PAIRLIST GROW RATE     0.01
Info: PAIRLIST TRIGGER       0.3
Info: PAIRLISTS PER CYCLE    2
Info: PAIRLISTS ENABLED
Info: MARGIN                 8
Info: HYDROGEN GROUP CUTOFF  2.5
Info: PATCH DIMENSION        24.5
Info: ENERGY OUTPUT STEPS    500
Info: ENERGY EVALUATION STEPS    500
Info: OUTPUT ENERGY PRECISION 4
Info: CROSSTERM ENERGY INCLUDED IN DIHEDRAL
Info: TIMING OUTPUT STEPS    500
Info: PRESSURE OUTPUT STEPS  500
Info: ALCHEMICAL FEP ON
Info: FEP CURRENT LAMBDA VALUE     1
Info: FEP COMPARISON LAMBDA VALUE  0.9375
Info: FEP INTRA-ALCHEMICAL NON-BONDED INTERACTIONS WILL BE DECOUPLED
Info: FEP INTRA-ALCHEMICAL BONDED INTERACTIONS WILL BE RETAINED
Info: FEP VDW SHIFTING COEFFICIENT 6
Info: FEP ELEC. ACTIVE FOR ANNIHILATED PARTICLES BETWEEN LAMBDA = 0 AND LAMBDA = 0.5
Info: FEP ELEC. ACTIVE FOR EXNIHILATED PARTICLES BETWEEN LAMBDA = 0.5 AND LAMBDA = 1
Info: FEP VDW ACTIVE FOR ANNIHILATED PARTICLES BETWEEN LAMBDA = 0 AND LAMBDA = 1
Info: FEP VDW ACTIVE FOR EXNIHILATED PARTICLES BETWEEN LAMBDA = 0 AND LAMBDA = 1
Info: FEP BOND ACTIVE FOR ANNIHILATED PARTICLES BETWEEN LAMBDA = 1 AND LAMBDA = 1
Info: FEP BOND ACTIVE FOR EXNIHILATED PARTICLES BETWEEN LAMBDA = 0 AND LAMBDA = 0
Info: LANGEVIN DYNAMICS ACTIVE
Info: LANGEVIN TEMPERATURE   298
Info: LANGEVIN USING BBK INTEGRATOR
Info: LANGEVIN DAMPING COEFFICIENT IS 1 INVERSE PS
Info: LANGEVIN DYNAMICS NOT APPLIED TO HYDROGENS
Info: LANGEVIN PISTON PRESSURE CONTROL ACTIVE
Info:        TARGET PRESSURE IS 1.01325 BAR
Info:     OSCILLATION PERIOD IS 100 FS
Info:             DECAY TIME IS 50 FS
Info:     PISTON TEMPERATURE IS 298 K
Info:       PRESSURE CONTROL IS GROUP-BASED
Info:    INITIAL STRAIN RATE IS -0.000142577 -0.000142577 -0.000142577
Info:       CELL FLUCTUATION IS ISOTROPIC
Info: PARTICLE MESH EWALD (PME) ACTIVE
Info: PME TOLERANCE               1e-05
Info: PME EWALD COEFFICIENT       0.226635
Info: PME INTERPOLATION ORDER     4
Info: PME GRID DIMENSIONS         80 80 80
Info: PME MAXIMUM GRID SPACING    1
Info: FULL ELECTROSTATIC EVALUATION FREQUENCY      1
Info: USING VERLET I (r-RESPA) MTS SCHEME.
Info: C1 SPLITTING OF LONG RANGE ELECTROSTATICS
Info: PLACING ATOMS IN PATCHES BY HYDROGEN GROUPS
Info: RIGID BONDS TO HYDROGEN : ALL
Info:         ERROR TOLERANCE : 1e-08
Info:          MAX ITERATIONS : 100
Info: RIGID WATER USING SETTLE ALGORITHM
Info: RANDOM NUMBER SEED     1740643433
Info: USE HYDROGEN BONDS?    NO
Info: COORDINATE PDB         mobley_4715906.pdb
Info: STRUCTURE FILE         mobley_4715906.psf
Info: PARAMETER file: CHARMM format!
Info: PARAMETERS             ../common/par_all27_prot_lipid.inp
Info: PARAMETERS             mobley_4715906.prm
Info: USING ARITHMETIC MEAN TO COMBINE L-J SIGMA PARAMETERS
Info: BINARY COORDINATES     mobley_4715906_equilibrated.coor
Info: SUMMARY OF PARAMETERS:
Info: 182 BONDS
Info: 450 ANGLES
Info: 571 DIHEDRAL
Info: 46 IMPROPER
Info: 6 CROSSTERM
Info: 121 VDW
Info: 0 VDW_PAIRS
Info: 0 NBTHOLE_PAIRS
Info: To read alchdata from file: mobley_4715906.pdb
Info: To read alchflag data from column: 5
Info: STRUCTURE SUMMARY:
Info: 4488 ATOMS
Info: 3000 BONDS
Info: 1536 ANGLES
Info: 72 DIHEDRALS
Info: 0 IMPROPERS
Info: 0 CROSSTERMS
Info: 0 EXCLUSIONS
Info: 4480 RIGID BONDS
Info: ALCH: 0 ATOMS TO DISAPPEAR IN FINAL STATE
Info: ALCH: 24 ATOMS TO APPEAR IN FINAL STATE
Info: 8984 DEGREES OF FREEDOM
Info: 1496 HYDROGEN GROUPS
Info: 4 ATOMS IN LARGEST HYDROGEN GROUP
Info: 1496 MIGRATION GROUPS
Info: 4 ATOMS IN LARGEST MIGRATION GROUP
Info: TOTAL MASS = 26919.1 amu
Info: TOTAL CHARGE = -7.45058e-09 e
Info: MASS DENSITY = 0.0900756 g/cm^3
Info: ATOM DENSITY = 0.00904357 atoms/A^3
Info: ADDED 4605 IMPLICIT EXCLUSIONS
Info: NONBONDED TABLE R-SQUARED SPACING: 0.0625
Info: NONBONDED TABLE SIZE: 769 POINTS
Info: REMOVING COM VELOCITY 0.0115267 -0.0499913 0.0400418
TCL: Running for 5000 steps
ETITLE: TS BOND ANGLE DIHED IMPRP ELECT VDW BOUNDARY MISC KINETIC TOTAL TEMP POTENTIAL TOTAL3 TEMPAVG PRESSURE GPRESSURE VOLUME PRESSAVG GPRESSAVG
ENERGY: 0 3.2522 9.2264 6.7510 0.0000 -15451.3640 1653.9563 0.0000 0.0000 2576.1644 -11202.0136 288.5986 -13778.1780 -11197.0080 288.5986 -1.6420 -1.5237 496264.2746 -1.6420 -1.5237
ENERGY: 1000 2.8615 16.1211 6.5138 0.0000 -15426.2082 1562.2686 0.0000 0.0000 2608.7840 -11229.6592 292.2529 -13838.4432 -11225.7489 294.3491 -43.4448 -44.0243 476836.6562 0.2560 0.2531
ENERGY: 2000 4.3102 11.8402 6.7959 0.0000 -15556.7459 1686.3039 0.0000 0.0000 2663.5044 -11183.9912 298.3830 -13847.4956 -11179.6925 294.7607 22.6038 22.1515 468368.5413 -1.0005 -1.0043
ENERGY: 3000 2.1084 18.2180 6.6480 0.0000 -15358.5609 1565.9480 0.0000 0.0000 2594.1188 -11171.5197 290.6100 -13765.6386 -11167.7834 293.6012 -54.6660 -55.5816 470128.2391 -0.4619 -0.4629
ENERGY: 4000 1.4520 12.9550 6.1193 0.0000 -15416.4252 1626.8011 0.0000 0.0000 2637.0994 -11131.9983 295.4249 -13769.0978 -11127.3913 294.7718 11.5510 11.1063 460165.1034 0.3556 0.3412
ENERGY: 5000 2.6400 14.3476 6.7469 0.0000 -15523.1659 1681.1142 0.0000 0.0000 2655.7941 -11162.5230 297.5192 -13818.3172 -11157.1630 293.6405 -0.4657 -0.6410 472408.9683 1.0220 1.0280
TCL: Running FEP window   2: Lambda1 0.9375 Lambda2 0.875  [dLambda -0.0625]
TCL: Setting parameter firsttimestep to 0
TCL: Setting parameter alchLambda to 0.9375
Info: NONBONDED TABLE R-SQUARED SPACING: 0.0625
Info: NONBONDED TABLE SIZE: 769 POINTS
TCL: Setting parameter alchLambda2 to 0.875
Info: NONBONDED TABLE R-SQUARED SPACING: 0.0625
Info: NONBONDED TABLE SIZE: 769 POINTS
TCL: Running for 5000 steps
ETITLE: TS BOND ANGLE DIHED IMPRP ELECT VDW BOUNDARY MISC KINETIC TOTAL TEMP POTENTIAL TOTAL3 TEMPAVG PRESSURE GPRESSURE VOLUME PRESSAVG GPRESSAVG
ENERGY: 0 2.6400 14.3476 6.7469 0.0000 -15522.9698 1678.7993 0.0000 0.0000 2655.7148 -11164.7212 297.5103 -13820.4360 -11159.0832 297.5103 -4.1547 -3.9455 472408.9683 -4.1547 -3.9455
ENERGY: 1000 3.1256 10.6803 6.6645 0.0000 -15443.7950 1622.0061 0.0000 0.0000 2640.5300 -11160.7884 295.8093 -13801.3184 -11153.8551 296.1713 -7.4401 -7.0016 476056.0106 0.8290 0.8119
ENERGY: 2000 0.7446 12.5943 6.6842 0.0000 -15430.4141 1516.2239 0.0000 0.0000 2644.7014 -11249.4657 296.2766 -13894.1671 -11242.6282 293.3735 -53.6948 -53.0442 476093.7952 1.7980 1.8174
ENERGY: 3000 5.4511 12.6111 6.2356 0.0000 -15366.0656 1511.8647 0.0000 0.0000 2622.1026 -11207.8005 293.7449 -13829.9031 -11202.1490 293.2148 -61.8511 -61.7891 470518.1247 2.7754 2.7528
ENERGY: 4000 2.3222 11.2247 6.5702 0.0000 -15468.9426 1603.0553 0.0000 0.0000 2588.2049 -11257.5653 289.9475 -13845.7702 -11250.9010 292.2601 -22.8860 -23.1247 491568.9434 0.6396 0.6171
ENERGY: 5000 1.5209 13.0358 5.4127 0.0000 -15449.6675 1606.4117 0.0000 0.0000 2718.7572 -11104.5291 304.5728 -13823.2864 -11101.0884 296.7784 -16.0758 -16.3794 499054.1112 3.3410 3.3145
TCL: Running FEP window   3: Lambda1 0.875  Lambda2 0.8125 [dLambda -0.0625]
TCL: Setting parameter firsttimestep to 0
TCL: Setting parameter alchLambda to 0.875
Info: NONBONDED TABLE R-SQUARED SPACING: 0.0625
Info: NONBONDED TABLE SIZE: 769 POINTS
TCL: Setting parameter alchLambda2 to 0.8125
Info: NONBONDED TABLE R-SQUARED SPACING: 0.0625
Info: NONBONDED TABLE SIZE: 769 POINTS
TCL: Running for 5000 steps
ETITLE: TS BOND ANGLE DIHED IMPRP ELECT VDW BOUNDARY MISC KINETIC TOTAL TEMP POTENTIAL TOTAL3 TEMPAVG PRESSURE GPRESSURE VOLUME PRESSAVG GPRESSAVG
ENERGY: 0 1.5209 13.0358 5.4127 0.0000 -15449.4542 1604.9564 0.0000 0.0000 2718.6731 -11105.8553 304.5633 -13824.5285 -11101.1648 304.5633 -19.1851 -19.1946 499054.1112 -19.1851 -19.1946
ENERGY: 1000 5.0303 14.3134 6.2370 0.0000 -15345.8293 1612.9051 0.0000 0.0000 2643.6042 -11063.7393 296.1536 -13707.3435 -11058.5567 297.6230 19.0305 18.9683 493209.2979 2.8835 2.8978
ENERGY: 2000 4.3945 7.1821 6.4689 0.0000 -15408.9590 1561.6591 0.0000 0.0000 2666.2433 -11163.0109 298.6898 -13829.2542 -11158.5282 296.9679 -38.8564 -39.1725 504997.0467 1.6068 1.6662
ENERGY: 3000 2.1660 14.8381 6.1417 0.0000 -15421.8772 1656.2437 0.0000 0.0000 2635.4087 -11107.0789 295.2355 -13742.4876 -11102.2292 296.5340 30.6563 30.0099 508222.0440 -0.6618 -0.6480
ENERGY: 4000 2.5211 9.5778 6.6011 0.0000 -15597.2906 1739.7693 0.0000 0.0000 2704.3201 -11134.5012 302.9554 -13838.8213 -11128.8674 296.8812 42.7993 43.1312 505535.9547 1.5847 1.6126
ENERGY: 5000 1.6725 14.7878 7.5667 0.0000 -15340.7880 1558.8901 0.0000 0.0000 2558.2270 -11199.6439 286.5891 -13757.8709 -11196.3869 293.5203 -48.1287 -48.6522 490396.4895 0.8215 0.8156
TCL: Running FEP window   4: Lambda1 0.8125 Lambda2 0.75   [dLambda -0.0625]
TCL: Setting parameter firsttimestep to 0
TCL: Setting parameter alchLambda to 0.8125
Info: NONBONDED TABLE R-SQUARED SPACING: 0.0625
Info: NONBONDED TABLE SIZE: 769 POINTS
TCL: Setting parameter alchLambda2 to 0.75
Info: NONBONDED TABLE R-SQUARED SPACING: 0.0625
Info: NONBONDED TABLE SIZE: 769 POINTS
TCL: Running for 5000 steps
ETITLE: TS BOND ANGLE DIHED IMPRP ELECT VDW BOUNDARY MISC KINETIC TOTAL TEMP POTENTIAL TOTAL3 TEMPAVG PRESSURE GPRESSURE VOLUME PRESSAVG GPRESSAVG
ENERGY: 0 1.6725 14.7878 7.5667 0.0000 -15340.5467 1558.5455 0.0000 0.0000 2558.1445 -11199.8297 286.5799 -13757.9742 -11194.1324 286.5799 -50.4146 -50.4302 490396.4895 -50.4146 -50.4302
ENERGY: 1000 0.8246 11.5603 6.8260 0.0000 -15305.7912 1534.9497 0.0000 0.0000 2580.8961 -11170.7346 289.1287 -13751.6307 -11165.4993 295.3246 -45.7943 -46.6925 478477.5963 -0.4785 -0.4586
ENERGY: 2000 1.9065 9.1683 6.6175 0.0000 -15543.2636 1714.2726 0.0000 0.0000 2639.7223 -11171.5764 295.7188 -13811.2987 -11166.7198 293.1301 35.0401 34.9075 490162.4840 0.5744 0.5391
ENERGY: 3000 1.4736 6.5472 5.6822 0.0000 -15445.4701 1636.4062 0.0000 0.0000 2648.6208 -11146.7401 296.7156 -13795.3609 -11142.2519 295.5115 1.9672 1.2075 527913.1990 0.1573 0.1487
ENERGY: 4000 0.5321 12.4298 6.3645 0.0000 -15412.1647 1639.4188 0.0000 0.0000 2618.7659 -11134.6535 293.3711 -13753.4194 -11129.9382 298.3935 6.8730 7.9023 524816.6994 1.4572 1.4765
ENERGY: 5000 2.2087 13.6660 6.0851 0.0000 -15437.1513 1654.2293 0.0000 0.0000 2644.0008 -11116.9614 296.1981 -13760.9623 -11108.6448 298.3928 17.9167 18.1867 502232.3971 1.2006 1.2212
TCL: Running FEP window   5: Lambda1 0.75   Lambda2 0.6875 [dLambda -0.0625]
TCL: Setting parameter firsttimestep to 0
TCL: Setting parameter alchLambda to 0.75
Info: NONBONDED TABLE R-SQUARED SPACING: 0.0625
Info: NONBONDED TABLE SIZE: 769 POINTS
TCL: Setting parameter alchLambda2 to 0.6875
Info: NONBONDED TABLE R-SQUARED SPACING: 0.0625
Info: NONBONDED TABLE SIZE: 769 POINTS
TCL: Running for 5000 steps
ETITLE: TS BOND ANGLE DIHED IMPRP ELECT VDW BOUNDARY MISC KINETIC TOTAL TEMP POTENTIAL TOTAL3 TEMPAVG PRESSURE GPRESSURE VOLUME PRESSAVG GPRESSAVG
ENERGY: 0 2.2087 13.6660 6.0851 0.0000 -15436.9434 1653.8193 0.0000 0.0000 2643.9194 -11117.2451 296.1889 -13761.1644 -11112.1676 296.1889 16.7301 16.7894 502232.3971 16.7301 16.7894
ENERGY: 1000 0.7519 11.1431 8.0233 0.0000 -15574.3281 1690.2784 0.0000 0.0000 2573.2519 -11290.8795 288.2723 -13864.1314 -11283.0045 292.1536 -8.0756 -8.4799 516041.0593 1.5452 1.5470
ENERGY: 2000 2.9764 11.4529 6.7098 0.0000 -15579.3735 1724.5071 0.0000 0.0000 2611.5608 -11222.1666 292.5639 -13833.7273 -11216.4834 294.9217 45.0790 46.0128 507615.3474 1.9716 2.0078
ENERGY: 3000 4.2573 15.7454 7.3767 0.0000 -15538.4353 1726.4159 0.0000 0.0000 2668.3054 -11116.3345 298.9208 -13784.6400 -11113.6104 295.4895 63.6266 62.6491 524926.2430 -0.9729 -0.9764
ENERGY: 4000 1.0278 11.9139 6.6953 0.0000 -15350.0688 1579.0613 0.0000 0.0000 2622.6531 -11128.7175 293.8066 -13751.3706 -11124.0274 296.4972 -9.4456 -9.3614 537506.8600 -0.6965 -0.6860
ENERGY: 5000 2.2451 9.2923 6.3999 0.0000 -15437.9983 1626.2052 0.0000 0.0000 2583.2886 -11210.5672 289.3967 -13793.8558 -11205.3259 294.4168 -15.4783 -15.0257 537973.3315 0.2493 0.2730
TCL: Running FEP window   6: Lambda1 0.6875 Lambda2 0.625  [dLambda -0.0625]
TCL: Setting parameter firsttimestep to 0
TCL: Setting parameter alchLambda to 0.6875
Info: NONBONDED TABLE R-SQUARED SPACING: 0.0625
Info: NONBONDED TABLE SIZE: 769 POINTS
TCL: Setting parameter alchLambda2 to 0.625
Info: NONBONDED TABLE R-SQUARED SPACING: 0.0625
Info: NONBONDED TABLE SIZE: 769 POINTS
TCL: Running for 5000 steps
ETITLE: TS BOND ANGLE DIHED IMPRP ELECT VDW BOUNDARY MISC KINETIC TOTAL TEMP POTENTIAL TOTAL3 TEMPAVG PRESSURE GPRESSURE VOLUME PRESSAVG GPRESSAVG
ENERGY: 0 2.2451 9.2923 6.3999 0.0000 -15437.7818 1625.2048 0.0000 0.0000 2583.2095 -11211.4302 289.3878 -13794.6397 -11206.3266 289.3878 -16.6021 -16.8009 537973.3315 -16.6021 -16.8009
ENERGY: 1000 6.6488 12.0613 6.2014 0.0000 -15445.0034 1655.2836 0.0000 0.0000 2626.1375 -11138.6708 294.1969 -13764.8083 -11134.1358 297.4271 8.0163 7.8057 522895.6372 0.7165 0.6922
ENERGY: 2000 1.4688 12.6564 6.6342 0.0000 -15489.8129 1703.0583 0.0000 0.0000 2653.2462 -11112.7490 297.2338 -13765.9952 -11106.3316 294.8247 37.9731 38.5356 534939.4695 1.6295 1.6174
ENERGY: 3000 2.9189 9.4989 8.4414 0.0000 -15479.4945 1674.0374 0.0000 0.0000 2676.5211 -11108.0768 299.8412 -13784.5980 -11101.7351 297.8976 34.8008 35.0594 547324.1380 1.9724 1.9740
ENERGY: 4000 2.0707 15.3360 6.6129 0.0000 -15480.5698 1621.1956 0.0000 0.0000 2693.6842 -11141.6705 301.7639 -13835.3547 -11135.9368 297.6441 -0.3152 -0.3329 555902.1523 1.6577 1.6619
ENERGY: 5000 1.0658 11.1746 5.7128 0.0000 -15426.6785 1637.4314 0.0000 0.0000 2673.3422 -11097.9517 299.4851 -13771.2939 -11093.7511 298.9166 0.3688 0.4993 567333.6468 1.0982 1.1103
TCL: Running FEP window   7: Lambda1 0.625  Lambda2 0.5625 [dLambda -0.0625]
TCL: Setting parameter firsttimestep to 0
TCL: Setting parameter alchLambda to 0.625
Info: NONBONDED TABLE R-SQUARED SPACING: 0.0625
Info: NONBONDED TABLE SIZE: 769 POINTS
TCL: Setting parameter alchLambda2 to 0.5625
Info: NONBONDED TABLE R-SQUARED SPACING: 0.0625
Info: NONBONDED TABLE SIZE: 769 POINTS
TCL: Running for 5000 steps
ETITLE: TS BOND ANGLE DIHED IMPRP ELECT VDW BOUNDARY MISC KINETIC TOTAL TEMP POTENTIAL TOTAL3 TEMPAVG PRESSURE GPRESSURE VOLUME PRESSAVG GPRESSAVG
ENERGY: 0 1.0658 11.1746 5.7128 0.0000 -15426.4349 1637.7176 0.0000 0.0000 2673.2587 -11097.5055 299.4757 -13770.7642 -11092.0340 299.4757 -0.4908 -0.5028 567333.6468 -0.4908 -0.5028
ENERGY: 1000 1.0027 12.8549 5.5529 0.0000 -15508.2855 1646.4880 0.0000 0.0000 2698.1354 -11144.2516 302.2626 -13842.3869 -11138.2306 297.6355 -7.4015 -7.9810 597193.5746 0.1482 0.1055
ENERGY: 2000 4.1329 10.1291 6.0784 0.0000 -15339.3436 1653.6120 0.0000 0.0000 2626.9322 -11038.4592 294.2859 -13665.3914 -11033.5143 298.5148 30.0504 29.9151 605113.4316 0.1898 0.1837
ENERGY: 3000 1.6301 14.5286 5.8936 0.0000 -15404.2093 1721.1336 0.0000 0.0000 2615.0121 -11046.0112 292.9506 -13661.0234 -11040.9159 298.6749 46.6049 45.6965 622824.2220 0.1785 0.1880
ENERGY: 4000 4.2536 13.6730 7.4254 0.0000 -15421.6248 1635.9800 0.0000 0.0000 2676.8650 -11083.4278 299.8797 -13760.2928 -11079.1051 297.6793 -9.7241 -10.0269 626362.0962 -0.0286 -0.0152
ENERGY: 5000 1.3280 9.0567 6.9350 0.0000 -15545.0969 1726.8830 0.0000 0.0000 2713.8225 -11087.0717 304.0199 -13800.8942 -11079.4599 298.3696 23.5195 23.8060 622764.7449 -0.2056 -0.1916
TCL: Running FEP window   8: Lambda1 0.5625 Lambda2 0.5    [dLambda -0.0625]
TCL: Setting parameter firsttimestep to 0
TCL: Setting parameter alchLambda to 0.5625
Info: NONBONDED TABLE R-SQUARED SPACING: 0.0625
Info: NONBONDED TABLE SIZE: 769 POINTS
TCL: Setting parameter alchLambda2 to 0.5
Info: NONBONDED TABLE R-SQUARED SPACING: 0.0625
Info: NONBONDED TABLE SIZE: 769 POINTS
TCL: Running for 5000 steps
ETITLE: TS BOND ANGLE DIHED IMPRP ELECT VDW BOUNDARY MISC KINETIC TOTAL TEMP POTENTIAL TOTAL3 TEMPAVG PRESSURE GPRESSURE VOLUME PRESSAVG GPRESSAVG
ENERGY: 0 1.3280 9.0567 6.9350 0.0000 -15544.8704 1727.4850 0.0000 0.0000 2713.7432 -11086.3226 304.0111 -13800.0658 -11080.5809 304.0111 23.3568 23.4743 622764.7449 23.3568 23.4743
ENERGY: 1000 7.8149 13.0730 5.9243 0.0000 -15415.1463 1639.4191 0.0000 0.0000 2607.2436 -11141.6714 292.0803 -13748.9150 -11136.3386 296.7072 24.1095 23.6252 610932.5907 2.2524 2.2968
ENERGY: 2000 2.2692 6.8743 6.0735 0.0000 -15371.4246 1620.9974 0.0000 0.0000 2584.5734 -11150.6369 289.5406 -13735.2104 -11144.9259 293.6825 -10.4007 -10.6061 606497.5629 0.8196 0.8414
ENERGY: 3000 2.4471 9.1765 5.9094 0.0000 -15280.9894 1542.4076 0.0000 0.0000 2679.9658 -11041.0830 300.2271 -13721.0488 -11037.5743 299.1880 -41.1121 -41.5219 628765.1783 -0.0251 -0.0243
ENERGY: 4000 1.5763 14.0047 6.7032 0.0000 -15285.2217 1561.7343 0.0000 0.0000 2673.2280 -11027.9751 299.4723 -13701.2032 -11021.7321 302.6890 -22.8238 -22.3554 656333.0975 1.7430 1.7562
ENERGY: 5000 7.0945 12.5116 6.0608 0.0000 -15396.1737 1645.7329 0.0000 0.0000 2667.4332 -11057.3406 298.8231 -13724.7738 -11051.8966 299.5570 1.9849 2.4529 671836.8436 0.0397 0.0746
TCL: Running FEP window   9: Lambda1 0.5    Lambda2 0.4375 [dLambda -0.0625]
TCL: Setting parameter firsttimestep to 0
TCL: Setting parameter alchLambda to 0.5
Info: NONBONDED TABLE R-SQUARED SPACING: 0.0625
Info: NONBONDED TABLE SIZE: 769 POINTS
TCL: Setting parameter alchLambda2 to 0.4375
Info: NONBONDED TABLE R-SQUARED SPACING: 0.0625
Info: NONBONDED TABLE SIZE: 769 POINTS
TCL: Running for 5000 steps
ETITLE: TS BOND ANGLE DIHED IMPRP ELECT VDW BOUNDARY MISC KINETIC TOTAL TEMP POTENTIAL TOTAL3 TEMPAVG PRESSURE GPRESSURE VOLUME PRESSAVG GPRESSAVG
ENERGY: 0 7.0945 12.5116 6.0608 0.0000 -15395.8864 1645.2367 0.0000 0.0000 2667.3542 -11057.6286 298.8143 -13724.9827 -11052.7911 298.8143 1.6915 1.6597 671836.8436 1.6915 1.6597
ENERGY: 1000 3.1421 15.9185 6.3751 0.0000 -15227.3966 1519.0182 0.0000 0.0000 2698.4691 -10984.4735 302.3000 -13682.9426 -10980.7411 302.6466 -29.1178 -29.1660 684037.4349 0.5046 0.4984
ENERGY: 2000 2.0544 13.4344 5.7047 0.0000 -15357.1703 1627.6701 0.0000 0.0000 2689.6254 -11018.6813 301.3092 -13708.3067 -11016.3958 301.3644 17.3365 16.9004 689056.4390 1.7711 1.7892
ENERGY: 3000 2.9535 10.5178 5.9796 0.0000 -15354.4009 1596.5297 0.0000 0.0000 2751.1528 -10987.2676 308.2019 -13738.4204 -10983.4083 301.4802 -3.4732 -4.0925 673085.2235 -0.5900 -0.5855
ENERGY: 4000 3.9606 7.0883 7.6651 0.0000 -15344.0117 1670.6010 0.0000 0.0000 2583.1869 -11071.5097 289.3853 -13654.6966 -11067.9002 298.0532 12.7952 12.6831 674757.1350 -0.5041 -0.5000
ENERGY: 5000 2.3733 15.2927 6.7964 0.0000 -15428.9775 1697.7447 0.0000 0.0000 2702.6849 -11004.0855 302.7722 -13706.7704 -11000.2573 300.5066 25.0059 25.2226 675742.1191 0.5287 0.5415
TCL: Running FEP window  10: Lambda1 0.4375 Lambda2 0.375  [dLambda -0.0625]
TCL: Setting parameter firsttimestep to 0
TCL: Setting parameter alchLambda to 0.4375
Info: NONBONDED TABLE R-SQUARED SPACING: 0.0625
Info: NONBONDED TABLE SIZE: 769 POINTS
TCL: Setting parameter alchLambda2 to 0.375
Info: NONBONDED TABLE R-SQUARED SPACING: 0.0625
Info: NONBONDED TABLE SIZE: 769 POINTS
TCL: Running for 5000 steps
ETITLE: TS BOND ANGLE DIHED IMPRP ELECT VDW BOUNDARY MISC KINETIC TOTAL TEMP POTENTIAL TOTAL3 TEMPAVG PRESSURE GPRESSURE VOLUME PRESSAVG GPRESSAVG
ENERGY: 0 2.3733 15.2927 6.7964 0.0000 -15428.9775 1697.2362 0.0000 0.0000 2702.6018 -11004.6771 302.7629 -13707.2789 -11000.0934 302.7629 24.5366 24.5443 675742.1191 24.5366 24.5443
ENERGY: 1000 1.2380 11.5986 5.6491 0.0000 -15379.2809 1617.6240 0.0000 0.0000 2677.3891 -11065.7820 299.9384 -13743.1711 -11061.5792 296.2425 -4.5530 -4.3133 674369.2367 -0.0289 -0.0226
ENERGY: 2000 2.8858 8.4005 5.6512 0.0000 -15419.1434 1601.6504 0.0000 0.0000 2620.7733 -11179.7824 293.5960 -13800.5556 -11175.8586 294.4709 -3.2797 -3.6709 662612.0792 1.4218 1.4300
ENERGY: 3000 4.1687 13.8503 6.8814 0.0000 -15365.3549 1563.4738 0.0000 0.0000 2618.3145 -11158.6662 293.3205 -13776.9806 -11155.1998 296.2765 -36.0021 -35.5564 660354.6387 1.4336 1.4244
ENERGY: 4000 3.9226 12.4125 7.4575 0.0000 -15337.5217 1524.0069 0.0000 0.0000 2700.3291 -11089.3931 302.5083 -13789.7222 -11085.4564 298.8953 -50.8061 -51.3892 661278.7407 2.9671 2.9804
ENERGY: 5000 1.7984 9.8956 5.7601 0.0000 -15607.4417 1713.9327 0.0000 0.0000 2729.0112 -11147.0438 305.7215 -13876.0549 -11143.8553 298.0444 18.7116 18.3035 657056.9549 2.0737 2.0844
TCL: Running FEP window  11: Lambda1 0.375  Lambda2 0.3125 [dLambda -0.0625]
TCL: Setting parameter firsttimestep to 0
TCL: Setting parameter alchLambda to 0.375
Info: NONBONDED TABLE R-SQUARED SPACING: 0.0625
Info: NONBONDED TABLE SIZE: 769 POINTS
TCL: Setting parameter alchLambda2 to 0.3125
Info: NONBONDED TABLE R-SQUARED SPACING: 0.0625
Info: NONBONDED TABLE SIZE: 769 POINTS
TCL: Running for 5000 steps
ETITLE: TS BOND ANGLE DIHED IMPRP ELECT VDW BOUNDARY MISC KINETIC TOTAL TEMP POTENTIAL TOTAL3 TEMPAVG PRESSURE GPRESSURE VOLUME PRESSAVG GPRESSAVG
ENERGY: 0 1.7984 9.8956 5.7601 0.0000 -15607.4417 1713.8618 0.0000 0.0000 2728.9274 -11147.1985 305.7121 -13876.1259 -11141.9049 305.7121 17.5670 17.6206 657056.9549 17.5670 17.6206
ENERGY: 1000 1.6634 13.6482 6.8983 0.0000 -15416.3633 1681.8728 0.0000 0.0000 2588.8508 -11123.4298 290.0198 -13712.2806 -11118.6282 297.5133 16.8356 16.3356 661061.7563 1.5793 1.5578
ENERGY: 2000 2.6450 8.5611 5.9241 0.0000 -15404.2504 1652.0843 0.0000 0.0000 2600.2126 -11134.8233 291.2926 -13735.0359 -11131.6141 297.2783 6.7521 6.5598 672047.4443 0.9981 1.0273
ENERGY: 3000 4.6414 8.4579 8.1935 0.0000 -15425.1596 1596.8209 0.0000 0.0000 2604.2805 -11202.7654 291.7483 -13807.0459 -11197.7061 293.0929 -25.6684 -25.5539 689558.4214 2.9319 2.9050
ENERGY: 4000 2.8251 9.4514 6.7353 0.0000 -15439.0581 1573.0972 0.0000 0.0000 2630.7164 -11216.2327 294.7099 -13846.9491 -11210.1760 293.8315 -27.0176 -27.6410 682665.0143 -0.2676 -0.3080
ENERGY: 5000 2.9782 8.9539 6.7391 0.0000 -15631.4648 1763.7586 0.0000 0.0000 2633.2304 -11215.8045 294.9915 -13849.0349 -11211.7069 294.4766 40.0783 40.6503 667394.5715 0.8316 0.8537
TCL: Running FEP window  12: Lambda1 0.3125 Lambda2 0.25   [dLambda -0.0625]
TCL: Setting parameter firsttimestep to 0
TCL: Setting parameter alchLambda to 0.3125
Info: NONBONDED TABLE R-SQUARED SPACING: 0.0625
Info: NONBONDED TABLE SIZE: 769 POINTS
TCL: Setting parameter alchLambda2 to 0.25
Info: NONBONDED TABLE R-SQUARED SPACING: 0.0625
Info: NONBONDED TABLE SIZE: 769 POINTS
TCL: Running for 5000 steps
ETITLE: TS BOND ANGLE DIHED IMPRP ELECT VDW BOUNDARY MISC KINETIC TOTAL TEMP POTENTIAL TOTAL3 TEMPAVG PRESSURE GPRESSURE VOLUME PRESSAVG GPRESSAVG
ENERGY: 0 2.9782 8.9539 6.7391 0.0000 -15631.4648 1763.3744 0.0000 0.0000 2633.1455 -11216.2736 294.9820 -13849.4191 -11211.7586 294.9820 40.0746 40.0389 667394.5715 40.0746 40.0389
ENERGY: 1000 2.7597 10.1432 5.8070 0.0000 -15516.8683 1711.8152 0.0000 0.0000 2578.8632 -11207.4800 288.9009 -13786.3432 -11201.1889 293.9319 30.8915 31.2020 670703.9890 1.0642 1.0217
ENERGY: 2000 2.6331 10.4821 7.0395 0.0000 -15400.0473 1622.6813 0.0000 0.0000 2592.3147 -11164.8965 290.4079 -13757.2113 -11161.0658 294.4739 -0.5899 -0.3830 652770.7276 1.0045 0.9864
ENERGY: 3000 1.2210 10.7339 6.1054 0.0000 -15492.0017 1641.0725 0.0000 0.0000 2650.2893 -11182.5796 296.9025 -13832.8689 -11177.3049 296.4611 -6.9563 -6.8590 617234.6616 1.5107 1.5365
ENERGY: 4000 2.2773 17.4502 6.8556 0.0000 -15418.3510 1615.9203 0.0000 0.0000 2696.0703 -11079.7772 302.0312 -13775.8475 -11076.2744 299.0100 -1.6186 -1.5969 564911.5133 3.4003 3.3832
ENERGY: 5000 2.1632 12.5055 6.5196 0.0000 -15452.6935 1628.2439 0.0000 0.0000 2703.7518 -11099.5095 302.8918 -13803.2613 -11093.9724 298.7074 -8.8591 -8.1002 572214.8525 0.2399 0.2337
TCL: Running FEP window  13: Lambda1 0.25   Lambda2 0.1875 [dLambda -0.0625]
TCL: Setting parameter firsttimestep to 0
TCL: Setting parameter alchLambda to 0.25
Info: NONBONDED TABLE R-SQUARED SPACING: 0.0625
Info: NONBONDED TABLE SIZE: 769 POINTS
TCL: Setting parameter alchLambda2 to 0.1875
Info: NONBONDED TABLE R-SQUARED SPACING: 0.0625
Info: NONBONDED TABLE SIZE: 769 POINTS
TCL: Running for 5000 steps
ETITLE: TS BOND ANGLE DIHED IMPRP ELECT VDW BOUNDARY MISC KINETIC TOTAL TEMP POTENTIAL TOTAL3 TEMPAVG PRESSURE GPRESSURE VOLUME PRESSAVG GPRESSAVG
ENERGY: 0 2.1632 12.5055 6.5196 0.0000 -15452.6935 1628.4917 0.0000 0.0000 2703.6735 -11099.3401 302.8830 -13803.0136 -11094.3015 302.8830 -8.2824 -8.3526 572214.8525 -8.2824 -8.3526
ENERGY: 1000 1.2774 9.1702 5.4793 0.0000 -15572.5084 1676.5771 0.0000 0.0000 2623.2709 -11256.7335 293.8758 -13880.0043 -11251.6424 294.1535 2.7923 2.8418 575936.0391 -0.0360 -0.0169
ENERGY: 2000 2.2609 9.4581 7.1401 0.0000 -15457.7408 1644.2916 0.0000 0.0000 2622.3090 -11172.2810 293.7680 -13794.5901 -11166.7416 294.5769 -0.2689 -0.1883 585022.4837 1.8386 1.7997
ENERGY: 3000 2.4221 12.5859 6.4169 0.0000 -15388.5215 1575.7050 0.0000 0.0000 2572.8612 -11218.5304 288.2285 -13791.3916 -11212.6931 295.3568 -35.1326 -35.0673 599555.8907 -0.0989 -0.1164
ENERGY: 4000 1.0710 9.0259 6.6695 0.0000 -15387.7452 1588.6070 0.0000 0.0000 2651.0599 -11131.3120 296.9889 -13782.3718 -11126.7320 298.4279 -9.8079 -8.8654 595657.0830 0.2852 0.2663
ENERGY: 5000 1.3559 10.7037 6.0401 0.0000 -15593.3540 1714.9034 0.0000 0.0000 2643.4765 -11216.8744 296.1393 -13860.3509 -11213.4847 295.2710 30.0272 29.8700 624319.7872 1.0465 1.0606
TCL: Running FEP window  14: Lambda1 0.1875 Lambda2 0.125  [dLambda -0.0625]
TCL: Setting parameter firsttimestep to 0
TCL: Setting parameter alchLambda to 0.1875
Info: NONBONDED TABLE R-SQUARED SPACING: 0.0625
Info: NONBONDED TABLE SIZE: 769 POINTS
TCL: Setting parameter alchLambda2 to 0.125
Info: NONBONDED TABLE R-SQUARED SPACING: 0.0625
Info: NONBONDED TABLE SIZE: 769 POINTS
TCL: Running for 5000 steps
ETITLE: TS BOND ANGLE DIHED IMPRP ELECT VDW BOUNDARY MISC KINETIC TOTAL TEMP POTENTIAL TOTAL3 TEMPAVG PRESSURE GPRESSURE VOLUME PRESSAVG GPRESSAVG
ENERGY: 0 1.3559 10.7037 6.0401 0.0000 -15593.3540 1715.3643 0.0000 0.0000 2643.3985 -11216.4915 296.1306 -13859.8900 -11211.5214 296.1306 29.5946 29.6204 624319.7872 29.5946 29.6204
ENERGY: 1000 1.7467 13.5959 5.7159 0.0000 -15392.7631 1633.0440 0.0000 0.0000 2641.7876 -11096.8732 295.9501 -13738.6608 -11092.1237 297.6472 -0.3370 -0.4126 624846.7756 0.2618 0.2792
ENERGY: 2000 1.7909 7.7530 5.6963 0.0000 -15404.1549 1655.1697 0.0000 0.0000 2662.5960 -11071.1490 298.2812 -13733.7449 -11064.7166 298.6715 11.8044 11.8177 625128.9070 -0.2161 -0.1912
ENERGY: 3000 3.6366 6.7371 6.0084 0.0000 -15453.5897 1618.8082 0.0000 0.0000 2629.6198 -11188.7797 294.5870 -13818.3995 -11182.9681 296.6339 7.0585 6.8065 589498.0626 1.6629 1.6386
ENERGY: 4000 2.2642 15.5267 6.4292 0.0000 -15563.7005 1663.0884 0.0000 0.0000 2576.4428 -11299.9491 288.6298 -13876.3919 -11293.6579 291.2856 -6.0087 -6.0821 584662.3666 0.5085 0.4986
ENERGY: 5000 1.7364 10.6218 6.2289 0.0000 -15392.0485 1566.5092 0.0000 0.0000 2603.0498 -11203.9024 291.6105 -13806.9521 -11200.5441 293.5655 -43.5136 -43.1053 569650.2811 1.5783 1.5942
TCL: Running FEP window  15: Lambda1 0.125  Lambda2 0.0625 [dLambda -0.0625]
TCL: Setting parameter firsttimestep to 0
TCL: Setting parameter alchLambda to 0.125
Info: NONBONDED TABLE R-SQUARED SPACING: 0.0625
Info: NONBONDED TABLE SIZE: 769 POINTS
TCL: Setting parameter alchLambda2 to 0.0625
Info: NONBONDED TABLE R-SQUARED SPACING: 0.0625
Info: NONBONDED TABLE SIZE: 769 POINTS
TCL: Running for 5000 steps
ETITLE: TS BOND ANGLE DIHED IMPRP ELECT VDW BOUNDARY MISC KINETIC TOTAL TEMP POTENTIAL TOTAL3 TEMPAVG PRESSURE GPRESSURE VOLUME PRESSAVG GPRESSAVG
ENERGY: 0 1.7364 10.6218 6.2289 0.0000 -15392.0485 1566.9164 0.0000 0.0000 2602.9668 -11203.5781 291.6012 -13806.5450 -11198.2738 291.6012 -43.2225 -43.3644 569650.2811 -43.2225 -43.3644
ENERGY: 1000 2.6049 11.0322 7.4057 0.0000 -15445.6414 1659.6241 0.0000 0.0000 2622.2221 -11142.7524 293.7583 -13764.9745 -11136.9978 296.4978 23.4691 22.4738 557876.9298 2.4093 2.3896
ENERGY: 2000 0.7649 9.8898 7.3002 0.0000 -15465.9266 1689.0963 0.0000 0.0000 2619.9848 -11138.8907 293.5076 -13758.8755 -11133.7994 295.5857 27.4611 27.6953 573206.4871 1.5550 1.5479
ENERGY: 3000 1.8320 11.0162 6.3488 0.0000 -15629.5602 1740.8776 0.0000 0.0000 2690.7899 -11178.6958 301.4397 -13869.4856 -11172.4868 295.4736 31.1986 30.8995 580667.1739 -0.3282 -0.3289
ENERGY: 4000 0.6466 14.0045 6.7029 0.0000 -15300.7568 1552.5996 0.0000 0.0000 2684.4475 -11042.3558 300.7292 -13726.8033 -11036.1456 297.4739 -34.3008 -34.1182 557950.2958 1.2655 1.2750
ENERGY: 5000 2.6079 10.7983 7.0462 0.0000 -15403.9360 1633.2658 0.0000 0.0000 2601.0439 -11149.1739 291.3858 -13750.2179 -11143.6966 295.8249 -16.8339 -16.9528 564310.1761 1.2653 1.2458
TCL: Running FEP window  16: Lambda1 0.0625 Lambda2 0.0    [dLambda -0.0625]
TCL: Setting parameter firsttimestep to 0
TCL: Setting parameter alchLambda to 0.0625
Info: NONBONDED TABLE R-SQUARED SPACING: 0.0625
Info: NONBONDED TABLE SIZE: 769 POINTS
TCL: Setting parameter alchLambda2 to 0.0
Info: NONBONDED TABLE R-SQUARED SPACING: 0.0625
Info: NONBONDED TABLE SIZE: 769 POINTS
TCL: Running for 5000 steps
ETITLE: TS BOND ANGLE DIHED IMPRP ELECT VDW BOUNDARY MISC KINETIC TOTAL TEMP POTENTIAL TOTAL3 TEMPAVG PRESSURE GPRESSURE VOLUME PRESSAVG GPRESSAVG
ENERGY: 0 2.6079 10.7983 7.0462 0.0000 -15403.9360 1633.1815 0.0000 0.0000 2600.9598 -11149.3424 291.3763 -13750.3022 -11144.1648 291.3763 -17.0873 -17.0631 564310.1761 -17.0873 -17.0631
ENERGY: 1000 1.2305 10.3459 8.0727 0.0000 -15417.4383 1602.6211 0.0000 0.0000 2601.8271 -11193.3411 291.4735 -13795.1681 -11185.5137 295.8039 -33.8578 -33.8700 539365.6858 0.4945 0.4820
ENERGY: 2000 4.3342 13.2419 5.8014 0.0000 -15478.7295 1652.3274 0.0000 0.0000 2697.0120 -11106.0126 302.1367 -13803.0247 -11102.7914 298.3956 8.7607 9.3631 520605.3661 -0.8199 -0.7937
ENERGY: 3000 1.5351 16.7797 7.4315 0.0000 -15383.8874 1580.9664 0.0000 0.0000 2635.8330 -11141.3418 295.2831 -13777.1747 -11136.2175 295.5352 -51.1036 -51.4650 528728.3080 1.9801 2.0048
ENERGY: 4000 3.5006 15.8049 6.4158 0.0000 -15430.1836 1644.2017 0.0000 0.0000 2621.1873 -11139.0734 293.6424 -13760.2607 -11134.5939 296.0705 8.2548 8.1407 501864.8703 4.7418 4.6833
ENERGY: 5000 1.1816 20.2080 5.6020 0.0000 -15417.5991 1619.0769 0.0000 0.0000 2677.3696 -11094.1609 299.9363 -13771.5305 -11091.7196 297.3868 0.8802 2.1372 494596.5416 -0.2436 -0.2878
