Info: SIMULATION PARAMETERS:
Info: TIMESTEP               2
Info: NUMBER OF STEPS        0
Info: STEPS PER CYCLE        10
Info: PERIODIC CELL BASIS 1  79.1719 0 0
Info: PERIODIC CELL BASIS 2  0 79.1719 0
Info: PERIODIC CELL BASIS 3  0 0 79.1719
Info: PERIODIC CELL CENTER   35.979 35.979 35.979
Info: WRAPPING ALL CLUSTERS AROUND PERIODIC BOUNDARIES ON OUTPUT.
Info: FIRST LDB TIMESTEP     50
Info: LAST LDB TIMESTEP     -1
Info: HOM BACKGROUND SCALING 1
Info: PME BACKGROUND SCALING 1
Info: MIN ATOMS PER PATCH    40
Info: EMPTY PATCH LOAD       40 ATOMS
Info: VELOCITY FILE          mobley_4715906_equilibrated.vel
Info: CENTER OF MASS MOVING INITIALLY? NO
Info: DIELECTRIC             1
Info: EXCLUDE                SCALED ONE-FOUR
Info: 1-4 ELECTROSTATICS SCALED BY 1
Info: MODIFIED 1-4 VDW PARAMETERS WILL BE USED
Info: DCD FILENAME           mobley_4715906_forwards.dcd
Info: DCD FREQUENCY          500
Info: DCD FIRST STEP         500
Info: DCD FILE WILL CONTAIN UNIT CELL DATA
Info: NO EXTENDED SYSTEM TRAJECTORY OUTPUT
Info: NO VELOCITY DCD OUTPUT
Info: NO FORCE DCD OUTPUT
Info: OUTPUT FILENAME        mobley_4715906_forwards
Info: BINARY OUTPUT FILES WILL BE USED
Info: NO RESTART FILE
Info: SWITCHING ACTIVE
Info: SWITCHING ON           10
Info: SWITCHING OFF          12
Info: PAIRLIST DISTANCE      14
Info: PAIRLIST SHRINK RATE   0.01
Info: PAIRLIST GROW RATE     0.01
Info: PAIRLIST TRIGGER       0.3
Info: PAIRLISTS PER CYCLE    2
Info: PAIRLISTS ENABLED
Info: MARGIN                 8
Info: HYDROGEN GROUP CUTOFF  2.5
Info: PATCH DIMENSION        24.5
Info: ENERGY OUTPUT STEPS    500
Info: ENERGY EVALUATION STEPS    500
Info: OUTPUT ENERGY PRECISION 4
Info: CROSSTERM ENERGY INCLUDED IN DIHEDRAL
Info: TIMING OUTPUT STEPS    500
Info: PRESSURE OUTPUT STEPS  500
Info: ALCHEMICAL FEP ON
Info: FEP CURRENT LAMBDA VALUE     0
Info: FEP COMPARISON LAMBDA VALUE  0.0625
Info: FEP INTRA-ALCHEMICAL NON-BONDED INTERACTIONS WILL BE DECOUPLED
Info: FEP INTRA-ALCHEMICAL BONDED INTERACTIONS WILL BE RETAINED
Info: FEP VDW SHIFTING COEFFICIENT 6
Info: FEP ELEC. ACTIVE FOR ANNIHILATED PARTICLES BETWEEN LAMBDA = 0 AND LAMBDA = 0.5
Info: FEP ELEC. ACTIVE FOR EXNIHILATED PARTICLES BETWEEN LAMBDA = 0.5 AND LAMBDA = 1
Info: FEP VDW ACTIVE FOR ANNIHILATED PARTICLES BETWEEN LAMBDA = 0 AND LAMBDA = 1
Info: FEP VDW ACTIVE FOR EXNIHILATED PARTICLES BETWEEN LAMBDA = 0 AND LAMBDA = 1
Info: FEP BOND ACTIVE FOR ANNIHILATED PARTICLES BETWEEN LAMBDA = 1 AND LAMBDA = 1
Info: FEP BOND ACTIVE FOR EXNIHILATED PARTICLES BETWEEN LAMBDA = 0 AND LAMBDA = 0
Info: LANGEVIN DYNAMICS ACTIVE
Info: LANGEVIN TEMPERATURE   298
Info: LANGEVIN USING BBK INTEGRATOR
Info: LANGEVIN DAMPING COEFFICIENT IS 1 INVERSE PS
Info: LANGEVIN DYNAMICS NOT APPLIED TO HYDROGENS
Info: LANGEVIN PISTON PRESSURE CONTROL ACTIVE
Info:        TARGET PRESSURE IS 1.01325 BAR
Info:     OSCILLATION PERIOD IS 100 FS
Info:             DECAY TIME IS 50 FS
Info:     PISTON TEMPERATURE IS 298 K
Info:       PRESSURE CONTROL IS GROUP-BASED
Info:    INITIAL STRAIN RATE IS -0.000142577 -0.000142577 -0.000142577
Info:       CELL FLUCTUATION IS ISOTROPIC
Info: PARTICLE MESH EWALD (PME) ACTIVE
Info: PME TOLERANCE               1e-05
Info: PME EWALD COEFFICIENT       0.226635
Info: PME INTERPOLATION ORDER     4
Info: PME GRID DIMENSIONS         80 80 80
Info: PME MAXIMUM GRID SPACING    1
Info: FULL ELECTROSTATIC EVALUATION FREQUENCY      1
Info: USING VERLET I (r-RESPA) MTS SCHEME.
Info: C1 SPLITTING OF LONG RANGE ELECTROSTATICS
Info: PLACING ATOMS IN PATCHES BY HYDROGEN GROUPS
Info: RIGID BONDS TO HYDROGEN : ALL
Info:         ERROR TOLERANCE : 1e-08
Info:          MAX ITERATIONS : 100
Info: RIGID WATER USING SETTLE ALGORITHM
Info: RANDOM NUMBER SEED     1740643455
Info: USE HYDROGEN BONDS?    NO
Info: COORDINATE PDB         mobley_4715906.pdb
Info: STRUCTURE FILE         mobley_4715906.psf
Info: PARAMETER file: CHARMM format!
Info: PARAMETERS             ../common/par_all27_prot_lipid.inp
Info: PARAMETERS             mobley_4715906.prm
Info: USING ARITHMETIC MEAN TO COMBINE L-J SIGMA PARAMETERS
Info: BINARY COORDINATES     mobley_4715906_equilibrated.coor
Info: SUMMARY OF PARAMETERS:
Info: 182 BONDS
Info: 450 ANGLES
Info: 571 DIHEDRAL
Info: 46 IMPROPER
Info: 6 CROSSTERM
Info: 121 VDW
Info: 0 VDW_PAIRS
Info: 0 NBTHOLE_PAIRS
Info: To read alchdata from file: mobley_4715906.pdb
Info: To read alchflag data from column: 5
Info: STRUCTURE SUMMARY:
Info: 4488 ATOMS
Info: 3000 BONDS
Info: 1536 ANGLES
Info: 72 DIHEDRALS
Info: 0 IMPROPERS
Info: 0 CROSSTERMS
Info: 0 EXCLUSIONS
Info: 4480 RIGID BONDS
Info: ALCH: 0 ATOMS TO DISAPPEAR IN FINAL STATE
Info: ALCH: 24 ATOMS TO APPEAR IN FINAL STATE
Info: 8984 DEGREES OF FREEDOM
Info: 1496 HYDROGEN GROUPS
Info: 4 ATOMS IN LARGEST HYDROGEN GROUP
Info: 1496 MIGRATION GROUPS
Info: 4 ATOMS IN LARGEST MIGRATION GROUP
Info: TOTAL MASS = 26919.1 amu
Info: TOTAL CHARGE = -7.45058e-09 e
Info: MASS DENSITY = 0.0900756 g/cm^3
Info: ATOM DENSITY = 0.00904357 atoms/A^3
Info: ADDED 4605 IMPLICIT EXCLUSIONS
Info: NONBONDED TABLE R-SQUARED SPACING: 0.0625
Info: NONBONDED TABLE SIZE: 769 POINTS
Info: REMOVING COM VELOCITY 0.0115267 -0.0499913 0.0400418
TCL: Running for 5000 steps
ETITLE: TS BOND ANGLE DIHED IMPRP ELECT VDW BOUNDARY MISC KINETIC TOTAL TEMP POTENTIAL TOTAL3 TEMPAVG PRESSURE GPRESSURE VOLUME PRESSAVG GPRESSAVG
ENERGY: 0 3.2522 9.2264 6.7510 0.0000 -15450.1768 1664.8512 0.0000 0.0000 2576.1643 -11189.9316 288.5986 -13766.0959 -11184.9503 288.5986 -7.8901 -7.8245 496264.2746 -7.8901 -7.8245
ENERGY: 1000 2.0632 12.7464 6.9349 0.0000 -15405.3971 1580.9841 0.0000 0.0000 2653.6545 -11149.0140 297.2795 -13802.6685 -11142.5965 294.4369 -47.5179 -47.4584 498459.1502 2.1390 2.1829
ENERGY: 2000 2.1986 8.1235 5.9403 0.0000 -15480.1738 1651.3310 0.0000 0.0000 2612.6800 -11199.9004 292.6893 -13812.5804 -11195.3639 295.4993 23.7626 23.5344 468097.0529 2.1483 2.1830
ENERGY: 3000 1.0361 9.9085 6.7248 0.0000 -15436.9276 1653.2107 0.0000 0.0000 2641.8946 -11124.1529 295.9621 -13766.0475 -11120.6418 296.0673 5.0948 5.7892 447338.4954 0.3166 0.3036
ENERGY: 4000 3.2430 13.0032 6.1507 0.0000 -15344.7122 1637.9113 0.0000 0.0000 2583.3073 -11101.0966 289.3988 -13684.4039 -11096.5580 297.4033 13.7541 13.8512 426632.7426 0.9031 0.9032
ENERGY: 5000 4.5848 10.2269 6.4408 0.0000 -15354.8118 1652.3091 0.0000 0.0000 2629.2648 -11051.9854 294.5472 -13681.2502 -11045.9882 298.2354 14.8818 15.4826 420152.0642 0.3567 0.3675
TCL: Running FEP window   2: Lambda1 0.0625 Lambda2 0.125  [dLambda 0.0625]
TCL: Setting parameter firsttimestep to 0
TCL: Setting parameter alchLambda to 0.0625
Info: NONBONDED TABLE R-SQUARED SPACING: 0.0625
Info: NONBONDED TABLE SIZE: 769 POINTS
TCL: Setting parameter alchLambda2 to 0.125
Info: NONBONDED TABLE R-SQUARED SPACING: 0.0625
Info: NONBONDED TABLE SIZE: 769 POINTS
TCL: Running for 5000 steps
ETITLE: TS BOND ANGLE DIHED IMPRP ELECT VDW BOUNDARY MISC KINETIC TOTAL TEMP POTENTIAL TOTAL3 TEMPAVG PRESSURE GPRESSURE VOLUME PRESSAVG GPRESSAVG
ENERGY: 0 4.5848 10.2269 6.4408 0.0000 -15354.8118 1652.5327 0.0000 0.0000 2629.1827 -11051.8438 294.5381 -13681.0265 -11046.1243 294.5381 15.6900 15.5803 420152.0642 15.6900 15.5803
ENERGY: 1000 3.7013 14.8288 8.1911 0.0000 -15392.6204 1593.8864 0.0000 0.0000 2689.1292 -11082.8836 301.2536 -13772.0129 -11076.3473 298.2401 -7.6284 -6.9281 408152.8003 2.4946 2.4761
ENERGY: 2000 3.9330 12.4172 7.9116 0.0000 -15243.3515 1503.4949 0.0000 0.0000 2586.3252 -11129.2696 289.7369 -13715.5947 -11124.6461 297.5886 -65.1052 -64.8344 426979.2091 0.5203 0.5098
ENERGY: 3000 2.4536 11.1351 6.2621 0.0000 -15497.8244 1714.1837 0.0000 0.0000 2652.1935 -11111.5965 297.1159 -13763.7900 -11107.4845 297.3286 46.3119 46.7346 422818.0307 0.0554 0.0173
ENERGY: 4000 3.0647 15.0577 7.6722 0.0000 -15450.0748 1582.9796 0.0000 0.0000 2647.8482 -11193.4524 296.6291 -13841.3006 -11189.6766 296.6409 -38.1707 -37.4085 436783.2224 1.6567 1.6833
ENERGY: 5000 1.6102 11.7306 7.8665 0.0000 -15453.1577 1658.3266 0.0000 0.0000 2616.4572 -11157.1665 293.1125 -13773.6238 -11151.7022 296.1950 -3.5082 -3.7529 435091.4594 2.1950 2.1379
TCL: Running FEP window   3: Lambda1 0.125  Lambda2 0.1875 [dLambda 0.0625]
TCL: Setting parameter firsttimestep to 0
TCL: Setting parameter alchLambda to 0.125
Info: NONBONDED TABLE R-SQUARED SPACING: 0.0625
Info: NONBONDED TABLE SIZE: 769 POINTS
TCL: Setting parameter alchLambda2 to 0.1875
Info: NONBONDED TABLE R-SQUARED SPACING: 0.0625
Info: NONBONDED TABLE SIZE: 769 POINTS
TCL: Running for 5000 steps
ETITLE: TS BOND ANGLE DIHED IMPRP ELECT VDW BOUNDARY MISC KINETIC TOTAL TEMP POTENTIAL TOTAL3 TEMPAVG PRESSURE GPRESSURE VOLUME PRESSAVG GPRESSAVG
ENERGY: 0 1.6102 11.7306 7.8665 0.0000 -15453.1577 1658.1722 0.0000 0.0000 2616.3738 -11157.4043 293.1031 -13773.7781 -11151.7309 293.1031 -3.5666 -3.7762 435091.4594 -3.5666 -3.7762
ENERGY: 1000 3.0642 18.8635 6.9528 0.0000 -15498.9595 1641.5621 0.0000 0.0000 2584.1414 -11244.3755 289.4922 -13828.5169 -11238.3844 292.3100 1.1795 2.5269 418761.9716 2.5538 2.5730
ENERGY: 2000 3.5103 12.4104 7.3002 0.0000 -15526.7892 1711.0051 0.0000 0.0000 2619.6870 -11172.8762 293.4743 -13792.5632 -11167.7050 295.5110 57.0322 56.2455 421767.2115 4.2622 4.2938
ENERGY: 3000 1.9728 19.8467 6.7215 0.0000 -15416.7909 1607.1324 0.0000 0.0000 2651.4238 -11129.6937 297.0296 -13781.1175 -11124.0358 297.2543 -10.8277 -11.7968 415031.1573 -0.7300 -0.7683
ENERGY: 4000 5.0405 10.0119 8.3318 0.0000 -15291.9788 1569.2833 0.0000 0.0000 2636.0539 -11063.2573 295.3078 -13699.3112 -11059.0226 298.9082 -26.6499 -26.9055 415200.2572 0.5761 0.5571
ENERGY: 5000 3.2579 15.2403 9.4507 0.0000 -15260.9896 1587.5647 0.0000 0.0000 2693.9936 -10951.4825 301.7986 -13645.4761 -10945.8511 300.7042 -21.1721 -21.1381 414918.2334 2.8211 2.8228
TCL: Running FEP window   4: Lambda1 0.1875 Lambda2 0.25   [dLambda 0.0625]
TCL: Setting parameter firsttimestep to 0
TCL: Setting parameter alchLambda to 0.1875
Info: NONBONDED TABLE R-SQUARED SPACING: 0.0625
Info: NONBONDED TABLE SIZE: 769 POINTS
TCL: Setting parameter alchLambda2 to 0.25
Info: NONBONDED TABLE R-SQUARED SPACING: 0.0625
Info: NONBONDED TABLE SIZE: 769 POINTS
TCL: Running for 5000 steps
ETITLE: TS BOND ANGLE DIHED IMPRP ELECT VDW BOUNDARY MISC KINETIC TOTAL TEMP POTENTIAL TOTAL3 TEMPAVG PRESSURE GPRESSURE VOLUME PRESSAVG GPRESSAVG
ENERGY: 0 3.2579 15.2403 9.4507 0.0000 -15260.9896 1587.4043 0.0000 0.0000 2693.9096 -10951.7268 301.7892 -13645.6365 -10946.8488 301.7892 -20.9673 -21.0535 414918.2334 -20.9673 -21.0535
ENERGY: 1000 2.1468 13.4553 8.8428 0.0000 -15402.6123 1648.6060 0.0000 0.0000 2696.0581 -11033.5034 302.0299 -13729.5615 -11028.5811 303.2860 -3.9465 -2.8371 422192.8694 2.2889 2.2642
ENERGY: 2000 2.7074 12.2740 5.6026 0.0000 -15549.6419 1717.7142 0.0000 0.0000 2667.2023 -11144.1414 298.7973 -13811.3438 -11139.5369 296.4836 52.1164 51.8751 431456.0751 -0.5511 -0.5576
ENERGY: 3000 1.8456 16.4960 5.9442 0.0000 -15367.0957 1551.9458 0.0000 0.0000 2646.0797 -11144.7844 296.4310 -13790.8641 -11138.3319 297.7943 -60.5505 -60.6346 449722.2496 0.8952 0.8783
ENERGY: 4000 2.4864 12.1904 6.6528 0.0000 -15529.5445 1652.3832 0.0000 0.0000 2622.0327 -11233.7990 293.7371 -13855.8317 -11228.6019 295.7658 10.5758 11.4128 437759.2285 1.0030 0.9497
ENERGY: 5000 1.4508 11.2431 6.3578 0.0000 -15429.1489 1612.6199 0.0000 0.0000 2693.4406 -11104.0368 301.7366 -13797.4774 -11098.5327 297.4185 -2.7990 -2.2078 428948.0035 2.5745 2.5321
TCL: Running FEP window   5: Lambda1 0.25   Lambda2 0.3125 [dLambda 0.0625]
TCL: Setting parameter firsttimestep to 0
TCL: Setting parameter alchLambda to 0.25
Info: NONBONDED TABLE R-SQUARED SPACING: 0.0625
Info: NONBONDED TABLE SIZE: 769 POINTS
TCL: Setting parameter alchLambda2 to 0.3125
Info: NONBONDED TABLE R-SQUARED SPACING: 0.0625
Info: NONBONDED TABLE SIZE: 769 POINTS
TCL: Running for 5000 steps
ETITLE: TS BOND ANGLE DIHED IMPRP ELECT VDW BOUNDARY MISC KINETIC TOTAL TEMP POTENTIAL TOTAL3 TEMPAVG PRESSURE GPRESSURE VOLUME PRESSAVG GPRESSAVG
ENERGY: 0 1.4508 11.2431 6.3578 0.0000 -15429.1489 1612.4654 0.0000 0.0000 2693.3614 -11104.2705 301.7278 -13797.6318 -11098.8581 301.7278 -2.6347 -2.2550 428948.0035 -2.6347 -2.2550
ENERGY: 1000 2.2546 14.4325 6.7848 0.0000 -15473.8048 1658.9026 0.0000 0.0000 2637.6451 -11153.7851 295.4861 -13791.4303 -11147.4108 296.0507 28.5007 28.7584 412869.9890 2.2342 2.1622
ENERGY: 2000 4.4740 13.3878 5.8583 0.0000 -15516.4053 1743.7940 0.0000 0.0000 2731.5043 -11017.3869 306.0008 -13748.8912 -11012.7714 296.3592 48.1377 47.6431 398321.1206 -1.2886 -1.2373
ENERGY: 3000 4.2332 9.4250 6.3922 0.0000 -15330.0553 1624.7580 0.0000 0.0000 2671.2667 -11013.9802 299.2526 -13685.2469 -11009.1122 300.2613 21.7711 21.2564 365209.5513 2.0166 1.9591
ENERGY: 4000 2.7348 12.6171 5.9995 0.0000 -15355.3646 1572.4855 0.0000 0.0000 2680.2262 -11081.3016 300.2563 -13761.5278 -11077.1074 298.9947 -45.5658 -46.2569 362989.7930 -2.7458 -2.7254
ENERGY: 5000 2.7410 12.9024 6.0918 0.0000 -15543.0404 1742.9214 0.0000 0.0000 2665.9051 -11112.4787 298.6519 -13778.3838 -11109.9691 298.3072 43.6863 44.4737 370547.9088 2.5032 2.4992
TCL: Running FEP window   6: Lambda1 0.3125 Lambda2 0.375  [dLambda 0.0625]
TCL: Setting parameter firsttimestep to 0
TCL: Setting parameter alchLambda to 0.3125
Info: NONBONDED TABLE R-SQUARED SPACING: 0.0625
Info: NONBONDED TABLE SIZE: 769 POINTS
TCL: Setting parameter alchLambda2 to 0.375
Info: NONBONDED TABLE R-SQUARED SPACING: 0.0625
Info: NONBONDED TABLE SIZE: 769 POINTS
TCL: Running for 5000 steps
ETITLE: TS BOND ANGLE DIHED IMPRP ELECT VDW BOUNDARY MISC KINETIC TOTAL TEMP POTENTIAL TOTAL3 TEMPAVG PRESSURE GPRESSURE VOLUME PRESSAVG GPRESSAVG
ENERGY: 0 2.7410 12.9024 6.0918 0.0000 -15543.0404 1742.5877 0.0000 0.0000 2665.8220 -11112.8955 298.6426 -13778.7176 -11107.9331 298.6426 44.0227 44.2201 370547.9088 44.0227 44.2201
ENERGY: 1000 1.7317 12.7507 5.8936 0.0000 -15418.1115 1628.7597 0.0000 0.0000 2682.3176 -11086.6581 300.4906 -13768.9758 -11083.0454 299.1724 -29.6857 -30.7565 362511.9462 3.0359 3.0696
ENERGY: 2000 2.3617 15.5797 5.6039 0.0000 -15246.6095 1527.7141 0.0000 0.0000 2640.4088 -11054.9414 295.7957 -13695.3502 -11050.0727 300.8845 -44.6649 -45.6916 350906.4371 2.5080 2.5124
ENERGY: 3000 3.4293 12.9877 6.5579 0.0000 -15292.2487 1604.8362 0.0000 0.0000 2669.9193 -10994.5183 299.1016 -13664.4376 -10990.0093 301.6524 8.0983 8.3237 360190.8471 0.4184 0.4265
ENERGY: 4000 2.5608 18.7826 5.8929 0.0000 -15406.7104 1627.0253 0.0000 0.0000 2658.2756 -11094.1731 297.7972 -13752.4487 -11089.0057 298.5404 -4.7973 -5.3451 357622.3636 3.7507 3.7242
ENERGY: 5000 4.4688 13.7206 6.8507 0.0000 -15592.3718 1744.4867 0.0000 0.0000 2671.8530 -11150.9920 299.3183 -13822.8450 -11146.0841 297.1906 91.8659 92.1487 350995.7341 -1.7432 -1.7004
TCL: Running FEP window   7: Lambda1 0.375  Lambda2 0.4375 [dLambda 0.0625]
TCL: Setting parameter firsttimestep to 0
TCL: Setting parameter alchLambda to 0.375
Info: NONBONDED TABLE R-SQUARED SPACING: 0.0625
Info: NONBONDED TABLE SIZE: 769 POINTS
TCL: Setting parameter alchLambda2 to 0.4375
Info: NONBONDED TABLE R-SQUARED SPACING: 0.0625
Info: NONBONDED TABLE SIZE: 769 POINTS
TCL: Running for 5000 steps
ETITLE: TS BOND ANGLE DIHED IMPRP ELECT VDW BOUNDARY MISC KINETIC TOTAL TEMP POTENTIAL TOTAL3 TEMPAVG PRESSURE GPRESSURE VOLUME PRESSAVG GPRESSAVG
ENERGY: 0 4.4688 13.7206 6.8507 0.0000 -15592.3718 1744.1865 0.0000 0.0000 2671.7729 -11151.3724 299.3093 -13823.1452 -11145.9498 299.3093 92.2142 92.0996 350995.7341 92.2142 92.0996
ENERGY: 1000 4.4095 10.9024 5.9971 0.0000 -15454.6820 1585.6327 0.0000 0.0000 2625.2245 -11222.5158 294.0946 -13847.7403 -11217.9764 296.7925 -43.5529 -44.6078 347191.9279 2.3917 2.3918
ENERGY: 2000 1.0271 10.1987 5.4768 0.0000 -15605.3846 1701.0879 0.0000 0.0000 2659.8243 -11227.7699 297.9707 -13887.5941 -11224.8669 293.1121 24.9973 22.9319 343920.7815 0.6403 0.6130
ENERGY: 3000 1.3407 10.5945 6.2088 0.0000 -15591.5688 1697.3298 0.0000 0.0000 2636.6768 -11239.4183 295.3776 -13876.0951 -11234.0060 294.8838 12.2906 11.9910 344438.3870 1.0169 1.1260
ENERGY: 4000 0.3367 8.2892 6.4881 0.0000 -15307.8411 1557.9330 0.0000 0.0000 2577.9388 -11156.8554 288.7974 -13734.7941 -11151.7410 293.8917 -9.2622 -9.1637 350881.9114 -0.2018 -0.2450
ENERGY: 5000 0.9779 11.7909 6.4629 0.0000 -15448.4663 1641.0796 0.0000 0.0000 2614.8150 -11173.3400 292.9285 -13788.1550 -11168.3183 295.2751 -0.4321 -0.6458 361554.1853 3.3146 3.3654
TCL: Running FEP window   8: Lambda1 0.4375 Lambda2 0.5    [dLambda 0.0625]
TCL: Setting parameter firsttimestep to 0
TCL: Setting parameter alchLambda to 0.4375
Info: NONBONDED TABLE R-SQUARED SPACING: 0.0625
Info: NONBONDED TABLE SIZE: 769 POINTS
TCL: Setting parameter alchLambda2 to 0.5
Info: NONBONDED TABLE R-SQUARED SPACING: 0.0625
Info: NONBONDED TABLE SIZE: 769 POINTS
TCL: Running for 5000 steps
ETITLE: TS BOND ANGLE DIHED IMPRP ELECT VDW BOUNDARY MISC KINETIC TOTAL TEMP POTENTIAL TOTAL3 TEMPAVG PRESSURE GPRESSURE VOLUME PRESSAVG GPRESSAVG
ENERGY: 0 0.9779 11.7909 6.4629 0.0000 -15448.4663 1641.8888 0.0000 0.0000 2614.7340 -11172.6118 292.9194 -13787.3458 -11166.8763 292.9194 0.0707 0.1025 361554.1853 0.0707 0.1025
ENERGY: 1000 1.6836 12.1625 5.9500 0.0000 -15454.0588 1660.3448 0.0000 0.0000 2670.8813 -11103.0368 299.2094 -13773.9180 -11095.1871 296.0426 14.7340 14.5353 367756.9112 3.4209 3.4016
ENERGY: 2000 1.7762 9.4728 7.2482 0.0000 -15395.5098 1627.3600 0.0000 0.0000 2614.8495 -11134.8031 292.9324 -13749.6527 -11130.4830 296.8572 -21.3390 -22.1983 374385.3956 2.3029 2.2602
ENERGY: 3000 0.8977 13.9522 6.1606 0.0000 -15423.7629 1685.5593 0.0000 0.0000 2608.7289 -11108.4640 292.2467 -13717.1930 -11102.3909 297.5517 48.1034 48.9471 382007.1816 0.8109 0.7626
ENERGY: 4000 2.7232 15.3477 5.9913 0.0000 -15364.2925 1630.3647 0.0000 0.0000 2665.4516 -11044.4140 298.6011 -13709.8657 -11040.8848 300.2318 4.3319 4.9270 383139.6356 -0.6171 -0.6194
ENERGY: 5000 1.6457 9.3050 5.7603 0.0000 -15291.6436 1595.0354 0.0000 0.0000 2627.9986 -11051.8985 294.4054 -13679.8971 -11046.4236 297.2333 -5.3529 -6.0340 386489.9809 0.7165 0.7481
TCL: Running FEP window   9: Lambda1 0.5    Lambda2 0.5625 [dLambda 0.0625]
TCL: Setting parameter firsttimestep to 0
TCL: Setting parameter alchLambda to 0.5
Info: NONBONDED TABLE R-SQUARED SPACING: 0.0625
Info: NONBONDED TABLE SIZE: 769 POINTS
TCL: Setting parameter alchLambda2 to 0.5625
Info: NONBONDED TABLE R-SQUARED SPACING: 0.0625
Info: NONBONDED TABLE SIZE: 769 POINTS
TCL: Running for 5000 steps
ETITLE: TS BOND ANGLE DIHED IMPRP ELECT VDW BOUNDARY MISC KINETIC TOTAL TEMP POTENTIAL TOTAL3 TEMPAVG PRESSURE GPRESSURE VOLUME PRESSAVG GPRESSAVG
ENERGY: 0 1.6457 9.3050 5.7603 0.0000 -15291.6436 1595.1792 0.0000 0.0000 2627.9197 -11051.8336 294.3966 -13679.7533 -11047.0766 294.3966 -5.6500 -5.6238 386489.9809 -5.6500 -5.6238
ENERGY: 1000 2.4482 9.4484 5.7067 0.0000 -15449.3898 1684.5547 0.0000 0.0000 2644.6100 -11102.6218 296.2663 -13747.2318 -11098.2970 297.3706 67.3229 68.4455 380245.3937 1.8424 1.9032
ENERGY: 2000 1.8779 15.3280 8.0334 0.0000 -15444.4550 1635.2783 0.0000 0.0000 2700.1371 -11083.8002 302.4868 -13783.9373 -11077.7814 298.0978 7.9085 8.8596 379462.1789 1.2311 1.2358
ENERGY: 3000 0.4550 10.7599 6.4467 0.0000 -15506.5150 1732.6693 0.0000 0.0000 2610.6569 -11145.5272 292.4627 -13756.1841 -11140.8707 296.3698 61.7724 62.6113 377230.7766 -0.3576 -0.4112
ENERGY: 4000 2.4211 11.1032 5.7048 0.0000 -15434.6060 1587.6919 0.0000 0.0000 2714.2492 -11113.4358 304.0678 -13827.6850 -11109.4928 298.6857 -34.1809 -33.1869 380233.1951 2.9933 3.0001
ENERGY: 5000 2.4457 11.6323 5.7993 0.0000 -15425.1136 1683.4264 0.0000 0.0000 2646.5276 -11075.2824 296.4811 -13721.8100 -11070.1311 300.1560 52.8575 52.2794 374752.1709 1.0093 1.0161
TCL: Running FEP window  10: Lambda1 0.5625 Lambda2 0.625  [dLambda 0.0625]
TCL: Setting parameter firsttimestep to 0
TCL: Setting parameter alchLambda to 0.5625
Info: NONBONDED TABLE R-SQUARED SPACING: 0.0625
Info: NONBONDED TABLE SIZE: 769 POINTS
TCL: Setting parameter alchLambda2 to 0.625
Info: NONBONDED TABLE R-SQUARED SPACING: 0.0625
Info: NONBONDED TABLE SIZE: 769 POINTS
TCL: Running for 5000 steps
ETITLE: TS BOND ANGLE DIHED IMPRP ELECT VDW BOUNDARY MISC KINETIC TOTAL TEMP POTENTIAL TOTAL3 TEMPAVG PRESSURE GPRESSURE VOLUME PRESSAVG GPRESSAVG
ENERGY: 0 2.4457 11.6323 5.7993 0.0000 -15425.3242 1683.3967 0.0000 0.0000 2646.4442 -11075.6061 296.4718 -13722.0503 -11070.5560 296.4718 52.4240 52.4778 374752.1709 52.4240 52.4778
ENERGY: 1000 3.2856 7.2849 6.1827 0.0000 -15506.6604 1677.2476 0.0000 0.0000 2729.4986 -11083.1610 305.7761 -13812.6595 -11076.5206 298.1357 37.8635 38.0249 385452.5146 3.4945 3.4367
ENERGY: 2000 1.1492 12.9342 6.2031 0.0000 -15344.0258 1542.2663 0.0000 0.0000 2673.3834 -11108.0895 299.4897 -13781.4729 -11102.6324 298.3990 -64.9238 -64.1498 377525.7632 -0.6372 -0.6751
ENERGY: 3000 2.9955 12.3710 6.5487 0.0000 -15435.5968 1642.7789 0.0000 0.0000 2638.8334 -11132.0693 295.6192 -13770.9026 -11127.9164 297.1876 4.5215 4.2706 382608.8296 1.9840 2.0489
ENERGY: 4000 3.5009 9.9401 5.7886 0.0000 -15267.5514 1507.5788 0.0000 0.0000 2666.3760 -11074.3670 298.7047 -13740.7429 -11069.8940 299.4816 -59.3332 -59.2645 382288.3325 1.5518 1.5442
ENERGY: 5000 3.6900 11.4009 5.5226 0.0000 -15303.6373 1611.7743 0.0000 0.0000 2633.8506 -11037.3990 295.0610 -13671.2495 -11030.2139 299.0158 -5.9399 -6.7890 387485.6346 -1.1332 -1.1435
TCL: Running FEP window  11: Lambda1 0.625  Lambda2 0.6875 [dLambda 0.0625]
TCL: Setting parameter firsttimestep to 0
TCL: Setting parameter alchLambda to 0.625
Info: NONBONDED TABLE R-SQUARED SPACING: 0.0625
Info: NONBONDED TABLE SIZE: 769 POINTS
TCL: Setting parameter alchLambda2 to 0.6875
Info: NONBONDED TABLE R-SQUARED SPACING: 0.0625
Info: NONBONDED TABLE SIZE: 769 POINTS
TCL: Running for 5000 steps
ETITLE: TS BOND ANGLE DIHED IMPRP ELECT VDW BOUNDARY MISC KINETIC TOTAL TEMP POTENTIAL TOTAL3 TEMPAVG PRESSURE GPRESSURE VOLUME PRESSAVG GPRESSAVG
ENERGY: 0 3.6900 11.4009 5.5226 0.0000 -15303.8480 1612.0173 0.0000 0.0000 2633.7694 -11037.4478 295.0519 -13671.2172 -11032.6213 295.0519 -6.0862 -6.0256 387485.6346 -6.0862 -6.0256
ENERGY: 1000 4.3731 10.3608 6.0439 0.0000 -15321.1579 1545.7268 0.0000 0.0000 2737.1162 -11017.5371 306.6295 -13754.6533 -11013.0945 300.5540 -56.7800 -56.3718 396035.8769 1.3038 1.3484
ENERGY: 2000 4.1891 7.6630 5.8165 0.0000 -15358.0446 1606.4393 0.0000 0.0000 2682.2357 -11051.7009 300.4814 -13733.9367 -11045.9192 298.9645 -15.8337 -15.0948 396562.1116 0.9803 0.9580
ENERGY: 3000 1.2265 13.4035 6.1643 0.0000 -15572.8342 1751.7378 0.0000 0.0000 2661.6263 -11138.6757 298.1726 -13800.3021 -11133.2285 298.8849 87.8315 87.6593 394663.5301 0.1682 0.1496
ENERGY: 4000 1.0903 17.8291 6.0106 0.0000 -15521.9601 1713.4686 0.0000 0.0000 2709.0896 -11074.4719 303.4897 -13783.5615 -11066.4631 295.5746 62.6041 64.1787 409215.1286 1.3573 1.3506
ENERGY: 5000 1.4264 15.3267 6.6272 0.0000 -15365.2818 1598.8268 0.0000 0.0000 2669.5565 -11073.5181 299.0610 -13743.0746 -11067.8288 297.2326 -12.5228 -13.5040 406611.4275 3.2621 3.2951
TCL: Running FEP window  12: Lambda1 0.6875 Lambda2 0.75   [dLambda 0.0625]
TCL: Setting parameter firsttimestep to 0
TCL: Setting parameter alchLambda to 0.6875
Info: NONBONDED TABLE R-SQUARED SPACING: 0.0625
Info: NONBONDED TABLE SIZE: 769 POINTS
TCL: Setting parameter alchLambda2 to 0.75
Info: NONBONDED TABLE R-SQUARED SPACING: 0.0625
Info: NONBONDED TABLE SIZE: 769 POINTS
TCL: Running for 5000 steps
ETITLE: TS BOND ANGLE DIHED IMPRP ELECT VDW BOUNDARY MISC KINETIC TOTAL TEMP POTENTIAL TOTAL3 TEMPAVG PRESSURE GPRESSURE VOLUME PRESSAVG GPRESSAVG
ENERGY: 0 1.4264 15.3267 6.6272 0.0000 -15365.4873 1598.9879 0.0000 0.0000 2669.4734 -11073.6456 299.0517 -13743.1190 -11068.7898 299.0517 -12.9953 -13.0615 406611.4275 -12.9953 -13.0615
ENERGY: 1000 1.5369 10.9058 5.9381 0.0000 -15433.1597 1643.4179 0.0000 0.0000 2692.2560 -11079.1050 301.6039 -13771.3610 -11071.6009 299.8897 -3.0337 -2.4883 404794.3935 1.5626 1.5898
ENERGY: 2000 1.4578 13.3522 6.5856 0.0000 -15676.0539 1808.2583 0.0000 0.0000 2639.5393 -11206.8607 295.6983 -13846.3999 -11201.2123 297.5900 98.3445 98.5007 392788.3104 1.1476 1.1291
ENERGY: 3000 2.7914 9.7782 6.0959 0.0000 -15588.7165 1711.7540 0.0000 0.0000 2625.7871 -11232.5098 294.1577 -13858.2969 -11226.2646 295.2373 15.9548 16.1749 405314.8892 2.5208 2.4928
ENERGY: 4000 3.8913 8.0203 6.3997 0.0000 -15537.1822 1656.1691 0.0000 0.0000 2632.3899 -11230.3119 294.8973 -13862.7018 -11226.4882 290.9975 -1.2123 -1.1227 436046.2298 -0.5554 -0.5405
ENERGY: 5000 1.5076 13.2739 5.6488 0.0000 -15448.0601 1592.4537 0.0000 0.0000 2585.1235 -11250.0526 289.6023 -13835.1761 -11245.7276 292.5666 -56.2011 -55.7971 439078.9176 1.2341 1.2627
TCL: Running FEP window  13: Lambda1 0.75   Lambda2 0.8125 [dLambda 0.0625]
TCL: Setting parameter firsttimestep to 0
TCL: Setting parameter alchLambda to 0.75
Info: NONBONDED TABLE R-SQUARED SPACING: 0.0625
Info: NONBONDED TABLE SIZE: 769 POINTS
TCL: Setting parameter alchLambda2 to 0.8125
Info: NONBONDED TABLE R-SQUARED SPACING: 0.0625
Info: NONBONDED TABLE SIZE: 769 POINTS
TCL: Running for 5000 steps
ETITLE: TS BOND ANGLE DIHED IMPRP ELECT VDW BOUNDARY MISC KINETIC TOTAL TEMP POTENTIAL TOTAL3 TEMPAVG PRESSURE GPRESSURE VOLUME PRESSAVG GPRESSAVG
ENERGY: 0 1.5076 13.2739 5.6488 0.0000 -15448.2695 1592.7944 0.0000 0.0000 2585.0430 -11250.0018 289.5932 -13835.0448 -11245.2593 289.5932 -55.7056 -55.3553 439078.9176 -55.7056 -55.3553
ENERGY: 1000 1.3157 9.5417 6.0835 0.0000 -15269.2878 1507.5141 0.0000 0.0000 2664.3488 -11080.4839 298.4776 -13744.8327 -11074.9857 298.3619 -68.9996 -68.5233 412713.3040 1.6806 1.6522
ENERGY: 2000 2.7626 12.7992 5.9785 0.0000 -15404.0231 1642.8678 0.0000 0.0000 2654.6195 -11084.9955 297.3876 -13739.6150 -11080.5652 299.3469 6.6550 6.8364 407972.6019 1.8077 1.7738
ENERGY: 3000 2.4100 10.1867 5.5271 0.0000 -15430.2785 1651.6090 0.0000 0.0000 2641.0725 -11119.4733 295.8700 -13760.5458 -11113.6434 299.1488 14.5324 14.8005 409794.9257 -0.0494 -0.0436
ENERGY: 4000 1.5963 11.1594 6.0483 0.0000 -15558.8884 1715.3547 0.0000 0.0000 2659.0581 -11165.6716 297.8849 -13824.7298 -11159.3855 296.2239 36.4181 36.5064 402859.7678 0.2189 0.2212
ENERGY: 5000 0.9540 13.0263 5.9270 0.0000 -15600.2286 1731.1475 0.0000 0.0000 2609.2893 -11239.8844 292.3095 -13849.1737 -11236.6333 295.4634 52.7805 51.6920 378232.3522 -0.8054 -0.7772
TCL: Running FEP window  14: Lambda1 0.8125 Lambda2 0.875  [dLambda 0.0625]
TCL: Setting parameter firsttimestep to 0
TCL: Setting parameter alchLambda to 0.8125
Info: NONBONDED TABLE R-SQUARED SPACING: 0.0625
Info: NONBONDED TABLE SIZE: 769 POINTS
TCL: Setting parameter alchLambda2 to 0.875
Info: NONBONDED TABLE R-SQUARED SPACING: 0.0625
Info: NONBONDED TABLE SIZE: 769 POINTS
TCL: Running for 5000 steps
ETITLE: TS BOND ANGLE DIHED IMPRP ELECT VDW BOUNDARY MISC KINETIC TOTAL TEMP POTENTIAL TOTAL3 TEMPAVG PRESSURE GPRESSURE VOLUME PRESSAVG GPRESSAVG
ENERGY: 0 0.9540 13.0263 5.9270 0.0000 -15600.4510 1732.6975 0.0000 0.0000 2609.2090 -11238.6371 292.3005 -13847.8461 -11233.4236 292.3005 53.3476 53.6727 378232.3522 53.3476 53.6727
ENERGY: 1000 0.8895 9.7392 5.7493 0.0000 -15614.4703 1683.8123 0.0000 0.0000 2675.8982 -11238.3819 299.7714 -13914.2801 -11234.6237 294.3139 14.0080 11.9162 371259.7985 -0.6123 -0.6330
ENERGY: 2000 1.5044 13.6473 5.8030 0.0000 -15503.1711 1695.4516 0.0000 0.0000 2579.8353 -11206.9294 289.0098 -13786.7647 -11202.5737 293.3757 24.9884 24.2051 380942.4905 -0.6920 -0.7002
ENERGY: 3000 2.8134 14.5481 6.4455 0.0000 -15582.3546 1739.2442 0.0000 0.0000 2622.8276 -11196.4758 293.8261 -13819.3034 -11190.7019 294.0009 35.5356 35.7461 383963.3719 -2.7973 -2.8157
ENERGY: 4000 2.2982 12.1112 5.9398 0.0000 -15534.7796 1717.5544 0.0000 0.0000 2647.7452 -11149.1309 296.6175 -13796.8760 -11142.0235 296.4766 41.3077 40.3627 383838.8474 1.2734 1.2310
ENERGY: 5000 3.3480 11.7454 7.3870 0.0000 -15588.1035 1762.4276 0.0000 0.0000 2631.9992 -11171.1963 294.8536 -13803.1955 -11166.3749 295.3421 74.6499 74.6126 387147.7049 0.3654 0.3858
TCL: Running FEP window  15: Lambda1 0.875  Lambda2 0.9375 [dLambda 0.0625]
TCL: Setting parameter firsttimestep to 0
TCL: Setting parameter alchLambda to 0.875
Info: NONBONDED TABLE R-SQUARED SPACING: 0.0625
Info: NONBONDED TABLE SIZE: 769 POINTS
TCL: Setting parameter alchLambda2 to 0.9375
Info: NONBONDED TABLE R-SQUARED SPACING: 0.0625
Info: NONBONDED TABLE SIZE: 769 POINTS
TCL: Running for 5000 steps
ETITLE: TS BOND ANGLE DIHED IMPRP ELECT VDW BOUNDARY MISC KINETIC TOTAL TEMP POTENTIAL TOTAL3 TEMPAVG PRESSURE GPRESSURE VOLUME PRESSAVG GPRESSAVG
ENERGY: 0 3.3480 11.7454 7.3870 0.0000 -15588.3033 1764.0601 0.0000 0.0000 2631.9159 -11169.8469 294.8442 -13801.7629 -11164.7258 294.8442 76.4994 76.4857 387147.7049 76.4994 76.4857
ENERGY: 1000 2.5558 13.4918 9.5381 0.0000 -15474.0785 1626.1027 0.0000 0.0000 2636.6577 -11185.7326 295.3754 -13822.3903 -11178.8426 295.1757 -7.5073 -7.8989 378542.0171 2.4724 2.4635
ENERGY: 2000 3.7044 8.5019 6.4050 0.0000 -15550.0328 1690.4305 0.0000 0.0000 2613.8921 -11227.0989 292.8251 -13840.9910 -11221.0562 296.3872 24.9961 25.2089 353430.8241 -1.0373 -1.0170
ENERGY: 3000 4.3225 17.3996 6.6331 0.0000 -15635.9261 1765.1770 0.0000 0.0000 2666.1413 -11176.2527 298.6784 -13842.3940 -11171.3863 296.9882 119.3482 118.9615 329333.3917 4.5702 4.4933
ENERGY: 4000 1.0195 15.3186 7.3420 0.0000 -15445.6260 1603.6152 0.0000 0.0000 2601.2069 -11217.1238 291.4040 -13818.3307 -11212.2097 293.4605 -74.3898 -72.8401 325820.9933 -3.5617 -3.5425
ENERGY: 5000 0.7887 19.2452 7.0706 0.0000 -15596.5084 1715.2664 0.0000 0.0000 2618.2866 -11235.8507 293.3174 -13854.1373 -11231.9515 291.8266 57.1357 57.8512 305365.5740 2.2564 2.2462
TCL: Running FEP window  16: Lambda1 0.9375 Lambda2 1.0    [dLambda 0.0625]
TCL: Setting parameter firsttimestep to 0
TCL: Setting parameter alchLambda to 0.9375
Info: NONBONDED TABLE R-SQUARED SPACING: 0.0625
Info: NONBONDED TABLE SIZE: 769 POINTS
TCL: Setting parameter alchLambda2 to 1.0
Info: NONBONDED TABLE R-SQUARED SPACING: 0.0625
Info: NONBONDED TABLE SIZE: 769 POINTS
TCL: Running for 5000 steps
ETITLE: TS BOND ANGLE DIHED IMPRP ELECT VDW BOUNDARY MISC KINETIC TOTAL TEMP POTENTIAL TOTAL3 TEMPAVG PRESSURE GPRESSURE VOLUME PRESSAVG GPRESSAVG
ENERGY: 0 0.7887 19.2452 7.0706 0.0000 -15596.7288 1717.9968 0.0000 0.0000 2618.2041 -11233.4232 293.3082 -13851.6274 -11228.4750 293.3082 61.5316 61.4727 305365.5740 61.5316 61.4727
ENERGY: 1000 4.1493 13.5913 6.5102 0.0000 -15368.2841 1587.2655 0.0000 0.0000 2636.1031 -11120.6647 295.3133 -13756.7678 -11115.3092 297.0397 13.0650 12.9091 297170.6762 0.6645 0.6510
ENERGY: 2000 1.3081 13.8867 6.6556 0.0000 -15425.1955 1627.9618 0.0000 0.0000 2702.7889 -11072.5943 302.7839 -13775.3832 -11066.3363 297.1544 22.8486 23.8776 304506.5575 2.8976 2.9013
ENERGY: 3000 1.9449 8.8583 6.5761 0.0000 -15409.5580 1664.3126 0.0000 0.0000 2641.1892 -11086.6769 295.8831 -13727.8661 -11081.8033 297.8623 60.4674 61.3251 313836.5408 2.8818 2.8239
ENERGY: 4000 1.9847 11.6824 5.9783 0.0000 -15419.9414 1641.5535 0.0000 0.0000 2674.4872 -11084.2552 299.6134 -13758.7424 -11080.5356 300.1853 -15.1813 -15.0809 325061.2500 0.0629 0.0993
ENERGY: 5000 1.2760 12.1218 6.2468 0.0000 -15538.9989 1649.0237 0.0000 0.0000 2708.3105 -11162.0201 303.4025 -13870.3306 -11155.1791 299.9309 -11.9194 -12.7519 321178.0921 3.8927 3.8789
