Info: SIMULATION PARAMETERS:
Info: TIMESTEP               1
Info: NUMBER OF STEPS        0
Info: STEPS PER CYCLE        10
Info: PERIODIC CELL BASIS 1  30 0 0
Info: PERIODIC CELL BASIS 2  0 30 0
Info: PERIODIC CELL BASIS 3  0 0 30
Info: PERIODIC CELL CENTER   0 0 0
Info: WRAPPING ALL CLUSTERS AROUND PERIODIC BOUNDARIES ON OUTPUT.
Info: FIRST LDB TIMESTEP     50
Info: LAST LDB TIMESTEP     -1
Info: HOM BACKGROUND SCALING 1
Info: MIN ATOMS PER PATCH    40
Info: EMPTY PATCH LOAD       40 ATOMS
Info: INITIAL TEMPERATURE    298
Info: CENTER OF MASS MOVING INITIALLY? NO
Info: DIELECTRIC             1
Info: EXCLUDE                SCALED ONE-FOUR
Info: 1-4 ELECTROSTATICS SCALED BY 1
Info: MODIFIED 1-4 VDW PARAMETERS WILL BE USED
Info: DCD FILENAME           output.dcd
Info: DCD FREQUENCY          25
Info: DCD FIRST STEP         25
Info: DCD FILE WILL CONTAIN UNIT CELL DATA
Info: NO EXTENDED SYSTEM TRAJECTORY OUTPUT
Info: NO VELOCITY DCD OUTPUT
Info: NO FORCE DCD OUTPUT
Info: OUTPUT FILENAME        output
Info: BINARY OUTPUT FILES WILL BE USED
Info: NO RESTART FILE
Info: SWITCHING ACTIVE
Info: SWITCHING ON           10
Info: SWITCHING OFF          12
Info: PAIRLIST DISTANCE      14
Info: PAIRLIST SHRINK RATE   0.01
Info: PAIRLIST GROW RATE     0.01
Info: PAIRLIST TRIGGER       0.3
Info: PAIRLISTS PER CYCLE    2
Info: PAIRLISTS ENABLED
Info: MARGIN                 0
Info: HYDROGEN GROUP CUTOFF  2.5
Info: PATCH DIMENSION        16.5
Info: ENERGY OUTPUT STEPS    25
Info: ENERGY EVALUATION STEPS    25
Info: OUTPUT ENERGY PRECISION 4
Info: CROSSTERM ENERGY INCLUDED IN DIHEDRAL
Info: TIMING OUTPUT STEPS    25
Info: LANGEVIN DYNAMICS ACTIVE
Info: LANGEVIN TEMPERATURE   298
Info: LANGEVIN USING BBK INTEGRATOR
Info: LANGEVIN DAMPING COEFFICIENT IS 0.5 INVERSE PS
Info: LANGEVIN DYNAMICS APPLIED TO HYDROGENS
Info: MULTILEVEL SUMMATION METHOD (MSM) FOR ELECTROSTATICS ACTIVE
Info: MSM WITH C1 CUBIC INTERPOLATION AND C2 TAYLOR SPLITTING
Info: FULL ELECTROSTATIC EVALUATION FREQUENCY      1
Info: USING VERLET I (r-RESPA) MTS SCHEME.
Info: C1 SPLITTING OF LONG RANGE ELECTROSTATICS
Info: PLACING ATOMS IN PATCHES BY HYDROGEN GROUPS
Info: RIGID BONDS TO HYDROGEN : ALL
Info:         ERROR TOLERANCE : 1e-08
Info:          MAX ITERATIONS : 100
Info: RIGID WATER USING SETTLE ALGORITHM
Info: RANDOM NUMBER SEED     1740282411
Info: USE HYDROGEN BONDS?    NO
Info: COORDINATE PDB         ionized.pdb
Info: STRUCTURE FILE         ionized.psf
Info: PARAMETER file: CHARMM format!
Info: PARAMETERS             par_all27_prot_lipid.inp
Info: USING ARITHMETIC MEAN TO COMBINE L-J SIGMA PARAMETERS
Info: SUMMARY OF PARAMETERS:
Info: 180 BONDS
Info: 447 ANGLES
Info: 566 DIHEDRAL
Info: 46 IMPROPER
Info: 6 CROSSTERM
Info: 119 VDW
Info: 0 VDW_PAIRS
Info: 0 NBTHOLE_PAIRS
Info: STRUCTURE SUMMARY:
Info: 2476 ATOMS
Info: 1650 BONDS
Info: 825 ANGLES
Info: 0 DIHEDRALS
Info: 0 IMPROPERS
Info: 0 CROSSTERMS
Info: 0 EXCLUSIONS
Info: 2475 RIGID BONDS
Info: 4953 DEGREES OF FREEDOM
Info: 826 HYDROGEN GROUPS
Info: 3 ATOMS IN LARGEST HYDROGEN GROUP
Info: 826 MIGRATION GROUPS
Info: 3 ATOMS IN LARGEST MIGRATION GROUP
Info: TOTAL MASS = 14885.7 amu
Info: TOTAL CHARGE = 1 e
Info: MASS DENSITY = 0.915513 g/cm^3
Info: ATOM DENSITY = 0.0917037 atoms/A^3
Info: ADDED 2475 IMPLICIT EXCLUSIONS
Info: NONBONDED TABLE R-SQUARED SPACING: 0.0625
Info: NONBONDED TABLE SIZE: 769 POINTS
Info: REMOVING COM VELOCITY -0.0369479 0.131786 -0.214049
Info: MSM using C1 cubic interpolation
Info: MSM using C2 Taylor splitting function
Info: MSM block size decomposition along X is 8 grid points
Info: MSM block size decomposition along Y is 8 grid points
Info: MSM block size decomposition along Z is 8 grid points
Info: MSM grid spacing along X is 2.5 A
Info: MSM grid spacing along Y is 2.5 A
Info: MSM grid spacing along Z is 2.5 A
Info: MSM using 3 levels
Info:     level 0:  [0..11] x [0..11] x [0..11]
Info:     level 1:  [0..5] x [0..5] x [0..5]
Info:     level 2:  [0..2] x [0..2] x [0..2]
Info: MSM finished calculating stencils
Info: MSM finished creating map for grid levels
Info: MSM finished creating map for patches
Info: MSM has 9 interpolation / anterpolation objects (one per patch)
Info: MSM grid level 0 decomposed into 8 blocks ( 2 x 2 x 2 )
Info: MSM grid level 1 decomposed into 1 block ( 1 x 1 x 1 )
Info: MSM grid level 2 decomposed into 1 block ( 1 x 1 x 1 )
Info: MSM grid cutoff calculation decomposed into 783 work objects
TCL: Minimizing for 1000 steps
ETITLE: TS BOND ANGLE DIHED IMPRP ELECT VDW BOUNDARY MISC KINETIC TOTAL TEMP POTENTIAL TOTAL3 TEMPAVG PRESSURE GPRESSURE VOLUME PRESSAVG GPRESSAVG
ENERGY: 0 0.0000 0.0000 0.0000 0.0000 -7348.6498 6353.7252 0.0000 0.0000 0.0000 -994.9246 0.0000 -994.9246 -994.9246 0.0000 75204.0846 46356.0499 27000.0000 75204.0846 46356.0499
ENERGY: 200 0.0000 0.0000 0.0000 0.0000 -10432.6892 1041.5649 0.0000 0.0000 0.0000 -9391.1243 0.0000 -9391.1243 -9391.1243 0.0000 18098.0373 18040.3226 27000.0000 18098.0373 18040.3226
ENERGY: 400 0.0000 0.0000 0.0000 0.0000 -10948.3604 1254.6162 0.0000 0.0000 0.0000 -9693.7442 0.0000 -9693.7442 -9693.7442 0.0000 20465.2778 20374.6681 27000.0000 20465.2778 20374.6681
ENERGY: 600 0.0000 0.0000 0.0000 0.0000 -11093.7360 1294.6542 0.0000 0.0000 0.0000 -9799.0818 0.0000 -9799.0818 -9799.0818 0.0000 20939.2346 20858.4235 27000.0000 20939.2346 20858.4235
ENERGY: 800 0.0000 0.0000 0.0000 0.0000 -11195.3518 1324.2037 0.0000 0.0000 0.0000 -9871.1481 0.0000 -9871.1481 -9871.1481 0.0000 21269.2474 21214.0331 27000.0000 21269.2474 21214.0331
ENERGY: 1000 0.0000 0.0000 0.0000 0.0000 -11271.6716 1345.6134 0.0000 0.0000 0.0000 -9926.0582 0.0000 -9926.0582 -9926.0582 0.0000 21507.6870 21452.6648 27000.0000 21507.6870 21452.6648
TCL: Running for 5000 steps
ETITLE: TS BOND ANGLE DIHED IMPRP ELECT VDW BOUNDARY MISC KINETIC TOTAL TEMP POTENTIAL TOTAL3 TEMPAVG PRESSURE GPRESSURE VOLUME PRESSAVG GPRESSAVG
ENERGY: 1000 0.0000 0.0000 0.0000 0.0000 -11271.6716 1345.6134 0.0000 0.0000 1474.7568 -8451.3014 299.6694 -9926.0582 -8451.5057 299.6694 -2454.9378 -2454.9378 27000.0000 -2454.9378 -2454.9378
ENERGY: 2000 0.0000 0.0000 0.0000 0.0000 -10002.0649 1107.2920 0.0000 0.0000 988.7540 -7906.0189 200.9140 -8894.7729 -7905.5406 200.0100 -1910.4011 -1948.3472 27000.0000 -1782.6770 -1777.3758
ENERGY: 3000 0.0000 0.0000 0.0000 0.0000 -9642.3558 1033.4567 0.0000 0.0000 1143.0099 -7465.8891 232.2587 -8608.8990 -7464.7077 240.1718 -1604.9258 -1570.7908 27000.0000 -1780.0651 -1783.7611
ENERGY: 4000 0.0000 0.0000 0.0000 0.0000 -9401.6655 964.2377 0.0000 0.0000 1273.2581 -7164.1696 258.7251 -8437.4277 -7163.5918 257.3058 -1664.9210 -1657.0860 27000.0000 -1543.3085 -1544.5099
ENERGY: 5000 0.0000 0.0000 0.0000 0.0000 -9310.7169 966.8774 0.0000 0.0000 1334.2262 -7009.6132 271.1137 -8343.8395 -7009.3279 271.7159 -1312.3016 -1375.2940 27000.0000 -1442.5006 -1447.3517
ENERGY: 6000 0.0000 0.0000 0.0000 0.0000 -9082.1283 884.8475 0.0000 0.0000 1365.1267 -6832.1541 277.3927 -8197.2808 -6831.1295 276.6182 -1669.6443 -1674.2356 27000.0000 -1670.7478 -1659.6360
