Info: SIMULATION PARAMETERS:
Info: TIMESTEP               2
Info: NUMBER OF STEPS        0
Info: STEPS PER CYCLE        10
Info: PERIODIC CELL BASIS 1  27.7938 0 0
Info: PERIODIC CELL BASIS 2  0 28.5594 0
Info: PERIODIC CELL BASIS 3  0 0 26.312
Info: PERIODIC CELL CENTER   0 0 0
Info: WRAPPING WATERS AROUND PERIODIC BOUNDARIES ON OUTPUT.
Info: WRAPPING ALL CLUSTERS AROUND PERIODIC BOUNDARIES ON OUTPUT.
Info: FIRST LDB TIMESTEP     50
Info: LAST LDB TIMESTEP     -1
Info: HOM BACKGROUND SCALING 1
Info: PME BACKGROUND SCALING 1
Info: MIN ATOMS PER PATCH    40
Info: EMPTY PATCH LOAD       40 ATOMS
Info: VELOCITY FILE          mobley_6474572_equil.vel
Info: CENTER OF MASS MOVING INITIALLY? NO
Info: DIELECTRIC             1
Info: EXCLUDE                SCALED ONE-FOUR
Info: 1-4 ELECTROSTATICS SCALED BY 0.833333
Info: MODIFIED 1-4 VDW PARAMETERS WILL BE USED
Info: DCD FILENAME           mobley_6474572_prod.dcd
Info: DCD FREQUENCY          100000
Info: DCD FIRST STEP         100000
Info: DCD FILE WILL CONTAIN UNIT CELL DATA
Info: XST FILENAME           mobley_6474572_prod.xst
Info: XST FREQUENCY          100000
Info: NO VELOCITY DCD OUTPUT
Info: NO FORCE DCD OUTPUT
Info: OUTPUT FILENAME        mobley_6474572_prod
Info: BINARY OUTPUT FILES WILL BE USED
Info: NO RESTART FILE
Info: CUTOFF                 9
Info: PAIRLIST DISTANCE      11
Info: PAIRLIST SHRINK RATE   0.01
Info: PAIRLIST GROW RATE     0.01
Info: PAIRLIST TRIGGER       0.3
Info: PAIRLISTS PER CYCLE    2
Info: PAIRLISTS ENABLED
Info: MARGIN                 2
Info: HYDROGEN GROUP CUTOFF  2.5
Info: PATCH DIMENSION        15.5
Info: ENERGY OUTPUT STEPS    100000
Info: ENERGY EVALUATION STEPS    100000
Info: OUTPUT ENERGY PRECISION 4
Info: CROSSTERM ENERGY INCLUDED IN DIHEDRAL
Info: TIMING OUTPUT STEPS    1000000
Info: PRESSURE OUTPUT STEPS  100000
Info: ALCHEMICAL FEP ON
Info: FEP CURRENT LAMBDA VALUE     1
Info: FEP COMPARISON LAMBDA VALUE  0.95
Info: FEP INTRA-ALCHEMICAL NON-BONDED INTERACTIONS WILL BE RETAINED
Info: FEP INTRA-ALCHEMICAL BONDED INTERACTIONS WILL BE RETAINED
Info: FEP VDW SHIFTING COEFFICIENT 5
Info: FEP ELEC. ACTIVE FOR ANNIHILATED PARTICLES BETWEEN LAMBDA = 0 AND LAMBDA = 0.5
Info: FEP ELEC. ACTIVE FOR EXNIHILATED PARTICLES BETWEEN LAMBDA = 0.5 AND LAMBDA = 1
Info: FEP VDW ACTIVE FOR ANNIHILATED PARTICLES BETWEEN LAMBDA = 0 AND LAMBDA = 1
Info: FEP VDW ACTIVE FOR EXNIHILATED PARTICLES BETWEEN LAMBDA = 0 AND LAMBDA = 1
Info: FEP BOND ACTIVE FOR ANNIHILATED PARTICLES BETWEEN LAMBDA = 1 AND LAMBDA = 1
Info: FEP BOND ACTIVE FOR EXNIHILATED PARTICLES BETWEEN LAMBDA = 0 AND LAMBDA = 0
Info: LANGEVIN DYNAMICS ACTIVE
Info: LANGEVIN TEMPERATURE   300
Info: LANGEVIN USING BBK INTEGRATOR
Info: LANGEVIN DAMPING COEFFICIENT IS 1 INVERSE PS
Info: LANGEVIN DYNAMICS APPLIED TO HYDROGENS
Info: LANGEVIN PISTON PRESSURE CONTROL ACTIVE
Info:        TARGET PRESSURE IS 1.01325 BAR
Info:     OSCILLATION PERIOD IS 50 FS
Info:             DECAY TIME IS 25 FS
Info:     PISTON TEMPERATURE IS 300 K
Info:       PRESSURE CONTROL IS GROUP-BASED
Info:    INITIAL STRAIN RATE IS -0.000235617 -0.000235617 -0.000235617
Info:       CELL FLUCTUATION IS ISOTROPIC
Info: PARTICLE MESH EWALD (PME) ACTIVE
Info: PME TOLERANCE               1e-06
Info: PME EWALD COEFFICIENT       0.348832
Info: PME INTERPOLATION ORDER     4
Info: PME GRID DIMENSIONS         28 32 28
Info: PME MAXIMUM GRID SPACING    1
Info: PME CALCULATION WILL BE PERFORMED ON GPU
Info: FULL ELECTROSTATIC EVALUATION FREQUENCY      2
Info: USING VERLET I (r-RESPA) MTS SCHEME.
Info: C1 SPLITTING OF LONG RANGE ELECTROSTATICS
Info: PLACING ATOMS IN PATCHES BY HYDROGEN GROUPS
Info: RIGID BONDS TO HYDROGEN : ALL
Info:         ERROR TOLERANCE : 1e-08
Info:          MAX ITERATIONS : 100
Info: RIGID WATER USING SETTLE ALGORITHM
Info: RANDOM NUMBER SEED     1741657003
Info: USE HYDROGEN BONDS?    NO
Info: Using AMBER format force field!
Info: AMBER PARM FILE        mobley_6474572.prmtop
Info: COORDINATE PDB         mobley_6474572.pdb
Info: Exclusions will be read from PARM file!
Info: SCNB (VDW SCALING)     2
Info: USING ARITHMETIC MEAN TO COMBINE L-J SIGMA PARAMETERS
Info: BINARY COORDINATES     mobley_6474572_equil.coor
Info: SUMMARY OF PARAMETERS:
Info: 6 BONDS
Info: 5 ANGLES
Info:   5 HARMONIC
Info:   0 COSINE-BASED
Info: 1 DIHEDRAL
Info: 0 IMPROPER
Info: 0 CROSSTERM
Info: 0 VDW
Info: 21 VDW_PAIRS
Info: 0 NBTHOLE_PAIRS
Info: To read alchdata from file: mobley_6474572.pdb
Info: To read alchflag data from column: 5
Info: STRUCTURE SUMMARY:
Info: 2028 ATOMS
Info: 2027 BONDS
Info: 6 ANGLES
Info: 4 DIHEDRALS
Info: 0 IMPROPERS
Info: 0 CROSSTERMS
Info: 2037 EXCLUSIONS
Info: 2025 RIGID BONDS
Info: ALCH: 0 ATOMS TO DISAPPEAR IN FINAL STATE
Info: ALCH: 6 ATOMS TO APPEAR IN FINAL STATE
Info: 4059 DEGREES OF FREEDOM
Info: 677 HYDROGEN GROUPS
Info: 3 ATOMS IN LARGEST HYDROGEN GROUP
Info: 677 MIGRATION GROUPS
Info: 3 ATOMS IN LARGEST MIGRATION GROUP
Info: TOTAL MASS = 12205.3 amu
Info: TOTAL CHARGE = 1.49012e-08 e
Info: MASS DENSITY = 0.97041 g/cm^3
Info: ATOM DENSITY = 0.0970994 atoms/A^3
Info: ADDED 0 IMPLICIT EXCLUSIONS
Info: NONBONDED TABLE R-SQUARED SPACING: 0.0625
Info: NONBONDED TABLE SIZE: 705 POINTS
Info: REMOVING COM VELOCITY -0.257625 0.0126964 -0.0996867
Info: Use 3D box decompostion in PME FFT.
Info: Updated CUDA force table with 4096 elements.
Info: Updated CUDA LJ table with 6 x 6 elements.
Info: Found 9 unique exclusion lists needing 12 bytes
TCL: Running for 1500000 steps
ETITLE: TS BOND ANGLE DIHED IMPRP ELECT VDW BOUNDARY MISC KINETIC TOTAL TEMP POTENTIAL TOTALAVG TEMPAVG PRESSURE GPRESSURE VOLUME PRESSAVG GPRESSAVG
ENERGY: 0 0.0964 0.5191 3.2799 0.0000 -7392.9388 998.8958 0.0000 0.0000 1204.2801 -5185.8674 298.6062 -6390.1475 -5185.8674 298.6062 59.0053 135.1866 20885.8193 59.0053 135.1866
ENERGY: 300000 0.6448 2.1319 0.3655 0.0000 -7451.1911 1019.8077 0.0000 0.0000 1229.5751 -5198.6661 304.8782 -6428.2412 -5161.4581 303.0278 149.5422 226.5314 20932.4349 -25.0909 60.9116
ENERGY: 600000 0.2263 1.0718 0.7906 0.0000 -7264.0042 903.1193 0.0000 0.0000 1255.7552 -5103.0410 311.3697 -6358.7962 -5164.6092 303.3014 -1084.1847 -1058.9252 21324.3042 -287.7438 -214.5588
ENERGY: 900000 0.8546 1.3780 0.9281 0.0000 -7336.0274 1009.3115 0.0000 0.0000 1160.3610 -5163.1942 287.7163 -6323.5552 -5157.8278 303.5244 546.4498 631.7655 20776.8819 -143.1048 -67.2744
ENERGY: 1200000 0.1602 0.9413 1.5812 0.0000 -7253.3611 916.7529 0.0000 0.0000 1293.3611 -5040.5644 320.6942 -6333.9255 -5155.3810 304.1499 -723.6569 -621.1928 21060.5758 -206.3059 -136.2424
ENERGY: 1500000 0.6491 1.2129 0.7339 0.0000 -7444.0673 1041.4764 0.0000 0.0000 1197.6466 -5202.3483 296.9614 -6399.9950 -5157.2984 303.8143 754.6775 808.9989 20486.5576 -45.8023 18.3165
TCL: Running FEP window   2: Lambda1 0.95   Lambda2 0.8999999999999999 [dLambda -0.050000000000000044]
TCL: Setting parameter firsttimestep to 0
TCL: Setting parameter alchLambda to 0.95
Info: NONBONDED TABLE R-SQUARED SPACING: 0.0625
Info: NONBONDED TABLE SIZE: 705 POINTS
TCL: Setting parameter alchLambda2 to 0.8999999999999999
Info: NONBONDED TABLE R-SQUARED SPACING: 0.0625
Info: NONBONDED TABLE SIZE: 705 POINTS
TCL: Running for 1500000 steps
ETITLE: TS BOND ANGLE DIHED IMPRP ELECT VDW BOUNDARY MISC KINETIC TOTAL TEMP POTENTIAL TOTALAVG TEMPAVG PRESSURE GPRESSURE VOLUME PRESSAVG GPRESSAVG
ENERGY: 0 0.6491 1.2129 0.7339 0.0000 -7443.8823 1041.5516 0.0000 0.0000 1197.0432 -5202.6916 296.8118 -6399.7348 -5202.6916 296.8118 722.0541 800.0284 20486.5576 722.0541 800.0284
ENERGY: 300000 5.5352 0.1744 0.3036 0.0000 -7265.1511 931.6872 0.0000 0.0000 1173.5288 -5153.9219 290.9813 -6327.4507 -5164.6186 300.7599 -260.6826 -200.9194 20930.0693 25.0195 68.7587
ENERGY: 600000 2.2534 1.5528 0.3575 0.0000 -7264.6544 969.1665 0.0000 0.0000 1232.2385 -5059.0856 305.5386 -6291.3241 -5143.2102 301.9587 -457.5154 -356.4607 21615.3957 -40.3073 25.8265
ENERGY: 900000 0.0003 0.9182 1.1170 0.0000 -7255.5877 928.5897 0.0000 0.0000 1151.2540 -5173.7084 285.4582 -6324.9625 -5144.1493 300.9624 -580.1349 -579.2709 21123.1139 -57.9453 -8.3940
ENERGY: 1200000 1.0599 2.9934 0.1829 0.0000 -7299.0099 920.1657 0.0000 0.0000 1223.2154 -5151.3926 303.3013 -6374.6079 -5146.1384 301.7795 -684.0403 -696.5838 21129.4963 -35.2709 14.3634
ENERGY: 1500000 0.0373 1.0830 0.6436 0.0000 -7356.0861 929.8938 0.0000 0.0000 1278.1510 -5146.2773 316.9228 -6424.4284 -5144.0908 301.6875 -702.2932 -656.9505 20769.5994 -76.0398 -23.4729
TCL: Running FEP window   3: Lambda1 0.8999999999999999 Lambda2 0.8499999999999999 [dLambda -0.050000000000000044]
TCL: Setting parameter firsttimestep to 0
TCL: Setting parameter alchLambda to 0.8999999999999999
Info: NONBONDED TABLE R-SQUARED SPACING: 0.0625
Info: NONBONDED TABLE SIZE: 705 POINTS
TCL: Setting parameter alchLambda2 to 0.8499999999999999
Info: NONBONDED TABLE R-SQUARED SPACING: 0.0625
Info: NONBONDED TABLE SIZE: 705 POINTS
TCL: Running for 1500000 steps
ETITLE: TS BOND ANGLE DIHED IMPRP ELECT VDW BOUNDARY MISC KINETIC TOTAL TEMP POTENTIAL TOTALAVG TEMPAVG PRESSURE GPRESSURE VOLUME PRESSAVG GPRESSAVG
ENERGY: 0 0.0373 1.0830 0.6436 0.0000 -7355.7313 930.0025 0.0000 0.0000 1277.5440 -5146.4208 316.7723 -6423.9648 -5146.4208 316.7723 -758.5003 -661.8036 20769.5994 -758.5003 -661.8036
ENERGY: 300000 1.1517 2.2423 0.8171 0.0000 -7299.4800 957.8551 0.0000 0.0000 1187.8753 -5149.5386 294.5386 -6337.4139 -5150.8835 302.6376 -368.6829 -270.8050 21104.0557 -607.4587 -525.0824
ENERGY: 600000 0.5459 0.6958 0.8056 0.0000 -7485.7545 1059.3231 0.0000 0.0000 1231.0262 -5193.3578 305.2380 -6424.3840 -5157.8767 301.2047 516.5063 622.4006 20944.9464 -254.6190 -167.9849
ENERGY: 900000 1.2437 0.5041 1.1172 0.0000 -7321.3480 966.8476 0.0000 0.0000 1211.9738 -5139.6616 300.5139 -6351.6354 -5149.6585 300.9219 -79.7369 -13.1726 20942.6619 -175.4133 -104.4775
ENERGY: 1200000 0.4014 1.3615 0.8237 0.0000 -7464.2393 1032.9207 0.0000 0.0000 1235.7927 -5192.9395 306.4199 -6428.7321 -5154.9362 301.2486 395.9749 594.2150 20505.8396 -95.4155 -16.8126
ENERGY: 1500000 0.3438 0.6284 3.6273 0.0000 -7260.4667 938.3113 0.0000 0.0000 1212.2897 -5105.2663 300.5922 -6317.5560 -5148.8005 301.7573 -197.2571 -220.5679 20884.2868 -93.5049 -20.4585
TCL: Running FEP window   4: Lambda1 0.8499999999999999 Lambda2 0.7999999999999998 [dLambda -0.050000000000000044]
TCL: Setting parameter firsttimestep to 0
TCL: Setting parameter alchLambda to 0.8499999999999999
Info: NONBONDED TABLE R-SQUARED SPACING: 0.0625
Info: NONBONDED TABLE SIZE: 705 POINTS
TCL: Setting parameter alchLambda2 to 0.7999999999999998
Info: NONBONDED TABLE R-SQUARED SPACING: 0.0625
Info: NONBONDED TABLE SIZE: 705 POINTS
TCL: Running for 1500000 steps
ETITLE: TS BOND ANGLE DIHED IMPRP ELECT VDW BOUNDARY MISC KINETIC TOTAL TEMP POTENTIAL TOTALAVG TEMPAVG PRESSURE GPRESSURE VOLUME PRESSAVG GPRESSAVG
ENERGY: 0 0.3438 0.6284 3.6273 0.0000 -7260.4528 937.9208 0.0000 0.0000 1211.7065 -5106.2260 300.4476 -6317.9326 -5106.2260 300.4476 -328.1780 -235.6057 20884.2868 -328.1780 -235.6057
ENERGY: 300000 0.7002 1.7192 0.8598 0.0000 -7309.1166 950.2038 0.0000 0.0000 1190.9813 -5164.6522 295.3087 -6355.6335 -5146.3917 297.4958 -612.2085 -430.8734 20942.5702 -60.1564 66.0714
ENERGY: 600000 0.5888 1.7130 0.5090 0.0000 -7386.0106 975.4364 0.0000 0.0000 1177.0008 -5230.7626 291.8422 -6407.7634 -5148.9209 298.7265 -297.3743 -257.2327 20799.4231 -61.8538 25.9833
ENERGY: 900000 1.4955 0.6384 1.7604 0.0000 -7336.7552 1005.0175 0.0000 0.0000 1184.0799 -5143.7636 293.5975 -6327.8435 -5154.8185 297.7572 295.8786 309.4174 21041.5028 46.1350 121.1641
ENERGY: 1200000 0.3978 1.6508 0.2569 0.0000 -7316.3715 1010.8127 0.0000 0.0000 1239.0374 -5064.2158 307.2244 -6303.2533 -5146.9831 299.7494 450.2307 509.8058 21054.2661 112.5319 181.0078
ENERGY: 1500000 0.5867 1.1265 1.4005 0.0000 -7395.9732 956.2434 0.0000 0.0000 1201.5502 -5235.0660 297.9293 -6436.6162 -5148.8694 300.8922 -410.7002 -312.3186 20558.2139 50.6657 123.6957
TCL: Running FEP window   5: Lambda1 0.7999999999999998 Lambda2 0.7499999999999998 [dLambda -0.050000000000000044]
TCL: Setting parameter firsttimestep to 0
TCL: Setting parameter alchLambda to 0.7999999999999998
Info: NONBONDED TABLE R-SQUARED SPACING: 0.0625
Info: NONBONDED TABLE SIZE: 705 POINTS
TCL: Setting parameter alchLambda2 to 0.7499999999999998
Info: NONBONDED TABLE R-SQUARED SPACING: 0.0625
Info: NONBONDED TABLE SIZE: 705 POINTS
TCL: Running for 1500000 steps
ETITLE: TS BOND ANGLE DIHED IMPRP ELECT VDW BOUNDARY MISC KINETIC TOTAL TEMP POTENTIAL TOTALAVG TEMPAVG PRESSURE GPRESSURE VOLUME PRESSAVG GPRESSAVG
ENERGY: 0 0.5867 1.1265 1.4005 0.0000 -7395.8205 956.3777 0.0000 0.0000 1200.9662 -5235.3630 297.7845 -6436.3292 -5235.3630 297.7845 -403.0237 -316.0881 20558.2139 -403.0237 -316.0881
ENERGY: 300000 1.1847 0.3852 2.9531 0.0000 -7424.0700 1000.4273 0.0000 0.0000 1215.1436 -5203.9761 301.2999 -6419.1196 -5192.0270 299.3981 136.5738 250.3576 20627.5208 -172.8379 -82.6824
ENERGY: 600000 0.1587 0.8729 2.9559 0.0000 -7311.1505 923.3504 0.0000 0.0000 1217.6337 -5166.1788 301.9173 -6383.8125 -5184.2964 299.1258 -749.9975 -768.4948 20981.1358 -163.0350 -105.3656
ENERGY: 900000 0.2006 0.1977 1.6563 0.0000 -7287.7458 932.3790 0.0000 0.0000 1182.6444 -5170.6679 293.2415 -6353.3123 -5186.7838 298.1142 -259.0484 -284.0307 20813.0747 -69.3245 -17.1306
ENERGY: 1200000 1.0106 0.8579 1.0220 0.0000 -7319.5165 919.6963 0.0000 0.0000 1214.6409 -5182.2888 301.1752 -6396.9297 -5184.6373 298.7425 -905.0207 -790.0597 20696.4731 -161.7596 -98.5171
ENERGY: 1500000 0.4703 1.9099 0.2953 0.0000 -7354.5658 992.2393 0.0000 0.0000 1232.9962 -5126.6548 305.7265 -6359.6510 -5184.5490 298.3414 10.5042 33.5352 21078.0518 -174.3105 -117.3394
TCL: Running FEP window   6: Lambda1 0.7499999999999998 Lambda2 0.6999999999999997 [dLambda -0.050000000000000044]
TCL: Setting parameter firsttimestep to 0
TCL: Setting parameter alchLambda to 0.7499999999999998
Info: NONBONDED TABLE R-SQUARED SPACING: 0.0625
Info: NONBONDED TABLE SIZE: 705 POINTS
TCL: Setting parameter alchLambda2 to 0.6999999999999997
Info: NONBONDED TABLE R-SQUARED SPACING: 0.0625
Info: NONBONDED TABLE SIZE: 705 POINTS
TCL: Running for 1500000 steps
ETITLE: TS BOND ANGLE DIHED IMPRP ELECT VDW BOUNDARY MISC KINETIC TOTAL TEMP POTENTIAL TOTALAVG TEMPAVG PRESSURE GPRESSURE VOLUME PRESSAVG GPRESSAVG
ENERGY: 0 0.4703 1.9099 0.2953 0.0000 -7354.3290 992.2225 0.0000 0.0000 1232.4263 -5127.0047 305.5852 -6359.4310 -5127.0047 305.5852 -75.2175 26.6757 21078.0518 -75.2175 26.6757
ENERGY: 300000 1.5810 1.1685 0.4773 0.0000 -7250.0803 936.8786 0.0000 0.0000 1261.8986 -5048.0763 312.8930 -6309.9749 -5115.5885 306.6522 -642.7162 -535.7913 21234.4313 -155.5511 -58.8049
ENERGY: 600000 1.1684 1.8048 2.3458 0.0000 -7351.9255 972.5356 0.0000 0.0000 1224.0127 -5150.0583 303.4990 -6374.0709 -5127.5504 305.1779 -33.6471 -9.0932 20856.6222 129.2693 224.4086
ENERGY: 900000 0.8222 1.5781 0.8855 0.0000 -7334.1604 1000.7739 0.0000 0.0000 1191.6086 -5138.4922 295.4643 -6330.1008 -5138.4482 303.0094 -40.7768 29.6312 21017.7318 93.2161 188.2228
ENERGY: 1200000 0.0647 1.8839 0.9190 0.0000 -7228.1078 935.8576 0.0000 0.0000 1157.3946 -5131.9881 286.9808 -6289.3826 -5133.7815 302.0670 -861.2078 -710.8468 21623.4537 57.6461 148.4877
ENERGY: 1500000 0.7470 0.6841 1.5963 0.0000 -7433.0838 957.2628 0.0000 0.0000 1265.3778 -5207.4158 313.7556 -6472.7936 -5146.8939 302.6957 -552.6797 -520.6344 20579.3170 0.9877 85.1610
TCL: Running FEP window   7: Lambda1 0.6999999999999997 Lambda2 0.6499999999999997 [dLambda -0.050000000000000044]
TCL: Setting parameter firsttimestep to 0
TCL: Setting parameter alchLambda to 0.6999999999999997
Info: NONBONDED TABLE R-SQUARED SPACING: 0.0625
Info: NONBONDED TABLE SIZE: 705 POINTS
TCL: Setting parameter alchLambda2 to 0.6499999999999997
Info: NONBONDED TABLE R-SQUARED SPACING: 0.0625
Info: NONBONDED TABLE SIZE: 705 POINTS
TCL: Running for 1500000 steps
ETITLE: TS BOND ANGLE DIHED IMPRP ELECT VDW BOUNDARY MISC KINETIC TOTAL TEMP POTENTIAL TOTALAVG TEMPAVG PRESSURE GPRESSURE VOLUME PRESSAVG GPRESSAVG
ENERGY: 0 0.7470 0.6841 1.5963 0.0000 -7432.9261 957.1105 0.0000 0.0000 1264.7546 -5208.0336 313.6011 -6472.7882 -5208.0336 313.6011 -618.5385 -527.4875 20579.3170 -618.5385 -527.4875
ENERGY: 300000 0.9252 0.8562 0.2445 0.0000 -7557.5750 1096.2033 0.0000 0.0000 1247.9711 -5211.3747 309.4396 -6459.3458 -5181.7959 308.3525 836.0928 894.0379 20721.3498 180.9675 265.6921
ENERGY: 600000 0.1879 1.3361 1.6551 0.0000 -7311.6480 993.3449 0.0000 0.0000 1195.2865 -5119.8376 296.3762 -6315.1240 -5167.5589 302.8528 136.5514 254.6833 20752.4545 264.7254 351.7719
ENERGY: 900000 0.0773 1.1992 0.7242 0.0000 -7374.9112 1003.5926 0.0000 0.0000 1214.3559 -5154.9620 301.1045 -6369.3179 -5174.2429 300.5183 276.6832 370.2883 20769.7017 400.0411 468.2301
ENERGY: 1200000 0.0642 1.4792 2.1617 0.0000 -7285.4225 919.0385 0.0000 0.0000 1237.6609 -5125.0181 306.8831 -6362.6790 -5158.9150 301.3664 -646.3976 -571.8422 20681.1942 285.2476 359.1822
ENERGY: 1500000 0.9578 0.5545 1.5573 0.0000 -7260.6516 935.4769 0.0000 0.0000 1236.2343 -5085.8708 306.5294 -6322.1051 -5142.5881 301.3652 -622.3674 -572.6010 21293.8405 137.2288 206.4624
TCL: Running FEP window   8: Lambda1 0.6499999999999997 Lambda2 0.5999999999999996 [dLambda -0.050000000000000044]
TCL: Setting parameter firsttimestep to 0
TCL: Setting parameter alchLambda to 0.6499999999999997
Info: NONBONDED TABLE R-SQUARED SPACING: 0.0625
Info: NONBONDED TABLE SIZE: 705 POINTS
TCL: Setting parameter alchLambda2 to 0.5999999999999996
Info: NONBONDED TABLE R-SQUARED SPACING: 0.0625
Info: NONBONDED TABLE SIZE: 705 POINTS
TCL: Running for 1500000 steps
ETITLE: TS BOND ANGLE DIHED IMPRP ELECT VDW BOUNDARY MISC KINETIC TOTAL TEMP POTENTIAL TOTALAVG TEMPAVG PRESSURE GPRESSURE VOLUME PRESSAVG GPRESSAVG
ENERGY: 0 0.9578 0.5545 1.5573 0.0000 -7260.6375 935.8054 0.0000 0.0000 1235.6486 -5086.1139 306.3842 -6321.7625 -5086.1139 306.3842 -657.8306 -571.4012 21293.8405 -657.8306 -571.4012
ENERGY: 300000 1.3877 0.9319 0.9019 0.0000 -7417.8992 1013.6950 0.0000 0.0000 1218.6234 -5182.3594 302.1627 -6400.9827 -5141.9439 301.5276 132.3161 194.5328 20841.6290 -25.6113 42.9941
ENERGY: 600000 0.4576 1.5967 1.1604 0.0000 -7305.9745 990.0803 0.0000 0.0000 1204.0441 -5108.6353 298.5477 -6312.6794 -5132.4152 301.5581 432.8082 461.5010 20833.4260 89.2691 148.0985
ENERGY: 900000 0.0337 1.6739 0.3190 0.0000 -7359.4290 1007.9607 0.0000 0.0000 1206.3020 -5143.1397 299.1075 -6349.4417 -5140.9808 300.0812 464.8619 437.8825 20595.6588 15.2768 65.3710
ENERGY: 1200000 0.2067 1.2639 0.6090 0.0000 -7335.6822 1064.5056 0.0000 0.0000 1233.4669 -5035.6301 305.8432 -6269.0970 -5133.8720 299.9363 868.6951 1011.9329 21146.0946 0.3756 70.8702
ENERGY: 1500000 0.9496 3.4791 0.1423 0.0000 -7387.4967 998.9931 0.0000 0.0000 1184.1003 -5199.8322 293.6026 -6383.9325 -5138.9860 300.0768 69.8523 165.1251 20766.7751 -23.4220 49.0670
TCL: Running FEP window   9: Lambda1 0.5999999999999996 Lambda2 0.5499999999999996 [dLambda -0.050000000000000044]
TCL: Setting parameter firsttimestep to 0
TCL: Setting parameter alchLambda to 0.5999999999999996
Info: NONBONDED TABLE R-SQUARED SPACING: 0.0625
Info: NONBONDED TABLE SIZE: 705 POINTS
TCL: Setting parameter alchLambda2 to 0.5499999999999996
Info: NONBONDED TABLE R-SQUARED SPACING: 0.0625
Info: NONBONDED TABLE SIZE: 705 POINTS
TCL: Running for 1500000 steps
ETITLE: TS BOND ANGLE DIHED IMPRP ELECT VDW BOUNDARY MISC KINETIC TOTAL TEMP POTENTIAL TOTALAVG TEMPAVG PRESSURE GPRESSURE VOLUME PRESSAVG GPRESSAVG
ENERGY: 0 0.9496 3.4791 0.1423 0.0000 -7387.4447 998.9839 0.0000 0.0000 1183.4960 -5200.3938 293.4527 -6383.8898 -5200.3938 293.4527 64.3894 159.9595 20766.7751 64.3894 159.9595
ENERGY: 300000 0.4243 1.8251 0.7320 0.0000 -7408.3774 1031.9919 0.0000 0.0000 1140.6304 -5232.7738 282.8240 -6373.4042 -5199.3705 293.1662 134.1473 192.9283 21253.6676 140.5056 206.0258
ENERGY: 600000 0.7253 0.0872 0.1715 0.0000 -7414.0873 1009.4356 0.0000 0.0000 1237.9238 -5165.7438 306.9483 -6403.6676 -5188.9362 295.6675 -12.9667 83.6944 20804.8804 -225.8517 -154.1124
ENERGY: 900000 1.3779 2.8869 1.1795 0.0000 -7357.5299 992.1496 0.0000 0.0000 1213.6072 -5146.3288 300.9189 -6359.9361 -5193.9794 295.4602 115.2456 207.2507 20951.8719 -194.2079 -126.9961
ENERGY: 1200000 0.1719 2.0403 0.3478 0.0000 -7398.7843 1027.4551 0.0000 0.0000 1224.2141 -5144.5551 303.5489 -6368.7693 -5184.9322 296.1834 695.7248 747.4375 20608.2794 -58.5970 13.9241
ENERGY: 1500000 0.1319 0.7250 0.7342 0.0000 -7400.4367 1044.0800 0.0000 0.0000 1257.6159 -5097.1498 311.8310 -6354.7656 -5176.7400 297.0950 942.7596 1029.8639 20685.5871 -13.3024 62.9514
TCL: Running FEP window  10: Lambda1 0.5499999999999996 Lambda2 0.4999999999999996 [dLambda -0.04999999999999999]
TCL: Setting parameter firsttimestep to 0
TCL: Setting parameter alchLambda to 0.5499999999999996
Info: NONBONDED TABLE R-SQUARED SPACING: 0.0625
Info: NONBONDED TABLE SIZE: 705 POINTS
TCL: Setting parameter alchLambda2 to 0.4999999999999996
Info: NONBONDED TABLE R-SQUARED SPACING: 0.0625
Info: NONBONDED TABLE SIZE: 705 POINTS
TCL: Running for 1500000 steps
ETITLE: TS BOND ANGLE DIHED IMPRP ELECT VDW BOUNDARY MISC KINETIC TOTAL TEMP POTENTIAL TOTALAVG TEMPAVG PRESSURE GPRESSURE VOLUME PRESSAVG GPRESSAVG
ENERGY: 0 0.1319 0.7250 0.7342 0.0000 -7400.2630 1043.5768 0.0000 0.0000 1257.0131 -5098.0820 311.6816 -6355.0952 -5098.0820 311.6816 926.8819 1014.2689 20685.5871 926.8819 1014.2689
ENERGY: 300000 0.5600 2.2856 0.4732 0.0000 -7381.5086 1044.2067 0.0000 0.0000 1160.6132 -5173.3700 287.7788 -6333.9832 -5128.7330 298.5394 953.6813 978.9190 20679.8479 703.6507 754.7677
ENERGY: 600000 1.4082 0.2428 5.1392 0.0000 -7416.0412 1075.6454 0.0000 0.0000 1245.2033 -5088.4023 308.7533 -6333.6056 -5147.6131 299.9679 903.9295 939.3071 21125.4259 461.5181 515.1035
ENERGY: 900000 1.8638 0.6144 0.2175 0.0000 -7388.6810 993.4317 0.0000 0.0000 1225.9625 -5166.5910 303.9825 -6392.5535 -5150.4035 301.0069 91.3082 185.2429 20783.2074 308.5816 366.4815
ENERGY: 1200000 0.6823 1.6429 0.4962 0.0000 -7300.1078 962.6629 0.0000 0.0000 1251.8864 -5082.7370 310.4104 -6334.6234 -5149.3041 300.7809 -291.9298 -227.8728 20988.2760 24.5477 86.1037
ENERGY: 1500000 0.1300 1.3628 0.0997 0.0000 -7309.7265 971.2777 0.0000 0.0000 1234.3446 -5102.5118 306.0608 -6336.8564 -5151.0773 300.7508 -4.5299 30.2754 20912.3522 3.8156 63.8738
TCL: Running FEP window  11: Lambda1 0.4999999999999996 Lambda2 0.4499999999999996 [dLambda -0.04999999999999999]
TCL: Setting parameter firsttimestep to 0
TCL: Setting parameter alchLambda to 0.4999999999999996
Info: NONBONDED TABLE R-SQUARED SPACING: 0.0625
Info: NONBONDED TABLE SIZE: 705 POINTS
TCL: Setting parameter alchLambda2 to 0.4499999999999996
Info: NONBONDED TABLE R-SQUARED SPACING: 0.0625
Info: NONBONDED TABLE SIZE: 705 POINTS
TCL: Running for 1500000 steps
ETITLE: TS BOND ANGLE DIHED IMPRP ELECT VDW BOUNDARY MISC KINETIC TOTAL TEMP POTENTIAL TOTALAVG TEMPAVG PRESSURE GPRESSURE VOLUME PRESSAVG GPRESSAVG
ENERGY: 0 0.1300 1.3628 0.0997 0.0000 -7309.4908 971.5278 0.0000 0.0000 1233.7743 -5102.5962 305.9194 -6336.3705 -5102.5962 305.9194 -72.3760 27.9987 20912.3522 -72.3760 27.9987
ENERGY: 300000 0.1787 2.0574 1.7161 0.0000 -7370.5476 978.4388 0.0000 0.0000 1241.0987 -5147.0579 307.7355 -6388.1566 -5118.2394 308.0937 -96.5539 -52.6743 20859.2184 195.5395 259.0945
ENERGY: 600000 0.4846 1.0519 0.4884 0.0000 -7328.0849 923.5863 0.0000 0.0000 1192.5170 -5209.9567 295.6895 -6402.4737 -5136.8510 305.4361 -621.4155 -633.0938 20435.5232 -202.4240 -152.1955
ENERGY: 900000 0.1408 1.2381 1.1574 0.0000 -7284.7773 937.8647 0.0000 0.0000 1208.1034 -5136.2730 299.5542 -6344.3764 -5131.7689 304.8082 -763.7584 -643.4243 21098.1410 -288.0541 -230.2004
ENERGY: 1200000 0.2149 0.9542 2.2428 0.0000 -7394.6602 991.5040 0.0000 0.0000 1277.7905 -5121.9538 316.8334 -6399.7442 -5143.8501 304.4924 -44.2792 -30.8506 21103.1280 -75.2443 -12.5794
ENERGY: 1500000 0.9251 0.2843 0.7097 0.0000 -7404.5510 995.0342 0.0000 0.0000 1284.4001 -5123.1977 318.4723 -6407.5978 -5139.3686 304.8243 -137.4859 -65.4153 20933.5893 -166.0555 -105.9887
TCL: Running FEP window  12: Lambda1 0.4499999999999996 Lambda2 0.39999999999999963 [dLambda -0.04999999999999999]
TCL: Setting parameter firsttimestep to 0
TCL: Setting parameter alchLambda to 0.4499999999999996
Info: NONBONDED TABLE R-SQUARED SPACING: 0.0625
Info: NONBONDED TABLE SIZE: 705 POINTS
TCL: Setting parameter alchLambda2 to 0.39999999999999963
Info: NONBONDED TABLE R-SQUARED SPACING: 0.0625
Info: NONBONDED TABLE SIZE: 705 POINTS
TCL: Running for 1500000 steps
ETITLE: TS BOND ANGLE DIHED IMPRP ELECT VDW BOUNDARY MISC KINETIC TOTAL TEMP POTENTIAL TOTALAVG TEMPAVG PRESSURE GPRESSURE VOLUME PRESSAVG GPRESSAVG
ENERGY: 0 0.9251 0.2843 0.7097 0.0000 -7404.5515 994.4499 0.0000 0.0000 1283.7936 -5124.3889 318.3219 -6408.1825 -5124.3889 318.3219 -154.7476 -72.5862 20933.5893 -154.7476 -72.5862
ENERGY: 300000 0.5529 0.7290 1.0252 0.0000 -7344.1410 950.9627 0.0000 0.0000 1231.5568 -5159.3144 305.3696 -6390.8713 -5113.5008 307.7881 -864.9999 -886.4022 21301.8929 -778.9138 -735.8409
ENERGY: 600000 0.4969 1.4961 1.4252 0.0000 -7375.1476 989.1923 0.0000 0.0000 1217.4892 -5165.0479 301.8815 -6382.5371 -5144.0904 304.5840 166.3666 200.8595 20640.1979 -424.6700 -370.9757
ENERGY: 900000 0.1664 2.6335 0.3823 0.0000 -7317.3794 976.5221 0.0000 0.0000 1250.4082 -5087.2670 310.0439 -6337.6751 -5146.2430 304.3904 -19.3725 201.6317 20749.9875 -387.9606 -304.7572
ENERGY: 1200000 1.1731 0.7323 0.2309 0.0000 -7427.7122 1004.6274 0.0000 0.0000 1190.8428 -5230.1056 295.2744 -6420.9484 -5164.0943 302.9575 -30.0339 42.3014 20600.5177 -314.8395 -231.5129
ENERGY: 1500000 1.2878 0.4002 1.1561 0.0000 -7397.0965 1027.8952 0.0000 0.0000 1248.1812 -5118.1759 309.4917 -6366.3571 -5162.9659 303.2944 366.6949 512.0614 20690.0313 -214.6295 -136.3808
TCL: Running FEP window  13: Lambda1 0.39999999999999963 Lambda2 0.34999999999999964 [dLambda -0.04999999999999999]
TCL: Setting parameter firsttimestep to 0
TCL: Setting parameter alchLambda to 0.39999999999999963
Info: NONBONDED TABLE R-SQUARED SPACING: 0.0625
Info: NONBONDED TABLE SIZE: 705 POINTS
TCL: Setting parameter alchLambda2 to 0.34999999999999964
Info: NONBONDED TABLE R-SQUARED SPACING: 0.0625
Info: NONBONDED TABLE SIZE: 705 POINTS
TCL: Running for 1500000 steps
ETITLE: TS BOND ANGLE DIHED IMPRP ELECT VDW BOUNDARY MISC KINETIC TOTAL TEMP POTENTIAL TOTALAVG TEMPAVG PRESSURE GPRESSURE VOLUME PRESSAVG GPRESSAVG
ENERGY: 0 1.2878 0.4002 1.1561 0.0000 -7397.0949 1027.5613 0.0000 0.0000 1247.5705 -5119.1188 309.3402 -6366.6894 -5119.1188 309.3402 418.7951 504.5598 20690.0313 418.7951 504.5598
ENERGY: 300000 0.8039 1.6548 0.8443 0.0000 -7388.9908 977.6253 0.0000 0.0000 1220.7759 -5187.2865 302.6964 -6408.0624 -5192.4747 298.8868 -241.5802 -204.6181 20654.2569 -275.1690 -239.9280
ENERGY: 600000 0.7832 1.0338 0.0659 0.0000 -7280.3068 897.0114 0.0000 0.0000 1191.6073 -5189.8052 295.4640 -6381.4125 -5180.7454 297.3567 -1211.7558 -1021.0272 20835.3263 -473.9816 -404.2067
ENERGY: 900000 0.2060 1.1945 0.3582 0.0000 -7270.3400 955.0321 0.0000 0.0000 1230.9515 -5082.5978 305.2195 -6313.5493 -5159.6666 298.1633 -280.5667 -304.5347 21119.9127 -367.9380 -313.1581
ENERGY: 1200000 1.7004 1.2103 1.2421 0.0000 -7329.2431 1020.2384 0.0000 0.0000 1230.9955 -5073.8564 305.2304 -6304.8519 -5148.4324 299.4162 354.1394 483.0921 21169.4988 -316.5663 -254.0716
ENERGY: 1500000 1.1424 0.6608 1.0281 0.0000 -7340.2786 1002.1147 0.0000 0.0000 1208.5150 -5126.8176 299.6563 -6335.3326 -5150.0084 298.2368 618.6817 635.1910 20381.7213 -186.6077 -127.0402
TCL: Running FEP window  14: Lambda1 0.34999999999999964 Lambda2 0.29999999999999966 [dLambda -0.04999999999999999]
TCL: Setting parameter firsttimestep to 0
TCL: Setting parameter alchLambda to 0.34999999999999964
Info: NONBONDED TABLE R-SQUARED SPACING: 0.0625
Info: NONBONDED TABLE SIZE: 705 POINTS
TCL: Setting parameter alchLambda2 to 0.29999999999999966
Info: NONBONDED TABLE R-SQUARED SPACING: 0.0625
Info: NONBONDED TABLE SIZE: 705 POINTS
TCL: Running for 1500000 steps
ETITLE: TS BOND ANGLE DIHED IMPRP ELECT VDW BOUNDARY MISC KINETIC TOTAL TEMP POTENTIAL TOTALAVG TEMPAVG PRESSURE GPRESSURE VOLUME PRESSAVG GPRESSAVG
ENERGY: 0 1.1424 0.6608 1.0281 0.0000 -7340.2773 1002.1279 0.0000 0.0000 1207.9056 -5127.4125 299.5052 -6335.3181 -5127.4125 299.5052 547.0880 633.2491 20381.7213 547.0880 633.2491
ENERGY: 300000 0.5208 1.0434 1.9110 0.0000 -7329.3109 975.9276 0.0000 0.0000 1198.5922 -5151.3159 297.1959 -6349.9081 -5123.7027 300.9591 -263.5829 -212.8060 21016.4834 159.6720 222.5200
ENERGY: 600000 1.9407 0.8828 0.3670 0.0000 -7370.2651 1012.2071 0.0000 0.0000 1177.1848 -5177.6828 291.8878 -6354.8676 -5131.5953 300.2840 347.0867 437.2939 20496.6352 109.4987 164.8000
ENERGY: 900000 0.5781 2.7982 1.0592 0.0000 -7423.7975 1006.6062 0.0000 0.0000 1208.7379 -5204.0179 299.7115 -6412.7558 -5156.8302 299.1205 -140.0141 -61.0682 20702.9600 64.8115 127.4944
ENERGY: 1200000 0.0040 0.2046 1.7505 0.0000 -7457.2741 1013.4173 0.0000 0.0000 1229.3806 -5212.5170 304.8300 -6441.8976 -5156.5673 300.3997 -375.4620 -321.7633 21163.6991 -43.6697 23.3452
ENERGY: 1500000 0.3133 1.8807 0.4665 0.0000 -7363.5756 911.2905 0.0000 0.0000 1212.3663 -5237.2584 300.6112 -6449.6247 -5159.0233 300.5397 -1081.1217 -1067.6894 20732.2663 -32.3268 25.7871
TCL: Running FEP window  15: Lambda1 0.29999999999999966 Lambda2 0.24999999999999967 [dLambda -0.04999999999999999]
TCL: Setting parameter firsttimestep to 0
TCL: Setting parameter alchLambda to 0.29999999999999966
Info: NONBONDED TABLE R-SQUARED SPACING: 0.0625
Info: NONBONDED TABLE SIZE: 705 POINTS
TCL: Setting parameter alchLambda2 to 0.24999999999999967
Info: NONBONDED TABLE R-SQUARED SPACING: 0.0625
Info: NONBONDED TABLE SIZE: 705 POINTS
TCL: Running for 1500000 steps
ETITLE: TS BOND ANGLE DIHED IMPRP ELECT VDW BOUNDARY MISC KINETIC TOTAL TEMP POTENTIAL TOTALAVG TEMPAVG PRESSURE GPRESSURE VOLUME PRESSAVG GPRESSAVG
ENERGY: 0 0.3133 1.8807 0.4665 0.0000 -7363.5756 911.4184 0.0000 0.0000 1211.7990 -5237.6977 300.4706 -6449.4967 -5237.6977 300.4706 -1152.8136 -1068.6622 20732.2663 -1152.8136 -1068.6622
ENERGY: 300000 0.9447 0.9962 1.1071 0.0000 -7356.0021 990.4607 0.0000 0.0000 1256.1258 -5106.3675 311.4616 -6362.4933 -5150.9770 301.8186 393.5250 417.4361 20683.4949 -336.4633 -282.8866
ENERGY: 600000 0.2355 1.7108 0.4302 0.0000 -7411.2720 1003.5188 0.0000 0.0000 1245.7657 -5159.6110 308.8927 -6405.3767 -5150.2183 303.6059 241.5419 285.9776 20556.7120 -318.9117 -268.8197
ENERGY: 900000 1.6036 1.3792 0.9816 0.0000 -7410.5252 1005.3974 0.0000 0.0000 1211.4879 -5189.6755 300.3934 -6401.1634 -5146.4853 303.0122 95.2887 156.9033 20667.7477 -270.1977 -207.8435
ENERGY: 1200000 0.8750 0.2966 0.1610 0.0000 -7422.1142 1059.8371 0.0000 0.0000 1276.1546 -5084.7899 316.4278 -6360.9445 -5141.2564 304.4291 682.3861 784.6884 21064.0024 -124.0810 -49.8383
ENERGY: 1500000 0.2584 3.4327 1.8423 0.0000 -7386.3963 1017.1420 0.0000 0.0000 1260.2467 -5103.4742 312.4834 -6363.7209 -5152.1668 303.6357 248.5047 268.3680 20831.7025 -82.2779 -16.5515
TCL: Running FEP window  16: Lambda1 0.24999999999999967 Lambda2 0.19999999999999968 [dLambda -0.04999999999999999]
TCL: Setting parameter firsttimestep to 0
TCL: Setting parameter alchLambda to 0.24999999999999967
Info: NONBONDED TABLE R-SQUARED SPACING: 0.0625
Info: NONBONDED TABLE SIZE: 705 POINTS
TCL: Setting parameter alchLambda2 to 0.19999999999999968
Info: NONBONDED TABLE R-SQUARED SPACING: 0.0625
Info: NONBONDED TABLE SIZE: 705 POINTS
TCL: Running for 1500000 steps
ETITLE: TS BOND ANGLE DIHED IMPRP ELECT VDW BOUNDARY MISC KINETIC TOTAL TEMP POTENTIAL TOTALAVG TEMPAVG PRESSURE GPRESSURE VOLUME PRESSAVG GPRESSAVG
ENERGY: 0 0.2584 3.4327 1.8423 0.0000 -7386.3958 1017.0348 0.0000 0.0000 1259.6677 -5104.1598 312.3398 -6363.8275 -5104.1598 312.3398 191.8025 263.7720 20831.7025 191.8025 263.7720
ENERGY: 300000 0.2439 0.7510 1.6455 0.0000 -7522.0890 1082.5359 0.0000 0.0000 1214.1648 -5222.7478 301.0572 -6436.9126 -5157.5823 303.0611 972.5687 1028.2628 20574.2672 138.5255 198.8550
ENERGY: 600000 1.1211 0.7495 0.9033 0.0000 -7387.4866 1043.1340 0.0000 0.0000 1159.5712 -5182.0076 287.5205 -6341.5787 -5152.3586 300.0613 566.8707 624.6637 20878.4821 241.2479 301.4043
ENERGY: 900000 0.7320 1.1751 0.5493 0.0000 -7344.2409 931.3635 0.0000 0.0000 1188.1211 -5222.3000 294.5995 -6410.4210 -5172.7220 299.5447 -885.7796 -743.5253 20748.3263 60.0193 123.9294
ENERGY: 1200000 0.5275 0.5586 1.2728 0.0000 -7252.8504 951.3479 0.0000 0.0000 1232.7046 -5066.4390 305.6542 -6299.1436 -5167.0421 299.6878 -295.7900 -242.0741 21105.0320 -46.9640 16.8204
ENERGY: 1500000 0.4729 1.4966 0.1685 0.0000 -7374.7139 1011.1583 0.0000 0.0000 1222.4787 -5138.9390 303.1186 -6361.4177 -5163.3749 300.2318 311.6351 377.2094 20814.7266 94.3535 154.4631
TCL: Running FEP window  17: Lambda1 0.19999999999999968 Lambda2 0.1499999999999997 [dLambda -0.04999999999999999]
TCL: Setting parameter firsttimestep to 0
TCL: Setting parameter alchLambda to 0.19999999999999968
Info: NONBONDED TABLE R-SQUARED SPACING: 0.0625
Info: NONBONDED TABLE SIZE: 705 POINTS
TCL: Setting parameter alchLambda2 to 0.1499999999999997
Info: NONBONDED TABLE R-SQUARED SPACING: 0.0625
Info: NONBONDED TABLE SIZE: 705 POINTS
TCL: Running for 1500000 steps
ETITLE: TS BOND ANGLE DIHED IMPRP ELECT VDW BOUNDARY MISC KINETIC TOTAL TEMP POTENTIAL TOTALAVG TEMPAVG PRESSURE GPRESSURE VOLUME PRESSAVG GPRESSAVG
ENERGY: 0 0.4729 1.4966 0.1685 0.0000 -7374.7131 1011.0822 0.0000 0.0000 1221.8541 -5139.6389 302.9638 -6361.4930 -5139.6389 302.9638 291.2392 375.2294 20814.7266 291.2392 375.2294
ENERGY: 300000 1.1909 1.2097 0.8499 0.0000 -7422.4788 1028.2189 0.0000 0.0000 1227.6201 -5163.3892 304.3935 -6391.0093 -5147.8414 304.7470 512.8287 459.0401 20695.3911 367.4945 391.4734
ENERGY: 600000 0.0011 1.3791 0.3950 0.0000 -7269.9645 959.4295 0.0000 0.0000 1235.9785 -5072.7812 306.4660 -6308.7598 -5147.6983 303.1359 -69.5702 -71.0778 20917.4110 -160.2868 -115.3358
ENERGY: 900000 0.0595 1.0024 2.1898 0.0000 -7409.2336 1007.1621 0.0000 0.0000 1236.5237 -5162.2960 306.6011 -6398.8197 -5143.8319 302.7079 17.6166 61.0484 20798.0788 -8.7289 45.2012
ENERGY: 1200000 0.1163 1.2700 0.9753 0.0000 -7470.5740 1017.9766 0.0000 0.0000 1197.9543 -5252.2814 297.0377 -6450.2357 -5167.5823 301.3575 324.8393 383.7746 20227.7525 -7.1286 50.1597
ENERGY: 1500000 0.7469 1.4996 0.1922 0.0000 -7321.1392 987.6222 0.0000 0.0000 1226.2547 -5104.8236 304.0549 -6331.0783 -5156.2518 302.5056 4.4811 134.3144 20924.7837 -62.8170 -0.4232
TCL: Running FEP window  18: Lambda1 0.1499999999999997 Lambda2 0.09999999999999969 [dLambda -0.05 ]
TCL: Setting parameter firsttimestep to 0
TCL: Setting parameter alchLambda to 0.1499999999999997
Info: NONBONDED TABLE R-SQUARED SPACING: 0.0625
Info: NONBONDED TABLE SIZE: 705 POINTS
TCL: Setting parameter alchLambda2 to 0.09999999999999969
Info: NONBONDED TABLE R-SQUARED SPACING: 0.0625
Info: NONBONDED TABLE SIZE: 705 POINTS
TCL: Running for 1500000 steps
ETITLE: TS BOND ANGLE DIHED IMPRP ELECT VDW BOUNDARY MISC KINETIC TOTAL TEMP POTENTIAL TOTALAVG TEMPAVG PRESSURE GPRESSURE VOLUME PRESSAVG GPRESSAVG
ENERGY: 0 0.7469 1.4996 0.1922 0.0000 -7321.1390 987.5975 0.0000 0.0000 1225.6352 -5105.4676 303.9013 -6331.1028 -5105.4676 303.9013 34.0820 130.2298 20924.7837 34.0820 130.2298
ENERGY: 300000 0.9444 1.7491 1.4317 0.0000 -7449.6813 998.8275 0.0000 0.0000 1202.1771 -5244.5514 298.0848 -6446.7285 -5188.8536 299.4033 -747.3429 -645.3450 21240.0286 -118.0058 -26.5866
ENERGY: 600000 1.2176 0.5036 3.2673 0.0000 -7355.9386 986.8335 0.0000 0.0000 1189.8516 -5174.2650 295.0286 -6364.1165 -5188.9921 296.1474 -145.6736 -6.0964 20680.8868 -248.6175 -154.5532
ENERGY: 900000 1.7828 1.4218 1.6209 0.0000 -7484.3102 1042.7417 0.0000 0.0000 1255.2351 -5181.5079 311.2407 -6436.7430 -5174.3774 299.8116 247.3598 253.6615 20609.5094 -228.2796 -159.2752
ENERGY: 1200000 0.3015 0.0790 1.5610 0.0000 -7329.1906 972.3219 0.0000 0.0000 1191.0039 -5163.9233 295.3143 -6354.9272 -5179.9700 297.9975 -364.7493 -301.4791 20998.0745 -201.7618 -134.5916
ENERGY: 1500000 0.2737 0.4405 0.3799 0.0000 -7440.5038 985.8389 0.0000 0.0000 1236.9601 -5216.6107 306.7094 -6453.5708 -5186.4797 298.1873 -351.6248 -404.2159 21039.8223 -159.9484 -100.9513
TCL: Running FEP window  19: Lambda1 0.09999999999999969 Lambda2 0.049999999999999684 [dLambda -0.05 ]
TCL: Setting parameter firsttimestep to 0
TCL: Setting parameter alchLambda to 0.09999999999999969
Info: NONBONDED TABLE R-SQUARED SPACING: 0.0625
Info: NONBONDED TABLE SIZE: 705 POINTS
TCL: Setting parameter alchLambda2 to 0.049999999999999684
Info: NONBONDED TABLE R-SQUARED SPACING: 0.0625
Info: NONBONDED TABLE SIZE: 705 POINTS
TCL: Running for 1500000 steps
ETITLE: TS BOND ANGLE DIHED IMPRP ELECT VDW BOUNDARY MISC KINETIC TOTAL TEMP POTENTIAL TOTALAVG TEMPAVG PRESSURE GPRESSURE VOLUME PRESSAVG GPRESSAVG
ENERGY: 0 0.2737 0.4405 0.3799 0.0000 -7440.5028 986.1336 0.0000 0.0000 1236.3624 -5216.9127 306.5611 -6453.2751 -5216.9127 306.5611 -469.8851 -400.8209 21039.8223 -469.8851 -400.8209
ENERGY: 300000 0.4605 2.4975 1.2947 0.0000 -7312.5504 909.1511 0.0000 0.0000 1208.3530 -5190.7936 299.6161 -6399.1466 -5172.6618 300.1526 -875.3933 -814.6340 20502.5960 -430.0911 -386.6822
ENERGY: 600000 1.0400 0.8490 1.1140 0.0000 -7401.9806 1012.6037 0.0000 0.0000 1249.0001 -5137.3739 309.6947 -6386.3739 -5162.4741 302.1093 160.9634 245.9534 20824.8409 -206.0470 -151.7521
ENERGY: 900000 0.1377 0.8786 2.0330 0.0000 -7350.9435 1015.3790 0.0000 0.0000 1296.8708 -5035.6444 321.5645 -6332.5153 -5159.1997 302.8073 761.1487 771.0113 20549.8148 -38.4833 17.9980
ENERGY: 1200000 0.3541 2.7126 0.6045 0.0000 -7383.3022 1032.0142 0.0000 0.0000 1163.5110 -5184.1058 288.4973 -6347.6168 -5164.2285 300.9847 364.3314 391.8472 20776.2209 -14.1613 44.5929
ENERGY: 1500000 0.0226 2.5201 0.2192 0.0000 -7450.6173 1024.4353 0.0000 0.0000 1173.7081 -5249.7120 291.0258 -6423.4201 -5167.0480 300.4506 287.5297 308.0398 20468.0722 -13.8828 45.4695
TCL: Running FEP window  20: Lambda1 0.049999999999999684 Lambda2 0.0    [dLambda -0.049999999999999684]
TCL: Setting parameter firsttimestep to 0
TCL: Setting parameter alchLambda to 0.049999999999999684
Info: NONBONDED TABLE R-SQUARED SPACING: 0.0625
Info: NONBONDED TABLE SIZE: 705 POINTS
TCL: Setting parameter alchLambda2 to 0.0
Info: NONBONDED TABLE R-SQUARED SPACING: 0.0625
Info: NONBONDED TABLE SIZE: 705 POINTS
TCL: Running for 1500000 steps
ETITLE: TS BOND ANGLE DIHED IMPRP ELECT VDW BOUNDARY MISC KINETIC TOTAL TEMP POTENTIAL TOTALAVG TEMPAVG PRESSURE GPRESSURE VOLUME PRESSAVG GPRESSAVG
ENERGY: 0 0.0226 2.5201 0.2192 0.0000 -7450.6167 1024.3803 0.0000 0.0000 1173.1157 -5250.3588 290.8789 -6423.4745 -5250.3588 290.8789 230.3981 305.4172 20468.0722 230.3981 305.4172
ENERGY: 300000 0.2702 1.4582 0.1839 0.0000 -7312.9799 945.2950 0.0000 0.0000 1177.8736 -5187.8989 292.0586 -6365.7725 -5166.8427 299.0835 -828.9423 -684.3296 21024.6884 -252.3715 -174.9274
ENERGY: 600000 0.3627 0.7016 4.1507 0.0000 -7277.4663 945.5450 0.0000 0.0000 1227.6459 -5099.0604 304.3999 -6326.7063 -5148.2804 300.2162 -603.7529 -511.8992 20981.4449 -221.8358 -150.5370
ENERGY: 900000 0.2595 1.5436 0.4864 0.0000 -7258.7496 956.2827 0.0000 0.0000 1180.2659 -5119.9116 292.6518 -6300.1774 -5135.4998 301.4195 -216.7192 -177.2648 20977.5490 -75.0842 -18.5593
ENERGY: 1200000 0.0410 0.8532 1.6228 0.0000 -7371.7595 1034.5024 0.0000 0.0000 1173.0563 -5161.6838 290.8641 -6334.7401 -5143.3169 300.8777 458.0821 507.9927 21022.0148 9.7740 63.1954
ENERGY: 1500000 1.8632 1.7215 0.4415 0.0000 -7520.3193 1112.1001 0.0000 0.0000 1217.2800 -5186.9131 301.8296 -6404.1930 -5140.3215 301.0862 1457.8713 1545.0152 20374.5321 164.0152 219.5840
TCL: Exiting due to exit command.
