Info: SIMULATION PARAMETERS:
Info: TIMESTEP               2
Info: NUMBER OF STEPS        0
Info: STEPS PER CYCLE        10
Info: PERIODIC CELL BASIS 1  27.4809 0 0
Info: PERIODIC CELL BASIS 2  0 27.8197 0
Info: PERIODIC CELL BASIS 3  0 0 27.4381
Info: PERIODIC CELL CENTER   0 0 0
Info: WRAPPING WATERS AROUND PERIODIC BOUNDARIES ON OUTPUT.
Info: WRAPPING ALL CLUSTERS AROUND PERIODIC BOUNDARIES ON OUTPUT.
Info: FIRST LDB TIMESTEP     50
Info: LAST LDB TIMESTEP     -1
Info: HOM BACKGROUND SCALING 1
Info: PME BACKGROUND SCALING 1
Info: MIN ATOMS PER PATCH    40
Info: EMPTY PATCH LOAD       40 ATOMS
Info: VELOCITY FILE          mobley_2146331_equil.vel
Info: CENTER OF MASS MOVING INITIALLY? NO
Info: DIELECTRIC             1
Info: EXCLUDE                SCALED ONE-FOUR
Info: 1-4 ELECTROSTATICS SCALED BY 0.833333
Info: MODIFIED 1-4 VDW PARAMETERS WILL BE USED
Info: DCD FILENAME           mobley_2146331_prod.dcd
Info: DCD FREQUENCY          100000
Info: DCD FIRST STEP         100000
Info: DCD FILE WILL CONTAIN UNIT CELL DATA
Info: XST FILENAME           mobley_2146331_prod.xst
Info: XST FREQUENCY          100000
Info: NO VELOCITY DCD OUTPUT
Info: NO FORCE DCD OUTPUT
Info: OUTPUT FILENAME        mobley_2146331_prod
Info: BINARY OUTPUT FILES WILL BE USED
Info: NO RESTART FILE
Info: CUTOFF                 9
Info: PAIRLIST DISTANCE      11
Info: PAIRLIST SHRINK RATE   0.01
Info: PAIRLIST GROW RATE     0.01
Info: PAIRLIST TRIGGER       0.3
Info: PAIRLISTS PER CYCLE    2
Info: PAIRLISTS ENABLED
Info: MARGIN                 2
Info: HYDROGEN GROUP CUTOFF  2.5
Info: PATCH DIMENSION        15.5
Info: ENERGY OUTPUT STEPS    100000
Info: ENERGY EVALUATION STEPS    100000
Info: OUTPUT ENERGY PRECISION 4
Info: CROSSTERM ENERGY INCLUDED IN DIHEDRAL
Info: TIMING OUTPUT STEPS    1000000
Info: PRESSURE OUTPUT STEPS  100000
Info: ALCHEMICAL FEP ON
Info: FEP CURRENT LAMBDA VALUE     1
Info: FEP COMPARISON LAMBDA VALUE  0.95
Info: FEP INTRA-ALCHEMICAL NON-BONDED INTERACTIONS WILL BE RETAINED
Info: FEP INTRA-ALCHEMICAL BONDED INTERACTIONS WILL BE RETAINED
Info: FEP VDW SHIFTING COEFFICIENT 5
Info: FEP ELEC. ACTIVE FOR ANNIHILATED PARTICLES BETWEEN LAMBDA = 0 AND LAMBDA = 0.5
Info: FEP ELEC. ACTIVE FOR EXNIHILATED PARTICLES BETWEEN LAMBDA = 0.5 AND LAMBDA = 1
Info: FEP VDW ACTIVE FOR ANNIHILATED PARTICLES BETWEEN LAMBDA = 0 AND LAMBDA = 1
Info: FEP VDW ACTIVE FOR EXNIHILATED PARTICLES BETWEEN LAMBDA = 0 AND LAMBDA = 1
Info: FEP BOND ACTIVE FOR ANNIHILATED PARTICLES BETWEEN LAMBDA = 1 AND LAMBDA = 1
Info: FEP BOND ACTIVE FOR EXNIHILATED PARTICLES BETWEEN LAMBDA = 0 AND LAMBDA = 0
Info: LANGEVIN DYNAMICS ACTIVE
Info: LANGEVIN TEMPERATURE   300
Info: LANGEVIN USING BBK INTEGRATOR
Info: LANGEVIN DAMPING COEFFICIENT IS 1 INVERSE PS
Info: LANGEVIN DYNAMICS APPLIED TO HYDROGENS
Info: LANGEVIN PISTON PRESSURE CONTROL ACTIVE
Info:        TARGET PRESSURE IS 1.01325 BAR
Info:     OSCILLATION PERIOD IS 50 FS
Info:             DECAY TIME IS 25 FS
Info:     PISTON TEMPERATURE IS 300 K
Info:       PRESSURE CONTROL IS GROUP-BASED
Info:    INITIAL STRAIN RATE IS 9.7571e-05 9.7571e-05 9.7571e-05
Info:       CELL FLUCTUATION IS ISOTROPIC
Info: PARTICLE MESH EWALD (PME) ACTIVE
Info: PME TOLERANCE               1e-06
Info: PME EWALD COEFFICIENT       0.348832
Info: PME INTERPOLATION ORDER     4
Info: PME GRID DIMENSIONS         28 28 28
Info: PME MAXIMUM GRID SPACING    1
Info: PME CALCULATION WILL BE PERFORMED ON GPU
Info: FULL ELECTROSTATIC EVALUATION FREQUENCY      2
Info: USING VERLET I (r-RESPA) MTS SCHEME.
Info: C1 SPLITTING OF LONG RANGE ELECTROSTATICS
Info: PLACING ATOMS IN PATCHES BY HYDROGEN GROUPS
Info: RIGID BONDS TO HYDROGEN : ALL
Info:         ERROR TOLERANCE : 1e-08
Info:          MAX ITERATIONS : 100
Info: RIGID WATER USING SETTLE ALGORITHM
Info: RANDOM NUMBER SEED     1741647973
Info: USE HYDROGEN BONDS?    NO
Info: Using AMBER format force field!
Info: AMBER PARM FILE        mobley_2146331.prmtop
Info: COORDINATE PDB         mobley_2146331.pdb
Info: Exclusions will be read from PARM file!
Info: SCNB (VDW SCALING)     2
Info: USING ARITHMETIC MEAN TO COMBINE L-J SIGMA PARAMETERS
Info: BINARY COORDINATES     mobley_2146331_equil.coor
Info: SUMMARY OF PARAMETERS:
Info: 4 BONDS
Info: 2 ANGLES
Info:   2 HARMONIC
Info:   0 COSINE-BASED
Info: 1 DIHEDRAL
Info: 0 IMPROPER
Info: 0 CROSSTERM
Info: 0 VDW
Info: 15 VDW_PAIRS
Info: 0 NBTHOLE_PAIRS
Info: To read alchdata from file: mobley_2146331.pdb
Info: To read alchflag data from column: 5
Info: STRUCTURE SUMMARY:
Info: 2026 ATOMS
Info: 2025 BONDS
Info: 3 ANGLES
Info: 1 DIHEDRALS
Info: 0 IMPROPERS
Info: 0 CROSSTERMS
Info: 2028 EXCLUSIONS
Info: 2024 RIGID BONDS
Info: ALCH: 0 ATOMS TO DISAPPEAR IN FINAL STATE
Info: ALCH: 4 ATOMS TO APPEAR IN FINAL STATE
Info: 4054 DEGREES OF FREEDOM
Info: 676 HYDROGEN GROUPS
Info: 3 ATOMS IN LARGEST HYDROGEN GROUP
Info: 676 MIGRATION GROUPS
Info: 3 ATOMS IN LARGEST MIGRATION GROUP
Info: TOTAL MASS = 12172.8 amu
Info: TOTAL CHARGE = -9.9998e-05 e
Info: MASS DENSITY = 0.963637 g/cm^3
Info: ATOM DENSITY = 0.0965835 atoms/A^3
Info: ADDED 0 IMPLICIT EXCLUSIONS
Info: NONBONDED TABLE R-SQUARED SPACING: 0.0625
Info: NONBONDED TABLE SIZE: 705 POINTS
Info: REMOVING COM VELOCITY 0.0785338 0.118319 0.269313
Info: Use 3D box decompostion in PME FFT.
Info: Updated CUDA force table with 4096 elements.
Info: Updated CUDA LJ table with 5 x 5 elements.
Info: Found 7 unique exclusion lists needing 8 bytes
TCL: Running for 1500000 steps
ETITLE: TS BOND ANGLE DIHED IMPRP ELECT VDW BOUNDARY MISC KINETIC TOTAL TEMP POTENTIAL TOTALAVG TEMPAVG PRESSURE GPRESSURE VOLUME PRESSAVG GPRESSAVG
ENERGY: 0 0.0000 2.3314 0.0200 0.0000 -7314.4307 943.2869 0.0000 0.0000 1202.9321 -5165.8603 298.6399 -6368.7925 -5165.8603 298.6399 -704.7497 -626.1649 20976.6720 -704.7497 -626.1649
ENERGY: 300000 0.0276 0.1668 0.0045 0.0000 -7276.3198 940.5653 0.0000 0.0000 1216.7436 -5118.8120 302.0687 -6335.5555 -5185.1450 300.3349 -419.7589 -407.6999 21129.0224 -217.7533 -172.4203
ENERGY: 600000 0.0260 0.1612 0.0318 0.0000 -7333.2138 989.4600 0.0000 0.0000 1191.9607 -5151.5740 295.9161 -6343.5348 -5178.3909 300.5420 -148.5536 -103.5001 21361.1455 -102.1387 -47.8925
ENERGY: 900000 0.9727 0.8862 0.1723 0.0000 -7327.8868 973.4469 0.0000 0.0000 1207.7576 -5144.6511 299.8378 -6352.4087 -5172.3481 300.3002 -205.3637 -203.0312 21002.2755 -107.4833 -70.1916
ENERGY: 1200000 0.0123 0.3529 0.0030 0.0000 -7390.8641 979.5842 0.0000 0.0000 1221.7734 -5189.1384 303.3174 -6410.9118 -5173.0119 299.5129 -189.0863 -176.2220 20871.9504 -208.0220 -169.2755
ENERGY: 1500000 0.3760 0.1448 0.2232 0.0000 -7353.1673 1021.9462 0.0000 0.0000 1204.6476 -5125.8294 299.0657 -6330.4770 -5168.3540 299.9806 297.2482 387.4714 20883.1846 -150.7164 -111.5660
TCL: Running FEP window   2: Lambda1 0.95   Lambda2 0.8999999999999999 [dLambda -0.050000000000000044]
TCL: Setting parameter firsttimestep to 0
TCL: Setting parameter alchLambda to 0.95
Info: NONBONDED TABLE R-SQUARED SPACING: 0.0625
Info: NONBONDED TABLE SIZE: 705 POINTS
TCL: Setting parameter alchLambda2 to 0.8999999999999999
Info: NONBONDED TABLE R-SQUARED SPACING: 0.0625
Info: NONBONDED TABLE SIZE: 705 POINTS
TCL: Running for 1500000 steps
ETITLE: TS BOND ANGLE DIHED IMPRP ELECT VDW BOUNDARY MISC KINETIC TOTAL TEMP POTENTIAL TOTALAVG TEMPAVG PRESSURE GPRESSURE VOLUME PRESSAVG GPRESSAVG
ENERGY: 0 0.3760 0.1448 0.2232 0.0000 -7352.3187 1021.8834 0.0000 0.0000 1204.0514 -5125.6398 298.9177 -6329.6912 -5125.6398 298.9177 298.4154 382.7256 20883.1846 298.4154 382.7256
ENERGY: 300000 0.0552 0.7612 0.1404 0.0000 -7394.9423 1022.7890 0.0000 0.0000 1179.5582 -5191.6383 292.8370 -6371.1965 -5162.2400 298.1160 552.1695 609.6498 20763.9309 357.1082 420.5973
ENERGY: 600000 0.0298 0.1866 0.7593 0.0000 -7246.1476 949.0998 0.0000 0.0000 1226.6554 -5069.4166 304.5294 -6296.0720 -5167.0264 299.5134 -640.0586 -573.0456 21606.4557 197.8216 270.9086
ENERGY: 900000 0.0898 0.1817 0.3479 0.0000 -7323.0555 929.1717 0.0000 0.0000 1237.3764 -5155.8879 307.1910 -6393.2643 -5153.3313 301.7880 -652.3313 -640.5444 20820.5196 69.2598 142.2209
ENERGY: 1200000 0.7754 0.7463 0.5970 0.0000 -7332.0536 990.8535 0.0000 0.0000 1171.8997 -5167.1817 290.9357 -6339.0814 -5158.4526 299.5238 -77.0250 35.9215 20992.1436 42.0755 129.3102
ENERGY: 1500000 1.4427 1.9113 0.0087 0.0000 -7378.8621 978.7315 0.0000 0.0000 1203.2871 -5193.4809 298.7280 -6396.7679 -5163.8939 298.8084 -382.5959 -359.3013 21024.7961 -23.3138 59.1048
TCL: Running FEP window   3: Lambda1 0.8999999999999999 Lambda2 0.8499999999999999 [dLambda -0.050000000000000044]
TCL: Setting parameter firsttimestep to 0
TCL: Setting parameter alchLambda to 0.8999999999999999
Info: NONBONDED TABLE R-SQUARED SPACING: 0.0625
Info: NONBONDED TABLE SIZE: 705 POINTS
TCL: Setting parameter alchLambda2 to 0.8499999999999999
Info: NONBONDED TABLE R-SQUARED SPACING: 0.0625
Info: NONBONDED TABLE SIZE: 705 POINTS
TCL: Running for 1500000 steps
ETITLE: TS BOND ANGLE DIHED IMPRP ELECT VDW BOUNDARY MISC KINETIC TOTAL TEMP POTENTIAL TOTALAVG TEMPAVG PRESSURE GPRESSURE VOLUME PRESSAVG GPRESSAVG
ENERGY: 0 1.4427 1.9113 0.0087 0.0000 -7377.4910 978.3687 0.0000 0.0000 1202.7132 -5193.0464 298.5855 -6395.7596 -5193.0464 298.5855 -434.4224 -366.8702 21024.7961 -434.4224 -366.8702
ENERGY: 300000 0.1158 0.2069 0.6901 0.0000 -7297.8240 918.9240 0.0000 0.0000 1220.2531 -5157.6340 302.9400 -6377.8871 -5183.0181 297.1255 -621.0509 -614.7131 20880.6112 -182.1675 -149.9647
ENERGY: 600000 0.3888 0.6812 0.0001 0.0000 -7167.6836 922.1731 0.0000 0.0000 1240.4306 -5004.0099 307.9492 -6244.4404 -5152.1682 300.0663 -194.3697 -138.0288 20942.7228 -255.9750 -203.8293
ENERGY: 900000 1.1290 0.1202 0.6747 0.0000 -7332.8832 989.2292 0.0000 0.0000 1210.8229 -5130.9073 300.5988 -6341.7302 -5161.2095 298.5716 -36.1231 113.8248 20875.2814 -82.8403 -11.2429
ENERGY: 1200000 0.0447 0.1454 0.0196 0.0000 -7479.5358 1014.4863 0.0000 0.0000 1239.7696 -5225.0702 307.7851 -6464.8398 -5164.6383 299.9094 -418.2716 -319.9471 21139.5194 -96.8882 -16.5074
ENERGY: 1500000 0.0324 2.3318 0.0548 0.0000 -7248.4102 951.2421 0.0000 0.0000 1205.4560 -5089.2931 299.2664 -6294.7491 -5156.5117 299.6452 -367.9278 -319.9867 21195.4612 -220.2980 -134.4566
TCL: Running FEP window   4: Lambda1 0.8499999999999999 Lambda2 0.7999999999999998 [dLambda -0.050000000000000044]
TCL: Setting parameter firsttimestep to 0
TCL: Setting parameter alchLambda to 0.8499999999999999
Info: NONBONDED TABLE R-SQUARED SPACING: 0.0625
Info: NONBONDED TABLE SIZE: 705 POINTS
TCL: Setting parameter alchLambda2 to 0.7999999999999998
Info: NONBONDED TABLE R-SQUARED SPACING: 0.0625
Info: NONBONDED TABLE SIZE: 705 POINTS
TCL: Running for 1500000 steps
ETITLE: TS BOND ANGLE DIHED IMPRP ELECT VDW BOUNDARY MISC KINETIC TOTAL TEMP POTENTIAL TOTALAVG TEMPAVG PRESSURE GPRESSURE VOLUME PRESSAVG GPRESSAVG
ENERGY: 0 0.0324 2.3318 0.0548 0.0000 -7247.0834 950.5303 0.0000 0.0000 1204.8314 -5089.3026 299.1114 -6294.1340 -5089.3026 299.1114 -432.9670 -334.2032 21195.4612 -432.9670 -334.2032
ENERGY: 300000 0.8812 0.0197 2.4298 0.0000 -7367.3104 1016.9341 0.0000 0.0000 1162.0968 -5184.9488 288.5021 -6347.0456 -5138.8612 298.1649 418.8299 432.4204 20997.0059 -331.8377 -258.4300
ENERGY: 600000 0.0400 1.4424 0.2199 0.0000 -7396.9104 1052.2582 0.0000 0.0000 1206.3363 -5136.6138 299.4850 -6342.9501 -5154.5751 299.7049 741.5956 778.5650 20968.7859 -108.5236 -45.8109
ENERGY: 900000 0.0228 0.2801 0.3170 0.0000 -7333.1040 1000.2939 0.0000 0.0000 1256.1188 -5076.0714 311.8440 -6332.1902 -5146.0758 301.2526 164.4425 217.6151 21057.1241 -140.1593 -83.4435
ENERGY: 1200000 0.9520 0.7077 0.0252 0.0000 -7327.9618 954.3358 0.0000 0.0000 1213.4612 -5158.4799 301.2538 -6371.9411 -5148.9509 301.1376 -455.8808 -453.3927 21296.4959 -116.1578 -64.9582
ENERGY: 1500000 0.6555 1.1746 0.1861 0.0000 -7315.0358 986.2291 0.0000 0.0000 1250.3051 -5076.4853 310.4007 -6326.7904 -5153.7711 300.7545 29.2031 42.3493 20971.1443 -92.2411 -38.8720
TCL: Running FEP window   5: Lambda1 0.7999999999999998 Lambda2 0.7499999999999998 [dLambda -0.050000000000000044]
TCL: Setting parameter firsttimestep to 0
TCL: Setting parameter alchLambda to 0.7999999999999998
Info: NONBONDED TABLE R-SQUARED SPACING: 0.0625
Info: NONBONDED TABLE SIZE: 705 POINTS
TCL: Setting parameter alchLambda2 to 0.7499999999999998
Info: NONBONDED TABLE R-SQUARED SPACING: 0.0625
Info: NONBONDED TABLE SIZE: 705 POINTS
TCL: Running for 1500000 steps
ETITLE: TS BOND ANGLE DIHED IMPRP ELECT VDW BOUNDARY MISC KINETIC TOTAL TEMP POTENTIAL TOTALAVG TEMPAVG PRESSURE GPRESSURE VOLUME PRESSAVG GPRESSAVG
ENERGY: 0 0.6555 1.1746 0.1861 0.0000 -7313.5301 986.0163 0.0000 0.0000 1249.7000 -5075.7975 310.2505 -6325.4975 -5075.7975 310.2505 -42.8108 36.6059 20971.1443 -42.8108 36.6059
ENERGY: 300000 0.2279 0.5341 0.0464 0.0000 -7435.6840 1079.0828 0.0000 0.0000 1165.1251 -5190.6677 289.2539 -6355.7928 -5141.4483 298.8118 1025.9517 1092.4959 20700.7687 -87.5086 -19.3092
ENERGY: 600000 1.3049 1.6502 0.1514 0.0000 -7306.8450 929.9053 0.0000 0.0000 1209.6399 -5164.1933 300.3051 -6373.8332 -5158.7367 299.0342 -789.7930 -706.8542 21063.4058 -46.6268 19.0026
ENERGY: 900000 0.3087 1.4714 0.2188 0.0000 -7408.1739 1022.1617 0.0000 0.0000 1176.5243 -5207.4890 292.0838 -6384.0132 -5154.3595 298.9079 592.7316 561.1239 20454.3126 18.1565 78.3057
ENERGY: 1200000 0.0172 0.9946 0.0066 0.0000 -7352.6426 1024.9543 0.0000 0.0000 1188.3958 -5138.2741 295.0311 -6326.6699 -5150.2830 297.8609 362.0224 486.3328 21007.3913 28.1726 93.2796
ENERGY: 1500000 0.0034 0.5502 0.0032 0.0000 -7210.9915 900.4998 0.0000 0.0000 1223.5059 -5086.4291 303.7475 -6309.9350 -5146.0584 298.3456 -928.6878 -814.8488 21165.0545 -92.2638 -24.1343
TCL: Running FEP window   6: Lambda1 0.7499999999999998 Lambda2 0.6999999999999997 [dLambda -0.050000000000000044]
TCL: Setting parameter firsttimestep to 0
TCL: Setting parameter alchLambda to 0.7499999999999998
Info: NONBONDED TABLE R-SQUARED SPACING: 0.0625
Info: NONBONDED TABLE SIZE: 705 POINTS
TCL: Setting parameter alchLambda2 to 0.6999999999999997
Info: NONBONDED TABLE R-SQUARED SPACING: 0.0625
Info: NONBONDED TABLE SIZE: 705 POINTS
TCL: Running for 1500000 steps
ETITLE: TS BOND ANGLE DIHED IMPRP ELECT VDW BOUNDARY MISC KINETIC TOTAL TEMP POTENTIAL TOTALAVG TEMPAVG PRESSURE GPRESSURE VOLUME PRESSAVG GPRESSAVG
ENERGY: 0 0.0034 0.5502 0.0032 0.0000 -7210.9608 900.5825 0.0000 0.0000 1222.8863 -5086.9352 303.5937 -6309.8215 -5086.9352 303.5937 -895.9666 -819.3991 21165.0545 -895.9666 -819.3991
ENERGY: 300000 0.0443 0.1423 0.0311 0.0000 -7312.8378 924.7289 0.0000 0.0000 1190.1566 -5197.7346 295.4682 -6387.8912 -5160.2359 298.2690 -727.5551 -673.8311 20771.3532 -533.5022 -461.1712
ENERGY: 600000 0.0026 0.8143 1.5039 0.0000 -7270.7209 975.9924 0.0000 0.0000 1213.4203 -5078.9873 301.2437 -6292.4077 -5160.1209 296.3252 182.7797 237.1157 20881.7396 -374.3151 -292.8805
ENERGY: 900000 0.4045 2.6035 0.3622 0.0000 -7227.6485 919.4256 0.0000 0.0000 1184.3880 -5120.4647 294.0361 -6304.8527 -5150.7532 297.1905 -601.8961 -616.6182 20916.0896 -380.9829 -301.4397
ENERGY: 1200000 0.0183 0.6536 0.0012 0.0000 -7290.0398 930.7944 0.0000 0.0000 1229.7199 -5128.8523 305.2902 -6358.5722 -5156.7073 297.8530 -674.7572 -544.8136 20872.9539 -415.8927 -335.7935
ENERGY: 1500000 2.5763 2.8649 0.3034 0.0000 -7240.5658 961.9507 0.0000 0.0000 1200.0907 -5072.7798 297.9345 -6272.8706 -5152.9108 296.9506 -448.3093 -313.5938 21379.3868 -321.4329 -240.5453
TCL: Running FEP window   7: Lambda1 0.6999999999999997 Lambda2 0.6499999999999997 [dLambda -0.050000000000000044]
TCL: Setting parameter firsttimestep to 0
TCL: Setting parameter alchLambda to 0.6999999999999997
Info: NONBONDED TABLE R-SQUARED SPACING: 0.0625
Info: NONBONDED TABLE SIZE: 705 POINTS
TCL: Setting parameter alchLambda2 to 0.6499999999999997
Info: NONBONDED TABLE R-SQUARED SPACING: 0.0625
Info: NONBONDED TABLE SIZE: 705 POINTS
TCL: Running for 1500000 steps
ETITLE: TS BOND ANGLE DIHED IMPRP ELECT VDW BOUNDARY MISC KINETIC TOTAL TEMP POTENTIAL TOTALAVG TEMPAVG PRESSURE GPRESSURE VOLUME PRESSAVG GPRESSAVG
ENERGY: 0 2.5763 2.8649 0.3034 0.0000 -7239.7834 962.1008 0.0000 0.0000 1199.4685 -5072.4696 297.7800 -6271.9381 -5072.4696 297.7800 -387.7630 -312.4962 21379.3868 -387.7630 -312.4962
ENERGY: 300000 0.0666 0.1835 0.4158 0.0000 -7349.5006 1025.9586 0.0000 0.0000 1230.4076 -5092.4684 305.4609 -6322.8760 -5142.1984 301.5074 485.3141 510.5722 20899.6108 -407.5705 -356.4855
ENERGY: 600000 0.0041 0.7288 1.1463 0.0000 -7414.9976 1050.3917 0.0000 0.0000 1210.3181 -5152.4087 300.4735 -6362.7268 -5152.3892 301.5993 489.5096 567.8042 21241.3715 -246.0453 -177.8405
ENERGY: 900000 0.8691 0.4134 0.0019 0.0000 -7376.2899 991.1289 0.0000 0.0000 1139.8347 -5244.0419 282.9753 -6383.8766 -5175.5050 298.5675 -400.7419 -367.6160 21289.5234 -139.7068 -67.2929
ENERGY: 1200000 0.3511 0.2522 0.5272 0.0000 -7329.6115 963.9944 0.0000 0.0000 1239.6877 -5124.7988 307.7648 -6364.4866 -5166.3055 300.2054 -86.3999 -2.5887 20695.0958 -215.2552 -146.7256
ENERGY: 1500000 0.0424 0.1206 0.5110 0.0000 -7400.3665 1000.2576 0.0000 0.0000 1221.6509 -5177.7840 303.2870 -6399.4349 -5166.2675 300.6909 111.2342 123.5671 20808.4530 -119.2442 -64.2619
TCL: Running FEP window   8: Lambda1 0.6499999999999997 Lambda2 0.5999999999999996 [dLambda -0.050000000000000044]
TCL: Setting parameter firsttimestep to 0
TCL: Setting parameter alchLambda to 0.6499999999999997
Info: NONBONDED TABLE R-SQUARED SPACING: 0.0625
Info: NONBONDED TABLE SIZE: 705 POINTS
TCL: Setting parameter alchLambda2 to 0.5999999999999996
Info: NONBONDED TABLE R-SQUARED SPACING: 0.0625
Info: NONBONDED TABLE SIZE: 705 POINTS
TCL: Running for 1500000 steps
ETITLE: TS BOND ANGLE DIHED IMPRP ELECT VDW BOUNDARY MISC KINETIC TOTAL TEMP POTENTIAL TOTALAVG TEMPAVG PRESSURE GPRESSURE VOLUME PRESSAVG GPRESSAVG
ENERGY: 0 0.0424 0.1206 0.5110 0.0000 -7399.8530 1000.1949 0.0000 0.0000 1221.0334 -5177.9507 303.1337 -6398.9841 -5177.9507 303.1337 40.0145 117.6403 20808.4530 40.0145 117.6403
ENERGY: 300000 0.2462 2.1417 0.9036 0.0000 -7389.3110 1025.4866 0.0000 0.0000 1212.8017 -5147.7313 301.0901 -6360.5330 -5167.0296 301.8011 745.5857 795.7879 20405.5713 534.0827 598.4466
ENERGY: 600000 0.1508 0.5913 1.3553 0.0000 -7397.3094 978.2077 0.0000 0.0000 1199.8487 -5217.1556 297.8744 -6417.0043 -5170.9992 300.8709 -391.2049 -338.0681 21045.6339 186.1208 247.7630
ENERGY: 900000 0.2366 0.9287 0.1136 0.0000 -7440.4611 1034.4171 0.0000 0.0000 1184.8791 -5219.8861 294.1580 -6404.7651 -5169.1123 302.6324 325.7344 321.1012 21089.6087 332.5448 388.6174
ENERGY: 1200000 0.3726 0.4728 0.4712 0.0000 -7391.5795 1026.1350 0.0000 0.0000 1149.5893 -5214.5386 285.3970 -6364.1278 -5175.4892 299.9531 445.9352 497.4452 20831.9018 304.6525 362.8787
ENERGY: 1500000 0.0288 0.0815 0.0077 0.0000 -7281.8232 941.2311 0.0000 0.0000 1239.7199 -5100.7542 307.7728 -6340.4741 -5165.0336 300.8327 -462.3262 -411.8891 21024.4438 214.7103 277.5042
TCL: Running FEP window   9: Lambda1 0.5999999999999996 Lambda2 0.5499999999999996 [dLambda -0.050000000000000044]
TCL: Setting parameter firsttimestep to 0
TCL: Setting parameter alchLambda to 0.5999999999999996
Info: NONBONDED TABLE R-SQUARED SPACING: 0.0625
Info: NONBONDED TABLE SIZE: 705 POINTS
TCL: Setting parameter alchLambda2 to 0.5499999999999996
Info: NONBONDED TABLE R-SQUARED SPACING: 0.0625
Info: NONBONDED TABLE SIZE: 705 POINTS
TCL: Running for 1500000 steps
ETITLE: TS BOND ANGLE DIHED IMPRP ELECT VDW BOUNDARY MISC KINETIC TOTAL TEMP POTENTIAL TOTALAVG TEMPAVG PRESSURE GPRESSURE VOLUME PRESSAVG GPRESSAVG
ENERGY: 0 0.0288 0.0815 0.0077 0.0000 -7281.4825 941.4971 0.0000 0.0000 1239.0889 -5100.7785 307.6161 -6339.8674 -5100.7785 307.6161 -500.9952 -412.5262 21024.4438 -500.9952 -412.5262
ENERGY: 300000 0.0262 0.2772 0.0764 0.0000 -7403.0043 1026.3955 0.0000 0.0000 1249.5660 -5126.6630 310.2172 -6376.2291 -5149.1107 304.9724 650.4353 741.8015 20479.2618 -392.7229 -328.8730
ENERGY: 600000 0.0351 1.5274 0.0166 0.0000 -7357.1691 1002.0166 0.0000 0.0000 1188.4107 -5165.1628 295.0348 -6353.5735 -5147.5461 305.0084 275.0285 344.9558 20713.7259 -231.7668 -165.1982
ENERGY: 900000 1.3392 2.7462 0.2772 0.0000 -7342.3671 993.8327 0.0000 0.0000 1230.4846 -5113.6872 305.4800 -6344.1718 -5146.0037 302.1504 80.8807 130.9977 20721.6136 -77.4343 -13.9443
ENERGY: 1200000 0.0265 0.3118 0.0161 0.0000 -7403.5697 1024.0454 0.0000 0.0000 1234.4503 -5144.7196 306.4646 -6379.1699 -5143.1291 302.8349 377.1645 425.4114 20866.6349 62.0652 126.8408
ENERGY: 1500000 0.1858 0.5223 0.1994 0.0000 -7382.0415 994.3918 0.0000 0.0000 1207.4274 -5179.3148 299.7558 -6386.7422 -5145.6775 302.5000 -310.4640 -263.7764 21090.5073 66.9843 132.3105
TCL: Running FEP window  10: Lambda1 0.5499999999999996 Lambda2 0.4999999999999996 [dLambda -0.04999999999999999]
TCL: Setting parameter firsttimestep to 0
TCL: Setting parameter alchLambda to 0.5499999999999996
Info: NONBONDED TABLE R-SQUARED SPACING: 0.0625
Info: NONBONDED TABLE SIZE: 705 POINTS
TCL: Setting parameter alchLambda2 to 0.4999999999999996
Info: NONBONDED TABLE R-SQUARED SPACING: 0.0625
Info: NONBONDED TABLE SIZE: 705 POINTS
TCL: Running for 1500000 steps
ETITLE: TS BOND ANGLE DIHED IMPRP ELECT VDW BOUNDARY MISC KINETIC TOTAL TEMP POTENTIAL TOTALAVG TEMPAVG PRESSURE GPRESSURE VOLUME PRESSAVG GPRESSAVG
ENERGY: 0 0.1858 0.5223 0.1994 0.0000 -7381.0400 994.2407 0.0000 0.0000 1206.8381 -5179.0537 299.6095 -6385.8918 -5179.0537 299.6095 -347.7419 -267.4170 21090.5073 -347.7419 -267.4170
ENERGY: 300000 0.0896 0.2706 0.2221 0.0000 -7364.1343 994.9322 0.0000 0.0000 1175.3007 -5193.3191 291.7801 -6368.6198 -5195.2262 296.6544 -158.5675 -144.9774 20865.5472 -153.9307 -73.8314
ENERGY: 600000 0.4180 0.6547 0.0201 0.0000 -7369.9934 1050.6993 0.0000 0.0000 1258.4251 -5059.7761 312.4165 -6318.2013 -5185.5917 299.5362 1158.6948 1215.6194 20795.3355 197.7934 257.1088
ENERGY: 900000 1.2526 0.2883 0.0162 0.0000 -7205.3696 947.1156 0.0000 0.0000 1240.2830 -5016.4140 307.9126 -6256.6970 -5161.7579 302.4653 -215.4637 -105.9586 20943.9727 125.2103 194.9657
ENERGY: 1200000 0.0099 0.0913 0.0267 0.0000 -7376.8442 974.0982 0.0000 0.0000 1215.3017 -5187.3164 301.7107 -6402.6181 -5161.4704 301.8746 -325.1878 -178.1066 20729.0239 20.3270 88.6390
ENERGY: 1500000 0.4676 0.3804 0.0177 0.0000 -7436.2647 1041.3181 0.0000 0.0000 1191.9857 -5202.0952 295.9223 -6394.0809 -5174.4565 300.4988 589.1886 658.7632 20718.8938 47.6788 114.9558
TCL: Running FEP window  11: Lambda1 0.4999999999999996 Lambda2 0.4499999999999996 [dLambda -0.04999999999999999]
TCL: Setting parameter firsttimestep to 0
TCL: Setting parameter alchLambda to 0.4999999999999996
Info: NONBONDED TABLE R-SQUARED SPACING: 0.0625
Info: NONBONDED TABLE SIZE: 705 POINTS
TCL: Setting parameter alchLambda2 to 0.4499999999999996
Info: NONBONDED TABLE R-SQUARED SPACING: 0.0625
Info: NONBONDED TABLE SIZE: 705 POINTS
TCL: Running for 1500000 steps
ETITLE: TS BOND ANGLE DIHED IMPRP ELECT VDW BOUNDARY MISC KINETIC TOTAL TEMP POTENTIAL TOTALAVG TEMPAVG PRESSURE GPRESSURE VOLUME PRESSAVG GPRESSAVG
ENERGY: 0 0.4676 0.3804 0.0177 0.0000 -7436.0138 1041.4096 0.0000 0.0000 1191.3711 -5202.3674 295.7697 -6393.7385 -5202.3674 295.7697 560.7292 652.2293 20718.8938 560.7292 652.2293
ENERGY: 300000 0.1555 0.0703 0.1293 0.0000 -7346.3078 977.8035 0.0000 0.0000 1224.3769 -5143.7722 303.9637 -6368.1491 -5171.0272 301.9542 -84.2541 -13.6353 20994.9501 207.6452 271.3826
ENERGY: 600000 1.1056 0.8413 0.2826 0.0000 -7261.4127 906.9334 0.0000 0.0000 1204.0384 -5148.2115 298.9145 -6352.2499 -5173.8538 299.6687 -805.8939 -715.1096 20791.1297 55.1865 108.2272
ENERGY: 900000 0.0006 0.0902 0.2035 0.0000 -7342.2676 1021.5409 0.0000 0.0000 1154.6700 -5165.7624 286.6583 -6320.4324 -5166.7932 299.5526 328.0659 421.4110 21140.6640 -20.6160 49.1869
ENERGY: 1200000 0.7319 0.6565 0.4363 0.0000 -7288.0845 917.9658 0.0000 0.0000 1215.9799 -5152.3142 301.8791 -6368.2941 -5159.6759 299.6988 -949.7435 -804.2191 20843.4763 -121.3082 -51.5051
ENERGY: 1500000 0.1995 1.3294 0.0265 0.0000 -7397.0985 1001.3577 0.0000 0.0000 1177.3481 -5216.8372 292.2884 -6394.1853 -5160.1469 299.1041 -104.8709 -5.4132 20936.6503 -62.5357 4.0287
TCL: Running FEP window  12: Lambda1 0.4499999999999996 Lambda2 0.39999999999999963 [dLambda -0.04999999999999999]
TCL: Setting parameter firsttimestep to 0
TCL: Setting parameter alchLambda to 0.4499999999999996
Info: NONBONDED TABLE R-SQUARED SPACING: 0.0625
Info: NONBONDED TABLE SIZE: 705 POINTS
TCL: Setting parameter alchLambda2 to 0.39999999999999963
Info: NONBONDED TABLE R-SQUARED SPACING: 0.0625
Info: NONBONDED TABLE SIZE: 705 POINTS
TCL: Running for 1500000 steps
ETITLE: TS BOND ANGLE DIHED IMPRP ELECT VDW BOUNDARY MISC KINETIC TOTAL TEMP POTENTIAL TOTALAVG TEMPAVG PRESSURE GPRESSURE VOLUME PRESSAVG GPRESSAVG
ENERGY: 0 0.1995 1.3294 0.0265 0.0000 -7397.0969 1001.4014 0.0000 0.0000 1176.7273 -5217.4128 292.1342 -6394.1400 -5217.4128 292.1342 -81.2218 -6.8262 20936.6503 -81.2218 -6.8262
ENERGY: 300000 0.0007 1.0328 0.1592 0.0000 -7347.8185 1028.9433 0.0000 0.0000 1224.0412 -5093.6413 303.8804 -6317.6825 -5154.7811 298.7088 702.8260 812.4557 20821.6754 -163.1316 -113.6931
ENERGY: 600000 0.4549 0.6326 0.2888 0.0000 -7209.4970 885.7071 0.0000 0.0000 1186.8151 -5135.5987 294.6386 -6322.4137 -5183.2899 295.8275 -665.7237 -693.4924 20663.9654 -238.2696 -191.2159
ENERGY: 900000 0.1329 1.0822 0.6950 0.0000 -7343.2301 940.6334 0.0000 0.0000 1221.2084 -5179.4783 303.1771 -6400.6867 -5182.9818 297.1131 -1247.0374 -1101.1610 21681.1132 -349.6210 -279.0962
ENERGY: 1200000 0.0127 0.2998 0.0485 0.0000 -7243.1914 936.2781 0.0000 0.0000 1264.3616 -5042.1907 313.8903 -6306.5523 -5172.8609 297.9780 -564.8177 -527.5237 21226.3623 -456.6729 -389.6476
ENERGY: 1500000 2.6737 0.6728 0.4642 0.0000 -7429.2185 999.4026 0.0000 0.0000 1197.5733 -5228.4320 297.3095 -6426.0053 -5175.0272 297.8849 -202.5588 -103.5148 20540.3414 -431.8252 -363.3933
TCL: Running FEP window  13: Lambda1 0.39999999999999963 Lambda2 0.34999999999999964 [dLambda -0.04999999999999999]
TCL: Setting parameter firsttimestep to 0
TCL: Setting parameter alchLambda to 0.39999999999999963
Info: NONBONDED TABLE R-SQUARED SPACING: 0.0625
Info: NONBONDED TABLE SIZE: 705 POINTS
TCL: Setting parameter alchLambda2 to 0.34999999999999964
Info: NONBONDED TABLE R-SQUARED SPACING: 0.0625
Info: NONBONDED TABLE SIZE: 705 POINTS
TCL: Running for 1500000 steps
ETITLE: TS BOND ANGLE DIHED IMPRP ELECT VDW BOUNDARY MISC KINETIC TOTAL TEMP POTENTIAL TOTALAVG TEMPAVG PRESSURE GPRESSURE VOLUME PRESSAVG GPRESSAVG
ENERGY: 0 2.6736 0.6728 0.4642 0.0000 -7429.2181 999.5965 0.0000 0.0000 1196.9369 -5228.8741 297.1515 -6425.8110 -5228.8741 297.1515 -170.5042 -103.1603 20540.3414 -170.5042 -103.1603
ENERGY: 300000 0.1135 0.1896 0.1499 0.0000 -7315.0055 949.7769 0.0000 0.0000 1175.6973 -5189.0783 291.8785 -6364.7756 -5187.7477 297.1151 -244.5591 -187.7839 20722.7599 -204.8782 -180.1588
ENERGY: 600000 0.0045 0.4940 0.5536 0.0000 -7407.5080 995.6230 0.0000 0.0000 1143.1134 -5267.7196 283.7892 -6410.8329 -5183.9651 295.7448 -238.9335 -233.7117 20950.0691 -205.1803 -164.7030
ENERGY: 900000 1.1011 0.8527 0.5608 0.0000 -7455.8266 1068.1310 0.0000 0.0000 1186.2562 -5198.9247 294.4999 -6385.1809 -5171.9930 296.4182 645.1025 708.4037 20796.3074 -212.1980 -151.9633
ENERGY: 1200000 0.0280 1.1641 0.1121 0.0000 -7358.6000 999.4787 0.0000 0.0000 1251.0334 -5106.7837 310.5815 -6357.8171 -5166.6873 297.8673 324.2069 334.0245 20487.0535 -95.5596 -42.6774
ENERGY: 1500000 0.0470 1.8754 0.0014 0.0000 -7474.9352 1042.5520 0.0000 0.0000 1168.3457 -5262.1137 290.0534 -6430.4594 -5175.1834 297.5392 268.7006 352.6313 20738.9891 -112.8436 -61.0975
TCL: Running FEP window  14: Lambda1 0.34999999999999964 Lambda2 0.29999999999999966 [dLambda -0.04999999999999999]
TCL: Setting parameter firsttimestep to 0
TCL: Setting parameter alchLambda to 0.34999999999999964
Info: NONBONDED TABLE R-SQUARED SPACING: 0.0625
Info: NONBONDED TABLE SIZE: 705 POINTS
TCL: Setting parameter alchLambda2 to 0.29999999999999966
Info: NONBONDED TABLE R-SQUARED SPACING: 0.0625
Info: NONBONDED TABLE SIZE: 705 POINTS
TCL: Running for 1500000 steps
ETITLE: TS BOND ANGLE DIHED IMPRP ELECT VDW BOUNDARY MISC KINETIC TOTAL TEMP POTENTIAL TOTALAVG TEMPAVG PRESSURE GPRESSURE VOLUME PRESSAVG GPRESSAVG
ENERGY: 0 0.0470 1.8754 0.0014 0.0000 -7474.9358 1042.6821 0.0000 0.0000 1167.7218 -5262.6081 289.8985 -6430.3299 -5262.6081 289.8985 266.9823 353.5951 20738.9891 266.9823 353.5951
ENERGY: 300000 0.1605 0.0915 0.0992 0.0000 -7317.7320 927.8249 0.0000 0.0000 1186.9709 -5202.5850 294.6773 -6389.5558 -5200.4527 294.3646 -1033.7090 -921.0745 21007.6287 -151.3021 -84.7851
ENERGY: 600000 0.2455 0.8823 0.3948 0.0000 -7407.6617 983.1134 0.0000 0.0000 1237.3230 -5185.7028 307.1777 -6423.0258 -5184.3089 299.6029 -317.0975 -231.6337 20793.7640 -15.3484 43.5196
ENERGY: 900000 0.0134 0.6202 0.8959 0.0000 -7310.4572 952.8796 0.0000 0.0000 1196.7422 -5159.3059 297.1031 -6356.0481 -5180.1856 300.1496 -439.4562 -430.7871 20966.0954 -223.5217 -160.3654
ENERGY: 1200000 0.9472 0.5617 0.3556 0.0000 -7373.5257 1044.4695 0.0000 0.0000 1216.3715 -5110.8203 301.9763 -6327.1918 -5174.9391 299.4272 924.9748 949.9978 20767.1664 -106.0405 -42.4627
ENERGY: 1500000 0.9342 0.6520 0.0005 0.0000 -7259.4406 975.2079 0.0000 0.0000 1181.4910 -5101.1549 293.3169 -6282.6459 -5165.6657 298.5003 -356.2829 -220.5097 21590.3392 -192.2134 -124.1674
TCL: Running FEP window  15: Lambda1 0.29999999999999966 Lambda2 0.24999999999999967 [dLambda -0.04999999999999999]
TCL: Setting parameter firsttimestep to 0
TCL: Setting parameter alchLambda to 0.29999999999999966
Info: NONBONDED TABLE R-SQUARED SPACING: 0.0625
Info: NONBONDED TABLE SIZE: 705 POINTS
TCL: Setting parameter alchLambda2 to 0.24999999999999967
Info: NONBONDED TABLE R-SQUARED SPACING: 0.0625
Info: NONBONDED TABLE SIZE: 705 POINTS
TCL: Running for 1500000 steps
ETITLE: TS BOND ANGLE DIHED IMPRP ELECT VDW BOUNDARY MISC KINETIC TOTAL TEMP POTENTIAL TOTALAVG TEMPAVG PRESSURE GPRESSURE VOLUME PRESSAVG GPRESSAVG
ENERGY: 0 0.9342 0.6520 0.0005 0.0000 -7259.4392 974.9810 0.0000 0.0000 1180.8658 -5102.0057 293.1617 -6282.8715 -5102.0057 293.1617 -316.2066 -224.2963 21590.3392 -316.2066 -224.2963
ENERGY: 300000 0.0698 0.5897 0.0028 0.0000 -7452.5870 1049.3712 0.0000 0.0000 1274.3019 -5128.2517 316.3581 -6402.5536 -5121.5881 304.0378 571.5132 608.2998 20960.6498 72.2869 126.5995
ENERGY: 600000 0.0532 1.9948 0.1567 0.0000 -7354.8227 950.2704 0.0000 0.0000 1203.4360 -5198.9117 298.7649 -6402.3477 -5154.8422 300.9054 -541.1076 -439.1813 20702.2168 24.1060 85.1624
ENERGY: 900000 0.1497 1.1907 0.0007 0.0000 -7331.6151 991.8863 0.0000 0.0000 1174.9283 -5163.4594 291.6876 -6338.3877 -5156.4984 299.1569 188.9391 238.3108 20703.3346 -2.2475 62.8993
ENERGY: 1200000 1.0842 2.1385 0.9216 0.0000 -7211.2753 878.5191 0.0000 0.0000 1224.8785 -5103.7334 304.0883 -6328.6119 -5137.7569 302.0487 -1307.9519 -1187.1417 21065.5813 -29.2289 36.1571
ENERGY: 1500000 0.4409 0.2570 0.0589 0.0000 -7395.7310 993.7678 0.0000 0.0000 1141.4707 -5259.7356 283.3814 -6401.2063 -5148.0978 300.6858 -13.3166 27.6734 20804.1995 -48.1203 17.9430
TCL: Running FEP window  16: Lambda1 0.24999999999999967 Lambda2 0.19999999999999968 [dLambda -0.04999999999999999]
TCL: Setting parameter firsttimestep to 0
TCL: Setting parameter alchLambda to 0.24999999999999967
Info: NONBONDED TABLE R-SQUARED SPACING: 0.0625
Info: NONBONDED TABLE SIZE: 705 POINTS
TCL: Setting parameter alchLambda2 to 0.19999999999999968
Info: NONBONDED TABLE R-SQUARED SPACING: 0.0625
Info: NONBONDED TABLE SIZE: 705 POINTS
TCL: Running for 1500000 steps
ETITLE: TS BOND ANGLE DIHED IMPRP ELECT VDW BOUNDARY MISC KINETIC TOTAL TEMP POTENTIAL TOTALAVG TEMPAVG PRESSURE GPRESSURE VOLUME PRESSAVG GPRESSAVG
ENERGY: 0 0.4409 0.2570 0.0589 0.0000 -7395.7303 993.5364 0.0000 0.0000 1140.8876 -5260.5494 283.2367 -6401.4371 -5260.5494 283.2367 -64.6569 23.4178 20804.1995 -64.6569 23.4178
ENERGY: 300000 0.2602 2.2245 0.0760 0.0000 -7317.4825 983.8321 0.0000 0.0000 1202.2651 -5128.8246 298.4743 -6331.0896 -5193.7621 291.6040 -294.1619 -186.4031 21092.9470 237.6874 328.8118
ENERGY: 600000 0.0108 0.3735 0.2166 0.0000 -7393.6237 995.1784 0.0000 0.0000 1180.1159 -5217.7285 292.9755 -6397.8444 -5178.5891 294.3940 -16.3103 -53.9499 20965.1418 172.6590 250.5976
ENERGY: 900000 0.7216 1.1663 0.0316 0.0000 -7389.1617 1064.3585 0.0000 0.0000 1233.1296 -5089.7541 306.1367 -6322.8836 -5173.4541 297.1585 853.1352 934.0549 20863.5357 140.2427 221.0835
ENERGY: 1200000 0.0507 1.0188 0.0452 0.0000 -7263.7071 921.3055 0.0000 0.0000 1190.5717 -5150.7152 295.5712 -6341.2868 -5168.2050 297.9715 -753.7817 -720.4293 20994.7912 88.3627 164.1792
ENERGY: 1500000 0.0192 0.0725 0.4277 0.0000 -7517.0362 1055.1896 0.0000 0.0000 1199.2190 -5262.1082 297.7180 -6461.3272 -5175.2269 298.5032 826.5091 845.9558 20278.2595 75.3241 146.7062
TCL: Running FEP window  17: Lambda1 0.19999999999999968 Lambda2 0.1499999999999997 [dLambda -0.04999999999999999]
TCL: Setting parameter firsttimestep to 0
TCL: Setting parameter alchLambda to 0.19999999999999968
Info: NONBONDED TABLE R-SQUARED SPACING: 0.0625
Info: NONBONDED TABLE SIZE: 705 POINTS
TCL: Setting parameter alchLambda2 to 0.1499999999999997
Info: NONBONDED TABLE R-SQUARED SPACING: 0.0625
Info: NONBONDED TABLE SIZE: 705 POINTS
TCL: Running for 1500000 steps
ETITLE: TS BOND ANGLE DIHED IMPRP ELECT VDW BOUNDARY MISC KINETIC TOTAL TEMP POTENTIAL TOTALAVG TEMPAVG PRESSURE GPRESSURE VOLUME PRESSAVG GPRESSAVG
ENERGY: 0 0.0192 0.0725 0.4277 0.0000 -7517.0366 1055.0007 0.0000 0.0000 1198.6224 -5262.8941 297.5699 -6461.5165 -5262.8941 297.5699 783.3923 845.9026 20278.2595 783.3923 845.9026
ENERGY: 300000 0.1743 0.5749 0.0067 0.0000 -7545.6623 1087.0419 0.0000 0.0000 1209.9920 -5247.8725 300.3925 -6457.8645 -5184.7930 302.8455 821.4751 917.7777 20541.9338 217.0627 297.0577
ENERGY: 600000 0.1393 0.5398 0.1726 0.0000 -7351.5914 1011.0208 0.0000 0.0000 1212.3435 -5127.3754 300.9763 -6339.7188 -5176.7352 302.5404 254.0807 343.0955 20787.7301 -91.9139 -11.3650
ENERGY: 900000 0.0149 1.0904 0.2068 0.0000 -7230.9008 974.9431 0.0000 0.0000 1260.1487 -4994.4969 312.8444 -6254.6456 -5155.4108 302.7835 247.1041 233.0881 21162.5991 -110.8602 -38.7528
ENERGY: 1200000 0.1409 0.1036 2.4384 0.0000 -7448.1806 1084.7885 0.0000 0.0000 1231.4212 -5129.2880 305.7125 -6360.7092 -5164.8280 301.8523 1072.1214 1078.1311 20882.5203 25.5554 92.6158
ENERGY: 1500000 1.7448 1.7100 0.6255 0.0000 -7352.7001 957.8379 0.0000 0.0000 1215.8705 -5174.9114 301.8519 -6390.7819 -5167.0464 301.5300 -409.6405 -376.3761 20623.0442 -161.8618 -102.7180
TCL: Running FEP window  18: Lambda1 0.1499999999999997 Lambda2 0.09999999999999969 [dLambda -0.05 ]
TCL: Setting parameter firsttimestep to 0
TCL: Setting parameter alchLambda to 0.1499999999999997
Info: NONBONDED TABLE R-SQUARED SPACING: 0.0625
Info: NONBONDED TABLE SIZE: 705 POINTS
TCL: Setting parameter alchLambda2 to 0.09999999999999969
Info: NONBONDED TABLE R-SQUARED SPACING: 0.0625
Info: NONBONDED TABLE SIZE: 705 POINTS
TCL: Running for 1500000 steps
ETITLE: TS BOND ANGLE DIHED IMPRP ELECT VDW BOUNDARY MISC KINETIC TOTAL TEMP POTENTIAL TOTALAVG TEMPAVG PRESSURE GPRESSURE VOLUME PRESSAVG GPRESSAVG
ENERGY: 0 1.7448 1.7100 0.6255 0.0000 -7352.7005 957.5525 0.0000 0.0000 1215.2719 -5175.7957 301.7033 -6391.0676 -5175.7957 301.7033 -456.0929 -378.2713 20623.0442 -456.0929 -378.2713
ENERGY: 300000 0.1841 0.1209 0.0643 0.0000 -7400.5161 980.1063 0.0000 0.0000 1158.4299 -5261.6105 287.5917 -6420.0404 -5188.6775 300.5271 -333.2111 -314.9303 20831.2632 -206.9218 -156.0406
ENERGY: 600000 0.0021 1.0716 0.0231 0.0000 -7237.3906 981.0564 0.0000 0.0000 1216.9940 -5038.2434 302.1309 -6255.2374 -5158.8982 300.4436 32.1985 68.5229 21148.5492 -72.0139 -24.0374
ENERGY: 900000 1.6553 0.3620 0.0002 0.0000 -7245.6057 948.3149 0.0000 0.0000 1256.9185 -5038.3548 312.0425 -6295.2733 -5148.7057 301.9049 -10.3842 33.4249 21104.8910 -101.2555 -47.9374
ENERGY: 1200000 0.2721 0.2500 0.3680 0.0000 -7315.1298 971.2245 0.0000 0.0000 1197.8076 -5145.2077 297.3676 -6343.0153 -5149.5298 300.7864 -71.2985 -36.2073 20899.8058 -138.4767 -88.3063
ENERGY: 1500000 0.2643 0.4903 0.2113 0.0000 -7324.4453 953.9797 0.0000 0.0000 1225.6141 -5143.8856 304.2709 -6369.4997 -5153.0938 300.3571 -721.6440 -673.0111 21283.9763 -252.4576 -206.4754
TCL: Running FEP window  19: Lambda1 0.09999999999999969 Lambda2 0.049999999999999684 [dLambda -0.05 ]
TCL: Setting parameter firsttimestep to 0
TCL: Setting parameter alchLambda to 0.09999999999999969
Info: NONBONDED TABLE R-SQUARED SPACING: 0.0625
Info: NONBONDED TABLE SIZE: 705 POINTS
TCL: Setting parameter alchLambda2 to 0.049999999999999684
Info: NONBONDED TABLE R-SQUARED SPACING: 0.0625
Info: NONBONDED TABLE SIZE: 705 POINTS
TCL: Running for 1500000 steps
ETITLE: TS BOND ANGLE DIHED IMPRP ELECT VDW BOUNDARY MISC KINETIC TOTAL TEMP POTENTIAL TOTALAVG TEMPAVG PRESSURE GPRESSURE VOLUME PRESSAVG GPRESSAVG
ENERGY: 0 0.2643 0.4903 0.2113 0.0000 -7324.4452 953.7447 0.0000 0.0000 1225.0066 -5144.7280 304.1201 -6369.7346 -5144.7280 304.1201 -767.9117 -676.5701 21283.9763 -767.9117 -676.5701
ENERGY: 300000 1.4049 1.0158 0.0330 0.0000 -7379.3383 1028.8032 0.0000 0.0000 1152.9337 -5195.1478 286.2272 -6348.0814 -5129.7266 300.4078 478.1787 509.7666 20797.8344 207.9439 275.7670
ENERGY: 600000 1.2131 0.8886 1.1842 0.0000 -7391.2705 1026.3108 0.0000 0.0000 1270.6782 -5090.9956 315.4585 -6361.6738 -5135.8324 301.0603 649.1663 682.5480 20847.9048 522.0667 583.1504
ENERGY: 900000 0.0153 0.3320 0.2242 0.0000 -7339.7074 977.1625 0.0000 0.0000 1199.1447 -5162.8288 297.6996 -6361.9734 -5143.3305 300.8222 -136.6465 -173.1263 21036.9917 458.4398 497.8628
ENERGY: 1200000 0.7095 1.9882 0.1347 0.0000 -7261.9308 882.8944 0.0000 0.0000 1230.3235 -5145.8804 305.4400 -6376.2039 -5143.4187 301.3866 -1543.5556 -1489.6092 21064.7705 232.5605 274.2096
ENERGY: 1500000 0.4423 0.4376 1.0871 0.0000 -7381.5409 1012.4809 0.0000 0.0000 1198.5505 -5168.5425 297.5521 -6367.0930 -5145.5639 302.2690 187.5856 282.1510 20742.2413 201.0325 242.6637
TCL: Running FEP window  20: Lambda1 0.049999999999999684 Lambda2 0.0    [dLambda -0.049999999999999684]
TCL: Setting parameter firsttimestep to 0
TCL: Setting parameter alchLambda to 0.049999999999999684
Info: NONBONDED TABLE R-SQUARED SPACING: 0.0625
Info: NONBONDED TABLE SIZE: 705 POINTS
TCL: Setting parameter alchLambda2 to 0.0
Info: NONBONDED TABLE R-SQUARED SPACING: 0.0625
Info: NONBONDED TABLE SIZE: 705 POINTS
TCL: Running for 1500000 steps
ETITLE: TS BOND ANGLE DIHED IMPRP ELECT VDW BOUNDARY MISC KINETIC TOTAL TEMP POTENTIAL TOTALAVG TEMPAVG PRESSURE GPRESSURE VOLUME PRESSAVG GPRESSAVG
ENERGY: 0 0.4423 0.4376 1.0871 0.0000 -7381.5390 1012.0668 0.0000 0.0000 1197.9746 -5169.5306 297.4091 -6367.5052 -5169.5306 297.4091 190.8561 278.7908 20742.2413 190.8561 278.7908
ENERGY: 300000 0.0189 0.0662 0.4408 0.0000 -7335.2761 945.6488 0.0000 0.0000 1207.2990 -5181.8023 299.7240 -6389.1013 -5164.6512 299.8655 -576.1459 -666.0865 20842.3262 -145.5825 -122.8553
ENERGY: 600000 0.0450 1.4275 0.0084 0.0000 -7551.8262 1114.7438 0.0000 0.0000 1195.6029 -5239.9987 296.8203 -6435.6015 -5198.6056 296.3497 1442.4335 1520.8817 20310.6981 -16.6115 2.8991
ENERGY: 900000 0.2324 0.3824 0.1351 0.0000 -7352.5318 963.0394 0.0000 0.0000 1215.7603 -5172.9821 301.8246 -6388.7425 -5200.1032 297.2914 -476.6472 -469.7789 20961.9945 -42.2801 1.3461
ENERGY: 1200000 0.5057 1.7012 0.0963 0.0000 -7377.9638 988.5459 0.0000 0.0000 1187.2766 -5199.8381 294.7532 -6387.1147 -5188.2805 297.8970 -241.9507 -184.5778 20641.4862 -172.6244 -126.8291
ENERGY: 1500000 0.0637 0.4702 0.0273 0.0000 -7414.8818 1068.9250 0.0000 0.0000 1240.7305 -5104.6650 308.0237 -6345.3955 -5178.8138 298.9202 924.5816 969.8167 20737.0548 -94.4251 -47.5405
TCL: Exiting due to exit command.
