Info: SIMULATION PARAMETERS:
Info: TIMESTEP               2
Info: NUMBER OF STEPS        0
Info: STEPS PER CYCLE        10
Info: PERIODIC CELL BASIS 1  28.2194 0 0
Info: PERIODIC CELL BASIS 2  0 27.0274 0
Info: PERIODIC CELL BASIS 3  0 0 27.4557
Info: PERIODIC CELL CENTER   0 0 0
Info: WRAPPING WATERS AROUND PERIODIC BOUNDARIES ON OUTPUT.
Info: WRAPPING ALL CLUSTERS AROUND PERIODIC BOUNDARIES ON OUTPUT.
Info: FIRST LDB TIMESTEP     50
Info: LAST LDB TIMESTEP     -1
Info: HOM BACKGROUND SCALING 1
Info: PME BACKGROUND SCALING 1
Info: MIN ATOMS PER PATCH    40
Info: EMPTY PATCH LOAD       40 ATOMS
Info: VELOCITY FILE          mobley_7015518_equil.vel
Info: CENTER OF MASS MOVING INITIALLY? NO
Info: DIELECTRIC             1
Info: EXCLUDE                SCALED ONE-FOUR
Info: 1-4 ELECTROSTATICS SCALED BY 0.833333
Info: MODIFIED 1-4 VDW PARAMETERS WILL BE USED
Info: DCD FILENAME           mobley_7015518_prod.dcd
Info: DCD FREQUENCY          100000
Info: DCD FIRST STEP         100000
Info: DCD FILE WILL CONTAIN UNIT CELL DATA
Info: XST FILENAME           mobley_7015518_prod.xst
Info: XST FREQUENCY          100000
Info: NO VELOCITY DCD OUTPUT
Info: NO FORCE DCD OUTPUT
Info: OUTPUT FILENAME        mobley_7015518_prod
Info: BINARY OUTPUT FILES WILL BE USED
Info: NO RESTART FILE
Info: CUTOFF                 9
Info: PAIRLIST DISTANCE      11
Info: PAIRLIST SHRINK RATE   0.01
Info: PAIRLIST GROW RATE     0.01
Info: PAIRLIST TRIGGER       0.3
Info: PAIRLISTS PER CYCLE    2
Info: PAIRLISTS ENABLED
Info: MARGIN                 2
Info: HYDROGEN GROUP CUTOFF  2.5
Info: PATCH DIMENSION        15.5
Info: ENERGY OUTPUT STEPS    100000
Info: ENERGY EVALUATION STEPS    100000
Info: OUTPUT ENERGY PRECISION 4
Info: CROSSTERM ENERGY INCLUDED IN DIHEDRAL
Info: TIMING OUTPUT STEPS    1000000
Info: PRESSURE OUTPUT STEPS  100000
Info: ALCHEMICAL FEP ON
Info: FEP CURRENT LAMBDA VALUE     0
Info: FEP COMPARISON LAMBDA VALUE  0.05
Info: FEP INTRA-ALCHEMICAL NON-BONDED INTERACTIONS WILL BE RETAINED
Info: FEP INTRA-ALCHEMICAL BONDED INTERACTIONS WILL BE RETAINED
Info: FEP VDW SHIFTING COEFFICIENT 5
Info: FEP ELEC. ACTIVE FOR ANNIHILATED PARTICLES BETWEEN LAMBDA = 0 AND LAMBDA = 0.5
Info: FEP ELEC. ACTIVE FOR EXNIHILATED PARTICLES BETWEEN LAMBDA = 0.5 AND LAMBDA = 1
Info: FEP VDW ACTIVE FOR ANNIHILATED PARTICLES BETWEEN LAMBDA = 0 AND LAMBDA = 1
Info: FEP VDW ACTIVE FOR EXNIHILATED PARTICLES BETWEEN LAMBDA = 0 AND LAMBDA = 1
Info: FEP BOND ACTIVE FOR ANNIHILATED PARTICLES BETWEEN LAMBDA = 1 AND LAMBDA = 1
Info: FEP BOND ACTIVE FOR EXNIHILATED PARTICLES BETWEEN LAMBDA = 0 AND LAMBDA = 0
Info: LANGEVIN DYNAMICS ACTIVE
Info: LANGEVIN TEMPERATURE   300
Info: LANGEVIN USING BBK INTEGRATOR
Info: LANGEVIN DAMPING COEFFICIENT IS 1 INVERSE PS
Info: LANGEVIN DYNAMICS APPLIED TO HYDROGENS
Info: LANGEVIN PISTON PRESSURE CONTROL ACTIVE
Info:        TARGET PRESSURE IS 1.01325 BAR
Info:     OSCILLATION PERIOD IS 50 FS
Info:             DECAY TIME IS 25 FS
Info:     PISTON TEMPERATURE IS 300 K
Info:       PRESSURE CONTROL IS GROUP-BASED
Info:    INITIAL STRAIN RATE IS 0.000549044 0.000549044 0.000549044
Info:       CELL FLUCTUATION IS ISOTROPIC
Info: PARTICLE MESH EWALD (PME) ACTIVE
Info: PME TOLERANCE               1e-06
Info: PME EWALD COEFFICIENT       0.348832
Info: PME INTERPOLATION ORDER     4
Info: PME GRID DIMENSIONS         32 28 28
Info: PME MAXIMUM GRID SPACING    1
Info: PME CALCULATION WILL BE PERFORMED ON GPU
Info: FULL ELECTROSTATIC EVALUATION FREQUENCY      2
Info: USING VERLET I (r-RESPA) MTS SCHEME.
Info: C1 SPLITTING OF LONG RANGE ELECTROSTATICS
Info: PLACING ATOMS IN PATCHES BY HYDROGEN GROUPS
Info: RIGID BONDS TO HYDROGEN : ALL
Info:         ERROR TOLERANCE : 1e-08
Info:          MAX ITERATIONS : 100
Info: RIGID WATER USING SETTLE ALGORITHM
Info: RANDOM NUMBER SEED     1741647980
Info: USE HYDROGEN BONDS?    NO
Info: Using AMBER format force field!
Info: AMBER PARM FILE        mobley_7015518.prmtop
Info: COORDINATE PDB         mobley_7015518.pdb
Info: Exclusions will be read from PARM file!
Info: SCNB (VDW SCALING)     2
Info: USING ARITHMETIC MEAN TO COMBINE L-J SIGMA PARAMETERS
Info: BINARY COORDINATES     mobley_7015518_equil.coor
Info: SUMMARY OF PARAMETERS:
Info: 4 BONDS
Info: 3 ANGLES
Info:   3 HARMONIC
Info:   0 COSINE-BASED
Info: 1 DIHEDRAL
Info: 0 IMPROPER
Info: 0 CROSSTERM
Info: 0 VDW
Info: 15 VDW_PAIRS
Info: 0 NBTHOLE_PAIRS
Info: To read alchdata from file: mobley_7015518.pdb
Info: To read alchflag data from column: 5
Info: STRUCTURE SUMMARY:
Info: 2040 ATOMS
Info: 2039 BONDS
Info: 13 ANGLES
Info: 6 DIHEDRALS
Info: 0 IMPROPERS
Info: 0 CROSSTERMS
Info: 2058 EXCLUSIONS
Info: 2037 RIGID BONDS
Info: ALCH: 0 ATOMS TO DISAPPEAR IN FINAL STATE
Info: ALCH: 9 ATOMS TO APPEAR IN FINAL STATE
Info: 4083 DEGREES OF FREEDOM
Info: 680 HYDROGEN GROUPS
Info: 4 ATOMS IN LARGEST HYDROGEN GROUP
Info: 680 MIGRATION GROUPS
Info: 4 ATOMS IN LARGEST MIGRATION GROUP
Info: TOTAL MASS = 12242.9 amu
Info: TOTAL CHARGE = 9.99942e-05 e
Info: MASS DENSITY = 0.970867 g/cm^3
Info: ATOM DENSITY = 0.0974196 atoms/A^3
Info: ADDED 0 IMPLICIT EXCLUSIONS
Info: NONBONDED TABLE R-SQUARED SPACING: 0.0625
Info: NONBONDED TABLE SIZE: 705 POINTS
Info: REMOVING COM VELOCITY -0.00523895 0.086747 -0.0369763
Info: Use 3D box decompostion in PME FFT.
Info: Updated CUDA force table with 4096 elements.
Info: Updated CUDA LJ table with 5 x 5 elements.
Info: Found 12 unique exclusion lists needing 16 bytes
TCL: Running for 1500000 steps
ETITLE: TS BOND ANGLE DIHED IMPRP ELECT VDW BOUNDARY MISC KINETIC TOTAL TEMP POTENTIAL TOTALAVG TEMPAVG PRESSURE GPRESSURE VOLUME PRESSAVG GPRESSAVG
ENERGY: 0 0.9263 2.3235 0.9129 0.0000 -7334.9604 929.1271 0.0000 0.0000 1268.2845 -5133.3861 312.6279 -6401.6706 -5133.3861 312.6279 -718.9966 -641.3391 20940.3480 -718.9966 -641.3391
ENERGY: 300000 0.3648 5.0670 0.2812 0.0000 -7402.3079 1004.6350 0.0000 0.0000 1175.2786 -5216.6813 289.7022 -6391.9599 -5197.3589 298.5098 -129.6422 -36.6501 21038.7242 -177.0485 -89.5300
ENERGY: 600000 0.1346 4.0784 0.2310 0.0000 -7345.1040 926.6175 0.0000 0.0000 1223.8582 -5190.1843 301.6769 -6414.0426 -5198.7605 300.1213 -1127.5689 -1042.8461 21217.1358 -283.2912 -204.1307
ENERGY: 900000 0.2995 5.8807 1.3677 0.0000 -7426.8517 1035.0719 0.0000 0.0000 1236.9575 -5147.2745 304.9059 -6384.2319 -5191.4621 300.9106 560.5097 588.7635 20823.7434 -234.0792 -166.5099
ENERGY: 1200000 0.3879 1.6361 0.2421 0.0000 -7381.7368 983.4349 0.0000 0.0000 1201.8267 -5194.2090 296.2463 -6396.0357 -5187.9146 300.9051 87.6415 136.1823 20718.5091 -183.6125 -119.3107
ENERGY: 1500000 0.0857 1.9146 0.0406 0.0000 -7243.1505 936.8468 0.0000 0.0000 1219.6246 -5084.6382 300.6334 -6304.2628 -5182.3944 301.3387 -246.3189 -182.0637 20976.7204 -179.8186 -119.8565
TCL: Running FEP window   2: Lambda1 0.05   Lambda2 0.1    [dLambda 0.05  ]
TCL: Setting parameter firsttimestep to 0
TCL: Setting parameter alchLambda to 0.05
Info: NONBONDED TABLE R-SQUARED SPACING: 0.0625
Info: NONBONDED TABLE SIZE: 705 POINTS
TCL: Setting parameter alchLambda2 to 0.1
Info: NONBONDED TABLE R-SQUARED SPACING: 0.0625
Info: NONBONDED TABLE SIZE: 705 POINTS
TCL: Running for 1500000 steps
ETITLE: TS BOND ANGLE DIHED IMPRP ELECT VDW BOUNDARY MISC KINETIC TOTAL TEMP POTENTIAL TOTALAVG TEMPAVG PRESSURE GPRESSURE VOLUME PRESSAVG GPRESSAVG
ENERGY: 0 0.0857 1.9146 0.0406 0.0000 -7243.1508 936.7205 0.0000 0.0000 1218.9899 -5085.3995 300.4769 -6304.3893 -5085.3995 300.4769 -254.7658 -177.9020 20976.7204 -254.7658 -177.9020
ENERGY: 300000 0.3412 4.5752 0.4898 0.0000 -7500.5508 1053.7470 0.0000 0.0000 1251.3775 -5190.0201 308.4604 -6441.3977 -5155.7978 302.9689 678.4611 814.9744 20645.6023 145.5226 254.6666
ENERGY: 600000 0.2679 10.0158 0.4809 0.0000 -7450.2671 1025.7845 0.0000 0.0000 1236.5892 -5177.1287 304.8151 -6413.7179 -5158.7786 302.4318 153.0460 184.0787 20958.1776 -88.0301 6.1186
ENERGY: 900000 0.0819 3.1076 2.0309 0.0000 -7287.1567 970.3489 0.0000 0.0000 1163.1673 -5148.4201 286.7168 -6311.5874 -5160.7673 301.7651 -83.0329 -137.1679 21360.5932 78.1898 142.9045
ENERGY: 1200000 0.4559 3.4739 1.6965 0.0000 -7378.3921 1024.3103 0.0000 0.0000 1222.4054 -5126.0502 301.3188 -6348.4556 -5159.6621 300.7291 745.1606 708.2508 20750.1620 190.0389 247.1070
ENERGY: 1500000 0.4611 2.5846 0.5044 0.0000 -7416.3677 962.9915 0.0000 0.0000 1191.2427 -5258.5834 293.6373 -6449.8261 -5161.8360 300.6518 -376.7878 -340.8147 20708.3890 192.9131 248.6027
TCL: Running FEP window   3: Lambda1 0.1    Lambda2 0.15000000000000002 [dLambda 0.05000000000000002]
TCL: Setting parameter firsttimestep to 0
TCL: Setting parameter alchLambda to 0.1
Info: NONBONDED TABLE R-SQUARED SPACING: 0.0625
Info: NONBONDED TABLE SIZE: 705 POINTS
TCL: Setting parameter alchLambda2 to 0.15000000000000002
Info: NONBONDED TABLE R-SQUARED SPACING: 0.0625
Info: NONBONDED TABLE SIZE: 705 POINTS
TCL: Running for 1500000 steps
ETITLE: TS BOND ANGLE DIHED IMPRP ELECT VDW BOUNDARY MISC KINETIC TOTAL TEMP POTENTIAL TOTALAVG TEMPAVG PRESSURE GPRESSURE VOLUME PRESSAVG GPRESSAVG
ENERGY: 0 0.4611 2.5846 0.5044 0.0000 -7416.3669 963.2061 0.0000 0.0000 1190.6402 -5258.9705 293.4888 -6449.6107 -5258.9705 293.4888 -419.2919 -341.0673 20708.3890 -419.2919 -341.0673
ENERGY: 300000 0.9161 3.9970 0.8737 0.0000 -7524.8591 1007.1514 0.0000 0.0000 1214.0958 -5297.8252 299.2705 -6511.9210 -5226.4982 298.4635 -355.6077 -305.8457 20644.0973 -157.0176 -94.5451
ENERGY: 600000 0.4555 2.9662 0.3264 0.0000 -7314.5806 951.9558 0.0000 0.0000 1172.2482 -5186.6285 288.9552 -6358.8767 -5194.1537 298.5568 -349.7323 -296.6399 20778.1244 -83.9538 -15.2757
ENERGY: 900000 0.1657 3.9116 0.4549 0.0000 -7384.7108 1008.5913 0.0000 0.0000 1199.7219 -5171.8653 295.7274 -6371.5873 -5205.0509 298.1760 140.5194 184.3448 21000.5914 -75.3971 -20.5843
ENERGY: 1200000 1.0131 3.4133 1.2166 0.0000 -7344.3059 945.8799 0.0000 0.0000 1182.4442 -5210.3388 291.4685 -6392.7830 -5200.7641 298.3058 -516.5711 -412.6647 20788.2483 -114.7207 -68.7505
ENERGY: 1500000 1.3969 4.8586 1.7841 0.0000 -7364.6225 988.9826 0.0000 0.0000 1189.8403 -5177.7600 293.2916 -6367.6003 -5199.3294 297.6921 -82.1913 -88.4478 21044.3686 -130.7685 -89.4494
TCL: Running FEP window   4: Lambda1 0.15000000000000002 Lambda2 0.2    [dLambda 0.04999999999999999]
TCL: Setting parameter firsttimestep to 0
TCL: Setting parameter alchLambda to 0.15000000000000002
Info: NONBONDED TABLE R-SQUARED SPACING: 0.0625
Info: NONBONDED TABLE SIZE: 705 POINTS
TCL: Setting parameter alchLambda2 to 0.2
Info: NONBONDED TABLE R-SQUARED SPACING: 0.0625
Info: NONBONDED TABLE SIZE: 705 POINTS
TCL: Running for 1500000 steps
ETITLE: TS BOND ANGLE DIHED IMPRP ELECT VDW BOUNDARY MISC KINETIC TOTAL TEMP POTENTIAL TOTALAVG TEMPAVG PRESSURE GPRESSURE VOLUME PRESSAVG GPRESSAVG
ENERGY: 0 1.3969 4.8586 1.7841 0.0000 -7364.6246 989.0119 0.0000 0.0000 1189.2263 -5178.3467 293.1403 -6367.5730 -5178.3467 293.1403 -150.2575 -86.6317 21044.3686 -150.2575 -86.6317
ENERGY: 300000 0.5674 4.4875 0.2810 0.0000 -7380.3584 961.0337 0.0000 0.0000 1198.9541 -5215.0347 295.5382 -6413.9888 -5204.8088 297.2264 -599.1541 -485.5698 20959.4973 276.5769 332.6712
ENERGY: 600000 2.1559 5.1080 0.4999 0.0000 -7304.6837 915.4429 0.0000 0.0000 1201.7370 -5179.7400 296.2241 -6381.4770 -5193.9855 297.6572 -877.0708 -783.4752 20892.0541 62.8334 125.3830
ENERGY: 900000 0.4418 2.1868 0.4937 0.0000 -7376.3263 997.5834 0.0000 0.0000 1240.2651 -5135.3555 305.7212 -6375.6206 -5182.8573 297.9460 -94.9616 -40.6856 20998.4356 13.0121 75.8771
ENERGY: 1200000 2.2869 2.9231 0.5889 0.0000 -7472.6263 1068.0607 0.0000 0.0000 1195.4797 -5203.2872 294.6817 -6398.7668 -5178.1165 299.5848 785.6562 871.6671 20825.8686 100.4899 169.7948
ENERGY: 1500000 0.1877 3.3008 0.2871 0.0000 -7424.7440 989.5309 0.0000 0.0000 1233.6383 -5197.7992 304.0877 -6431.4375 -5178.7460 299.7223 -555.5839 -459.8590 21222.7941 -1.6431 72.7609
TCL: Running FEP window   5: Lambda1 0.2    Lambda2 0.25   [dLambda 0.04999999999999999]
TCL: Setting parameter firsttimestep to 0
TCL: Setting parameter alchLambda to 0.2
Info: NONBONDED TABLE R-SQUARED SPACING: 0.0625
Info: NONBONDED TABLE SIZE: 705 POINTS
TCL: Setting parameter alchLambda2 to 0.25
Info: NONBONDED TABLE R-SQUARED SPACING: 0.0625
Info: NONBONDED TABLE SIZE: 705 POINTS
TCL: Running for 1500000 steps
ETITLE: TS BOND ANGLE DIHED IMPRP ELECT VDW BOUNDARY MISC KINETIC TOTAL TEMP POTENTIAL TOTALAVG TEMPAVG PRESSURE GPRESSURE VOLUME PRESSAVG GPRESSAVG
ENERGY: 0 0.1877 3.3008 0.2871 0.0000 -7424.7427 989.3014 0.0000 0.0000 1233.0167 -5198.6489 303.9345 -6431.6657 -5198.6489 303.9345 -540.3968 -462.3300 21222.7941 -540.3968 -462.3300
ENERGY: 300000 0.8380 2.3621 0.1342 0.0000 -7389.0689 1008.2010 0.0000 0.0000 1203.0964 -5174.4372 296.5592 -6377.5336 -5174.6232 300.3560 -262.7563 -129.5608 21506.7028 -311.7016 -223.1464
ENERGY: 600000 0.0130 2.2894 0.7817 0.0000 -7308.9043 974.2336 0.0000 0.0000 1207.0544 -5124.5323 297.5348 -6331.5867 -5163.9891 298.6918 -0.6495 12.1656 21174.2635 -132.4540 -54.9511
ENERGY: 900000 1.9826 3.2707 0.5860 0.0000 -7392.1317 969.9681 0.0000 0.0000 1236.2855 -5180.0389 304.7402 -6416.3243 -5171.7233 300.0837 -346.9872 -296.2422 20924.8134 -274.9011 -204.5508
ENERGY: 1200000 0.7161 2.6124 2.3044 0.0000 -7401.1168 1017.0991 0.0000 0.0000 1183.3942 -5194.9907 291.7027 -6378.3848 -5179.3413 299.2618 141.1458 227.5659 21128.5608 -228.1457 -160.1903
ENERGY: 1500000 0.3574 2.0895 0.3542 0.0000 -7454.4432 1018.6130 0.0000 0.0000 1246.8689 -5186.1602 307.3490 -6433.0291 -5176.0084 299.8903 95.5503 138.5018 20952.6941 -298.0591 -229.6106
TCL: Running FEP window   6: Lambda1 0.25   Lambda2 0.3    [dLambda 0.04999999999999999]
TCL: Setting parameter firsttimestep to 0
TCL: Setting parameter alchLambda to 0.25
Info: NONBONDED TABLE R-SQUARED SPACING: 0.0625
Info: NONBONDED TABLE SIZE: 705 POINTS
TCL: Setting parameter alchLambda2 to 0.3
Info: NONBONDED TABLE R-SQUARED SPACING: 0.0625
Info: NONBONDED TABLE SIZE: 705 POINTS
TCL: Running for 1500000 steps
ETITLE: TS BOND ANGLE DIHED IMPRP ELECT VDW BOUNDARY MISC KINETIC TOTAL TEMP POTENTIAL TOTALAVG TEMPAVG PRESSURE GPRESSURE VOLUME PRESSAVG GPRESSAVG
ENERGY: 0 0.3574 2.0895 0.3542 0.0000 -7454.4432 1018.6292 0.0000 0.0000 1246.2678 -5186.7451 307.2008 -6433.0129 -5186.7451 307.2008 65.8231 139.9633 20952.6941 65.8231 139.9633
ENERGY: 300000 0.2400 2.5305 0.0978 0.0000 -7398.6835 994.5772 0.0000 0.0000 1191.6950 -5209.5431 293.7488 -6401.2381 -5205.0032 297.6025 -100.5742 -32.7315 20692.2658 126.8584 220.9745
ENERGY: 600000 2.2825 6.1022 1.1278 0.0000 -7298.5255 935.2158 0.0000 0.0000 1211.2936 -5142.5036 298.5798 -6353.7972 -5199.0523 295.7707 -485.6124 -476.3370 21166.3757 -137.2282 -69.2416
ENERGY: 900000 2.4134 2.1984 0.3473 0.0000 -7408.0672 1052.2741 0.0000 0.0000 1232.8481 -5117.9859 303.8929 -6350.8340 -5185.2127 296.7496 400.8322 434.7881 21495.9280 -7.8071 58.3772
ENERGY: 1200000 0.0494 2.4019 0.7938 0.0000 -7337.1009 935.3097 0.0000 0.0000 1237.4118 -5161.1343 305.0178 -6398.5461 -5186.9296 297.7548 -933.2392 -879.4025 21135.1645 -151.9182 -88.3763
ENERGY: 1500000 0.0096 4.1229 0.2999 0.0000 -7363.0706 1027.2578 0.0000 0.0000 1180.4297 -5150.9506 290.9719 -6331.3803 -5181.7876 297.0766 513.6933 575.9896 20988.0605 -100.2322 -39.3271
TCL: Running FEP window   7: Lambda1 0.3    Lambda2 0.35   [dLambda 0.04999999999999999]
TCL: Setting parameter firsttimestep to 0
TCL: Setting parameter alchLambda to 0.3
Info: NONBONDED TABLE R-SQUARED SPACING: 0.0625
Info: NONBONDED TABLE SIZE: 705 POINTS
TCL: Setting parameter alchLambda2 to 0.35
Info: NONBONDED TABLE R-SQUARED SPACING: 0.0625
Info: NONBONDED TABLE SIZE: 705 POINTS
TCL: Running for 1500000 steps
ETITLE: TS BOND ANGLE DIHED IMPRP ELECT VDW BOUNDARY MISC KINETIC TOTAL TEMP POTENTIAL TOTALAVG TEMPAVG PRESSURE GPRESSURE VOLUME PRESSAVG GPRESSAVG
ENERGY: 0 0.0096 4.1229 0.2999 0.0000 -7363.0698 1027.7197 0.0000 0.0000 1179.8274 -5151.0903 290.8235 -6330.9177 -5151.0903 290.8235 494.7756 581.6915 20988.0605 494.7756 581.6915
ENERGY: 300000 0.5892 6.4761 1.5423 0.0000 -7405.7372 995.5984 0.0000 0.0000 1241.6629 -5159.8683 306.0657 -6401.5313 -5194.1508 296.2569 280.8141 348.9805 20646.1910 179.0022 245.6945
ENERGY: 600000 0.7876 4.1278 2.2093 0.0000 -7320.0966 928.9920 0.0000 0.0000 1218.9083 -5165.0717 300.4568 -6383.9800 -5181.3986 297.2372 -554.0769 -532.8131 20734.5489 -12.8808 51.3585
ENERGY: 900000 0.7275 2.0117 0.0985 0.0000 -7306.5421 967.5298 0.0000 0.0000 1234.7391 -5101.4354 304.3590 -6336.1745 -5160.9192 299.0513 -48.3352 -30.6635 20794.3143 -118.8043 -47.8464
ENERGY: 1200000 0.0670 4.0261 0.5933 0.0000 -7381.0310 983.3589 0.0000 0.0000 1197.6842 -5195.3015 295.2251 -6392.9857 -5166.7311 298.8318 -377.3686 -384.6163 21201.3036 -208.7622 -146.7106
ENERGY: 1500000 0.3261 5.9291 0.0760 0.0000 -7282.3837 957.5291 0.0000 0.0000 1202.0163 -5116.5072 296.2930 -6318.5235 -5162.8868 298.6775 -239.0719 -235.1113 21108.3413 -177.6764 -125.0043
TCL: Running FEP window   8: Lambda1 0.35   Lambda2 0.39999999999999997 [dLambda 0.04999999999999999]
TCL: Setting parameter firsttimestep to 0
TCL: Setting parameter alchLambda to 0.35
Info: NONBONDED TABLE R-SQUARED SPACING: 0.0625
Info: NONBONDED TABLE SIZE: 705 POINTS
TCL: Setting parameter alchLambda2 to 0.39999999999999997
Info: NONBONDED TABLE R-SQUARED SPACING: 0.0625
Info: NONBONDED TABLE SIZE: 705 POINTS
TCL: Running for 1500000 steps
ETITLE: TS BOND ANGLE DIHED IMPRP ELECT VDW BOUNDARY MISC KINETIC TOTAL TEMP POTENTIAL TOTALAVG TEMPAVG PRESSURE GPRESSURE VOLUME PRESSAVG GPRESSAVG
ENERGY: 0 0.3261 5.9291 0.0760 0.0000 -7282.3850 959.9605 0.0000 0.0000 1201.4238 -5114.6695 296.1469 -6316.0933 -5114.6695 296.1469 -304.9971 -216.2890 21108.3413 -304.9971 -216.2890
ENERGY: 300000 1.5414 3.6873 0.5571 0.0000 -7440.5838 978.1729 0.0000 0.0000 1190.4202 -5266.2049 293.4346 -6456.6251 -5196.8656 295.9726 -684.8387 -594.3018 21210.0785 -405.6234 -339.6744
ENERGY: 600000 0.6947 1.6458 0.0709 0.0000 -7356.7500 1011.2356 0.0000 0.0000 1221.5599 -5121.5431 301.1104 -6343.1030 -5165.0582 298.6899 666.1013 606.5739 20826.4715 -274.8639 -228.3574
ENERGY: 900000 0.0125 5.3210 0.1601 0.0000 -7377.2464 974.6094 0.0000 0.0000 1211.2737 -5185.8696 298.5749 -6397.1434 -5163.4578 298.2143 -488.0551 -408.9269 21229.5254 -208.3269 -146.7505
ENERGY: 1200000 0.2717 2.6231 0.3617 0.0000 -7369.2548 960.7914 0.0000 0.0000 1223.8869 -5181.3201 301.6840 -6405.2069 -5165.6828 298.2165 -281.0783 -246.2266 20756.7156 -174.6280 -115.0044
ENERGY: 1500000 2.6530 3.7872 0.3219 0.0000 -7334.3270 882.2852 0.0000 0.0000 1236.7631 -5208.5166 304.8579 -6445.2797 -5169.8531 298.8744 -1476.3492 -1514.6761 21159.2626 -268.6741 -214.5139
TCL: Running FEP window   9: Lambda1 0.39999999999999997 Lambda2 0.44999999999999996 [dLambda 0.04999999999999999]
TCL: Setting parameter firsttimestep to 0
TCL: Setting parameter alchLambda to 0.39999999999999997
Info: NONBONDED TABLE R-SQUARED SPACING: 0.0625
Info: NONBONDED TABLE SIZE: 705 POINTS
TCL: Setting parameter alchLambda2 to 0.44999999999999996
Info: NONBONDED TABLE R-SQUARED SPACING: 0.0625
Info: NONBONDED TABLE SIZE: 705 POINTS
TCL: Running for 1500000 steps
ETITLE: TS BOND ANGLE DIHED IMPRP ELECT VDW BOUNDARY MISC KINETIC TOTAL TEMP POTENTIAL TOTALAVG TEMPAVG PRESSURE GPRESSURE VOLUME PRESSAVG GPRESSAVG
ENERGY: 0 2.6530 3.7872 0.3219 0.0000 -7334.3260 882.5271 0.0000 0.0000 1236.1602 -5208.8765 304.7093 -6445.0367 -5208.8765 304.7093 -1582.3011 -1507.9094 21159.2626 -1582.3011 -1507.9094
ENERGY: 300000 0.3456 4.7447 0.5146 0.0000 -7383.1393 973.4920 0.0000 0.0000 1170.8388 -5233.2037 288.6078 -6404.0424 -5204.8778 296.9269 -152.3714 -147.2739 20643.7241 -382.2702 -317.6243
ENERGY: 600000 0.9057 1.0520 0.6547 0.0000 -7469.6480 1042.1197 0.0000 0.0000 1224.6963 -5200.2197 301.8835 -6424.9159 -5184.8066 301.0947 307.5511 373.4279 20950.5534 -291.0254 -230.6655
ENERGY: 900000 0.2477 5.7100 0.1083 0.0000 -7393.6113 993.6802 0.0000 0.0000 1216.9797 -5176.8856 299.9814 -6393.8652 -5190.7401 299.4643 -198.1570 -157.3813 21180.6611 -301.8755 -248.3339
ENERGY: 1200000 0.2184 2.3004 0.3619 0.0000 -7294.8501 960.3638 0.0000 0.0000 1252.9865 -5078.6192 308.8570 -6331.6057 -5178.3406 299.9983 -315.5893 -257.7402 21213.4559 -202.1258 -151.8529
ENERGY: 1500000 0.2454 3.5429 0.3635 0.0000 -7306.8765 932.2553 0.0000 0.0000 1194.4379 -5176.0316 294.4249 -6370.4695 -5172.1264 300.5068 -740.7803 -644.9135 20949.4907 -236.1288 -180.1511
TCL: Running FEP window  10: Lambda1 0.44999999999999996 Lambda2 0.49999999999999994 [dLambda 0.04999999999999999]
TCL: Setting parameter firsttimestep to 0
TCL: Setting parameter alchLambda to 0.44999999999999996
Info: NONBONDED TABLE R-SQUARED SPACING: 0.0625
Info: NONBONDED TABLE SIZE: 705 POINTS
TCL: Setting parameter alchLambda2 to 0.49999999999999994
Info: NONBONDED TABLE R-SQUARED SPACING: 0.0625
Info: NONBONDED TABLE SIZE: 705 POINTS
TCL: Running for 1500000 steps
ETITLE: TS BOND ANGLE DIHED IMPRP ELECT VDW BOUNDARY MISC KINETIC TOTAL TEMP POTENTIAL TOTALAVG TEMPAVG PRESSURE GPRESSURE VOLUME PRESSAVG GPRESSAVG
ENERGY: 0 0.2454 3.5429 0.3635 0.0000 -7306.8767 932.8645 0.0000 0.0000 1193.7960 -5176.0645 294.2667 -6369.8605 -5176.0645 294.2667 -722.3249 -633.4879 20949.4907 -722.3249 -633.4879
ENERGY: 300000 0.9737 2.2639 0.3366 0.0000 -7441.2000 1022.4636 0.0000 0.0000 1221.1155 -5194.0466 301.0009 -6415.1622 -5184.4631 301.3027 51.1135 117.9400 20848.8039 -350.9889 -260.6931
ENERGY: 600000 0.4368 2.4340 0.2274 0.0000 -7336.1693 970.8241 0.0000 0.0000 1257.8541 -5104.3930 310.0568 -6362.2471 -5173.6165 300.8073 -196.9334 -141.4922 21001.2644 -261.2413 -193.4182
ENERGY: 900000 0.1301 0.6845 0.3289 0.0000 -7472.9355 1089.8043 0.0000 0.0000 1202.7980 -5179.1897 296.4857 -6381.9878 -5174.4849 301.3087 1077.1074 1139.0770 20992.0474 -83.1093 -12.3453
ENERGY: 1200000 0.1343 1.4318 0.7088 0.0000 -7408.3649 958.3006 0.0000 0.0000 1218.2563 -5229.5332 300.2961 -6447.7895 -5177.0707 300.8907 -697.8350 -579.0075 21253.6679 -121.1997 -47.6437
ENERGY: 1500000 0.0543 2.9838 0.0714 0.0000 -7318.6480 978.3085 0.0000 0.0000 1204.4376 -5132.7924 296.8898 -6337.2300 -5180.8481 300.2130 -7.6287 5.3996 21173.4293 -99.1416 -35.2992
TCL: Running FEP window  11: Lambda1 0.49999999999999994 Lambda2 0.5499999999999999 [dLambda 0.04999999999999999]
TCL: Setting parameter firsttimestep to 0
TCL: Setting parameter alchLambda to 0.49999999999999994
Info: NONBONDED TABLE R-SQUARED SPACING: 0.0625
Info: NONBONDED TABLE SIZE: 705 POINTS
TCL: Setting parameter alchLambda2 to 0.5499999999999999
Info: NONBONDED TABLE R-SQUARED SPACING: 0.0625
Info: NONBONDED TABLE SIZE: 705 POINTS
TCL: Running for 1500000 steps
ETITLE: TS BOND ANGLE DIHED IMPRP ELECT VDW BOUNDARY MISC KINETIC TOTAL TEMP POTENTIAL TOTALAVG TEMPAVG PRESSURE GPRESSURE VOLUME PRESSAVG GPRESSAVG
ENERGY: 0 0.0543 2.9838 0.0714 0.0000 -7318.6497 978.4336 0.0000 0.0000 1203.8243 -5133.2824 296.7386 -6337.1066 -5133.2824 296.7386 -64.9606 11.3420 21173.4293 -64.9606 11.3420
ENERGY: 300000 0.0198 2.7275 1.1737 0.0000 -7359.4529 1005.2953 0.0000 0.0000 1224.1743 -5126.0623 301.7548 -6350.2366 -5141.4640 304.1663 364.7667 479.7008 21028.6821 46.5017 139.2970
ENERGY: 600000 0.6520 1.8024 0.7557 0.0000 -7415.9150 965.2576 0.0000 0.0000 1269.6726 -5177.7746 312.9700 -6447.4472 -5149.8108 304.6979 -925.5898 -810.3704 21202.8278 -145.6847 -55.2188
ENERGY: 900000 0.4701 3.5550 0.0664 0.0000 -7289.8383 919.0428 0.0000 0.0000 1174.5531 -5192.1508 289.5234 -6366.7040 -5151.9700 303.1633 -808.4349 -755.3961 21008.3649 -244.9690 -150.6693
ENERGY: 1200000 0.1797 2.5553 0.9827 0.0000 -7349.0216 964.5525 0.0000 0.0000 1290.4789 -5090.2725 318.0987 -6380.7514 -5157.6331 303.1244 -320.0288 -204.8759 21134.2189 -194.7566 -104.7469
ENERGY: 1500000 0.2610 2.7444 0.7069 0.0000 -7409.5329 1000.3165 0.0000 0.0000 1225.4456 -5180.0584 302.0682 -6405.5040 -5164.9257 303.4860 -235.4212 -180.7564 21244.5147 -110.3520 -23.6078
TCL: Running FEP window  12: Lambda1 0.5499999999999999 Lambda2 0.6    [dLambda 0.050000000000000044]
TCL: Setting parameter firsttimestep to 0
TCL: Setting parameter alchLambda to 0.5499999999999999
Info: NONBONDED TABLE R-SQUARED SPACING: 0.0625
Info: NONBONDED TABLE SIZE: 705 POINTS
TCL: Setting parameter alchLambda2 to 0.6
Info: NONBONDED TABLE R-SQUARED SPACING: 0.0625
Info: NONBONDED TABLE SIZE: 705 POINTS
TCL: Running for 1500000 steps
ETITLE: TS BOND ANGLE DIHED IMPRP ELECT VDW BOUNDARY MISC KINETIC TOTAL TEMP POTENTIAL TOTALAVG TEMPAVG PRESSURE GPRESSURE VOLUME PRESSAVG GPRESSAVG
ENERGY: 0 0.2610 2.7444 0.7069 0.0000 -7409.4326 1000.0642 0.0000 0.0000 1224.8133 -5180.8427 301.9124 -6405.6561 -5180.8427 301.9124 -252.9779 -176.5193 21244.5147 -252.9779 -176.5193
ENERGY: 300000 1.3988 2.2612 1.0461 0.0000 -7250.0511 951.0367 0.0000 0.0000 1253.8213 -5040.4870 309.0627 -6294.3083 -5160.1635 301.0923 -216.0830 -129.8765 20977.7874 8.6482 56.6238
ENERGY: 600000 0.4781 2.3157 0.3480 0.0000 -7351.4995 990.7658 0.0000 0.0000 1215.8157 -5141.7761 299.6945 -6357.5917 -5159.8125 300.3094 -407.9689 -309.1548 21510.2136 73.0925 133.4795
ENERGY: 900000 0.5497 2.0740 0.4458 0.0000 -7371.1839 1017.0987 0.0000 0.0000 1221.3965 -5129.6191 301.0701 -6351.0157 -5171.0740 299.0758 532.5876 556.1532 20845.4297 7.7080 67.1460
ENERGY: 1200000 0.4930 3.4768 1.1535 0.0000 -7530.0830 1087.2668 0.0000 0.0000 1192.5453 -5245.1477 293.9584 -6437.6930 -5169.7741 298.7824 952.8927 1009.5567 20720.9157 36.5160 93.5828
ENERGY: 1500000 1.0592 4.3790 0.5011 0.0000 -7384.2748 1012.9270 0.0000 0.0000 1218.5325 -5146.8760 300.3642 -6365.4085 -5170.7513 298.6127 150.5307 254.4935 21069.3648 -12.1809 56.0297
TCL: Running FEP window  13: Lambda1 0.6    Lambda2 0.65   [dLambda 0.050000000000000044]
TCL: Setting parameter firsttimestep to 0
TCL: Setting parameter alchLambda to 0.6
Info: NONBONDED TABLE R-SQUARED SPACING: 0.0625
Info: NONBONDED TABLE SIZE: 705 POINTS
TCL: Setting parameter alchLambda2 to 0.65
Info: NONBONDED TABLE R-SQUARED SPACING: 0.0625
Info: NONBONDED TABLE SIZE: 705 POINTS
TCL: Running for 1500000 steps
ETITLE: TS BOND ANGLE DIHED IMPRP ELECT VDW BOUNDARY MISC KINETIC TOTAL TEMP POTENTIAL TOTALAVG TEMPAVG PRESSURE GPRESSURE VOLUME PRESSAVG GPRESSAVG
ENERGY: 0 1.0592 4.3790 0.5011 0.0000 -7384.4035 1013.1870 0.0000 0.0000 1217.9237 -5147.3536 300.2141 -6365.2773 -5147.3536 300.2141 198.3336 263.9198 21069.3648 198.3336 263.9198
ENERGY: 300000 0.0236 1.8544 1.0595 0.0000 -7311.1769 909.0513 0.0000 0.0000 1192.5493 -5206.6388 293.9594 -6399.1881 -5183.3151 299.4031 -1059.4688 -977.9126 21255.3357 -168.1262 -111.2060
ENERGY: 600000 2.3585 2.5025 0.5160 0.0000 -7465.3903 1011.8916 0.0000 0.0000 1208.8244 -5239.2974 297.9712 -6448.1218 -5178.8121 299.6914 -290.1289 -145.7315 21127.0084 -146.8766 -96.4452
ENERGY: 900000 0.6970 4.4880 0.1361 0.0000 -7354.8504 949.8218 0.0000 0.0000 1268.9616 -5130.7458 312.7948 -6399.7075 -5174.4700 302.4305 -361.5806 -360.8398 20808.9547 -171.4754 -125.2035
ENERGY: 1200000 1.3096 5.6898 0.4143 0.0000 -7389.6324 974.2910 0.0000 0.0000 1235.6183 -5172.3094 304.5758 -6407.9277 -5176.2604 302.2976 -404.2853 -287.0265 20969.9481 -216.0535 -160.8575
ENERGY: 1500000 0.0046 3.1211 0.4742 0.0000 -7251.5179 940.7471 0.0000 0.0000 1243.2439 -5063.9270 306.4554 -6307.1708 -5171.3391 301.9171 -549.5130 -423.6114 21447.8828 -150.5760 -96.3615
TCL: Running FEP window  14: Lambda1 0.65   Lambda2 0.7000000000000001 [dLambda 0.050000000000000044]
TCL: Setting parameter firsttimestep to 0
TCL: Setting parameter alchLambda to 0.65
Info: NONBONDED TABLE R-SQUARED SPACING: 0.0625
Info: NONBONDED TABLE SIZE: 705 POINTS
TCL: Setting parameter alchLambda2 to 0.7000000000000001
Info: NONBONDED TABLE R-SQUARED SPACING: 0.0625
Info: NONBONDED TABLE SIZE: 705 POINTS
TCL: Running for 1500000 steps
ETITLE: TS BOND ANGLE DIHED IMPRP ELECT VDW BOUNDARY MISC KINETIC TOTAL TEMP POTENTIAL TOTALAVG TEMPAVG PRESSURE GPRESSURE VOLUME PRESSAVG GPRESSAVG
ENERGY: 0 0.0046 3.1211 0.4742 0.0000 -7251.3777 941.2374 0.0000 0.0000 1242.6452 -5063.8952 306.3079 -6306.5404 -5063.8952 306.3079 -496.1240 -413.5785 21447.8828 -496.1240 -413.5785
ENERGY: 300000 0.2039 6.8576 1.8194 0.0000 -7509.4260 1079.1814 0.0000 0.0000 1211.8348 -5209.5289 298.7132 -6421.3637 -5171.0522 296.5256 795.6285 747.1608 21043.2183 -5.0692 52.2786
ENERGY: 600000 2.0735 8.2646 0.9324 0.0000 -7357.1067 1017.9868 0.0000 0.0000 1257.9185 -5069.9310 310.0727 -6327.8495 -5173.7379 298.7026 325.1020 418.4930 21097.3633 163.8173 231.0929
ENERGY: 900000 1.3121 1.9699 0.2217 0.0000 -7349.1362 975.5523 0.0000 0.0000 1204.7272 -5165.3531 296.9612 -6370.0803 -5173.1404 298.0763 -378.3937 -287.6406 21218.9413 11.1071 77.7895
ENERGY: 1200000 0.1733 5.4048 0.5792 0.0000 -7438.7133 1017.9895 0.0000 0.0000 1224.4788 -5190.0877 301.8299 -6414.5666 -5169.6955 298.3964 207.2421 250.9926 20843.8577 16.5969 75.2418
ENERGY: 1500000 0.0141 4.5264 0.3415 0.0000 -7344.1044 947.0504 0.0000 0.0000 1205.3921 -5186.7799 297.1251 -6392.1720 -5172.5721 298.4499 -587.1184 -592.1751 21299.1228 -62.6799 -6.4994
TCL: Running FEP window  15: Lambda1 0.7000000000000001 Lambda2 0.7500000000000001 [dLambda 0.050000000000000044]
TCL: Setting parameter firsttimestep to 0
TCL: Setting parameter alchLambda to 0.7000000000000001
Info: NONBONDED TABLE R-SQUARED SPACING: 0.0625
Info: NONBONDED TABLE SIZE: 705 POINTS
TCL: Setting parameter alchLambda2 to 0.7500000000000001
Info: NONBONDED TABLE R-SQUARED SPACING: 0.0625
Info: NONBONDED TABLE SIZE: 705 POINTS
TCL: Running for 1500000 steps
ETITLE: TS BOND ANGLE DIHED IMPRP ELECT VDW BOUNDARY MISC KINETIC TOTAL TEMP POTENTIAL TOTALAVG TEMPAVG PRESSURE GPRESSURE VOLUME PRESSAVG GPRESSAVG
ENERGY: 0 0.0141 4.5264 0.3415 0.0000 -7344.5975 947.0004 0.0000 0.0000 1204.7707 -5187.9445 296.9719 -6392.7151 -5187.9445 296.9719 -669.5116 -589.5004 21299.1228 -669.5116 -589.5004
ENERGY: 300000 0.5241 1.1347 0.5848 0.0000 -7379.7769 987.0009 0.0000 0.0000 1214.8233 -5175.7090 299.4499 -6390.5323 -5210.7424 298.9507 115.6241 193.0638 20808.0220 -258.5367 -204.2522
ENERGY: 600000 0.3922 3.4214 2.4290 0.0000 -7362.4396 964.0548 0.0000 0.0000 1232.6932 -5159.4490 303.8547 -6392.1422 -5206.2368 298.1233 -347.1521 -320.2958 20855.5809 -231.0714 -192.4442
ENERGY: 900000 1.2700 3.1122 2.0139 0.0000 -7367.1464 961.7493 0.0000 0.0000 1229.6930 -5169.3080 303.1152 -6399.0010 -5198.9625 299.5976 -349.7810 -267.1321 20841.9838 -121.1455 -58.2165
ENERGY: 1200000 0.4131 3.5115 0.1621 0.0000 -7462.3457 1090.5898 0.0000 0.0000 1230.0187 -5137.6506 303.1955 -6367.6692 -5191.7735 299.5047 1187.0957 1318.8877 20729.5135 4.0478 81.5168
ENERGY: 1500000 0.5124 2.4417 0.8469 0.0000 -7436.6421 995.2721 0.0000 0.0000 1163.1906 -5274.3784 286.7226 -6437.5690 -5194.8719 298.6152 -294.7393 -197.3678 20848.2189 -52.4228 20.4558
TCL: Running FEP window  16: Lambda1 0.7500000000000001 Lambda2 0.8000000000000002 [dLambda 0.050000000000000044]
TCL: Setting parameter firsttimestep to 0
TCL: Setting parameter alchLambda to 0.7500000000000001
Info: NONBONDED TABLE R-SQUARED SPACING: 0.0625
Info: NONBONDED TABLE SIZE: 705 POINTS
TCL: Setting parameter alchLambda2 to 0.8000000000000002
Info: NONBONDED TABLE R-SQUARED SPACING: 0.0625
Info: NONBONDED TABLE SIZE: 705 POINTS
TCL: Running for 1500000 steps
ETITLE: TS BOND ANGLE DIHED IMPRP ELECT VDW BOUNDARY MISC KINETIC TOTAL TEMP POTENTIAL TOTALAVG TEMPAVG PRESSURE GPRESSURE VOLUME PRESSAVG GPRESSAVG
ENERGY: 0 0.5124 2.4417 0.8469 0.0000 -7436.9992 995.3705 0.0000 0.0000 1162.5923 -5275.2353 286.5751 -6437.8276 -5275.2353 286.5751 -259.5034 -192.5599 20848.2189 -259.5034 -192.5599
ENERGY: 300000 0.5992 2.4688 0.3655 0.0000 -7349.3959 935.0794 0.0000 0.0000 1227.4213 -5183.4617 302.5552 -6410.8830 -5206.6144 297.0361 -818.3305 -797.2261 21258.4123 -407.3512 -367.4575
ENERGY: 600000 0.0662 3.4089 0.5202 0.0000 -7333.2829 937.1880 0.0000 0.0000 1176.2867 -5215.8129 289.9507 -6392.0996 -5205.3664 296.4986 -999.5066 -877.8702 21425.7235 -438.6176 -372.0965
ENERGY: 900000 0.9900 2.7759 1.0463 0.0000 -7322.7473 918.6582 0.0000 0.0000 1200.1270 -5199.1498 295.8273 -6399.2768 -5192.9956 297.3137 -797.9569 -736.8845 20854.4915 -407.5832 -343.1748
ENERGY: 1200000 0.0583 5.4519 0.6320 0.0000 -7312.5227 992.6074 0.0000 0.0000 1210.9157 -5102.8574 298.4866 -6313.7731 -5184.3429 298.1154 181.3706 349.9693 21093.8393 -293.9935 -226.0132
ENERGY: 1500000 0.6101 3.3341 0.8324 0.0000 -7375.9141 957.4752 0.0000 0.0000 1207.8678 -5205.7944 297.7354 -6413.6622 -5187.3709 297.3446 -449.3025 -432.3947 20868.9250 -326.9982 -269.0820
TCL: Running FEP window  17: Lambda1 0.8000000000000002 Lambda2 0.8500000000000002 [dLambda 0.050000000000000044]
TCL: Setting parameter firsttimestep to 0
TCL: Setting parameter alchLambda to 0.8000000000000002
Info: NONBONDED TABLE R-SQUARED SPACING: 0.0625
Info: NONBONDED TABLE SIZE: 705 POINTS
TCL: Setting parameter alchLambda2 to 0.8500000000000002
Info: NONBONDED TABLE R-SQUARED SPACING: 0.0625
Info: NONBONDED TABLE SIZE: 705 POINTS
TCL: Running for 1500000 steps
ETITLE: TS BOND ANGLE DIHED IMPRP ELECT VDW BOUNDARY MISC KINETIC TOTAL TEMP POTENTIAL TOTALAVG TEMPAVG PRESSURE GPRESSURE VOLUME PRESSAVG GPRESSAVG
ENERGY: 0 0.6101 3.3341 0.8324 0.0000 -7376.1097 957.7596 0.0000 0.0000 1207.2757 -5206.2978 297.5894 -6413.5735 -5206.2978 297.5894 -512.9838 -419.2409 20868.9250 -512.9838 -419.2409
ENERGY: 300000 0.2344 3.4502 0.0785 0.0000 -7352.5007 964.5352 0.0000 0.0000 1223.2897 -5160.9126 301.5368 -6384.2023 -5155.1799 298.8059 -225.4453 -168.0272 20759.6678 -568.4426 -507.1438
ENERGY: 600000 0.1282 3.0625 0.5981 0.0000 -7339.7318 963.7833 0.0000 0.0000 1205.4395 -5166.7202 297.1368 -6372.1596 -5150.1267 299.5789 -160.6102 -56.4848 20902.5830 -390.4538 -334.7304
ENERGY: 900000 0.1409 3.5407 0.0667 0.0000 -7281.0038 950.4777 0.0000 0.0000 1199.1464 -5127.6314 295.5856 -6326.7778 -5161.1153 299.6133 -441.9890 -434.5010 21237.4610 -307.1522 -245.8454
ENERGY: 1200000 0.9165 1.1974 0.0373 0.0000 -7302.0858 938.6852 0.0000 0.0000 1243.8939 -5117.3555 306.6157 -6361.2493 -5163.2455 299.7379 -427.8995 -370.3460 21065.9235 -247.8771 -187.0178
ENERGY: 1500000 0.1649 2.7904 0.5824 0.0000 -7414.7696 970.1532 0.0000 0.0000 1229.7773 -5211.3014 303.1360 -6441.0787 -5168.7676 299.7684 -277.8511 -209.8068 20752.1247 -227.0572 -163.4471
TCL: Running FEP window  18: Lambda1 0.8500000000000002 Lambda2 0.9000000000000002 [dLambda 0.050000000000000044]
TCL: Setting parameter firsttimestep to 0
TCL: Setting parameter alchLambda to 0.8500000000000002
Info: NONBONDED TABLE R-SQUARED SPACING: 0.0625
Info: NONBONDED TABLE SIZE: 705 POINTS
TCL: Setting parameter alchLambda2 to 0.9000000000000002
Info: NONBONDED TABLE R-SQUARED SPACING: 0.0625
Info: NONBONDED TABLE SIZE: 705 POINTS
TCL: Running for 1500000 steps
ETITLE: TS BOND ANGLE DIHED IMPRP ELECT VDW BOUNDARY MISC KINETIC TOTAL TEMP POTENTIAL TOTALAVG TEMPAVG PRESSURE GPRESSURE VOLUME PRESSAVG GPRESSAVG
ENERGY: 0 0.1649 2.7904 0.5824 0.0000 -7415.2079 970.6540 0.0000 0.0000 1229.1910 -5211.8253 302.9914 -6441.0162 -5211.8253 302.9914 -262.5671 -190.0549 20752.1247 -262.5671 -190.0549
ENERGY: 300000 0.7407 3.6693 0.3324 0.0000 -7290.9824 931.7260 0.0000 0.0000 1189.9131 -5164.6007 293.3096 -6354.5139 -5186.7623 300.8904 -771.0593 -667.2414 21327.9619 -443.1588 -382.1446
ENERGY: 600000 0.3796 4.8743 0.5441 0.0000 -7603.3846 1103.0756 0.0000 0.0000 1130.5493 -5363.9618 278.6766 -6494.5111 -5206.7683 297.9206 1025.7294 1170.7635 20364.2728 18.2346 92.7674
ENERGY: 900000 0.2810 2.2651 0.4170 0.0000 -7425.2283 1022.1044 0.0000 0.0000 1173.4153 -5226.7454 289.2429 -6400.1607 -5216.3900 294.8351 586.6219 574.1531 20729.6594 10.7837 73.4833
ENERGY: 1200000 2.6058 3.4649 2.7990 0.0000 -7429.7650 994.6616 0.0000 0.0000 1212.8880 -5213.3457 298.9728 -6426.2336 -5215.8441 294.2631 136.0775 245.3731 20427.9187 -111.3860 -43.0898
ENERGY: 1500000 0.7364 2.5711 0.2999 0.0000 -7298.4563 966.7557 0.0000 0.0000 1234.2299 -5093.8634 304.2335 -6328.0932 -5204.3580 295.3249 -53.0321 -69.0981 21137.8298 -77.1275 -9.2988
TCL: Running FEP window  19: Lambda1 0.9000000000000002 Lambda2 0.9500000000000003 [dLambda 0.050000000000000044]
TCL: Setting parameter firsttimestep to 0
TCL: Setting parameter alchLambda to 0.9000000000000002
Info: NONBONDED TABLE R-SQUARED SPACING: 0.0625
Info: NONBONDED TABLE SIZE: 705 POINTS
TCL: Setting parameter alchLambda2 to 0.9500000000000003
Info: NONBONDED TABLE R-SQUARED SPACING: 0.0625
Info: NONBONDED TABLE SIZE: 705 POINTS
TCL: Running for 1500000 steps
ETITLE: TS BOND ANGLE DIHED IMPRP ELECT VDW BOUNDARY MISC KINETIC TOTAL TEMP POTENTIAL TOTALAVG TEMPAVG PRESSURE GPRESSURE VOLUME PRESSAVG GPRESSAVG
ENERGY: 0 0.7364 2.5711 0.2999 0.0000 -7298.6113 967.0071 0.0000 0.0000 1233.6165 -5094.3803 304.0823 -6327.9967 -5094.3803 304.0823 -126.3869 -56.5035 21137.8298 -126.3869 -56.5035
ENERGY: 300000 1.9578 3.8145 1.2726 0.0000 -7354.8774 991.0566 0.0000 0.0000 1196.2915 -5160.4845 294.8818 -6356.7759 -5156.3060 299.9580 -193.1136 -114.3287 21312.3884 -223.4482 -204.2482
ENERGY: 600000 0.0530 1.0712 1.0309 0.0000 -7272.5575 951.1857 0.0000 0.0000 1192.0389 -5127.1777 293.8336 -6319.2166 -5163.3070 299.3128 -320.9469 -264.0275 21309.3796 -315.3407 -285.1214
ENERGY: 900000 0.0772 1.9566 0.5510 0.0000 -7468.1925 1043.1857 0.0000 0.0000 1255.5496 -5166.8725 309.4888 -6422.4220 -5172.9565 300.2272 402.8290 383.0406 21020.3284 -53.2299 -11.3745
ENERGY: 1200000 0.7195 1.5545 1.9261 0.0000 -7399.1227 1024.7610 0.0000 0.0000 1208.0212 -5162.1404 297.7732 -6370.1616 -5169.8314 300.7133 341.7008 374.5939 21018.5282 -24.1482 38.4019
ENERGY: 1500000 1.1378 1.5910 1.7542 0.0000 -7295.7422 944.4656 0.0000 0.0000 1202.9475 -5143.8462 296.5225 -6346.7937 -5174.6104 300.3014 -380.8394 -381.0640 21107.8355 -6.0053 50.5510
TCL: Running FEP window  20: Lambda1 0.9500000000000003 Lambda2 1.0    [dLambda 0.04999999999999971]
TCL: Setting parameter firsttimestep to 0
TCL: Setting parameter alchLambda to 0.9500000000000003
Info: NONBONDED TABLE R-SQUARED SPACING: 0.0625
Info: NONBONDED TABLE SIZE: 705 POINTS
TCL: Setting parameter alchLambda2 to 1.0
Info: NONBONDED TABLE R-SQUARED SPACING: 0.0625
Info: NONBONDED TABLE SIZE: 705 POINTS
TCL: Running for 1500000 steps
ETITLE: TS BOND ANGLE DIHED IMPRP ELECT VDW BOUNDARY MISC KINETIC TOTAL TEMP POTENTIAL TOTALAVG TEMPAVG PRESSURE GPRESSURE VOLUME PRESSAVG GPRESSAVG
ENERGY: 0 1.1378 1.5910 1.7542 0.0000 -7296.3137 944.4424 0.0000 0.0000 1202.3333 -5145.0551 296.3711 -6347.3883 -5145.0551 296.3711 -452.7381 -373.2598 21107.8355 -452.7381 -373.2598
ENERGY: 300000 0.5877 4.7611 0.9881 0.0000 -7253.1324 909.4265 0.0000 0.0000 1204.4655 -5132.9035 296.8967 -6337.3690 -5153.1731 298.9938 -783.9014 -668.8476 20987.0504 292.8757 347.7676
ENERGY: 600000 0.5282 2.5203 0.2143 0.0000 -7347.9191 895.1555 0.0000 0.0000 1198.4930 -5251.0079 295.4245 -6449.5008 -5166.9759 299.0429 -1344.8953 -1298.1726 21047.5321 -62.7533 -20.7600
ENERGY: 900000 1.1712 1.9890 1.1877 0.0000 -7434.6411 1030.3589 0.0000 0.0000 1201.0364 -5198.8978 296.0514 -6399.9343 -5179.8800 299.2170 242.0571 349.7441 20937.4644 -36.1319 8.2161
ENERGY: 1200000 0.0897 4.8849 0.5981 0.0000 -7394.6987 1022.3225 0.0000 0.0000 1217.8186 -5148.9849 300.1882 -6366.8036 -5176.5280 299.5552 574.2132 658.1006 20934.9756 -13.2121 39.7534
ENERGY: 1500000 2.2265 1.0928 0.3809 0.0000 -7353.6694 1012.2910 0.0000 0.0000 1242.8644 -5094.8138 306.3619 -6337.6782 -5169.9543 300.5250 324.4454 440.6407 21207.8450 2.0386 69.0401
TCL: Exiting due to exit command.
