Info: SIMULATION PARAMETERS:
Info: TIMESTEP               2
Info: NUMBER OF STEPS        0
Info: STEPS PER CYCLE        10
Info: PERIODIC CELL BASIS 1  28.2119 0 0
Info: PERIODIC CELL BASIS 2  0 27.223 0
Info: PERIODIC CELL BASIS 3  0 0 27.6544
Info: PERIODIC CELL CENTER   0 0 0
Info: WRAPPING WATERS AROUND PERIODIC BOUNDARIES ON OUTPUT.
Info: WRAPPING ALL CLUSTERS AROUND PERIODIC BOUNDARIES ON OUTPUT.
Info: FIRST LDB TIMESTEP     50
Info: LAST LDB TIMESTEP     -1
Info: HOM BACKGROUND SCALING 1
Info: PME BACKGROUND SCALING 1
Info: MIN ATOMS PER PATCH    40
Info: EMPTY PATCH LOAD       40 ATOMS
Info: VELOCITY FILE          mobley_6714389_equil.vel
Info: CENTER OF MASS MOVING INITIALLY? NO
Info: DIELECTRIC             1
Info: EXCLUDE                SCALED ONE-FOUR
Info: 1-4 ELECTROSTATICS SCALED BY 0.833333
Info: MODIFIED 1-4 VDW PARAMETERS WILL BE USED
Info: DCD FILENAME           mobley_6714389_prod.dcd
Info: DCD FREQUENCY          100000
Info: DCD FIRST STEP         100000
Info: DCD FILE WILL CONTAIN UNIT CELL DATA
Info: XST FILENAME           mobley_6714389_prod.xst
Info: XST FREQUENCY          100000
Info: NO VELOCITY DCD OUTPUT
Info: NO FORCE DCD OUTPUT
Info: OUTPUT FILENAME        mobley_6714389_prod
Info: BINARY OUTPUT FILES WILL BE USED
Info: NO RESTART FILE
Info: CUTOFF                 9
Info: PAIRLIST DISTANCE      11
Info: PAIRLIST SHRINK RATE   0.01
Info: PAIRLIST GROW RATE     0.01
Info: PAIRLIST TRIGGER       0.3
Info: PAIRLISTS PER CYCLE    2
Info: PAIRLISTS ENABLED
Info: MARGIN                 2
Info: HYDROGEN GROUP CUTOFF  2.5
Info: PATCH DIMENSION        15.5
Info: ENERGY OUTPUT STEPS    100000
Info: ENERGY EVALUATION STEPS    100000
Info: OUTPUT ENERGY PRECISION 4
Info: CROSSTERM ENERGY INCLUDED IN DIHEDRAL
Info: TIMING OUTPUT STEPS    1000000
Info: PRESSURE OUTPUT STEPS  100000
Info: ALCHEMICAL FEP ON
Info: FEP CURRENT LAMBDA VALUE     0
Info: FEP COMPARISON LAMBDA VALUE  0.05
Info: FEP INTRA-ALCHEMICAL NON-BONDED INTERACTIONS WILL BE RETAINED
Info: FEP INTRA-ALCHEMICAL BONDED INTERACTIONS WILL BE RETAINED
Info: FEP VDW SHIFTING COEFFICIENT 5
Info: FEP ELEC. ACTIVE FOR ANNIHILATED PARTICLES BETWEEN LAMBDA = 0 AND LAMBDA = 0.5
Info: FEP ELEC. ACTIVE FOR EXNIHILATED PARTICLES BETWEEN LAMBDA = 0.5 AND LAMBDA = 1
Info: FEP VDW ACTIVE FOR ANNIHILATED PARTICLES BETWEEN LAMBDA = 0 AND LAMBDA = 1
Info: FEP VDW ACTIVE FOR EXNIHILATED PARTICLES BETWEEN LAMBDA = 0 AND LAMBDA = 1
Info: FEP BOND ACTIVE FOR ANNIHILATED PARTICLES BETWEEN LAMBDA = 1 AND LAMBDA = 1
Info: FEP BOND ACTIVE FOR EXNIHILATED PARTICLES BETWEEN LAMBDA = 0 AND LAMBDA = 0
Info: LANGEVIN DYNAMICS ACTIVE
Info: LANGEVIN TEMPERATURE   300
Info: LANGEVIN USING BBK INTEGRATOR
Info: LANGEVIN DAMPING COEFFICIENT IS 1 INVERSE PS
Info: LANGEVIN DYNAMICS APPLIED TO HYDROGENS
Info: LANGEVIN PISTON PRESSURE CONTROL ACTIVE
Info:        TARGET PRESSURE IS 1.01325 BAR
Info:     OSCILLATION PERIOD IS 50 FS
Info:             DECAY TIME IS 25 FS
Info:     PISTON TEMPERATURE IS 300 K
Info:       PRESSURE CONTROL IS GROUP-BASED
Info:    INITIAL STRAIN RATE IS 5.63254e-05 5.63254e-05 5.63254e-05
Info:       CELL FLUCTUATION IS ISOTROPIC
Info: PARTICLE MESH EWALD (PME) ACTIVE
Info: PME TOLERANCE               1e-06
Info: PME EWALD COEFFICIENT       0.348832
Info: PME INTERPOLATION ORDER     4
Info: PME GRID DIMENSIONS         32 28 28
Info: PME MAXIMUM GRID SPACING    1
Info: PME CALCULATION WILL BE PERFORMED ON GPU
Info: FULL ELECTROSTATIC EVALUATION FREQUENCY      2
Info: USING VERLET I (r-RESPA) MTS SCHEME.
Info: C1 SPLITTING OF LONG RANGE ELECTROSTATICS
Info: PLACING ATOMS IN PATCHES BY HYDROGEN GROUPS
Info: RIGID BONDS TO HYDROGEN : ALL
Info:         ERROR TOLERANCE : 1e-08
Info:          MAX ITERATIONS : 100
Info: RIGID WATER USING SETTLE ALGORITHM
Info: RANDOM NUMBER SEED     1741647980
Info: USE HYDROGEN BONDS?    NO
Info: Using AMBER format force field!
Info: AMBER PARM FILE        mobley_6714389.prmtop
Info: COORDINATE PDB         mobley_6714389.pdb
Info: Exclusions will be read from PARM file!
Info: SCNB (VDW SCALING)     2
Info: USING ARITHMETIC MEAN TO COMBINE L-J SIGMA PARAMETERS
Info: BINARY COORDINATES     mobley_6714389_equil.coor
Info: SUMMARY OF PARAMETERS:
Info: 5 BONDS
Info: 4 ANGLES
Info:   4 HARMONIC
Info:   0 COSINE-BASED
Info: 1 DIHEDRAL
Info: 0 IMPROPER
Info: 0 CROSSTERM
Info: 0 VDW
Info: 21 VDW_PAIRS
Info: 0 NBTHOLE_PAIRS
Info: To read alchdata from file: mobley_6714389.pdb
Info: To read alchflag data from column: 5
Info: STRUCTURE SUMMARY:
Info: 2020 ATOMS
Info: 2019 BONDS
Info: 9 ANGLES
Info: 6 DIHEDRALS
Info: 0 IMPROPERS
Info: 0 CROSSTERMS
Info: 2034 EXCLUSIONS
Info: 2018 RIGID BONDS
Info: ALCH: 0 ATOMS TO DISAPPEAR IN FINAL STATE
Info: ALCH: 7 ATOMS TO APPEAR IN FINAL STATE
Info: 4042 DEGREES OF FREEDOM
Info: 673 HYDROGEN GROUPS
Info: 4 ATOMS IN LARGEST HYDROGEN GROUP
Info: 673 MIGRATION GROUPS
Info: 4 ATOMS IN LARGEST MIGRATION GROUP
Info: TOTAL MASS = 12119.8 amu
Info: TOTAL CHARGE = 0.000100093 e
Info: MASS DENSITY = 0.947591 g/cm^3
Info: ATOM DENSITY = 0.0951081 atoms/A^3
Info: ADDED 0 IMPLICIT EXCLUSIONS
Info: NONBONDED TABLE R-SQUARED SPACING: 0.0625
Info: NONBONDED TABLE SIZE: 705 POINTS
Info: REMOVING COM VELOCITY 0.0802283 0.165693 -0.254181
Info: Use 3D box decompostion in PME FFT.
Info: Updated CUDA force table with 4096 elements.
Info: Updated CUDA LJ table with 6 x 6 elements.
Info: Found 10 unique exclusion lists needing 12 bytes
TCL: Running for 1500000 steps
ETITLE: TS BOND ANGLE DIHED IMPRP ELECT VDW BOUNDARY MISC KINETIC TOTAL TEMP POTENTIAL TOTALAVG TEMPAVG PRESSURE GPRESSURE VOLUME PRESSAVG GPRESSAVG
ENERGY: 0 0.0488 1.6745 0.0522 0.0000 -7281.4919 920.6572 0.0000 0.0000 1214.6643 -5144.3948 302.4477 -6359.0591 -5144.3948 302.4477 -1215.8029 -1148.7524 21238.9803 -1215.8029 -1148.7524
ENERGY: 300000 0.1443 0.5841 0.3392 0.0000 -7358.5635 990.0068 0.0000 0.0000 1245.0671 -5122.4220 310.0179 -6367.4891 -5100.6415 307.0570 -33.2608 -0.5905 20755.0636 -331.8718 -288.0545
ENERGY: 600000 0.4208 0.8542 0.0533 0.0000 -7259.9275 916.9178 0.0000 0.0000 1243.0720 -5098.6095 309.5212 -6341.6815 -5107.8115 306.2996 -1095.3211 -951.9551 20977.8268 -406.6920 -362.8911
ENERGY: 900000 0.8503 1.9285 0.5358 0.0000 -7453.3059 1080.7357 0.0000 0.0000 1223.1786 -5146.0770 304.5678 -6369.2555 -5117.1853 305.1487 873.6496 900.6315 20636.1161 -307.5440 -258.9793
ENERGY: 1200000 0.1030 4.7751 0.3151 0.0000 -7285.5758 977.1847 0.0000 0.0000 1260.7932 -5042.4047 313.9337 -6303.1979 -5106.9273 305.0098 25.7877 46.0292 20833.0957 -277.2780 -233.5211
ENERGY: 1500000 1.1819 2.0194 0.2537 0.0000 -7298.1775 925.7053 0.0000 0.0000 1224.8884 -5144.1289 304.9935 -6369.0173 -5108.7409 304.7074 -407.3624 -403.6284 20254.3790 -269.9341 -233.4146
TCL: Running FEP window   2: Lambda1 0.05   Lambda2 0.1    [dLambda 0.05  ]
TCL: Setting parameter firsttimestep to 0
TCL: Setting parameter alchLambda to 0.05
Info: NONBONDED TABLE R-SQUARED SPACING: 0.0625
Info: NONBONDED TABLE SIZE: 705 POINTS
TCL: Setting parameter alchLambda2 to 0.1
Info: NONBONDED TABLE R-SQUARED SPACING: 0.0625
Info: NONBONDED TABLE SIZE: 705 POINTS
TCL: Running for 1500000 steps
ETITLE: TS BOND ANGLE DIHED IMPRP ELECT VDW BOUNDARY MISC KINETIC TOTAL TEMP POTENTIAL TOTALAVG TEMPAVG PRESSURE GPRESSURE VOLUME PRESSAVG GPRESSAVG
ENERGY: 0 1.1819 2.0194 0.2537 0.0000 -7298.1767 926.1062 0.0000 0.0000 1224.2757 -5144.3399 304.8409 -6368.6156 -5144.3399 304.8409 -497.6875 -399.1624 20254.3790 -497.6875 -399.1624
ENERGY: 300000 0.0125 3.6823 3.3078 0.0000 -7363.1985 1028.3861 0.0000 0.0000 1223.5391 -5104.2707 304.6575 -6327.8098 -5109.3400 302.4216 563.7347 609.4024 20679.9652 110.8359 163.2467
ENERGY: 600000 0.0616 2.2665 1.3811 0.0000 -7355.8329 1003.5920 0.0000 0.0000 1219.5086 -5129.0230 303.6540 -6348.5316 -5111.4236 301.9523 174.0889 207.0010 20729.7437 -72.9338 -15.5202
ENERGY: 900000 1.3065 5.6608 0.6542 0.0000 -7326.1753 995.3961 0.0000 0.0000 1197.0603 -5126.0974 298.0644 -6323.1577 -5100.7685 303.5279 -33.1499 40.0656 20832.1337 109.1350 164.9663
ENERGY: 1200000 1.5156 1.5528 0.2035 0.0000 -7345.3385 1014.0414 0.0000 0.0000 1250.6064 -5077.4189 311.3972 -6328.0253 -5109.2784 303.7252 476.1712 564.6134 20410.2337 164.2015 224.8824
ENERGY: 1500000 0.3028 1.5755 0.0757 0.0000 -7300.8879 974.6913 0.0000 0.0000 1216.7344 -5107.5081 302.9632 -6324.2425 -5110.2629 302.8906 -110.6313 -54.4696 20659.0888 177.6417 248.3542
TCL: Running FEP window   3: Lambda1 0.1    Lambda2 0.15000000000000002 [dLambda 0.05000000000000002]
TCL: Setting parameter firsttimestep to 0
TCL: Setting parameter alchLambda to 0.1
Info: NONBONDED TABLE R-SQUARED SPACING: 0.0625
Info: NONBONDED TABLE SIZE: 705 POINTS
TCL: Setting parameter alchLambda2 to 0.15000000000000002
Info: NONBONDED TABLE R-SQUARED SPACING: 0.0625
Info: NONBONDED TABLE SIZE: 705 POINTS
TCL: Running for 1500000 steps
ETITLE: TS BOND ANGLE DIHED IMPRP ELECT VDW BOUNDARY MISC KINETIC TOTAL TEMP POTENTIAL TOTALAVG TEMPAVG PRESSURE GPRESSURE VOLUME PRESSAVG GPRESSAVG
ENERGY: 0 0.3028 1.5755 0.0757 0.0000 -7300.8864 977.3737 0.0000 0.0000 1216.1138 -5105.4448 302.8087 -6321.5586 -5105.4448 302.8087 -120.7690 -47.9915 20659.0888 -120.7690 -47.9915
ENERGY: 300000 0.1762 1.5858 0.0170 0.0000 -7248.3793 953.3258 0.0000 0.0000 1183.0260 -5110.2484 294.5699 -6293.2744 -5101.8326 297.3479 -338.6028 -198.0970 20841.6808 -95.1560 -14.0528
ENERGY: 600000 0.0014 4.1419 0.0926 0.0000 -7273.5394 957.1175 0.0000 0.0000 1195.2201 -5116.9659 297.6062 -6312.1860 -5102.1530 296.5859 -158.8397 -93.4838 20561.9875 -3.9427 85.7231
ENERGY: 900000 0.0212 3.0366 0.3888 0.0000 -7437.3375 1025.3761 0.0000 0.0000 1235.8316 -5172.6832 307.7183 -6408.5148 -5113.7567 298.2535 204.1555 259.4058 20463.2764 -37.7514 51.7393
ENERGY: 1200000 0.2339 4.2572 0.3330 0.0000 -7206.0388 929.6619 0.0000 0.0000 1180.9215 -5090.6314 294.0459 -6271.5528 -5107.8367 299.4204 -644.2637 -652.3266 21182.9748 -98.8951 -23.7863
ENERGY: 1500000 0.0412 1.2018 0.1066 0.0000 -7239.7387 952.0145 0.0000 0.0000 1221.6059 -5064.7688 304.1762 -6286.3747 -5107.3913 300.0776 -422.6415 -279.1212 20962.7540 -125.4359 -47.0084
TCL: Running FEP window   4: Lambda1 0.15000000000000002 Lambda2 0.2    [dLambda 0.04999999999999999]
TCL: Setting parameter firsttimestep to 0
TCL: Setting parameter alchLambda to 0.15000000000000002
Info: NONBONDED TABLE R-SQUARED SPACING: 0.0625
Info: NONBONDED TABLE SIZE: 705 POINTS
TCL: Setting parameter alchLambda2 to 0.2
Info: NONBONDED TABLE R-SQUARED SPACING: 0.0625
Info: NONBONDED TABLE SIZE: 705 POINTS
TCL: Running for 1500000 steps
ETITLE: TS BOND ANGLE DIHED IMPRP ELECT VDW BOUNDARY MISC KINETIC TOTAL TEMP POTENTIAL TOTALAVG TEMPAVG PRESSURE GPRESSURE VOLUME PRESSAVG GPRESSAVG
ENERGY: 0 0.0412 1.2018 0.1066 0.0000 -7239.7395 953.4618 0.0000 0.0000 1220.9912 -5063.9369 304.0231 -6284.9281 -5063.9369 304.0231 -375.3896 -272.3921 20962.7540 -375.3896 -272.3921
ENERGY: 300000 0.4148 2.4678 0.1045 0.0000 -7329.5368 944.2770 0.0000 0.0000 1201.7798 -5180.4928 299.2395 -6382.2726 -5132.0780 301.0224 -623.1526 -570.7995 20738.2706 268.9008 347.2954
ENERGY: 600000 0.0706 7.2713 0.3035 0.0000 -7304.7212 941.0147 0.0000 0.0000 1219.9663 -5136.0949 303.7679 -6356.0612 -5129.9849 300.3797 -599.0521 -619.3812 20749.7118 93.4345 156.3365
ENERGY: 900000 0.8401 1.2596 0.2184 0.0000 -7302.9208 962.5956 0.0000 0.0000 1181.8614 -5156.1459 294.2799 -6338.0072 -5138.1229 299.0788 -131.7722 -101.5186 20398.2097 39.0263 91.0963
ENERGY: 1200000 1.0147 4.0680 0.5637 0.0000 -7378.1797 1051.2056 0.0000 0.0000 1173.9828 -5147.3447 292.3182 -6321.3276 -5141.2620 299.7207 693.1630 807.5729 20483.9108 149.0271 201.2702
ENERGY: 1500000 0.0082 1.3373 0.3499 0.0000 -7388.5059 982.8706 0.0000 0.0000 1211.5560 -5192.3839 301.6738 -6403.9399 -5141.8950 300.3290 -444.5872 -403.5592 20849.2710 65.5297 118.5554
TCL: Running FEP window   5: Lambda1 0.2    Lambda2 0.25   [dLambda 0.04999999999999999]
TCL: Setting parameter firsttimestep to 0
TCL: Setting parameter alchLambda to 0.2
Info: NONBONDED TABLE R-SQUARED SPACING: 0.0625
Info: NONBONDED TABLE SIZE: 705 POINTS
TCL: Setting parameter alchLambda2 to 0.25
Info: NONBONDED TABLE R-SQUARED SPACING: 0.0625
Info: NONBONDED TABLE SIZE: 705 POINTS
TCL: Running for 1500000 steps
ETITLE: TS BOND ANGLE DIHED IMPRP ELECT VDW BOUNDARY MISC KINETIC TOTAL TEMP POTENTIAL TOTALAVG TEMPAVG PRESSURE GPRESSURE VOLUME PRESSAVG GPRESSAVG
ENERGY: 0 0.0082 1.3373 0.3499 0.0000 -7388.5075 983.6890 0.0000 0.0000 1210.9353 -5192.1877 301.5192 -6403.1230 -5192.1877 301.5192 -494.0015 -398.1395 20849.2710 -494.0015 -398.1395
ENERGY: 300000 0.0828 4.7598 0.3137 0.0000 -7255.6200 957.1166 0.0000 0.0000 1184.4917 -5108.8554 294.9349 -6293.3471 -5120.8743 300.6985 -371.8150 -348.5480 21099.2657 -407.7476 -378.9955
ENERGY: 600000 0.9229 1.2168 0.0266 0.0000 -7381.2743 998.0265 0.0000 0.0000 1183.9559 -5197.1256 294.8014 -6381.0816 -5123.0591 300.9537 59.6899 107.2539 20280.8560 -148.6986 -109.9817
ENERGY: 900000 0.0643 2.1096 0.9362 0.0000 -7361.3178 1001.0534 0.0000 0.0000 1246.5410 -5110.6133 310.3849 -6357.1543 -5121.2111 301.7028 -9.8617 40.4140 20805.3112 -255.8220 -210.9670
ENERGY: 1200000 0.2803 3.1432 0.5557 0.0000 -7314.4170 1003.9972 0.0000 0.0000 1204.6465 -5101.7940 299.9533 -6306.4406 -5116.2785 302.0934 142.3730 254.1694 20816.9590 -248.9457 -194.2154
ENERGY: 1500000 1.5270 2.2825 0.9284 0.0000 -7419.3180 1029.1763 0.0000 0.0000 1184.0357 -5201.3682 294.8213 -6385.4039 -5126.9106 301.5157 301.8807 367.3810 20566.5299 -285.3938 -228.0301
TCL: Running FEP window   6: Lambda1 0.25   Lambda2 0.3    [dLambda 0.04999999999999999]
TCL: Setting parameter firsttimestep to 0
TCL: Setting parameter alchLambda to 0.25
Info: NONBONDED TABLE R-SQUARED SPACING: 0.0625
Info: NONBONDED TABLE SIZE: 705 POINTS
TCL: Setting parameter alchLambda2 to 0.3
Info: NONBONDED TABLE R-SQUARED SPACING: 0.0625
Info: NONBONDED TABLE SIZE: 705 POINTS
TCL: Running for 1500000 steps
ETITLE: TS BOND ANGLE DIHED IMPRP ELECT VDW BOUNDARY MISC KINETIC TOTAL TEMP POTENTIAL TOTALAVG TEMPAVG PRESSURE GPRESSURE VOLUME PRESSAVG GPRESSAVG
ENERGY: 0 1.5270 2.2825 0.9284 0.0000 -7419.3198 1029.1337 0.0000 0.0000 1183.4241 -5202.0242 294.6690 -6385.4483 -5202.0242 294.6690 289.2462 366.0769 20566.5299 289.2462 366.0769
ENERGY: 300000 0.4355 1.8901 0.1030 0.0000 -7257.1154 1010.7981 0.0000 0.0000 1215.7602 -5028.1286 302.7206 -6243.8887 -5146.1625 295.4133 590.9684 636.6790 20826.9689 437.1751 459.3937
ENERGY: 600000 0.0248 1.6353 0.1796 0.0000 -7378.9968 996.1249 0.0000 0.0000 1222.6763 -5158.3558 304.4427 -6381.0321 -5145.3890 298.0081 -289.2010 -218.8848 21030.0546 14.2215 58.6183
ENERGY: 900000 0.1723 1.4485 0.0501 0.0000 -7389.1964 1013.1723 0.0000 0.0000 1198.9096 -5175.4436 298.5249 -6374.3532 -5147.6706 298.8276 340.0694 434.5332 20343.3531 66.6643 125.1244
ENERGY: 1200000 0.0606 1.7858 0.1679 0.0000 -7295.2448 942.4782 0.0000 0.0000 1194.4993 -5156.2531 297.4267 -6350.7524 -5154.0364 299.5001 -496.0619 -552.6406 20803.9575 -15.0554 24.1981
ENERGY: 1500000 0.7306 2.4106 0.2936 0.0000 -7397.3052 1052.8472 0.0000 0.0000 1192.7308 -5148.2924 296.9864 -6341.0232 -5152.0672 298.8617 982.4060 1053.7958 20389.2135 50.2371 92.5352
TCL: Running FEP window   7: Lambda1 0.3    Lambda2 0.35   [dLambda 0.04999999999999999]
TCL: Setting parameter firsttimestep to 0
TCL: Setting parameter alchLambda to 0.3
Info: NONBONDED TABLE R-SQUARED SPACING: 0.0625
Info: NONBONDED TABLE SIZE: 705 POINTS
TCL: Setting parameter alchLambda2 to 0.35
Info: NONBONDED TABLE R-SQUARED SPACING: 0.0625
Info: NONBONDED TABLE SIZE: 705 POINTS
TCL: Running for 1500000 steps
ETITLE: TS BOND ANGLE DIHED IMPRP ELECT VDW BOUNDARY MISC KINETIC TOTAL TEMP POTENTIAL TOTALAVG TEMPAVG PRESSURE GPRESSURE VOLUME PRESSAVG GPRESSAVG
ENERGY: 0 0.7306 2.4106 0.2936 0.0000 -7397.3044 1052.9262 0.0000 0.0000 1192.1583 -5148.7851 296.8438 -6340.9434 -5148.7851 296.8438 962.5821 1054.0147 20389.2135 962.5821 1054.0147
ENERGY: 300000 0.6990 3.0767 0.4548 0.0000 -7276.1909 983.0635 0.0000 0.0000 1205.6107 -5083.2862 300.1934 -6288.8968 -5120.2697 298.3496 242.3670 292.5390 20659.5557 331.2273 407.7801
ENERGY: 600000 0.3029 1.5757 0.2736 0.0000 -7174.1455 907.6305 0.0000 0.0000 1177.1164 -5087.2463 293.0984 -6264.3628 -5103.8104 298.8227 -1103.6698 -906.0410 21002.1786 45.7756 131.1896
ENERGY: 900000 1.0488 3.8498 0.0825 0.0000 -7299.9826 980.2438 0.0000 0.0000 1212.0994 -5102.6583 301.8091 -6314.7577 -5086.8384 302.0246 -68.3013 -40.1426 20813.2058 -27.1832 47.3107
ENERGY: 1200000 0.2579 0.9398 0.2116 0.0000 -7284.6602 939.2346 0.0000 0.0000 1245.5742 -5098.4420 310.1442 -6344.0163 -5098.6637 302.0619 -557.1441 -541.3738 20877.3782 -152.7243 -72.3627
ENERGY: 1500000 0.1092 2.1647 1.2638 0.0000 -7282.0119 938.7641 0.0000 0.0000 1222.3967 -5117.3134 304.3731 -6339.7101 -5098.1149 302.1438 -434.8435 -384.7042 20541.8895 -141.9090 -70.9204
TCL: Running FEP window   8: Lambda1 0.35   Lambda2 0.39999999999999997 [dLambda 0.04999999999999999]
TCL: Setting parameter firsttimestep to 0
TCL: Setting parameter alchLambda to 0.35
Info: NONBONDED TABLE R-SQUARED SPACING: 0.0625
Info: NONBONDED TABLE SIZE: 705 POINTS
TCL: Setting parameter alchLambda2 to 0.39999999999999997
Info: NONBONDED TABLE R-SQUARED SPACING: 0.0625
Info: NONBONDED TABLE SIZE: 705 POINTS
TCL: Running for 1500000 steps
ETITLE: TS BOND ANGLE DIHED IMPRP ELECT VDW BOUNDARY MISC KINETIC TOTAL TEMP POTENTIAL TOTALAVG TEMPAVG PRESSURE GPRESSURE VOLUME PRESSAVG GPRESSAVG
ENERGY: 0 0.1092 2.1647 1.2638 0.0000 -7282.0117 939.6324 0.0000 0.0000 1221.8253 -5117.0162 304.2308 -6338.8415 -5117.0162 304.2308 -466.8905 -372.8753 20541.8895 -466.8905 -372.8753
ENERGY: 300000 0.0227 2.8921 0.0824 0.0000 -7376.2806 980.4225 0.0000 0.0000 1190.6100 -5202.2510 296.4583 -6392.8610 -5140.5948 303.1215 -584.3093 -588.1034 21086.6032 -370.8513 -297.9130
ENERGY: 600000 1.3280 4.4588 0.3140 0.0000 -7386.0393 1018.6199 0.0000 0.0000 1240.9145 -5120.4041 308.9840 -6361.3186 -5116.5455 304.1140 411.4224 470.7702 20429.3346 -320.9200 -250.8432
ENERGY: 900000 0.0539 2.2941 0.0703 0.0000 -7301.0691 959.0548 0.0000 0.0000 1206.2091 -5133.3868 300.3424 -6339.5960 -5124.5056 301.4750 -412.6151 -352.7802 20754.1490 -269.2683 -210.8448
ENERGY: 1200000 0.0812 1.6922 0.4077 0.0000 -7311.3679 963.4227 0.0000 0.0000 1219.5732 -5126.1910 303.6700 -6345.7642 -5133.9054 300.5499 -176.0261 -213.8772 20729.9156 -211.0672 -146.1499
ENERGY: 1500000 0.4723 4.1764 0.0372 0.0000 -7182.9433 850.9518 0.0000 0.0000 1185.7668 -5141.5388 295.2523 -6327.3056 -5133.8882 300.4874 -1687.0701 -1572.5034 20972.5129 -303.9610 -244.5098
TCL: Running FEP window   9: Lambda1 0.39999999999999997 Lambda2 0.44999999999999996 [dLambda 0.04999999999999999]
TCL: Setting parameter firsttimestep to 0
TCL: Setting parameter alchLambda to 0.39999999999999997
Info: NONBONDED TABLE R-SQUARED SPACING: 0.0625
Info: NONBONDED TABLE SIZE: 705 POINTS
TCL: Setting parameter alchLambda2 to 0.44999999999999996
Info: NONBONDED TABLE R-SQUARED SPACING: 0.0625
Info: NONBONDED TABLE SIZE: 705 POINTS
TCL: Running for 1500000 steps
ETITLE: TS BOND ANGLE DIHED IMPRP ELECT VDW BOUNDARY MISC KINETIC TOTAL TEMP POTENTIAL TOTALAVG TEMPAVG PRESSURE GPRESSURE VOLUME PRESSAVG GPRESSAVG
ENERGY: 0 0.4723 4.1764 0.0372 0.0000 -7182.9442 851.5972 0.0000 0.0000 1185.1869 -5141.4742 295.1080 -6326.6611 -5141.4742 295.1080 -1641.1847 -1563.1216 20972.5129 -1641.1847 -1563.1216
ENERGY: 300000 0.4818 3.2102 0.0845 0.0000 -7258.4735 959.6981 0.0000 0.0000 1195.0213 -5099.9777 297.5567 -6294.9990 -5136.0529 296.3326 -94.0921 -81.1445 20783.1988 -358.9628 -326.1777
ENERGY: 600000 0.0099 3.3606 0.2790 0.0000 -7349.3561 1006.4097 0.0000 0.0000 1139.8787 -5199.4182 283.8263 -6339.2969 -5143.8765 293.5543 355.9935 381.0298 20489.7981 -288.4720 -246.6831
ENERGY: 900000 0.0134 7.4712 0.4096 0.0000 -7183.6163 918.9066 0.0000 0.0000 1206.4845 -5050.3310 300.4110 -6256.8155 -5136.6085 293.9536 -396.9859 -307.9446 20661.6473 -300.6804 -259.3722
ENERGY: 1200000 0.0496 3.0083 0.0253 0.0000 -7444.9549 1028.3674 0.0000 0.0000 1202.2860 -5211.2183 299.3656 -6413.5043 -5142.8530 295.1200 -22.3084 28.1660 20830.0629 -171.6995 -132.1001
ENERGY: 1500000 0.6915 5.1174 0.1455 0.0000 -7293.9030 944.8978 0.0000 0.0000 1231.0768 -5111.9739 306.5344 -6343.0508 -5142.5902 296.3620 -667.9714 -589.7014 20918.6591 -206.7601 -162.8424
TCL: Running FEP window  10: Lambda1 0.44999999999999996 Lambda2 0.49999999999999994 [dLambda 0.04999999999999999]
TCL: Setting parameter firsttimestep to 0
TCL: Setting parameter alchLambda to 0.44999999999999996
Info: NONBONDED TABLE R-SQUARED SPACING: 0.0625
Info: NONBONDED TABLE SIZE: 705 POINTS
TCL: Setting parameter alchLambda2 to 0.49999999999999994
Info: NONBONDED TABLE R-SQUARED SPACING: 0.0625
Info: NONBONDED TABLE SIZE: 705 POINTS
TCL: Running for 1500000 steps
ETITLE: TS BOND ANGLE DIHED IMPRP ELECT VDW BOUNDARY MISC KINETIC TOTAL TEMP POTENTIAL TOTALAVG TEMPAVG PRESSURE GPRESSURE VOLUME PRESSAVG GPRESSAVG
ENERGY: 0 0.6915 5.1174 0.1455 0.0000 -7293.9003 945.1000 0.0000 0.0000 1230.4631 -5112.3828 306.3816 -6342.8459 -5112.3828 306.3816 -668.3314 -585.1025 20918.6591 -668.3314 -585.1025
ENERGY: 300000 0.1666 2.5208 0.0715 0.0000 -7461.0524 1032.6463 0.0000 0.0000 1235.2024 -5190.4448 307.5617 -6425.6472 -5164.7500 305.0496 65.4252 173.8447 20663.2990 -290.5733 -216.8268
ENERGY: 600000 0.3533 3.4931 0.1818 0.0000 -7244.2191 963.1920 0.0000 0.0000 1179.3355 -5097.6633 293.6510 -6276.9988 -5133.9563 302.9819 -222.9198 -237.5967 21052.1442 -235.9772 -174.2435
ENERGY: 900000 0.2695 3.3902 0.1405 0.0000 -7403.2002 1084.9875 0.0000 0.0000 1173.8237 -5140.5887 292.2785 -6314.4124 -5130.6836 301.9728 904.7858 962.6704 21002.0179 -78.6449 -13.4808
ENERGY: 1200000 0.0092 2.8635 0.0437 0.0000 -7319.3988 956.2819 0.0000 0.0000 1207.4632 -5152.7372 300.6547 -6360.2004 -5138.0187 301.4004 -576.3202 -516.1168 20988.3442 -116.1802 -55.9442
ENERGY: 1500000 0.3921 2.5508 0.3768 0.0000 -7408.5379 1021.8291 0.0000 0.0000 1154.2479 -5229.1412 287.4042 -6383.3891 -5142.2854 300.0932 -70.8029 -72.5144 20673.8998 -93.9112 -47.3617
TCL: Running FEP window  11: Lambda1 0.49999999999999994 Lambda2 0.5499999999999999 [dLambda 0.04999999999999999]
TCL: Setting parameter firsttimestep to 0
TCL: Setting parameter alchLambda to 0.49999999999999994
Info: NONBONDED TABLE R-SQUARED SPACING: 0.0625
Info: NONBONDED TABLE SIZE: 705 POINTS
TCL: Setting parameter alchLambda2 to 0.5499999999999999
Info: NONBONDED TABLE R-SQUARED SPACING: 0.0625
Info: NONBONDED TABLE SIZE: 705 POINTS
TCL: Running for 1500000 steps
ETITLE: TS BOND ANGLE DIHED IMPRP ELECT VDW BOUNDARY MISC KINETIC TOTAL TEMP POTENTIAL TOTALAVG TEMPAVG PRESSURE GPRESSURE VOLUME PRESSAVG GPRESSAVG
ENERGY: 0 0.3921 2.5508 0.3768 0.0000 -7408.5381 1021.8816 0.0000 0.0000 1153.6555 -5229.6812 287.2567 -6383.3367 -5229.6812 287.2567 -153.5728 -70.3046 20673.8998 -153.5728 -70.3046
ENERGY: 300000 0.5080 1.9676 0.0438 0.0000 -7335.5510 1004.6178 0.0000 0.0000 1191.0720 -5137.3419 296.5733 -6328.4139 -5169.9547 294.4445 179.8741 294.5747 20760.1962 -33.9137 46.3816
ENERGY: 600000 1.0726 1.9005 0.0318 0.0000 -7163.7356 894.7330 0.0000 0.0000 1183.4332 -5082.5645 294.6713 -6265.9976 -5162.9168 295.1235 -972.8546 -919.1514 21176.0267 -201.1250 -124.2067
ENERGY: 900000 0.3870 2.1714 0.7203 0.0000 -7215.1378 924.1474 0.0000 0.0000 1209.6997 -5078.0121 301.2116 -6287.7118 -5151.8463 295.3578 -847.4013 -800.7649 21366.5754 -292.9366 -220.6923
ENERGY: 1200000 0.3726 2.1607 1.0424 0.0000 -7344.6959 972.7469 0.0000 0.0000 1211.5194 -5156.8538 301.6647 -6368.3733 -5152.7005 295.7120 -310.3612 -217.7048 20657.5763 -251.5907 -180.8362
ENERGY: 1500000 0.0630 1.4308 0.0394 0.0000 -7230.5440 911.0342 0.0000 0.0000 1207.0347 -5110.9419 300.5480 -6317.9766 -5145.5805 295.8214 -665.7183 -644.7783 20800.8596 -220.5684 -151.5795
TCL: Running FEP window  12: Lambda1 0.5499999999999999 Lambda2 0.6    [dLambda 0.050000000000000044]
TCL: Setting parameter firsttimestep to 0
TCL: Setting parameter alchLambda to 0.5499999999999999
Info: NONBONDED TABLE R-SQUARED SPACING: 0.0625
Info: NONBONDED TABLE SIZE: 705 POINTS
TCL: Setting parameter alchLambda2 to 0.6
Info: NONBONDED TABLE R-SQUARED SPACING: 0.0625
Info: NONBONDED TABLE SIZE: 705 POINTS
TCL: Running for 1500000 steps
ETITLE: TS BOND ANGLE DIHED IMPRP ELECT VDW BOUNDARY MISC KINETIC TOTAL TEMP POTENTIAL TOTALAVG TEMPAVG PRESSURE GPRESSURE VOLUME PRESSAVG GPRESSAVG
ENERGY: 0 0.0630 1.4308 0.0394 0.0000 -7231.0376 911.2458 0.0000 0.0000 1206.4459 -5111.8126 300.4014 -6318.2586 -5111.8126 300.4014 -721.7033 -641.1853 20800.8596 -721.7033 -641.1853
ENERGY: 300000 0.0678 2.5184 0.0530 0.0000 -7266.7095 934.6240 0.0000 0.0000 1215.0170 -5114.4294 302.5355 -6329.4463 -5146.4441 299.0494 -332.0546 -282.2196 20577.3324 -88.4067 -58.4239
ENERGY: 600000 0.1556 2.6519 0.5230 0.0000 -7288.3691 945.3821 0.0000 0.0000 1157.7349 -5181.9215 288.2725 -6339.6565 -5134.8377 298.5430 -504.1436 -481.4781 20771.6705 -7.7122 34.8901
ENERGY: 900000 0.0578 0.9796 0.0687 0.0000 -7301.3693 1003.9353 0.0000 0.0000 1179.3171 -5117.0109 293.6464 -6296.3280 -5136.7080 298.1020 303.1765 319.0359 21098.7462 -53.9025 -8.5209
ENERGY: 1200000 0.1472 2.2094 0.1919 0.0000 -7490.7185 1069.8843 0.0000 0.0000 1152.9461 -5265.3395 287.0801 -6418.2856 -5138.8719 296.2889 725.5193 898.8864 20284.1968 -39.5469 17.4399
ENERGY: 1500000 0.2460 2.4425 0.0662 0.0000 -7360.9497 1025.3376 0.0000 0.0000 1182.1246 -5150.7328 294.3454 -6332.8574 -5140.4272 296.1734 544.6166 564.2178 20397.2739 -43.4379 12.2849
TCL: Running FEP window  13: Lambda1 0.6    Lambda2 0.65   [dLambda 0.050000000000000044]
TCL: Setting parameter firsttimestep to 0
TCL: Setting parameter alchLambda to 0.6
Info: NONBONDED TABLE R-SQUARED SPACING: 0.0625
Info: NONBONDED TABLE SIZE: 705 POINTS
TCL: Setting parameter alchLambda2 to 0.65
Info: NONBONDED TABLE R-SQUARED SPACING: 0.0625
Info: NONBONDED TABLE SIZE: 705 POINTS
TCL: Running for 1500000 steps
ETITLE: TS BOND ANGLE DIHED IMPRP ELECT VDW BOUNDARY MISC KINETIC TOTAL TEMP POTENTIAL TOTALAVG TEMPAVG PRESSURE GPRESSURE VOLUME PRESSAVG GPRESSAVG
ENERGY: 0 0.2460 2.4425 0.0662 0.0000 -7361.2043 1025.4240 0.0000 0.0000 1181.5312 -5151.4945 294.1977 -6333.0257 -5151.4945 294.1977 498.7701 568.0907 20397.2739 498.7701 568.0907
ENERGY: 300000 0.2641 2.4136 0.1507 0.0000 -7266.4090 926.2564 0.0000 0.0000 1175.1682 -5162.1560 292.6133 -6337.3242 -5143.2118 299.7422 -797.5245 -700.0548 20734.5184 17.9115 81.3134
ENERGY: 600000 0.2450 3.3825 0.1966 0.0000 -7331.0877 979.4407 0.0000 0.0000 1202.7312 -5145.0917 299.4764 -6347.8229 -5137.8892 298.3866 -213.7181 -83.9440 20670.4128 -152.9373 -83.9605
ENERGY: 900000 0.2636 1.6501 0.0470 0.0000 -7261.1328 932.4380 0.0000 0.0000 1231.2172 -5095.5167 306.5694 -6326.7340 -5127.6414 299.5176 -686.9894 -639.6350 20819.6722 -193.0142 -133.1894
ENERGY: 1200000 0.0600 1.5760 0.0220 0.0000 -7386.1441 986.5690 0.0000 0.0000 1213.1850 -5184.7321 302.0794 -6397.9171 -5138.0801 298.9747 -393.1605 -361.3199 20792.4494 -233.4528 -168.6717
ENERGY: 1500000 0.3972 1.8725 0.1052 0.0000 -7377.9402 998.0266 0.0000 0.0000 1203.0136 -5174.5251 299.5467 -6377.5387 -5144.1472 298.0324 -259.2817 -188.8037 20881.8028 -155.0509 -90.8091
TCL: Running FEP window  14: Lambda1 0.65   Lambda2 0.7000000000000001 [dLambda 0.050000000000000044]
TCL: Setting parameter firsttimestep to 0
TCL: Setting parameter alchLambda to 0.65
Info: NONBONDED TABLE R-SQUARED SPACING: 0.0625
Info: NONBONDED TABLE SIZE: 705 POINTS
TCL: Setting parameter alchLambda2 to 0.7000000000000001
Info: NONBONDED TABLE R-SQUARED SPACING: 0.0625
Info: NONBONDED TABLE SIZE: 705 POINTS
TCL: Running for 1500000 steps
ETITLE: TS BOND ANGLE DIHED IMPRP ELECT VDW BOUNDARY MISC KINETIC TOTAL TEMP POTENTIAL TOTALAVG TEMPAVG PRESSURE GPRESSURE VOLUME PRESSAVG GPRESSAVG
ENERGY: 0 0.3972 1.8725 0.1052 0.0000 -7378.2251 998.1288 0.0000 0.0000 1202.4249 -5175.2964 299.4002 -6377.7213 -5175.2964 299.4002 -276.1692 -181.8822 20881.8028 -276.1692 -181.8822
ENERGY: 300000 0.1783 1.8917 0.1895 0.0000 -7352.3971 1047.6795 0.0000 0.0000 1227.4165 -5075.0417 305.6230 -6302.4581 -5143.7915 300.6457 780.6921 902.6435 20672.7011 38.9886 126.3709
ENERGY: 600000 0.1225 2.3698 0.1957 0.0000 -7335.1271 995.2556 0.0000 0.0000 1145.7984 -5191.3850 285.3004 -6337.1834 -5160.5490 296.5231 301.0799 278.4506 20554.8651 195.3724 244.5595
ENERGY: 900000 0.3180 2.6122 0.2033 0.0000 -7192.9938 914.3100 0.0000 0.0000 1200.8200 -5074.7303 299.0005 -6275.5503 -5143.7722 296.9605 -477.8979 -432.4898 20785.0968 27.2742 73.3803
ENERGY: 1200000 0.1361 2.5039 0.1595 0.0000 -7293.0065 993.2142 0.0000 0.0000 1192.9015 -5104.0914 297.0289 -6296.9929 -5136.8888 298.2054 188.5118 254.3085 20913.7398 76.4225 126.6587
ENERGY: 1500000 1.5254 1.4856 0.0130 0.0000 -7231.5983 924.8517 0.0000 0.0000 1228.6522 -5075.0704 305.9307 -6303.7226 -5131.1726 299.2907 -525.3883 -492.1547 20712.8814 -14.6422 42.7060
TCL: Running FEP window  15: Lambda1 0.7000000000000001 Lambda2 0.7500000000000001 [dLambda 0.050000000000000044]
TCL: Setting parameter firsttimestep to 0
TCL: Setting parameter alchLambda to 0.7000000000000001
Info: NONBONDED TABLE R-SQUARED SPACING: 0.0625
Info: NONBONDED TABLE SIZE: 705 POINTS
TCL: Setting parameter alchLambda2 to 0.7500000000000001
Info: NONBONDED TABLE R-SQUARED SPACING: 0.0625
Info: NONBONDED TABLE SIZE: 705 POINTS
TCL: Running for 1500000 steps
ETITLE: TS BOND ANGLE DIHED IMPRP ELECT VDW BOUNDARY MISC KINETIC TOTAL TEMP POTENTIAL TOTALAVG TEMPAVG PRESSURE GPRESSURE VOLUME PRESSAVG GPRESSAVG
ENERGY: 0 1.5254 1.4856 0.0130 0.0000 -7232.4915 925.5008 0.0000 0.0000 1228.0398 -5075.9268 305.7782 -6303.9667 -5075.9268 305.7782 -553.0816 -478.4327 20712.8814 -553.0816 -478.4327
ENERGY: 300000 0.1670 1.2240 0.1313 0.0000 -7478.5227 1019.3543 0.0000 0.0000 1219.3532 -5238.2929 303.6153 -6457.6462 -5155.1008 301.9658 354.2112 362.6841 20292.9282 -220.7889 -176.1978
ENERGY: 600000 0.0502 2.4031 0.6314 0.0000 -7191.3024 922.9740 0.0000 0.0000 1201.6895 -5063.5542 299.2171 -6265.2437 -5124.1689 302.0564 -678.4092 -574.1269 21111.2007 -219.1169 -176.2913
ENERGY: 900000 0.0219 0.6809 0.1215 0.0000 -7294.6307 989.4060 0.0000 0.0000 1178.5580 -5125.8423 293.4574 -6304.4003 -5133.1907 300.2881 -245.1452 -131.0654 21076.8327 -109.3560 -66.3971
ENERGY: 1200000 0.7558 1.3136 0.0582 0.0000 -7466.6225 1113.2049 0.0000 0.0000 1182.2839 -5169.0061 294.3851 -6351.2900 -5135.1211 301.9250 1324.9256 1349.1532 20602.5077 78.1183 129.7544
ENERGY: 1500000 0.0625 5.1715 0.5759 0.0000 -7313.6307 965.0899 0.0000 0.0000 1205.5497 -5137.1812 300.1782 -6342.7309 -5138.9424 300.1622 -413.7334 -344.8276 20819.9956 1.7928 52.6508
TCL: Running FEP window  16: Lambda1 0.7500000000000001 Lambda2 0.8000000000000002 [dLambda 0.050000000000000044]
TCL: Setting parameter firsttimestep to 0
TCL: Setting parameter alchLambda to 0.7500000000000001
Info: NONBONDED TABLE R-SQUARED SPACING: 0.0625
Info: NONBONDED TABLE SIZE: 705 POINTS
TCL: Setting parameter alchLambda2 to 0.8000000000000002
Info: NONBONDED TABLE R-SQUARED SPACING: 0.0625
Info: NONBONDED TABLE SIZE: 705 POINTS
TCL: Running for 1500000 steps
ETITLE: TS BOND ANGLE DIHED IMPRP ELECT VDW BOUNDARY MISC KINETIC TOTAL TEMP POTENTIAL TOTALAVG TEMPAVG PRESSURE GPRESSURE VOLUME PRESSAVG GPRESSAVG
ENERGY: 0 0.0625 5.1715 0.5759 0.0000 -7315.4726 966.3878 0.0000 0.0000 1204.9197 -5138.3552 300.0214 -6343.2749 -5138.3552 300.0214 -435.9087 -333.6433 20819.9956 -435.9087 -333.6433
ENERGY: 300000 1.5600 0.4170 0.2651 0.0000 -7224.3716 897.4224 0.0000 0.0000 1211.3581 -5113.3489 301.6245 -6324.7070 -5134.1205 303.2498 -1043.7881 -879.1785 20788.2804 -486.6813 -399.4455
ENERGY: 600000 0.0169 2.1094 0.1773 0.0000 -7268.9189 956.9220 0.0000 0.0000 1205.0458 -5104.6475 300.0528 -6309.6933 -5155.2607 300.7707 -557.2613 -503.5867 21247.4058 -414.5891 -337.3913
ENERGY: 900000 0.0612 2.3926 0.6389 0.0000 -7245.1225 932.9974 0.0000 0.0000 1130.7594 -5178.2730 281.5557 -6309.0325 -5152.5619 298.8265 -767.9687 -745.8869 20898.5227 -344.9033 -278.8037
ENERGY: 1200000 0.6614 0.9753 2.9255 0.0000 -7395.8196 1017.1400 0.0000 0.0000 1197.2502 -5176.8671 298.1117 -6374.1173 -5148.6288 298.5293 358.8305 395.8393 20496.8011 -266.9798 -200.7456
ENERGY: 1500000 0.0443 4.0932 0.2302 0.0000 -7306.5482 942.6646 0.0000 0.0000 1255.3207 -5104.1952 312.5711 -6359.5159 -5140.0874 300.0167 -360.1616 -289.0462 20436.7736 -302.2373 -233.9703
TCL: Running FEP window  17: Lambda1 0.8000000000000002 Lambda2 0.8500000000000002 [dLambda 0.050000000000000044]
TCL: Setting parameter firsttimestep to 0
TCL: Setting parameter alchLambda to 0.8000000000000002
Info: NONBONDED TABLE R-SQUARED SPACING: 0.0625
Info: NONBONDED TABLE SIZE: 705 POINTS
TCL: Setting parameter alchLambda2 to 0.8500000000000002
Info: NONBONDED TABLE R-SQUARED SPACING: 0.0625
Info: NONBONDED TABLE SIZE: 705 POINTS
TCL: Running for 1500000 steps
ETITLE: TS BOND ANGLE DIHED IMPRP ELECT VDW BOUNDARY MISC KINETIC TOTAL TEMP POTENTIAL TOTALAVG TEMPAVG PRESSURE GPRESSURE VOLUME PRESSAVG GPRESSAVG
ENERGY: 0 0.0443 4.0932 0.2302 0.0000 -7308.4694 943.7340 0.0000 0.0000 1254.7609 -5105.6070 312.4317 -6360.3678 -5105.6070 312.4317 -353.0706 -275.0334 20436.7736 -353.0706 -275.0334
ENERGY: 300000 0.4020 1.9588 0.2538 0.0000 -7354.2860 979.7728 0.0000 0.0000 1156.2029 -5215.6957 287.8910 -6371.8986 -5164.2764 297.4854 -340.3533 -267.6066 20756.0940 -593.0301 -483.4921
ENERGY: 600000 0.0078 2.3038 0.2864 0.0000 -7317.3539 977.9093 0.0000 0.0000 1200.1630 -5136.6836 298.8370 -6336.8466 -5144.3466 298.9415 -25.6216 -23.6684 20628.6313 -482.6731 -387.7666
ENERGY: 900000 0.8316 2.4696 0.2773 0.0000 -7227.0346 966.7883 0.0000 0.0000 1246.9068 -5009.7611 310.4760 -6256.6679 -5128.8878 300.6672 -244.5784 -193.5396 21286.7311 -342.0368 -247.0538
ENERGY: 1200000 0.0016 1.7315 0.8539 0.0000 -7300.0453 956.0475 0.0000 0.0000 1184.2829 -5157.1279 294.8829 -6341.4108 -5127.9583 300.2662 -375.9699 -344.5054 20839.7279 -332.5527 -241.6234
ENERGY: 1500000 0.0074 3.6875 0.7618 0.0000 -7450.9715 1018.3113 0.0000 0.0000 1209.2556 -5218.9480 301.1010 -6428.2036 -5139.2312 299.4845 -174.1355 -66.0309 21011.3418 -288.5635 -201.4609
TCL: Running FEP window  18: Lambda1 0.8500000000000002 Lambda2 0.9000000000000002 [dLambda 0.050000000000000044]
TCL: Setting parameter firsttimestep to 0
TCL: Setting parameter alchLambda to 0.8500000000000002
Info: NONBONDED TABLE R-SQUARED SPACING: 0.0625
Info: NONBONDED TABLE SIZE: 705 POINTS
TCL: Setting parameter alchLambda2 to 0.9000000000000002
Info: NONBONDED TABLE R-SQUARED SPACING: 0.0625
Info: NONBONDED TABLE SIZE: 705 POINTS
TCL: Running for 1500000 steps
ETITLE: TS BOND ANGLE DIHED IMPRP ELECT VDW BOUNDARY MISC KINETIC TOTAL TEMP POTENTIAL TOTALAVG TEMPAVG PRESSURE GPRESSURE VOLUME PRESSAVG GPRESSAVG
ENERGY: 0 0.0074 3.6875 0.7618 0.0000 -7451.7487 1018.4836 0.0000 0.0000 1208.6714 -5220.1371 300.9555 -6428.8085 -5220.1371 300.9555 -138.9829 -59.0562 21011.3418 -138.9829 -59.0562
ENERGY: 300000 0.2027 2.0176 0.2580 0.0000 -7210.1612 902.6269 0.0000 0.0000 1217.1980 -5087.8580 303.0786 -6305.0560 -5127.5910 301.1842 -595.7569 -540.8632 20739.8518 -424.3359 -365.1501
ENERGY: 600000 1.4185 3.2517 0.1839 0.0000 -7472.5803 1113.7331 0.0000 0.0000 1204.8636 -5149.1294 300.0074 -6353.9931 -5133.0779 299.9709 1247.0352 1391.5819 20770.3303 74.0495 131.9988
ENERGY: 900000 0.0668 4.1585 0.1708 0.0000 -7401.3335 1047.3709 0.0000 0.0000 1231.5370 -5118.0295 306.6490 -6349.5665 -5139.4876 300.2712 546.3110 702.7619 20816.3984 25.8363 97.2454
ENERGY: 1200000 0.4373 1.1723 0.3552 0.0000 -7305.4981 988.8505 0.0000 0.0000 1172.7501 -5141.9328 292.0112 -6314.6828 -5141.0519 299.8563 223.1979 212.9833 20687.2661 -66.2028 -0.8231
ENERGY: 1500000 0.2854 1.6530 0.5307 0.0000 -7256.5382 953.8421 0.0000 0.0000 1228.3446 -5071.8825 305.8541 -6300.2271 -5132.6713 301.3711 -222.0169 -133.2311 20698.3393 -35.0493 32.9264
TCL: Running FEP window  19: Lambda1 0.9000000000000002 Lambda2 0.9500000000000003 [dLambda 0.050000000000000044]
TCL: Setting parameter firsttimestep to 0
TCL: Setting parameter alchLambda to 0.9000000000000002
Info: NONBONDED TABLE R-SQUARED SPACING: 0.0625
Info: NONBONDED TABLE SIZE: 705 POINTS
TCL: Setting parameter alchLambda2 to 0.9500000000000003
Info: NONBONDED TABLE R-SQUARED SPACING: 0.0625
Info: NONBONDED TABLE SIZE: 705 POINTS
TCL: Running for 1500000 steps
ETITLE: TS BOND ANGLE DIHED IMPRP ELECT VDW BOUNDARY MISC KINETIC TOTAL TEMP POTENTIAL TOTALAVG TEMPAVG PRESSURE GPRESSURE VOLUME PRESSAVG GPRESSAVG
ENERGY: 0 0.2854 1.6530 0.5307 0.0000 -7258.3521 955.0191 0.0000 0.0000 1227.7632 -5073.1007 305.7093 -6300.8640 -5073.1007 305.7093 -203.8910 -116.6605 20698.3393 -203.8910 -116.6605
ENERGY: 300000 0.2224 9.1039 0.3799 0.0000 -7254.3810 935.4926 0.0000 0.0000 1225.7451 -5083.4371 305.2068 -6309.1822 -5100.4791 303.0962 -141.6010 -60.7205 20606.9537 -275.1989 -224.3532
ENERGY: 600000 0.1241 2.5208 0.2231 0.0000 -7328.0047 966.6384 0.0000 0.0000 1221.2024 -5137.2959 304.0757 -6358.4983 -5120.6758 302.4242 -289.9206 -269.2925 20892.0221 -378.0291 -318.9117
ENERGY: 900000 0.7923 2.2196 0.1759 0.0000 -7314.2671 989.4264 0.0000 0.0000 1222.7835 -5098.8695 304.4694 -6321.6531 -5114.2921 301.8052 157.1905 208.8924 20786.2106 -107.5569 -51.4112
ENERGY: 1200000 1.3031 2.6969 0.2906 0.0000 -7405.7115 1047.0789 0.0000 0.0000 1190.7900 -5163.5520 296.5031 -6354.3420 -5125.7053 300.5087 712.1136 707.9059 20753.6783 -49.4091 6.4175
ENERGY: 1500000 0.6007 2.4672 0.1404 0.0000 -7397.2811 993.5487 0.0000 0.0000 1170.2328 -5230.2913 291.3844 -6400.5241 -5138.3816 300.0226 -210.2389 -164.5401 20770.8542 -8.4349 51.8528
TCL: Running FEP window  20: Lambda1 0.9500000000000003 Lambda2 1.0    [dLambda 0.04999999999999971]
TCL: Setting parameter firsttimestep to 0
TCL: Setting parameter alchLambda to 0.9500000000000003
Info: NONBONDED TABLE R-SQUARED SPACING: 0.0625
Info: NONBONDED TABLE SIZE: 705 POINTS
TCL: Setting parameter alchLambda2 to 1.0
Info: NONBONDED TABLE R-SQUARED SPACING: 0.0625
Info: NONBONDED TABLE SIZE: 705 POINTS
TCL: Running for 1500000 steps
ETITLE: TS BOND ANGLE DIHED IMPRP ELECT VDW BOUNDARY MISC KINETIC TOTAL TEMP POTENTIAL TOTALAVG TEMPAVG PRESSURE GPRESSURE VOLUME PRESSAVG GPRESSAVG
ENERGY: 0 0.6007 2.4672 0.1404 0.0000 -7398.5435 993.9769 0.0000 0.0000 1169.6247 -5231.7335 291.2330 -6401.3583 -5231.7335 291.2330 -239.7169 -155.1707 20770.8542 -239.7169 -155.1707
ENERGY: 300000 1.4460 2.7044 1.1829 0.0000 -7329.5377 956.3572 0.0000 0.0000 1205.5453 -5162.3018 300.1771 -6367.8471 -5157.3390 299.0739 -678.4588 -726.1716 20925.8613 296.2164 342.6033
ENERGY: 600000 0.0007 1.7675 0.0564 0.0000 -7241.6835 891.3611 0.0000 0.0000 1250.7727 -5097.7251 311.4386 -6348.4978 -5127.7555 300.3476 -1058.7930 -1013.0284 20903.2350 -61.0201 12.9420
ENERGY: 900000 0.0052 1.8066 0.0307 0.0000 -7318.3143 974.5977 0.0000 0.0000 1169.2776 -5172.5965 291.1466 -6341.8741 -5143.6537 299.5437 -158.6476 -40.6098 20708.9576 -67.2542 4.3582
ENERGY: 1200000 0.0916 2.2130 0.1977 0.0000 -7439.8581 1055.5171 0.0000 0.0000 1181.6730 -5200.1656 294.2330 -6381.8386 -5150.9712 297.7564 592.3481 617.1761 20663.8990 -33.5938 34.2125
ENERGY: 1500000 0.1054 2.4106 0.3721 0.0000 -7436.4594 1016.8255 0.0000 0.0000 1198.1239 -5218.6219 298.3292 -6416.7457 -5158.9089 297.7509 250.9852 343.6483 20461.0990 -5.8489 67.2404
TCL: Exiting due to exit command.
