Info: SIMULATION PARAMETERS:
Info: TIMESTEP               2
Info: NUMBER OF STEPS        0
Info: STEPS PER CYCLE        10
Info: PERIODIC CELL BASIS 1  27.7364 0 0
Info: PERIODIC CELL BASIS 2  0 27.6419 0
Info: PERIODIC CELL BASIS 3  0 0 27.4232
Info: PERIODIC CELL CENTER   0 0 0
Info: WRAPPING WATERS AROUND PERIODIC BOUNDARIES ON OUTPUT.
Info: WRAPPING ALL CLUSTERS AROUND PERIODIC BOUNDARIES ON OUTPUT.
Info: FIRST LDB TIMESTEP     50
Info: LAST LDB TIMESTEP     -1
Info: HOM BACKGROUND SCALING 1
Info: PME BACKGROUND SCALING 1
Info: MIN ATOMS PER PATCH    40
Info: EMPTY PATCH LOAD       40 ATOMS
Info: VELOCITY FILE          mobley_4434915_equil.vel
Info: CENTER OF MASS MOVING INITIALLY? NO
Info: DIELECTRIC             1
Info: EXCLUDE                SCALED ONE-FOUR
Info: 1-4 ELECTROSTATICS SCALED BY 0.833333
Info: MODIFIED 1-4 VDW PARAMETERS WILL BE USED
Info: DCD FILENAME           mobley_4434915_prod.dcd
Info: DCD FREQUENCY          100000
Info: DCD FIRST STEP         100000
Info: DCD FILE WILL CONTAIN UNIT CELL DATA
Info: XST FILENAME           mobley_4434915_prod.xst
Info: XST FREQUENCY          100000
Info: NO VELOCITY DCD OUTPUT
Info: NO FORCE DCD OUTPUT
Info: OUTPUT FILENAME        mobley_4434915_prod
Info: BINARY OUTPUT FILES WILL BE USED
Info: NO RESTART FILE
Info: CUTOFF                 9
Info: PAIRLIST DISTANCE      11
Info: PAIRLIST SHRINK RATE   0.01
Info: PAIRLIST GROW RATE     0.01
Info: PAIRLIST TRIGGER       0.3
Info: PAIRLISTS PER CYCLE    2
Info: PAIRLISTS ENABLED
Info: MARGIN                 2
Info: HYDROGEN GROUP CUTOFF  2.5
Info: PATCH DIMENSION        15.5
Info: ENERGY OUTPUT STEPS    100000
Info: ENERGY EVALUATION STEPS    100000
Info: OUTPUT ENERGY PRECISION 4
Info: CROSSTERM ENERGY INCLUDED IN DIHEDRAL
Info: TIMING OUTPUT STEPS    1000000
Info: PRESSURE OUTPUT STEPS  100000
Info: ALCHEMICAL FEP ON
Info: FEP CURRENT LAMBDA VALUE     0
Info: FEP COMPARISON LAMBDA VALUE  0.05
Info: FEP INTRA-ALCHEMICAL NON-BONDED INTERACTIONS WILL BE RETAINED
Info: FEP INTRA-ALCHEMICAL BONDED INTERACTIONS WILL BE RETAINED
Info: FEP VDW SHIFTING COEFFICIENT 5
Info: FEP ELEC. ACTIVE FOR ANNIHILATED PARTICLES BETWEEN LAMBDA = 0 AND LAMBDA = 0.5
Info: FEP ELEC. ACTIVE FOR EXNIHILATED PARTICLES BETWEEN LAMBDA = 0.5 AND LAMBDA = 1
Info: FEP VDW ACTIVE FOR ANNIHILATED PARTICLES BETWEEN LAMBDA = 0 AND LAMBDA = 1
Info: FEP VDW ACTIVE FOR EXNIHILATED PARTICLES BETWEEN LAMBDA = 0 AND LAMBDA = 1
Info: FEP BOND ACTIVE FOR ANNIHILATED PARTICLES BETWEEN LAMBDA = 1 AND LAMBDA = 1
Info: FEP BOND ACTIVE FOR EXNIHILATED PARTICLES BETWEEN LAMBDA = 0 AND LAMBDA = 0
Info: LANGEVIN DYNAMICS ACTIVE
Info: LANGEVIN TEMPERATURE   300
Info: LANGEVIN USING BBK INTEGRATOR
Info: LANGEVIN DAMPING COEFFICIENT IS 1 INVERSE PS
Info: LANGEVIN DYNAMICS APPLIED TO HYDROGENS
Info: LANGEVIN PISTON PRESSURE CONTROL ACTIVE
Info:        TARGET PRESSURE IS 1.01325 BAR
Info:     OSCILLATION PERIOD IS 50 FS
Info:             DECAY TIME IS 25 FS
Info:     PISTON TEMPERATURE IS 300 K
Info:       PRESSURE CONTROL IS GROUP-BASED
Info:    INITIAL STRAIN RATE IS 0.000243897 0.000243897 0.000243897
Info:       CELL FLUCTUATION IS ISOTROPIC
Info: PARTICLE MESH EWALD (PME) ACTIVE
Info: PME TOLERANCE               1e-06
Info: PME EWALD COEFFICIENT       0.348832
Info: PME INTERPOLATION ORDER     4
Info: PME GRID DIMENSIONS         28 28 28
Info: PME MAXIMUM GRID SPACING    1
Info: PME CALCULATION WILL BE PERFORMED ON GPU
Info: FULL ELECTROSTATIC EVALUATION FREQUENCY      2
Info: USING VERLET I (r-RESPA) MTS SCHEME.
Info: C1 SPLITTING OF LONG RANGE ELECTROSTATICS
Info: PLACING ATOMS IN PATCHES BY HYDROGEN GROUPS
Info: RIGID BONDS TO HYDROGEN : ALL
Info:         ERROR TOLERANCE : 1e-08
Info:          MAX ITERATIONS : 100
Info: RIGID WATER USING SETTLE ALGORITHM
Info: RANDOM NUMBER SEED     1741647972
Info: USE HYDROGEN BONDS?    NO
Info: Using AMBER format force field!
Info: AMBER PARM FILE        mobley_4434915.prmtop
Info: COORDINATE PDB         mobley_4434915.pdb
Info: Exclusions will be read from PARM file!
Info: SCNB (VDW SCALING)     2
Info: USING ARITHMETIC MEAN TO COMBINE L-J SIGMA PARAMETERS
Info: BINARY COORDINATES     mobley_4434915_equil.coor
Info: SUMMARY OF PARAMETERS:
Info: 4 BONDS
Info: 2 ANGLES
Info:   2 HARMONIC
Info:   0 COSINE-BASED
Info: 0 DIHEDRAL
Info: 0 IMPROPER
Info: 0 CROSSTERM
Info: 0 VDW
Info: 15 VDW_PAIRS
Info: 0 NBTHOLE_PAIRS
Info: To read alchdata from file: mobley_4434915.pdb
Info: To read alchflag data from column: 5
Info: STRUCTURE SUMMARY:
Info: 2027 ATOMS
Info: 2026 BONDS
Info: 6 ANGLES
Info: 0 DIHEDRALS
Info: 0 IMPROPERS
Info: 0 CROSSTERMS
Info: 2032 EXCLUSIONS
Info: 2025 RIGID BONDS
Info: ALCH: 0 ATOMS TO DISAPPEAR IN FINAL STATE
Info: ALCH: 5 ATOMS TO APPEAR IN FINAL STATE
Info: 4056 DEGREES OF FREEDOM
Info: 676 HYDROGEN GROUPS
Info: 4 ATOMS IN LARGEST HYDROGEN GROUP
Info: 676 MIGRATION GROUPS
Info: 4 ATOMS IN LARGEST MIGRATION GROUP
Info: TOTAL MASS = 12193.3 amu
Info: TOTAL CHARGE = -0.000100018 e
Info: MASS DENSITY = 0.963039 g/cm^3
Info: ATOM DENSITY = 0.0964091 atoms/A^3
Info: ADDED 0 IMPLICIT EXCLUSIONS
Info: NONBONDED TABLE R-SQUARED SPACING: 0.0625
Info: NONBONDED TABLE SIZE: 705 POINTS
Info: REMOVING COM VELOCITY -0.0547398 0.0883582 -0.111212
Info: Use 3D box decompostion in PME FFT.
Info: Updated CUDA force table with 4096 elements.
Info: Updated CUDA LJ table with 5 x 5 elements.
Info: Found 8 unique exclusion lists needing 8 bytes
TCL: Running for 1500000 steps
ETITLE: TS BOND ANGLE DIHED IMPRP ELECT VDW BOUNDARY MISC KINETIC TOTAL TEMP POTENTIAL TOTALAVG TEMPAVG PRESSURE GPRESSURE VOLUME PRESSAVG GPRESSAVG
ENERGY: 0 0.3714 1.7434 0.0000 0.0000 -7237.6820 884.9718 0.0000 0.0000 1231.3979 -5119.1976 305.5560 -6350.5955 -5119.1976 305.5560 -1284.4481 -1189.2975 21024.9806 -1284.4481 -1189.2975
ENERGY: 300000 0.0967 2.4176 0.0000 0.0000 -7488.9522 1061.5575 0.0000 0.0000 1210.6055 -5214.2749 300.3967 -6424.8804 -5166.3464 304.6054 496.3964 503.2626 20763.5580 -571.2968 -505.6270
ENERGY: 600000 0.8328 1.5195 0.0000 0.0000 -7253.0782 938.6352 0.0000 0.0000 1224.4654 -5087.6254 303.8358 -6312.0908 -5152.5981 300.1085 -462.9506 -470.3141 21183.6419 -544.4622 -487.1175
ENERGY: 900000 1.2134 0.5332 0.0000 0.0000 -7308.8447 931.8332 0.0000 0.0000 1204.8185 -5170.4465 298.9607 -6375.2649 -5151.0744 300.1417 -934.1969 -832.6442 21014.7947 -504.5662 -456.4965
ENERGY: 1200000 0.0036 1.8452 0.0000 0.0000 -7334.5562 989.5768 0.0000 0.0000 1212.9224 -5130.2082 300.9716 -6343.1306 -5151.4685 299.7769 -103.1710 12.6196 20836.6433 -411.5195 -349.1806
ENERGY: 1500000 0.1147 2.7122 0.0000 0.0000 -7289.7451 974.9523 0.0000 0.0000 1211.5143 -5100.4517 300.6222 -6311.9660 -5150.8778 299.5161 -67.2410 -40.1319 21094.3548 -316.2683 -251.9477
TCL: Running FEP window   2: Lambda1 0.05   Lambda2 0.1    [dLambda 0.05  ]
TCL: Setting parameter firsttimestep to 0
TCL: Setting parameter alchLambda to 0.05
Info: NONBONDED TABLE R-SQUARED SPACING: 0.0625
Info: NONBONDED TABLE SIZE: 705 POINTS
TCL: Setting parameter alchLambda2 to 0.1
Info: NONBONDED TABLE R-SQUARED SPACING: 0.0625
Info: NONBONDED TABLE SIZE: 705 POINTS
TCL: Running for 1500000 steps
ETITLE: TS BOND ANGLE DIHED IMPRP ELECT VDW BOUNDARY MISC KINETIC TOTAL TEMP POTENTIAL TOTALAVG TEMPAVG PRESSURE GPRESSURE VOLUME PRESSAVG GPRESSAVG
ENERGY: 0 0.1147 2.7122 0.0000 0.0000 -7289.7456 977.3836 0.0000 0.0000 1210.8864 -5098.6487 300.4664 -6309.5352 -5098.6487 300.4664 -128.6322 -34.6899 21094.3548 -128.6322 -34.6899
ENERGY: 300000 0.2019 0.9156 0.0000 0.0000 -7274.6661 978.5607 0.0000 0.0000 1194.3898 -5100.5981 296.3729 -6294.9879 -5120.2010 303.4009 498.1467 463.9253 20653.1480 242.5444 284.9330
ENERGY: 600000 0.8452 0.5790 0.0000 0.0000 -7410.1107 1030.0073 0.0000 0.0000 1174.2144 -5204.4649 291.3666 -6378.6792 -5144.4096 299.2398 847.6582 841.9193 20198.3774 115.4600 161.0990
ENERGY: 900000 0.0138 2.0126 0.0000 0.0000 -7173.7056 869.6984 0.0000 0.0000 1189.5637 -5112.4171 295.1754 -6301.9808 -5128.7956 299.2984 -1246.4644 -1181.9923 21133.7782 53.9934 116.9775
ENERGY: 1200000 0.9338 4.8678 0.0000 0.0000 -7506.8848 1075.4858 0.0000 0.0000 1168.4887 -5257.1087 289.9459 -6425.5973 -5141.0735 298.8943 661.5178 752.6178 20739.9056 135.2785 199.2982
ENERGY: 1500000 1.4411 2.4542 0.0000 0.0000 -7314.1647 958.3400 0.0000 0.0000 1198.2896 -5153.6398 297.3406 -6351.9295 -5142.3750 298.6268 -202.9785 -89.8961 20475.9140 58.9254 123.1423
TCL: Running FEP window   3: Lambda1 0.1    Lambda2 0.15000000000000002 [dLambda 0.05000000000000002]
TCL: Setting parameter firsttimestep to 0
TCL: Setting parameter alchLambda to 0.1
Info: NONBONDED TABLE R-SQUARED SPACING: 0.0625
Info: NONBONDED TABLE SIZE: 705 POINTS
TCL: Setting parameter alchLambda2 to 0.15000000000000002
Info: NONBONDED TABLE R-SQUARED SPACING: 0.0625
Info: NONBONDED TABLE SIZE: 705 POINTS
TCL: Running for 1500000 steps
ETITLE: TS BOND ANGLE DIHED IMPRP ELECT VDW BOUNDARY MISC KINETIC TOTAL TEMP POTENTIAL TOTALAVG TEMPAVG PRESSURE GPRESSURE VOLUME PRESSAVG GPRESSAVG
ENERGY: 0 1.4411 2.4542 0.0000 0.0000 -7314.1638 959.4119 0.0000 0.0000 1197.6933 -5153.1634 297.1926 -6350.8567 -5153.1634 297.1926 -174.3484 -83.2524 20475.9140 -174.3484 -83.2524
ENERGY: 300000 0.0644 1.6555 0.0000 0.0000 -7319.4766 992.3161 0.0000 0.0000 1231.8592 -5093.5813 305.6705 -6325.4405 -5095.8367 303.2887 551.6602 626.5434 20312.8163 36.1499 101.5640
ENERGY: 600000 0.0640 0.4370 0.0000 0.0000 -7345.6297 968.1151 0.0000 0.0000 1179.1657 -5197.8480 292.5952 -6377.0137 -5134.1984 299.6903 -450.8701 -373.7577 21105.7575 -134.2975 -63.8232
ENERGY: 900000 0.0001 1.9110 0.0000 0.0000 -7358.0058 977.8962 0.0000 0.0000 1202.3193 -5175.8792 298.3405 -6378.1985 -5148.5875 298.9479 -203.2788 -69.8325 20772.1006 -137.2355 -70.9942
ENERGY: 1200000 0.3682 0.9950 0.0000 0.0000 -7290.3961 919.5035 0.0000 0.0000 1168.4113 -5201.1181 289.9267 -6369.5294 -5153.8450 298.0400 -678.3094 -665.4252 20756.7892 -180.0184 -114.4200
ENERGY: 1500000 0.7070 1.8281 0.0000 0.0000 -7321.9021 981.2662 0.0000 0.0000 1172.6025 -5165.4983 290.9667 -6338.1007 -5155.5439 297.2981 -26.0820 10.3663 20735.4252 -126.9955 -65.2662
TCL: Running FEP window   4: Lambda1 0.15000000000000002 Lambda2 0.2    [dLambda 0.04999999999999999]
TCL: Setting parameter firsttimestep to 0
TCL: Setting parameter alchLambda to 0.15000000000000002
Info: NONBONDED TABLE R-SQUARED SPACING: 0.0625
Info: NONBONDED TABLE SIZE: 705 POINTS
TCL: Setting parameter alchLambda2 to 0.2
Info: NONBONDED TABLE R-SQUARED SPACING: 0.0625
Info: NONBONDED TABLE SIZE: 705 POINTS
TCL: Running for 1500000 steps
ETITLE: TS BOND ANGLE DIHED IMPRP ELECT VDW BOUNDARY MISC KINETIC TOTAL TEMP POTENTIAL TOTALAVG TEMPAVG PRESSURE GPRESSURE VOLUME PRESSAVG GPRESSAVG
ENERGY: 0 0.7070 1.8281 0.0000 0.0000 -7321.9020 981.8543 0.0000 0.0000 1171.9978 -5165.5148 290.8166 -6337.5126 -5165.5148 290.8166 -87.6052 13.8741 20735.4252 -87.6052 13.8741
ENERGY: 300000 0.0107 1.8469 0.0000 0.0000 -7424.2094 1006.8987 0.0000 0.0000 1179.9487 -5235.5044 292.7895 -6415.4531 -5178.6674 296.2562 113.2813 222.6038 20625.8434 -11.0533 79.9023
ENERGY: 600000 0.4157 2.8169 0.0000 0.0000 -7220.3548 891.8077 0.0000 0.0000 1228.8999 -5096.4146 304.9362 -6325.3145 -5168.4112 300.0217 -1094.2733 -983.5784 21195.3123 32.2149 101.9145
ENERGY: 900000 0.0049 2.0093 0.0000 0.0000 -7280.3832 951.9460 0.0000 0.0000 1221.6513 -5104.7716 303.1375 -6326.4229 -5161.5954 299.2096 -277.8053 -244.4144 21073.9958 106.3481 181.7993
ENERGY: 1200000 0.0707 2.0311 0.0000 0.0000 -7398.1006 1022.4943 0.0000 0.0000 1233.6423 -5139.8622 306.1129 -6373.5045 -5153.0403 300.7888 580.9463 578.9848 20673.4731 70.8806 140.8441
ENERGY: 1500000 0.0213 2.8310 0.0000 0.0000 -7480.6147 1037.7016 0.0000 0.0000 1202.5998 -5237.4611 298.4101 -6440.0609 -5163.9872 299.8719 93.8264 108.3743 20951.2654 73.1403 140.4168
TCL: Running FEP window   5: Lambda1 0.2    Lambda2 0.25   [dLambda 0.04999999999999999]
TCL: Setting parameter firsttimestep to 0
TCL: Setting parameter alchLambda to 0.2
Info: NONBONDED TABLE R-SQUARED SPACING: 0.0625
Info: NONBONDED TABLE SIZE: 705 POINTS
TCL: Setting parameter alchLambda2 to 0.25
Info: NONBONDED TABLE R-SQUARED SPACING: 0.0625
Info: NONBONDED TABLE SIZE: 705 POINTS
TCL: Running for 1500000 steps
ETITLE: TS BOND ANGLE DIHED IMPRP ELECT VDW BOUNDARY MISC KINETIC TOTAL TEMP POTENTIAL TOTALAVG TEMPAVG PRESSURE GPRESSURE VOLUME PRESSAVG GPRESSAVG
ENERGY: 0 0.0213 2.8310 0.0000 0.0000 -7480.6135 1038.2080 0.0000 0.0000 1201.9827 -5237.5705 298.2570 -6439.5532 -5237.5705 298.2570 39.8849 111.4494 20951.2654 39.8849 111.4494
ENERGY: 300000 0.7552 1.2912 0.0000 0.0000 -7316.1670 942.4806 0.0000 0.0000 1210.3152 -5161.3248 300.3246 -6371.6400 -5195.0181 298.1199 -334.1473 -225.8017 20662.4413 -518.0573 -413.3575
ENERGY: 600000 0.0059 1.5226 0.0000 0.0000 -7327.2937 1023.6164 0.0000 0.0000 1223.6022 -5078.5466 303.6216 -6302.1488 -5159.3187 297.3401 805.5691 888.5856 20478.5857 -117.7131 -31.2062
ENERGY: 900000 0.4528 0.6451 0.0000 0.0000 -7349.5447 964.3386 0.0000 0.0000 1225.9624 -5158.1457 304.2073 -6384.1081 -5161.8728 297.6772 -499.2390 -412.0145 20851.4885 4.8042 81.8380
ENERGY: 1200000 0.0084 1.6179 0.0000 0.0000 -7306.0674 951.9071 0.0000 0.0000 1199.4331 -5153.1009 297.6244 -6352.5340 -5164.7605 296.4882 -391.3290 -327.1672 20922.9800 -87.1734 -16.7895
ENERGY: 1500000 0.5076 1.9289 0.0000 0.0000 -7439.7760 1046.6726 0.0000 0.0000 1220.1174 -5170.5495 302.7569 -6390.6669 -5171.6913 297.1277 895.4184 949.4068 20189.0219 7.7658 75.2195
TCL: Running FEP window   6: Lambda1 0.25   Lambda2 0.3    [dLambda 0.04999999999999999]
TCL: Setting parameter firsttimestep to 0
TCL: Setting parameter alchLambda to 0.25
Info: NONBONDED TABLE R-SQUARED SPACING: 0.0625
Info: NONBONDED TABLE SIZE: 705 POINTS
TCL: Setting parameter alchLambda2 to 0.3
Info: NONBONDED TABLE R-SQUARED SPACING: 0.0625
Info: NONBONDED TABLE SIZE: 705 POINTS
TCL: Running for 1500000 steps
ETITLE: TS BOND ANGLE DIHED IMPRP ELECT VDW BOUNDARY MISC KINETIC TOTAL TEMP POTENTIAL TOTALAVG TEMPAVG PRESSURE GPRESSURE VOLUME PRESSAVG GPRESSAVG
ENERGY: 0 0.5076 1.9289 0.0000 0.0000 -7439.7769 1046.4653 0.0000 0.0000 1219.5320 -5171.3431 302.6116 -6390.8750 -5171.3431 302.6116 861.8466 950.1799 20189.0219 861.8466 950.1799
ENERGY: 300000 0.4231 5.5509 0.0000 0.0000 -7439.3684 980.3122 0.0000 0.0000 1207.7411 -5245.3411 299.6859 -6453.0822 -5155.6635 302.3987 -550.9005 -478.9666 20772.8614 -29.4674 25.1458
ENERGY: 600000 0.0754 0.9702 0.0000 0.0000 -7423.4571 1049.7321 0.0000 0.0000 1207.8191 -5164.8603 299.7052 -6372.6794 -5167.6287 299.2905 904.4643 847.3680 20599.8071 299.4038 333.8915
ENERGY: 900000 0.0021 1.3974 0.0000 0.0000 -7398.7359 948.4872 0.0000 0.0000 1192.2037 -5256.6455 295.8305 -6448.8492 -5182.8175 297.8208 -765.7452 -682.8445 20680.9646 82.0310 132.1906
ENERGY: 1200000 0.1735 1.4924 0.0000 0.0000 -7280.9752 983.2090 0.0000 0.0000 1194.1673 -5101.9329 296.3177 -6296.1003 -5179.0328 298.2398 -191.3075 -143.2605 21288.5387 45.1247 97.2757
ENERGY: 1500000 0.0010 2.2895 0.0000 0.0000 -7316.0271 952.0644 0.0000 0.0000 1223.9876 -5137.6846 303.7172 -6361.6722 -5180.1470 298.1041 -499.8874 -396.1382 20818.3580 45.9884 104.7737
TCL: Running FEP window   7: Lambda1 0.3    Lambda2 0.35   [dLambda 0.04999999999999999]
TCL: Setting parameter firsttimestep to 0
TCL: Setting parameter alchLambda to 0.3
Info: NONBONDED TABLE R-SQUARED SPACING: 0.0625
Info: NONBONDED TABLE SIZE: 705 POINTS
TCL: Setting parameter alchLambda2 to 0.35
Info: NONBONDED TABLE R-SQUARED SPACING: 0.0625
Info: NONBONDED TABLE SIZE: 705 POINTS
TCL: Running for 1500000 steps
ETITLE: TS BOND ANGLE DIHED IMPRP ELECT VDW BOUNDARY MISC KINETIC TOTAL TEMP POTENTIAL TOTALAVG TEMPAVG PRESSURE GPRESSURE VOLUME PRESSAVG GPRESSAVG
ENERGY: 0 0.0010 2.2895 0.0000 0.0000 -7316.0269 953.0442 0.0000 0.0000 1223.4147 -5137.2774 303.5751 -6360.6922 -5137.2774 303.5751 -472.6526 -385.8907 20818.3580 -472.6526 -385.8907
ENERGY: 300000 0.3617 2.7518 0.0000 0.0000 -7384.8969 1017.0587 0.0000 0.0000 1258.3348 -5106.3898 312.2401 -6364.7246 -5107.2876 307.4444 362.5204 419.3541 20920.4729 -408.5249 -365.1291
ENERGY: 600000 0.0033 2.0494 0.0000 0.0000 -7410.3114 992.6088 0.0000 0.0000 1185.7262 -5229.9238 294.2231 -6415.6500 -5149.2746 304.3535 -208.0991 -140.7514 20782.3993 -216.3973 -168.5441
ENERGY: 900000 0.0258 2.3454 0.0000 0.0000 -7348.0885 951.9455 0.0000 0.0000 1255.8911 -5137.8806 311.6337 -6393.7717 -5150.7822 304.1438 -551.7589 -565.0040 20805.1536 -171.9882 -127.6331
ENERGY: 1200000 0.3481 2.3873 0.0000 0.0000 -7402.7685 996.5330 0.0000 0.0000 1240.6226 -5162.8776 307.8450 -6403.5002 -5155.9333 303.9279 273.4494 421.1055 20330.0902 -77.5591 -22.2061
ENERGY: 1500000 0.2333 2.9700 0.0000 0.0000 -7336.3231 972.8592 0.0000 0.0000 1177.4932 -5182.7674 292.1803 -6360.2606 -5152.8774 303.4054 -322.1593 -245.4883 21001.5125 -130.9796 -75.3704
TCL: Running FEP window   8: Lambda1 0.35   Lambda2 0.39999999999999997 [dLambda 0.04999999999999999]
TCL: Setting parameter firsttimestep to 0
TCL: Setting parameter alchLambda to 0.35
Info: NONBONDED TABLE R-SQUARED SPACING: 0.0625
Info: NONBONDED TABLE SIZE: 705 POINTS
TCL: Setting parameter alchLambda2 to 0.39999999999999997
Info: NONBONDED TABLE R-SQUARED SPACING: 0.0625
Info: NONBONDED TABLE SIZE: 705 POINTS
TCL: Running for 1500000 steps
ETITLE: TS BOND ANGLE DIHED IMPRP ELECT VDW BOUNDARY MISC KINETIC TOTAL TEMP POTENTIAL TOTALAVG TEMPAVG PRESSURE GPRESSURE VOLUME PRESSAVG GPRESSAVG
ENERGY: 0 0.2333 2.9700 0.0000 0.0000 -7336.3224 973.1625 0.0000 0.0000 1176.8898 -5183.0669 292.0305 -6359.9567 -5183.0669 292.0305 -316.1361 -240.3709 21001.5125 -316.1361 -240.3709
ENERGY: 300000 0.1897 0.6944 0.0000 0.0000 -7279.7426 951.7783 0.0000 0.0000 1236.4984 -5090.5818 306.8216 -6327.0802 -5154.0517 299.6953 -663.0397 -642.2316 21268.5500 -386.8146 -331.0337
ENERGY: 600000 0.5688 2.4295 0.0000 0.0000 -7206.0666 924.0093 0.0000 0.0000 1220.0862 -5058.9728 302.7492 -6279.0590 -5134.1276 300.6634 -481.2290 -454.8750 21119.1470 -510.5531 -462.0378
ENERGY: 900000 1.4199 1.5771 0.0000 0.0000 -7354.8032 997.0160 0.0000 0.0000 1233.0472 -5121.7429 305.9653 -6354.7902 -5147.4755 299.7083 -199.3568 -109.2238 21094.2908 -395.8606 -338.2178
ENERGY: 1200000 0.7123 1.4763 0.0000 0.0000 -7241.6905 956.4274 0.0000 0.0000 1197.2217 -5085.8528 297.0756 -6283.0745 -5144.9835 298.1915 -227.4999 -207.5546 21204.2188 -317.9788 -251.0314
ENERGY: 1500000 0.5969 2.2630 0.0000 0.0000 -7413.8370 994.2011 0.0000 0.0000 1194.6213 -5222.1548 296.4304 -6416.7760 -5156.1618 297.3777 -21.3845 75.9413 20469.1216 -234.4423 -164.6616
TCL: Running FEP window   9: Lambda1 0.39999999999999997 Lambda2 0.44999999999999996 [dLambda 0.04999999999999999]
TCL: Setting parameter firsttimestep to 0
TCL: Setting parameter alchLambda to 0.39999999999999997
Info: NONBONDED TABLE R-SQUARED SPACING: 0.0625
Info: NONBONDED TABLE SIZE: 705 POINTS
TCL: Setting parameter alchLambda2 to 0.44999999999999996
Info: NONBONDED TABLE R-SQUARED SPACING: 0.0625
Info: NONBONDED TABLE SIZE: 705 POINTS
TCL: Running for 1500000 steps
ETITLE: TS BOND ANGLE DIHED IMPRP ELECT VDW BOUNDARY MISC KINETIC TOTAL TEMP POTENTIAL TOTALAVG TEMPAVG PRESSURE GPRESSURE VOLUME PRESSAVG GPRESSAVG
ENERGY: 0 0.5969 2.2630 0.0000 0.0000 -7413.8377 994.5615 0.0000 0.0000 1194.0012 -5222.4152 296.2765 -6416.4164 -5222.4152 296.2765 -1.8117 83.5940 20469.1216 -1.8117 83.5940
ENERGY: 300000 0.1924 3.0521 0.0000 0.0000 -7317.2514 949.4309 0.0000 0.0000 1219.6195 -5144.9565 302.6333 -6364.5760 -5196.2992 297.6229 -289.8664 -256.3678 20757.7669 -202.4773 -126.7885
ENERGY: 600000 0.0790 1.0000 0.0000 0.0000 -7246.4244 965.2364 0.0000 0.0000 1155.1665 -5124.9425 286.6402 -6280.1090 -5166.2915 297.7089 39.8470 144.8470 20731.1655 -86.7483 -8.8651
ENERGY: 900000 0.1857 2.0702 0.0000 0.0000 -7315.7786 972.5433 0.0000 0.0000 1209.0252 -5131.9543 300.0045 -6340.9794 -5156.3755 298.3724 -44.5164 -30.4369 20831.8970 -207.5236 -148.7331
ENERGY: 1200000 0.0091 2.7079 0.0000 0.0000 -7383.6324 974.0599 0.0000 0.0000 1214.6713 -5192.1843 301.4055 -6406.8555 -5158.1542 299.3079 -350.0431 -283.0970 20861.3042 -338.8923 -273.6845
ENERGY: 1500000 0.0098 0.2987 0.0000 0.0000 -7314.3378 987.0894 0.0000 0.0000 1225.3589 -5101.5810 304.0575 -6326.9399 -5150.6920 299.2242 -143.5445 -69.3336 21235.9962 -256.5889 -188.9132
TCL: Running FEP window  10: Lambda1 0.44999999999999996 Lambda2 0.49999999999999994 [dLambda 0.04999999999999999]
TCL: Setting parameter firsttimestep to 0
TCL: Setting parameter alchLambda to 0.44999999999999996
Info: NONBONDED TABLE R-SQUARED SPACING: 0.0625
Info: NONBONDED TABLE SIZE: 705 POINTS
TCL: Setting parameter alchLambda2 to 0.49999999999999994
Info: NONBONDED TABLE R-SQUARED SPACING: 0.0625
Info: NONBONDED TABLE SIZE: 705 POINTS
TCL: Running for 1500000 steps
ETITLE: TS BOND ANGLE DIHED IMPRP ELECT VDW BOUNDARY MISC KINETIC TOTAL TEMP POTENTIAL TOTALAVG TEMPAVG PRESSURE GPRESSURE VOLUME PRESSAVG GPRESSAVG
ENERGY: 0 0.0098 0.2987 0.0000 0.0000 -7314.3370 987.4580 0.0000 0.0000 1224.7395 -5101.8310 303.9038 -6326.5705 -5101.8310 303.9038 -152.6224 -63.4002 21235.9962 -152.6224 -63.4002
ENERGY: 300000 1.4872 1.0101 0.0000 0.0000 -7418.1810 1022.3896 0.0000 0.0000 1220.0506 -5173.2435 302.7403 -6393.2941 -5150.7383 303.7018 121.4879 268.3159 20811.8876 224.6573 313.5020
ENERGY: 600000 0.1236 1.1080 0.0000 0.0000 -7337.5690 946.4980 0.0000 0.0000 1192.6846 -5197.1548 295.9498 -6389.8394 -5162.3212 303.1197 -754.5279 -727.5667 21197.5040 -59.2811 11.7338
ENERGY: 900000 0.6446 1.7111 0.0000 0.0000 -7399.1940 987.7199 0.0000 0.0000 1233.5195 -5175.5989 306.0825 -6409.1183 -5158.0299 303.1957 -385.4280 -356.0388 21039.6345 -133.4680 -62.9136
ENERGY: 1200000 0.0385 0.8232 0.0000 0.0000 -7410.5252 1021.7100 0.0000 0.0000 1144.8066 -5243.1468 284.0695 -6387.9534 -5164.7411 300.5378 249.3512 263.1864 20872.4509 -28.3926 30.5832
ENERGY: 1500000 0.2802 2.1293 0.0000 0.0000 -7287.5674 933.4874 0.0000 0.0000 1219.2835 -5132.3870 302.5500 -6351.6705 -5155.9058 300.8416 -622.6139 -585.2346 20992.8936 -56.9307 1.2754
TCL: Running FEP window  11: Lambda1 0.49999999999999994 Lambda2 0.5499999999999999 [dLambda 0.04999999999999999]
TCL: Setting parameter firsttimestep to 0
TCL: Setting parameter alchLambda to 0.49999999999999994
Info: NONBONDED TABLE R-SQUARED SPACING: 0.0625
Info: NONBONDED TABLE SIZE: 705 POINTS
TCL: Setting parameter alchLambda2 to 0.5499999999999999
Info: NONBONDED TABLE R-SQUARED SPACING: 0.0625
Info: NONBONDED TABLE SIZE: 705 POINTS
TCL: Running for 1500000 steps
ETITLE: TS BOND ANGLE DIHED IMPRP ELECT VDW BOUNDARY MISC KINETIC TOTAL TEMP POTENTIAL TOTALAVG TEMPAVG PRESSURE GPRESSURE VOLUME PRESSAVG GPRESSAVG
ENERGY: 0 0.2802 2.1293 0.0000 0.0000 -7287.5696 933.7070 0.0000 0.0000 1218.6930 -5132.7601 302.4035 -6351.4531 -5132.7601 302.4035 -650.2515 -575.7474 20992.8936 -650.2515 -575.7474
ENERGY: 300000 0.3687 1.7131 0.0000 0.0000 -7257.2168 952.9556 0.0000 0.0000 1193.7246 -5108.4547 296.2079 -6302.1793 -5124.4077 301.8817 -249.2686 -217.8038 20828.2525 -266.9495 -207.1040
ENERGY: 600000 0.1377 1.1870 0.0000 0.0000 -7432.9292 1048.2325 0.0000 0.0000 1199.2001 -5184.1718 297.5665 -6383.3719 -5150.1236 299.5960 522.1296 594.6332 20976.4052 -35.6866 27.1183
ENERGY: 900000 0.0864 1.5215 0.0000 0.0000 -7404.0742 922.5002 0.0000 0.0000 1225.1559 -5254.8101 304.0071 -6479.9660 -5158.7039 300.2363 -792.7065 -746.8459 20286.7980 -150.7926 -87.7512
ENERGY: 1200000 0.1722 1.0585 0.0000 0.0000 -7127.2829 836.0900 0.0000 0.0000 1258.6854 -5031.2768 312.3271 -6289.9622 -5146.9457 301.4676 -1955.2241 -1829.8689 21797.4267 -268.5812 -204.3721
ENERGY: 1500000 0.1446 1.0046 0.0000 0.0000 -7381.7722 1004.0473 0.0000 0.0000 1259.0671 -5117.5087 312.4218 -6376.5758 -5147.6167 302.5454 65.0123 158.6544 20841.0481 -225.7492 -162.8592
TCL: Running FEP window  12: Lambda1 0.5499999999999999 Lambda2 0.6    [dLambda 0.050000000000000044]
TCL: Setting parameter firsttimestep to 0
TCL: Setting parameter alchLambda to 0.5499999999999999
Info: NONBONDED TABLE R-SQUARED SPACING: 0.0625
Info: NONBONDED TABLE SIZE: 705 POINTS
TCL: Setting parameter alchLambda2 to 0.6
Info: NONBONDED TABLE R-SQUARED SPACING: 0.0625
Info: NONBONDED TABLE SIZE: 705 POINTS
TCL: Running for 1500000 steps
ETITLE: TS BOND ANGLE DIHED IMPRP ELECT VDW BOUNDARY MISC KINETIC TOTAL TEMP POTENTIAL TOTALAVG TEMPAVG PRESSURE GPRESSURE VOLUME PRESSAVG GPRESSAVG
ENERGY: 0 0.1446 1.0046 0.0000 0.0000 -7381.7413 1004.7173 0.0000 0.0000 1258.4581 -5117.4166 312.2707 -6375.8748 -5117.4166 312.2707 88.7862 173.4821 20841.0481 88.7862 173.4821
ENERGY: 300000 0.0461 1.2532 0.0000 0.0000 -7311.6180 988.7987 0.0000 0.0000 1260.1308 -5061.3892 312.6857 -6321.5199 -5114.5178 308.8364 422.5076 427.8114 20881.2656 111.5845 153.6933
ENERGY: 600000 1.9020 1.2695 0.0000 0.0000 -7459.9047 1075.9685 0.0000 0.0000 1172.3325 -5208.4322 290.8997 -6380.7647 -5147.1614 302.8938 836.8453 823.6808 21017.2660 174.4738 212.0022
ENERGY: 900000 0.6303 1.4642 0.0000 0.0000 -7395.1280 1006.4074 0.0000 0.0000 1207.2930 -5179.3330 299.5747 -6386.6260 -5142.6588 302.4375 230.6049 248.9007 20695.7098 117.2250 165.4539
ENERGY: 1200000 0.0945 2.7649 0.0000 0.0000 -7289.1548 948.0270 0.0000 0.0000 1220.8260 -5117.4424 302.9327 -6338.2684 -5146.8893 301.2509 -209.7032 -162.1401 20868.2125 -64.2909 -13.5181
ENERGY: 1500000 1.5967 2.6769 0.0000 0.0000 -7384.4099 922.0532 0.0000 0.0000 1229.3763 -5228.7067 305.0544 -6458.0830 -5150.1792 301.1959 -1090.9723 -1012.2784 20615.9505 -76.8089 -19.7301
TCL: Running FEP window  13: Lambda1 0.6    Lambda2 0.65   [dLambda 0.050000000000000044]
TCL: Setting parameter firsttimestep to 0
TCL: Setting parameter alchLambda to 0.6
Info: NONBONDED TABLE R-SQUARED SPACING: 0.0625
Info: NONBONDED TABLE SIZE: 705 POINTS
TCL: Setting parameter alchLambda2 to 0.65
Info: NONBONDED TABLE R-SQUARED SPACING: 0.0625
Info: NONBONDED TABLE SIZE: 705 POINTS
TCL: Running for 1500000 steps
ETITLE: TS BOND ANGLE DIHED IMPRP ELECT VDW BOUNDARY MISC KINETIC TOTAL TEMP POTENTIAL TOTALAVG TEMPAVG PRESSURE GPRESSURE VOLUME PRESSAVG GPRESSAVG
ENERGY: 0 1.5968 2.6769 0.0000 0.0000 -7384.5111 921.9090 0.0000 0.0000 1228.7669 -5229.5615 304.9032 -6458.3284 -5229.5615 304.9032 -1089.1783 -1011.0342 20615.9505 -1089.1783 -1011.0342
ENERGY: 300000 0.0284 2.2368 0.0000 0.0000 -7385.6445 1003.7445 0.0000 0.0000 1226.1709 -5153.4639 304.2590 -6379.6348 -5207.2443 298.1341 95.7652 212.7971 20773.5653 -118.3910 -25.2149
ENERGY: 600000 0.1018 0.8539 0.0000 0.0000 -7337.1942 998.9397 0.0000 0.0000 1195.6983 -5141.6006 296.6976 -6337.2988 -5180.4862 296.8505 149.6244 288.9509 20765.4950 -252.6741 -171.0620
ENERGY: 900000 0.2638 1.2872 0.0000 0.0000 -7441.3001 1021.5110 0.0000 0.0000 1174.3048 -5243.9332 291.3891 -6418.2380 -5178.3879 297.9222 179.8055 221.8349 20716.9640 -90.2599 -14.8680
ENERGY: 1200000 0.1141 0.8995 0.0000 0.0000 -7293.0140 969.4456 0.0000 0.0000 1228.5096 -5094.0452 304.8393 -6322.5548 -5164.9944 299.4864 70.8805 227.8704 20708.2505 -153.8837 -81.1176
ENERGY: 1500000 0.6973 4.2809 0.0000 0.0000 -7286.7742 928.9201 0.0000 0.0000 1192.9995 -5159.8765 296.0279 -6352.8759 -5169.2317 298.4116 -847.6451 -761.8434 21145.3238 -171.8570 -93.3776
TCL: Running FEP window  14: Lambda1 0.65   Lambda2 0.7000000000000001 [dLambda 0.050000000000000044]
TCL: Setting parameter firsttimestep to 0
TCL: Setting parameter alchLambda to 0.65
Info: NONBONDED TABLE R-SQUARED SPACING: 0.0625
Info: NONBONDED TABLE SIZE: 705 POINTS
TCL: Setting parameter alchLambda2 to 0.7000000000000001
Info: NONBONDED TABLE R-SQUARED SPACING: 0.0625
Info: NONBONDED TABLE SIZE: 705 POINTS
TCL: Running for 1500000 steps
ETITLE: TS BOND ANGLE DIHED IMPRP ELECT VDW BOUNDARY MISC KINETIC TOTAL TEMP POTENTIAL TOTALAVG TEMPAVG PRESSURE GPRESSURE VOLUME PRESSAVG GPRESSAVG
ENERGY: 0 0.6973 4.2809 0.0000 0.0000 -7286.5676 929.0091 0.0000 0.0000 1192.3885 -5160.1918 295.8763 -6352.5803 -5160.1918 295.8763 -830.7163 -754.4840 21145.3238 -830.7163 -754.4840
ENERGY: 300000 0.8845 2.3520 0.0000 0.0000 -7322.4006 995.0721 0.0000 0.0000 1248.7584 -5075.3336 309.8638 -6324.0920 -5118.6631 304.2943 352.1550 492.6250 20739.4559 281.5396 368.8793
ENERGY: 600000 0.6032 0.5574 0.0000 0.0000 -7382.7826 998.7754 0.0000 0.0000 1218.6464 -5164.2003 302.3919 -6382.8467 -5127.3366 302.2873 -17.3668 30.0018 20972.2521 10.3802 87.7003
ENERGY: 900000 0.0396 0.4886 0.0000 0.0000 -7330.6267 939.1374 0.0000 0.0000 1179.4672 -5211.4939 292.6701 -6390.9611 -5155.7620 300.8020 -891.9372 -834.0982 21038.1166 -127.1320 -57.5460
ENERGY: 1200000 1.4497 3.6759 0.0000 0.0000 -7293.7978 931.8492 0.0000 0.0000 1207.9599 -5148.8631 299.7402 -6356.8230 -5157.4309 300.3423 -380.0631 -336.0959 20785.8287 -135.1394 -65.7129
ENERGY: 1500000 0.1534 0.8780 0.0000 0.0000 -7463.2395 1039.4224 0.0000 0.0000 1221.9357 -5200.8499 303.2081 -6422.7857 -5162.4368 300.1184 105.2812 294.1650 20898.8678 -169.6422 -98.5421
TCL: Running FEP window  15: Lambda1 0.7000000000000001 Lambda2 0.7500000000000001 [dLambda 0.050000000000000044]
TCL: Setting parameter firsttimestep to 0
TCL: Setting parameter alchLambda to 0.7000000000000001
Info: NONBONDED TABLE R-SQUARED SPACING: 0.0625
Info: NONBONDED TABLE SIZE: 705 POINTS
TCL: Setting parameter alchLambda2 to 0.7500000000000001
Info: NONBONDED TABLE R-SQUARED SPACING: 0.0625
Info: NONBONDED TABLE SIZE: 705 POINTS
TCL: Running for 1500000 steps
ETITLE: TS BOND ANGLE DIHED IMPRP ELECT VDW BOUNDARY MISC KINETIC TOTAL TEMP POTENTIAL TOTALAVG TEMPAVG PRESSURE GPRESSURE VOLUME PRESSAVG GPRESSAVG
ENERGY: 0 0.1534 0.8780 0.0000 0.0000 -7463.1809 1039.6220 0.0000 0.0000 1221.3262 -5201.2013 303.0569 -6422.5276 -5201.2013 303.0569 215.6753 303.7515 20898.8678 215.6753 303.7515
ENERGY: 300000 0.0852 1.4310 0.0000 0.0000 -7411.1397 982.4054 0.0000 0.0000 1240.6743 -5186.5438 307.8578 -6427.2181 -5189.9553 299.6683 -58.2201 32.3200 20578.8683 -135.7605 -75.6009
ENERGY: 600000 0.5101 1.2386 0.0000 0.0000 -7321.6840 999.1896 0.0000 0.0000 1169.0603 -5151.6854 290.0877 -6320.7457 -5166.8748 300.0820 75.0004 180.3135 21052.6809 0.7146 75.6127
ENERGY: 900000 1.5090 1.4356 0.0000 0.0000 -7251.6969 915.9909 0.0000 0.0000 1254.9507 -5077.8106 311.4004 -6332.7614 -5151.1673 302.0855 -330.2177 -243.2244 20682.9257 33.0256 105.8225
ENERGY: 1200000 0.0234 1.3859 0.0000 0.0000 -7316.1915 938.5135 0.0000 0.0000 1234.2968 -5141.9720 306.2753 -6376.2688 -5158.5457 301.3149 -704.5904 -551.0569 20906.2841 5.2324 88.1284
ENERGY: 1500000 0.3273 2.6235 0.0000 0.0000 -7523.4573 1022.9477 0.0000 0.0000 1166.4072 -5331.1517 289.4294 -6497.5589 -5167.2153 300.1303 -197.1228 -287.2762 20830.5209 10.5697 83.4986
TCL: Running FEP window  16: Lambda1 0.7500000000000001 Lambda2 0.8000000000000002 [dLambda 0.050000000000000044]
TCL: Setting parameter firsttimestep to 0
TCL: Setting parameter alchLambda to 0.7500000000000001
Info: NONBONDED TABLE R-SQUARED SPACING: 0.0625
Info: NONBONDED TABLE SIZE: 705 POINTS
TCL: Setting parameter alchLambda2 to 0.8000000000000002
Info: NONBONDED TABLE R-SQUARED SPACING: 0.0625
Info: NONBONDED TABLE SIZE: 705 POINTS
TCL: Running for 1500000 steps
ETITLE: TS BOND ANGLE DIHED IMPRP ELECT VDW BOUNDARY MISC KINETIC TOTAL TEMP POTENTIAL TOTALAVG TEMPAVG PRESSURE GPRESSURE VOLUME PRESSAVG GPRESSAVG
ENERGY: 0 0.3273 2.6235 0.0000 0.0000 -7523.5609 1023.7639 0.0000 0.0000 1165.8294 -5331.0169 289.2860 -6496.8463 -5331.0169 289.2860 -340.8905 -267.0688 20830.5209 -340.8905 -267.0688
ENERGY: 300000 0.0598 2.3538 0.0000 0.0000 -7328.5518 1003.8487 0.0000 0.0000 1248.4189 -5073.8706 309.7796 -6322.2895 -5188.0286 296.8382 614.6751 643.3206 20728.1257 -92.5222 -33.4709
ENERGY: 600000 1.0702 2.7041 0.0000 0.0000 -7421.9948 1045.9259 0.0000 0.0000 1241.2084 -5131.0862 307.9904 -6372.2947 -5154.9474 300.3100 597.0266 634.5096 21007.6094 206.9357 259.0500
ENERGY: 900000 0.0472 2.5259 0.0000 0.0000 -7267.2276 950.3475 0.0000 0.0000 1211.9464 -5102.3605 300.7294 -6314.3069 -5141.0388 300.6911 -383.9257 -302.6555 21138.0191 129.5997 186.7124
ENERGY: 1200000 0.0591 1.0894 0.0000 0.0000 -7300.3463 927.2478 0.0000 0.0000 1223.3241 -5148.6258 303.5526 -6371.9499 -5141.0097 301.0383 -649.9462 -575.3562 20901.0206 -115.0925 -56.6519
ENERGY: 1500000 0.6780 2.1770 0.0000 0.0000 -7419.8135 1015.6520 0.0000 0.0000 1193.1545 -5208.1520 296.0664 -6401.3065 -5149.8714 300.4782 248.1917 229.8892 20730.5467 -139.4725 -81.8642
TCL: Running FEP window  17: Lambda1 0.8000000000000002 Lambda2 0.8500000000000002 [dLambda 0.050000000000000044]
TCL: Setting parameter firsttimestep to 0
TCL: Setting parameter alchLambda to 0.8000000000000002
Info: NONBONDED TABLE R-SQUARED SPACING: 0.0625
Info: NONBONDED TABLE SIZE: 705 POINTS
TCL: Setting parameter alchLambda2 to 0.8500000000000002
Info: NONBONDED TABLE R-SQUARED SPACING: 0.0625
Info: NONBONDED TABLE SIZE: 705 POINTS
TCL: Running for 1500000 steps
ETITLE: TS BOND ANGLE DIHED IMPRP ELECT VDW BOUNDARY MISC KINETIC TOTAL TEMP POTENTIAL TOTALAVG TEMPAVG PRESSURE GPRESSURE VOLUME PRESSAVG GPRESSAVG
ENERGY: 0 0.6780 2.1770 0.0000 0.0000 -7420.0813 1015.8940 0.0000 0.0000 1192.5972 -5208.7351 295.9281 -6401.3323 -5208.7351 295.9281 184.6819 242.6168 20730.5467 184.6819 242.6168
ENERGY: 300000 0.0525 2.5098 0.0000 0.0000 -7505.9304 1033.2812 0.0000 0.0000 1196.8393 -5273.2475 296.9807 -6470.0868 -5210.0454 293.6046 341.6287 382.0599 20455.6623 383.9775 453.7132
ENERGY: 600000 0.5530 0.8116 0.0000 0.0000 -7388.4860 1023.4446 0.0000 0.0000 1172.3487 -5191.3280 290.9037 -6363.6767 -5200.4647 293.6428 483.7069 580.1660 20626.9469 105.5466 164.1978
ENERGY: 900000 0.1272 2.3933 0.0000 0.0000 -7383.3744 1022.3625 0.0000 0.0000 1202.3441 -5156.1474 298.3467 -6358.4915 -5188.0760 295.3409 651.2393 752.8753 20454.7670 164.6031 222.4876
ENERGY: 1200000 0.0569 2.1681 0.0000 0.0000 -7423.0722 1028.4017 0.0000 0.0000 1220.9580 -5171.4875 302.9655 -6392.4455 -5183.8721 296.7045 607.5406 615.8076 20719.4905 285.3674 345.4817
ENERGY: 1500000 0.1296 2.5286 0.0000 0.0000 -7483.6495 1060.7903 0.0000 0.0000 1225.3925 -5194.8086 304.0659 -6420.2011 -5181.1610 297.3785 718.9421 729.6479 20724.0507 223.5271 281.8105
TCL: Running FEP window  18: Lambda1 0.8500000000000002 Lambda2 0.9000000000000002 [dLambda 0.050000000000000044]
TCL: Setting parameter firsttimestep to 0
TCL: Setting parameter alchLambda to 0.8500000000000002
Info: NONBONDED TABLE R-SQUARED SPACING: 0.0625
Info: NONBONDED TABLE SIZE: 705 POINTS
TCL: Setting parameter alchLambda2 to 0.9000000000000002
Info: NONBONDED TABLE R-SQUARED SPACING: 0.0625
Info: NONBONDED TABLE SIZE: 705 POINTS
TCL: Running for 1500000 steps
ETITLE: TS BOND ANGLE DIHED IMPRP ELECT VDW BOUNDARY MISC KINETIC TOTAL TEMP POTENTIAL TOTALAVG TEMPAVG PRESSURE GPRESSURE VOLUME PRESSAVG GPRESSAVG
ENERGY: 0 0.1296 2.5286 0.0000 0.0000 -7483.9739 1060.8103 0.0000 0.0000 1224.7789 -5195.7266 303.9136 -6420.5055 -5195.7266 303.9136 651.2658 738.3336 20724.0507 651.2658 738.3336
ENERGY: 300000 0.0495 2.0920 0.0000 0.0000 -7269.4983 884.0615 0.0000 0.0000 1223.4755 -5159.8198 303.5902 -6383.2953 -5176.3239 298.7735 -855.7771 -862.7743 20733.7713 -151.7951 -122.1500
ENERGY: 600000 0.0043 0.6849 0.0000 0.0000 -7287.6027 971.5395 0.0000 0.0000 1253.5905 -5061.7835 311.0628 -6315.3740 -5162.2644 300.8113 207.1989 194.2123 20878.3530 13.5770 39.3672
ENERGY: 900000 0.2755 1.4834 0.0000 0.0000 -7262.0375 918.1524 0.0000 0.0000 1208.8905 -5133.2357 299.9711 -6342.1262 -5150.3476 301.1351 -720.7871 -624.7353 21053.5563 -123.4103 -84.5661
ENERGY: 1200000 0.3221 3.2065 0.0000 0.0000 -7382.3749 1025.2305 0.0000 0.0000 1173.4646 -5180.1511 291.1806 -6353.6157 -5158.1508 300.1793 598.0365 688.9868 20555.5983 -52.2314 -4.0364
ENERGY: 1500000 0.1770 1.6669 0.0000 0.0000 -7269.6129 916.7553 0.0000 0.0000 1181.0795 -5169.9343 293.0701 -6351.0137 -5168.7751 299.9614 -883.2433 -844.5873 21134.9808 -125.3380 -73.3595
TCL: Running FEP window  19: Lambda1 0.9000000000000002 Lambda2 0.9500000000000003 [dLambda 0.050000000000000044]
TCL: Setting parameter firsttimestep to 0
TCL: Setting parameter alchLambda to 0.9000000000000002
Info: NONBONDED TABLE R-SQUARED SPACING: 0.0625
Info: NONBONDED TABLE SIZE: 705 POINTS
TCL: Setting parameter alchLambda2 to 0.9500000000000003
Info: NONBONDED TABLE R-SQUARED SPACING: 0.0625
Info: NONBONDED TABLE SIZE: 705 POINTS
TCL: Running for 1500000 steps
ETITLE: TS BOND ANGLE DIHED IMPRP ELECT VDW BOUNDARY MISC KINETIC TOTAL TEMP POTENTIAL TOTALAVG TEMPAVG PRESSURE GPRESSURE VOLUME PRESSAVG GPRESSAVG
ENERGY: 0 0.1770 1.6669 0.0000 0.0000 -7270.0149 916.9629 0.0000 0.0000 1180.4829 -5170.7251 292.9221 -6351.2081 -5170.7251 292.9221 -929.5865 -837.5139 21134.9808 -929.5865 -837.5139
ENERGY: 300000 1.1986 1.3585 0.0000 0.0000 -7304.0496 981.7782 0.0000 0.0000 1196.0410 -5123.6733 296.7827 -6319.7143 -5170.9988 297.4032 -119.3783 -16.6051 21032.2546 -202.8736 -124.2851
ENERGY: 600000 1.2138 2.3236 0.0000 0.0000 -7421.7144 1028.1524 0.0000 0.0000 1225.9188 -5164.1058 304.1964 -6390.0246 -5174.1065 300.3616 863.4182 926.5695 20362.3510 6.1542 60.3541
ENERGY: 900000 1.9454 1.3518 0.0000 0.0000 -7340.9481 981.3510 0.0000 0.0000 1176.0358 -5180.2641 291.8186 -6356.2999 -5171.8603 299.9856 -60.5224 46.9148 20795.7582 15.9600 66.8150
ENERGY: 1200000 0.0251 2.6526 0.0000 0.0000 -7484.5960 1038.2653 0.0000 0.0000 1177.4256 -5266.2273 292.1635 -6443.6530 -5186.1150 298.1422 -29.5818 -3.5580 21314.7781 -146.3919 -89.4685
ENERGY: 1500000 0.9850 3.9331 0.0000 0.0000 -7447.1402 1048.3942 0.0000 0.0000 1164.5352 -5229.2927 288.9649 -6393.8279 -5181.2838 298.3888 604.9756 654.0438 20654.5158 -159.9091 -100.5536
TCL: Running FEP window  20: Lambda1 0.9500000000000003 Lambda2 1.0    [dLambda 0.04999999999999971]
TCL: Setting parameter firsttimestep to 0
TCL: Setting parameter alchLambda to 0.9500000000000003
Info: NONBONDED TABLE R-SQUARED SPACING: 0.0625
Info: NONBONDED TABLE SIZE: 705 POINTS
TCL: Setting parameter alchLambda2 to 1.0
Info: NONBONDED TABLE R-SQUARED SPACING: 0.0625
Info: NONBONDED TABLE SIZE: 705 POINTS
TCL: Running for 1500000 steps
ETITLE: TS BOND ANGLE DIHED IMPRP ELECT VDW BOUNDARY MISC KINETIC TOTAL TEMP POTENTIAL TOTALAVG TEMPAVG PRESSURE GPRESSURE VOLUME PRESSAVG GPRESSAVG
ENERGY: 0 0.9850 3.9331 0.0000 0.0000 -7447.4128 1048.8924 0.0000 0.0000 1163.9346 -5229.6677 288.8158 -6393.6023 -5229.6677 288.8158 579.3180 670.2352 20654.5158 579.3180 670.2352
ENERGY: 300000 0.3422 1.4270 0.0000 0.0000 -7408.3556 1022.1455 0.0000 0.0000 1214.8064 -5169.6346 301.4390 -6384.4409 -5147.2164 299.0264 165.1562 184.0945 20872.0680 56.5683 128.7874
ENERGY: 600000 0.2969 1.4612 0.0000 0.0000 -7339.0748 987.8457 0.0000 0.0000 1177.3773 -5172.0937 292.1515 -6349.4710 -5161.2173 298.6566 96.0247 124.1720 20783.4194 -113.7898 -47.9457
ENERGY: 900000 0.1679 0.9068 0.0000 0.0000 -7451.6233 999.1959 0.0000 0.0000 1186.6098 -5264.7429 294.4424 -6451.3527 -5183.8127 298.4402 -178.4061 -123.1535 20835.2853 -123.8309 -51.5349
ENERGY: 1200000 0.0119 0.9938 0.0000 0.0000 -7223.9870 898.2279 0.0000 0.0000 1220.1048 -5104.6487 302.7538 -6324.7535 -5169.6739 299.3368 -1065.4662 -1010.5472 21300.2466 -205.7572 -136.7896
ENERGY: 1500000 0.5870 1.4366 0.0000 0.0000 -7292.5274 923.8447 0.0000 0.0000 1226.3135 -5140.3457 304.2944 -6366.6591 -5173.1031 299.3146 -594.4567 -559.5813 20796.8045 -187.7982 -122.2774
TCL: Exiting due to exit command.
