Info: SIMULATION PARAMETERS:
Info: TIMESTEP               2
Info: NUMBER OF STEPS        0
Info: STEPS PER CYCLE        10
Info: PERIODIC CELL BASIS 1  27.4668 0 0
Info: PERIODIC CELL BASIS 2  0 27.7039 0
Info: PERIODIC CELL BASIS 3  0 0 27.4239
Info: PERIODIC CELL CENTER   0 0 0
Info: WRAPPING WATERS AROUND PERIODIC BOUNDARIES ON OUTPUT.
Info: WRAPPING ALL CLUSTERS AROUND PERIODIC BOUNDARIES ON OUTPUT.
Info: FIRST LDB TIMESTEP     50
Info: LAST LDB TIMESTEP     -1
Info: HOM BACKGROUND SCALING 1
Info: PME BACKGROUND SCALING 1
Info: MIN ATOMS PER PATCH    40
Info: EMPTY PATCH LOAD       40 ATOMS
Info: VELOCITY FILE          mobley_9029594_equil.vel
Info: CENTER OF MASS MOVING INITIALLY? NO
Info: DIELECTRIC             1
Info: EXCLUDE                SCALED ONE-FOUR
Info: 1-4 ELECTROSTATICS SCALED BY 0.833333
Info: MODIFIED 1-4 VDW PARAMETERS WILL BE USED
Info: DCD FILENAME           mobley_9029594_prod.dcd
Info: DCD FREQUENCY          100000
Info: DCD FIRST STEP         100000
Info: DCD FILE WILL CONTAIN UNIT CELL DATA
Info: XST FILENAME           mobley_9029594_prod.xst
Info: XST FREQUENCY          100000
Info: NO VELOCITY DCD OUTPUT
Info: NO FORCE DCD OUTPUT
Info: OUTPUT FILENAME        mobley_9029594_prod
Info: BINARY OUTPUT FILES WILL BE USED
Info: NO RESTART FILE
Info: CUTOFF                 9
Info: PAIRLIST DISTANCE      11
Info: PAIRLIST SHRINK RATE   0.01
Info: PAIRLIST GROW RATE     0.01
Info: PAIRLIST TRIGGER       0.3
Info: PAIRLISTS PER CYCLE    2
Info: PAIRLISTS ENABLED
Info: MARGIN                 2
Info: HYDROGEN GROUP CUTOFF  2.5
Info: PATCH DIMENSION        15.5
Info: ENERGY OUTPUT STEPS    100000
Info: ENERGY EVALUATION STEPS    100000
Info: OUTPUT ENERGY PRECISION 4
Info: CROSSTERM ENERGY INCLUDED IN DIHEDRAL
Info: TIMING OUTPUT STEPS    1000000
Info: PRESSURE OUTPUT STEPS  100000
Info: ALCHEMICAL FEP ON
Info: FEP CURRENT LAMBDA VALUE     1
Info: FEP COMPARISON LAMBDA VALUE  0.95
Info: FEP INTRA-ALCHEMICAL NON-BONDED INTERACTIONS WILL BE RETAINED
Info: FEP INTRA-ALCHEMICAL BONDED INTERACTIONS WILL BE RETAINED
Info: FEP VDW SHIFTING COEFFICIENT 5
Info: FEP ELEC. ACTIVE FOR ANNIHILATED PARTICLES BETWEEN LAMBDA = 0 AND LAMBDA = 0.5
Info: FEP ELEC. ACTIVE FOR EXNIHILATED PARTICLES BETWEEN LAMBDA = 0.5 AND LAMBDA = 1
Info: FEP VDW ACTIVE FOR ANNIHILATED PARTICLES BETWEEN LAMBDA = 0 AND LAMBDA = 1
Info: FEP VDW ACTIVE FOR EXNIHILATED PARTICLES BETWEEN LAMBDA = 0 AND LAMBDA = 1
Info: FEP BOND ACTIVE FOR ANNIHILATED PARTICLES BETWEEN LAMBDA = 1 AND LAMBDA = 1
Info: FEP BOND ACTIVE FOR EXNIHILATED PARTICLES BETWEEN LAMBDA = 0 AND LAMBDA = 0
Info: LANGEVIN DYNAMICS ACTIVE
Info: LANGEVIN TEMPERATURE   300
Info: LANGEVIN USING BBK INTEGRATOR
Info: LANGEVIN DAMPING COEFFICIENT IS 1 INVERSE PS
Info: LANGEVIN DYNAMICS APPLIED TO HYDROGENS
Info: LANGEVIN PISTON PRESSURE CONTROL ACTIVE
Info:        TARGET PRESSURE IS 1.01325 BAR
Info:     OSCILLATION PERIOD IS 50 FS
Info:             DECAY TIME IS 25 FS
Info:     PISTON TEMPERATURE IS 300 K
Info:       PRESSURE CONTROL IS GROUP-BASED
Info:    INITIAL STRAIN RATE IS 0.00015566 0.00015566 0.00015566
Info:       CELL FLUCTUATION IS ISOTROPIC
Info: PARTICLE MESH EWALD (PME) ACTIVE
Info: PME TOLERANCE               1e-06
Info: PME EWALD COEFFICIENT       0.348832
Info: PME INTERPOLATION ORDER     4
Info: PME GRID DIMENSIONS         28 28 28
Info: PME MAXIMUM GRID SPACING    1
Info: PME CALCULATION WILL BE PERFORMED ON GPU
Info: FULL ELECTROSTATIC EVALUATION FREQUENCY      2
Info: USING VERLET I (r-RESPA) MTS SCHEME.
Info: C1 SPLITTING OF LONG RANGE ELECTROSTATICS
Info: PLACING ATOMS IN PATCHES BY HYDROGEN GROUPS
Info: RIGID BONDS TO HYDROGEN : ALL
Info:         ERROR TOLERANCE : 1e-08
Info:          MAX ITERATIONS : 100
Info: RIGID WATER USING SETTLE ALGORITHM
Info: RANDOM NUMBER SEED     1741656130
Info: USE HYDROGEN BONDS?    NO
Info: Using AMBER format force field!
Info: AMBER PARM FILE        mobley_9029594.prmtop
Info: COORDINATE PDB         mobley_9029594.pdb
Info: Exclusions will be read from PARM file!
Info: SCNB (VDW SCALING)     2
Info: USING ARITHMETIC MEAN TO COMBINE L-J SIGMA PARAMETERS
Info: BINARY COORDINATES     mobley_9029594_equil.coor
Info: SUMMARY OF PARAMETERS:
Info: 4 BONDS
Info: 2 ANGLES
Info:   2 HARMONIC
Info:   0 COSINE-BASED
Info: 0 DIHEDRAL
Info: 0 IMPROPER
Info: 0 CROSSTERM
Info: 0 VDW
Info: 15 VDW_PAIRS
Info: 0 NBTHOLE_PAIRS
Info: To read alchdata from file: mobley_9029594.pdb
Info: To read alchflag data from column: 5
Info: STRUCTURE SUMMARY:
Info: 2018 ATOMS
Info: 2017 BONDS
Info: 6 ANGLES
Info: 0 DIHEDRALS
Info: 0 IMPROPERS
Info: 0 CROSSTERMS
Info: 2023 EXCLUSIONS
Info: 2016 RIGID BONDS
Info: ALCH: 0 ATOMS TO DISAPPEAR IN FINAL STATE
Info: ALCH: 5 ATOMS TO APPEAR IN FINAL STATE
Info: 4038 DEGREES OF FREEDOM
Info: 673 HYDROGEN GROUPS
Info: 4 ATOMS IN LARGEST HYDROGEN GROUP
Info: 673 MIGRATION GROUPS
Info: 4 ATOMS IN LARGEST MIGRATION GROUP
Info: TOTAL MASS = 12122.8 amu
Info: TOTAL CHARGE = 7.45058e-09 e
Info: MASS DENSITY = 0.964681 g/cm^3
Info: ATOM DENSITY = 0.0967038 atoms/A^3
Info: ADDED 0 IMPLICIT EXCLUSIONS
Info: NONBONDED TABLE R-SQUARED SPACING: 0.0625
Info: NONBONDED TABLE SIZE: 705 POINTS
Info: REMOVING COM VELOCITY 0.0315347 -0.0565927 -0.13239
Info: Use 3D box decompostion in PME FFT.
Info: Updated CUDA force table with 4096 elements.
Info: Updated CUDA LJ table with 5 x 5 elements.
Info: Found 8 unique exclusion lists needing 8 bytes
TCL: Running for 1500000 steps
ETITLE: TS BOND ANGLE DIHED IMPRP ELECT VDW BOUNDARY MISC KINETIC TOTAL TEMP POTENTIAL TOTALAVG TEMPAVG PRESSURE GPRESSURE VOLUME PRESSAVG GPRESSAVG
ENERGY: 0 0.6905 0.6564 0.0000 0.0000 -7285.4896 936.5045 0.0000 0.0000 1236.8081 -5110.8301 308.2665 -6347.6382 -5110.8301 308.2665 -726.1256 -650.6448 20867.8435 -726.1256 -650.6448
ENERGY: 300000 0.0021 0.5326 0.0000 0.0000 -7371.8639 976.3453 0.0000 0.0000 1146.9594 -5248.0245 285.8723 -6394.9839 -5164.5433 299.0990 -527.0915 -442.6165 20918.6635 -281.0571 -193.4382
ENERGY: 600000 0.7146 2.3856 0.0000 0.0000 -7396.8629 1005.2394 0.0000 0.0000 1225.4464 -5163.0769 305.4347 -6388.5233 -5149.1313 300.0581 31.4670 54.1372 20945.9443 124.3921 204.8842
ENERGY: 900000 0.0039 0.7862 0.0000 0.0000 -7409.6855 1020.7745 0.0000 0.0000 1147.4693 -5240.6515 285.9994 -6388.1209 -5151.2553 299.1469 131.8055 227.6085 20557.7006 81.6321 160.8725
ENERGY: 1200000 0.0096 1.9132 0.0000 0.0000 -7313.0396 951.4118 0.0000 0.0000 1220.0256 -5139.6794 304.0836 -6359.7050 -5146.6960 299.8045 -134.2175 -150.8804 20593.9263 47.3700 125.1870
ENERGY: 1500000 0.0462 0.9240 0.0000 0.0000 -7265.8437 935.5843 0.0000 0.0000 1176.3558 -5152.9334 293.1992 -6329.2892 -5152.1888 299.2238 -708.1998 -645.5832 21197.0326 -13.7666 64.0613
TCL: Running FEP window   2: Lambda1 0.95   Lambda2 0.8999999999999999 [dLambda -0.050000000000000044]
TCL: Setting parameter firsttimestep to 0
TCL: Setting parameter alchLambda to 0.95
Info: NONBONDED TABLE R-SQUARED SPACING: 0.0625
Info: NONBONDED TABLE SIZE: 705 POINTS
TCL: Setting parameter alchLambda2 to 0.8999999999999999
Info: NONBONDED TABLE R-SQUARED SPACING: 0.0625
Info: NONBONDED TABLE SIZE: 705 POINTS
TCL: Running for 1500000 steps
ETITLE: TS BOND ANGLE DIHED IMPRP ELECT VDW BOUNDARY MISC KINETIC TOTAL TEMP POTENTIAL TOTALAVG TEMPAVG PRESSURE GPRESSURE VOLUME PRESSAVG GPRESSAVG
ENERGY: 0 0.0462 0.9240 0.0000 0.0000 -7265.5116 935.8229 0.0000 0.0000 1175.7508 -5152.9678 293.0484 -6328.7186 -5152.9678 293.0484 -730.2223 -648.3617 21197.0326 -730.2223 -648.3617
ENERGY: 300000 0.0118 2.2815 0.0000 0.0000 -7258.8842 980.0522 0.0000 0.0000 1226.2709 -5050.2679 305.6402 -6276.5388 -5128.0070 300.3233 491.9454 590.3366 20454.7427 37.8014 111.0723
ENERGY: 600000 0.0933 1.8363 0.0000 0.0000 -7392.7948 1036.1128 0.0000 0.0000 1199.1460 -5155.6065 298.8795 -6354.7524 -5133.2338 300.3774 453.2761 470.6438 20718.6303 277.1990 329.9309
ENERGY: 900000 0.7402 2.2053 0.0000 0.0000 -7311.4170 985.9079 0.0000 0.0000 1195.0247 -5127.5390 297.8523 -6322.5637 -5143.2267 299.1038 383.8317 431.7671 20336.0300 174.7059 235.2511
ENERGY: 1200000 0.0071 0.5469 0.0000 0.0000 -7517.5180 1065.9328 0.0000 0.0000 1225.7231 -5225.3082 305.5037 -6451.0313 -5143.1777 300.5074 351.2097 520.3094 20851.3942 207.2473 289.3200
ENERGY: 1500000 0.0126 0.8757 0.0000 0.0000 -7363.3036 973.6476 0.0000 0.0000 1205.3261 -5183.4415 300.4199 -6388.7676 -5141.0177 301.0492 -119.5451 -78.9312 20742.4330 157.1005 234.2733
TCL: Running FEP window   3: Lambda1 0.8999999999999999 Lambda2 0.8499999999999999 [dLambda -0.050000000000000044]
TCL: Setting parameter firsttimestep to 0
TCL: Setting parameter alchLambda to 0.8999999999999999
Info: NONBONDED TABLE R-SQUARED SPACING: 0.0625
Info: NONBONDED TABLE SIZE: 705 POINTS
TCL: Setting parameter alchLambda2 to 0.8499999999999999
Info: NONBONDED TABLE R-SQUARED SPACING: 0.0625
Info: NONBONDED TABLE SIZE: 705 POINTS
TCL: Running for 1500000 steps
ETITLE: TS BOND ANGLE DIHED IMPRP ELECT VDW BOUNDARY MISC KINETIC TOTAL TEMP POTENTIAL TOTALAVG TEMPAVG PRESSURE GPRESSURE VOLUME PRESSAVG GPRESSAVG
ENERGY: 0 0.0126 0.8757 0.0000 0.0000 -7362.8556 973.5437 0.0000 0.0000 1204.7201 -5183.7034 300.2688 -6388.4235 -5183.7034 300.2688 -174.4220 -84.9158 20742.4330 -174.4220 -84.9158
ENERGY: 300000 0.5774 1.8125 0.0000 0.0000 -7333.8941 1020.3583 0.0000 0.0000 1186.5430 -5124.6029 295.7383 -6311.1459 -5170.1058 296.5535 517.6309 535.5507 20598.5865 -131.1694 -54.8031
ENERGY: 600000 0.3541 1.4459 0.0000 0.0000 -7299.5342 1016.6080 0.0000 0.0000 1197.6995 -5083.4267 298.5190 -6281.1262 -5153.0640 296.6923 398.7870 390.7700 21096.6650 -181.9554 -130.1417
ENERGY: 900000 0.0003 2.4754 0.0000 0.0000 -7374.2870 987.3726 0.0000 0.0000 1200.5696 -5183.8691 299.2343 -6384.4387 -5146.0801 298.1668 16.9936 102.0293 20333.3892 -173.4733 -110.1478
ENERGY: 1200000 0.3366 2.1217 0.0000 0.0000 -7328.7544 936.4421 0.0000 0.0000 1231.0656 -5158.7884 306.8353 -6389.8540 -5144.2301 299.6558 -634.4997 -647.1840 20632.0471 -222.6862 -159.4595
ENERGY: 1500000 0.1304 2.0879 0.0000 0.0000 -7318.1201 967.0665 0.0000 0.0000 1251.9833 -5096.8520 312.0489 -6348.8353 -5136.2360 300.7870 -228.0591 -197.1837 20735.4914 -93.2969 -33.9977
TCL: Running FEP window   4: Lambda1 0.8499999999999999 Lambda2 0.7999999999999998 [dLambda -0.050000000000000044]
TCL: Setting parameter firsttimestep to 0
TCL: Setting parameter alchLambda to 0.8499999999999999
Info: NONBONDED TABLE R-SQUARED SPACING: 0.0625
Info: NONBONDED TABLE SIZE: 705 POINTS
TCL: Setting parameter alchLambda2 to 0.7999999999999998
Info: NONBONDED TABLE R-SQUARED SPACING: 0.0625
Info: NONBONDED TABLE SIZE: 705 POINTS
TCL: Running for 1500000 steps
ETITLE: TS BOND ANGLE DIHED IMPRP ELECT VDW BOUNDARY MISC KINETIC TOTAL TEMP POTENTIAL TOTALAVG TEMPAVG PRESSURE GPRESSURE VOLUME PRESSAVG GPRESSAVG
ENERGY: 0 0.1304 2.0879 0.0000 0.0000 -7317.7660 966.9653 0.0000 0.0000 1251.3918 -5097.1907 311.9014 -6348.5825 -5097.1907 311.9014 -281.4433 -203.7072 20735.4914 -281.4433 -203.7072
ENERGY: 300000 0.1958 1.4667 0.0000 0.0000 -7386.0971 1057.8079 0.0000 0.0000 1168.8251 -5157.8015 291.3222 -6326.6267 -5122.7786 302.7629 910.4475 1020.1557 20574.9251 406.1078 475.4335
ENERGY: 600000 0.2485 0.7585 0.0000 0.0000 -7274.1097 958.3842 0.0000 0.0000 1193.9862 -5120.7324 297.5935 -6314.7186 -5136.9862 301.3824 -95.0843 -80.4057 20810.2395 258.9879 317.1609
ENERGY: 900000 0.0792 2.0936 0.0000 0.0000 -7347.4718 995.1241 0.0000 0.0000 1219.7523 -5130.4226 304.0155 -6350.1749 -5149.4541 300.1623 250.9820 388.4759 20617.9661 233.5019 301.0669
ENERGY: 1200000 0.3001 0.7676 0.0000 0.0000 -7433.8984 1063.5717 0.0000 0.0000 1228.8622 -5140.3968 306.2861 -6369.2590 -5144.0988 300.9978 879.1920 909.0458 20633.6386 144.7036 209.8523
ENERGY: 1500000 0.2426 2.4920 0.0000 0.0000 -7413.2638 1012.7511 0.0000 0.0000 1143.4725 -5254.3056 285.0032 -6397.7781 -5146.9033 300.0868 99.8202 169.0549 20505.1568 199.0296 265.1800
TCL: Running FEP window   5: Lambda1 0.7999999999999998 Lambda2 0.7499999999999998 [dLambda -0.050000000000000044]
TCL: Setting parameter firsttimestep to 0
TCL: Setting parameter alchLambda to 0.7999999999999998
Info: NONBONDED TABLE R-SQUARED SPACING: 0.0625
Info: NONBONDED TABLE SIZE: 705 POINTS
TCL: Setting parameter alchLambda2 to 0.7499999999999998
Info: NONBONDED TABLE R-SQUARED SPACING: 0.0625
Info: NONBONDED TABLE SIZE: 705 POINTS
TCL: Running for 1500000 steps
ETITLE: TS BOND ANGLE DIHED IMPRP ELECT VDW BOUNDARY MISC KINETIC TOTAL TEMP POTENTIAL TOTALAVG TEMPAVG PRESSURE GPRESSURE VOLUME PRESSAVG GPRESSAVG
ENERGY: 0 0.2426 2.4920 0.0000 0.0000 -7413.1183 1012.6556 0.0000 0.0000 1142.9097 -5254.8184 284.8630 -6397.7281 -5254.8184 284.8630 66.8198 164.0519 20505.1568 66.8198 164.0519
ENERGY: 300000 0.5547 1.1333 0.0000 0.0000 -7400.3606 1026.6490 0.0000 0.0000 1193.5494 -5178.4742 297.4846 -6372.0236 -5191.5672 296.3905 646.6743 723.6028 20439.5323 223.3285 291.1339
ENERGY: 600000 0.0737 1.2838 0.0000 0.0000 -7267.8980 940.5872 0.0000 0.0000 1224.8600 -5101.0932 305.2885 -6325.9532 -5166.8395 298.8053 -146.5463 -120.5940 20544.4080 179.5288 240.6986
ENERGY: 900000 0.0378 2.0790 0.0000 0.0000 -7294.3438 975.9841 0.0000 0.0000 1231.0431 -5085.1999 306.8296 -6316.2429 -5158.8565 299.8716 138.5324 242.9029 20585.4938 -3.5575 63.9896
ENERGY: 1200000 0.0009 0.8630 0.0000 0.0000 -7243.1678 948.0746 0.0000 0.0000 1208.2643 -5085.9650 301.1522 -6294.2293 -5149.4519 300.1363 -123.1513 -19.0224 20668.3885 -31.2916 45.5960
ENERGY: 1500000 0.1722 0.5131 0.0000 0.0000 -7502.9290 1084.1131 0.0000 0.0000 1194.4303 -5223.7002 297.7042 -6418.1306 -5145.3869 299.9872 1044.2878 1059.9318 20450.7140 14.1171 82.9241
TCL: Running FEP window   6: Lambda1 0.7499999999999998 Lambda2 0.6999999999999997 [dLambda -0.050000000000000044]
TCL: Setting parameter firsttimestep to 0
TCL: Setting parameter alchLambda to 0.7499999999999998
Info: NONBONDED TABLE R-SQUARED SPACING: 0.0625
Info: NONBONDED TABLE SIZE: 705 POINTS
TCL: Setting parameter alchLambda2 to 0.6999999999999997
Info: NONBONDED TABLE R-SQUARED SPACING: 0.0625
Info: NONBONDED TABLE SIZE: 705 POINTS
TCL: Running for 1500000 steps
ETITLE: TS BOND ANGLE DIHED IMPRP ELECT VDW BOUNDARY MISC KINETIC TOTAL TEMP POTENTIAL TOTALAVG TEMPAVG PRESSURE GPRESSURE VOLUME PRESSAVG GPRESSAVG
ENERGY: 0 0.1722 0.5131 0.0000 0.0000 -7502.9976 1084.1846 0.0000 0.0000 1193.8423 -5224.2854 297.5576 -6418.1277 -5224.2854 297.5576 975.6894 1055.1290 20450.7140 975.6894 1055.1290
ENERGY: 300000 0.8092 3.6338 0.0000 0.0000 -7245.8856 935.6671 0.0000 0.0000 1187.1904 -5118.5851 295.8996 -6305.7755 -5169.6244 297.1857 -376.8408 -328.1762 20834.2184 289.5773 375.0714
ENERGY: 600000 0.2483 1.9879 0.0000 0.0000 -7369.1633 1022.2711 0.0000 0.0000 1209.9301 -5134.7259 301.5674 -6344.6560 -5169.0679 297.9693 529.2401 608.6312 20659.4141 228.4078 299.6850
ENERGY: 900000 0.0059 0.7819 0.0000 0.0000 -7323.8218 1009.8348 0.0000 0.0000 1248.5977 -5064.6015 311.2050 -6313.1991 -5147.4783 299.5936 292.6435 388.3997 20923.5943 185.1001 255.3714
ENERGY: 1200000 0.1743 2.6358 0.0000 0.0000 -7260.6358 907.0857 0.0000 0.0000 1207.3021 -5143.4380 300.9124 -6350.7400 -5146.1966 299.9194 -873.0546 -838.8004 20986.8968 87.7290 165.6661
ENERGY: 1500000 0.0276 0.5536 0.0000 0.0000 -7305.2384 962.4270 0.0000 0.0000 1193.7333 -5148.4970 297.5304 -6342.2303 -5146.4227 300.1831 -206.6019 -121.1067 20604.6811 63.6400 135.2995
TCL: Running FEP window   7: Lambda1 0.6999999999999997 Lambda2 0.6499999999999997 [dLambda -0.050000000000000044]
TCL: Setting parameter firsttimestep to 0
TCL: Setting parameter alchLambda to 0.6999999999999997
Info: NONBONDED TABLE R-SQUARED SPACING: 0.0625
Info: NONBONDED TABLE SIZE: 705 POINTS
TCL: Setting parameter alchLambda2 to 0.6499999999999997
Info: NONBONDED TABLE R-SQUARED SPACING: 0.0625
Info: NONBONDED TABLE SIZE: 705 POINTS
TCL: Running for 1500000 steps
ETITLE: TS BOND ANGLE DIHED IMPRP ELECT VDW BOUNDARY MISC KINETIC TOTAL TEMP POTENTIAL TOTALAVG TEMPAVG PRESSURE GPRESSURE VOLUME PRESSAVG GPRESSAVG
ENERGY: 0 0.0276 0.5536 0.0000 0.0000 -7305.0509 961.9956 0.0000 0.0000 1193.1251 -5149.3491 297.3788 -6342.4741 -5149.3491 297.3788 -237.2619 -135.7318 20604.6811 -237.2619 -135.7318
ENERGY: 300000 0.1603 3.8152 0.0000 0.0000 -7409.2549 1023.9952 0.0000 0.0000 1195.7386 -5185.5455 298.0302 -6381.2842 -5131.2386 302.0376 266.0114 283.2368 20793.8735 -39.4898 12.6691
ENERGY: 600000 0.8515 0.7521 0.0000 0.0000 -7315.2804 957.9736 0.0000 0.0000 1231.6912 -5124.0120 306.9912 -6355.7032 -5135.7550 301.7415 -425.4861 -389.4362 21046.9002 -116.2079 -45.7247
ENERGY: 900000 0.1507 1.5143 0.0000 0.0000 -7328.2552 962.9525 0.0000 0.0000 1188.1276 -5175.5102 296.1332 -6363.6378 -5122.7726 301.1697 -586.9404 -449.8256 21098.1128 -93.3175 -20.6132
ENERGY: 1200000 0.0805 1.4670 0.0000 0.0000 -7433.8385 1010.1914 0.0000 0.0000 1196.2342 -5225.8654 298.1538 -6422.0996 -5133.6322 300.0154 -82.4982 -27.1048 20550.4140 -13.8391 52.8039
ENERGY: 1500000 0.4252 3.0969 0.0000 0.0000 -7298.7247 989.5599 0.0000 0.0000 1208.9085 -5096.7343 301.3128 -6305.6428 -5130.5714 300.2097 190.1900 198.3082 20763.1293 -14.2119 51.2067
TCL: Running FEP window   8: Lambda1 0.6499999999999997 Lambda2 0.5999999999999996 [dLambda -0.050000000000000044]
TCL: Setting parameter firsttimestep to 0
TCL: Setting parameter alchLambda to 0.6499999999999997
Info: NONBONDED TABLE R-SQUARED SPACING: 0.0625
Info: NONBONDED TABLE SIZE: 705 POINTS
TCL: Setting parameter alchLambda2 to 0.5999999999999996
Info: NONBONDED TABLE R-SQUARED SPACING: 0.0625
Info: NONBONDED TABLE SIZE: 705 POINTS
TCL: Running for 1500000 steps
ETITLE: TS BOND ANGLE DIHED IMPRP ELECT VDW BOUNDARY MISC KINETIC TOTAL TEMP POTENTIAL TOTALAVG TEMPAVG PRESSURE GPRESSURE VOLUME PRESSAVG GPRESSAVG
ENERGY: 0 0.4252 3.0969 0.0000 0.0000 -7298.4124 989.2023 0.0000 0.0000 1208.2916 -5097.3965 301.1590 -6305.6881 -5097.3965 301.1590 118.2495 189.2840 20763.1293 118.2495 189.2840
ENERGY: 300000 0.3911 0.5590 0.0000 0.0000 -7386.0611 958.5917 0.0000 0.0000 1184.6150 -5241.9042 295.2577 -6426.5192 -5148.8886 299.6967 -811.4819 -750.4651 21019.6912 -340.1049 -263.1776
ENERGY: 600000 0.4394 0.7724 0.0000 0.0000 -7176.9887 923.2111 0.0000 0.0000 1250.3091 -5002.2566 311.6316 -6252.5657 -5124.7151 301.5576 -202.7050 -135.6359 20674.0759 -199.9103 -131.4833
ENERGY: 900000 0.0000 1.5778 0.0000 0.0000 -7382.5944 1027.1924 0.0000 0.0000 1211.7789 -5142.0453 302.0282 -6353.8242 -5126.1927 300.6117 825.7152 874.3781 20378.9580 -31.1367 28.5114
ENERGY: 1200000 0.6815 4.2333 0.0000 0.0000 -7449.6128 1061.2520 0.0000 0.0000 1210.0770 -5173.3690 301.6040 -6383.4459 -5133.2643 300.5204 804.3697 842.5129 20524.2618 -0.4214 59.8322
ENERGY: 1500000 0.2719 0.3515 0.0000 0.0000 -7315.5319 992.5562 0.0000 0.0000 1188.8569 -5133.4954 296.3150 -6322.3523 -5133.2574 300.0844 1.2104 46.4634 21006.0680 24.7871 91.4883
TCL: Running FEP window   9: Lambda1 0.5999999999999996 Lambda2 0.5499999999999996 [dLambda -0.050000000000000044]
TCL: Setting parameter firsttimestep to 0
TCL: Setting parameter alchLambda to 0.5999999999999996
Info: NONBONDED TABLE R-SQUARED SPACING: 0.0625
Info: NONBONDED TABLE SIZE: 705 POINTS
TCL: Setting parameter alchLambda2 to 0.5499999999999996
Info: NONBONDED TABLE R-SQUARED SPACING: 0.0625
Info: NONBONDED TABLE SIZE: 705 POINTS
TCL: Running for 1500000 steps
ETITLE: TS BOND ANGLE DIHED IMPRP ELECT VDW BOUNDARY MISC KINETIC TOTAL TEMP POTENTIAL TOTALAVG TEMPAVG PRESSURE GPRESSURE VOLUME PRESSAVG GPRESSAVG
ENERGY: 0 0.2719 0.3515 0.0000 0.0000 -7315.6597 992.6520 0.0000 0.0000 1188.2542 -5134.1301 296.1648 -6322.3843 -5134.1301 296.1648 -31.5570 40.6078 21006.0680 -31.5570 40.6078
ENERGY: 300000 0.5890 1.6217 0.0000 0.0000 -7394.9416 1008.3172 0.0000 0.0000 1197.4252 -5186.9885 298.4506 -6384.4137 -5178.7747 296.5345 306.8372 335.4218 20464.1578 336.6052 394.1907
ENERGY: 600000 1.0058 1.5212 0.0000 0.0000 -7287.8338 976.9224 0.0000 0.0000 1167.0370 -5141.3474 290.8765 -6308.3845 -5160.7120 296.6211 231.0750 214.0348 20528.6475 137.3780 183.8325
ENERGY: 900000 0.0333 3.2575 0.0000 0.0000 -7397.1247 1008.6647 0.0000 0.0000 1168.4195 -5216.7497 291.2211 -6385.1692 -5164.8635 296.1094 258.4331 267.6802 20505.0884 -9.3233 47.2939
ENERGY: 1200000 0.2405 0.7325 0.0000 0.0000 -7378.5414 1007.6053 0.0000 0.0000 1202.2269 -5167.7362 299.6474 -6369.9631 -5159.2001 297.7774 -105.9004 -26.2089 20851.2543 19.1287 81.4350
ENERGY: 1500000 0.2971 0.5387 0.0000 0.0000 -7392.4459 1068.5451 0.0000 0.0000 1197.4878 -5125.5771 298.4662 -6323.0649 -5155.5446 298.2652 896.5447 962.4637 20857.0520 38.1267 96.4824
TCL: Running FEP window  10: Lambda1 0.5499999999999996 Lambda2 0.4999999999999996 [dLambda -0.04999999999999999]
TCL: Setting parameter firsttimestep to 0
TCL: Setting parameter alchLambda to 0.5499999999999996
Info: NONBONDED TABLE R-SQUARED SPACING: 0.0625
Info: NONBONDED TABLE SIZE: 705 POINTS
TCL: Setting parameter alchLambda2 to 0.4999999999999996
Info: NONBONDED TABLE R-SQUARED SPACING: 0.0625
Info: NONBONDED TABLE SIZE: 705 POINTS
TCL: Running for 1500000 steps
ETITLE: TS BOND ANGLE DIHED IMPRP ELECT VDW BOUNDARY MISC KINETIC TOTAL TEMP POTENTIAL TOTALAVG TEMPAVG PRESSURE GPRESSURE VOLUME PRESSAVG GPRESSAVG
ENERGY: 0 0.2971 0.5387 0.0000 0.0000 -7392.1679 1068.4908 0.0000 0.0000 1196.8738 -5125.9675 298.3132 -6322.8413 -5125.9675 298.3132 873.1835 958.6800 20857.0520 873.1835 958.6800
ENERGY: 300000 0.0007 0.4755 0.0000 0.0000 -7244.5043 936.9306 0.0000 0.0000 1223.3180 -5083.7796 304.9042 -6307.0975 -5100.1343 304.3493 -351.9680 -328.7524 20796.7548 196.9702 249.5216
ENERGY: 600000 0.3692 0.3754 0.0000 0.0000 -7248.5168 1004.7605 0.0000 0.0000 1199.9049 -5043.1069 299.0686 -6243.0117 -5091.9762 303.2056 531.1498 537.8848 20864.5447 280.3410 325.9208
ENERGY: 900000 0.0111 1.3851 0.0000 0.0000 -7265.3890 888.9923 0.0000 0.0000 1234.6598 -5140.3406 307.7311 -6375.0004 -5104.8547 303.9489 -1338.9006 -1209.4726 20892.5849 61.7286 116.9939
ENERGY: 1200000 1.0211 1.2782 0.0000 0.0000 -7413.2163 1010.9737 0.0000 0.0000 1227.6678 -5172.2755 305.9884 -6399.9433 -5117.9438 302.0548 22.6144 107.8209 20736.9346 -16.5900 41.0792
ENERGY: 1500000 0.0011 1.1428 0.0000 0.0000 -7214.5937 923.9205 0.0000 0.0000 1215.3682 -5074.1611 302.9228 -6289.5293 -5118.6271 301.8887 -727.7994 -572.4681 21077.8821 -192.1204 -128.3861
TCL: Running FEP window  11: Lambda1 0.4999999999999996 Lambda2 0.4499999999999996 [dLambda -0.04999999999999999]
TCL: Setting parameter firsttimestep to 0
TCL: Setting parameter alchLambda to 0.4999999999999996
Info: NONBONDED TABLE R-SQUARED SPACING: 0.0625
Info: NONBONDED TABLE SIZE: 705 POINTS
TCL: Setting parameter alchLambda2 to 0.4499999999999996
Info: NONBONDED TABLE R-SQUARED SPACING: 0.0625
Info: NONBONDED TABLE SIZE: 705 POINTS
TCL: Running for 1500000 steps
ETITLE: TS BOND ANGLE DIHED IMPRP ELECT VDW BOUNDARY MISC KINETIC TOTAL TEMP POTENTIAL TOTALAVG TEMPAVG PRESSURE GPRESSURE VOLUME PRESSAVG GPRESSAVG
ENERGY: 0 0.0011 1.1428 0.0000 0.0000 -7214.8478 924.0539 0.0000 0.0000 1214.7118 -5074.9382 302.7592 -6289.6500 -5074.9382 302.7592 -687.7910 -574.2942 21077.8821 -687.7910 -574.2942
ENERGY: 300000 0.0246 3.9023 0.0000 0.0000 -7391.0483 1020.7831 0.0000 0.0000 1254.1916 -5112.1467 312.5993 -6366.3383 -5123.8854 301.8652 346.8787 355.0017 20776.9634 -89.0080 -42.2004
ENERGY: 600000 0.0971 0.3773 0.0000 0.0000 -7348.3352 983.6003 0.0000 0.0000 1234.7024 -5129.5580 307.7417 -6364.2604 -5125.2118 301.6447 -43.3071 9.2085 20695.1760 -64.0973 -1.6930
ENERGY: 900000 0.0020 1.4687 0.0000 0.0000 -7185.6594 898.6924 0.0000 0.0000 1234.4762 -5051.0201 307.6853 -6285.4963 -5111.2492 301.1060 -1065.8234 -1051.8168 21458.3387 -228.9602 -161.4140
ENERGY: 1200000 0.0020 0.5888 0.0000 0.0000 -7396.1280 1006.4630 0.0000 0.0000 1195.2274 -5193.8469 297.9028 -6389.0743 -5127.5134 300.5607 6.4435 144.9607 20623.5569 -224.3835 -157.9413
ENERGY: 1500000 0.3377 1.2781 0.0000 0.0000 -7271.0415 930.3945 0.0000 0.0000 1229.7343 -5109.2970 306.5034 -6339.0312 -5130.2943 300.0727 -650.4649 -640.2752 20933.9806 -294.4760 -237.1781
TCL: Running FEP window  12: Lambda1 0.4499999999999996 Lambda2 0.39999999999999963 [dLambda -0.04999999999999999]
TCL: Setting parameter firsttimestep to 0
TCL: Setting parameter alchLambda to 0.4499999999999996
Info: NONBONDED TABLE R-SQUARED SPACING: 0.0625
Info: NONBONDED TABLE SIZE: 705 POINTS
TCL: Setting parameter alchLambda2 to 0.39999999999999963
Info: NONBONDED TABLE R-SQUARED SPACING: 0.0625
Info: NONBONDED TABLE SIZE: 705 POINTS
TCL: Running for 1500000 steps
ETITLE: TS BOND ANGLE DIHED IMPRP ELECT VDW BOUNDARY MISC KINETIC TOTAL TEMP POTENTIAL TOTALAVG TEMPAVG PRESSURE GPRESSURE VOLUME PRESSAVG GPRESSAVG
ENERGY: 0 0.3377 1.2781 0.0000 0.0000 -7271.0425 930.6223 0.0000 0.0000 1229.1428 -5109.6616 306.3560 -6338.8044 -5109.6616 306.3560 -714.0742 -638.0731 20933.9806 -714.0742 -638.0731
ENERGY: 300000 0.2564 1.3114 0.0000 0.0000 -7380.4010 998.1486 0.0000 0.0000 1208.2748 -5172.4099 301.1548 -6380.6847 -5191.1889 296.2322 339.0578 363.5926 20321.8214 -341.7416 -292.8604
ENERGY: 600000 0.0172 3.0493 0.0000 0.0000 -7265.1354 957.3948 0.0000 0.0000 1216.9139 -5087.7601 303.3080 -6304.6740 -5171.1417 299.8055 -285.6185 -257.8713 20884.8676 -276.5819 -240.2993
ENERGY: 900000 0.6739 2.1694 0.0000 0.0000 -7311.3840 987.2077 0.0000 0.0000 1209.4489 -5111.8840 301.4474 -6321.3330 -5156.3838 299.6570 485.0112 453.6182 20541.1069 -209.7169 -180.2066
ENERGY: 1200000 0.0436 1.2851 0.0000 0.0000 -7360.6584 990.5044 0.0000 0.0000 1213.7173 -5155.1079 302.5113 -6368.8252 -5153.9509 299.8193 -300.3289 -254.9737 20785.5064 -168.1463 -131.0834
ENERGY: 1500000 1.7301 2.1623 0.0000 0.0000 -7449.2390 1051.6895 0.0000 0.0000 1221.6842 -5171.9729 304.4970 -6393.6571 -5152.9824 300.0080 508.3038 578.8079 20690.2614 -99.7091 -51.2009
TCL: Running FEP window  13: Lambda1 0.39999999999999963 Lambda2 0.34999999999999964 [dLambda -0.04999999999999999]
TCL: Setting parameter firsttimestep to 0
TCL: Setting parameter alchLambda to 0.39999999999999963
Info: NONBONDED TABLE R-SQUARED SPACING: 0.0625
Info: NONBONDED TABLE SIZE: 705 POINTS
TCL: Setting parameter alchLambda2 to 0.34999999999999964
Info: NONBONDED TABLE R-SQUARED SPACING: 0.0625
Info: NONBONDED TABLE SIZE: 705 POINTS
TCL: Running for 1500000 steps
ETITLE: TS BOND ANGLE DIHED IMPRP ELECT VDW BOUNDARY MISC KINETIC TOTAL TEMP POTENTIAL TOTALAVG TEMPAVG PRESSURE GPRESSURE VOLUME PRESSAVG GPRESSAVG
ENERGY: 0 1.7301 2.1623 0.0000 0.0000 -7449.2367 1051.5789 0.0000 0.0000 1221.1013 -5172.6642 304.3517 -6393.7654 -5172.6642 304.3517 495.7854 572.1465 20690.2614 495.7854 572.1465
ENERGY: 300000 0.9694 1.8100 0.0000 0.0000 -7290.9799 993.4320 0.0000 0.0000 1188.1865 -5106.5821 296.1479 -6294.7685 -5116.1321 305.1490 -0.7917 43.6439 20976.7303 -16.2620 38.2775
ENERGY: 600000 0.0502 3.7619 0.0000 0.0000 -7393.4478 1007.0448 0.0000 0.0000 1225.3586 -5157.2323 305.4128 -6382.5909 -5122.6314 307.4577 132.2691 150.4729 20624.6531 -224.0604 -163.7908
ENERGY: 900000 0.0129 0.5591 0.0000 0.0000 -7347.2292 1006.2503 0.0000 0.0000 1224.5429 -5115.8639 305.2095 -6340.4069 -5118.9078 305.4808 -32.2834 -26.6417 21123.8129 -117.3922 -67.2372
ENERGY: 1200000 0.0064 0.9136 0.0000 0.0000 -7541.1311 1133.5032 0.0000 0.0000 1189.3394 -5217.3685 296.4353 -6406.7080 -5130.1499 304.1942 1669.0400 1717.7759 20282.5699 -38.8795 13.2910
ENERGY: 1500000 0.2217 1.7178 0.0000 0.0000 -7365.1953 1033.0725 0.0000 0.0000 1184.1799 -5146.0033 295.1493 -6330.1832 -5138.5720 301.3883 514.0810 660.3247 20700.2713 15.8500 75.8366
TCL: Running FEP window  14: Lambda1 0.34999999999999964 Lambda2 0.29999999999999966 [dLambda -0.04999999999999999]
TCL: Setting parameter firsttimestep to 0
TCL: Setting parameter alchLambda to 0.34999999999999964
Info: NONBONDED TABLE R-SQUARED SPACING: 0.0625
Info: NONBONDED TABLE SIZE: 705 POINTS
TCL: Setting parameter alchLambda2 to 0.29999999999999966
Info: NONBONDED TABLE R-SQUARED SPACING: 0.0625
Info: NONBONDED TABLE SIZE: 705 POINTS
TCL: Running for 1500000 steps
ETITLE: TS BOND ANGLE DIHED IMPRP ELECT VDW BOUNDARY MISC KINETIC TOTAL TEMP POTENTIAL TOTALAVG TEMPAVG PRESSURE GPRESSURE VOLUME PRESSAVG GPRESSAVG
ENERGY: 0 0.2217 1.7178 0.0000 0.0000 -7365.1948 1032.5291 0.0000 0.0000 1183.5878 -5147.1383 295.0017 -6330.7261 -5147.1383 295.0017 575.6203 653.0225 20700.2713 575.6203 653.0225
ENERGY: 300000 0.0081 0.8506 0.0000 0.0000 -7241.0255 908.1344 0.0000 0.0000 1196.4974 -5135.5349 298.2194 -6332.0324 -5147.7528 298.0497 -933.9339 -879.8231 21077.0867 -533.1372 -466.6801
ENERGY: 600000 0.0483 1.7462 0.0000 0.0000 -7302.1121 967.3722 0.0000 0.0000 1210.7926 -5122.1527 301.7824 -6332.9453 -5131.6287 298.7126 -132.1057 7.8158 20553.2152 -289.7470 -213.4140
ENERGY: 900000 0.1358 1.6027 0.0000 0.0000 -7295.8952 970.4550 0.0000 0.0000 1214.3593 -5109.3424 302.6713 -6323.7017 -5130.2240 299.8252 70.5492 152.8768 20765.8126 -250.2854 -171.1927
ENERGY: 1200000 0.4943 3.2200 0.0000 0.0000 -7456.1125 1037.4370 0.0000 0.0000 1195.5508 -5219.4103 297.9834 -6414.9612 -5131.5861 300.0940 402.8807 400.5847 20753.3723 -204.9739 -136.7498
ENERGY: 1500000 0.1166 2.8888 0.0000 0.0000 -7370.9682 1037.1465 0.0000 0.0000 1211.0558 -5119.7606 301.8479 -6330.8164 -5123.4972 300.9965 704.0286 808.9583 20500.3084 -158.4514 -88.8453
TCL: Running FEP window  15: Lambda1 0.29999999999999966 Lambda2 0.24999999999999967 [dLambda -0.04999999999999999]
TCL: Setting parameter firsttimestep to 0
TCL: Setting parameter alchLambda to 0.29999999999999966
Info: NONBONDED TABLE R-SQUARED SPACING: 0.0625
Info: NONBONDED TABLE SIZE: 705 POINTS
TCL: Setting parameter alchLambda2 to 0.24999999999999967
Info: NONBONDED TABLE R-SQUARED SPACING: 0.0625
Info: NONBONDED TABLE SIZE: 705 POINTS
TCL: Running for 1500000 steps
ETITLE: TS BOND ANGLE DIHED IMPRP ELECT VDW BOUNDARY MISC KINETIC TOTAL TEMP POTENTIAL TOTALAVG TEMPAVG PRESSURE GPRESSURE VOLUME PRESSAVG GPRESSAVG
ENERGY: 0 0.1166 2.8888 0.0000 0.0000 -7370.9694 1037.1391 0.0000 0.0000 1210.4604 -5120.3645 301.6996 -6330.8249 -5120.3645 301.6996 725.3315 807.5476 20500.3084 725.3315 807.5476
ENERGY: 300000 0.1621 2.4062 0.0000 0.0000 -7322.1407 994.5383 0.0000 0.0000 1176.3672 -5148.6668 293.2020 -6325.0340 -5111.7013 301.4648 221.6450 266.1408 20834.4223 65.4302 135.5787
ENERGY: 600000 0.9957 0.5347 0.0000 0.0000 -7338.4360 1005.8455 0.0000 0.0000 1206.9270 -5124.1331 300.8189 -6331.0601 -5118.8555 301.6494 256.7984 244.2126 20907.3918 145.3040 192.2854
ENERGY: 900000 0.0700 1.8405 0.0000 0.0000 -7271.9855 964.9902 0.0000 0.0000 1200.2474 -5104.8373 299.1540 -6305.0847 -5115.5824 301.8281 79.6019 135.3753 20523.7425 107.0937 158.5298
ENERGY: 1200000 0.0444 4.4851 0.0000 0.0000 -7317.0409 983.4141 0.0000 0.0000 1248.9919 -5080.1055 311.3033 -6329.0974 -5118.5995 302.4654 459.4837 472.3140 20265.7379 215.7819 262.5059
ENERGY: 1500000 0.1635 2.1887 0.0000 0.0000 -7245.9375 917.1063 0.0000 0.0000 1231.8579 -5094.6212 307.0327 -6326.4791 -5120.4026 302.0897 -677.0026 -614.7438 20782.2505 62.8750 106.3071
TCL: Running FEP window  16: Lambda1 0.24999999999999967 Lambda2 0.19999999999999968 [dLambda -0.04999999999999999]
TCL: Setting parameter firsttimestep to 0
TCL: Setting parameter alchLambda to 0.24999999999999967
Info: NONBONDED TABLE R-SQUARED SPACING: 0.0625
Info: NONBONDED TABLE SIZE: 705 POINTS
TCL: Setting parameter alchLambda2 to 0.19999999999999968
Info: NONBONDED TABLE R-SQUARED SPACING: 0.0625
Info: NONBONDED TABLE SIZE: 705 POINTS
TCL: Running for 1500000 steps
ETITLE: TS BOND ANGLE DIHED IMPRP ELECT VDW BOUNDARY MISC KINETIC TOTAL TEMP POTENTIAL TOTALAVG TEMPAVG PRESSURE GPRESSURE VOLUME PRESSAVG GPRESSAVG
ENERGY: 0 0.1635 2.1886 0.0000 0.0000 -7245.9395 917.1033 0.0000 0.0000 1231.2668 -5095.2173 306.8854 -6326.4841 -5095.2173 306.8854 -683.3071 -617.6269 20782.2505 -683.3071 -617.6269
ENERGY: 300000 0.0130 2.2581 0.0000 0.0000 -7376.5442 1010.7616 0.0000 0.0000 1243.6827 -5119.8287 309.9800 -6363.5114 -5127.6643 305.7999 425.1407 422.6051 20612.3451 -28.5511 6.9203
ENERGY: 600000 0.0159 1.0335 0.0000 0.0000 -7212.6740 904.5521 0.0000 0.0000 1174.5349 -5132.5377 292.7453 -6307.0725 -5134.3857 302.1381 -826.0743 -739.6414 20724.1257 -210.6866 -162.3184
ENERGY: 900000 0.0520 3.6790 0.0000 0.0000 -7325.3196 957.6666 0.0000 0.0000 1193.0325 -5170.8895 297.3557 -6363.9220 -5140.5904 300.4047 -217.4169 -150.9169 20511.2748 -259.0317 -211.0664
ENERGY: 1200000 0.2537 2.9564 0.0000 0.0000 -7401.3487 1041.6583 0.0000 0.0000 1205.2404 -5151.2399 300.3985 -6356.4803 -5151.9495 299.8618 686.4679 772.5337 20578.9739 -135.9722 -80.1778
ENERGY: 1500000 0.1290 1.4112 0.0000 0.0000 -7255.5943 919.4058 0.0000 0.0000 1201.0205 -5133.6278 299.3467 -6334.6483 -5160.3864 299.1600 -787.8761 -743.4680 20808.4865 -208.6703 -151.9806
TCL: Running FEP window  17: Lambda1 0.19999999999999968 Lambda2 0.1499999999999997 [dLambda -0.04999999999999999]
TCL: Setting parameter firsttimestep to 0
TCL: Setting parameter alchLambda to 0.19999999999999968
Info: NONBONDED TABLE R-SQUARED SPACING: 0.0625
Info: NONBONDED TABLE SIZE: 705 POINTS
TCL: Setting parameter alchLambda2 to 0.1499999999999997
Info: NONBONDED TABLE R-SQUARED SPACING: 0.0625
Info: NONBONDED TABLE SIZE: 705 POINTS
TCL: Running for 1500000 steps
ETITLE: TS BOND ANGLE DIHED IMPRP ELECT VDW BOUNDARY MISC KINETIC TOTAL TEMP POTENTIAL TOTALAVG TEMPAVG PRESSURE GPRESSURE VOLUME PRESSAVG GPRESSAVG
ENERGY: 0 0.1290 1.4112 0.0000 0.0000 -7255.5932 919.1835 0.0000 0.0000 1200.4032 -5134.4663 299.1929 -6334.8696 -5134.4663 299.1929 -833.8800 -747.5059 20808.4865 -833.8800 -747.5059
ENERGY: 300000 0.0636 1.0286 0.0000 0.0000 -7312.6979 970.1150 0.0000 0.0000 1180.4328 -5161.0578 294.2154 -6341.4906 -5131.2247 298.0806 -143.7840 -77.0329 20641.8154 -59.5075 32.4653
ENERGY: 600000 1.5927 1.3728 0.0000 0.0000 -7422.7244 1044.0755 0.0000 0.0000 1241.7684 -5133.9150 309.5029 -6375.6834 -5138.1931 299.2666 413.1851 583.8161 20611.5664 27.3818 108.9252
ENERGY: 900000 0.7352 2.3994 0.0000 0.0000 -7306.4399 1004.6224 0.0000 0.0000 1201.4163 -5097.2665 299.4454 -6298.6829 -5141.2181 298.5670 89.7437 113.3924 21005.0762 181.7790 246.1169
ENERGY: 1200000 0.0836 1.0522 0.0000 0.0000 -7382.9417 1014.4267 0.0000 0.0000 1222.7043 -5144.6749 304.7513 -6367.3792 -5136.9954 299.5080 334.6080 342.8579 20689.7423 96.5629 153.4761
ENERGY: 1500000 0.5175 1.0657 0.0000 0.0000 -7278.9174 926.7723 0.0000 0.0000 1192.9514 -5157.6105 297.3356 -6350.5619 -5138.2100 300.6945 -815.9268 -761.3615 20988.6738 47.3978 114.2208
TCL: Running FEP window  18: Lambda1 0.1499999999999997 Lambda2 0.09999999999999969 [dLambda -0.05 ]
TCL: Setting parameter firsttimestep to 0
TCL: Setting parameter alchLambda to 0.1499999999999997
Info: NONBONDED TABLE R-SQUARED SPACING: 0.0625
Info: NONBONDED TABLE SIZE: 705 POINTS
TCL: Setting parameter alchLambda2 to 0.09999999999999969
Info: NONBONDED TABLE R-SQUARED SPACING: 0.0625
Info: NONBONDED TABLE SIZE: 705 POINTS
TCL: Running for 1500000 steps
ETITLE: TS BOND ANGLE DIHED IMPRP ELECT VDW BOUNDARY MISC KINETIC TOTAL TEMP POTENTIAL TOTALAVG TEMPAVG PRESSURE GPRESSURE VOLUME PRESSAVG GPRESSAVG
ENERGY: 0 0.5175 1.0657 0.0000 0.0000 -7278.9173 926.0419 0.0000 0.0000 1192.3370 -5158.9552 297.1824 -6351.2922 -5158.9552 297.1824 -851.3426 -763.9403 20988.6738 -851.3426 -763.9403
ENERGY: 300000 0.5975 0.6471 0.0000 0.0000 -7301.3248 995.5316 0.0000 0.0000 1231.6185 -5072.9301 306.9731 -6304.5486 -5114.5015 308.0161 482.0742 488.5797 20562.3774 -188.7096 -105.7637
ENERGY: 600000 0.0115 1.0062 0.0000 0.0000 -7279.2355 915.4683 0.0000 0.0000 1185.8843 -5176.8653 295.5741 -6362.7496 -5125.6610 305.3711 -1024.0306 -917.7959 20869.5551 -375.0466 -301.4514
ENERGY: 900000 0.8054 1.8116 0.0000 0.0000 -7508.6957 1048.9111 0.0000 0.0000 1203.0004 -5254.1671 299.8402 -6457.1675 -5132.4018 303.8155 433.0916 466.2590 20278.4325 -257.4784 -192.4579
ENERGY: 1200000 0.3078 2.8814 0.0000 0.0000 -7189.6584 912.6179 0.0000 0.0000 1224.5894 -5049.2618 305.2211 -6273.8512 -5127.9233 303.8502 -564.8649 -495.6463 20876.2046 -231.1039 -163.3995
ENERGY: 1500000 0.0707 0.7393 0.0000 0.0000 -7095.2224 854.1294 0.0000 0.0000 1188.7551 -5051.5279 296.2896 -6240.2830 -5128.6060 302.2528 -1265.2206 -1153.5679 21029.3711 -196.0568 -121.3131
TCL: Running FEP window  19: Lambda1 0.09999999999999969 Lambda2 0.049999999999999684 [dLambda -0.05 ]
TCL: Setting parameter firsttimestep to 0
TCL: Setting parameter alchLambda to 0.09999999999999969
Info: NONBONDED TABLE R-SQUARED SPACING: 0.0625
Info: NONBONDED TABLE SIZE: 705 POINTS
TCL: Setting parameter alchLambda2 to 0.049999999999999684
Info: NONBONDED TABLE R-SQUARED SPACING: 0.0625
Info: NONBONDED TABLE SIZE: 705 POINTS
TCL: Running for 1500000 steps
ETITLE: TS BOND ANGLE DIHED IMPRP ELECT VDW BOUNDARY MISC KINETIC TOTAL TEMP POTENTIAL TOTALAVG TEMPAVG PRESSURE GPRESSURE VOLUME PRESSAVG GPRESSAVG
ENERGY: 0 0.0707 0.7393 0.0000 0.0000 -7095.2231 854.2529 0.0000 0.0000 1188.1562 -5052.0040 296.1404 -6240.1602 -5052.0040 296.1404 -1234.8882 -1152.9700 21029.3711 -1234.8882 -1152.9700
ENERGY: 300000 0.0677 1.8769 0.0000 0.0000 -7349.5774 933.9638 0.0000 0.0000 1204.0780 -5209.5909 300.1088 -6413.6689 -5161.0968 301.0918 -787.2729 -748.4752 20637.0429 -642.0812 -605.4100
ENERGY: 600000 0.2592 6.5654 0.0000 0.0000 -7304.4593 935.5495 0.0000 0.0000 1205.9151 -5156.1701 300.5667 -6362.0852 -5157.5602 302.5235 -642.2384 -546.0775 20688.1700 -490.8143 -429.5949
ENERGY: 900000 0.0038 1.1699 0.0000 0.0000 -7368.9551 1036.9457 0.0000 0.0000 1189.1505 -5141.6853 296.3882 -6330.8358 -5150.1292 301.9462 791.7570 884.8805 20443.9004 -389.0820 -326.1024
ENERGY: 1200000 0.3756 1.3431 0.0000 0.0000 -7216.9269 935.0307 0.0000 0.0000 1178.6524 -5101.5251 293.7716 -6280.1776 -5135.6477 301.2432 -588.0591 -513.8679 21003.6373 -460.0439 -402.0589
ENERGY: 1500000 1.0866 0.6718 0.0000 0.0000 -7266.0247 965.2374 0.0000 0.0000 1232.6813 -5066.3476 307.2380 -6299.0289 -5126.6031 301.4258 -76.4827 -43.0918 20624.9484 -418.6177 -360.2306
TCL: Running FEP window  20: Lambda1 0.049999999999999684 Lambda2 0.0    [dLambda -0.049999999999999684]
TCL: Setting parameter firsttimestep to 0
TCL: Setting parameter alchLambda to 0.049999999999999684
Info: NONBONDED TABLE R-SQUARED SPACING: 0.0625
Info: NONBONDED TABLE SIZE: 705 POINTS
TCL: Setting parameter alchLambda2 to 0.0
Info: NONBONDED TABLE R-SQUARED SPACING: 0.0625
Info: NONBONDED TABLE SIZE: 705 POINTS
TCL: Running for 1500000 steps
ETITLE: TS BOND ANGLE DIHED IMPRP ELECT VDW BOUNDARY MISC KINETIC TOTAL TEMP POTENTIAL TOTALAVG TEMPAVG PRESSURE GPRESSURE VOLUME PRESSAVG GPRESSAVG
ENERGY: 0 1.0866 0.6718 0.0000 0.0000 -7266.0255 965.2973 0.0000 0.0000 1232.0638 -5066.9061 307.0840 -6298.9698 -5066.9061 307.0840 -119.4759 -41.6218 20624.9484 -119.4759 -41.6218
ENERGY: 300000 1.0499 1.2615 0.0000 0.0000 -7320.8758 981.1187 0.0000 0.0000 1211.9335 -5125.5121 302.0667 -6337.4456 -5126.9196 302.2533 188.0585 201.0435 20685.9210 -184.9066 -128.4717
ENERGY: 600000 0.0463 4.2457 0.0000 0.0000 -7326.8616 970.5749 0.0000 0.0000 1195.9011 -5156.0935 298.0707 -6351.9946 -5136.6134 301.4278 -174.4560 -62.8731 20293.8748 -4.8399 41.4873
ENERGY: 900000 0.4137 4.3554 0.0000 0.0000 -7406.7874 1066.8413 0.0000 0.0000 1187.9286 -5147.2485 296.0836 -6335.1771 -5137.8567 300.3963 946.0925 910.1660 20640.9163 172.6922 220.8093
ENERGY: 1200000 0.0235 3.5521 0.0000 0.0000 -7272.4202 957.1892 0.0000 0.0000 1172.5038 -5139.1516 292.2391 -6311.6555 -5130.2606 299.3837 -185.9159 -172.6917 20679.6469 190.6279 239.0687
ENERGY: 1500000 0.0061 4.6680 0.0000 0.0000 -7325.5988 1007.1354 0.0000 0.0000 1193.0287 -5120.7607 297.3548 -6313.7893 -5135.9237 299.1199 88.4998 175.9158 20974.4893 133.6353 187.0389
TCL: Exiting due to exit command.
