Info: SIMULATION PARAMETERS:
Info: TIMESTEP               2
Info: NUMBER OF STEPS        0
Info: STEPS PER CYCLE        10
Info: PERIODIC CELL BASIS 1  27.4668 0 0
Info: PERIODIC CELL BASIS 2  0 27.7039 0
Info: PERIODIC CELL BASIS 3  0 0 27.4239
Info: PERIODIC CELL CENTER   0 0 0
Info: WRAPPING WATERS AROUND PERIODIC BOUNDARIES ON OUTPUT.
Info: WRAPPING ALL CLUSTERS AROUND PERIODIC BOUNDARIES ON OUTPUT.
Info: FIRST LDB TIMESTEP     50
Info: LAST LDB TIMESTEP     -1
Info: HOM BACKGROUND SCALING 1
Info: PME BACKGROUND SCALING 1
Info: MIN ATOMS PER PATCH    40
Info: EMPTY PATCH LOAD       40 ATOMS
Info: VELOCITY FILE          mobley_9029594_equil.vel
Info: CENTER OF MASS MOVING INITIALLY? NO
Info: DIELECTRIC             1
Info: EXCLUDE                SCALED ONE-FOUR
Info: 1-4 ELECTROSTATICS SCALED BY 0.833333
Info: MODIFIED 1-4 VDW PARAMETERS WILL BE USED
Info: DCD FILENAME           mobley_9029594_prod.dcd
Info: DCD FREQUENCY          100000
Info: DCD FIRST STEP         100000
Info: DCD FILE WILL CONTAIN UNIT CELL DATA
Info: XST FILENAME           mobley_9029594_prod.xst
Info: XST FREQUENCY          100000
Info: NO VELOCITY DCD OUTPUT
Info: NO FORCE DCD OUTPUT
Info: OUTPUT FILENAME        mobley_9029594_prod
Info: BINARY OUTPUT FILES WILL BE USED
Info: NO RESTART FILE
Info: CUTOFF                 9
Info: PAIRLIST DISTANCE      11
Info: PAIRLIST SHRINK RATE   0.01
Info: PAIRLIST GROW RATE     0.01
Info: PAIRLIST TRIGGER       0.3
Info: PAIRLISTS PER CYCLE    2
Info: PAIRLISTS ENABLED
Info: MARGIN                 2
Info: HYDROGEN GROUP CUTOFF  2.5
Info: PATCH DIMENSION        15.5
Info: ENERGY OUTPUT STEPS    100000
Info: ENERGY EVALUATION STEPS    100000
Info: OUTPUT ENERGY PRECISION 4
Info: CROSSTERM ENERGY INCLUDED IN DIHEDRAL
Info: TIMING OUTPUT STEPS    1000000
Info: PRESSURE OUTPUT STEPS  100000
Info: ALCHEMICAL FEP ON
Info: FEP CURRENT LAMBDA VALUE     0
Info: FEP COMPARISON LAMBDA VALUE  0.05
Info: FEP INTRA-ALCHEMICAL NON-BONDED INTERACTIONS WILL BE RETAINED
Info: FEP INTRA-ALCHEMICAL BONDED INTERACTIONS WILL BE RETAINED
Info: FEP VDW SHIFTING COEFFICIENT 5
Info: FEP ELEC. ACTIVE FOR ANNIHILATED PARTICLES BETWEEN LAMBDA = 0 AND LAMBDA = 0.5
Info: FEP ELEC. ACTIVE FOR EXNIHILATED PARTICLES BETWEEN LAMBDA = 0.5 AND LAMBDA = 1
Info: FEP VDW ACTIVE FOR ANNIHILATED PARTICLES BETWEEN LAMBDA = 0 AND LAMBDA = 1
Info: FEP VDW ACTIVE FOR EXNIHILATED PARTICLES BETWEEN LAMBDA = 0 AND LAMBDA = 1
Info: FEP BOND ACTIVE FOR ANNIHILATED PARTICLES BETWEEN LAMBDA = 1 AND LAMBDA = 1
Info: FEP BOND ACTIVE FOR EXNIHILATED PARTICLES BETWEEN LAMBDA = 0 AND LAMBDA = 0
Info: LANGEVIN DYNAMICS ACTIVE
Info: LANGEVIN TEMPERATURE   300
Info: LANGEVIN USING BBK INTEGRATOR
Info: LANGEVIN DAMPING COEFFICIENT IS 1 INVERSE PS
Info: LANGEVIN DYNAMICS APPLIED TO HYDROGENS
Info: LANGEVIN PISTON PRESSURE CONTROL ACTIVE
Info:        TARGET PRESSURE IS 1.01325 BAR
Info:     OSCILLATION PERIOD IS 50 FS
Info:             DECAY TIME IS 25 FS
Info:     PISTON TEMPERATURE IS 300 K
Info:       PRESSURE CONTROL IS GROUP-BASED
Info:    INITIAL STRAIN RATE IS 0.00015566 0.00015566 0.00015566
Info:       CELL FLUCTUATION IS ISOTROPIC
Info: PARTICLE MESH EWALD (PME) ACTIVE
Info: PME TOLERANCE               1e-06
Info: PME EWALD COEFFICIENT       0.348832
Info: PME INTERPOLATION ORDER     4
Info: PME GRID DIMENSIONS         28 28 28
Info: PME MAXIMUM GRID SPACING    1
Info: PME CALCULATION WILL BE PERFORMED ON GPU
Info: FULL ELECTROSTATIC EVALUATION FREQUENCY      2
Info: USING VERLET I (r-RESPA) MTS SCHEME.
Info: C1 SPLITTING OF LONG RANGE ELECTROSTATICS
Info: PLACING ATOMS IN PATCHES BY HYDROGEN GROUPS
Info: RIGID BONDS TO HYDROGEN : ALL
Info:         ERROR TOLERANCE : 1e-08
Info:          MAX ITERATIONS : 100
Info: RIGID WATER USING SETTLE ALGORITHM
Info: RANDOM NUMBER SEED     1741647972
Info: USE HYDROGEN BONDS?    NO
Info: Using AMBER format force field!
Info: AMBER PARM FILE        mobley_9029594.prmtop
Info: COORDINATE PDB         mobley_9029594.pdb
Info: Exclusions will be read from PARM file!
Info: SCNB (VDW SCALING)     2
Info: USING ARITHMETIC MEAN TO COMBINE L-J SIGMA PARAMETERS
Info: BINARY COORDINATES     mobley_9029594_equil.coor
Info: SUMMARY OF PARAMETERS:
Info: 4 BONDS
Info: 2 ANGLES
Info:   2 HARMONIC
Info:   0 COSINE-BASED
Info: 0 DIHEDRAL
Info: 0 IMPROPER
Info: 0 CROSSTERM
Info: 0 VDW
Info: 15 VDW_PAIRS
Info: 0 NBTHOLE_PAIRS
Info: To read alchdata from file: mobley_9029594.pdb
Info: To read alchflag data from column: 5
Info: STRUCTURE SUMMARY:
Info: 2018 ATOMS
Info: 2017 BONDS
Info: 6 ANGLES
Info: 0 DIHEDRALS
Info: 0 IMPROPERS
Info: 0 CROSSTERMS
Info: 2023 EXCLUSIONS
Info: 2016 RIGID BONDS
Info: ALCH: 0 ATOMS TO DISAPPEAR IN FINAL STATE
Info: ALCH: 5 ATOMS TO APPEAR IN FINAL STATE
Info: 4038 DEGREES OF FREEDOM
Info: 673 HYDROGEN GROUPS
Info: 4 ATOMS IN LARGEST HYDROGEN GROUP
Info: 673 MIGRATION GROUPS
Info: 4 ATOMS IN LARGEST MIGRATION GROUP
Info: TOTAL MASS = 12122.8 amu
Info: TOTAL CHARGE = 7.45058e-09 e
Info: MASS DENSITY = 0.964681 g/cm^3
Info: ATOM DENSITY = 0.0967038 atoms/A^3
Info: ADDED 0 IMPLICIT EXCLUSIONS
Info: NONBONDED TABLE R-SQUARED SPACING: 0.0625
Info: NONBONDED TABLE SIZE: 705 POINTS
Info: REMOVING COM VELOCITY 0.0315347 -0.0565927 -0.13239
Info: Use 3D box decompostion in PME FFT.
Info: Updated CUDA force table with 4096 elements.
Info: Updated CUDA LJ table with 5 x 5 elements.
Info: Found 8 unique exclusion lists needing 8 bytes
TCL: Running for 1500000 steps
ETITLE: TS BOND ANGLE DIHED IMPRP ELECT VDW BOUNDARY MISC KINETIC TOTAL TEMP POTENTIAL TOTALAVG TEMPAVG PRESSURE GPRESSURE VOLUME PRESSAVG GPRESSAVG
ENERGY: 0 0.6905 0.6564 0.0000 0.0000 -7283.7799 939.9601 0.0000 0.0000 1236.8081 -5105.6647 308.2665 -6342.4728 -5105.6647 308.2665 -716.8933 -642.0917 20867.8435 -716.8933 -642.0917
ENERGY: 300000 0.1843 1.2102 0.0000 0.0000 -7403.9497 1019.6892 0.0000 0.0000 1257.6609 -5125.2051 313.4640 -6382.8660 -5137.0895 303.7653 357.7015 402.5808 20422.2498 -342.2044 -287.5808
ENERGY: 600000 0.1227 1.0765 0.0000 0.0000 -7273.6974 930.7066 0.0000 0.0000 1185.5430 -5156.2487 295.4890 -6341.7917 -5143.2628 301.7032 -768.1784 -720.6453 20773.9638 -445.4181 -381.6199
ENERGY: 900000 0.3887 1.2235 0.0000 0.0000 -7244.0002 905.6301 0.0000 0.0000 1193.8685 -5142.8893 297.5641 -6336.7578 -5150.7800 300.0436 -951.8655 -904.7989 20644.6372 -455.7881 -389.4126
ENERGY: 1200000 0.1839 1.1263 0.0000 0.0000 -7272.2702 950.8315 0.0000 0.0000 1178.5511 -5141.5774 293.7464 -6320.1285 -5148.0628 299.1788 -53.7198 21.1958 20186.1165 -376.2555 -314.7411
ENERGY: 1500000 0.2111 1.8289 0.0000 0.0000 -7353.1019 979.5991 0.0000 0.0000 1192.2219 -5179.2409 297.1537 -6371.4628 -5148.8467 299.2406 -216.0973 -148.0720 20726.6075 -296.7772 -236.4874
TCL: Running FEP window   2: Lambda1 0.05   Lambda2 0.1    [dLambda 0.05  ]
TCL: Setting parameter firsttimestep to 0
TCL: Setting parameter alchLambda to 0.05
Info: NONBONDED TABLE R-SQUARED SPACING: 0.0625
Info: NONBONDED TABLE SIZE: 705 POINTS
TCL: Setting parameter alchLambda2 to 0.1
Info: NONBONDED TABLE R-SQUARED SPACING: 0.0625
Info: NONBONDED TABLE SIZE: 705 POINTS
TCL: Running for 1500000 steps
ETITLE: TS BOND ANGLE DIHED IMPRP ELECT VDW BOUNDARY MISC KINETIC TOTAL TEMP POTENTIAL TOTALAVG TEMPAVG PRESSURE GPRESSURE VOLUME PRESSAVG GPRESSAVG
ENERGY: 0 0.2111 1.8289 0.0000 0.0000 -7353.1020 980.0554 0.0000 0.0000 1191.6190 -5179.3875 297.0035 -6371.0066 -5179.3875 297.0035 -223.3615 -146.2775 20726.6075 -223.3615 -146.2775
ENERGY: 300000 0.1406 0.7583 0.0000 0.0000 -7343.2231 1008.1728 0.0000 0.0000 1202.9145 -5131.2369 299.8188 -6334.1514 -5151.9990 300.0135 370.7494 426.2265 20500.5634 149.1027 229.7231
ENERGY: 600000 0.0121 2.2022 0.0000 0.0000 -7392.3668 1042.9760 0.0000 0.0000 1212.2896 -5134.8868 302.1555 -6347.1764 -5150.3932 301.5424 760.4205 854.1516 20559.0451 89.2645 167.5301
ENERGY: 900000 0.1377 1.5282 0.0000 0.0000 -7196.8971 898.2661 0.0000 0.0000 1246.4153 -5050.5498 310.6611 -6296.9651 -5150.1399 299.7803 -1189.7876 -1050.0575 21196.1137 12.7055 84.9292
ENERGY: 1200000 0.3909 2.5829 0.0000 0.0000 -7406.4406 1060.4607 0.0000 0.0000 1220.1989 -5122.8071 304.1268 -6343.0060 -5152.2698 299.5047 741.2822 801.6089 20667.8295 123.9823 188.7846
ENERGY: 1500000 0.0950 4.3694 0.0000 0.0000 -7333.2657 962.4622 0.0000 0.0000 1214.6394 -5151.6997 302.7411 -6366.3391 -5149.6179 300.7745 -256.0143 -231.6935 20609.7894 66.5429 123.3198
TCL: Running FEP window   3: Lambda1 0.1    Lambda2 0.15000000000000002 [dLambda 0.05000000000000002]
TCL: Setting parameter firsttimestep to 0
TCL: Setting parameter alchLambda to 0.1
Info: NONBONDED TABLE R-SQUARED SPACING: 0.0625
Info: NONBONDED TABLE SIZE: 705 POINTS
TCL: Setting parameter alchLambda2 to 0.15000000000000002
Info: NONBONDED TABLE R-SQUARED SPACING: 0.0625
Info: NONBONDED TABLE SIZE: 705 POINTS
TCL: Running for 1500000 steps
ETITLE: TS BOND ANGLE DIHED IMPRP ELECT VDW BOUNDARY MISC KINETIC TOTAL TEMP POTENTIAL TOTALAVG TEMPAVG PRESSURE GPRESSURE VOLUME PRESSAVG GPRESSAVG
ENERGY: 0 0.0950 4.3695 0.0000 0.0000 -7333.2656 962.7065 0.0000 0.0000 1214.0495 -5152.0452 302.5941 -6366.0946 -5152.0452 302.5941 -324.7360 -229.9716 20609.7894 -324.7360 -229.9716
ENERGY: 300000 0.0973 1.3030 0.0000 0.0000 -7346.5573 1024.2230 0.0000 0.0000 1189.7928 -5131.1411 296.5483 -6320.9339 -5140.6184 297.7204 379.6300 471.4263 20775.4336 11.6239 71.7308
ENERGY: 600000 0.0121 2.3050 0.0000 0.0000 -7213.9571 950.0315 0.0000 0.0000 1218.2087 -5043.3998 303.6308 -6261.6085 -5126.6716 300.7848 -444.6237 -301.9909 21106.7805 -72.1710 -7.1634
ENERGY: 900000 0.7166 1.0963 0.0000 0.0000 -7268.4625 952.6433 0.0000 0.0000 1199.5523 -5114.4540 298.9808 -6314.0063 -5135.5927 298.7644 -267.3098 -158.0576 20746.0906 -109.8001 -42.3262
ENERGY: 1200000 0.7239 2.7694 0.0000 0.0000 -7270.3459 925.4821 0.0000 0.0000 1222.9681 -5118.4024 304.8170 -6341.3705 -5133.5727 299.7627 -718.7212 -694.8755 20873.4022 -158.4004 -90.8441
ENERGY: 1500000 0.0119 7.1619 0.0000 0.0000 -7284.2524 987.1892 0.0000 0.0000 1210.7727 -5079.1167 301.7774 -6289.8895 -5133.2930 299.8257 -50.1017 -11.5821 21182.3605 -93.9295 -29.3535
TCL: Running FEP window   4: Lambda1 0.15000000000000002 Lambda2 0.2    [dLambda 0.04999999999999999]
TCL: Setting parameter firsttimestep to 0
TCL: Setting parameter alchLambda to 0.15000000000000002
Info: NONBONDED TABLE R-SQUARED SPACING: 0.0625
Info: NONBONDED TABLE SIZE: 705 POINTS
TCL: Setting parameter alchLambda2 to 0.2
Info: NONBONDED TABLE R-SQUARED SPACING: 0.0625
Info: NONBONDED TABLE SIZE: 705 POINTS
TCL: Running for 1500000 steps
ETITLE: TS BOND ANGLE DIHED IMPRP ELECT VDW BOUNDARY MISC KINETIC TOTAL TEMP POTENTIAL TOTALAVG TEMPAVG PRESSURE GPRESSURE VOLUME PRESSAVG GPRESSAVG
ENERGY: 0 0.0119 7.1619 0.0000 0.0000 -7284.2524 987.6048 0.0000 0.0000 1210.1497 -5079.3241 301.6221 -6289.4738 -5079.3241 301.6221 -88.1287 -4.9366 21182.3605 -88.1287 -4.9366
ENERGY: 300000 1.6061 1.4289 0.0000 0.0000 -7295.0215 959.2359 0.0000 0.0000 1198.0398 -5134.7108 298.6038 -6332.7506 -5114.9812 298.9291 -200.0935 -136.4402 20712.8972 -133.7087 -44.8256
ENERGY: 600000 2.0003 0.7602 0.0000 0.0000 -7320.7208 910.0639 0.0000 0.0000 1199.2581 -5208.6383 298.9074 -6407.8964 -5129.1412 300.5511 -921.5134 -797.6828 20487.5177 -52.0864 34.8674
ENERGY: 900000 0.3331 1.1425 0.0000 0.0000 -7412.9032 997.4483 0.0000 0.0000 1183.4719 -5230.5074 294.9728 -6413.9793 -5151.4856 299.5661 -163.5424 -121.6108 20593.9128 77.3510 160.4929
ENERGY: 1200000 0.8012 1.6709 0.0000 0.0000 -7337.4826 1019.7217 0.0000 0.0000 1199.6018 -5115.6870 298.9931 -6315.2888 -5149.7481 299.9866 360.2728 496.3554 20703.0267 34.7373 113.8630
ENERGY: 1500000 1.6217 0.3375 0.0000 0.0000 -7356.5211 985.6462 0.0000 0.0000 1191.6401 -5177.2757 297.0087 -6368.9158 -5152.8151 299.1415 -87.8296 -8.0798 20682.3089 19.2968 99.9012
TCL: Running FEP window   5: Lambda1 0.2    Lambda2 0.25   [dLambda 0.04999999999999999]
TCL: Setting parameter firsttimestep to 0
TCL: Setting parameter alchLambda to 0.2
Info: NONBONDED TABLE R-SQUARED SPACING: 0.0625
Info: NONBONDED TABLE SIZE: 705 POINTS
TCL: Setting parameter alchLambda2 to 0.25
Info: NONBONDED TABLE R-SQUARED SPACING: 0.0625
Info: NONBONDED TABLE SIZE: 705 POINTS
TCL: Running for 1500000 steps
ETITLE: TS BOND ANGLE DIHED IMPRP ELECT VDW BOUNDARY MISC KINETIC TOTAL TEMP POTENTIAL TOTALAVG TEMPAVG PRESSURE GPRESSURE VOLUME PRESSAVG GPRESSAVG
ENERGY: 0 1.6217 0.3375 0.0000 0.0000 -7356.5208 985.7758 0.0000 0.0000 1191.0291 -5177.7568 296.8564 -6368.7858 -5177.7568 296.8564 -115.2147 -8.1232 20682.3089 -115.2147 -8.1232
ENERGY: 300000 0.0294 1.9716 0.0000 0.0000 -7367.2733 990.2960 0.0000 0.0000 1185.8966 -5189.0797 295.5772 -6374.9763 -5143.8307 299.7226 -223.6712 -168.4103 20716.9766 -485.2524 -416.7535
ENERGY: 600000 1.0342 0.4841 0.0000 0.0000 -7432.6678 1059.6185 0.0000 0.0000 1227.5391 -5143.9920 305.9563 -6371.5310 -5133.3226 300.7343 774.8370 833.6759 20712.7490 -55.2743 6.8636
ENERGY: 900000 0.4235 1.2091 0.0000 0.0000 -7252.1369 927.2817 0.0000 0.0000 1190.8458 -5132.3768 296.8107 -6323.2226 -5140.5897 299.8590 -771.1260 -625.7108 20699.9383 13.4921 87.0461
ENERGY: 1200000 0.1624 2.2169 0.0000 0.0000 -7313.6803 962.6571 0.0000 0.0000 1232.1203 -5116.5237 307.0981 -6348.6439 -5134.1382 299.7573 -216.7443 -154.4069 20601.6987 -28.9157 40.6128
ENERGY: 1500000 0.2018 1.6692 0.0000 0.0000 -7416.0604 1065.7611 0.0000 0.0000 1164.9657 -5183.4627 290.3603 -6348.4283 -5145.3321 299.2102 787.0497 831.7804 20639.4311 33.5584 105.1304
TCL: Running FEP window   6: Lambda1 0.25   Lambda2 0.3    [dLambda 0.04999999999999999]
TCL: Setting parameter firsttimestep to 0
TCL: Setting parameter alchLambda to 0.25
Info: NONBONDED TABLE R-SQUARED SPACING: 0.0625
Info: NONBONDED TABLE SIZE: 705 POINTS
TCL: Setting parameter alchLambda2 to 0.3
Info: NONBONDED TABLE R-SQUARED SPACING: 0.0625
Info: NONBONDED TABLE SIZE: 705 POINTS
TCL: Running for 1500000 steps
ETITLE: TS BOND ANGLE DIHED IMPRP ELECT VDW BOUNDARY MISC KINETIC TOTAL TEMP POTENTIAL TOTALAVG TEMPAVG PRESSURE GPRESSURE VOLUME PRESSAVG GPRESSAVG
ENERGY: 0 0.2018 1.6692 0.0000 0.0000 -7416.0600 1065.8663 0.0000 0.0000 1164.3450 -5183.9778 290.2056 -6348.3227 -5183.9778 290.2056 726.7211 832.2027 20639.4311 726.7211 832.2027
ENERGY: 300000 0.8930 1.7077 0.0000 0.0000 -7322.3815 969.2170 0.0000 0.0000 1158.4988 -5192.0650 288.7484 -6350.5638 -5170.3779 291.0006 -559.3441 -362.2498 20880.7202 -152.3410 -21.9936
ENERGY: 600000 0.0961 0.7987 0.0000 0.0000 -7384.3356 1022.2273 0.0000 0.0000 1215.9748 -5145.2387 303.0740 -6361.2134 -5150.6006 296.4383 496.4248 553.4958 20665.4804 93.1867 196.1915
ENERGY: 900000 0.1178 1.7679 0.0000 0.0000 -7231.4386 931.9066 0.0000 0.0000 1229.8564 -5067.7900 306.5339 -6297.6464 -5142.7463 298.3285 -707.2497 -611.2636 20949.1606 -75.6317 8.8588
ENERGY: 1200000 0.3099 0.9381 0.0000 0.0000 -7272.1054 953.5777 0.0000 0.0000 1190.0100 -5127.2698 296.6024 -6317.2798 -5148.1612 297.9593 -299.5778 -211.0513 20708.7844 -73.5511 9.3520
ENERGY: 1500000 0.1894 0.6861 0.0000 0.0000 -7247.1182 919.6875 0.0000 0.0000 1144.3961 -5182.1591 285.2334 -6326.5553 -5156.3248 296.5010 -529.5527 -468.1985 20436.1641 -66.6150 12.8337
TCL: Running FEP window   7: Lambda1 0.3    Lambda2 0.35   [dLambda 0.04999999999999999]
TCL: Setting parameter firsttimestep to 0
TCL: Setting parameter alchLambda to 0.3
Info: NONBONDED TABLE R-SQUARED SPACING: 0.0625
Info: NONBONDED TABLE SIZE: 705 POINTS
TCL: Setting parameter alchLambda2 to 0.35
Info: NONBONDED TABLE R-SQUARED SPACING: 0.0625
Info: NONBONDED TABLE SIZE: 705 POINTS
TCL: Running for 1500000 steps
ETITLE: TS BOND ANGLE DIHED IMPRP ELECT VDW BOUNDARY MISC KINETIC TOTAL TEMP POTENTIAL TOTALAVG TEMPAVG PRESSURE GPRESSURE VOLUME PRESSAVG GPRESSAVG
ENERGY: 0 0.1894 0.6861 0.0000 0.0000 -7247.1193 919.5696 0.0000 0.0000 1143.7925 -5182.8818 285.0830 -6326.6743 -5182.8818 285.0830 -560.3649 -463.2894 20436.1641 -560.3649 -463.2894
ENERGY: 300000 0.0577 1.0832 0.0000 0.0000 -7327.4477 1014.5976 0.0000 0.0000 1222.7618 -5088.9474 304.7656 -6311.7092 -5147.4152 301.4058 271.2088 384.3244 20894.9058 -439.7103 -349.5226
ENERGY: 600000 0.1978 2.0944 0.0000 0.0000 -7278.2848 958.0966 0.0000 0.0000 1203.3851 -5114.5109 299.9361 -6317.8960 -5145.5883 299.5983 -357.7468 -295.7420 20714.5709 -249.2800 -172.8507
ENERGY: 900000 0.0925 0.7412 0.0000 0.0000 -7276.1073 929.7794 0.0000 0.0000 1238.3221 -5107.1722 308.6439 -6345.4943 -5145.7460 299.9891 -682.3399 -619.3652 21078.2131 -248.6282 -169.5455
ENERGY: 1200000 0.4007 1.7634 0.0000 0.0000 -7448.9815 1022.0939 0.0000 0.0000 1202.1900 -5222.5335 299.6382 -6424.7235 -5151.6500 299.8414 296.4901 352.8018 20310.8967 -109.4916 -41.0708
ENERGY: 1500000 0.1469 1.6852 0.0000 0.0000 -7275.5826 964.8505 0.0000 0.0000 1218.1100 -5090.7900 303.6062 -6308.9000 -5151.8644 299.4856 -349.5354 -302.0062 21151.0112 -178.4930 -115.3222
TCL: Running FEP window   8: Lambda1 0.35   Lambda2 0.39999999999999997 [dLambda 0.04999999999999999]
TCL: Setting parameter firsttimestep to 0
TCL: Setting parameter alchLambda to 0.35
Info: NONBONDED TABLE R-SQUARED SPACING: 0.0625
Info: NONBONDED TABLE SIZE: 705 POINTS
TCL: Setting parameter alchLambda2 to 0.39999999999999997
Info: NONBONDED TABLE R-SQUARED SPACING: 0.0625
Info: NONBONDED TABLE SIZE: 705 POINTS
TCL: Running for 1500000 steps
ETITLE: TS BOND ANGLE DIHED IMPRP ELECT VDW BOUNDARY MISC KINETIC TOTAL TEMP POTENTIAL TOTALAVG TEMPAVG PRESSURE GPRESSURE VOLUME PRESSAVG GPRESSAVG
ENERGY: 0 0.1469 1.6852 0.0000 0.0000 -7275.5831 965.0168 0.0000 0.0000 1217.5421 -5091.1920 303.4646 -6308.7341 -5091.1920 303.4646 -349.6638 -298.0324 21151.0112 -349.6638 -298.0324
ENERGY: 300000 0.0118 0.3022 0.0000 0.0000 -7305.1997 940.6827 0.0000 0.0000 1163.5254 -5200.6776 290.0013 -6364.2030 -5163.3593 296.7149 -697.9650 -697.5441 20715.7279 -342.5412 -285.0334
ENERGY: 600000 0.0415 4.0140 0.0000 0.0000 -7264.0748 911.4271 0.0000 0.0000 1216.1581 -5132.4342 303.1197 -6348.5923 -5151.9623 297.8174 -654.8252 -573.8548 20541.9373 -494.6187 -440.2659
ENERGY: 900000 0.0211 1.7131 0.0000 0.0000 -7341.6686 979.6308 0.0000 0.0000 1194.1299 -5166.1737 297.6293 -6360.3036 -5147.8870 296.5034 -120.0190 -106.9358 20667.4349 -412.9027 -356.8908
ENERGY: 1200000 0.0486 2.6022 0.0000 0.0000 -7307.9520 957.0949 0.0000 0.0000 1216.3288 -5131.8775 303.1622 -6348.2063 -5139.8797 297.5554 -255.7115 -190.6029 20649.5568 -323.8645 -267.7818
ENERGY: 1500000 0.3310 1.0018 0.0000 0.0000 -7314.4474 987.0427 0.0000 0.0000 1211.8447 -5114.2272 302.0446 -6326.0719 -5136.9894 298.7760 43.1055 109.2169 20684.8968 -235.0524 -175.1542
TCL: Running FEP window   9: Lambda1 0.39999999999999997 Lambda2 0.44999999999999996 [dLambda 0.04999999999999999]
TCL: Setting parameter firsttimestep to 0
TCL: Setting parameter alchLambda to 0.39999999999999997
Info: NONBONDED TABLE R-SQUARED SPACING: 0.0625
Info: NONBONDED TABLE SIZE: 705 POINTS
TCL: Setting parameter alchLambda2 to 0.44999999999999996
Info: NONBONDED TABLE R-SQUARED SPACING: 0.0625
Info: NONBONDED TABLE SIZE: 705 POINTS
TCL: Running for 1500000 steps
ETITLE: TS BOND ANGLE DIHED IMPRP ELECT VDW BOUNDARY MISC KINETIC TOTAL TEMP POTENTIAL TOTALAVG TEMPAVG PRESSURE GPRESSURE VOLUME PRESSAVG GPRESSAVG
ENERGY: 0 0.3310 1.0018 0.0000 0.0000 -7314.4469 987.4935 0.0000 0.0000 1211.2462 -5114.3745 301.8954 -6325.6206 -5114.3745 301.8954 49.4599 120.0863 20684.8968 49.4599 120.0863
ENERGY: 300000 0.0149 1.3648 0.0000 0.0000 -7267.6711 961.4250 0.0000 0.0000 1168.1659 -5136.7005 291.1579 -6304.8664 -5131.4557 298.4468 -284.7744 -204.0968 20922.3079 -109.3618 -43.4249
ENERGY: 600000 0.2240 2.6195 0.0000 0.0000 -7413.6891 1049.7857 0.0000 0.0000 1168.2814 -5192.7785 291.1867 -6361.0600 -5139.7806 297.1473 239.9946 377.2233 20804.2062 -14.5683 59.9791
ENERGY: 900000 0.2060 0.7984 0.0000 0.0000 -7361.2840 973.5211 0.0000 0.0000 1232.8330 -5153.9256 307.2758 -6386.7585 -5141.0486 296.8779 -354.9083 -181.3561 20737.1545 -213.2921 -134.8337
ENERGY: 1200000 0.0054 1.2251 0.0000 0.0000 -7308.3154 967.4967 0.0000 0.0000 1173.2388 -5166.3493 292.4223 -6339.5882 -5137.0459 297.4322 -160.7088 -121.6125 20534.5723 -337.7047 -260.3678
ENERGY: 1500000 0.3844 0.4812 0.0000 0.0000 -7366.6451 986.3973 0.0000 0.0000 1194.9426 -5184.4397 297.8318 -6379.3823 -5134.1251 298.8444 -19.3742 -21.3127 20650.8987 -229.5404 -159.1121
TCL: Running FEP window  10: Lambda1 0.44999999999999996 Lambda2 0.49999999999999994 [dLambda 0.04999999999999999]
TCL: Setting parameter firsttimestep to 0
TCL: Setting parameter alchLambda to 0.44999999999999996
Info: NONBONDED TABLE R-SQUARED SPACING: 0.0625
Info: NONBONDED TABLE SIZE: 705 POINTS
TCL: Setting parameter alchLambda2 to 0.49999999999999994
Info: NONBONDED TABLE R-SQUARED SPACING: 0.0625
Info: NONBONDED TABLE SIZE: 705 POINTS
TCL: Running for 1500000 steps
ETITLE: TS BOND ANGLE DIHED IMPRP ELECT VDW BOUNDARY MISC KINETIC TOTAL TEMP POTENTIAL TOTALAVG TEMPAVG PRESSURE GPRESSURE VOLUME PRESSAVG GPRESSAVG
ENERGY: 0 0.3844 0.4812 0.0000 0.0000 -7366.6460 986.5896 0.0000 0.0000 1194.3129 -5184.8780 297.6749 -6379.1909 -5184.8780 297.6749 -106.9804 -14.0874 20650.8987 -106.9804 -14.0874
ENERGY: 300000 0.5795 1.5789 0.0000 0.0000 -7405.8889 1019.4707 0.0000 0.0000 1225.1548 -5159.1049 305.3620 -6384.2597 -5128.0857 299.5371 355.0981 359.0999 20693.6035 247.8215 263.9559
ENERGY: 600000 0.4256 2.1776 0.0000 0.0000 -7323.6503 930.6175 0.0000 0.0000 1174.3463 -5216.0833 292.6983 -6390.4296 -5134.2976 301.7237 -717.2094 -657.7555 20671.0994 -55.3656 -19.5555
ENERGY: 900000 0.2404 1.5431 0.0000 0.0000 -7323.5914 948.4588 0.0000 0.0000 1176.8606 -5196.4885 293.3250 -6373.3491 -5140.5753 300.3895 -470.3672 -475.0091 20493.0183 -114.4437 -70.8130
ENERGY: 1200000 0.2736 1.4690 0.0000 0.0000 -7339.5758 1012.1967 0.0000 0.0000 1214.0238 -5111.6127 302.5877 -6325.6365 -5133.6747 301.3198 428.9911 464.6323 20569.3531 20.0284 60.7760
ENERGY: 1500000 0.0216 1.9696 0.0000 0.0000 -7302.0551 969.5907 0.0000 0.0000 1172.5479 -5157.9253 292.2501 -6330.4732 -5136.4087 299.7336 -177.7111 -223.5539 20711.9495 31.0297 65.1995
TCL: Running FEP window  11: Lambda1 0.49999999999999994 Lambda2 0.5499999999999999 [dLambda 0.04999999999999999]
TCL: Setting parameter firsttimestep to 0
TCL: Setting parameter alchLambda to 0.49999999999999994
Info: NONBONDED TABLE R-SQUARED SPACING: 0.0625
Info: NONBONDED TABLE SIZE: 705 POINTS
TCL: Setting parameter alchLambda2 to 0.5499999999999999
Info: NONBONDED TABLE R-SQUARED SPACING: 0.0625
Info: NONBONDED TABLE SIZE: 705 POINTS
TCL: Running for 1500000 steps
ETITLE: TS BOND ANGLE DIHED IMPRP ELECT VDW BOUNDARY MISC KINETIC TOTAL TEMP POTENTIAL TOTALAVG TEMPAVG PRESSURE GPRESSURE VOLUME PRESSAVG GPRESSAVG
ENERGY: 0 0.0216 1.9696 0.0000 0.0000 -7302.0560 969.5153 0.0000 0.0000 1171.9470 -5158.6025 292.1003 -6330.5494 -5158.6025 292.1003 -297.8129 -225.3005 20711.9495 -297.8129 -225.3005
ENERGY: 300000 0.2558 1.7856 0.0000 0.0000 -7278.6746 974.4687 0.0000 0.0000 1263.0775 -5039.0870 314.8140 -6302.1645 -5105.6528 305.1383 -8.0929 46.9220 20802.0788 -45.4350 9.5256
ENERGY: 600000 0.0080 0.5987 0.0000 0.0000 -7390.1478 1029.4476 0.0000 0.0000 1184.5172 -5175.5763 295.2334 -6360.0935 -5137.7580 301.7677 521.2128 525.5643 20360.5352 137.1146 173.1433
ENERGY: 900000 0.0053 2.2234 0.0000 0.0000 -7167.6264 884.7165 0.0000 0.0000 1256.3226 -5024.3587 313.1304 -6280.6813 -5121.1207 302.2217 -1069.4659 -1020.3981 21278.3143 -93.1195 -38.9881
ENERGY: 1200000 0.0260 0.5910 0.0000 0.0000 -7114.3469 808.5113 0.0000 0.0000 1220.6065 -5084.6120 304.2284 -6305.2186 -5121.6578 302.6104 -1900.6570 -1858.6868 20868.4640 -223.6729 -164.0744
ENERGY: 1500000 0.0192 1.1079 0.0000 0.0000 -7412.7680 997.0487 0.0000 0.0000 1202.7267 -5211.8655 299.7720 -6414.5921 -5132.1872 302.3757 -64.1959 76.4009 20373.6453 -219.7298 -157.4337
TCL: Running FEP window  12: Lambda1 0.5499999999999999 Lambda2 0.6    [dLambda 0.050000000000000044]
TCL: Setting parameter firsttimestep to 0
TCL: Setting parameter alchLambda to 0.5499999999999999
Info: NONBONDED TABLE R-SQUARED SPACING: 0.0625
Info: NONBONDED TABLE SIZE: 705 POINTS
TCL: Setting parameter alchLambda2 to 0.6
Info: NONBONDED TABLE R-SQUARED SPACING: 0.0625
Info: NONBONDED TABLE SIZE: 705 POINTS
TCL: Running for 1500000 steps
ETITLE: TS BOND ANGLE DIHED IMPRP ELECT VDW BOUNDARY MISC KINETIC TOTAL TEMP POTENTIAL TOTALAVG TEMPAVG PRESSURE GPRESSURE VOLUME PRESSAVG GPRESSAVG
ENERGY: 0 0.0192 1.1079 0.0000 0.0000 -7412.6746 997.0794 0.0000 0.0000 1202.1380 -5212.3301 299.6252 -6414.4680 -5212.3301 299.6252 -18.0285 80.6606 20373.6453 -18.0285 80.6606
ENERGY: 300000 0.0056 2.6973 0.0000 0.0000 -7491.8509 1076.4757 0.0000 0.0000 1197.4059 -5215.2664 298.4458 -6412.6723 -5173.9560 295.8226 841.4802 830.4113 20702.7194 112.3177 150.3849
ENERGY: 600000 0.1776 1.0903 0.0000 0.0000 -7443.0378 1078.1031 0.0000 0.0000 1214.4030 -5149.2639 302.6822 -6363.6669 -5160.8459 297.7827 979.5562 1007.2182 20780.3276 158.7929 212.1825
ENERGY: 900000 0.4415 0.7641 0.0000 0.0000 -7273.4509 982.2293 0.0000 0.0000 1197.0226 -5092.9935 298.3503 -6290.0161 -5151.5634 298.6998 -20.0353 140.2883 21122.4512 121.5102 191.6556
ENERGY: 1200000 0.0244 0.9250 0.0000 0.0000 -7315.3490 990.4804 0.0000 0.0000 1212.5854 -5111.3338 302.2292 -6323.9192 -5157.2727 298.8709 59.5038 149.2742 20749.6371 -20.7523 54.0762
ENERGY: 1500000 0.0866 1.1962 0.0000 0.0000 -7383.9250 972.4432 0.0000 0.0000 1187.4390 -5222.7601 295.9616 -6410.1991 -5154.5850 299.6476 -774.7951 -638.5136 20885.0004 8.8617 84.2080
TCL: Running FEP window  13: Lambda1 0.6    Lambda2 0.65   [dLambda 0.050000000000000044]
TCL: Setting parameter firsttimestep to 0
TCL: Setting parameter alchLambda to 0.6
Info: NONBONDED TABLE R-SQUARED SPACING: 0.0625
Info: NONBONDED TABLE SIZE: 705 POINTS
TCL: Setting parameter alchLambda2 to 0.65
Info: NONBONDED TABLE R-SQUARED SPACING: 0.0625
Info: NONBONDED TABLE SIZE: 705 POINTS
TCL: Running for 1500000 steps
ETITLE: TS BOND ANGLE DIHED IMPRP ELECT VDW BOUNDARY MISC KINETIC TOTAL TEMP POTENTIAL TOTALAVG TEMPAVG PRESSURE GPRESSURE VOLUME PRESSAVG GPRESSAVG
ENERGY: 0 0.0866 1.1962 0.0000 0.0000 -7384.0502 972.2504 0.0000 0.0000 1186.8246 -5223.6924 295.8085 -6410.5171 -5223.6924 295.8085 -710.4384 -638.9418 20885.0004 -710.4384 -638.9418
ENERGY: 300000 0.3503 1.4432 0.0000 0.0000 -7293.7610 986.4675 0.0000 0.0000 1221.2566 -5084.2434 304.3904 -6305.5000 -5153.1272 300.9155 83.5253 147.2875 20854.3912 -4.5964 75.8747
ENERGY: 600000 0.0808 1.5826 0.0000 0.0000 -7333.9311 1009.3175 0.0000 0.0000 1207.4053 -5115.5448 300.9381 -6322.9501 -5151.3373 300.3669 345.3829 385.3766 20776.3866 -168.1345 -93.1831
ENERGY: 900000 0.1431 0.1513 0.0000 0.0000 -7297.4142 976.7971 0.0000 0.0000 1195.9025 -5124.4202 298.0711 -6320.3227 -5139.5533 299.8562 40.4484 87.2458 20594.6366 -114.7151 -47.0397
ENERGY: 1200000 0.0069 2.7519 0.0000 0.0000 -7308.4744 999.9769 0.0000 0.0000 1174.5611 -5131.1775 292.7519 -6305.7387 -5145.0351 299.4333 206.2629 225.6434 20899.5162 -171.1375 -101.7267
ENERGY: 1500000 0.6680 2.0538 0.0000 0.0000 -7282.5507 909.7950 0.0000 0.0000 1260.8190 -5109.2149 314.2511 -6370.0339 -5148.6366 300.0019 -973.0947 -956.2489 20849.6207 -167.2026 -99.2876
TCL: Running FEP window  14: Lambda1 0.65   Lambda2 0.7000000000000001 [dLambda 0.050000000000000044]
TCL: Setting parameter firsttimestep to 0
TCL: Setting parameter alchLambda to 0.65
Info: NONBONDED TABLE R-SQUARED SPACING: 0.0625
Info: NONBONDED TABLE SIZE: 705 POINTS
TCL: Setting parameter alchLambda2 to 0.7000000000000001
Info: NONBONDED TABLE R-SQUARED SPACING: 0.0625
Info: NONBONDED TABLE SIZE: 705 POINTS
TCL: Running for 1500000 steps
ETITLE: TS BOND ANGLE DIHED IMPRP ELECT VDW BOUNDARY MISC KINETIC TOTAL TEMP POTENTIAL TOTALAVG TEMPAVG PRESSURE GPRESSURE VOLUME PRESSAVG GPRESSAVG
ENERGY: 0 0.6680 2.0538 0.0000 0.0000 -7282.8147 910.0553 0.0000 0.0000 1260.1871 -5109.8506 314.0936 -6370.0377 -5109.8506 314.0936 -1034.0766 -944.9292 20849.6207 -1034.0766 -944.9292
ENERGY: 300000 0.0086 1.6459 0.0000 0.0000 -7405.7491 1026.8261 0.0000 0.0000 1194.5829 -5182.6855 297.7422 -6377.2685 -5154.9006 301.1064 200.0574 302.2356 20805.4122 252.5804 324.1065
ENERGY: 600000 0.0106 2.0744 0.0000 0.0000 -7324.1705 981.4118 0.0000 0.0000 1235.5422 -5105.1316 307.9510 -6340.6738 -5146.9995 301.9529 -58.0185 -2.8160 20986.2782 3.6192 58.3661
ENERGY: 900000 0.5914 2.2891 0.0000 0.0000 -7198.6441 876.8061 0.0000 0.0000 1212.9050 -5106.0525 302.3089 -6318.9576 -5146.7019 302.9122 -1093.5665 -1030.6650 20808.0954 -161.4398 -98.2907
ENERGY: 1200000 0.2377 2.0167 0.0000 0.0000 -7256.6817 930.0586 0.0000 0.0000 1166.8261 -5157.5427 290.8240 -6324.3688 -5152.2709 300.9335 -636.0936 -529.3863 20713.1770 -164.6497 -103.0873
ENERGY: 1500000 0.1975 3.3855 0.0000 0.0000 -7365.0025 1015.3707 0.0000 0.0000 1173.4552 -5172.5936 292.4762 -6346.0488 -5145.5248 300.3091 90.0325 161.4906 20846.8012 -216.2347 -153.0604
TCL: Running FEP window  15: Lambda1 0.7000000000000001 Lambda2 0.7500000000000001 [dLambda 0.050000000000000044]
TCL: Setting parameter firsttimestep to 0
TCL: Setting parameter alchLambda to 0.7000000000000001
Info: NONBONDED TABLE R-SQUARED SPACING: 0.0625
Info: NONBONDED TABLE SIZE: 705 POINTS
TCL: Setting parameter alchLambda2 to 0.7500000000000001
Info: NONBONDED TABLE R-SQUARED SPACING: 0.0625
Info: NONBONDED TABLE SIZE: 705 POINTS
TCL: Running for 1500000 steps
ETITLE: TS BOND ANGLE DIHED IMPRP ELECT VDW BOUNDARY MISC KINETIC TOTAL TEMP POTENTIAL TOTALAVG TEMPAVG PRESSURE GPRESSURE VOLUME PRESSAVG GPRESSAVG
ENERGY: 0 0.1975 3.3855 0.0000 0.0000 -7365.0891 1015.5517 0.0000 0.0000 1172.8835 -5173.0710 292.3337 -6345.9544 -5173.0710 292.3337 78.8225 168.8685 20846.8012 78.8225 168.8685
ENERGY: 300000 0.1524 3.9232 0.0000 0.0000 -7412.8929 1006.3114 0.0000 0.0000 1195.7652 -5206.7407 298.0368 -6402.5059 -5182.1551 296.2061 -64.4058 -9.2857 20730.0720 -136.9599 -82.4389
ENERGY: 600000 0.0311 0.6032 0.0000 0.0000 -7352.2646 998.7451 0.0000 0.0000 1208.8713 -5144.0139 301.3035 -6352.8852 -5151.5773 298.3325 264.2355 356.9832 20532.6400 -26.0615 41.1344
ENERGY: 900000 0.0971 1.3769 0.0000 0.0000 -7274.3820 962.8792 0.0000 0.0000 1229.6502 -5080.3786 306.4825 -6310.0288 -5149.7297 299.8186 -61.3115 -6.6805 20533.9429 35.0710 97.6095
ENERGY: 1200000 0.4449 0.7584 0.0000 0.0000 -7223.2382 932.1205 0.0000 0.0000 1174.7597 -5115.1547 292.8014 -6289.9144 -5141.8140 299.2930 -533.8769 -432.9024 20843.9846 21.1280 91.5117
ENERGY: 1500000 0.4170 2.4251 0.0000 0.0000 -7280.3651 946.7624 0.0000 0.0000 1189.3555 -5141.4050 296.4393 -6330.7605 -5144.6434 299.2800 -199.3475 -191.1851 20426.6338 49.8627 117.9097
TCL: Running FEP window  16: Lambda1 0.7500000000000001 Lambda2 0.8000000000000002 [dLambda 0.050000000000000044]
TCL: Setting parameter firsttimestep to 0
TCL: Setting parameter alchLambda to 0.7500000000000001
Info: NONBONDED TABLE R-SQUARED SPACING: 0.0625
Info: NONBONDED TABLE SIZE: 705 POINTS
TCL: Setting parameter alchLambda2 to 0.8000000000000002
Info: NONBONDED TABLE R-SQUARED SPACING: 0.0625
Info: NONBONDED TABLE SIZE: 705 POINTS
TCL: Running for 1500000 steps
ETITLE: TS BOND ANGLE DIHED IMPRP ELECT VDW BOUNDARY MISC KINETIC TOTAL TEMP POTENTIAL TOTALAVG TEMPAVG PRESSURE GPRESSURE VOLUME PRESSAVG GPRESSAVG
ENERGY: 0 0.4170 2.4251 0.0000 0.0000 -7280.3549 946.8931 0.0000 0.0000 1188.7639 -5141.8558 296.2918 -6330.6197 -5141.8558 296.2918 -273.1916 -182.7808 20426.6338 -273.1916 -182.7808
ENERGY: 300000 0.5046 1.4167 0.0000 0.0000 -7323.0704 1007.3124 0.0000 0.0000 1207.6164 -5106.2203 300.9907 -6313.8367 -5130.7409 301.6776 235.6582 352.3179 20975.9372 -79.1853 -18.9957
ENERGY: 600000 0.3969 0.6046 0.0000 0.0000 -7326.7969 1023.0111 0.0000 0.0000 1218.2743 -5084.5099 303.6471 -6302.7842 -5118.3089 301.1438 356.4262 477.2215 20963.8337 129.5337 204.7640
ENERGY: 900000 0.0000 1.0240 0.0000 0.0000 -7343.7125 978.6464 0.0000 0.0000 1155.2814 -5208.7607 287.9465 -6364.0421 -5136.9332 299.5546 -367.9528 -286.8218 20881.5828 66.6716 139.3204
ENERGY: 1200000 0.1002 0.5067 0.0000 0.0000 -7393.7408 971.6075 0.0000 0.0000 1197.2710 -5224.2554 298.4122 -6421.5264 -5135.8026 300.4832 -585.0964 -500.8471 20907.4738 -146.3890 -69.3740
ENERGY: 1500000 0.1150 1.6647 0.0000 0.0000 -7374.8227 987.1086 0.0000 0.0000 1202.2554 -5183.6790 299.6545 -6385.9344 -5139.6976 299.5473 -143.6256 -62.0068 20425.8755 -185.5444 -116.6190
TCL: Running FEP window  17: Lambda1 0.8000000000000002 Lambda2 0.8500000000000002 [dLambda 0.050000000000000044]
TCL: Setting parameter firsttimestep to 0
TCL: Setting parameter alchLambda to 0.8000000000000002
Info: NONBONDED TABLE R-SQUARED SPACING: 0.0625
Info: NONBONDED TABLE SIZE: 705 POINTS
TCL: Setting parameter alchLambda2 to 0.8500000000000002
Info: NONBONDED TABLE R-SQUARED SPACING: 0.0625
Info: NONBONDED TABLE SIZE: 705 POINTS
TCL: Running for 1500000 steps
ETITLE: TS BOND ANGLE DIHED IMPRP ELECT VDW BOUNDARY MISC KINETIC TOTAL TEMP POTENTIAL TOTALAVG TEMPAVG PRESSURE GPRESSURE VOLUME PRESSAVG GPRESSAVG
ENERGY: 0 0.1150 1.6647 0.0000 0.0000 -7375.2886 987.0062 0.0000 0.0000 1201.6592 -5184.8435 299.5059 -6386.5027 -5184.8435 299.5059 -159.9975 -61.4961 20425.8755 -159.9975 -61.4961
ENERGY: 300000 0.7729 2.5228 0.0000 0.0000 -7277.4220 990.1502 0.0000 0.0000 1232.2339 -5051.7422 307.1264 -6283.9761 -5142.3487 298.5308 281.8324 333.8824 20765.7289 277.6152 346.0599
ENERGY: 600000 0.0199 5.9104 0.0000 0.0000 -7347.8362 1020.9313 0.0000 0.0000 1197.0765 -5123.8982 298.3637 -6320.9747 -5138.5434 299.3074 296.0733 409.5715 20755.5450 32.8439 95.6056
ENERGY: 900000 0.0000 2.7256 0.0000 0.0000 -7353.4613 1057.4665 0.0000 0.0000 1198.3868 -5094.8824 298.6903 -6293.2692 -5141.5100 298.1791 758.5919 772.4401 21033.5919 102.5595 162.5294
ENERGY: 1200000 0.7824 2.9970 0.0000 0.0000 -7330.0795 998.1108 0.0000 0.0000 1217.0385 -5111.1508 303.3391 -6328.1893 -5134.7285 299.1870 560.6658 541.1714 20461.8361 197.0831 250.5078
ENERGY: 1500000 0.0525 0.7989 0.0000 0.0000 -7373.0438 1039.5772 0.0000 0.0000 1229.9117 -5102.7035 306.5477 -6332.6152 -5131.0378 299.8731 818.5751 866.9375 20542.9237 156.7670 211.5559
TCL: Running FEP window  18: Lambda1 0.8500000000000002 Lambda2 0.9000000000000002 [dLambda 0.050000000000000044]
TCL: Setting parameter firsttimestep to 0
TCL: Setting parameter alchLambda to 0.8500000000000002
Info: NONBONDED TABLE R-SQUARED SPACING: 0.0625
Info: NONBONDED TABLE SIZE: 705 POINTS
TCL: Setting parameter alchLambda2 to 0.9000000000000002
Info: NONBONDED TABLE R-SQUARED SPACING: 0.0625
Info: NONBONDED TABLE SIZE: 705 POINTS
TCL: Running for 1500000 steps
ETITLE: TS BOND ANGLE DIHED IMPRP ELECT VDW BOUNDARY MISC KINETIC TOTAL TEMP POTENTIAL TOTALAVG TEMPAVG PRESSURE GPRESSURE VOLUME PRESSAVG GPRESSAVG
ENERGY: 0 0.0525 0.7989 0.0000 0.0000 -7373.2408 1039.8155 0.0000 0.0000 1229.3133 -5103.2605 306.3985 -6332.5739 -5103.2605 306.3985 787.2357 876.9713 20542.9237 787.2357 876.9713
ENERGY: 300000 0.0325 2.4663 0.0000 0.0000 -7252.2131 931.2741 0.0000 0.0000 1242.1194 -5076.3208 309.5904 -6318.4402 -5102.9812 308.9279 -794.2073 -661.7035 21084.6161 -101.9951 -22.7516
ENERGY: 600000 0.5500 2.4735 0.0000 0.0000 -7349.4322 992.8457 0.0000 0.0000 1177.9026 -5175.6604 293.5847 -6353.5630 -5118.9888 306.5552 204.5051 261.1413 20587.5086 39.8803 114.2843
ENERGY: 900000 0.0491 1.2514 0.0000 0.0000 -7365.0807 948.6161 0.0000 0.0000 1268.3962 -5146.7679 316.1397 -6415.1641 -5121.7320 307.1688 -444.2404 -416.5578 20631.9854 -69.5907 -11.1075
ENERGY: 1200000 0.0180 3.0192 0.0000 0.0000 -7416.3428 1051.3159 0.0000 0.0000 1231.3036 -5130.6860 306.8946 -6361.9896 -5127.1964 306.2527 603.4892 663.1326 20791.3046 25.8020 86.8489
ENERGY: 1500000 0.4383 1.7933 0.0000 0.0000 -7167.8399 879.2116 0.0000 0.0000 1173.8453 -5112.5514 292.5735 -6286.3967 -5129.9277 304.8104 -1061.1892 -964.3624 20809.7711 -94.6114 -27.3438
TCL: Running FEP window  19: Lambda1 0.9000000000000002 Lambda2 0.9500000000000003 [dLambda 0.050000000000000044]
TCL: Setting parameter firsttimestep to 0
TCL: Setting parameter alchLambda to 0.9000000000000002
Info: NONBONDED TABLE R-SQUARED SPACING: 0.0625
Info: NONBONDED TABLE SIZE: 705 POINTS
TCL: Setting parameter alchLambda2 to 0.9500000000000003
Info: NONBONDED TABLE R-SQUARED SPACING: 0.0625
Info: NONBONDED TABLE SIZE: 705 POINTS
TCL: Running for 1500000 steps
ETITLE: TS BOND ANGLE DIHED IMPRP ELECT VDW BOUNDARY MISC KINETIC TOTAL TEMP POTENTIAL TOTALAVG TEMPAVG PRESSURE GPRESSURE VOLUME PRESSAVG GPRESSAVG
ENERGY: 0 0.4383 1.7933 0.0000 0.0000 -7167.9986 879.5307 0.0000 0.0000 1173.2765 -5112.9597 292.4317 -6286.2363 -5112.9597 292.4317 -1025.5416 -953.0172 20809.7711 -1025.5416 -953.0172
ENERGY: 300000 0.4301 1.2572 0.0000 0.0000 -7332.2544 990.8059 0.0000 0.0000 1158.0043 -5181.7569 288.6252 -6339.7612 -5166.1677 290.2142 221.8819 166.9580 20675.6879 -220.2797 -193.5419
ENERGY: 600000 0.1540 2.3975 0.0000 0.0000 -7349.1490 1034.6434 0.0000 0.0000 1216.9684 -5094.9857 303.3216 -6311.9541 -5140.9846 294.7710 613.1407 662.8900 20836.5491 -88.0672 -51.1446
ENERGY: 900000 0.2558 0.1761 0.0000 0.0000 -7375.4138 979.7394 0.0000 0.0000 1228.4820 -5166.7605 306.1913 -6395.2424 -5153.0903 296.8121 -375.0569 -213.0505 20759.9670 -138.4666 -91.6824
ENERGY: 1200000 0.0150 2.4896 0.0000 0.0000 -7289.3553 960.2041 0.0000 0.0000 1207.7176 -5118.9290 301.0159 -6326.6466 -5150.4566 297.6705 -265.7193 -184.8361 20912.4052 -252.8721 -206.2924
ENERGY: 1500000 0.1537 0.9608 0.0000 0.0000 -7347.7490 1007.8561 0.0000 0.0000 1224.2750 -5114.5034 305.1427 -6338.7784 -5141.9610 298.5643 805.1636 818.3243 20330.6012 -232.0287 -186.8558
TCL: Running FEP window  20: Lambda1 0.9500000000000003 Lambda2 1.0    [dLambda 0.04999999999999971]
TCL: Setting parameter firsttimestep to 0
TCL: Setting parameter alchLambda to 0.9500000000000003
Info: NONBONDED TABLE R-SQUARED SPACING: 0.0625
Info: NONBONDED TABLE SIZE: 705 POINTS
TCL: Setting parameter alchLambda2 to 1.0
Info: NONBONDED TABLE R-SQUARED SPACING: 0.0625
Info: NONBONDED TABLE SIZE: 705 POINTS
TCL: Running for 1500000 steps
ETITLE: TS BOND ANGLE DIHED IMPRP ELECT VDW BOUNDARY MISC KINETIC TOTAL TEMP POTENTIAL TOTALAVG TEMPAVG PRESSURE GPRESSURE VOLUME PRESSAVG GPRESSAVG
ENERGY: 0 0.1537 0.9608 0.0000 0.0000 -7348.1379 1007.9025 0.0000 0.0000 1223.6643 -5115.4566 304.9905 -6339.1209 -5115.4566 304.9905 735.9317 824.2203 20330.6012 735.9317 824.2203
ENERGY: 300000 0.4218 2.4329 0.0000 0.0000 -7350.2506 992.3693 0.0000 0.0000 1214.0632 -5140.9634 302.5975 -6355.0266 -5146.0527 298.2118 96.0116 145.6422 20775.2543 133.6596 155.2708
ENERGY: 600000 0.0122 4.0469 0.0000 0.0000 -7277.7971 974.8788 0.0000 0.0000 1209.8515 -5089.0078 301.5478 -6298.8593 -5142.0325 297.1387 229.2604 130.6638 20827.2453 -80.5299 -67.2701
ENERGY: 900000 0.8971 2.5124 0.0000 0.0000 -7302.8376 958.7179 0.0000 0.0000 1189.6804 -5151.0298 296.5203 -6340.7102 -5151.9583 297.2142 -273.4960 -206.7249 20836.3261 -117.8851 -80.2732
ENERGY: 1200000 0.1886 1.3717 0.0000 0.0000 -7368.2116 943.0612 0.0000 0.0000 1182.1462 -5241.4438 294.6424 -6423.5901 -5153.1462 297.9081 -907.2199 -872.6568 20823.5644 -161.6700 -125.1993
ENERGY: 1500000 0.3030 0.8021 0.0000 0.0000 -7243.1964 918.7043 0.0000 0.0000 1210.5295 -5112.8575 301.7168 -6323.3870 -5146.0046 299.5012 -595.7974 -547.1878 20723.5982 -139.6035 -97.9444
TCL: Exiting due to exit command.
