Info: SIMULATION PARAMETERS:
Info: TIMESTEP               2
Info: NUMBER OF STEPS        0
Info: STEPS PER CYCLE        10
Info: PERIODIC CELL BASIS 1  28.2129 0 0
Info: PERIODIC CELL BASIS 2  0 26.9161 0
Info: PERIODIC CELL BASIS 3  0 0 27.6553
Info: PERIODIC CELL CENTER   0 0 0
Info: WRAPPING WATERS AROUND PERIODIC BOUNDARIES ON OUTPUT.
Info: WRAPPING ALL CLUSTERS AROUND PERIODIC BOUNDARIES ON OUTPUT.
Info: FIRST LDB TIMESTEP     50
Info: LAST LDB TIMESTEP     -1
Info: HOM BACKGROUND SCALING 1
Info: PME BACKGROUND SCALING 1
Info: MIN ATOMS PER PATCH    40
Info: EMPTY PATCH LOAD       40 ATOMS
Info: VELOCITY FILE          mobley_9073553_equil.vel
Info: CENTER OF MASS MOVING INITIALLY? NO
Info: DIELECTRIC             1
Info: EXCLUDE                SCALED ONE-FOUR
Info: 1-4 ELECTROSTATICS SCALED BY 0.833333
Info: MODIFIED 1-4 VDW PARAMETERS WILL BE USED
Info: DCD FILENAME           mobley_9073553_prod.dcd
Info: DCD FREQUENCY          100000
Info: DCD FIRST STEP         100000
Info: DCD FILE WILL CONTAIN UNIT CELL DATA
Info: XST FILENAME           mobley_9073553_prod.xst
Info: XST FREQUENCY          100000
Info: NO VELOCITY DCD OUTPUT
Info: NO FORCE DCD OUTPUT
Info: OUTPUT FILENAME        mobley_9073553_prod
Info: BINARY OUTPUT FILES WILL BE USED
Info: NO RESTART FILE
Info: CUTOFF                 9
Info: PAIRLIST DISTANCE      11
Info: PAIRLIST SHRINK RATE   0.01
Info: PAIRLIST GROW RATE     0.01
Info: PAIRLIST TRIGGER       0.3
Info: PAIRLISTS PER CYCLE    2
Info: PAIRLISTS ENABLED
Info: MARGIN                 2
Info: HYDROGEN GROUP CUTOFF  2.5
Info: PATCH DIMENSION        15.5
Info: ENERGY OUTPUT STEPS    100000
Info: ENERGY EVALUATION STEPS    100000
Info: OUTPUT ENERGY PRECISION 4
Info: CROSSTERM ENERGY INCLUDED IN DIHEDRAL
Info: TIMING OUTPUT STEPS    1000000
Info: PRESSURE OUTPUT STEPS  100000
Info: ALCHEMICAL FEP ON
Info: FEP CURRENT LAMBDA VALUE     0
Info: FEP COMPARISON LAMBDA VALUE  0.05
Info: FEP INTRA-ALCHEMICAL NON-BONDED INTERACTIONS WILL BE RETAINED
Info: FEP INTRA-ALCHEMICAL BONDED INTERACTIONS WILL BE RETAINED
Info: FEP VDW SHIFTING COEFFICIENT 5
Info: FEP ELEC. ACTIVE FOR ANNIHILATED PARTICLES BETWEEN LAMBDA = 0 AND LAMBDA = 0.5
Info: FEP ELEC. ACTIVE FOR EXNIHILATED PARTICLES BETWEEN LAMBDA = 0.5 AND LAMBDA = 1
Info: FEP VDW ACTIVE FOR ANNIHILATED PARTICLES BETWEEN LAMBDA = 0 AND LAMBDA = 1
Info: FEP VDW ACTIVE FOR EXNIHILATED PARTICLES BETWEEN LAMBDA = 0 AND LAMBDA = 1
Info: FEP BOND ACTIVE FOR ANNIHILATED PARTICLES BETWEEN LAMBDA = 1 AND LAMBDA = 1
Info: FEP BOND ACTIVE FOR EXNIHILATED PARTICLES BETWEEN LAMBDA = 0 AND LAMBDA = 0
Info: LANGEVIN DYNAMICS ACTIVE
Info: LANGEVIN TEMPERATURE   300
Info: LANGEVIN USING BBK INTEGRATOR
Info: LANGEVIN DAMPING COEFFICIENT IS 1 INVERSE PS
Info: LANGEVIN DYNAMICS APPLIED TO HYDROGENS
Info: LANGEVIN PISTON PRESSURE CONTROL ACTIVE
Info:        TARGET PRESSURE IS 1.01325 BAR
Info:     OSCILLATION PERIOD IS 50 FS
Info:             DECAY TIME IS 25 FS
Info:     PISTON TEMPERATURE IS 300 K
Info:       PRESSURE CONTROL IS GROUP-BASED
Info:    INITIAL STRAIN RATE IS 0.000303956 0.000303956 0.000303956
Info:       CELL FLUCTUATION IS ISOTROPIC
Info: PARTICLE MESH EWALD (PME) ACTIVE
Info: PME TOLERANCE               1e-06
Info: PME EWALD COEFFICIENT       0.348832
Info: PME INTERPOLATION ORDER     4
Info: PME GRID DIMENSIONS         32 28 28
Info: PME MAXIMUM GRID SPACING    1
Info: PME CALCULATION WILL BE PERFORMED ON GPU
Info: FULL ELECTROSTATIC EVALUATION FREQUENCY      2
Info: USING VERLET I (r-RESPA) MTS SCHEME.
Info: C1 SPLITTING OF LONG RANGE ELECTROSTATICS
Info: PLACING ATOMS IN PATCHES BY HYDROGEN GROUPS
Info: RIGID BONDS TO HYDROGEN : ALL
Info:         ERROR TOLERANCE : 1e-08
Info:          MAX ITERATIONS : 100
Info: RIGID WATER USING SETTLE ALGORITHM
Info: RANDOM NUMBER SEED     1741647983
Info: USE HYDROGEN BONDS?    NO
Info: Using AMBER format force field!
Info: AMBER PARM FILE        mobley_9073553.prmtop
Info: COORDINATE PDB         mobley_9073553.pdb
Info: Exclusions will be read from PARM file!
Info: SCNB (VDW SCALING)     2
Info: USING ARITHMETIC MEAN TO COMBINE L-J SIGMA PARAMETERS
Info: BINARY COORDINATES     mobley_9073553_equil.coor
Info: SUMMARY OF PARAMETERS:
Info: 4 BONDS
Info: 3 ANGLES
Info:   3 HARMONIC
Info:   0 COSINE-BASED
Info: 1 DIHEDRAL
Info: 0 IMPROPER
Info: 0 CROSSTERM
Info: 0 VDW
Info: 15 VDW_PAIRS
Info: 0 NBTHOLE_PAIRS
Info: To read alchdata from file: mobley_9073553.pdb
Info: To read alchflag data from column: 5
Info: STRUCTURE SUMMARY:
Info: 2001 ATOMS
Info: 2000 BONDS
Info: 13 ANGLES
Info: 6 DIHEDRALS
Info: 0 IMPROPERS
Info: 0 CROSSTERMS
Info: 2019 EXCLUSIONS
Info: 1998 RIGID BONDS
Info: ALCH: 0 ATOMS TO DISAPPEAR IN FINAL STATE
Info: ALCH: 9 ATOMS TO APPEAR IN FINAL STATE
Info: 4005 DEGREES OF FREEDOM
Info: 667 HYDROGEN GROUPS
Info: 4 ATOMS IN LARGEST HYDROGEN GROUP
Info: 667 MIGRATION GROUPS
Info: 4 ATOMS IN LARGEST MIGRATION GROUP
Info: TOTAL MASS = 12024.8 amu
Info: TOTAL CHARGE = 0.00029999 e
Info: MASS DENSITY = 0.950819 g/cm^3
Info: ATOM DENSITY = 0.0952817 atoms/A^3
Info: ADDED 0 IMPLICIT EXCLUSIONS
Info: NONBONDED TABLE R-SQUARED SPACING: 0.0625
Info: NONBONDED TABLE SIZE: 705 POINTS
Info: REMOVING COM VELOCITY 0.0117999 0.0125283 -0.0160127
Info: Use 3D box decompostion in PME FFT.
Info: Updated CUDA force table with 4096 elements.
Info: Updated CUDA LJ table with 5 x 5 elements.
Info: Found 12 unique exclusion lists needing 16 bytes
TCL: Running for 1500000 steps
ETITLE: TS BOND ANGLE DIHED IMPRP ELECT VDW BOUNDARY MISC KINETIC TOTAL TEMP POTENTIAL TOTALAVG TEMPAVG PRESSURE GPRESSURE VOLUME PRESSAVG GPRESSAVG
ENERGY: 0 0.6686 5.7191 0.3799 0.0000 -7221.0551 925.2773 0.0000 0.0000 1213.7939 -5075.2164 305.0232 -6289.0103 -5075.2164 305.0232 -1000.7453 -925.2639 21000.8770 -1000.7453 -925.2639
ENERGY: 300000 0.0509 5.5958 0.1724 0.0000 -7318.1854 1066.1737 0.0000 0.0000 1200.6340 -5045.5587 301.7161 -6246.1927 -5054.9583 300.3059 1123.7276 1215.8608 20412.4984 -81.6482 -10.9878
ENERGY: 600000 0.3725 4.3222 0.2328 0.0000 -7153.2407 925.8382 0.0000 0.0000 1182.9953 -5039.4797 297.2836 -6222.4750 -5061.5249 299.7984 -173.6672 -139.2807 20227.5145 -106.4500 -48.3539
ENERGY: 900000 0.5298 2.6313 0.3993 0.0000 -7428.4272 1096.2201 0.0000 0.0000 1194.4299 -5134.2167 300.1570 -6328.6466 -5064.0936 301.5902 1651.0034 1635.0768 19929.4844 84.0291 133.5986
ENERGY: 1200000 0.3905 3.2181 0.7589 0.0000 -7343.7655 990.4808 0.0000 0.0000 1225.9912 -5122.9261 308.0883 -6348.9172 -5071.0047 302.6732 -387.4313 -334.6174 20709.9039 44.6833 99.9642
ENERGY: 1500000 0.6326 3.5050 0.4019 0.0000 -7268.5825 1000.1887 0.0000 0.0000 1185.5419 -5078.3123 297.9235 -6263.8543 -5076.2051 301.4887 79.5230 42.8355 20788.5445 27.2368 83.8991
TCL: Running FEP window   2: Lambda1 0.05   Lambda2 0.1    [dLambda 0.05  ]
TCL: Setting parameter firsttimestep to 0
TCL: Setting parameter alchLambda to 0.05
Info: NONBONDED TABLE R-SQUARED SPACING: 0.0625
Info: NONBONDED TABLE SIZE: 705 POINTS
TCL: Setting parameter alchLambda2 to 0.1
Info: NONBONDED TABLE R-SQUARED SPACING: 0.0625
Info: NONBONDED TABLE SIZE: 705 POINTS
TCL: Running for 1500000 steps
ETITLE: TS BOND ANGLE DIHED IMPRP ELECT VDW BOUNDARY MISC KINETIC TOTAL TEMP POTENTIAL TOTALAVG TEMPAVG PRESSURE GPRESSURE VOLUME PRESSAVG GPRESSAVG
ENERGY: 0 0.6326 3.5050 0.4019 0.0000 -7268.5824 1004.4554 0.0000 0.0000 1184.9495 -5074.6381 297.7746 -6259.5876 -5074.6381 297.7746 -22.9901 55.1840 20788.5445 -22.9901 55.1840
ENERGY: 300000 1.8075 5.0469 0.0771 0.0000 -7237.3866 970.4221 0.0000 0.0000 1208.8350 -5051.1980 303.7770 -6260.0330 -5064.7212 301.2800 -496.4340 -434.5345 20845.9224 -62.6884 -26.5800
ENERGY: 600000 1.3367 1.0813 0.1413 0.0000 -7103.4162 889.6185 0.0000 0.0000 1183.1597 -5028.0786 297.3249 -6211.2383 -5053.0126 300.0609 -1056.4768 -976.5064 20706.2969 -186.8320 -138.4325
ENERGY: 900000 0.0434 3.8039 0.7474 0.0000 -7196.5537 933.1547 0.0000 0.0000 1167.6182 -5091.1861 293.4193 -6258.8043 -5056.1157 299.8971 -556.1749 -533.1683 20760.5878 -323.1530 -265.6036
ENERGY: 1200000 0.9827 2.3682 0.4563 0.0000 -7170.7023 949.0710 0.0000 0.0000 1216.9008 -5000.9234 305.8039 -6217.8241 -5052.3160 302.0250 -112.3982 -62.6114 20624.8427 -212.9102 -156.4291
ENERGY: 1500000 0.8920 7.2318 0.2001 0.0000 -7218.2017 951.3374 0.0000 0.0000 1183.5763 -5074.9641 297.4296 -6258.5404 -5055.4576 301.9139 -601.9896 -498.7934 20666.4661 -104.5617 -45.2925
TCL: Running FEP window   3: Lambda1 0.1    Lambda2 0.15000000000000002 [dLambda 0.05000000000000002]
TCL: Setting parameter firsttimestep to 0
TCL: Setting parameter alchLambda to 0.1
Info: NONBONDED TABLE R-SQUARED SPACING: 0.0625
Info: NONBONDED TABLE SIZE: 705 POINTS
TCL: Setting parameter alchLambda2 to 0.15000000000000002
Info: NONBONDED TABLE R-SQUARED SPACING: 0.0625
Info: NONBONDED TABLE SIZE: 705 POINTS
TCL: Running for 1500000 steps
ETITLE: TS BOND ANGLE DIHED IMPRP ELECT VDW BOUNDARY MISC KINETIC TOTAL TEMP POTENTIAL TOTALAVG TEMPAVG PRESSURE GPRESSURE VOLUME PRESSAVG GPRESSAVG
ENERGY: 0 0.8920 7.2318 0.2001 0.0000 -7218.2018 952.9307 0.0000 0.0000 1182.9823 -5073.9650 297.2803 -6256.9472 -5073.9650 297.2803 -578.5500 -495.6195 20666.4661 -578.5500 -495.6195
ENERGY: 300000 0.5930 7.5016 0.1431 0.0000 -7192.3274 913.9817 0.0000 0.0000 1187.2326 -5082.8754 298.3484 -6270.1080 -5060.4566 297.8658 -701.5123 -667.7990 20492.7304 -906.2736 -866.5360
ENERGY: 600000 0.0405 2.2375 0.3337 0.0000 -7390.7494 1065.6583 0.0000 0.0000 1159.7979 -5162.6815 291.4541 -6322.4795 -5076.8177 297.6059 1284.8407 1354.1856 19948.5407 -278.9478 -229.5985
ENERGY: 900000 0.9627 2.6938 0.8649 0.0000 -7297.8959 975.1661 0.0000 0.0000 1204.3062 -5113.9021 302.6389 -6318.2083 -5079.2589 299.3395 -65.9651 -9.5572 20343.2257 -233.0368 -186.2967
ENERGY: 1200000 1.1350 2.0211 0.8728 0.0000 -7271.8931 994.9564 0.0000 0.0000 1144.1513 -5128.7566 287.5222 -6272.9079 -5081.8532 299.9138 -21.3591 119.3496 20520.6922 -173.4264 -118.1177
ENERGY: 1500000 0.0598 2.8440 0.5099 0.0000 -7219.5804 957.6269 0.0000 0.0000 1206.0868 -5052.4529 303.0864 -6258.5397 -5081.8176 300.2014 -202.4877 -143.8903 20467.6468 -103.8193 -50.7764
TCL: Running FEP window   4: Lambda1 0.15000000000000002 Lambda2 0.2    [dLambda 0.04999999999999999]
TCL: Setting parameter firsttimestep to 0
TCL: Setting parameter alchLambda to 0.15000000000000002
Info: NONBONDED TABLE R-SQUARED SPACING: 0.0625
Info: NONBONDED TABLE SIZE: 705 POINTS
TCL: Setting parameter alchLambda2 to 0.2
Info: NONBONDED TABLE R-SQUARED SPACING: 0.0625
Info: NONBONDED TABLE SIZE: 705 POINTS
TCL: Running for 1500000 steps
ETITLE: TS BOND ANGLE DIHED IMPRP ELECT VDW BOUNDARY MISC KINETIC TOTAL TEMP POTENTIAL TOTALAVG TEMPAVG PRESSURE GPRESSURE VOLUME PRESSAVG GPRESSAVG
ENERGY: 0 0.0598 2.8440 0.5099 0.0000 -7219.5796 958.2497 0.0000 0.0000 1205.4973 -5052.4189 302.9382 -6257.9162 -5052.4189 302.9382 -219.0212 -137.2600 20467.6468 -219.0212 -137.2600
ENERGY: 300000 1.5419 3.8626 0.5308 0.0000 -7270.5078 950.9741 0.0000 0.0000 1164.0449 -5149.5535 292.5214 -6313.5984 -5063.0483 302.2070 -315.2693 -261.4276 20141.0876 -325.4751 -268.1943
ENERGY: 600000 0.0351 2.1521 1.2025 0.0000 -7317.4768 979.7641 0.0000 0.0000 1187.8956 -5146.4274 298.5150 -6334.3231 -5068.4745 302.6290 -244.8621 -141.1513 20513.8440 -251.1169 -202.3199
ENERGY: 900000 0.8793 2.7299 0.4600 0.0000 -7192.6550 960.2119 0.0000 0.0000 1207.9836 -5020.3903 303.5631 -6228.3739 -5058.3918 303.4761 -326.4325 -248.6355 20748.3256 -239.9156 -184.2234
ENERGY: 1200000 1.1976 2.1728 0.0646 0.0000 -7158.6760 916.4317 0.0000 0.0000 1239.9045 -4998.9049 311.5847 -6238.8093 -5064.6071 303.3971 -436.3881 -329.2384 20481.1212 -212.6493 -149.2470
ENERGY: 1500000 0.6855 4.0381 1.4361 0.0000 -7251.8688 970.3261 0.0000 0.0000 1170.7697 -5104.6132 294.2113 -6275.3830 -5070.2828 301.8343 -361.8432 -371.8061 20864.8834 -227.9238 -175.3730
TCL: Running FEP window   5: Lambda1 0.2    Lambda2 0.25   [dLambda 0.04999999999999999]
TCL: Setting parameter firsttimestep to 0
TCL: Setting parameter alchLambda to 0.2
Info: NONBONDED TABLE R-SQUARED SPACING: 0.0625
Info: NONBONDED TABLE SIZE: 705 POINTS
TCL: Setting parameter alchLambda2 to 0.25
Info: NONBONDED TABLE R-SQUARED SPACING: 0.0625
Info: NONBONDED TABLE SIZE: 705 POINTS
TCL: Running for 1500000 steps
ETITLE: TS BOND ANGLE DIHED IMPRP ELECT VDW BOUNDARY MISC KINETIC TOTAL TEMP POTENTIAL TOTALAVG TEMPAVG PRESSURE GPRESSURE VOLUME PRESSAVG GPRESSAVG
ENERGY: 0 0.6855 4.0381 1.4361 0.0000 -7251.8683 970.1575 0.0000 0.0000 1170.1906 -5105.3605 294.0658 -6275.5511 -5105.3605 294.0658 -448.8850 -372.9353 20864.8834 -448.8850 -372.9353
ENERGY: 300000 0.3148 3.8259 0.1375 0.0000 -7217.8497 938.9903 0.0000 0.0000 1168.0734 -5106.5077 293.5337 -6274.5811 -5089.6797 296.1015 -357.7736 -347.4492 20603.3024 -122.2524 -74.9566
ENERGY: 600000 0.5488 4.1818 0.1479 0.0000 -7331.6561 1087.8658 0.0000 0.0000 1218.5974 -5020.3144 306.2303 -6238.9117 -5070.4878 298.9686 1556.1967 1564.8847 20362.8367 62.1569 98.5692
ENERGY: 900000 0.1807 3.2320 0.1080 0.0000 -7419.7858 1084.2717 0.0000 0.0000 1220.2936 -5111.6997 306.6565 -6331.9934 -5073.1157 300.6853 1221.1684 1263.0205 20254.4483 76.2149 121.1175
ENERGY: 1200000 0.1310 1.2925 2.0639 0.0000 -7250.6659 963.3067 0.0000 0.0000 1183.1908 -5100.6808 297.3327 -6283.8717 -5070.8408 300.7820 -83.1566 -32.0236 20341.0976 33.5505 81.7676
ENERGY: 1500000 0.5504 2.1241 1.3209 0.0000 -7254.6884 995.4655 0.0000 0.0000 1248.3630 -5006.8646 313.7103 -6255.2276 -5068.6690 301.4049 200.1035 187.3326 20730.3940 59.7354 95.7807
TCL: Running FEP window   6: Lambda1 0.25   Lambda2 0.3    [dLambda 0.04999999999999999]
TCL: Setting parameter firsttimestep to 0
TCL: Setting parameter alchLambda to 0.25
Info: NONBONDED TABLE R-SQUARED SPACING: 0.0625
Info: NONBONDED TABLE SIZE: 705 POINTS
TCL: Setting parameter alchLambda2 to 0.3
Info: NONBONDED TABLE R-SQUARED SPACING: 0.0625
Info: NONBONDED TABLE SIZE: 705 POINTS
TCL: Running for 1500000 steps
ETITLE: TS BOND ANGLE DIHED IMPRP ELECT VDW BOUNDARY MISC KINETIC TOTAL TEMP POTENTIAL TOTALAVG TEMPAVG PRESSURE GPRESSURE VOLUME PRESSAVG GPRESSAVG
ENERGY: 0 0.5504 2.1241 1.3209 0.0000 -7254.6902 995.8346 0.0000 0.0000 1247.7917 -5007.0686 313.5667 -6254.8603 -5007.0686 313.5667 108.2138 189.9978 20730.3940 108.2138 189.9978
ENERGY: 300000 0.0513 1.6520 0.3855 0.0000 -7280.4148 997.5564 0.0000 0.0000 1184.9055 -5095.8639 297.7636 -6280.7695 -5047.2929 304.1168 77.0506 189.6167 20514.3185 3.0201 73.2585
ENERGY: 600000 1.1233 4.7674 0.7745 0.0000 -7242.7277 1011.0852 0.0000 0.0000 1220.5285 -5004.4487 306.7156 -6224.9772 -5049.7885 302.0003 316.0070 430.0297 20721.1558 -95.9186 -22.0450
ENERGY: 900000 0.2665 1.5820 0.0961 0.0000 -7208.7932 991.6834 0.0000 0.0000 1222.1657 -4992.9995 307.1270 -6215.1652 -5046.4443 302.8556 336.4606 400.1606 20767.4271 -150.7860 -76.5382
ENERGY: 1200000 0.4190 7.9868 1.1910 0.0000 -7291.1575 1031.0289 0.0000 0.0000 1185.7249 -5064.8069 297.9695 -6250.5318 -5049.7104 302.2800 504.6922 619.6918 20681.7782 -52.0260 29.3804
ENERGY: 1500000 0.8333 4.1832 1.3214 0.0000 -7344.2500 1045.4309 0.0000 0.0000 1179.6045 -5112.8768 296.4314 -6292.4812 -5052.4708 301.6928 585.9299 687.9208 20588.8704 17.2232 100.7369
TCL: Running FEP window   7: Lambda1 0.3    Lambda2 0.35   [dLambda 0.04999999999999999]
TCL: Setting parameter firsttimestep to 0
TCL: Setting parameter alchLambda to 0.3
Info: NONBONDED TABLE R-SQUARED SPACING: 0.0625
Info: NONBONDED TABLE SIZE: 705 POINTS
TCL: Setting parameter alchLambda2 to 0.35
Info: NONBONDED TABLE R-SQUARED SPACING: 0.0625
Info: NONBONDED TABLE SIZE: 705 POINTS
TCL: Running for 1500000 steps
ETITLE: TS BOND ANGLE DIHED IMPRP ELECT VDW BOUNDARY MISC KINETIC TOTAL TEMP POTENTIAL TOTALAVG TEMPAVG PRESSURE GPRESSURE VOLUME PRESSAVG GPRESSAVG
ENERGY: 0 0.8333 4.1832 1.3214 0.0000 -7344.2509 1045.6244 0.0000 0.0000 1178.9853 -5113.3034 296.2759 -6292.2887 -5113.3034 296.2759 606.3842 693.2314 20588.8704 606.3842 693.2314
ENERGY: 300000 0.4097 3.6710 1.3121 0.0000 -7216.0089 950.6355 0.0000 0.0000 1195.8493 -5064.1312 300.5137 -6259.9806 -5103.1099 298.8259 -197.6936 -155.7609 20415.0415 484.1883 556.4354
ENERGY: 600000 0.3061 2.1226 1.7691 0.0000 -7310.3012 1022.1217 0.0000 0.0000 1215.0371 -5068.9445 305.3356 -6283.9816 -5061.9635 302.5423 528.1560 562.0493 20500.1433 232.8816 284.1153
ENERGY: 900000 1.4974 3.5591 0.0692 0.0000 -7235.1037 911.9972 0.0000 0.0000 1179.6092 -5138.3715 296.4326 -6317.9808 -5082.4086 299.1972 -999.1350 -896.4828 20622.6754 86.5110 150.9753
ENERGY: 1200000 0.7407 3.3391 0.2726 0.0000 -7288.2516 1014.6506 0.0000 0.0000 1213.8700 -5055.3786 305.0423 -6269.2487 -5081.9386 299.5947 801.2769 871.1337 20135.5247 177.9568 242.3233
ENERGY: 1500000 1.2483 4.7248 0.0874 0.0000 -7204.3931 939.3426 0.0000 0.0000 1158.8918 -5100.0982 291.2264 -6258.9899 -5091.1228 298.2447 -440.1302 -405.4012 20537.2921 17.4795 82.1945
TCL: Running FEP window   8: Lambda1 0.35   Lambda2 0.39999999999999997 [dLambda 0.04999999999999999]
TCL: Setting parameter firsttimestep to 0
TCL: Setting parameter alchLambda to 0.35
Info: NONBONDED TABLE R-SQUARED SPACING: 0.0625
Info: NONBONDED TABLE SIZE: 705 POINTS
TCL: Setting parameter alchLambda2 to 0.39999999999999997
Info: NONBONDED TABLE R-SQUARED SPACING: 0.0625
Info: NONBONDED TABLE SIZE: 705 POINTS
TCL: Running for 1500000 steps
ETITLE: TS BOND ANGLE DIHED IMPRP ELECT VDW BOUNDARY MISC KINETIC TOTAL TEMP POTENTIAL TOTALAVG TEMPAVG PRESSURE GPRESSURE VOLUME PRESSAVG GPRESSAVG
ENERGY: 0 1.2483 4.7248 0.0874 0.0000 -7204.3912 939.9685 0.0000 0.0000 1158.3069 -5100.0553 291.0794 -6258.3622 -5100.0553 291.0794 -463.7387 -394.0893 20537.2921 -463.7387 -394.0893
ENERGY: 300000 0.8474 2.7816 0.5884 0.0000 -7236.6816 1002.0138 0.0000 0.0000 1246.4536 -4983.9969 313.2305 -6230.4505 -5078.9291 298.9105 661.4000 759.3426 20564.8522 -230.1414 -151.9174
ENERGY: 600000 0.4934 3.3490 0.4730 0.0000 -7296.7616 1007.3153 0.0000 0.0000 1172.2311 -5112.8998 294.5785 -6285.1309 -5085.4061 299.9785 217.2089 274.4737 20581.0795 41.3934 106.0796
ENERGY: 900000 0.2915 4.0637 0.6818 0.0000 -7278.5448 1008.3137 0.0000 0.0000 1176.4151 -5088.7791 295.6300 -6265.1942 -5076.0819 300.0801 -50.2671 65.0295 21082.9019 109.0840 177.8245
ENERGY: 1200000 1.0776 2.2086 0.0564 0.0000 -7322.0383 967.7089 0.0000 0.0000 1183.3323 -5167.6545 297.3682 -6350.9868 -5083.0707 300.1269 -630.5166 -529.9083 20581.8705 109.0498 163.8056
ENERGY: 1500000 2.5503 4.2403 1.0180 0.0000 -7341.1616 1026.9095 0.0000 0.0000 1214.9572 -5091.4863 305.3155 -6306.4436 -5086.1024 300.5506 424.3492 558.7297 20290.1319 73.2549 134.5733
TCL: Running FEP window   9: Lambda1 0.39999999999999997 Lambda2 0.44999999999999996 [dLambda 0.04999999999999999]
TCL: Setting parameter firsttimestep to 0
TCL: Setting parameter alchLambda to 0.39999999999999997
Info: NONBONDED TABLE R-SQUARED SPACING: 0.0625
Info: NONBONDED TABLE SIZE: 705 POINTS
TCL: Setting parameter alchLambda2 to 0.44999999999999996
Info: NONBONDED TABLE R-SQUARED SPACING: 0.0625
Info: NONBONDED TABLE SIZE: 705 POINTS
TCL: Running for 1500000 steps
ETITLE: TS BOND ANGLE DIHED IMPRP ELECT VDW BOUNDARY MISC KINETIC TOTAL TEMP POTENTIAL TOTALAVG TEMPAVG PRESSURE GPRESSURE VOLUME PRESSAVG GPRESSAVG
ENERGY: 0 2.5503 4.2403 1.0180 0.0000 -7341.1636 1027.2279 0.0000 0.0000 1214.3337 -5091.7935 305.1588 -6306.1271 -5091.7935 305.1588 480.6788 563.3354 20290.1319 480.6788 563.3354
ENERGY: 300000 0.8269 5.7943 0.8254 0.0000 -7141.6570 904.2394 0.0000 0.0000 1198.8011 -5031.1699 301.2555 -6229.9710 -5040.7391 299.6708 -559.8251 -480.8555 20585.7132 16.5617 81.7903
ENERGY: 600000 0.4337 2.1233 0.3151 0.0000 -7219.2277 939.5051 0.0000 0.0000 1203.6733 -5073.1772 302.4799 -6276.8506 -5059.8570 299.5901 -335.4839 -274.6886 20480.0483 56.4165 125.4197
ENERGY: 900000 0.1908 2.5209 1.3956 0.0000 -7199.6979 931.9304 0.0000 0.0000 1216.1453 -5047.5150 305.6141 -6263.6603 -5069.3592 301.0346 -775.2536 -677.1570 20682.5751 90.8443 165.2984
ENERGY: 1200000 0.1740 6.3210 0.2707 0.0000 -7230.0944 939.3854 0.0000 0.0000 1175.7178 -5108.2256 295.4547 -6283.9434 -5077.4627 300.4543 -628.0537 -556.9230 20569.8298 -18.1686 53.3686
ENERGY: 1500000 0.3560 2.4659 0.7624 0.0000 -7331.8083 1007.2147 0.0000 0.0000 1172.5038 -5148.5055 294.6471 -6321.0093 -5084.3460 299.6205 34.6524 77.1509 20673.1085 33.5241 105.5034
TCL: Running FEP window  10: Lambda1 0.44999999999999996 Lambda2 0.49999999999999994 [dLambda 0.04999999999999999]
TCL: Setting parameter firsttimestep to 0
TCL: Setting parameter alchLambda to 0.44999999999999996
Info: NONBONDED TABLE R-SQUARED SPACING: 0.0625
Info: NONBONDED TABLE SIZE: 705 POINTS
TCL: Setting parameter alchLambda2 to 0.49999999999999994
Info: NONBONDED TABLE R-SQUARED SPACING: 0.0625
Info: NONBONDED TABLE SIZE: 705 POINTS
TCL: Running for 1500000 steps
ETITLE: TS BOND ANGLE DIHED IMPRP ELECT VDW BOUNDARY MISC KINETIC TOTAL TEMP POTENTIAL TOTALAVG TEMPAVG PRESSURE GPRESSURE VOLUME PRESSAVG GPRESSAVG
ENERGY: 0 0.3560 2.4659 0.7624 0.0000 -7331.8095 1006.9978 0.0000 0.0000 1171.9245 -5149.3028 294.5015 -6321.2274 -5149.3028 294.5015 -0.6077 77.6228 20673.1085 -0.6077 77.6228
ENERGY: 300000 0.2089 5.1722 0.1911 0.0000 -7254.3450 998.2469 0.0000 0.0000 1214.3452 -5036.1806 305.1617 -6250.5259 -5059.4406 303.3391 156.7327 211.2632 20720.1029 31.0629 82.8332
ENERGY: 600000 0.5270 3.9248 1.1748 0.0000 -7205.9955 943.2811 0.0000 0.0000 1241.9642 -5015.1237 312.1023 -6257.0879 -5034.5761 304.4066 -356.7183 -308.6448 20693.0764 -117.3142 -78.5197
ENERGY: 900000 0.4114 4.0462 1.3128 0.0000 -7241.3562 1027.1191 0.0000 0.0000 1201.5718 -5006.8950 301.9518 -6208.4667 -5036.0079 304.1392 1030.5425 1093.3980 20305.2607 14.1036 52.3570
ENERGY: 1200000 0.1415 3.7371 0.9102 0.0000 -7218.3742 962.4419 0.0000 0.0000 1202.8378 -5048.3058 302.2699 -6251.1436 -5049.5590 302.8715 -123.5243 -59.8171 20518.5473 -183.1372 -132.7257
ENERGY: 1500000 1.3568 4.3350 0.5996 0.0000 -7202.3699 978.4460 0.0000 0.0000 1248.0079 -4969.6246 313.6210 -6217.6325 -5041.0500 304.3406 13.3190 136.4686 20821.7715 -79.8021 -21.7058
TCL: Running FEP window  11: Lambda1 0.49999999999999994 Lambda2 0.5499999999999999 [dLambda 0.04999999999999999]
TCL: Setting parameter firsttimestep to 0
TCL: Setting parameter alchLambda to 0.49999999999999994
Info: NONBONDED TABLE R-SQUARED SPACING: 0.0625
Info: NONBONDED TABLE SIZE: 705 POINTS
TCL: Setting parameter alchLambda2 to 0.5499999999999999
Info: NONBONDED TABLE R-SQUARED SPACING: 0.0625
Info: NONBONDED TABLE SIZE: 705 POINTS
TCL: Running for 1500000 steps
ETITLE: TS BOND ANGLE DIHED IMPRP ELECT VDW BOUNDARY MISC KINETIC TOTAL TEMP POTENTIAL TOTALAVG TEMPAVG PRESSURE GPRESSURE VOLUME PRESSAVG GPRESSAVG
ENERGY: 0 1.3568 4.3350 0.5996 0.0000 -7202.3690 978.6839 0.0000 0.0000 1247.4332 -4969.9603 313.4766 -6217.3936 -4969.9603 313.4766 56.9987 148.3376 20821.7715 56.9987 148.3376
ENERGY: 300000 0.6806 2.9170 0.7054 0.0000 -7178.8678 927.3464 0.0000 0.0000 1209.3827 -5037.8357 303.9146 -6247.2184 -5033.3577 308.2136 -590.8267 -553.5549 20809.6237 134.6995 197.5088
ENERGY: 600000 1.8343 3.3712 0.1604 0.0000 -7208.5267 972.2327 0.0000 0.0000 1180.9282 -5049.9998 296.7641 -6230.9280 -5048.6432 303.5186 226.2000 344.5258 20410.8615 -107.3500 -46.1711
ENERGY: 900000 1.5512 3.2619 0.3253 0.0000 -7216.1158 960.9997 0.0000 0.0000 1230.1412 -5019.8365 309.1312 -6249.9777 -5054.6474 304.4348 -165.4268 -224.5545 21105.5703 -31.2521 21.0265
ENERGY: 1200000 0.4771 2.5055 0.0790 0.0000 -7243.8831 1003.1076 0.0000 0.0000 1172.3199 -5065.3940 294.6009 -6237.7139 -5056.0127 303.9884 321.3502 443.5261 20681.5555 -53.0761 -0.6464
ENERGY: 1500000 1.1544 6.8993 0.5351 0.0000 -7219.7268 986.6788 0.0000 0.0000 1173.0246 -5051.4347 294.7779 -6224.4592 -5059.4771 303.3603 477.5684 577.7622 20380.8216 -25.6883 25.5474
TCL: Running FEP window  12: Lambda1 0.5499999999999999 Lambda2 0.6    [dLambda 0.050000000000000044]
TCL: Setting parameter firsttimestep to 0
TCL: Setting parameter alchLambda to 0.5499999999999999
Info: NONBONDED TABLE R-SQUARED SPACING: 0.0625
Info: NONBONDED TABLE SIZE: 705 POINTS
TCL: Setting parameter alchLambda2 to 0.6
Info: NONBONDED TABLE R-SQUARED SPACING: 0.0625
Info: NONBONDED TABLE SIZE: 705 POINTS
TCL: Running for 1500000 steps
ETITLE: TS BOND ANGLE DIHED IMPRP ELECT VDW BOUNDARY MISC KINETIC TOTAL TEMP POTENTIAL TOTALAVG TEMPAVG PRESSURE GPRESSURE VOLUME PRESSAVG GPRESSAVG
ENERGY: 0 1.1544 6.8993 0.5351 0.0000 -7219.5303 987.1854 0.0000 0.0000 1172.4460 -5051.3100 294.6326 -6223.7561 -5051.3100 294.6326 518.2269 594.5943 20380.8216 518.2269 594.5943
ENERGY: 300000 0.1163 6.5058 1.5068 0.0000 -7262.0059 991.9831 0.0000 0.0000 1184.6776 -5077.2163 297.7063 -6261.8939 -5072.7276 298.4822 262.6521 372.4313 20446.3167 93.6911 140.6678
ENERGY: 600000 0.0161 5.1324 1.1545 0.0000 -7243.4788 962.1283 0.0000 0.0000 1181.6066 -5093.4411 296.9346 -6275.0476 -5092.2377 297.4234 -190.3847 -195.2491 20624.8142 -76.9962 -25.1477
ENERGY: 900000 1.1212 2.7980 1.0593 0.0000 -7186.9006 958.5916 0.0000 0.0000 1170.5740 -5052.7564 294.1621 -6223.3304 -5086.5898 298.6926 54.6237 101.4599 20422.0973 -211.3483 -157.4065
ENERGY: 1200000 0.6249 2.3503 0.5004 0.0000 -7289.1728 999.1348 0.0000 0.0000 1180.2466 -5106.3157 296.5928 -6286.5623 -5083.9285 299.8210 381.7168 501.9510 20443.7477 -122.0570 -67.0420
ENERGY: 1500000 0.1948 8.5054 0.0476 0.0000 -7266.0947 1014.3143 0.0000 0.0000 1241.5934 -5001.4391 312.0091 -6243.0325 -5081.7112 301.2138 586.7980 754.7601 20412.9339 -60.8120 -9.6715
TCL: Running FEP window  13: Lambda1 0.6    Lambda2 0.65   [dLambda 0.050000000000000044]
TCL: Setting parameter firsttimestep to 0
TCL: Setting parameter alchLambda to 0.6
Info: NONBONDED TABLE R-SQUARED SPACING: 0.0625
Info: NONBONDED TABLE SIZE: 705 POINTS
TCL: Setting parameter alchLambda2 to 0.65
Info: NONBONDED TABLE R-SQUARED SPACING: 0.0625
Info: NONBONDED TABLE SIZE: 705 POINTS
TCL: Running for 1500000 steps
ETITLE: TS BOND ANGLE DIHED IMPRP ELECT VDW BOUNDARY MISC KINETIC TOTAL TEMP POTENTIAL TOTALAVG TEMPAVG PRESSURE GPRESSURE VOLUME PRESSAVG GPRESSAVG
ENERGY: 0 0.1948 8.5054 0.0476 0.0000 -7265.9608 1014.4303 0.0000 0.0000 1240.9576 -5001.8251 311.8493 -6242.7827 -5001.8251 311.8493 671.3887 763.6584 20412.9339 671.3887 763.6584
ENERGY: 300000 0.1099 5.3173 0.1554 0.0000 -7266.0646 998.8283 0.0000 0.0000 1183.0583 -5078.5953 297.2994 -6261.6536 -5064.3297 304.5722 313.9678 339.5025 20728.3861 381.4922 420.4477
ENERGY: 600000 1.2952 4.1150 0.2638 0.0000 -7170.0504 929.7294 0.0000 0.0000 1238.9693 -4995.6777 311.3497 -6234.6470 -5039.3520 303.9579 -424.8822 -360.6628 20653.3827 15.7892 46.1225
ENERGY: 900000 0.7046 2.2257 0.3465 0.0000 -7384.3888 1105.2588 0.0000 0.0000 1189.7295 -5086.1237 298.9758 -6275.8533 -5050.2765 301.8957 1531.6850 1619.5044 20717.0167 196.1375 236.9663
ENERGY: 1200000 0.0117 2.6861 0.4920 0.0000 -7349.0623 1008.0266 0.0000 0.0000 1207.6325 -5130.2133 303.4748 -6337.8458 -5045.5259 303.6888 418.2864 510.9827 20135.4154 145.7821 192.3831
ENERGY: 1500000 0.5146 3.4400 0.7258 0.0000 -7217.5697 934.7574 0.0000 0.0000 1262.3024 -5015.8294 317.2132 -6278.1319 -5044.3732 304.6474 -412.3796 -300.9495 20479.9523 125.5281 174.2114
TCL: Running FEP window  14: Lambda1 0.65   Lambda2 0.7000000000000001 [dLambda 0.050000000000000044]
TCL: Setting parameter firsttimestep to 0
TCL: Setting parameter alchLambda to 0.65
Info: NONBONDED TABLE R-SQUARED SPACING: 0.0625
Info: NONBONDED TABLE SIZE: 705 POINTS
TCL: Setting parameter alchLambda2 to 0.7000000000000001
Info: NONBONDED TABLE R-SQUARED SPACING: 0.0625
Info: NONBONDED TABLE SIZE: 705 POINTS
TCL: Running for 1500000 steps
ETITLE: TS BOND ANGLE DIHED IMPRP ELECT VDW BOUNDARY MISC KINETIC TOTAL TEMP POTENTIAL TOTALAVG TEMPAVG PRESSURE GPRESSURE VOLUME PRESSAVG GPRESSAVG
ENERGY: 0 0.5146 3.4400 0.7258 0.0000 -7217.6542 935.3029 0.0000 0.0000 1261.6977 -5015.9732 317.0613 -6277.6709 -5015.9732 317.0613 -385.0553 -286.5360 20479.9523 -385.0553 -286.5360
ENERGY: 300000 0.2664 2.1801 0.8939 0.0000 -7246.4651 950.9611 0.0000 0.0000 1140.0698 -5152.0937 286.4965 -6292.1635 -5035.0061 308.4160 -49.8550 36.1918 20204.4773 -512.8037 -422.5944
ENERGY: 600000 0.0412 3.3536 0.1616 0.0000 -7369.4231 1034.3910 0.0000 0.0000 1225.3129 -5106.1629 307.9178 -6331.4757 -5060.5702 307.3295 593.7899 593.6514 20433.7532 -25.2698 38.3533
ENERGY: 900000 0.1156 6.1676 0.1232 0.0000 -7328.9848 983.6658 0.0000 0.0000 1239.1997 -5099.7130 311.4076 -6338.9127 -5069.0124 306.0853 -29.2244 45.8433 20378.1240 10.0489 76.0577
ENERGY: 1200000 0.4646 3.8349 0.0824 0.0000 -7308.0489 1023.1125 0.0000 0.0000 1228.2236 -5052.3310 308.6493 -6280.5545 -5063.8624 306.5657 242.2013 425.2042 20676.9081 -28.9586 45.0123
ENERGY: 1500000 1.2065 1.8187 0.7848 0.0000 -7188.3137 903.1488 0.0000 0.0000 1173.4170 -5107.9379 294.8766 -6281.3549 -5064.6055 305.8286 -823.9243 -796.6071 20570.1698 -63.7686 10.8273
TCL: Running FEP window  15: Lambda1 0.7000000000000001 Lambda2 0.7500000000000001 [dLambda 0.050000000000000044]
TCL: Setting parameter firsttimestep to 0
TCL: Setting parameter alchLambda to 0.7000000000000001
Info: NONBONDED TABLE R-SQUARED SPACING: 0.0625
Info: NONBONDED TABLE SIZE: 705 POINTS
TCL: Setting parameter alchLambda2 to 0.7500000000000001
Info: NONBONDED TABLE R-SQUARED SPACING: 0.0625
Info: NONBONDED TABLE SIZE: 705 POINTS
TCL: Running for 1500000 steps
ETITLE: TS BOND ANGLE DIHED IMPRP ELECT VDW BOUNDARY MISC KINETIC TOTAL TEMP POTENTIAL TOTALAVG TEMPAVG PRESSURE GPRESSURE VOLUME PRESSAVG GPRESSAVG
ENERGY: 0 1.2065 1.8187 0.7848 0.0000 -7188.4631 902.9949 0.0000 0.0000 1172.8435 -5108.8148 294.7324 -6281.6583 -5108.8148 294.7324 -887.2404 -793.7210 20570.1698 -887.2404 -793.7210
ENERGY: 300000 0.1447 3.8073 0.0631 0.0000 -7174.6935 963.7373 0.0000 0.0000 1248.9346 -4958.0066 313.8539 -6206.9412 -5058.0302 302.5365 32.2186 61.3179 20807.6106 -595.3193 -545.2094
ENERGY: 600000 0.5916 1.5408 0.4751 0.0000 -7321.9057 983.6429 0.0000 0.0000 1151.4628 -5184.1926 289.3595 -6335.6553 -5063.6914 301.5252 -471.7689 -469.6010 20807.7262 -91.6279 -37.9384
ENERGY: 900000 0.2824 3.8383 0.1236 0.0000 -7244.5378 958.0838 0.0000 0.0000 1223.5111 -5058.6985 307.4651 -6282.2096 -5057.7984 302.0365 5.7195 20.8524 20294.2114 -91.4566 -35.7916
ENERGY: 1200000 0.6479 4.1388 0.2206 0.0000 -7323.6994 957.8537 0.0000 0.0000 1185.6266 -5175.2117 297.9448 -6360.8383 -5078.4608 300.6419 -479.3683 -356.4058 20509.8156 -102.0434 -31.5189
ENERGY: 1500000 0.7662 5.5852 0.6382 0.0000 -7245.2499 959.7570 0.0000 0.0000 1212.3548 -5066.1485 304.6615 -6278.5033 -5072.7736 302.3262 -371.0952 -263.5851 20812.3749 -149.4950 -72.2533
TCL: Running FEP window  16: Lambda1 0.7500000000000001 Lambda2 0.8000000000000002 [dLambda 0.050000000000000044]
TCL: Setting parameter firsttimestep to 0
TCL: Setting parameter alchLambda to 0.7500000000000001
Info: NONBONDED TABLE R-SQUARED SPACING: 0.0625
Info: NONBONDED TABLE SIZE: 705 POINTS
TCL: Setting parameter alchLambda2 to 0.8000000000000002
Info: NONBONDED TABLE R-SQUARED SPACING: 0.0625
Info: NONBONDED TABLE SIZE: 705 POINTS
TCL: Running for 1500000 steps
ETITLE: TS BOND ANGLE DIHED IMPRP ELECT VDW BOUNDARY MISC KINETIC TOTAL TEMP POTENTIAL TOTALAVG TEMPAVG PRESSURE GPRESSURE VOLUME PRESSAVG GPRESSAVG
ENERGY: 0 0.7662 5.5852 0.6382 0.0000 -7245.2552 959.5758 0.0000 0.0000 1211.7196 -5066.9703 304.5019 -6278.6898 -5066.9703 304.5019 -339.5236 -258.1422 20812.3749 -339.5236 -258.1422
ENERGY: 300000 0.0798 2.3207 0.1813 0.0000 -7329.9260 1023.1145 0.0000 0.0000 1234.7485 -5069.4812 310.2890 -6304.2297 -5043.5068 305.6318 582.2720 694.3151 20504.5203 273.2044 308.6889
ENERGY: 600000 1.2424 1.5346 0.3470 0.0000 -7403.0967 1067.6697 0.0000 0.0000 1127.0095 -5205.2935 283.2145 -6332.3030 -5080.0033 300.2938 925.1330 935.2902 20431.5896 135.0768 181.9788
ENERGY: 900000 0.0051 3.5338 0.1251 0.0000 -7201.6767 966.4792 0.0000 0.0000 1180.2654 -5051.2681 296.5975 -6231.5335 -5074.8537 299.5650 15.7094 11.6968 20866.0518 105.2364 161.8040
ENERGY: 1200000 0.5571 1.7860 1.2575 0.0000 -7304.5580 997.8251 0.0000 0.0000 1185.1697 -5117.9625 297.8300 -6303.1323 -5078.3594 300.4343 126.4907 168.1058 20538.7115 14.8705 78.1174
ENERGY: 1500000 0.1117 1.6459 0.2695 0.0000 -7202.3923 966.6176 0.0000 0.0000 1207.1561 -5026.5914 303.3551 -6233.7475 -5076.4596 301.0035 79.2913 117.9419 20588.2181 -1.7065 58.0891
TCL: Running FEP window  17: Lambda1 0.8000000000000002 Lambda2 0.8500000000000002 [dLambda 0.050000000000000044]
TCL: Setting parameter firsttimestep to 0
TCL: Setting parameter alchLambda to 0.8000000000000002
Info: NONBONDED TABLE R-SQUARED SPACING: 0.0625
Info: NONBONDED TABLE SIZE: 705 POINTS
TCL: Setting parameter alchLambda2 to 0.8500000000000002
Info: NONBONDED TABLE R-SQUARED SPACING: 0.0625
Info: NONBONDED TABLE SIZE: 705 POINTS
TCL: Running for 1500000 steps
ETITLE: TS BOND ANGLE DIHED IMPRP ELECT VDW BOUNDARY MISC KINETIC TOTAL TEMP POTENTIAL TOTALAVG TEMPAVG PRESSURE GPRESSURE VOLUME PRESSAVG GPRESSAVG
ENERGY: 0 0.1117 1.6459 0.2695 0.0000 -7202.8922 966.4993 0.0000 0.0000 1206.5883 -5027.7775 303.2124 -6234.3658 -5027.7775 303.2124 38.2826 127.5083 20588.2181 38.2826 127.5083
ENERGY: 300000 0.1873 2.4070 0.3537 0.0000 -7274.7485 990.3659 0.0000 0.0000 1223.9577 -5057.4768 307.5773 -6281.4344 -5062.8189 300.4838 582.0945 700.5521 20064.2621 -66.8015 14.3580
ENERGY: 600000 0.7560 5.8765 0.2658 0.0000 -7288.2348 1033.5431 0.0000 0.0000 1158.2577 -5089.5358 291.0671 -6247.7936 -5067.8968 299.4610 488.7556 445.9332 21038.9988 -25.9595 42.1896
ENERGY: 900000 0.2497 1.9704 0.3110 0.0000 -7212.7744 951.9345 0.0000 0.0000 1192.8630 -5065.4458 299.7633 -6258.3088 -5076.4489 299.1527 -396.1607 -360.8257 20728.9360 -177.7655 -111.1101
ENERGY: 1200000 0.0369 3.2995 0.3295 0.0000 -7196.7240 900.2046 0.0000 0.0000 1179.2851 -5113.5684 296.3512 -6292.8535 -5082.7813 299.2420 -806.3618 -704.0945 20367.1968 -292.0660 -222.0724
ENERGY: 1500000 0.2054 4.5221 0.1777 0.0000 -7290.9484 987.7696 0.0000 0.0000 1181.7695 -5116.5041 296.9755 -6298.2736 -5085.5038 298.8263 284.0371 333.7077 20379.3372 -159.7957 -91.4539
TCL: Running FEP window  18: Lambda1 0.8500000000000002 Lambda2 0.9000000000000002 [dLambda 0.050000000000000044]
TCL: Setting parameter firsttimestep to 0
TCL: Setting parameter alchLambda to 0.8500000000000002
Info: NONBONDED TABLE R-SQUARED SPACING: 0.0625
Info: NONBONDED TABLE SIZE: 705 POINTS
TCL: Setting parameter alchLambda2 to 0.9000000000000002
Info: NONBONDED TABLE R-SQUARED SPACING: 0.0625
Info: NONBONDED TABLE SIZE: 705 POINTS
TCL: Running for 1500000 steps
ETITLE: TS BOND ANGLE DIHED IMPRP ELECT VDW BOUNDARY MISC KINETIC TOTAL TEMP POTENTIAL TOTALAVG TEMPAVG PRESSURE GPRESSURE VOLUME PRESSAVG GPRESSAVG
ENERGY: 0 0.2054 4.5221 0.1777 0.0000 -7291.4011 988.7208 0.0000 0.0000 1181.1738 -5116.6013 296.8258 -6297.7751 -5116.6013 296.8258 272.4019 359.3488 20379.3372 272.4019 359.3488
ENERGY: 300000 0.5180 4.2953 0.4838 0.0000 -7266.0272 979.9439 0.0000 0.0000 1212.7618 -5068.0245 304.7638 -6280.7863 -5113.7076 299.8950 262.5694 358.6351 20257.5684 99.7617 197.2125
ENERGY: 600000 0.3236 2.1412 1.1756 0.0000 -7026.8063 868.7055 0.0000 0.0000 1179.6124 -4974.8481 296.4334 -6154.4604 -5088.7572 299.0130 -1049.3503 -934.7219 21228.3838 45.9336 130.3242
ENERGY: 900000 0.1319 4.0461 0.6465 0.0000 -7334.4824 1049.0679 0.0000 0.0000 1226.2171 -5054.3730 308.1451 -6280.5901 -5081.2097 300.4989 941.6960 970.3792 20635.6125 99.0978 181.0098
ENERGY: 1200000 1.3544 3.3503 0.3608 0.0000 -7270.3860 1018.1201 0.0000 0.0000 1140.0355 -5107.1648 286.4879 -6247.2003 -5086.6206 298.9833 421.9986 498.6273 20614.9126 175.2795 253.5786
ENERGY: 1500000 0.0443 2.9926 0.4240 0.0000 -7258.8833 976.7539 0.0000 0.0000 1211.2066 -5067.4619 304.3730 -6278.6685 -5082.1554 299.2929 335.8493 383.9517 20360.1477 128.9182 199.7628
TCL: Running FEP window  19: Lambda1 0.9000000000000002 Lambda2 0.9500000000000003 [dLambda 0.050000000000000044]
TCL: Setting parameter firsttimestep to 0
TCL: Setting parameter alchLambda to 0.9000000000000002
Info: NONBONDED TABLE R-SQUARED SPACING: 0.0625
Info: NONBONDED TABLE SIZE: 705 POINTS
TCL: Setting parameter alchLambda2 to 0.9500000000000003
Info: NONBONDED TABLE R-SQUARED SPACING: 0.0625
Info: NONBONDED TABLE SIZE: 705 POINTS
TCL: Running for 1500000 steps
ETITLE: TS BOND ANGLE DIHED IMPRP ELECT VDW BOUNDARY MISC KINETIC TOTAL TEMP POTENTIAL TOTALAVG TEMPAVG PRESSURE GPRESSURE VOLUME PRESSAVG GPRESSAVG
ENERGY: 0 0.0443 2.9926 0.4240 0.0000 -7259.4478 977.3505 0.0000 0.0000 1210.5851 -5068.0513 304.2168 -6278.6364 -5068.0513 304.2168 315.0330 404.5636 20360.1477 315.0330 404.5636
ENERGY: 300000 0.2941 3.5676 0.0426 0.0000 -7263.9375 971.3047 0.0000 0.0000 1234.5552 -5054.1733 310.2404 -6288.7285 -5085.1512 302.4206 54.6269 175.9758 20540.5924 -79.4835 33.4550
ENERGY: 600000 0.1770 1.6064 0.6932 0.0000 -7233.4024 933.7539 0.0000 0.0000 1242.8815 -5054.2904 312.3328 -6297.1719 -5085.7263 300.3517 -364.8784 -284.6742 20405.8678 -368.2905 -271.8990
ENERGY: 900000 0.8180 4.4274 0.9417 0.0000 -7122.5295 871.8031 0.0000 0.0000 1144.6403 -5099.8990 287.6450 -6244.5393 -5073.9855 299.2982 -1010.1668 -1032.9599 20856.4124 -259.0605 -182.8745
ENERGY: 1200000 0.6367 4.5766 0.2749 0.0000 -7389.3906 1082.4943 0.0000 0.0000 1227.3299 -5074.0782 308.4247 -6301.4081 -5064.1724 301.4379 1244.4558 1209.1955 20504.2593 -8.1165 54.5674
ENERGY: 1500000 0.1353 1.4032 0.4276 0.0000 -7250.8955 996.4476 0.0000 0.0000 1154.2835 -5098.1983 290.0683 -6252.4818 -5061.7980 300.2540 -209.5327 -114.2879 21155.4649 -1.3954 68.7231
TCL: Running FEP window  20: Lambda1 0.9500000000000003 Lambda2 1.0    [dLambda 0.04999999999999971]
TCL: Setting parameter firsttimestep to 0
TCL: Setting parameter alchLambda to 0.9500000000000003
Info: NONBONDED TABLE R-SQUARED SPACING: 0.0625
Info: NONBONDED TABLE SIZE: 705 POINTS
TCL: Setting parameter alchLambda2 to 1.0
Info: NONBONDED TABLE R-SQUARED SPACING: 0.0625
Info: NONBONDED TABLE SIZE: 705 POINTS
TCL: Running for 1500000 steps
ETITLE: TS BOND ANGLE DIHED IMPRP ELECT VDW BOUNDARY MISC KINETIC TOTAL TEMP POTENTIAL TOTALAVG TEMPAVG PRESSURE GPRESSURE VOLUME PRESSAVG GPRESSAVG
ENERGY: 0 0.1353 1.4032 0.4276 0.0000 -7251.2557 997.2767 0.0000 0.0000 1153.7187 -5098.2942 289.9264 -6252.0129 -5098.2942 289.9264 -162.3144 -81.1846 21155.4649 -162.3144 -81.1846
ENERGY: 300000 0.4628 1.6661 0.0285 0.0000 -7270.5981 989.5801 0.0000 0.0000 1182.9591 -5095.9014 297.2745 -6278.8605 -5082.3024 294.8754 279.7317 313.3866 20508.1836 -113.2574 -72.9001
ENERGY: 600000 1.1339 4.9162 0.5334 0.0000 -7289.2928 1025.2675 0.0000 0.0000 1200.1137 -5057.3282 301.5854 -6257.4419 -5074.3242 296.3935 689.4567 753.0590 20553.0876 94.6725 144.4543
ENERGY: 900000 1.1435 2.2705 0.8285 0.0000 -7246.5294 1010.6051 0.0000 0.0000 1218.4105 -5013.2713 306.1833 -6231.6818 -5073.7698 297.5345 811.2477 865.9816 20500.6318 247.1900 298.4848
ENERGY: 1200000 0.1558 3.9251 0.0644 0.0000 -7275.1890 966.5718 0.0000 0.0000 1206.0451 -5098.4268 303.0759 -6304.4719 -5078.2112 298.3559 -117.2320 -86.0473 20615.6700 173.5231 221.5718
ENERGY: 1500000 0.1427 1.9900 0.2584 0.0000 -7268.7157 989.2984 0.0000 0.0000 1210.8258 -5066.2004 304.2773 -6277.0262 -5075.4196 298.6727 509.7681 519.8891 20269.9226 209.4753 256.5370
TCL: Exiting due to exit command.
