Info: SIMULATION PARAMETERS:
Info: TIMESTEP               2
Info: NUMBER OF STEPS        0
Info: STEPS PER CYCLE        10
Info: PERIODIC CELL BASIS 1  27.9174 0 0
Info: PERIODIC CELL BASIS 2  0 27.7463 0
Info: PERIODIC CELL BASIS 3  0 0 27.1143
Info: PERIODIC CELL CENTER   0 0 0
Info: WRAPPING WATERS AROUND PERIODIC BOUNDARIES ON OUTPUT.
Info: WRAPPING ALL CLUSTERS AROUND PERIODIC BOUNDARIES ON OUTPUT.
Info: FIRST LDB TIMESTEP     50
Info: LAST LDB TIMESTEP     -1
Info: HOM BACKGROUND SCALING 1
Info: PME BACKGROUND SCALING 1
Info: MIN ATOMS PER PATCH    40
Info: EMPTY PATCH LOAD       40 ATOMS
Info: VELOCITY FILE          mobley_7261305_equil.vel
Info: CENTER OF MASS MOVING INITIALLY? NO
Info: DIELECTRIC             1
Info: EXCLUDE                SCALED ONE-FOUR
Info: 1-4 ELECTROSTATICS SCALED BY 0.833333
Info: MODIFIED 1-4 VDW PARAMETERS WILL BE USED
Info: DCD FILENAME           mobley_7261305_prod.dcd
Info: DCD FREQUENCY          100000
Info: DCD FIRST STEP         100000
Info: DCD FILE WILL CONTAIN UNIT CELL DATA
Info: XST FILENAME           mobley_7261305_prod.xst
Info: XST FREQUENCY          100000
Info: NO VELOCITY DCD OUTPUT
Info: NO FORCE DCD OUTPUT
Info: OUTPUT FILENAME        mobley_7261305_prod
Info: BINARY OUTPUT FILES WILL BE USED
Info: NO RESTART FILE
Info: CUTOFF                 9
Info: PAIRLIST DISTANCE      11
Info: PAIRLIST SHRINK RATE   0.01
Info: PAIRLIST GROW RATE     0.01
Info: PAIRLIST TRIGGER       0.3
Info: PAIRLISTS PER CYCLE    2
Info: PAIRLISTS ENABLED
Info: MARGIN                 2
Info: HYDROGEN GROUP CUTOFF  2.5
Info: PATCH DIMENSION        15.5
Info: ENERGY OUTPUT STEPS    100000
Info: ENERGY EVALUATION STEPS    100000
Info: OUTPUT ENERGY PRECISION 4
Info: CROSSTERM ENERGY INCLUDED IN DIHEDRAL
Info: TIMING OUTPUT STEPS    1000000
Info: PRESSURE OUTPUT STEPS  100000
Info: ALCHEMICAL FEP ON
Info: FEP CURRENT LAMBDA VALUE     0
Info: FEP COMPARISON LAMBDA VALUE  0.05
Info: FEP INTRA-ALCHEMICAL NON-BONDED INTERACTIONS WILL BE RETAINED
Info: FEP INTRA-ALCHEMICAL BONDED INTERACTIONS WILL BE RETAINED
Info: FEP VDW SHIFTING COEFFICIENT 5
Info: FEP ELEC. ACTIVE FOR ANNIHILATED PARTICLES BETWEEN LAMBDA = 0 AND LAMBDA = 0.5
Info: FEP ELEC. ACTIVE FOR EXNIHILATED PARTICLES BETWEEN LAMBDA = 0.5 AND LAMBDA = 1
Info: FEP VDW ACTIVE FOR ANNIHILATED PARTICLES BETWEEN LAMBDA = 0 AND LAMBDA = 1
Info: FEP VDW ACTIVE FOR EXNIHILATED PARTICLES BETWEEN LAMBDA = 0 AND LAMBDA = 1
Info: FEP BOND ACTIVE FOR ANNIHILATED PARTICLES BETWEEN LAMBDA = 1 AND LAMBDA = 1
Info: FEP BOND ACTIVE FOR EXNIHILATED PARTICLES BETWEEN LAMBDA = 0 AND LAMBDA = 0
Info: LANGEVIN DYNAMICS ACTIVE
Info: LANGEVIN TEMPERATURE   300
Info: LANGEVIN USING BBK INTEGRATOR
Info: LANGEVIN DAMPING COEFFICIENT IS 1 INVERSE PS
Info: LANGEVIN DYNAMICS APPLIED TO HYDROGENS
Info: LANGEVIN PISTON PRESSURE CONTROL ACTIVE
Info:        TARGET PRESSURE IS 1.01325 BAR
Info:     OSCILLATION PERIOD IS 50 FS
Info:             DECAY TIME IS 25 FS
Info:     PISTON TEMPERATURE IS 300 K
Info:       PRESSURE CONTROL IS GROUP-BASED
Info:    INITIAL STRAIN RATE IS 0.000437959 0.000437959 0.000437959
Info:       CELL FLUCTUATION IS ISOTROPIC
Info: PARTICLE MESH EWALD (PME) ACTIVE
Info: PME TOLERANCE               1e-06
Info: PME EWALD COEFFICIENT       0.348832
Info: PME INTERPOLATION ORDER     4
Info: PME GRID DIMENSIONS         28 28 28
Info: PME MAXIMUM GRID SPACING    1
Info: PME CALCULATION WILL BE PERFORMED ON GPU
Info: FULL ELECTROSTATIC EVALUATION FREQUENCY      2
Info: USING VERLET I (r-RESPA) MTS SCHEME.
Info: C1 SPLITTING OF LONG RANGE ELECTROSTATICS
Info: PLACING ATOMS IN PATCHES BY HYDROGEN GROUPS
Info: RIGID BONDS TO HYDROGEN : ALL
Info:         ERROR TOLERANCE : 1e-08
Info:          MAX ITERATIONS : 100
Info: RIGID WATER USING SETTLE ALGORITHM
Info: RANDOM NUMBER SEED     1741647983
Info: USE HYDROGEN BONDS?    NO
Info: Using AMBER format force field!
Info: AMBER PARM FILE        mobley_7261305.prmtop
Info: COORDINATE PDB         mobley_7261305.pdb
Info: Exclusions will be read from PARM file!
Info: SCNB (VDW SCALING)     2
Info: USING ARITHMETIC MEAN TO COMBINE L-J SIGMA PARAMETERS
Info: BINARY COORDINATES     mobley_7261305_equil.coor
Info: SUMMARY OF PARAMETERS:
Info: 4 BONDS
Info: 2 ANGLES
Info:   2 HARMONIC
Info:   0 COSINE-BASED
Info: 1 DIHEDRAL
Info: 0 IMPROPER
Info: 0 CROSSTERM
Info: 0 VDW
Info: 10 VDW_PAIRS
Info: 0 NBTHOLE_PAIRS
Info: To read alchdata from file: mobley_7261305.pdb
Info: To read alchflag data from column: 5
Info: STRUCTURE SUMMARY:
Info: 2025 ATOMS
Info: 2024 BONDS
Info: 6 ANGLES
Info: 4 DIHEDRALS
Info: 0 IMPROPERS
Info: 0 CROSSTERMS
Info: 2034 EXCLUSIONS
Info: 2023 RIGID BONDS
Info: ALCH: 0 ATOMS TO DISAPPEAR IN FINAL STATE
Info: ALCH: 6 ATOMS TO APPEAR IN FINAL STATE
Info: 4052 DEGREES OF FREEDOM
Info: 675 HYDROGEN GROUPS
Info: 3 ATOMS IN LARGEST HYDROGEN GROUP
Info: 675 MIGRATION GROUPS
Info: 3 ATOMS IN LARGEST MIGRATION GROUP
Info: TOTAL MASS = 12156.8 amu
Info: TOTAL CHARGE = -0.000200033 e
Info: MASS DENSITY = 0.961168 g/cm^3
Info: ATOM DENSITY = 0.0964151 atoms/A^3
Info: ADDED 0 IMPLICIT EXCLUSIONS
Info: NONBONDED TABLE R-SQUARED SPACING: 0.0625
Info: NONBONDED TABLE SIZE: 705 POINTS
Info: REMOVING COM VELOCITY 0.0367005 -0.186384 0.105997
Info: Use 3D box decompostion in PME FFT.
Info: Updated CUDA force table with 4096 elements.
Info: Updated CUDA LJ table with 4 x 4 elements.
Info: Found 9 unique exclusion lists needing 12 bytes
TCL: Running for 1500000 steps
ETITLE: TS BOND ANGLE DIHED IMPRP ELECT VDW BOUNDARY MISC KINETIC TOTAL TEMP POTENTIAL TOTALAVG TEMPAVG PRESSURE GPRESSURE VOLUME PRESSAVG GPRESSAVG
ENERGY: 0 0.2902 2.8350 7.0602 0.0000 -7175.5863 872.4053 0.0000 0.0000 1203.8593 -5089.1363 299.0176 -6292.9956 -5089.1363 299.0176 -1426.0321 -1329.0907 21002.9303 -1426.0321 -1329.0907
ENERGY: 300000 0.0020 7.0133 4.8833 0.0000 -7420.0474 1073.7660 0.0000 0.0000 1230.4161 -5103.9667 305.6138 -6334.3828 -5089.3714 301.2268 1178.8989 1235.8179 20281.2925 -133.0972 -47.0257
ENERGY: 600000 1.3332 0.9477 6.8761 0.0000 -7310.8415 974.3035 0.0000 0.0000 1212.7192 -5114.6617 301.2182 -6327.3809 -5099.0964 300.0966 -168.1409 -156.0194 20773.1159 -112.4652 -44.5876
ENERGY: 900000 0.7191 2.4434 10.5317 0.0000 -7465.7914 1098.8063 0.0000 0.0000 1146.7724 -5206.5186 284.8382 -6353.2910 -5105.6478 298.5890 1153.9157 1201.4533 20345.7668 -13.6233 37.7377
ENERGY: 1200000 0.0003 2.1745 6.6925 0.0000 -7187.9447 933.5463 0.0000 0.0000 1168.2645 -5077.2665 290.1764 -6245.5310 -5098.7998 299.5771 -362.8286 -333.2858 20765.2063 -11.5885 42.8325
ENERGY: 1500000 0.0711 1.7185 9.0953 0.0000 -7216.6506 974.9845 0.0000 0.0000 1205.4768 -5025.3044 299.4193 -6230.7812 -5090.0124 299.9007 -202.9147 -127.7716 21290.4721 -33.3816 32.1084
TCL: Running FEP window   2: Lambda1 0.05   Lambda2 0.1    [dLambda 0.05  ]
TCL: Setting parameter firsttimestep to 0
TCL: Setting parameter alchLambda to 0.05
Info: NONBONDED TABLE R-SQUARED SPACING: 0.0625
Info: NONBONDED TABLE SIZE: 705 POINTS
TCL: Setting parameter alchLambda2 to 0.1
Info: NONBONDED TABLE R-SQUARED SPACING: 0.0625
Info: NONBONDED TABLE SIZE: 705 POINTS
TCL: Running for 1500000 steps
ETITLE: TS BOND ANGLE DIHED IMPRP ELECT VDW BOUNDARY MISC KINETIC TOTAL TEMP POTENTIAL TOTALAVG TEMPAVG PRESSURE GPRESSURE VOLUME PRESSAVG GPRESSAVG
ENERGY: 0 0.0711 1.7185 9.0953 0.0000 -7216.6501 975.2680 0.0000 0.0000 1204.8885 -5025.6087 299.2732 -6230.4972 -5025.6087 299.2732 -222.1637 -126.9448 21290.4721 -222.1637 -126.9448
ENERGY: 300000 0.7616 2.3672 6.7748 0.0000 -7287.5306 957.8322 0.0000 0.0000 1180.7904 -5139.0044 293.2876 -6319.7948 -5079.3965 299.6755 -599.9161 -565.1558 21295.1740 -90.9722 -29.7810
ENERGY: 600000 0.0018 9.9503 3.9796 0.0000 -7247.8063 914.9233 0.0000 0.0000 1212.4471 -5106.5042 301.1506 -6318.9513 -5079.9474 299.8583 -921.1712 -888.3670 20725.9278 -195.7877 -130.9998
ENERGY: 900000 0.6178 4.7619 5.9317 0.0000 -7276.4293 949.8183 0.0000 0.0000 1249.4468 -5065.8528 310.3407 -6315.2996 -5082.5536 301.6352 -606.5479 -594.0245 20892.4121 -323.3403 -257.7957
ENERGY: 1200000 0.0312 5.1288 5.2665 0.0000 -7343.0491 1020.6893 0.0000 0.0000 1237.2443 -5074.6891 307.3098 -6311.9334 -5080.0214 302.3466 44.6684 130.3998 21030.7850 -231.5823 -162.3406
ENERGY: 1500000 1.8187 3.2231 6.2952 0.0000 -7283.7685 952.4698 0.0000 0.0000 1227.7240 -5092.2378 304.9451 -6319.9618 -5088.7552 302.0515 -475.4139 -411.2951 20624.3403 -97.0822 -30.7987
TCL: Running FEP window   3: Lambda1 0.1    Lambda2 0.15000000000000002 [dLambda 0.05000000000000002]
TCL: Setting parameter firsttimestep to 0
TCL: Setting parameter alchLambda to 0.1
Info: NONBONDED TABLE R-SQUARED SPACING: 0.0625
Info: NONBONDED TABLE SIZE: 705 POINTS
TCL: Setting parameter alchLambda2 to 0.15000000000000002
Info: NONBONDED TABLE R-SQUARED SPACING: 0.0625
Info: NONBONDED TABLE SIZE: 705 POINTS
TCL: Running for 1500000 steps
ETITLE: TS BOND ANGLE DIHED IMPRP ELECT VDW BOUNDARY MISC KINETIC TOTAL TEMP POTENTIAL TOTALAVG TEMPAVG PRESSURE GPRESSURE VOLUME PRESSAVG GPRESSAVG
ENERGY: 0 1.8187 3.2231 6.2952 0.0000 -7283.7674 953.0205 0.0000 0.0000 1227.1264 -5092.2835 304.7967 -6319.4099 -5092.2835 304.7967 -474.6770 -407.0343 20624.3403 -474.6770 -407.0343
ENERGY: 300000 0.0574 5.2595 4.6455 0.0000 -7365.2313 965.4935 0.0000 0.0000 1166.7475 -5223.0280 289.7996 -6389.7754 -5118.8505 302.2054 -818.8862 -713.8054 20852.2923 -891.1279 -796.5419
ENERGY: 600000 3.0710 3.1617 8.1702 0.0000 -7391.4462 1081.3296 0.0000 0.0000 1267.5383 -5028.1754 314.8343 -6295.7137 -5112.5792 302.6348 1003.3253 1101.9786 20772.6572 -261.4841 -169.8939
ENERGY: 900000 0.0274 3.8170 5.0936 0.0000 -7279.4783 981.8357 0.0000 0.0000 1178.3249 -5110.3797 292.6753 -6288.7046 -5101.8676 300.9207 -199.3784 -64.9367 20884.8531 -222.2338 -133.2801
ENERGY: 1200000 0.0013 5.2867 5.5015 0.0000 -7267.0009 967.2575 0.0000 0.0000 1249.7577 -5039.1960 310.4179 -6288.9537 -5097.3664 300.5798 -128.3246 -87.4538 20810.1015 -179.6811 -100.0311
ENERGY: 1500000 1.3473 2.9221 6.7163 0.0000 -7325.1826 998.4173 0.0000 0.0000 1221.3428 -5094.4368 303.3602 -6315.7796 -5101.0544 300.9922 -149.4881 -171.2451 21023.5408 -138.3438 -66.3456
TCL: Running FEP window   4: Lambda1 0.15000000000000002 Lambda2 0.2    [dLambda 0.04999999999999999]
TCL: Setting parameter firsttimestep to 0
TCL: Setting parameter alchLambda to 0.15000000000000002
Info: NONBONDED TABLE R-SQUARED SPACING: 0.0625
Info: NONBONDED TABLE SIZE: 705 POINTS
TCL: Setting parameter alchLambda2 to 0.2
Info: NONBONDED TABLE R-SQUARED SPACING: 0.0625
Info: NONBONDED TABLE SIZE: 705 POINTS
TCL: Running for 1500000 steps
ETITLE: TS BOND ANGLE DIHED IMPRP ELECT VDW BOUNDARY MISC KINETIC TOTAL TEMP POTENTIAL TOTALAVG TEMPAVG PRESSURE GPRESSURE VOLUME PRESSAVG GPRESSAVG
ENERGY: 0 1.3473 2.9221 6.7163 0.0000 -7325.1831 998.2867 0.0000 0.0000 1220.7190 -5095.1917 303.2052 -6315.9107 -5095.1917 303.2052 -255.8739 -172.8195 21023.5408 -255.8739 -172.8195
ENERGY: 300000 0.3417 2.2068 6.5325 0.0000 -7253.2301 968.1191 0.0000 0.0000 1228.5761 -5047.4538 305.1568 -6276.0299 -5102.7004 300.5462 -236.4644 -263.5111 21047.7877 -343.8482 -303.8657
ENERGY: 600000 0.4012 2.1138 6.8926 0.0000 -7280.1971 974.8269 0.0000 0.0000 1266.7390 -5029.2236 314.6358 -6295.9626 -5085.3810 302.3217 -238.5575 -214.9982 20961.2017 -233.7411 -185.8340
ENERGY: 900000 0.0041 3.4111 5.5823 0.0000 -7264.7229 965.7124 0.0000 0.0000 1239.9676 -5050.0453 307.9862 -6290.0129 -5076.6127 302.2807 -177.2036 -123.4957 20767.4354 -238.8398 -182.7101
ENERGY: 1200000 0.3290 2.5822 7.4463 0.0000 -7205.6306 936.0973 0.0000 0.0000 1209.8197 -5049.3562 300.4980 -6259.1759 -5075.8044 301.0047 -341.2637 -264.1731 20748.8740 -205.8698 -153.1768
ENERGY: 1500000 0.4505 4.5815 6.2359 0.0000 -7281.0097 977.2700 0.0000 0.0000 1222.6321 -5069.8397 303.6804 -6292.4718 -5079.9896 300.6118 -390.2915 -308.8949 21220.0562 -239.1025 -177.4590
TCL: Running FEP window   5: Lambda1 0.2    Lambda2 0.25   [dLambda 0.04999999999999999]
TCL: Setting parameter firsttimestep to 0
TCL: Setting parameter alchLambda to 0.2
Info: NONBONDED TABLE R-SQUARED SPACING: 0.0625
Info: NONBONDED TABLE SIZE: 705 POINTS
TCL: Setting parameter alchLambda2 to 0.25
Info: NONBONDED TABLE R-SQUARED SPACING: 0.0625
Info: NONBONDED TABLE SIZE: 705 POINTS
TCL: Running for 1500000 steps
ETITLE: TS BOND ANGLE DIHED IMPRP ELECT VDW BOUNDARY MISC KINETIC TOTAL TEMP POTENTIAL TOTALAVG TEMPAVG PRESSURE GPRESSURE VOLUME PRESSAVG GPRESSAVG
ENERGY: 0 0.4505 4.5815 6.2359 0.0000 -7281.0090 978.2369 0.0000 0.0000 1222.0019 -5069.5023 303.5239 -6291.5042 -5069.5023 303.5239 -383.9199 -301.2252 21220.0562 -383.9199 -301.2252
ENERGY: 300000 1.1744 6.1597 4.2699 0.0000 -7297.7848 976.2600 0.0000 0.0000 1190.3088 -5119.6120 295.6518 -6309.9207 -5100.1638 301.3877 -175.8890 -157.0378 20857.0583 -129.1200 -59.2177
ENERGY: 600000 0.1371 5.9765 4.9227 0.0000 -7386.4218 1092.8334 0.0000 0.0000 1200.5943 -5081.9578 298.2066 -6282.5521 -5107.0908 297.8714 1475.2020 1532.1293 20553.4811 8.8977 63.0315
ENERGY: 900000 0.3196 6.1221 7.4647 0.0000 -7379.9139 1056.4088 0.0000 0.0000 1286.1194 -5023.4793 319.4495 -6309.5987 -5099.3472 300.9423 765.3607 836.0824 20848.9072 -13.7182 37.9692
ENERGY: 1200000 0.6762 3.8239 5.9484 0.0000 -7335.6627 1017.7486 0.0000 0.0000 1229.8331 -5077.6324 305.4690 -6307.4655 -5094.9522 301.3436 125.1073 88.6489 20961.5013 5.7432 51.4005
ENERGY: 1500000 0.0376 2.4652 8.1595 0.0000 -7296.9765 990.6221 0.0000 0.0000 1213.6412 -5082.0509 301.4472 -6295.6921 -5094.2867 302.0486 136.7438 260.4263 20501.1801 15.5065 60.7734
TCL: Running FEP window   6: Lambda1 0.25   Lambda2 0.3    [dLambda 0.04999999999999999]
TCL: Setting parameter firsttimestep to 0
TCL: Setting parameter alchLambda to 0.25
Info: NONBONDED TABLE R-SQUARED SPACING: 0.0625
Info: NONBONDED TABLE SIZE: 705 POINTS
TCL: Setting parameter alchLambda2 to 0.3
Info: NONBONDED TABLE R-SQUARED SPACING: 0.0625
Info: NONBONDED TABLE SIZE: 705 POINTS
TCL: Running for 1500000 steps
ETITLE: TS BOND ANGLE DIHED IMPRP ELECT VDW BOUNDARY MISC KINETIC TOTAL TEMP POTENTIAL TOTALAVG TEMPAVG PRESSURE GPRESSURE VOLUME PRESSAVG GPRESSAVG
ENERGY: 0 0.0376 2.4652 8.1595 0.0000 -7296.9769 990.5339 0.0000 0.0000 1213.0456 -5082.7351 301.2993 -6295.7807 -5082.7351 301.2993 170.4261 260.2249 20501.1801 170.4261 260.2249
ENERGY: 300000 0.2488 3.1559 6.4704 0.0000 -7290.1914 993.6200 0.0000 0.0000 1162.9902 -5123.7061 288.8664 -6286.6963 -5092.3980 298.7380 89.9786 217.7420 20622.4345 55.0895 150.3234
ENERGY: 600000 0.0953 2.1055 7.7128 0.0000 -7361.4453 1012.3433 0.0000 0.0000 1173.2821 -5165.9064 291.4227 -6339.1885 -5101.0179 296.6792 389.9004 442.2419 20357.3964 -93.7118 -6.8848
ENERGY: 900000 0.4106 0.6924 6.9908 0.0000 -7333.6320 1010.1944 0.0000 0.0000 1216.8894 -5098.4543 302.2540 -6315.3437 -5099.5117 298.5958 -29.2044 102.6934 20988.2697 -150.7333 -69.9825
ENERGY: 1200000 2.0212 2.6786 7.6729 0.0000 -7352.5095 1026.0713 0.0000 0.0000 1242.7803 -5071.2852 308.6848 -6314.0655 -5098.9230 300.0658 466.2763 581.3107 20567.3076 -52.5855 24.0708
ENERGY: 1500000 0.2934 4.5752 6.6913 0.0000 -7286.1977 1004.3362 0.0000 0.0000 1232.2001 -5038.1016 306.0569 -6270.3017 -5096.7699 299.9475 437.8270 488.4554 20544.1410 15.9534 92.9334
TCL: Running FEP window   7: Lambda1 0.3    Lambda2 0.35   [dLambda 0.04999999999999999]
TCL: Setting parameter firsttimestep to 0
TCL: Setting parameter alchLambda to 0.3
Info: NONBONDED TABLE R-SQUARED SPACING: 0.0625
Info: NONBONDED TABLE SIZE: 705 POINTS
TCL: Setting parameter alchLambda2 to 0.35
Info: NONBONDED TABLE R-SQUARED SPACING: 0.0625
Info: NONBONDED TABLE SIZE: 705 POINTS
TCL: Running for 1500000 steps
ETITLE: TS BOND ANGLE DIHED IMPRP ELECT VDW BOUNDARY MISC KINETIC TOTAL TEMP POTENTIAL TOTALAVG TEMPAVG PRESSURE GPRESSURE VOLUME PRESSAVG GPRESSAVG
ENERGY: 0 0.2934 4.5751 6.6913 0.0000 -7286.1995 1004.2921 0.0000 0.0000 1231.6096 -5038.7381 305.9102 -6270.3476 -5038.7381 305.9102 395.3738 489.0993 20544.1410 395.3738 489.0993
ENERGY: 300000 0.3266 3.5020 5.4266 0.0000 -7259.6452 968.4683 0.0000 0.0000 1226.5742 -5055.3474 304.6595 -6281.9216 -5075.1110 306.4501 -73.2997 -38.1451 20636.6104 456.5519 554.4305
ENERGY: 600000 0.0654 3.6844 5.7257 0.0000 -7321.8145 1026.9146 0.0000 0.0000 1214.5829 -5070.8416 301.6811 -6285.4244 -5076.9451 305.0686 663.5464 685.3583 20644.1619 288.4553 354.2776
ENERGY: 900000 0.1026 2.6623 7.1156 0.0000 -7276.0539 912.9968 0.0000 0.0000 1172.6693 -5180.5074 291.2705 -6353.1766 -5089.0196 301.3622 -999.1811 -940.6585 20649.9266 110.1899 184.4416
ENERGY: 1200000 0.0004 1.4747 6.5860 0.0000 -7432.9339 1078.8811 0.0000 0.0000 1222.6306 -5123.3611 303.6800 -6345.9917 -5097.5295 301.4821 735.7052 805.5297 21007.9483 185.7524 253.5999
ENERGY: 1500000 0.0244 6.6065 8.2841 0.0000 -7272.8278 933.6912 0.0000 0.0000 1209.6312 -5114.5905 300.4512 -6324.2217 -5098.2684 300.6985 -447.0869 -456.2602 20624.4517 9.6070 72.6343
TCL: Running FEP window   8: Lambda1 0.35   Lambda2 0.39999999999999997 [dLambda 0.04999999999999999]
TCL: Setting parameter firsttimestep to 0
TCL: Setting parameter alchLambda to 0.35
Info: NONBONDED TABLE R-SQUARED SPACING: 0.0625
Info: NONBONDED TABLE SIZE: 705 POINTS
TCL: Setting parameter alchLambda2 to 0.39999999999999997
Info: NONBONDED TABLE R-SQUARED SPACING: 0.0625
Info: NONBONDED TABLE SIZE: 705 POINTS
TCL: Running for 1500000 steps
ETITLE: TS BOND ANGLE DIHED IMPRP ELECT VDW BOUNDARY MISC KINETIC TOTAL TEMP POTENTIAL TOTALAVG TEMPAVG PRESSURE GPRESSURE VOLUME PRESSAVG GPRESSAVG
ENERGY: 0 0.0244 6.6065 8.2841 0.0000 -7272.8273 933.7355 0.0000 0.0000 1209.0255 -5115.1513 300.3007 -6324.1768 -5115.1513 300.3007 -526.1841 -452.9594 20624.4517 -526.1841 -452.9594
ENERGY: 300000 0.1631 7.6871 4.3887 0.0000 -7346.3501 1022.3381 0.0000 0.0000 1202.8442 -5108.9288 298.7654 -6311.7730 -5106.5729 300.5391 674.0098 660.1663 20521.9207 -285.5939 -241.6476
ENERGY: 600000 0.3517 1.7159 9.0697 0.0000 -7302.5325 994.1637 0.0000 0.0000 1175.3460 -5121.8855 291.9353 -6297.2315 -5105.5928 300.3540 121.9112 238.5284 20636.1732 -58.7943 6.0142
ENERGY: 900000 0.0799 4.0127 5.2011 0.0000 -7318.0198 1021.8567 0.0000 0.0000 1203.5957 -5083.2737 298.9521 -6286.8694 -5108.9685 300.1091 311.0073 399.0190 21203.4820 74.7132 140.0575
ENERGY: 1200000 1.3941 2.3009 6.1463 0.0000 -7256.1023 943.1392 0.0000 0.0000 1214.2630 -5088.8587 301.6017 -6303.1218 -5107.2473 300.8817 -586.0425 -487.0188 20845.9176 50.9657 121.6584
ENERGY: 1500000 0.5732 3.1573 6.4356 0.0000 -7356.5902 1028.8592 0.0000 0.0000 1225.5680 -5091.9968 304.4096 -6317.5648 -5094.3894 302.4643 453.8767 562.8611 20584.5694 34.0836 103.6080
TCL: Running FEP window   9: Lambda1 0.39999999999999997 Lambda2 0.44999999999999996 [dLambda 0.04999999999999999]
TCL: Setting parameter firsttimestep to 0
TCL: Setting parameter alchLambda to 0.39999999999999997
Info: NONBONDED TABLE R-SQUARED SPACING: 0.0625
Info: NONBONDED TABLE SIZE: 705 POINTS
TCL: Setting parameter alchLambda2 to 0.44999999999999996
Info: NONBONDED TABLE R-SQUARED SPACING: 0.0625
Info: NONBONDED TABLE SIZE: 705 POINTS
TCL: Running for 1500000 steps
ETITLE: TS BOND ANGLE DIHED IMPRP ELECT VDW BOUNDARY MISC KINETIC TOTAL TEMP POTENTIAL TOTALAVG TEMPAVG PRESSURE GPRESSURE VOLUME PRESSAVG GPRESSAVG
ENERGY: 0 0.5732 3.1573 6.4356 0.0000 -7356.5896 1028.9305 0.0000 0.0000 1224.9489 -5092.5440 304.2558 -6317.4929 -5092.5440 304.2558 483.9812 567.1107 20584.5694 483.9812 567.1107
ENERGY: 300000 0.1188 4.2659 5.9998 0.0000 -7267.3497 952.2937 0.0000 0.0000 1166.8605 -5137.8110 289.8277 -6304.6715 -5117.8404 300.3253 -650.2499 -627.6006 21048.0375 -36.4613 27.6889
ENERGY: 600000 2.2620 4.0451 5.9378 0.0000 -7323.7489 975.4930 0.0000 0.0000 1223.1999 -5112.8112 303.8214 -6336.0111 -5135.4971 297.6738 -506.2235 -466.7277 20903.5354 20.9821 68.9016
ENERGY: 900000 0.6610 5.7666 4.4927 0.0000 -7402.0437 995.4441 0.0000 0.0000 1234.8401 -5160.8391 306.7126 -6395.6792 -5142.7841 298.2083 -640.2711 -537.7860 20994.8282 44.7824 94.8557
ENERGY: 1200000 0.9960 3.5220 6.8779 0.0000 -7311.8005 981.4133 0.0000 0.0000 1195.7554 -5123.2360 297.0047 -6318.9913 -5138.2177 298.1470 -459.3790 -409.7536 21066.3217 -100.2523 -47.3455
ENERGY: 1500000 0.2593 2.7745 6.4458 0.0000 -7257.4105 962.7277 0.0000 0.0000 1170.6267 -5114.5766 290.7631 -6285.2032 -5134.2772 297.9376 -180.1490 -117.8830 20835.9542 -60.9919 -1.0306
TCL: Running FEP window  10: Lambda1 0.44999999999999996 Lambda2 0.49999999999999994 [dLambda 0.04999999999999999]
TCL: Setting parameter firsttimestep to 0
TCL: Setting parameter alchLambda to 0.44999999999999996
Info: NONBONDED TABLE R-SQUARED SPACING: 0.0625
Info: NONBONDED TABLE SIZE: 705 POINTS
TCL: Setting parameter alchLambda2 to 0.49999999999999994
Info: NONBONDED TABLE R-SQUARED SPACING: 0.0625
Info: NONBONDED TABLE SIZE: 705 POINTS
TCL: Running for 1500000 steps
ETITLE: TS BOND ANGLE DIHED IMPRP ELECT VDW BOUNDARY MISC KINETIC TOTAL TEMP POTENTIAL TOTALAVG TEMPAVG PRESSURE GPRESSURE VOLUME PRESSAVG GPRESSAVG
ENERGY: 0 0.2593 2.7745 6.4458 0.0000 -7257.4120 962.5759 0.0000 0.0000 1170.0366 -5115.3198 290.6166 -6285.3565 -5115.3198 290.6166 -207.5662 -115.8652 20835.9542 -207.5662 -115.8652
ENERGY: 300000 0.4001 3.6171 5.4597 0.0000 -7297.9188 995.2264 0.0000 0.0000 1218.5985 -5074.6171 302.6785 -6293.2156 -5093.5561 296.8642 110.5612 196.3945 20755.3057 -56.9525 -1.8339
ENERGY: 600000 0.0253 5.3700 4.8841 0.0000 -7312.5704 974.8798 0.0000 0.0000 1236.8220 -5090.5892 307.2049 -6327.4112 -5089.3960 298.5713 -195.2876 -232.7648 20689.1378 -165.6643 -118.4665
ENERGY: 900000 0.0027 7.2389 4.1122 0.0000 -7315.4960 1060.2185 0.0000 0.0000 1202.8801 -5041.0437 298.7743 -6243.9238 -5087.9651 299.0909 1126.2852 1144.4257 20659.2640 -8.2947 42.4077
ENERGY: 1200000 0.1146 3.4917 6.2701 0.0000 -7233.8913 974.0618 0.0000 0.0000 1193.5157 -5056.4374 296.4484 -6249.9530 -5082.8082 299.6677 -67.5826 21.7095 20970.4008 -178.2472 -128.3119
ENERGY: 1500000 0.3950 1.7383 6.8572 0.0000 -7311.7297 968.4253 0.0000 0.0000 1156.0927 -5178.2212 287.1532 -6334.3138 -5087.5918 300.4519 -514.1015 -398.4084 20835.5348 -117.1043 -62.8699
TCL: Running FEP window  11: Lambda1 0.49999999999999994 Lambda2 0.5499999999999999 [dLambda 0.04999999999999999]
TCL: Setting parameter firsttimestep to 0
TCL: Setting parameter alchLambda to 0.49999999999999994
Info: NONBONDED TABLE R-SQUARED SPACING: 0.0625
Info: NONBONDED TABLE SIZE: 705 POINTS
TCL: Setting parameter alchLambda2 to 0.5499999999999999
Info: NONBONDED TABLE R-SQUARED SPACING: 0.0625
Info: NONBONDED TABLE SIZE: 705 POINTS
TCL: Running for 1500000 steps
ETITLE: TS BOND ANGLE DIHED IMPRP ELECT VDW BOUNDARY MISC KINETIC TOTAL TEMP POTENTIAL TOTALAVG TEMPAVG PRESSURE GPRESSURE VOLUME PRESSAVG GPRESSAVG
ENERGY: 0 0.3950 1.7383 6.8572 0.0000 -7311.7316 968.2948 0.0000 0.0000 1155.5385 -5178.9078 287.0155 -6334.4462 -5178.9078 287.0155 -486.6598 -397.4098 20835.5348 -486.6598 -397.4098
ENERGY: 300000 1.0922 4.0078 6.0325 0.0000 -7289.9939 976.1133 0.0000 0.0000 1229.5012 -5073.2469 305.3865 -6302.7480 -5113.5717 299.5116 -358.9233 -264.3665 21137.8777 25.2140 94.5340
ENERGY: 600000 0.0014 1.5202 6.9696 0.0000 -7381.5094 1023.3016 0.0000 0.0000 1201.9067 -5147.8100 298.5326 -6349.7167 -5118.1641 300.7876 295.9055 354.0239 20556.6666 -154.4728 -76.9741
ENERGY: 900000 2.7439 3.3871 5.2140 0.0000 -7283.0962 976.7853 0.0000 0.0000 1202.1122 -5092.8536 298.5836 -6294.9659 -5111.4771 302.7623 -196.5846 -45.6908 20676.7958 -58.6478 23.5497
ENERGY: 1200000 0.1778 7.2476 4.5264 0.0000 -7310.5283 1014.9112 0.0000 0.0000 1165.2306 -5118.4348 289.4228 -6283.6654 -5106.3466 301.8446 184.3702 305.4919 20925.1198 -66.6627 16.5849
ENERGY: 1500000 0.5582 3.4529 6.2811 0.0000 -7374.0079 1066.9942 0.0000 0.0000 1191.8681 -5104.8535 296.0391 -6296.7216 -5104.7625 300.8625 723.0221 798.5112 20708.0975 -15.9292 66.2551
TCL: Running FEP window  12: Lambda1 0.5499999999999999 Lambda2 0.6    [dLambda 0.050000000000000044]
TCL: Setting parameter firsttimestep to 0
TCL: Setting parameter alchLambda to 0.5499999999999999
Info: NONBONDED TABLE R-SQUARED SPACING: 0.0625
Info: NONBONDED TABLE SIZE: 705 POINTS
TCL: Setting parameter alchLambda2 to 0.6
Info: NONBONDED TABLE R-SQUARED SPACING: 0.0625
Info: NONBONDED TABLE SIZE: 705 POINTS
TCL: Running for 1500000 steps
ETITLE: TS BOND ANGLE DIHED IMPRP ELECT VDW BOUNDARY MISC KINETIC TOTAL TEMP POTENTIAL TOTALAVG TEMPAVG PRESSURE GPRESSURE VOLUME PRESSAVG GPRESSAVG
ENERGY: 0 0.5582 3.4529 6.2811 0.0000 -7374.3835 1066.9996 0.0000 0.0000 1191.2703 -5105.8216 295.8907 -6297.0919 -5105.8216 295.8907 725.1215 802.4736 20708.0975 725.1215 802.4736
ENERGY: 300000 0.2052 2.6013 9.4995 0.0000 -7301.2283 994.8857 0.0000 0.0000 1212.5180 -5081.5186 301.1682 -6294.0366 -5101.5450 299.8370 214.3937 254.6412 20693.8872 68.1105 117.5307
ENERGY: 600000 0.3714 1.6772 9.2356 0.0000 -7352.8027 968.4941 0.0000 0.0000 1205.2086 -5167.8158 299.3527 -6373.0244 -5104.9603 299.5317 -557.0187 -475.9635 20738.8413 -146.6898 -70.9651
ENERGY: 900000 0.1140 9.1829 3.4920 0.0000 -7364.8876 1010.8562 0.0000 0.0000 1216.3147 -5124.9279 302.1112 -6341.2425 -5099.2431 300.3080 49.2635 171.1012 20599.4912 -270.5958 -185.2952
ENERGY: 1200000 0.0499 3.9708 5.7437 0.0000 -7359.9243 1037.4504 0.0000 0.0000 1244.7915 -5067.9180 309.1844 -6312.7095 -5092.2751 300.5813 430.0456 496.9251 20976.5704 -206.3943 -116.8775
ENERGY: 1500000 0.5215 4.0855 6.5350 0.0000 -7336.3889 1050.5059 0.0000 0.0000 1235.5492 -5039.1918 306.8888 -6274.7410 -5096.6537 300.7252 475.3999 534.5126 21043.0197 -152.2189 -67.8544
TCL: Running FEP window  13: Lambda1 0.6    Lambda2 0.65   [dLambda 0.050000000000000044]
TCL: Setting parameter firsttimestep to 0
TCL: Setting parameter alchLambda to 0.6
Info: NONBONDED TABLE R-SQUARED SPACING: 0.0625
Info: NONBONDED TABLE SIZE: 705 POINTS
TCL: Setting parameter alchLambda2 to 0.65
Info: NONBONDED TABLE R-SQUARED SPACING: 0.0625
Info: NONBONDED TABLE SIZE: 705 POINTS
TCL: Running for 1500000 steps
ETITLE: TS BOND ANGLE DIHED IMPRP ELECT VDW BOUNDARY MISC KINETIC TOTAL TEMP POTENTIAL TOTALAVG TEMPAVG PRESSURE GPRESSURE VOLUME PRESSAVG GPRESSAVG
ENERGY: 0 0.5215 4.0855 6.5350 0.0000 -7336.6142 1051.2627 0.0000 0.0000 1234.9714 -5039.2382 306.7453 -6274.2096 -5039.2382 306.7453 463.8388 547.0556 21043.0197 463.8388 547.0556
ENERGY: 300000 0.8564 2.9853 5.5360 0.0000 -7363.0994 1025.7888 0.0000 0.0000 1206.2889 -5121.6440 299.6210 -6327.9329 -5076.9188 303.5133 490.2668 551.7916 20504.7670 422.9828 447.5767
ENERGY: 600000 0.4110 3.2668 6.3259 0.0000 -7254.7140 945.3571 0.0000 0.0000 1180.4602 -5118.8931 293.2056 -6299.3532 -5098.6730 300.2398 -692.8193 -639.0822 21033.6768 24.9135 80.1387
ENERGY: 900000 0.0003 1.3879 6.5960 0.0000 -7390.4431 1103.0936 0.0000 0.0000 1196.0574 -5083.3079 297.0797 -6279.3653 -5096.5928 300.3134 1626.7288 1674.1374 20673.9271 235.6520 287.0145
ENERGY: 1200000 0.0016 5.5945 5.8734 0.0000 -7328.5201 1019.7397 0.0000 0.0000 1199.4039 -5097.9071 297.9109 -6297.3110 -5103.1769 300.0166 403.1817 437.9035 20959.4381 159.8275 202.2266
ENERGY: 1500000 0.0519 2.5194 5.6412 0.0000 -7255.2061 922.2684 0.0000 0.0000 1203.8875 -5120.8378 299.0245 -6324.7252 -5099.8391 300.0982 -804.5629 -699.6842 20587.3593 100.9849 149.7010
TCL: Running FEP window  14: Lambda1 0.65   Lambda2 0.7000000000000001 [dLambda 0.050000000000000044]
TCL: Setting parameter firsttimestep to 0
TCL: Setting parameter alchLambda to 0.65
Info: NONBONDED TABLE R-SQUARED SPACING: 0.0625
Info: NONBONDED TABLE SIZE: 705 POINTS
TCL: Setting parameter alchLambda2 to 0.7000000000000001
Info: NONBONDED TABLE R-SQUARED SPACING: 0.0625
Info: NONBONDED TABLE SIZE: 705 POINTS
TCL: Running for 1500000 steps
ETITLE: TS BOND ANGLE DIHED IMPRP ELECT VDW BOUNDARY MISC KINETIC TOTAL TEMP POTENTIAL TOTALAVG TEMPAVG PRESSURE GPRESSURE VOLUME PRESSAVG GPRESSAVG
ENERGY: 0 0.0519 2.5194 5.6412 0.0000 -7255.4333 922.3814 0.0000 0.0000 1203.2580 -5121.5814 298.8682 -6324.8394 -5121.5814 298.8682 -771.2484 -696.9317 20587.3593 -771.2484 -696.9317
ENERGY: 300000 0.1265 1.0015 7.0537 0.0000 -7254.1074 975.8647 0.0000 0.0000 1198.5852 -5071.4759 297.7076 -6270.0611 -5092.8212 296.6728 -177.7958 -99.2328 21002.5750 -577.4875 -512.3369
ENERGY: 600000 0.7370 2.0572 6.8443 0.0000 -7321.0563 1034.7394 0.0000 0.0000 1197.2854 -5079.3932 297.3847 -6276.6786 -5082.7006 297.6781 483.3114 604.2869 20884.6512 -120.7116 -47.0644
ENERGY: 900000 0.0154 3.1538 6.2000 0.0000 -7380.8811 1025.0572 0.0000 0.0000 1220.0244 -5126.4304 303.0327 -6346.4548 -5106.1748 298.6820 109.4696 207.6150 20782.1107 -59.3933 20.3077
ENERGY: 1200000 1.0413 2.5054 5.8608 0.0000 -7261.8306 988.8293 0.0000 0.0000 1209.6919 -5053.9019 300.4663 -6263.5938 -5105.2176 298.3242 74.9806 126.7428 20844.1887 -121.6467 -47.8084
ENERGY: 1500000 1.1259 3.8598 5.4638 0.0000 -7154.2855 903.1233 0.0000 0.0000 1222.2136 -5018.4992 303.5764 -6240.7128 -5093.2403 298.9544 -934.7964 -794.8084 21185.2931 -150.1843 -72.6711
TCL: Running FEP window  15: Lambda1 0.7000000000000001 Lambda2 0.7500000000000001 [dLambda 0.050000000000000044]
TCL: Setting parameter firsttimestep to 0
TCL: Setting parameter alchLambda to 0.7000000000000001
Info: NONBONDED TABLE R-SQUARED SPACING: 0.0625
Info: NONBONDED TABLE SIZE: 705 POINTS
TCL: Setting parameter alchLambda2 to 0.7500000000000001
Info: NONBONDED TABLE R-SQUARED SPACING: 0.0625
Info: NONBONDED TABLE SIZE: 705 POINTS
TCL: Running for 1500000 steps
ETITLE: TS BOND ANGLE DIHED IMPRP ELECT VDW BOUNDARY MISC KINETIC TOTAL TEMP POTENTIAL TOTALAVG TEMPAVG PRESSURE GPRESSURE VOLUME PRESSAVG GPRESSAVG
ENERGY: 0 1.1259 3.8598 5.4638 0.0000 -7155.7780 903.2654 0.0000 0.0000 1221.6143 -5020.4488 303.4276 -6242.0631 -5020.4488 303.4276 -866.4097 -794.2300 21185.2931 -866.4097 -794.2300
ENERGY: 300000 0.0199 5.7338 6.4844 0.0000 -7330.6148 995.3447 0.0000 0.0000 1216.8619 -5106.1701 302.2472 -6323.0320 -5103.6725 302.0189 -20.8231 59.0399 20815.4939 -618.9936 -583.1990
ENERGY: 600000 0.9528 2.8171 8.4772 0.0000 -7195.9314 912.4953 0.0000 0.0000 1213.8190 -5057.3700 301.4914 -6271.1890 -5112.8213 299.1982 -804.4589 -660.6779 20716.6718 -177.7599 -133.5609
ENERGY: 900000 0.1240 3.4467 6.3013 0.0000 -7315.9437 998.9618 0.0000 0.0000 1217.7830 -5089.3270 302.4760 -6307.1100 -5110.4497 299.6445 185.7317 250.0845 20668.7862 -140.9395 -99.6202
ENERGY: 1200000 0.2083 4.6169 6.3142 0.0000 -7328.9106 973.5527 0.0000 0.0000 1184.0774 -5160.1411 294.1041 -6344.2185 -5120.4243 298.7687 -456.6854 -383.3608 20928.4192 -147.7299 -104.4191
ENERGY: 1500000 2.0472 0.4088 7.3701 0.0000 -7271.3634 971.1256 0.0000 0.0000 1199.0499 -5091.3618 297.8230 -6290.4117 -5120.4902 298.5928 -273.4918 -268.8169 21116.6185 -201.1202 -161.9384
TCL: Running FEP window  16: Lambda1 0.7500000000000001 Lambda2 0.8000000000000002 [dLambda 0.050000000000000044]
TCL: Setting parameter firsttimestep to 0
TCL: Setting parameter alchLambda to 0.7500000000000001
Info: NONBONDED TABLE R-SQUARED SPACING: 0.0625
Info: NONBONDED TABLE SIZE: 705 POINTS
TCL: Setting parameter alchLambda2 to 0.8000000000000002
Info: NONBONDED TABLE R-SQUARED SPACING: 0.0625
Info: NONBONDED TABLE SIZE: 705 POINTS
TCL: Running for 1500000 steps
ETITLE: TS BOND ANGLE DIHED IMPRP ELECT VDW BOUNDARY MISC KINETIC TOTAL TEMP POTENTIAL TOTALAVG TEMPAVG PRESSURE GPRESSURE VOLUME PRESSAVG GPRESSAVG
ENERGY: 0 2.0472 0.4088 7.3701 0.0000 -7272.8427 971.8851 0.0000 0.0000 1198.4680 -5092.6635 297.6785 -6291.1315 -5092.6635 297.6785 -341.4281 -261.6563 21116.6185 -341.4281 -261.6563
ENERGY: 300000 0.1236 1.0323 7.8658 0.0000 -7286.3745 991.2904 0.0000 0.0000 1188.0676 -5097.9949 295.0952 -6286.0625 -5088.7697 301.1728 441.7813 523.1094 20413.9033 239.8835 347.6671
ENERGY: 600000 0.6487 3.7041 6.5313 0.0000 -7311.1706 1033.3913 0.0000 0.0000 1206.2624 -5060.6328 299.6144 -6266.8952 -5076.9107 301.6419 723.7307 857.4208 20714.0387 109.5930 193.8976
ENERGY: 900000 0.5290 0.4764 7.3593 0.0000 -7460.0535 1031.4539 0.0000 0.0000 1196.9800 -5223.2550 297.3088 -6420.2349 -5096.9579 300.6458 -132.1461 7.9544 20833.4077 75.5635 151.8822
ENERGY: 1200000 0.1152 1.6588 8.3465 0.0000 -7234.1211 961.1255 0.0000 0.0000 1226.9764 -5035.8987 304.7594 -6262.8750 -5097.5852 300.2079 -90.2977 -42.6191 20866.3547 -32.7417 38.4751
ENERGY: 1500000 0.4504 2.5280 6.8260 0.0000 -7187.3601 941.7001 0.0000 0.0000 1244.7338 -4991.1218 309.1701 -6235.8557 -5090.8292 299.8281 -91.8401 36.9858 20785.9154 -65.0426 7.5068
TCL: Running FEP window  17: Lambda1 0.8000000000000002 Lambda2 0.8500000000000002 [dLambda 0.050000000000000044]
TCL: Setting parameter firsttimestep to 0
TCL: Setting parameter alchLambda to 0.8000000000000002
Info: NONBONDED TABLE R-SQUARED SPACING: 0.0625
Info: NONBONDED TABLE SIZE: 705 POINTS
TCL: Setting parameter alchLambda2 to 0.8500000000000002
Info: NONBONDED TABLE R-SQUARED SPACING: 0.0625
Info: NONBONDED TABLE SIZE: 705 POINTS
TCL: Running for 1500000 steps
ETITLE: TS BOND ANGLE DIHED IMPRP ELECT VDW BOUNDARY MISC KINETIC TOTAL TEMP POTENTIAL TOTALAVG TEMPAVG PRESSURE GPRESSURE VOLUME PRESSAVG GPRESSAVG
ENERGY: 0 0.4504 2.5280 6.8260 0.0000 -7190.8635 943.5923 0.0000 0.0000 1244.1218 -4993.3450 309.0180 -6237.4668 -4993.3450 309.0180 -40.6056 54.0670 20785.9154 -40.6056 54.0670
ENERGY: 300000 0.8118 7.2260 3.9401 0.0000 -7417.1305 1038.8845 0.0000 0.0000 1214.8969 -5151.3712 301.7591 -6366.2680 -5108.4479 301.3679 836.5162 844.2943 20298.1453 8.1739 72.1706
ENERGY: 600000 0.0031 1.6637 7.4688 0.0000 -7364.1263 1019.6079 0.0000 0.0000 1236.4674 -5098.9155 307.1168 -6335.3829 -5103.4674 302.4533 283.8040 396.3084 20674.5045 38.4290 104.6303
ENERGY: 900000 0.5630 2.4463 10.5638 0.0000 -7410.3875 996.2313 0.0000 0.0000 1223.4955 -5177.0877 303.8948 -6400.5831 -5109.4526 302.0003 -311.3306 -202.8306 20591.5716 -100.3713 -38.3009
ENERGY: 1200000 1.2667 2.4872 6.5290 0.0000 -7242.6977 954.1843 0.0000 0.0000 1199.3905 -5078.8401 297.9076 -6278.2305 -5107.5616 301.4636 -609.9168 -488.8890 21151.8375 -234.1296 -170.3026
ENERGY: 1500000 0.2465 3.5462 6.9131 0.0000 -7278.5442 995.7933 0.0000 0.0000 1218.9629 -5053.0821 302.7690 -6272.0450 -5099.0512 302.2190 356.9091 392.2684 20790.1758 -117.2539 -58.3193
TCL: Running FEP window  18: Lambda1 0.8500000000000002 Lambda2 0.9000000000000002 [dLambda 0.050000000000000044]
TCL: Setting parameter firsttimestep to 0
TCL: Setting parameter alchLambda to 0.8500000000000002
Info: NONBONDED TABLE R-SQUARED SPACING: 0.0625
Info: NONBONDED TABLE SIZE: 705 POINTS
TCL: Setting parameter alchLambda2 to 0.9000000000000002
Info: NONBONDED TABLE R-SQUARED SPACING: 0.0625
Info: NONBONDED TABLE SIZE: 705 POINTS
TCL: Running for 1500000 steps
ETITLE: TS BOND ANGLE DIHED IMPRP ELECT VDW BOUNDARY MISC KINETIC TOTAL TEMP POTENTIAL TOTALAVG TEMPAVG PRESSURE GPRESSURE VOLUME PRESSAVG GPRESSAVG
ENERGY: 0 0.2465 3.5462 6.9131 0.0000 -7279.4166 995.8988 0.0000 0.0000 1218.3337 -5054.4781 302.6127 -6272.8119 -5054.4781 302.6127 314.0391 393.8708 20790.1758 314.0391 393.8708
ENERGY: 300000 0.3615 3.7644 6.2202 0.0000 -7491.9525 1052.8897 0.0000 0.0000 1148.8908 -5279.8260 285.3643 -6428.7168 -5128.7261 298.6741 35.1202 141.8550 20664.0432 110.2916 165.7756
ENERGY: 600000 0.3459 1.5907 7.1036 0.0000 -7233.1235 909.1064 0.0000 0.0000 1207.8896 -5107.0873 300.0186 -6314.9769 -5125.3746 298.8852 -1078.9019 -952.5377 20834.4180 86.9124 163.1798
ENERGY: 900000 0.0209 0.9325 7.0652 0.0000 -7443.5149 1092.2252 0.0000 0.0000 1170.8717 -5172.3994 290.8240 -6343.2711 -5129.0120 298.5938 1011.5822 1096.3749 20616.3302 127.2130 203.0075
ENERGY: 1200000 3.5482 3.1905 7.0123 0.0000 -7435.8457 1052.6094 0.0000 0.0000 1197.4581 -5172.0272 297.4276 -6369.4853 -5121.5902 299.5664 584.5143 599.4204 20412.7104 231.3101 294.4472
ENERGY: 1500000 0.7627 1.7418 6.8318 0.0000 -7322.6152 997.6334 0.0000 0.0000 1208.3177 -5107.3278 300.1249 -6315.6454 -5122.6191 298.6440 289.6664 320.7522 20505.7412 174.7228 239.4265
TCL: Running FEP window  19: Lambda1 0.9000000000000002 Lambda2 0.9500000000000003 [dLambda 0.050000000000000044]
TCL: Setting parameter firsttimestep to 0
TCL: Setting parameter alchLambda to 0.9000000000000002
Info: NONBONDED TABLE R-SQUARED SPACING: 0.0625
Info: NONBONDED TABLE SIZE: 705 POINTS
TCL: Setting parameter alchLambda2 to 0.9500000000000003
Info: NONBONDED TABLE R-SQUARED SPACING: 0.0625
Info: NONBONDED TABLE SIZE: 705 POINTS
TCL: Running for 1500000 steps
ETITLE: TS BOND ANGLE DIHED IMPRP ELECT VDW BOUNDARY MISC KINETIC TOTAL TEMP POTENTIAL TOTALAVG TEMPAVG PRESSURE GPRESSURE VOLUME PRESSAVG GPRESSAVG
ENERGY: 0 0.7627 1.7418 6.8318 0.0000 -7324.9032 999.4255 0.0000 0.0000 1207.6915 -5108.4499 299.9694 -6316.1414 -5108.4499 299.9694 273.1406 350.7795 20505.7412 273.1406 350.7795
ENERGY: 300000 0.0564 5.1571 5.0993 0.0000 -7350.4049 1014.9631 0.0000 0.0000 1197.0485 -5128.0805 297.3259 -6325.1290 -5105.0014 297.0101 142.8821 138.2348 20988.9038 -71.6102 -36.8290
ENERGY: 600000 0.3252 2.6447 8.9846 0.0000 -7291.2569 960.9598 0.0000 0.0000 1193.8847 -5124.4579 296.5400 -6318.3426 -5115.0731 299.3258 -525.8608 -444.7234 21112.4142 -371.9632 -310.7472
ENERGY: 900000 0.1963 1.3273 7.6601 0.0000 -7256.6065 922.3516 0.0000 0.0000 1197.0859 -5127.9854 297.3352 -6325.0713 -5120.5203 299.6079 -794.2907 -751.7877 20799.8373 -233.5254 -170.2377
ENERGY: 1200000 0.1342 2.5185 6.6990 0.0000 -7414.1339 1072.8054 0.0000 0.0000 1192.3884 -5139.5883 296.1684 -6331.9768 -5122.3873 299.3803 1066.5649 1149.4946 20461.7263 -51.3800 16.2708
ENERGY: 1500000 0.0387 3.4830 6.2844 0.0000 -7364.0864 989.1909 0.0000 0.0000 1223.3040 -5141.7854 303.8473 -6365.0894 -5122.7156 299.2448 -132.3374 -138.3612 20781.5133 -55.2274 19.1942
TCL: Running FEP window  20: Lambda1 0.9500000000000003 Lambda2 1.0    [dLambda 0.04999999999999971]
TCL: Setting parameter firsttimestep to 0
TCL: Setting parameter alchLambda to 0.9500000000000003
Info: NONBONDED TABLE R-SQUARED SPACING: 0.0625
Info: NONBONDED TABLE SIZE: 705 POINTS
TCL: Setting parameter alchLambda2 to 1.0
Info: NONBONDED TABLE R-SQUARED SPACING: 0.0625
Info: NONBONDED TABLE SIZE: 705 POINTS
TCL: Running for 1500000 steps
ETITLE: TS BOND ANGLE DIHED IMPRP ELECT VDW BOUNDARY MISC KINETIC TOTAL TEMP POTENTIAL TOTALAVG TEMPAVG PRESSURE GPRESSURE VOLUME PRESSAVG GPRESSAVG
ENERGY: 0 0.0387 3.4830 6.2844 0.0000 -7365.3362 989.8476 0.0000 0.0000 1222.7274 -5142.9553 303.7041 -6365.6826 -5142.9553 303.7041 -217.3842 -126.9741 20781.5133 -217.3842 -126.9741
ENERGY: 300000 1.4276 1.0235 6.8876 0.0000 -7257.3436 987.5342 0.0000 0.0000 1176.7640 -5083.7067 292.2876 -6260.4707 -5132.1149 296.8618 335.4618 369.6324 20744.0184 -69.4580 -7.9589
ENERGY: 600000 0.0006 5.6354 7.0108 0.0000 -7357.4781 1057.0186 0.0000 0.0000 1193.3146 -5094.4981 296.3984 -6287.8127 -5129.8085 297.3009 640.2560 695.6461 20959.6994 181.2787 239.2060
ENERGY: 900000 0.1176 3.3120 10.3493 0.0000 -7420.9829 1068.1351 0.0000 0.0000 1194.1491 -5144.9198 296.6057 -6339.0688 -5135.1400 296.9095 1077.5733 1117.1599 20576.9420 314.2065 378.9302
ENERGY: 1200000 1.0901 2.2265 5.9702 0.0000 -7318.2089 980.2431 0.0000 0.0000 1212.9026 -5115.7765 301.2637 -6328.6791 -5129.3868 298.3936 -246.5486 -235.0638 20915.3829 205.7227 263.5741
ENERGY: 1500000 0.4092 1.3528 6.5801 0.0000 -7303.0887 1029.0608 0.0000 0.0000 1192.3652 -5073.3206 296.1626 -6265.6858 -5124.0251 298.3209 465.8183 556.5109 20803.7618 256.6597 321.5885
TCL: Exiting due to exit command.
