Info: SIMULATION PARAMETERS:
Info: TIMESTEP               2
Info: NUMBER OF STEPS        0
Info: STEPS PER CYCLE        10
Info: PERIODIC CELL BASIS 1  41.123 0 0
Info: PERIODIC CELL BASIS 2  0 43.772 0
Info: PERIODIC CELL BASIS 3  0 0 39.527
Info: PERIODIC CELL CENTER   0 0 0
Info: WRAPPING WATERS AROUND PERIODIC BOUNDARIES ON OUTPUT.
Info: WRAPPING ALL CLUSTERS AROUND PERIODIC BOUNDARIES ON OUTPUT.
Info: FIRST LDB TIMESTEP     50
Info: LAST LDB TIMESTEP     -1
Info: HOM BACKGROUND SCALING 1
Info: PME BACKGROUND SCALING 1
Info: MIN ATOMS PER PATCH    40
Info: EMPTY PATCH LOAD       40 ATOMS
Info: INITIAL TEMPERATURE    300
Info: CENTER OF MASS MOVING INITIALLY? NO
Info: DIELECTRIC             1
Info: EXCLUDE                SCALED ONE-FOUR
Info: 1-4 ELECTROSTATICS SCALED BY 0.833333
Info: MODIFIED 1-4 VDW PARAMETERS WILL BE USED
Info: DCD FILENAME           mobley_6060301_min.dcd
Info: DCD FREQUENCY          5000
Info: DCD FIRST STEP         5000
Info: DCD FILE WILL CONTAIN UNIT CELL DATA
Info: XST FILENAME           mobley_6060301_min.xst
Info: XST FREQUENCY          5000
Info: NO VELOCITY DCD OUTPUT
Info: NO FORCE DCD OUTPUT
Info: OUTPUT FILENAME        mobley_6060301_min
Info: BINARY OUTPUT FILES WILL BE USED
Info: RESTART FILENAME       mobley_6060301_min.restart
Info: RESTART FREQUENCY      5000
Info: BINARY RESTART FILES WILL BE USED
Info: CUTOFF                 9
Info: PAIRLIST DISTANCE      11
Info: PAIRLIST SHRINK RATE   0.01
Info: PAIRLIST GROW RATE     0.01
Info: PAIRLIST TRIGGER       0.3
Info: PAIRLISTS PER CYCLE    2
Info: PAIRLISTS ENABLED
Info: MARGIN                 8
Info: HYDROGEN GROUP CUTOFF  2.5
Info: PATCH DIMENSION        21.5
Info: ENERGY OUTPUT STEPS    5000
Info: ENERGY EVALUATION STEPS    5000
Info: OUTPUT ENERGY PRECISION 4
Info: CROSSTERM ENERGY INCLUDED IN DIHEDRAL
Info: TIMING OUTPUT STEPS    50000
Info: PRESSURE OUTPUT STEPS  5000
Info: LANGEVIN DYNAMICS ACTIVE
Info: LANGEVIN TEMPERATURE   300
Info: LANGEVIN USING BBK INTEGRATOR
Info: LANGEVIN DAMPING COEFFICIENT IS 1 INVERSE PS
Info: LANGEVIN DYNAMICS APPLIED TO HYDROGENS
Info: LANGEVIN PISTON PRESSURE CONTROL ACTIVE
Info:        TARGET PRESSURE IS 1.01325 BAR
Info:     OSCILLATION PERIOD IS 50 FS
Info:             DECAY TIME IS 25 FS
Info:     PISTON TEMPERATURE IS 300 K
Info:       PRESSURE CONTROL IS GROUP-BASED
Info:    INITIAL STRAIN RATE IS 0 0 0
Info:       CELL FLUCTUATION IS ISOTROPIC
Info: PARTICLE MESH EWALD (PME) ACTIVE
Info: PME TOLERANCE               1e-06
Info: PME EWALD COEFFICIENT       0.348832
Info: PME INTERPOLATION ORDER     4
Info: PME GRID DIMENSIONS         44 44 40
Info: PME MAXIMUM GRID SPACING    1
Info: FULL ELECTROSTATIC EVALUATION FREQUENCY      2
Info: USING VERLET I (r-RESPA) MTS SCHEME.
Info: C1 SPLITTING OF LONG RANGE ELECTROSTATICS
Info: PLACING ATOMS IN PATCHES BY HYDROGEN GROUPS
Info: RIGID BONDS TO HYDROGEN : ALL
Info:         ERROR TOLERANCE : 1e-08
Info:          MAX ITERATIONS : 100
Info: RIGID WATER USING SETTLE ALGORITHM
Info: RANDOM NUMBER SEED     1741349624
Info: USE HYDROGEN BONDS?    NO
Info: Using AMBER format force field!
Info: AMBER PARM FILE        mobley_6060301.prmtop
Info: COORDINATE PDB         mobley_6060301.pdb
Info: Exclusions will be read from PARM file!
Info: SCNB (VDW SCALING)     2
Info: USING ARITHMETIC MEAN TO COMBINE L-J SIGMA PARAMETERS
Info: SUMMARY OF PARAMETERS:
Info: 7 BONDS
Info: 9 ANGLES
Info:   9 HARMONIC
Info:   0 COSINE-BASED
Info: 8 DIHEDRAL
Info: 0 IMPROPER
Info: 0 CROSSTERM
Info: 0 VDW
Info: 28 VDW_PAIRS
Info: 0 NBTHOLE_PAIRS
Info: STRUCTURE SUMMARY:
Info: 5179 ATOMS
Info: 5178 BONDS
Info: 39 ANGLES
Info: 51 DIHEDRALS
Info: 0 IMPROPERS
Info: 0 CROSSTERMS
Info: 5268 EXCLUSIONS
Info: 5172 RIGID BONDS
Info: 10365 DEGREES OF FREEDOM
Info: 1726 HYDROGEN GROUPS
Info: 4 ATOMS IN LARGEST HYDROGEN GROUP
Info: 1726 MIGRATION GROUPS
Info: 4 ATOMS IN LARGEST MIGRATION GROUP
Info: TOTAL MASS = 31070.7 amu
Info: TOTAL CHARGE = -9.9957e-05 e
Info: MASS DENSITY = 0.725162 g/cm^3
Info: ATOM DENSITY = 0.0727899 atoms/A^3
Info: ADDED 0 IMPLICIT EXCLUSIONS
Info: NONBONDED TABLE R-SQUARED SPACING: 0.0625
Info: NONBONDED TABLE SIZE: 705 POINTS
Info: REMOVING COM VELOCITY -0.0489442 0.110233 -0.119257
TCL: Minimizing for 2000 steps
ETITLE: TS BOND ANGLE DIHED IMPRP ELECT VDW BOUNDARY MISC KINETIC TOTAL TEMP POTENTIAL TOTAL3 TEMPAVG PRESSURE GPRESSURE VOLUME PRESSAVG GPRESSAVG
ENERGY: 0 0.2566 5.7561 1.1042 0.0000 -16140.7864 1808.4621 0.0000 0.0000 0.0000 -14325.2073 0.0000 -14325.2073 -14325.2073 0.0000 11055.1131 -15625.1013 71150.0212 11055.1131 -15625.1013
ENERGY: 400 1.4942 2.2747 0.0655 0.0000 -21535.6998 3034.3905 0.0000 0.0000 0.0000 -18497.4750 0.0000 -18497.4750 -18497.4750 0.0000 15322.7411 15399.2995 71150.0212 15322.7411 15399.2995
ENERGY: 800 1.1447 1.1070 0.0655 0.0000 -22997.8711 3790.1806 0.0000 0.0000 0.0000 -19205.3733 0.0000 -19205.3733 -19205.3733 0.0000 18678.5167 18719.1623 71150.0212 18678.5167 18719.1623
ENERGY: 1200 0.1562 0.6825 0.1013 0.0000 -23360.9004 3938.0581 0.0000 0.0000 0.0000 -19421.9024 0.0000 -19421.9024 -19421.9024 0.0000 19357.2938 19388.6231 71150.0212 19357.2938 19388.6231
ENERGY: 1600 0.3001 0.4591 0.1378 0.0000 -23561.8366 4042.4837 0.0000 0.0000 0.0000 -19518.4558 0.0000 -19518.4558 -19518.4558 0.0000 19865.8213 19902.6659 71150.0212 19865.8213 19902.6659
ENERGY: 2000 0.3717 0.3289 0.1685 0.0000 -23776.6063 4176.2637 0.0000 0.0000 0.0000 -19599.4734 0.0000 -19599.4734 -19599.4734 0.0000 20513.5993 20534.8518 71150.0212 20513.5993 20534.8518
TCL: Exiting due to exit command.
Info: NAMD 3.0.1 for Linux-x86_64-multicore
Info: Please visit http://www.ks.uiuc.edu/Research/namd/
Info: for updates, documentation, and support information.
Info: Please cite Phillips et al., J. Chem. Phys. 153:044130 (2020) doi:10.1063/5.0014475
Info: in all publications reporting results obtained with NAMD.
Info: Based on Charm++/Converse 80000 for multicore-linux-x86_64-gcc
Info: Built Mon Oct 14 11:11:06 CDT 2024 by dhardy on athine.ks.uiuc.edu
Info: 1 NAMD  3.0.1  Linux-x86_64-multicore  16    k020  z5358697
Info: Running on 16 processors, 1 nodes, 1 physical nodes.
Info: CPU topology information available.
Info: Charm++/Converse parallel runtime startup completed at 0.0622176 s
Info: 1043.59 MB of memory in use based on /proc/self/stat
Info: Configuration file is mobley_6060301_equil.namd
Info: Working in the current directory /srv/scratch/z5358697/prod_prep_7/6060301
TCL: Running 25000 steps at 30 kelvin.
TCL: Suspending until startup complete.
Info: SIMULATION PARAMETERS:
Info: TIMESTEP               2
Info: NUMBER OF STEPS        0
Info: STEPS PER CYCLE        10
Info: PERIODIC CELL BASIS 1  41.123 0 0
Info: PERIODIC CELL BASIS 2  0 43.772 0
Info: PERIODIC CELL BASIS 3  0 0 39.527
Info: PERIODIC CELL CENTER   0 0 0
Info: WRAPPING WATERS AROUND PERIODIC BOUNDARIES ON OUTPUT.
Info: WRAPPING ALL CLUSTERS AROUND PERIODIC BOUNDARIES ON OUTPUT.
Info: FIRST LDB TIMESTEP     50
Info: LAST LDB TIMESTEP     -1
Info: HOM BACKGROUND SCALING 1
Info: PME BACKGROUND SCALING 1
Info: MIN ATOMS PER PATCH    40
Info: EMPTY PATCH LOAD       40 ATOMS
Info: INITIAL TEMPERATURE    300
Info: CENTER OF MASS MOVING INITIALLY? NO
Info: DIELECTRIC             1
Info: EXCLUDE                SCALED ONE-FOUR
Info: 1-4 ELECTROSTATICS SCALED BY 0.833333
Info: MODIFIED 1-4 VDW PARAMETERS WILL BE USED
Info: DCD FILENAME           mobley_6060301_equil.dcd
Info: DCD FREQUENCY          5000
Info: DCD FIRST STEP         5000
Info: DCD FILE WILL CONTAIN UNIT CELL DATA
Info: XST FILENAME           mobley_6060301_equil.xst
Info: XST FREQUENCY          5000
Info: NO VELOCITY DCD OUTPUT
Info: NO FORCE DCD OUTPUT
Info: OUTPUT FILENAME        mobley_6060301_equil
Info: BINARY OUTPUT FILES WILL BE USED
Info: RESTART FILENAME       mobley_6060301_equil.restart
Info: RESTART FREQUENCY      5000
Info: BINARY RESTART FILES WILL BE USED
Info: CUTOFF                 9
Info: PAIRLIST DISTANCE      11
Info: PAIRLIST SHRINK RATE   0.01
Info: PAIRLIST GROW RATE     0.01
Info: PAIRLIST TRIGGER       0.3
Info: PAIRLISTS PER CYCLE    2
Info: PAIRLISTS ENABLED
Info: MARGIN                 8
Info: HYDROGEN GROUP CUTOFF  2.5
Info: PATCH DIMENSION        21.5
Info: ENERGY OUTPUT STEPS    5000
Info: ENERGY EVALUATION STEPS    5000
Info: OUTPUT ENERGY PRECISION 4
Info: CROSSTERM ENERGY INCLUDED IN DIHEDRAL
Info: TIMING OUTPUT STEPS    50000
Info: PRESSURE OUTPUT STEPS  5000
Info: LANGEVIN DYNAMICS ACTIVE
Info: LANGEVIN TEMPERATURE   30
Info: LANGEVIN USING BBK INTEGRATOR
Info: LANGEVIN DAMPING COEFFICIENT IS 1 INVERSE PS
Info: LANGEVIN DYNAMICS APPLIED TO HYDROGENS
Info: LANGEVIN PISTON PRESSURE CONTROL ACTIVE
Info:        TARGET PRESSURE IS 1.01325 BAR
Info:     OSCILLATION PERIOD IS 50 FS
Info:             DECAY TIME IS 25 FS
Info:     PISTON TEMPERATURE IS 300 K
Info:       PRESSURE CONTROL IS GROUP-BASED
Info:    INITIAL STRAIN RATE IS 0 0 0
Info:       CELL FLUCTUATION IS ISOTROPIC
Info: PARTICLE MESH EWALD (PME) ACTIVE
Info: PME TOLERANCE               1e-06
Info: PME EWALD COEFFICIENT       0.348832
Info: PME INTERPOLATION ORDER     4
Info: PME GRID DIMENSIONS         44 44 40
Info: PME MAXIMUM GRID SPACING    1
Info: FULL ELECTROSTATIC EVALUATION FREQUENCY      2
Info: USING VERLET I (r-RESPA) MTS SCHEME.
Info: C1 SPLITTING OF LONG RANGE ELECTROSTATICS
Info: PLACING ATOMS IN PATCHES BY HYDROGEN GROUPS
Info: RIGID BONDS TO HYDROGEN : ALL
Info:         ERROR TOLERANCE : 1e-08
Info:          MAX ITERATIONS : 100
Info: RIGID WATER USING SETTLE ALGORITHM
Info: RANDOM NUMBER SEED     1741349657
Info: USE HYDROGEN BONDS?    NO
Info: Using AMBER format force field!
Info: AMBER PARM FILE        mobley_6060301.prmtop
Info: COORDINATE PDB         mobley_6060301.pdb
Info: Exclusions will be read from PARM file!
Info: SCNB (VDW SCALING)     2
Info: USING ARITHMETIC MEAN TO COMBINE L-J SIGMA PARAMETERS
Info: BINARY COORDINATES     mobley_6060301_min.coor
Info: SUMMARY OF PARAMETERS:
Info: 7 BONDS
Info: 9 ANGLES
Info: 8 DIHEDRAL
Info: 0 IMPROPER
Info: 0 CROSSTERM
Info: 0 VDW
Info: 28 VDW_PAIRS
Info: 0 NBTHOLE_PAIRS
Info: STRUCTURE SUMMARY:
Info: 5179 ATOMS
Info: 5178 BONDS
Info: 39 ANGLES
Info: 51 DIHEDRALS
Info: 0 IMPROPERS
Info: 0 CROSSTERMS
Info: 5268 EXCLUSIONS
Info: 5172 RIGID BONDS
Info: 10365 DEGREES OF FREEDOM
Info: 1726 HYDROGEN GROUPS
Info: 4 ATOMS IN LARGEST HYDROGEN GROUP
Info: 1726 MIGRATION GROUPS
Info: 4 ATOMS IN LARGEST MIGRATION GROUP
Info: TOTAL MASS = 31070.7 amu
Info: TOTAL CHARGE = -9.9957e-05 e
Info: MASS DENSITY = 0.725162 g/cm^3
Info: ATOM DENSITY = 0.0727899 atoms/A^3
Info: ADDED 0 IMPLICIT EXCLUSIONS
Info: NONBONDED TABLE R-SQUARED SPACING: 0.0625
Info: NONBONDED TABLE SIZE: 705 POINTS
Info: REMOVING COM VELOCITY -0.0765914 -0.10722 0.103359
TCL: Running for 25000 steps
ETITLE: TS BOND ANGLE DIHED IMPRP ELECT VDW BOUNDARY MISC KINETIC TOTAL TEMP POTENTIAL TOTAL3 TEMPAVG PRESSURE GPRESSURE VOLUME PRESSAVG GPRESSAVG
ENERGY: 0 0.3717 0.3289 0.1685 0.0000 -23776.6063 4176.2637 0.0000 0.0000 3073.5559 -16525.9176 298.4435 -19599.4734 -16525.2945 298.4435 522.5777 558.0153 71150.0212 522.5777 558.0153
ENERGY: 5000 0.1830 1.5498 0.3986 0.0000 -24932.9324 4436.7009 0.0000 0.0000 318.3685 -20175.7316 30.9137 -20494.1001 -20174.9508 47.5912 664.4994 722.6505 50121.7587 0.0141 -0.0610
ENERGY: 10000 0.4685 1.2721 0.6389 0.0000 -24861.5134 4331.4016 0.0000 0.0000 302.7782 -20224.9540 29.3999 -20527.7322 -20224.1123 30.2570 9.5905 74.1022 50333.9289 0.4618 0.3819
ENERGY: 15000 0.0990 1.2336 0.3592 0.0000 -24944.4441 4404.3573 0.0000 0.0000 308.8819 -20229.5131 29.9926 -20538.3949 -20228.5087 30.2681 393.3258 446.9820 50168.7094 2.7143 2.6904
ENERGY: 20000 0.1401 1.4742 0.2654 0.0000 -24900.3316 4338.6266 0.0000 0.0000 308.0621 -20251.7632 29.9130 -20559.8253 -20250.9928 30.1376 70.5647 126.0185 50175.0902 4.3982 4.3152
ENERGY: 25000 0.1628 1.0502 0.6833 0.0000 -24823.8668 4251.6526 0.0000 0.0000 312.3010 -20258.0169 30.3246 -20570.3178 -20257.1930 30.1804 -394.4631 -308.9819 50248.1743 0.9726 0.8423
TCL: Running 25000 steps at 60 kelvin.
TCL: Setting parameter langevinTemp to 60
TCL: Running for 25000 steps
ETITLE: TS BOND ANGLE DIHED IMPRP ELECT VDW BOUNDARY MISC KINETIC TOTAL TEMP POTENTIAL TOTAL3 TEMPAVG PRESSURE GPRESSURE VOLUME PRESSAVG GPRESSAVG
ENERGY: 25000 0.1628 1.0502 0.6833 0.0000 -24823.8668 4251.6526 0.0000 0.0000 312.1457 -20258.1722 30.3095 -20570.3178 -20257.4834 30.3095 -369.2146 -308.9338 50248.1743 -369.2146 -308.9338
ENERGY: 30000 0.4402 2.3528 0.3074 0.0000 -24610.3539 4289.6612 0.0000 0.0000 641.5457 -19676.0467 62.2944 -20317.5925 -19674.6991 57.0371 381.1540 430.0364 50275.6804 0.0808 0.2752
ENERGY: 35000 0.0651 3.2464 0.4369 0.0000 -24631.7490 4275.3268 0.0000 0.0000 619.5722 -19733.1015 60.1607 -20352.6738 -19731.6310 60.4152 219.1783 290.7293 50313.9454 -0.2890 -0.2903
ENERGY: 40000 0.3993 2.2266 0.2910 0.0000 -24561.3617 4175.0531 0.0000 0.0000 610.0084 -19773.3833 59.2321 -20383.3917 -19771.9242 60.3077 -316.8217 -234.9447 50247.7406 1.1995 1.1250
ENERGY: 45000 0.8567 2.8051 0.6182 0.0000 -24581.0051 4154.7230 0.0000 0.0000 632.4601 -19789.5421 61.4121 -20422.0022 -19787.9071 59.8561 -551.4796 -480.3029 50428.9230 -0.8289 -0.7436
ENERGY: 50000 0.1292 2.3856 0.3745 0.0000 -24455.2482 4030.5223 0.0000 0.0000 624.3239 -19797.5127 60.6221 -20421.8366 -19795.6197 60.2209 -1162.7185 -1089.9406 50703.6669 5.8687 5.7564
TCL: Running 25000 steps at 90 kelvin.
TCL: Setting parameter langevinTemp to 90
TCL: Running for 25000 steps
ETITLE: TS BOND ANGLE DIHED IMPRP ELECT VDW BOUNDARY MISC KINETIC TOTAL TEMP POTENTIAL TOTAL3 TEMPAVG PRESSURE GPRESSURE VOLUME PRESSAVG GPRESSAVG
ENERGY: 50000 0.1292 2.3856 0.3745 0.0000 -24455.2482 4030.5223 0.0000 0.0000 624.0096 -19797.8269 60.5916 -20421.8366 -19796.2181 60.5916 -1141.3911 -1090.0808 50703.6669 -1141.3911 -1090.0808
ENERGY: 55000 1.0777 3.5211 0.6580 0.0000 -24446.4623 4322.3249 0.0000 0.0000 929.3128 -19189.5679 90.2367 -20118.8806 -19188.4709 87.0315 1118.7165 1151.2112 49953.6214 0.6842 0.5521
ENERGY: 60000 0.1166 2.9042 0.3383 0.0000 -24342.9681 4163.8131 0.0000 0.0000 927.6306 -19248.1654 90.0733 -20175.7959 -19245.2903 90.0963 154.2707 227.3476 50083.6103 4.4626 4.1693
ENERGY: 65000 0.4894 3.8279 0.4916 0.0000 -24325.7867 4150.3055 0.0000 0.0000 941.7869 -19228.8854 91.4479 -20170.6723 -19227.3587 90.6322 105.7429 148.1115 50214.9583 4.0894 3.8944
ENERGY: 70000 0.4165 3.7774 0.6097 0.0000 -24285.0933 4053.5752 0.0000 0.0000 945.2334 -19281.4811 91.7826 -20226.7145 -19278.7078 90.5300 -435.2143 -358.7414 50201.4397 0.4661 0.4135
ENERGY: 75000 0.6433 3.6849 0.9607 0.0000 -24373.1292 4136.6603 0.0000 0.0000 939.2795 -19291.9006 91.2044 -20231.1800 -19289.3153 90.2937 -0.8139 55.5170 50019.0637 3.4735 3.1012
TCL: Running 25000 steps at 120 kelvin.
TCL: Setting parameter langevinTemp to 120
TCL: Running for 25000 steps
ETITLE: TS BOND ANGLE DIHED IMPRP ELECT VDW BOUNDARY MISC KINETIC TOTAL TEMP POTENTIAL TOTAL3 TEMPAVG PRESSURE GPRESSURE VOLUME PRESSAVG GPRESSAVG
ENERGY: 75000 0.6433 3.6849 0.9607 0.0000 -24373.1292 4136.6603 0.0000 0.0000 938.8286 -19292.3515 91.1606 -20231.1800 -19290.5472 91.1606 -11.2068 55.6098 50019.0637 -11.2068 55.6098
ENERGY: 80000 0.3761 2.5414 1.2001 0.0000 -23889.6578 3992.1439 0.0000 0.0000 1240.5070 -18652.8893 120.4537 -19893.3963 -18649.3018 116.7323 -49.5302 33.9850 50540.7972 2.7773 2.6630
ENERGY: 85000 0.1439 6.7374 0.6645 0.0000 -23854.7151 3920.9307 0.0000 0.0000 1229.7375 -18696.5012 119.4080 -19926.2387 -18692.4308 120.1059 -429.6858 -388.2432 50556.7512 3.2533 3.3761
ENERGY: 90000 0.6770 3.8039 0.4142 0.0000 -23888.6372 3935.4590 0.0000 0.0000 1256.6635 -18691.6196 122.0225 -19948.2831 -18687.4949 120.5243 -511.3618 -416.8771 50704.0086 2.3676 1.9237
ENERGY: 95000 0.7987 6.2421 0.4958 0.0000 -23968.7754 3981.2362 0.0000 0.0000 1252.8901 -18727.1125 121.6561 -19980.0026 -18722.7606 120.7600 -320.2282 -260.5765 50406.9294 3.0085 2.6565
ENERGY: 100000 0.3900 5.2295 0.7066 0.0000 -24279.1377 4310.1569 0.0000 0.0000 1236.5086 -18726.1461 120.0655 -19962.6547 -18723.5257 120.3247 1402.3158 1426.8159 50069.8106 2.7333 3.0451
TCL: Running 25000 steps at 150 kelvin.
TCL: Setting parameter langevinTemp to 150
TCL: Running for 25000 steps
ETITLE: TS BOND ANGLE DIHED IMPRP ELECT VDW BOUNDARY MISC KINETIC TOTAL TEMP POTENTIAL TOTAL3 TEMPAVG PRESSURE GPRESSURE VOLUME PRESSAVG GPRESSAVG
ENERGY: 100000 0.3900 5.2295 0.7066 0.0000 -24279.1377 4310.1569 0.0000 0.0000 1235.8719 -18726.7828 120.0037 -19962.6547 -18724.5991 120.0037 1385.8972 1426.7636 50069.8106 1385.8972 1426.7636
ENERGY: 105000 0.9498 3.3157 0.4903 0.0000 -23613.0129 3985.4022 0.0000 0.0000 1540.8489 -18082.0060 149.6171 -19622.8549 -18079.1686 146.6090 572.3128 610.6332 50473.0373 2.9876 3.0559
ENERGY: 110000 0.3461 4.0792 0.9622 0.0000 -23562.3613 3931.7430 0.0000 0.0000 1555.4557 -18069.7750 151.0354 -19625.2308 -18065.3773 150.3998 157.8081 217.1401 50819.0363 5.2174 5.3074
ENERGY: 115000 1.4092 4.3092 0.7176 0.0000 -23337.0792 3733.9759 0.0000 0.0000 1515.9515 -18080.7160 147.1995 -19596.6675 -18076.4027 150.0664 -848.9644 -813.9185 51232.0857 0.2592 0.2428
ENERGY: 120000 1.2579 5.8699 0.5566 0.0000 -23615.1907 3946.4093 0.0000 0.0000 1548.2326 -18112.8644 150.3340 -19661.0970 -18108.4824 150.4015 1.2598 75.2579 50792.0682 -0.5298 -0.2464
ENERGY: 125000 0.5001 8.9374 1.1150 0.0000 -23588.0842 3904.5129 0.0000 0.0000 1562.9812 -18110.0375 151.7661 -19673.0187 -18105.7857 150.1558 -94.3496 -15.2381 50752.6955 1.3818 1.0834
TCL: Running 50000 steps at 180 kelvin.
TCL: Setting parameter langevinTemp to 180
TCL: Running for 50000 steps
ETITLE: TS BOND ANGLE DIHED IMPRP ELECT VDW BOUNDARY MISC KINETIC TOTAL TEMP POTENTIAL TOTAL3 TEMPAVG PRESSURE GPRESSURE VOLUME PRESSAVG GPRESSAVG
ENERGY: 125000 0.5001 8.9374 1.1150 0.0000 -23588.0842 3904.5129 0.0000 0.0000 1562.2097 -18110.8091 151.6912 -19673.0187 -18107.8460 151.6912 -79.9409 -14.8712 50752.6955 -79.9409 -14.8712
ENERGY: 135000 0.6017 6.4380 0.9996 0.0000 -22915.2887 3688.4550 0.0000 0.0000 1833.0507 -17385.7436 177.9900 -19218.7943 -17382.7452 179.5601 -95.1878 -59.0670 50888.5766 1.3519 1.2118
ENERGY: 145000 0.9065 3.1701 1.2704 0.0000 -22901.6646 3600.2099 0.0000 0.0000 1862.9176 -17433.1901 180.8901 -19296.1077 -17429.6574 179.2407 -614.6145 -591.5344 50637.2113 3.8101 3.9713
ENERGY: 155000 1.8641 8.9646 0.8956 0.0000 -22930.7487 3648.9596 0.0000 0.0000 1854.1556 -17415.9091 180.0393 -19270.0648 -17411.3700 179.8293 -477.2445 -452.1037 51052.5110 4.6108 4.5273
ENERGY: 165000 0.4796 4.5357 0.9524 0.0000 -22851.4422 3579.9681 0.0000 0.0000 1869.5904 -17395.9160 181.5380 -19265.5064 -17391.7176 179.2878 -627.3287 -546.7234 50747.9897 3.4837 2.9266
ENERGY: 175000 0.8613 6.2652 0.5430 0.0000 -23029.7774 3704.7626 0.0000 0.0000 1835.8598 -17481.4855 178.2627 -19317.3453 -17475.2132 180.8173 -136.1782 -91.7750 50655.6581 1.1863 1.6389
TCL: Running 50000 steps at 210 kelvin.
TCL: Setting parameter langevinTemp to 210
TCL: Running for 50000 steps
ETITLE: TS BOND ANGLE DIHED IMPRP ELECT VDW BOUNDARY MISC KINETIC TOTAL TEMP POTENTIAL TOTAL3 TEMPAVG PRESSURE GPRESSURE VOLUME PRESSAVG GPRESSAVG
ENERGY: 175000 0.8613 6.2652 0.5430 0.0000 -23029.7774 3704.7626 0.0000 0.0000 1834.9096 -17482.4357 178.1705 -19317.3453 -17479.0944 178.1705 -159.4198 -91.4035 50655.6581 -159.4198 -91.4035
ENERGY: 185000 0.5154 7.2945 0.8640 0.0000 -22089.5370 3518.4290 0.0000 0.0000 2158.3806 -16404.0534 209.5796 -18562.4340 -16400.3669 211.2661 567.6508 656.0083 50518.3489 6.3487 6.0801
ENERGY: 195000 0.8861 4.7405 0.5673 0.0000 -21710.7245 3257.5347 0.0000 0.0000 2149.5442 -16297.4517 208.7216 -18446.9959 -16293.7452 209.7820 -448.2936 -354.8204 50799.5219 5.5454 5.5849
ENERGY: 205000 0.5461 5.9866 1.1838 0.0000 -21546.6831 3153.9773 0.0000 0.0000 2163.8392 -16221.1500 210.1097 -18384.9893 -16213.8322 210.6752 -689.1562 -581.0056 50600.6094 5.9888 5.5584
ENERGY: 215000 0.6729 6.9711 2.0203 0.0000 -21774.4045 3327.6315 0.0000 0.0000 2137.7437 -16299.3650 207.5758 -18437.1087 -16293.5157 208.4638 74.9730 165.8168 50284.2721 5.7051 5.2253
ENERGY: 225000 2.2221 5.9737 1.1089 0.0000 -21966.3237 3497.3808 0.0000 0.0000 2151.7955 -16307.8428 208.9402 -18459.6383 -16303.8368 210.0785 874.4779 931.9368 50173.5321 2.5675 2.7427
TCL: Running 50000 steps at 240 kelvin.
TCL: Setting parameter langevinTemp to 240
TCL: Running for 50000 steps
ETITLE: TS BOND ANGLE DIHED IMPRP ELECT VDW BOUNDARY MISC KINETIC TOTAL TEMP POTENTIAL TOTAL3 TEMPAVG PRESSURE GPRESSURE VOLUME PRESSAVG GPRESSAVG
ENERGY: 225000 2.2221 5.9737 1.1089 0.0000 -21966.3237 3497.3808 0.0000 0.0000 2150.6968 -16308.9415 208.8335 -18459.6383 -16304.9313 208.8335 852.0545 931.5187 50173.5321 852.0545 931.5187
ENERGY: 235000 0.6677 9.5494 2.3595 0.0000 -20627.7444 3003.6940 0.0000 0.0000 2488.6100 -15122.8638 241.6451 -17611.4738 -15119.2503 240.0234 -4.2711 63.6319 51055.6310 -5.4670 -4.8970
ENERGY: 245000 1.2209 11.4514 1.6614 0.0000 -20693.4408 3014.5648 0.0000 0.0000 2530.1385 -15134.4037 245.6775 -17664.5422 -15130.0565 240.8360 11.5838 117.2726 50876.1519 3.5190 3.4997
ENERGY: 255000 2.6083 6.9647 3.0860 0.0000 -20727.7648 3014.7549 0.0000 0.0000 2507.0882 -15193.2627 243.4393 -17700.3508 -15188.6361 237.9619 -24.9278 33.2184 51148.4086 1.3007 0.8304
ENERGY: 265000 2.4327 11.9844 0.7795 0.0000 -20613.0874 2963.3067 0.0000 0.0000 2421.2098 -15213.3743 235.1005 -17634.5841 -15210.9924 239.6770 -193.8639 -118.1082 51039.4916 2.8694 2.5363
ENERGY: 275000 1.7411 9.7485 2.1034 0.0000 -20993.5613 3148.8148 0.0000 0.0000 2462.5283 -15368.6252 239.1125 -17831.1535 -15363.1041 238.1608 223.0137 306.3336 50983.4480 6.1434 5.8301
TCL: Running 50000 steps at 270 kelvin.
TCL: Setting parameter langevinTemp to 270
TCL: Running for 50000 steps
ETITLE: TS BOND ANGLE DIHED IMPRP ELECT VDW BOUNDARY MISC KINETIC TOTAL TEMP POTENTIAL TOTAL3 TEMPAVG PRESSURE GPRESSURE VOLUME PRESSAVG GPRESSAVG
ENERGY: 275000 1.7411 9.7485 2.1034 0.0000 -20993.5613 3148.8148 0.0000 0.0000 2461.3207 -15369.8328 238.9953 -17831.1535 -15365.9695 238.9953 221.9324 307.0357 50983.4480 221.9324 307.0357
ENERGY: 285000 1.0784 9.9738 1.5577 0.0000 -19793.8891 2850.1509 0.0000 0.0000 2802.5683 -14128.5601 272.1305 -16931.1284 -14122.7697 268.5039 350.4565 456.9006 52124.1844 0.1932 0.4726
ENERGY: 295000 0.7595 7.1697 2.5102 0.0000 -19388.2842 2491.4107 0.0000 0.0000 2831.3859 -14055.0481 274.9287 -16886.4340 -14050.8102 269.1043 -1250.4897 -1115.4051 52463.4851 -0.4065 -0.7552
ENERGY: 305000 3.0882 9.3510 0.7899 0.0000 -19630.9759 2639.8445 0.0000 0.0000 2782.8138 -14195.0884 270.2124 -16977.9023 -14189.5894 270.4991 -469.3074 -447.2389 51907.5435 6.4975 5.8689
ENERGY: 315000 1.0162 7.9924 1.4366 0.0000 -19630.3430 2694.9407 0.0000 0.0000 2779.5570 -14145.4001 269.8961 -16924.9571 -14140.0823 271.4018 -206.6814 -88.7444 51774.7554 4.1997 4.3839
ENERGY: 325000 2.8635 15.8019 1.1430 0.0000 -19629.1941 2669.5676 0.0000 0.0000 2751.7539 -14188.0642 267.1964 -16939.8181 -14182.8663 269.8151 -423.8356 -315.7808 51907.8409 2.1313 2.5516
TCL: Running 1000000 steps at 300 kelvin.
TCL: Setting parameter langevinTemp to 300
TCL: Running for 1000000 steps
ETITLE: TS BOND ANGLE DIHED IMPRP ELECT VDW BOUNDARY MISC KINETIC TOTAL TEMP POTENTIAL TOTAL3 TEMPAVG PRESSURE GPRESSURE VOLUME PRESSAVG GPRESSAVG
ENERGY: 325000 2.8635 15.8019 1.1430 0.0000 -19629.1941 2669.5676 0.0000 0.0000 2750.3659 -14189.4522 267.0617 -16939.8181 -14185.4401 267.0617 -401.9956 -314.8603 51907.8409 -401.9956 -314.8603
ENERGY: 525000 1.4506 6.2308 3.2595 0.0000 -18716.9741 2489.6483 0.0000 0.0000 3150.9782 -13065.4068 305.9613 -16216.3850 -13059.5453 299.4782 -157.6017 -30.6536 53316.3570 2.5113 3.0774
ENERGY: 725000 3.8750 9.8522 1.8226 0.0000 -18838.7827 2561.0447 0.0000 0.0000 3032.7431 -13229.4452 294.4806 -16262.1882 -13222.6521 298.6104 -62.7365 32.7972 53417.4510 0.1524 0.5859
ENERGY: 925000 1.5735 11.8763 1.3915 0.0000 -18743.2315 2441.0188 0.0000 0.0000 3106.7673 -13180.6040 301.6684 -16287.3713 -13175.6869 301.0166 -381.3453 -290.6228 52806.2965 4.5045 5.0486
ENERGY: 1125000 0.3343 11.7440 1.0622 0.0000 -18660.8027 2415.2503 0.0000 0.0000 3110.2089 -13122.2030 302.0026 -16232.4120 -13119.2845 302.1058 -495.3798 -410.6866 53456.3694 5.0598 4.2163
ENERGY: 1325000 1.6285 12.4257 1.2806 0.0000 -18798.1846 2523.6563 0.0000 0.0000 3115.7006 -13143.4930 302.5358 -16259.1936 -13137.2151 299.2398 76.5227 153.5094 53011.8590 -0.4883 -0.4845
TCL: Exiting due to exit command.
