Info: SIMULATION PARAMETERS:
Info: TIMESTEP               2
Info: NUMBER OF STEPS        0
Info: STEPS PER CYCLE        10
Info: PERIODIC CELL BASIS 1  39.546 0 0
Info: PERIODIC CELL BASIS 2  0 41.086 0
Info: PERIODIC CELL BASIS 3  0 0 40.136
Info: PERIODIC CELL CENTER   0 0 0
Info: WRAPPING WATERS AROUND PERIODIC BOUNDARIES ON OUTPUT.
Info: WRAPPING ALL CLUSTERS AROUND PERIODIC BOUNDARIES ON OUTPUT.
Info: FIRST LDB TIMESTEP     50
Info: LAST LDB TIMESTEP     -1
Info: HOM BACKGROUND SCALING 1
Info: PME BACKGROUND SCALING 1
Info: MIN ATOMS PER PATCH    40
Info: EMPTY PATCH LOAD       40 ATOMS
Info: INITIAL TEMPERATURE    300
Info: CENTER OF MASS MOVING INITIALLY? NO
Info: DIELECTRIC             1
Info: EXCLUDE                SCALED ONE-FOUR
Info: 1-4 ELECTROSTATICS SCALED BY 0.833333
Info: MODIFIED 1-4 VDW PARAMETERS WILL BE USED
Info: DCD FILENAME           mobley_9112978_min.dcd
Info: DCD FREQUENCY          5000
Info: DCD FIRST STEP         5000
Info: DCD FILE WILL CONTAIN UNIT CELL DATA
Info: XST FILENAME           mobley_9112978_min.xst
Info: XST FREQUENCY          5000
Info: NO VELOCITY DCD OUTPUT
Info: NO FORCE DCD OUTPUT
Info: OUTPUT FILENAME        mobley_9112978_min
Info: BINARY OUTPUT FILES WILL BE USED
Info: RESTART FILENAME       mobley_9112978_min.restart
Info: RESTART FREQUENCY      5000
Info: BINARY RESTART FILES WILL BE USED
Info: CUTOFF                 9
Info: PAIRLIST DISTANCE      11
Info: PAIRLIST SHRINK RATE   0.01
Info: PAIRLIST GROW RATE     0.01
Info: PAIRLIST TRIGGER       0.3
Info: PAIRLISTS PER CYCLE    2
Info: PAIRLISTS ENABLED
Info: MARGIN                 8
Info: HYDROGEN GROUP CUTOFF  2.5
Info: PATCH DIMENSION        21.5
Info: ENERGY OUTPUT STEPS    5000
Info: ENERGY EVALUATION STEPS    5000
Info: OUTPUT ENERGY PRECISION 4
Info: CROSSTERM ENERGY INCLUDED IN DIHEDRAL
Info: TIMING OUTPUT STEPS    50000
Info: PRESSURE OUTPUT STEPS  5000
Info: LANGEVIN DYNAMICS ACTIVE
Info: LANGEVIN TEMPERATURE   300
Info: LANGEVIN USING BBK INTEGRATOR
Info: LANGEVIN DAMPING COEFFICIENT IS 1 INVERSE PS
Info: LANGEVIN DYNAMICS APPLIED TO HYDROGENS
Info: LANGEVIN PISTON PRESSURE CONTROL ACTIVE
Info:        TARGET PRESSURE IS 1.01325 BAR
Info:     OSCILLATION PERIOD IS 50 FS
Info:             DECAY TIME IS 25 FS
Info:     PISTON TEMPERATURE IS 300 K
Info:       PRESSURE CONTROL IS GROUP-BASED
Info:    INITIAL STRAIN RATE IS 0 0 0
Info:       CELL FLUCTUATION IS ISOTROPIC
Info: PARTICLE MESH EWALD (PME) ACTIVE
Info: PME TOLERANCE               1e-06
Info: PME EWALD COEFFICIENT       0.348832
Info: PME INTERPOLATION ORDER     4
Info: PME GRID DIMENSIONS         40 44 44
Info: PME MAXIMUM GRID SPACING    1
Info: FULL ELECTROSTATIC EVALUATION FREQUENCY      2
Info: USING VERLET I (r-RESPA) MTS SCHEME.
Info: C1 SPLITTING OF LONG RANGE ELECTROSTATICS
Info: PLACING ATOMS IN PATCHES BY HYDROGEN GROUPS
Info: RIGID BONDS TO HYDROGEN : ALL
Info:         ERROR TOLERANCE : 1e-08
Info:          MAX ITERATIONS : 100
Info: RIGID WATER USING SETTLE ALGORITHM
Info: RANDOM NUMBER SEED     1741399814
Info: USE HYDROGEN BONDS?    NO
Info: Using AMBER format force field!
Info: AMBER PARM FILE        mobley_9112978.prmtop
Info: COORDINATE PDB         mobley_9112978.pdb
Info: Exclusions will be read from PARM file!
Info: SCNB (VDW SCALING)     2
Info: USING ARITHMETIC MEAN TO COMBINE L-J SIGMA PARAMETERS
Info: SUMMARY OF PARAMETERS:
Info: 7 BONDS
Info: 7 ANGLES
Info:   7 HARMONIC
Info:   0 COSINE-BASED
Info: 8 DIHEDRAL
Info: 0 IMPROPER
Info: 0 CROSSTERM
Info: 0 VDW
Info: 21 VDW_PAIRS
Info: 0 NBTHOLE_PAIRS
Info: STRUCTURE SUMMARY:
Info: 4692 ATOMS
Info: 4691 BONDS
Info: 24 ANGLES
Info: 27 DIHEDRALS
Info: 0 IMPROPERS
Info: 0 CROSSTERMS
Info: 4740 EXCLUSIONS
Info: 4687 RIGID BONDS
Info: 9389 DEGREES OF FREEDOM
Info: 1564 HYDROGEN GROUPS
Info: 4 ATOMS IN LARGEST HYDROGEN GROUP
Info: 1564 MIGRATION GROUPS
Info: 4 ATOMS IN LARGEST MIGRATION GROUP
Info: TOTAL MASS = 28157.1 amu
Info: TOTAL CHARGE = 0.000100017 e
Info: MASS DENSITY = 0.716995 g/cm^3
Info: ATOM DENSITY = 0.0719495 atoms/A^3
Info: ADDED 0 IMPLICIT EXCLUSIONS
Info: NONBONDED TABLE R-SQUARED SPACING: 0.0625
Info: NONBONDED TABLE SIZE: 705 POINTS
Info: REMOVING COM VELOCITY -0.255807 -0.0208717 -0.142022
TCL: Minimizing for 2000 steps
ETITLE: TS BOND ANGLE DIHED IMPRP ELECT VDW BOUNDARY MISC KINETIC TOTAL TEMP POTENTIAL TOTAL3 TEMPAVG PRESSURE GPRESSURE VOLUME PRESSAVG GPRESSAVG
ENERGY: 0 0.1415 0.3538 1.6052 0.0000 -14524.8989 1649.4702 0.0000 0.0000 0.0000 -12873.3283 0.0000 -12873.3283 -12873.3283 0.0000 11000.8550 -15727.4011 65212.4493 11000.8550 -15727.4011
ENERGY: 400 0.7601 1.4562 0.9986 0.0000 -19248.6728 2687.3694 0.0000 0.0000 0.0000 -16558.0885 0.0000 -16558.0885 -16558.0885 0.0000 14870.6312 14995.8292 65212.4493 14870.6312 14995.8292
ENERGY: 800 1.3862 1.1270 0.9516 0.0000 -20470.0402 3244.8392 0.0000 0.0000 0.0000 -17221.7361 0.0000 -17221.7361 -17221.7361 0.0000 17505.9789 17609.1434 65212.4493 17505.9789 17609.1434
ENERGY: 1200 0.4889 0.8166 0.9340 0.0000 -20955.8300 3464.1414 0.0000 0.0000 0.0000 -17489.4491 0.0000 -17489.4491 -17489.4491 0.0000 18618.4307 18711.4698 65212.4493 18618.4307 18711.4698
ENERGY: 1600 3.5177 1.3671 0.9001 0.0000 -21300.4338 3619.6280 0.0000 0.0000 0.0000 -17675.0210 0.0000 -17675.0210 -17675.0210 0.0000 19419.6487 19501.0588 65212.4493 19419.6487 19501.0588
ENERGY: 2000 0.2812 0.7876 0.5527 0.0000 -21440.6285 3680.6444 0.0000 0.0000 0.0000 -17758.3627 0.0000 -17758.3627 -17758.3627 0.0000 19769.9596 19856.1615 65212.4493 19769.9596 19856.1615
TCL: Exiting due to exit command.
Info: NAMD 3.0.1 for Linux-x86_64-multicore
Info: Please visit http://www.ks.uiuc.edu/Research/namd/
Info: for updates, documentation, and support information.
Info: Please cite Phillips et al., J. Chem. Phys. 153:044130 (2020) doi:10.1063/5.0014475
Info: in all publications reporting results obtained with NAMD.
Info: Based on Charm++/Converse 80000 for multicore-linux-x86_64-gcc
Info: Built Mon Oct 14 11:11:06 CDT 2024 by dhardy on athine.ks.uiuc.edu
Info: 1 NAMD  3.0.1  Linux-x86_64-multicore  16    k005  z5358697
Info: Running on 16 processors, 1 nodes, 1 physical nodes.
Info: CPU topology information available.
Info: Charm++/Converse parallel runtime startup completed at 0.0134397 s
Info: 1043.45 MB of memory in use based on /proc/self/stat
Info: Configuration file is mobley_9112978_equil.namd
Info: Working in the current directory /srv/scratch/z5358697/prod_prep_11/9112978
TCL: Running 25000 steps at 30 kelvin.
TCL: Suspending until startup complete.
Info: SIMULATION PARAMETERS:
Info: TIMESTEP               2
Info: NUMBER OF STEPS        0
Info: STEPS PER CYCLE        10
Info: PERIODIC CELL BASIS 1  39.546 0 0
Info: PERIODIC CELL BASIS 2  0 41.086 0
Info: PERIODIC CELL BASIS 3  0 0 40.136
Info: PERIODIC CELL CENTER   0 0 0
Info: WRAPPING WATERS AROUND PERIODIC BOUNDARIES ON OUTPUT.
Info: WRAPPING ALL CLUSTERS AROUND PERIODIC BOUNDARIES ON OUTPUT.
Info: FIRST LDB TIMESTEP     50
Info: LAST LDB TIMESTEP     -1
Info: HOM BACKGROUND SCALING 1
Info: PME BACKGROUND SCALING 1
Info: MIN ATOMS PER PATCH    40
Info: EMPTY PATCH LOAD       40 ATOMS
Info: INITIAL TEMPERATURE    300
Info: CENTER OF MASS MOVING INITIALLY? NO
Info: DIELECTRIC             1
Info: EXCLUDE                SCALED ONE-FOUR
Info: 1-4 ELECTROSTATICS SCALED BY 0.833333
Info: MODIFIED 1-4 VDW PARAMETERS WILL BE USED
Info: DCD FILENAME           mobley_9112978_equil.dcd
Info: DCD FREQUENCY          5000
Info: DCD FIRST STEP         5000
Info: DCD FILE WILL CONTAIN UNIT CELL DATA
Info: XST FILENAME           mobley_9112978_equil.xst
Info: XST FREQUENCY          5000
Info: NO VELOCITY DCD OUTPUT
Info: NO FORCE DCD OUTPUT
Info: OUTPUT FILENAME        mobley_9112978_equil
Info: BINARY OUTPUT FILES WILL BE USED
Info: RESTART FILENAME       mobley_9112978_equil.restart
Info: RESTART FREQUENCY      5000
Info: BINARY RESTART FILES WILL BE USED
Info: CUTOFF                 9
Info: PAIRLIST DISTANCE      11
Info: PAIRLIST SHRINK RATE   0.01
Info: PAIRLIST GROW RATE     0.01
Info: PAIRLIST TRIGGER       0.3
Info: PAIRLISTS PER CYCLE    2
Info: PAIRLISTS ENABLED
Info: MARGIN                 8
Info: HYDROGEN GROUP CUTOFF  2.5
Info: PATCH DIMENSION        21.5
Info: ENERGY OUTPUT STEPS    5000
Info: ENERGY EVALUATION STEPS    5000
Info: OUTPUT ENERGY PRECISION 4
Info: CROSSTERM ENERGY INCLUDED IN DIHEDRAL
Info: TIMING OUTPUT STEPS    50000
Info: PRESSURE OUTPUT STEPS  5000
Info: LANGEVIN DYNAMICS ACTIVE
Info: LANGEVIN TEMPERATURE   30
Info: LANGEVIN USING BBK INTEGRATOR
Info: LANGEVIN DAMPING COEFFICIENT IS 1 INVERSE PS
Info: LANGEVIN DYNAMICS APPLIED TO HYDROGENS
Info: LANGEVIN PISTON PRESSURE CONTROL ACTIVE
Info:        TARGET PRESSURE IS 1.01325 BAR
Info:     OSCILLATION PERIOD IS 50 FS
Info:             DECAY TIME IS 25 FS
Info:     PISTON TEMPERATURE IS 300 K
Info:       PRESSURE CONTROL IS GROUP-BASED
Info:    INITIAL STRAIN RATE IS 0 0 0
Info:       CELL FLUCTUATION IS ISOTROPIC
Info: PARTICLE MESH EWALD (PME) ACTIVE
Info: PME TOLERANCE               1e-06
Info: PME EWALD COEFFICIENT       0.348832
Info: PME INTERPOLATION ORDER     4
Info: PME GRID DIMENSIONS         40 44 44
Info: PME MAXIMUM GRID SPACING    1
Info: FULL ELECTROSTATIC EVALUATION FREQUENCY      2
Info: USING VERLET I (r-RESPA) MTS SCHEME.
Info: C1 SPLITTING OF LONG RANGE ELECTROSTATICS
Info: PLACING ATOMS IN PATCHES BY HYDROGEN GROUPS
Info: RIGID BONDS TO HYDROGEN : ALL
Info:         ERROR TOLERANCE : 1e-08
Info:          MAX ITERATIONS : 100
Info: RIGID WATER USING SETTLE ALGORITHM
Info: RANDOM NUMBER SEED     1741399832
Info: USE HYDROGEN BONDS?    NO
Info: Using AMBER format force field!
Info: AMBER PARM FILE        mobley_9112978.prmtop
Info: COORDINATE PDB         mobley_9112978.pdb
Info: Exclusions will be read from PARM file!
Info: SCNB (VDW SCALING)     2
Info: USING ARITHMETIC MEAN TO COMBINE L-J SIGMA PARAMETERS
Info: BINARY COORDINATES     mobley_9112978_min.coor
Info: SUMMARY OF PARAMETERS:
Info: 7 BONDS
Info: 7 ANGLES
Info: 8 DIHEDRAL
Info: 0 IMPROPER
Info: 0 CROSSTERM
Info: 0 VDW
Info: 21 VDW_PAIRS
Info: 0 NBTHOLE_PAIRS
Info: STRUCTURE SUMMARY:
Info: 4692 ATOMS
Info: 4691 BONDS
Info: 24 ANGLES
Info: 27 DIHEDRALS
Info: 0 IMPROPERS
Info: 0 CROSSTERMS
Info: 4740 EXCLUSIONS
Info: 4687 RIGID BONDS
Info: 9389 DEGREES OF FREEDOM
Info: 1564 HYDROGEN GROUPS
Info: 4 ATOMS IN LARGEST HYDROGEN GROUP
Info: 1564 MIGRATION GROUPS
Info: 4 ATOMS IN LARGEST MIGRATION GROUP
Info: TOTAL MASS = 28157.1 amu
Info: TOTAL CHARGE = 0.000100017 e
Info: MASS DENSITY = 0.716995 g/cm^3
Info: ATOM DENSITY = 0.0719495 atoms/A^3
Info: ADDED 0 IMPLICIT EXCLUSIONS
Info: NONBONDED TABLE R-SQUARED SPACING: 0.0625
Info: NONBONDED TABLE SIZE: 705 POINTS
Info: REMOVING COM VELOCITY -0.182472 -0.0343795 -0.0851202
TCL: Running for 25000 steps
ETITLE: TS BOND ANGLE DIHED IMPRP ELECT VDW BOUNDARY MISC KINETIC TOTAL TEMP POTENTIAL TOTAL3 TEMPAVG PRESSURE GPRESSURE VOLUME PRESSAVG GPRESSAVG
ENERGY: 0 0.2812 0.7876 0.5527 0.0000 -21440.6285 3680.6444 0.0000 0.0000 2823.3932 -14934.9695 302.6512 -17758.3627 -14934.4092 302.6512 140.2176 181.6955 65212.4493 140.2176 181.6955
ENERGY: 5000 0.2235 1.3557 0.9845 0.0000 -22418.1072 3800.2325 0.0000 0.0000 281.4145 -18333.8965 30.1660 -18615.3110 -18333.1494 47.7805 -429.2045 -382.6520 45197.0827 3.9659 4.2150
ENERGY: 10000 0.2071 1.4650 1.3039 0.0000 -22522.2637 3846.4118 0.0000 0.0000 279.4865 -18393.3894 29.9593 -18672.8760 -18392.8057 30.3859 -220.4030 -168.8003 44877.7350 6.6034 6.6143
ENERGY: 15000 0.1570 1.1678 0.9774 0.0000 -22720.7975 4025.8780 0.0000 0.0000 289.7174 -18402.8999 31.0560 -18692.6173 -18402.4385 30.2879 746.0541 796.3851 44469.1833 0.3649 0.3184
ENERGY: 20000 0.3267 0.8465 1.0687 0.0000 -22594.2115 3895.1968 0.0000 0.0000 277.1174 -18419.6554 29.7054 -18696.7729 -18419.0667 30.2749 -33.9260 32.9463 44803.5679 1.6702 1.7146
ENERGY: 25000 0.1166 0.8746 1.1837 0.0000 -22396.4038 3690.2174 0.0000 0.0000 283.7258 -18420.2858 30.4137 -18704.0116 -18419.5345 30.0183 -1202.4681 -1135.5396 45116.8485 5.2150 5.2258
TCL: Running 25000 steps at 60 kelvin.
TCL: Setting parameter langevinTemp to 60
TCL: Running for 25000 steps
ETITLE: TS BOND ANGLE DIHED IMPRP ELECT VDW BOUNDARY MISC KINETIC TOTAL TEMP POTENTIAL TOTAL3 TEMPAVG PRESSURE GPRESSURE VOLUME PRESSAVG GPRESSAVG
ENERGY: 25000 0.1166 0.8746 1.1837 0.0000 -22396.4038 3690.2174 0.0000 0.0000 283.5860 -18420.4256 30.3988 -18704.0116 -18419.7666 30.3988 -1197.2982 -1135.5503 45116.8485 -1197.2982 -1135.5503
ENERGY: 30000 0.1503 1.5150 1.1329 0.0000 -22146.2636 3681.6409 0.0000 0.0000 563.7907 -17898.0338 60.4351 -18461.8246 -17896.7563 56.5260 -599.9713 -556.3497 45175.6045 1.0500 0.9753
ENERGY: 35000 0.3401 2.4766 0.9633 0.0000 -22293.0728 3800.0859 0.0000 0.0000 558.5468 -17930.6601 59.8729 -18489.2069 -17930.0122 60.8106 -22.8005 25.6109 44979.9693 8.3167 8.3428
ENERGY: 40000 0.0611 2.4322 1.2422 0.0000 -22319.1903 3805.2313 0.0000 0.0000 563.8499 -17946.3737 60.4414 -18510.2236 -17944.6541 60.2066 -4.6267 76.7819 44899.6911 -3.8689 -3.9014
ENERGY: 45000 0.3083 2.4321 0.9435 0.0000 -22321.7125 3793.6402 0.0000 0.0000 549.0315 -17975.3571 58.8530 -18524.3885 -17973.9708 59.7647 -124.3046 -77.3984 44988.8840 1.1646 1.4891
ENERGY: 50000 0.3006 1.7388 2.1068 0.0000 -22270.6242 3725.0318 0.0000 0.0000 573.3160 -17968.1301 61.4561 -18541.4462 -17966.7077 59.7291 -465.6494 -427.8032 45000.3261 8.1023 8.0380
TCL: Running 25000 steps at 90 kelvin.
TCL: Setting parameter langevinTemp to 90
TCL: Running for 25000 steps
ETITLE: TS BOND ANGLE DIHED IMPRP ELECT VDW BOUNDARY MISC KINETIC TOTAL TEMP POTENTIAL TOTAL3 TEMPAVG PRESSURE GPRESSURE VOLUME PRESSAVG GPRESSAVG
ENERGY: 50000 0.3006 1.7388 2.1068 0.0000 -22270.6242 3725.0318 0.0000 0.0000 573.0447 -17968.4015 61.4270 -18541.4462 -17967.2077 61.4270 -484.4552 -428.0321 45000.3261 -484.4552 -428.0321
ENERGY: 55000 0.8796 2.4022 1.4744 0.0000 -22061.7478 3787.5391 0.0000 0.0000 852.5777 -17416.8747 91.3913 -18269.4525 -17414.9916 87.2224 447.7001 510.5615 45122.0295 -0.0241 -0.0552
ENERGY: 60000 0.8785 2.9411 0.9774 0.0000 -21862.4733 3579.4608 0.0000 0.0000 842.6011 -17435.6144 90.3219 -18278.2155 -17433.9564 90.3060 -681.4955 -634.2479 45406.6309 7.7804 7.8730
ENERGY: 65000 1.4250 1.8847 1.8090 0.0000 -22138.6924 3832.0446 0.0000 0.0000 840.0970 -17461.4320 90.0535 -18301.5291 -17460.2054 90.7985 514.8904 601.2201 45090.3118 7.5989 7.6689
ENERGY: 70000 0.2798 2.4815 1.5178 0.0000 -21982.2987 3646.1583 0.0000 0.0000 837.0939 -17494.7673 89.7316 -18331.8613 -17493.0026 90.2280 -461.9786 -394.3904 45337.8790 0.2234 0.4822
ENERGY: 75000 0.1756 1.8336 1.3256 0.0000 -21992.8302 3628.0459 0.0000 0.0000 844.2059 -17517.2438 90.4939 -18361.4496 -17515.4766 89.7672 -583.3866 -529.0191 45349.4693 4.9249 5.0360
TCL: Running 25000 steps at 120 kelvin.
TCL: Setting parameter langevinTemp to 120
TCL: Running for 25000 steps
ETITLE: TS BOND ANGLE DIHED IMPRP ELECT VDW BOUNDARY MISC KINETIC TOTAL TEMP POTENTIAL TOTAL3 TEMPAVG PRESSURE GPRESSURE VOLUME PRESSAVG GPRESSAVG
ENERGY: 75000 0.1756 1.8336 1.3256 0.0000 -21992.8302 3628.0459 0.0000 0.0000 843.7624 -17517.6872 90.4464 -18361.4496 -17515.6489 90.4464 -598.0849 -529.2873 45349.4693 -598.0849 -529.2873
ENERGY: 80000 0.1417 2.0765 1.8475 0.0000 -21627.6311 3601.6920 0.0000 0.0000 1151.4738 -16870.3994 123.4312 -18021.8732 -16867.3748 117.1814 181.6982 212.4313 45157.0031 4.7271 4.7685
ENERGY: 85000 0.3332 3.0249 2.6470 0.0000 -21682.6632 3636.3400 0.0000 0.0000 1132.6878 -16907.6303 121.4175 -18040.3181 -16905.2301 119.8672 181.8238 271.1553 45248.6207 -0.1429 0.1813
ENERGY: 90000 0.6947 1.8398 1.3253 0.0000 -21814.3327 3713.8415 0.0000 0.0000 1125.4296 -16971.2018 120.6395 -18096.6314 -16970.2219 119.8176 646.0710 682.9201 44847.6421 1.7286 1.6177
ENERGY: 95000 0.2300 3.2428 2.4307 0.0000 -21672.8204 3566.1758 0.0000 0.0000 1140.2463 -16960.4948 122.2277 -18100.7411 -16958.0457 119.9856 -306.3565 -290.9840 45412.0406 2.1013 2.2699
ENERGY: 100000 1.5007 1.7835 1.0782 0.0000 -21820.6989 3713.1187 0.0000 0.0000 1131.1041 -16972.1137 121.2477 -18103.2178 -16969.7603 120.6957 480.6726 549.9925 45125.8988 3.3244 3.4974
TCL: Running 25000 steps at 150 kelvin.
TCL: Setting parameter langevinTemp to 150
TCL: Running for 25000 steps
ETITLE: TS BOND ANGLE DIHED IMPRP ELECT VDW BOUNDARY MISC KINETIC TOTAL TEMP POTENTIAL TOTAL3 TEMPAVG PRESSURE GPRESSURE VOLUME PRESSAVG GPRESSAVG
ENERGY: 100000 1.5007 1.7835 1.0782 0.0000 -21820.6989 3713.1187 0.0000 0.0000 1130.5289 -16972.6888 121.1861 -18103.2178 -16970.2302 121.1861 487.5428 548.9142 45125.8988 487.5428 548.9142
ENERGY: 105000 0.7165 3.6139 2.1837 0.0000 -21196.5714 3410.2814 0.0000 0.0000 1392.4696 -16387.3062 149.2646 -17779.7758 -16383.7430 147.3247 -570.4888 -451.7812 45734.4290 -0.5059 -0.5624
ENERGY: 110000 0.3621 4.2563 2.0319 0.0000 -21414.2227 3575.7267 0.0000 0.0000 1404.2449 -16427.6008 150.5268 -17831.8457 -16424.1766 149.8861 323.9012 334.0854 45419.2510 -2.5802 -2.5254
ENERGY: 115000 0.7469 3.9206 1.4822 0.0000 -21312.1149 3514.2333 0.0000 0.0000 1429.3764 -16362.3556 153.2208 -17791.7319 -16359.2515 150.4409 -129.5047 -84.4875 46173.1366 1.9860 2.0575
ENERGY: 120000 0.3122 4.0914 0.8852 0.0000 -21397.6845 3526.5959 0.0000 0.0000 1379.9421 -16485.8577 147.9217 -17865.7999 -16482.5112 149.2026 -157.4909 -99.7273 45766.2500 -2.0899 -1.8186
ENERGY: 125000 0.9306 3.1034 2.3669 0.0000 -21525.6214 3632.7550 0.0000 0.0000 1400.4602 -16486.0054 150.1211 -17886.4656 -16482.0351 149.6998 222.6436 273.3374 45947.7066 5.5456 5.6595
TCL: Running 50000 steps at 180 kelvin.
TCL: Setting parameter langevinTemp to 180
TCL: Running for 50000 steps
ETITLE: TS BOND ANGLE DIHED IMPRP ELECT VDW BOUNDARY MISC KINETIC TOTAL TEMP POTENTIAL TOTAL3 TEMPAVG PRESSURE GPRESSURE VOLUME PRESSAVG GPRESSAVG
ENERGY: 125000 0.9306 3.1034 2.3669 0.0000 -21525.6214 3632.7550 0.0000 0.0000 1399.7564 -16486.7092 150.0457 -17886.4656 -16484.2133 150.0457 220.8888 273.8132 45947.7066 220.8888 273.8132
ENERGY: 135000 1.0549 3.1683 0.5526 0.0000 -20607.8287 3162.4976 0.0000 0.0000 1708.1751 -15732.3802 183.1064 -17440.5553 -15726.6140 179.7675 -1070.4350 -1000.4147 46206.5069 0.4126 0.6557
ENERGY: 145000 0.1424 2.7779 1.1617 0.0000 -20771.2023 3307.6973 0.0000 0.0000 1659.9922 -15799.4308 177.9414 -17459.4230 -15796.4139 178.8909 -208.0753 -219.9528 45844.6109 1.1231 1.3498
ENERGY: 155000 0.4809 4.1250 1.8008 0.0000 -20740.2741 3323.9639 0.0000 0.0000 1673.8304 -15736.0731 179.4248 -17409.9035 -15732.7045 179.4204 -155.8039 -133.2070 45911.9030 6.1713 6.1860
ENERGY: 165000 1.6106 6.4699 3.3931 0.0000 -20684.2134 3249.7927 0.0000 0.0000 1679.7336 -15743.2135 180.0576 -17422.9471 -15740.4880 180.5526 -479.9045 -412.8967 45569.6103 0.1169 0.2304
ENERGY: 175000 1.9848 3.2836 1.3638 0.0000 -20777.4784 3289.6050 0.0000 0.0000 1699.7681 -15781.4731 182.2052 -17481.2412 -15776.0716 179.9555 -494.6778 -458.4941 45800.9384 7.3457 7.1529
TCL: Running 50000 steps at 210 kelvin.
TCL: Setting parameter langevinTemp to 210
TCL: Running for 50000 steps
ETITLE: TS BOND ANGLE DIHED IMPRP ELECT VDW BOUNDARY MISC KINETIC TOTAL TEMP POTENTIAL TOTAL3 TEMPAVG PRESSURE GPRESSURE VOLUME PRESSAVG GPRESSAVG
ENERGY: 175000 1.9848 3.2836 1.3638 0.0000 -20777.4784 3289.6050 0.0000 0.0000 1698.9499 -15782.2913 182.1175 -17481.2412 -15778.6167 182.1175 -516.3878 -458.4000 45800.9384 -516.3878 -458.4000
ENERGY: 185000 0.1114 5.1677 1.9804 0.0000 -19870.5881 3080.5044 0.0000 0.0000 2008.7794 -14774.0448 215.3294 -16782.8242 -14770.0747 208.5024 168.3967 230.9287 45799.4914 3.5944 3.2582
ENERGY: 195000 0.9691 1.9822 2.1394 0.0000 -19720.9778 3025.9635 0.0000 0.0000 1993.8240 -14696.0995 213.7263 -16689.9236 -14688.8334 211.1580 139.6168 210.3873 45545.3071 2.9011 3.0671
ENERGY: 205000 2.1978 6.5406 1.9183 0.0000 -20036.8732 3219.8750 0.0000 0.0000 1976.8206 -14829.5209 211.9036 -16806.3414 -14824.6635 208.1119 1143.6686 1192.9801 44923.9459 4.9081 4.2547
ENERGY: 215000 1.0450 6.9107 3.1896 0.0000 -19702.1726 2983.2257 0.0000 0.0000 1922.2648 -14785.5367 206.0555 -16707.8015 -14783.2517 210.4634 -247.0550 -126.0287 45723.5541 3.4034 3.7542
ENERGY: 225000 0.8153 4.7745 1.6906 0.0000 -19697.4946 2979.6416 0.0000 0.0000 1953.9818 -14756.5908 209.4554 -16710.5725 -14752.4349 210.4727 -163.2707 -101.0331 45750.5421 2.8376 3.0720
TCL: Running 50000 steps at 240 kelvin.
TCL: Setting parameter langevinTemp to 240
TCL: Running for 50000 steps
ETITLE: TS BOND ANGLE DIHED IMPRP ELECT VDW BOUNDARY MISC KINETIC TOTAL TEMP POTENTIAL TOTAL3 TEMPAVG PRESSURE GPRESSURE VOLUME PRESSAVG GPRESSAVG
ENERGY: 225000 0.8153 4.7745 1.6906 0.0000 -19697.4946 2979.6416 0.0000 0.0000 1953.0127 -14757.5599 209.3515 -16710.5725 -14753.9502 209.3515 -168.7297 -100.7642 45750.5421 -168.7297 -100.7642
ENERGY: 235000 1.5377 3.4319 1.6583 0.0000 -18741.3001 2718.1366 0.0000 0.0000 2251.9953 -13764.5404 241.4007 -16016.5356 -13759.8934 239.9575 -151.6586 -71.7516 46221.5421 1.1453 1.1157
ENERGY: 245000 0.4650 5.1436 4.8303 0.0000 -18861.6144 2753.1967 0.0000 0.0000 2248.2781 -13849.7006 241.0022 -16097.9787 -13845.5941 240.6269 22.6878 131.3548 45969.7657 2.7717 2.5419
ENERGY: 255000 0.5747 2.1678 3.0912 0.0000 -18824.4593 2745.6458 0.0000 0.0000 2246.5203 -13826.4596 240.8138 -16072.9799 -13820.1777 240.4419 -23.9067 68.9738 46149.1680 3.3883 3.7062
ENERGY: 265000 1.6660 6.2730 4.2149 0.0000 -18723.4262 2645.5438 0.0000 0.0000 2201.0128 -13864.7159 235.9357 -16065.7287 -13861.9676 239.7711 -491.2788 -422.0515 46083.4111 5.1437 4.6237
ENERGY: 275000 0.5198 7.3761 1.7100 0.0000 -18591.6047 2554.9758 0.0000 0.0000 2255.9141 -13771.1091 241.8208 -16027.0232 -13766.0996 241.7401 -1091.5541 -1051.6124 46748.1933 -2.3794 -2.9870
TCL: Running 50000 steps at 270 kelvin.
TCL: Setting parameter langevinTemp to 270
TCL: Running for 50000 steps
ETITLE: TS BOND ANGLE DIHED IMPRP ELECT VDW BOUNDARY MISC KINETIC TOTAL TEMP POTENTIAL TOTAL3 TEMPAVG PRESSURE GPRESSURE VOLUME PRESSAVG GPRESSAVG
ENERGY: 275000 0.5198 7.3761 1.7100 0.0000 -18591.6047 2554.9758 0.0000 0.0000 2254.8021 -13772.2211 241.7016 -16027.0232 -13769.1464 241.7016 -1132.5665 -1051.7002 46748.1933 -1132.5665 -1051.7002
ENERGY: 285000 1.7116 4.9931 2.4117 0.0000 -17947.8390 2535.3961 0.0000 0.0000 2501.3357 -12901.9909 268.1285 -15403.3266 -12896.7944 268.8556 -7.2843 91.2613 47388.9141 2.7221 1.7946
ENERGY: 295000 2.1367 5.3884 1.6470 0.0000 -17896.0935 2477.0245 0.0000 0.0000 2514.0349 -12895.8620 269.4898 -15409.8969 -12889.6269 268.6125 -337.0004 -264.6714 47509.2403 3.3058 2.6518
ENERGY: 305000 0.7124 5.2988 3.2503 0.0000 -17718.1085 2375.1037 0.0000 0.0000 2564.5888 -12769.1544 274.9089 -15333.7432 -12764.6728 270.4213 -519.3397 -398.0789 47200.0851 1.9837 2.0532
ENERGY: 315000 1.8998 5.2801 1.4301 0.0000 -17956.0423 2521.5577 0.0000 0.0000 2531.4165 -12894.4581 271.3530 -15425.8745 -12888.7445 269.1113 49.0646 104.7591 46854.7197 -0.4750 -0.0895
ENERGY: 325000 1.7845 4.9499 1.5443 0.0000 -17821.7306 2440.4297 0.0000 0.0000 2546.7618 -12826.2605 272.9979 -15373.0223 -12821.3869 269.9006 -227.9520 -135.4392 46813.9037 -2.3861 -3.0052
TCL: Running 1000000 steps at 300 kelvin.
TCL: Setting parameter langevinTemp to 300
TCL: Running for 1000000 steps
ETITLE: TS BOND ANGLE DIHED IMPRP ELECT VDW BOUNDARY MISC KINETIC TOTAL TEMP POTENTIAL TOTAL3 TEMPAVG PRESSURE GPRESSURE VOLUME PRESSAVG GPRESSAVG
ENERGY: 325000 1.7845 4.9499 1.5443 0.0000 -17821.7306 2440.4297 0.0000 0.0000 2545.4858 -12827.5365 272.8612 -15373.0223 -12823.4835 272.8612 -218.5811 -135.1775 46813.9037 -218.5811 -135.1775
ENERGY: 525000 0.3469 6.2177 3.8658 0.0000 -17158.3583 2416.1379 0.0000 0.0000 2734.0765 -11997.7134 293.0770 -14731.7899 -11992.7183 298.0548 569.8864 586.6915 48499.2730 2.0910 2.3664
ENERGY: 725000 0.6336 6.3071 2.7568 0.0000 -17068.1226 2331.1091 0.0000 0.0000 2777.5478 -11949.7683 297.7368 -14727.3161 -11946.3896 298.6567 161.8493 226.2889 48455.2407 1.0294 0.6263
ENERGY: 925000 1.1111 2.9080 3.5012 0.0000 -16851.1772 2203.8728 0.0000 0.0000 2782.3696 -11857.4143 298.2537 -14639.7840 -11848.8229 298.8920 -462.2151 -389.4352 48832.4694 4.4205 3.6793
ENERGY: 1125000 0.0934 8.2407 2.2517 0.0000 -17187.1425 2350.5093 0.0000 0.0000 2772.3776 -12053.6699 297.1826 -14826.0475 -12046.9036 299.5094 -69.2430 52.6257 48605.5172 0.0789 0.8553
ENERGY: 1325000 3.2620 4.3364 2.5333 0.0000 -17127.9692 2366.3044 0.0000 0.0000 2809.2199 -11942.3132 301.1319 -14751.5332 -11935.7080 302.2343 231.1678 265.5026 48388.0146 5.8213 5.7127
TCL: Exiting due to exit command.
