Info: SIMULATION PARAMETERS:
Info: TIMESTEP               2
Info: NUMBER OF STEPS        0
Info: STEPS PER CYCLE        10
Info: PERIODIC CELL BASIS 1  34.986 0 0
Info: PERIODIC CELL BASIS 2  0 35.779 0
Info: PERIODIC CELL BASIS 3  0 0 35.516
Info: PERIODIC CELL CENTER   0 0 0
Info: WRAPPING WATERS AROUND PERIODIC BOUNDARIES ON OUTPUT.
Info: WRAPPING ALL CLUSTERS AROUND PERIODIC BOUNDARIES ON OUTPUT.
Info: FIRST LDB TIMESTEP     50
Info: LAST LDB TIMESTEP     -1
Info: HOM BACKGROUND SCALING 1
Info: PME BACKGROUND SCALING 1
Info: MIN ATOMS PER PATCH    40
Info: EMPTY PATCH LOAD       40 ATOMS
Info: INITIAL TEMPERATURE    300
Info: CENTER OF MASS MOVING INITIALLY? NO
Info: DIELECTRIC             1
Info: EXCLUDE                SCALED ONE-FOUR
Info: 1-4 ELECTROSTATICS SCALED BY 0.833333
Info: MODIFIED 1-4 VDW PARAMETERS WILL BE USED
Info: DCD FILENAME           mobley_7532833_equil.dcd
Info: DCD FREQUENCY          100000
Info: DCD FIRST STEP         100000
Info: DCD FILE WILL CONTAIN UNIT CELL DATA
Info: XST FILENAME           mobley_7532833_equil.xst
Info: XST FREQUENCY          100000
Info: NO VELOCITY DCD OUTPUT
Info: NO FORCE DCD OUTPUT
Info: OUTPUT FILENAME        mobley_7532833_equil
Info: BINARY OUTPUT FILES WILL BE USED
Info: RESTART FILENAME       mobley_7532833_equil.restart
Info: RESTART FREQUENCY      100000
Info: BINARY RESTART FILES WILL BE USED
Info: CUTOFF                 9
Info: PAIRLIST DISTANCE      11
Info: PAIRLIST SHRINK RATE   0.01
Info: PAIRLIST GROW RATE     0.01
Info: PAIRLIST TRIGGER       0.3
Info: PAIRLISTS PER CYCLE    2
Info: PAIRLISTS ENABLED
Info: MARGIN                 8
Info: HYDROGEN GROUP CUTOFF  2.5
Info: PATCH DIMENSION        21.5
Info: ENERGY OUTPUT STEPS    100000
Info: ENERGY EVALUATION STEPS    100000
Info: OUTPUT ENERGY PRECISION 4
Info: CROSSTERM ENERGY INCLUDED IN DIHEDRAL
Info: TIMING OUTPUT STEPS    1000000
Info: PRESSURE OUTPUT STEPS  100000
Info: LANGEVIN DYNAMICS ACTIVE
Info: LANGEVIN TEMPERATURE   30
Info: LANGEVIN USING BBK INTEGRATOR
Info: LANGEVIN DAMPING COEFFICIENT IS 1 INVERSE PS
Info: LANGEVIN DYNAMICS APPLIED TO HYDROGENS
Info: LANGEVIN PISTON PRESSURE CONTROL ACTIVE
Info:        TARGET PRESSURE IS 1.01325 BAR
Info:     OSCILLATION PERIOD IS 50 FS
Info:             DECAY TIME IS 25 FS
Info:     PISTON TEMPERATURE IS 300 K
Info:       PRESSURE CONTROL IS GROUP-BASED
Info:    INITIAL STRAIN RATE IS 0 0 0
Info:       CELL FLUCTUATION IS ISOTROPIC
Info: PARTICLE MESH EWALD (PME) ACTIVE
Info: PME TOLERANCE               1e-06
Info: PME EWALD COEFFICIENT       0.348832
Info: PME INTERPOLATION ORDER     4
Info: PME GRID DIMENSIONS         36 36 36
Info: PME MAXIMUM GRID SPACING    1
Info: FULL ELECTROSTATIC EVALUATION FREQUENCY      2
Info: USING VERLET I (r-RESPA) MTS SCHEME.
Info: C1 SPLITTING OF LONG RANGE ELECTROSTATICS
Info: PLACING ATOMS IN PATCHES BY HYDROGEN GROUPS
Info: RIGID BONDS TO HYDROGEN : ALL
Info:         ERROR TOLERANCE : 1e-08
Info:          MAX ITERATIONS : 100
Info: RIGID WATER USING SETTLE ALGORITHM
Info: RANDOM NUMBER SEED     1742445068
Info: USE HYDROGEN BONDS?    NO
Info: Using AMBER format force field!
Info: AMBER PARM FILE        mobley_7532833.prmtop
Info: COORDINATE PDB         mobley_7532833.pdb
Info: Exclusions will be read from PARM file!
Info: SCNB (VDW SCALING)     2
Info: USING ARITHMETIC MEAN TO COMBINE L-J SIGMA PARAMETERS
Info: BINARY COORDINATES     mobley_7532833_min.coor
Info: SUMMARY OF PARAMETERS:
Info: 5 BONDS
Info: 3 ANGLES
Info:   3 HARMONIC
Info:   0 COSINE-BASED
Info: 1 DIHEDRAL
Info: 0 IMPROPER
Info: 0 CROSSTERM
Info: 0 VDW
Info: 21 VDW_PAIRS
Info: 0 NBTHOLE_PAIRS
Info: STRUCTURE SUMMARY:
Info: 2946 ATOMS
Info: 2945 BONDS
Info: 7 ANGLES
Info: 3 DIHEDRALS
Info: 0 IMPROPERS
Info: 0 CROSSTERMS
Info: 2955 EXCLUSIONS
Info: 2943 RIGID BONDS
Info: 5895 DEGREES OF FREEDOM
Info: 983 HYDROGEN GROUPS
Info: 4 ATOMS IN LARGEST HYDROGEN GROUP
Info: 983 MIGRATION GROUPS
Info: 4 ATOMS IN LARGEST MIGRATION GROUP
Info: TOTAL MASS = 17696.7 amu
Info: TOTAL CHARGE = 0.000100002 e
Info: MASS DENSITY = 0.661007 g/cm^3
Info: ATOM DENSITY = 0.0662653 atoms/A^3
Info: ADDED 0 IMPLICIT EXCLUSIONS
Info: NONBONDED TABLE R-SQUARED SPACING: 0.0625
Info: NONBONDED TABLE SIZE: 705 POINTS
Info: REMOVING COM VELOCITY 0.0689272 0.0836011 0.00147736
TCL: Running for 100000 steps
ETITLE: TS BOND ANGLE DIHED IMPRP ELECT VDW BOUNDARY MISC KINETIC TOTAL TEMP POTENTIAL TOTAL3 TEMPAVG PRESSURE GPRESSURE VOLUME PRESSAVG GPRESSAVG
ENERGY: 0 0.0030 0.0607 0.0000 0.0000 -13674.7959 2442.6207 0.0000 0.0000 1720.5860 -9511.5255 293.7534 -11232.1115 -9511.1672 293.7534 632.0220 663.3725 44457.6536 632.0220 663.3725
ENERGY: 100000 0.0612 0.2760 0.0000 0.0000 -14258.0788 2503.8969 0.0000 0.0000 180.1578 -11573.6868 30.7581 -11753.8446 -11573.2372 30.9494 33.8628 81.0632 29416.9569 4.0606 4.0357
TCL: Running 100000 steps at 60 kelvin.
TCL: Setting parameter langevinTemp to 60
TCL: Running for 100000 steps
ETITLE: TS BOND ANGLE DIHED IMPRP ELECT VDW BOUNDARY MISC KINETIC TOTAL TEMP POTENTIAL TOTAL3 TEMPAVG PRESSURE GPRESSURE VOLUME PRESSAVG GPRESSAVG
ENERGY: 100000 0.0612 0.2760 0.0000 0.0000 -14258.0788 2503.8969 0.0000 0.0000 180.0727 -11573.7719 30.7436 -11753.8446 -11573.4573 30.7436 22.9604 81.0318 29416.9569 22.9604 81.0318
ENERGY: 200000 0.5921 0.4787 0.0000 0.0000 -14220.8677 2497.8623 0.0000 0.0000 343.5617 -11378.3729 58.6559 -11721.9346 -11377.7396 59.9603 249.3482 304.2277 28833.6979 4.0221 4.0613
TCL: Running 100000 steps at 90 kelvin.
TCL: Setting parameter langevinTemp to 90
TCL: Running for 100000 steps
ETITLE: TS BOND ANGLE DIHED IMPRP ELECT VDW BOUNDARY MISC KINETIC TOTAL TEMP POTENTIAL TOTAL3 TEMPAVG PRESSURE GPRESSURE VOLUME PRESSAVG GPRESSAVG
ENERGY: 200000 0.5921 0.4787 0.0000 0.0000 -14220.8677 2497.8623 0.0000 0.0000 343.3898 -11378.5448 58.6265 -11721.9346 -11377.9428 58.6265 245.3052 304.3114 28833.6979 245.3052 304.3114
ENERGY: 300000 0.0718 1.0389 0.0000 0.0000 -13922.5949 2346.5486 0.0000 0.0000 514.0282 -11060.9073 87.7594 -11574.9356 -11060.2827 89.8241 -495.0213 -449.2311 29143.0352 4.3080 4.1708
TCL: Running 100000 steps at 120 kelvin.
TCL: Setting parameter langevinTemp to 120
TCL: Running for 100000 steps
ETITLE: TS BOND ANGLE DIHED IMPRP ELECT VDW BOUNDARY MISC KINETIC TOTAL TEMP POTENTIAL TOTAL3 TEMPAVG PRESSURE GPRESSURE VOLUME PRESSAVG GPRESSAVG
ENERGY: 300000 0.0718 1.0389 0.0000 0.0000 -13922.5949 2346.5486 0.0000 0.0000 513.7640 -11061.1716 87.7143 -11574.9356 -11060.1683 87.7143 -491.8769 -449.9944 29143.0352 -491.8769 -449.9944
ENERGY: 400000 0.1785 0.5504 0.0000 0.0000 -13787.3758 2312.7352 0.0000 0.0000 697.9043 -10776.0074 119.1523 -11473.9117 -10774.9630 119.9170 -231.0493 -186.9129 28881.9034 3.2967 3.1525
TCL: Running 100000 steps at 150 kelvin.
TCL: Setting parameter langevinTemp to 150
TCL: Running for 100000 steps
ETITLE: TS BOND ANGLE DIHED IMPRP ELECT VDW BOUNDARY MISC KINETIC TOTAL TEMP POTENTIAL TOTAL3 TEMPAVG PRESSURE GPRESSURE VOLUME PRESSAVG GPRESSAVG
ENERGY: 400000 0.1785 0.5504 0.0000 0.0000 -13787.3758 2312.7352 0.0000 0.0000 697.5542 -10776.3574 119.0925 -11473.9117 -10774.6494 119.0925 -234.4408 -187.7103 28881.9034 -234.4408 -187.7103
ENERGY: 500000 0.3340 0.5737 0.0000 0.0000 -13690.9500 2398.5885 0.0000 0.0000 866.5127 -10424.9411 147.9386 -11291.4538 -10423.0779 150.0676 1282.6385 1379.3426 28556.1992 3.4828 3.5444
TCL: Running 100000 steps at 180 kelvin.
TCL: Setting parameter langevinTemp to 180
TCL: Running for 100000 steps
ETITLE: TS BOND ANGLE DIHED IMPRP ELECT VDW BOUNDARY MISC KINETIC TOTAL TEMP POTENTIAL TOTAL3 TEMPAVG PRESSURE GPRESSURE VOLUME PRESSAVG GPRESSAVG
ENERGY: 500000 0.3340 0.5737 0.0000 0.0000 -13690.9500 2398.5885 0.0000 0.0000 866.0758 -10425.3780 147.8640 -11291.4538 -10423.9500 147.8640 1326.1713 1379.2612 28556.1992 1326.1713 1379.2612
ENERGY: 600000 0.0730 1.4281 0.0000 0.0000 -13196.8510 2182.7888 0.0000 0.0000 1051.9489 -9960.6122 179.5979 -11012.5611 -9958.1472 180.4182 444.1881 514.7144 28804.6469 3.2480 3.1929
TCL: Running 100000 steps at 210 kelvin.
TCL: Setting parameter langevinTemp to 210
TCL: Running for 100000 steps
ETITLE: TS BOND ANGLE DIHED IMPRP ELECT VDW BOUNDARY MISC KINETIC TOTAL TEMP POTENTIAL TOTAL3 TEMPAVG PRESSURE GPRESSURE VOLUME PRESSAVG GPRESSAVG
ENERGY: 600000 0.0730 1.4281 0.0000 0.0000 -13196.8510 2182.7888 0.0000 0.0000 1051.4217 -9961.1394 179.5079 -11012.5611 -9959.5665 179.5079 467.2193 515.2043 28804.6469 467.2193 515.2043
ENERGY: 700000 0.1161 0.6542 0.0000 0.0000 -12325.9279 1831.0574 0.0000 0.0000 1233.5355 -9260.5647 210.5999 -10494.1002 -9258.5154 209.5840 -581.0496 -549.6626 28967.4724 2.6784 2.6159
TCL: Running 100000 steps at 240 kelvin.
TCL: Setting parameter langevinTemp to 240
TCL: Running for 100000 steps
ETITLE: TS BOND ANGLE DIHED IMPRP ELECT VDW BOUNDARY MISC KINETIC TOTAL TEMP POTENTIAL TOTAL3 TEMPAVG PRESSURE GPRESSURE VOLUME PRESSAVG GPRESSAVG
ENERGY: 700000 0.1161 0.6542 0.0000 0.0000 -12325.9279 1831.0574 0.0000 0.0000 1232.9317 -9261.1685 210.4968 -10494.1002 -9258.8917 210.4968 -632.5522 -550.4149 28967.4724 -632.5522 -550.4149
ENERGY: 800000 0.1957 2.6736 0.0000 0.0000 -11742.3435 1693.4947 0.0000 0.0000 1419.4288 -8626.5506 242.3373 -10045.9795 -8624.1652 239.9085 -212.0605 -114.9501 29246.9220 3.0414 3.0423
TCL: Running 100000 steps at 270 kelvin.
TCL: Setting parameter langevinTemp to 270
TCL: Running for 100000 steps
ETITLE: TS BOND ANGLE DIHED IMPRP ELECT VDW BOUNDARY MISC KINETIC TOTAL TEMP POTENTIAL TOTAL3 TEMPAVG PRESSURE GPRESSURE VOLUME PRESSAVG GPRESSAVG
ENERGY: 800000 0.1957 2.6736 0.0000 0.0000 -11742.3435 1693.4947 0.0000 0.0000 1418.7136 -8627.2659 242.2151 -10045.9795 -8624.7096 242.2151 -200.9175 -117.7001 29246.9220 -200.9175 -117.7001
ENERGY: 900000 0.4069 1.9436 0.0000 0.0000 -11361.9265 1665.9793 0.0000 0.0000 1563.3572 -8130.2395 266.9100 -9693.5967 -8129.2765 268.9998 660.4520 779.5376 29616.9083 3.4020 3.4512
TCL: Running 1000000 steps at 300 kelvin.
TCL: Setting parameter langevinTemp to 300
TCL: Running for 1000000 steps
ETITLE: TS BOND ANGLE DIHED IMPRP ELECT VDW BOUNDARY MISC KINETIC TOTAL TEMP POTENTIAL TOTAL3 TEMPAVG PRESSURE GPRESSURE VOLUME PRESSAVG GPRESSAVG
ENERGY: 900000 0.4069 1.9436 0.0000 0.0000 -11361.9265 1665.9793 0.0000 0.0000 1562.5634 -8131.0333 266.7744 -9693.5967 -8129.2072 266.7744 694.3086 777.0926 29616.9083 694.3086 777.0926
ENERGY: 1100000 0.0966 3.9607 0.0000 0.0000 -10683.1681 1388.4869 0.0000 0.0000 1737.1216 -7553.5024 296.5765 -9290.6240 -7549.8707 300.5445 -579.7313 -468.2754 30553.1012 1.7845 1.5944
ENERGY: 1300000 0.1781 3.2735 0.0000 0.0000 -10703.0123 1468.7843 0.0000 0.0000 1755.2436 -7475.5327 299.6705 -9230.7763 -7472.8584 299.9570 500.0965 599.2090 29983.6587 3.3229 3.3831
ENERGY: 1500000 1.5709 4.4045 0.0000 0.0000 -10585.6069 1396.1798 0.0000 0.0000 1738.6645 -7444.7872 296.8400 -9183.4517 -7439.7669 300.2083 -317.1662 -212.5750 30672.3226 3.5318 3.5658
ENERGY: 1700000 1.3689 0.9027 0.0000 0.0000 -10761.9849 1427.1954 0.0000 0.0000 1794.0970 -7538.4210 306.3039 -9332.5181 -7536.4238 300.2975 11.0506 133.3571 29831.9430 3.7539 3.5789
ENERGY: 1900000 0.0033 0.3265 0.0000 0.0000 -10689.0791 1435.7956 0.0000 0.0000 1818.5815 -7434.3723 310.4841 -9252.9538 -7431.1010 300.5870 141.7826 209.0063 30037.5208 3.3992 3.6487
TCL: Exiting due to exit command.
