Info: SIMULATION PARAMETERS:
Info: TIMESTEP               2
Info: NUMBER OF STEPS        0
Info: STEPS PER CYCLE        10
Info: PERIODIC CELL BASIS 1  38.861 0 0
Info: PERIODIC CELL BASIS 2  0 40.343 0
Info: PERIODIC CELL BASIS 3  0 0 38.617
Info: PERIODIC CELL CENTER   0 0 0
Info: WRAPPING WATERS AROUND PERIODIC BOUNDARIES ON OUTPUT.
Info: WRAPPING ALL CLUSTERS AROUND PERIODIC BOUNDARIES ON OUTPUT.
Info: FIRST LDB TIMESTEP     50
Info: LAST LDB TIMESTEP     -1
Info: HOM BACKGROUND SCALING 1
Info: PME BACKGROUND SCALING 1
Info: MIN ATOMS PER PATCH    40
Info: EMPTY PATCH LOAD       40 ATOMS
Info: INITIAL TEMPERATURE    300
Info: CENTER OF MASS MOVING INITIALLY? NO
Info: DIELECTRIC             1
Info: EXCLUDE                SCALED ONE-FOUR
Info: 1-4 ELECTROSTATICS SCALED BY 0.833333
Info: MODIFIED 1-4 VDW PARAMETERS WILL BE USED
Info: DCD FILENAME           mobley_7099614_min.dcd
Info: DCD FREQUENCY          5000
Info: DCD FIRST STEP         5000
Info: DCD FILE WILL CONTAIN UNIT CELL DATA
Info: XST FILENAME           mobley_7099614_min.xst
Info: XST FREQUENCY          5000
Info: NO VELOCITY DCD OUTPUT
Info: NO FORCE DCD OUTPUT
Info: OUTPUT FILENAME        mobley_7099614_min
Info: BINARY OUTPUT FILES WILL BE USED
Info: RESTART FILENAME       mobley_7099614_min.restart
Info: RESTART FREQUENCY      5000
Info: BINARY RESTART FILES WILL BE USED
Info: CUTOFF                 9
Info: PAIRLIST DISTANCE      11
Info: PAIRLIST SHRINK RATE   0.01
Info: PAIRLIST GROW RATE     0.01
Info: PAIRLIST TRIGGER       0.3
Info: PAIRLISTS PER CYCLE    2
Info: PAIRLISTS ENABLED
Info: MARGIN                 8
Info: HYDROGEN GROUP CUTOFF  2.5
Info: PATCH DIMENSION        21.5
Info: ENERGY OUTPUT STEPS    5000
Info: ENERGY EVALUATION STEPS    5000
Info: OUTPUT ENERGY PRECISION 4
Info: CROSSTERM ENERGY INCLUDED IN DIHEDRAL
Info: TIMING OUTPUT STEPS    50000
Info: PRESSURE OUTPUT STEPS  5000
Info: LANGEVIN DYNAMICS ACTIVE
Info: LANGEVIN TEMPERATURE   300
Info: LANGEVIN USING BBK INTEGRATOR
Info: LANGEVIN DAMPING COEFFICIENT IS 1 INVERSE PS
Info: LANGEVIN DYNAMICS APPLIED TO HYDROGENS
Info: LANGEVIN PISTON PRESSURE CONTROL ACTIVE
Info:        TARGET PRESSURE IS 1.01325 BAR
Info:     OSCILLATION PERIOD IS 50 FS
Info:             DECAY TIME IS 25 FS
Info:     PISTON TEMPERATURE IS 300 K
Info:       PRESSURE CONTROL IS GROUP-BASED
Info:    INITIAL STRAIN RATE IS 0 0 0
Info:       CELL FLUCTUATION IS ISOTROPIC
Info: PARTICLE MESH EWALD (PME) ACTIVE
Info: PME TOLERANCE               1e-06
Info: PME EWALD COEFFICIENT       0.348832
Info: PME INTERPOLATION ORDER     4
Info: PME GRID DIMENSIONS         40 44 40
Info: PME MAXIMUM GRID SPACING    1
Info: FULL ELECTROSTATIC EVALUATION FREQUENCY      2
Info: USING VERLET I (r-RESPA) MTS SCHEME.
Info: C1 SPLITTING OF LONG RANGE ELECTROSTATICS
Info: PLACING ATOMS IN PATCHES BY HYDROGEN GROUPS
Info: RIGID BONDS TO HYDROGEN : ALL
Info:         ERROR TOLERANCE : 1e-08
Info:          MAX ITERATIONS : 100
Info: RIGID WATER USING SETTLE ALGORITHM
Info: RANDOM NUMBER SEED     1741386695
Info: USE HYDROGEN BONDS?    NO
Info: Using AMBER format force field!
Info: AMBER PARM FILE        mobley_7099614.prmtop
Info: COORDINATE PDB         mobley_7099614.pdb
Info: Exclusions will be read from PARM file!
Info: SCNB (VDW SCALING)     2
Info: USING ARITHMETIC MEAN TO COMBINE L-J SIGMA PARAMETERS
Info: SUMMARY OF PARAMETERS:
Info: 7 BONDS
Info: 8 ANGLES
Info:   8 HARMONIC
Info:   0 COSINE-BASED
Info: 2 DIHEDRAL
Info: 0 IMPROPER
Info: 0 CROSSTERM
Info: 0 VDW
Info: 28 VDW_PAIRS
Info: 0 NBTHOLE_PAIRS
Info: STRUCTURE SUMMARY:
Info: 4356 ATOMS
Info: 4355 BONDS
Info: 12 ANGLES
Info: 10 DIHEDRALS
Info: 0 IMPROPERS
Info: 0 CROSSTERMS
Info: 4377 EXCLUSIONS
Info: 4352 RIGID BONDS
Info: 8716 DEGREES OF FREEDOM
Info: 1453 HYDROGEN GROUPS
Info: 3 ATOMS IN LARGEST HYDROGEN GROUP
Info: 1453 MIGRATION GROUPS
Info: 3 ATOMS IN LARGEST MIGRATION GROUP
Info: TOTAL MASS = 26181.7 amu
Info: TOTAL CHARGE = -7.45058e-09 e
Info: MASS DENSITY = 0.718119 g/cm^3
Info: ATOM DENSITY = 0.0719494 atoms/A^3
Info: ADDED 0 IMPLICIT EXCLUSIONS
Info: NONBONDED TABLE R-SQUARED SPACING: 0.0625
Info: NONBONDED TABLE SIZE: 705 POINTS
Info: REMOVING COM VELOCITY -0.00967937 0.0974568 -0.147148
TCL: Minimizing for 2000 steps
ETITLE: TS BOND ANGLE DIHED IMPRP ELECT VDW BOUNDARY MISC KINETIC TOTAL TEMP POTENTIAL TOTAL3 TEMPAVG PRESSURE GPRESSURE VOLUME PRESSAVG GPRESSAVG
ENERGY: 0 0.2559 0.3151 0.0038 0.0000 -13454.8092 1510.2482 0.0000 0.0000 0.0000 -11943.9862 0.0000 -11943.9862 -11943.9862 0.0000 10837.0547 -15679.9274 60542.5479 10837.0547 -15679.9274
ENERGY: 400 2.4185 1.3194 0.0995 0.0000 -18109.1137 2567.6950 0.0000 0.0000 0.0000 -15537.5815 0.0000 -15537.5815 -15537.5815 0.0000 15244.0268 15023.6880 60542.5479 15244.0268 15023.6880
ENERGY: 800 0.5999 0.3669 0.3228 0.0000 -19227.2283 3127.0942 0.0000 0.0000 0.0000 -16098.8446 0.0000 -16098.8446 -16098.8446 0.0000 18125.0083 17903.8047 60542.5479 18125.0083 17903.8047
ENERGY: 1200 0.2950 0.3366 0.0033 0.0000 -19702.7635 3349.7028 0.0000 0.0000 0.0000 -16352.4259 0.0000 -16352.4259 -16352.4259 0.0000 19410.2920 19043.6955 60542.5479 19410.2920 19043.6955
ENERGY: 1600 0.2391 0.1250 0.0134 0.0000 -19904.0410 3414.6723 0.0000 0.0000 0.0000 -16488.9912 0.0000 -16488.9912 -16488.9912 0.0000 19750.8929 19511.7302 60542.5479 19750.8929 19511.7302
ENERGY: 2000 0.1297 0.1728 0.0110 0.0000 -20033.7505 3463.9540 0.0000 0.0000 0.0000 -16569.4830 0.0000 -16569.4830 -16569.4830 0.0000 20040.3436 19786.2462 60542.5479 20040.3436 19786.2462
TCL: Exiting due to exit command.
Info: NAMD 3.0.1 for Linux-x86_64-multicore
Info: Please visit http://www.ks.uiuc.edu/Research/namd/
Info: for updates, documentation, and support information.
Info: Please cite Phillips et al., J. Chem. Phys. 153:044130 (2020) doi:10.1063/5.0014475
Info: in all publications reporting results obtained with NAMD.
Info: Based on Charm++/Converse 80000 for multicore-linux-x86_64-gcc
Info: Built Mon Oct 14 11:11:06 CDT 2024 by dhardy on athine.ks.uiuc.edu
Info: 1 NAMD  3.0.1  Linux-x86_64-multicore  16    k011  z5358697
Info: Running on 16 processors, 1 nodes, 1 physical nodes.
Info: CPU topology information available.
Info: Charm++/Converse parallel runtime startup completed at 0.00939224 s
Info: 1043.45 MB of memory in use based on /proc/self/stat
Info: Configuration file is mobley_7099614_equil.namd
Info: Working in the current directory /srv/scratch/z5358697/prod_prep_9/7099614
TCL: Running 25000 steps at 30 kelvin.
TCL: Suspending until startup complete.
Info: SIMULATION PARAMETERS:
Info: TIMESTEP               2
Info: NUMBER OF STEPS        0
Info: STEPS PER CYCLE        10
Info: PERIODIC CELL BASIS 1  38.861 0 0
Info: PERIODIC CELL BASIS 2  0 40.343 0
Info: PERIODIC CELL BASIS 3  0 0 38.617
Info: PERIODIC CELL CENTER   0 0 0
Info: WRAPPING WATERS AROUND PERIODIC BOUNDARIES ON OUTPUT.
Info: WRAPPING ALL CLUSTERS AROUND PERIODIC BOUNDARIES ON OUTPUT.
Info: FIRST LDB TIMESTEP     50
Info: LAST LDB TIMESTEP     -1
Info: HOM BACKGROUND SCALING 1
Info: PME BACKGROUND SCALING 1
Info: MIN ATOMS PER PATCH    40
Info: EMPTY PATCH LOAD       40 ATOMS
Info: INITIAL TEMPERATURE    300
Info: CENTER OF MASS MOVING INITIALLY? NO
Info: DIELECTRIC             1
Info: EXCLUDE                SCALED ONE-FOUR
Info: 1-4 ELECTROSTATICS SCALED BY 0.833333
Info: MODIFIED 1-4 VDW PARAMETERS WILL BE USED
Info: DCD FILENAME           mobley_7099614_equil.dcd
Info: DCD FREQUENCY          5000
Info: DCD FIRST STEP         5000
Info: DCD FILE WILL CONTAIN UNIT CELL DATA
Info: XST FILENAME           mobley_7099614_equil.xst
Info: XST FREQUENCY          5000
Info: NO VELOCITY DCD OUTPUT
Info: NO FORCE DCD OUTPUT
Info: OUTPUT FILENAME        mobley_7099614_equil
Info: BINARY OUTPUT FILES WILL BE USED
Info: RESTART FILENAME       mobley_7099614_equil.restart
Info: RESTART FREQUENCY      5000
Info: BINARY RESTART FILES WILL BE USED
Info: CUTOFF                 9
Info: PAIRLIST DISTANCE      11
Info: PAIRLIST SHRINK RATE   0.01
Info: PAIRLIST GROW RATE     0.01
Info: PAIRLIST TRIGGER       0.3
Info: PAIRLISTS PER CYCLE    2
Info: PAIRLISTS ENABLED
Info: MARGIN                 8
Info: HYDROGEN GROUP CUTOFF  2.5
Info: PATCH DIMENSION        21.5
Info: ENERGY OUTPUT STEPS    5000
Info: ENERGY EVALUATION STEPS    5000
Info: OUTPUT ENERGY PRECISION 4
Info: CROSSTERM ENERGY INCLUDED IN DIHEDRAL
Info: TIMING OUTPUT STEPS    50000
Info: PRESSURE OUTPUT STEPS  5000
Info: LANGEVIN DYNAMICS ACTIVE
Info: LANGEVIN TEMPERATURE   30
Info: LANGEVIN USING BBK INTEGRATOR
Info: LANGEVIN DAMPING COEFFICIENT IS 1 INVERSE PS
Info: LANGEVIN DYNAMICS APPLIED TO HYDROGENS
Info: LANGEVIN PISTON PRESSURE CONTROL ACTIVE
Info:        TARGET PRESSURE IS 1.01325 BAR
Info:     OSCILLATION PERIOD IS 50 FS
Info:             DECAY TIME IS 25 FS
Info:     PISTON TEMPERATURE IS 300 K
Info:       PRESSURE CONTROL IS GROUP-BASED
Info:    INITIAL STRAIN RATE IS 0 0 0
Info:       CELL FLUCTUATION IS ISOTROPIC
Info: PARTICLE MESH EWALD (PME) ACTIVE
Info: PME TOLERANCE               1e-06
Info: PME EWALD COEFFICIENT       0.348832
Info: PME INTERPOLATION ORDER     4
Info: PME GRID DIMENSIONS         40 44 40
Info: PME MAXIMUM GRID SPACING    1
Info: FULL ELECTROSTATIC EVALUATION FREQUENCY      2
Info: USING VERLET I (r-RESPA) MTS SCHEME.
Info: C1 SPLITTING OF LONG RANGE ELECTROSTATICS
Info: PLACING ATOMS IN PATCHES BY HYDROGEN GROUPS
Info: RIGID BONDS TO HYDROGEN : ALL
Info:         ERROR TOLERANCE : 1e-08
Info:          MAX ITERATIONS : 100
Info: RIGID WATER USING SETTLE ALGORITHM
Info: RANDOM NUMBER SEED     1741386715
Info: USE HYDROGEN BONDS?    NO
Info: Using AMBER format force field!
Info: AMBER PARM FILE        mobley_7099614.prmtop
Info: COORDINATE PDB         mobley_7099614.pdb
Info: Exclusions will be read from PARM file!
Info: SCNB (VDW SCALING)     2
Info: USING ARITHMETIC MEAN TO COMBINE L-J SIGMA PARAMETERS
Info: BINARY COORDINATES     mobley_7099614_min.coor
Info: SUMMARY OF PARAMETERS:
Info: 7 BONDS
Info: 8 ANGLES
Info: 2 DIHEDRAL
Info: 0 IMPROPER
Info: 0 CROSSTERM
Info: 0 VDW
Info: 28 VDW_PAIRS
Info: 0 NBTHOLE_PAIRS
Info: STRUCTURE SUMMARY:
Info: 4356 ATOMS
Info: 4355 BONDS
Info: 12 ANGLES
Info: 10 DIHEDRALS
Info: 0 IMPROPERS
Info: 0 CROSSTERMS
Info: 4377 EXCLUSIONS
Info: 4352 RIGID BONDS
Info: 8716 DEGREES OF FREEDOM
Info: 1453 HYDROGEN GROUPS
Info: 3 ATOMS IN LARGEST HYDROGEN GROUP
Info: 1453 MIGRATION GROUPS
Info: 3 ATOMS IN LARGEST MIGRATION GROUP
Info: TOTAL MASS = 26181.7 amu
Info: TOTAL CHARGE = -7.45058e-09 e
Info: MASS DENSITY = 0.718119 g/cm^3
Info: ATOM DENSITY = 0.0719494 atoms/A^3
Info: ADDED 0 IMPLICIT EXCLUSIONS
Info: NONBONDED TABLE R-SQUARED SPACING: 0.0625
Info: NONBONDED TABLE SIZE: 705 POINTS
Info: REMOVING COM VELOCITY 0.0918315 -0.213491 0.12275
TCL: Running for 25000 steps
ETITLE: TS BOND ANGLE DIHED IMPRP ELECT VDW BOUNDARY MISC KINETIC TOTAL TEMP POTENTIAL TOTAL3 TEMPAVG PRESSURE GPRESSURE VOLUME PRESSAVG GPRESSAVG
ENERGY: 0 0.1297 0.1728 0.0110 0.0000 -20033.7505 3463.9540 0.0000 0.0000 2661.8370 -13907.6461 307.3651 -16569.4830 -13907.1163 307.3651 248.4264 282.0663 60542.5479 248.4264 282.0663
ENERGY: 5000 0.2445 0.3590 0.0949 0.0000 -20976.4676 3641.3792 0.0000 0.0000 267.4003 -17066.9897 30.8770 -17334.3900 -17066.1674 47.9577 -33.9131 21.9820 42132.5762 -4.0520 -4.1322
ENERGY: 10000 0.1880 0.4704 0.0793 0.0000 -21026.0999 3666.7427 0.0000 0.0000 260.5090 -17098.1104 30.0813 -17358.6194 -17097.1150 30.3601 38.4593 106.9134 42035.5081 5.6955 5.6757
ENERGY: 15000 0.0159 0.4156 0.1040 0.0000 -21134.0443 3769.0956 0.0000 0.0000 255.0937 -17109.3195 29.4559 -17364.4132 -17108.6096 30.2758 643.5753 726.5838 41872.7857 3.9867 3.9161
ENERGY: 20000 0.1524 0.4499 0.1483 0.0000 -20977.8388 3594.7183 0.0000 0.0000 259.5201 -17122.8498 29.9671 -17382.3699 -17122.2042 29.8623 -442.1002 -377.7950 42069.2773 -1.6262 -2.1876
ENERGY: 25000 0.0402 0.4078 0.0345 0.0000 -21017.5659 3624.4943 0.0000 0.0000 265.4060 -17127.1831 30.6467 -17392.5892 -17126.3004 30.3213 -179.3999 -114.9199 41876.4342 2.3820 2.3606
TCL: Running 25000 steps at 60 kelvin.
TCL: Setting parameter langevinTemp to 60
TCL: Running for 25000 steps
ETITLE: TS BOND ANGLE DIHED IMPRP ELECT VDW BOUNDARY MISC KINETIC TOTAL TEMP POTENTIAL TOTAL3 TEMPAVG PRESSURE GPRESSURE VOLUME PRESSAVG GPRESSAVG
ENERGY: 25000 0.0402 0.4078 0.0345 0.0000 -21017.5659 3624.4943 0.0000 0.0000 265.2816 -17127.3076 30.6323 -17392.5892 -17126.6942 30.6323 -175.9102 -114.9181 41876.4342 -175.9102 -114.9181
ENERGY: 30000 0.2886 0.5532 0.6201 0.0000 -20612.0854 3471.6242 0.0000 0.0000 529.7510 -16609.2483 61.1709 -17138.9993 -16607.5951 56.7869 -447.2618 -369.3185 42235.1632 4.9381 4.7136
ENERGY: 35000 0.2192 1.0975 0.1287 0.0000 -20547.3670 3365.2727 0.0000 0.0000 520.4757 -16660.1731 60.0999 -17180.6489 -16659.1517 60.2429 -1120.1609 -1059.4369 42356.3502 -0.6350 -0.7811
ENERGY: 40000 0.0186 0.6674 0.1370 0.0000 -20718.0690 3513.5620 0.0000 0.0000 533.4471 -16670.2369 61.5977 -17203.6840 -16668.7080 60.2214 -305.6495 -250.2606 42204.7800 6.5812 6.2095
ENERGY: 45000 0.6239 0.6977 0.0605 0.0000 -20952.0787 3726.1923 0.0000 0.0000 520.7943 -16703.7100 60.1367 -17224.5043 -16702.4141 60.0618 975.8765 995.5430 41721.6082 7.1797 7.3202
ENERGY: 50000 0.0726 2.2833 0.3392 0.0000 -20925.2506 3684.2673 0.0000 0.0000 523.3306 -16714.9576 60.4295 -17238.2881 -16713.6279 60.1286 586.4332 658.4722 41856.2485 -0.9507 -0.9564
TCL: Running 25000 steps at 90 kelvin.
TCL: Setting parameter langevinTemp to 90
TCL: Running for 25000 steps
ETITLE: TS BOND ANGLE DIHED IMPRP ELECT VDW BOUNDARY MISC KINETIC TOTAL TEMP POTENTIAL TOTAL3 TEMPAVG PRESSURE GPRESSURE VOLUME PRESSAVG GPRESSAVG
ENERGY: 50000 0.0726 2.2833 0.3392 0.0000 -20925.2506 3684.2673 0.0000 0.0000 523.0697 -16715.2185 60.3994 -17238.2881 -16713.9077 60.3994 595.6921 658.0513 41856.2485 595.6921 658.0513
ENERGY: 55000 0.0555 0.8062 0.6655 0.0000 -20448.9837 3496.3344 0.0000 0.0000 776.5157 -16174.6065 89.6651 -16951.1222 -16172.3641 86.8042 270.7921 319.3102 42248.0247 8.1255 7.8878
ENERGY: 60000 0.1886 1.3859 0.1574 0.0000 -20397.8929 3433.1571 0.0000 0.0000 767.6495 -16195.3543 88.6413 -16963.0038 -16193.6068 90.3965 -244.7028 -200.3927 42587.8433 1.3523 1.0559
ENERGY: 65000 0.0449 0.2802 0.6905 0.0000 -20583.1351 3542.5806 0.0000 0.0000 797.5893 -16241.9496 92.0985 -17039.5389 -16240.0039 90.4927 259.0404 338.2864 42357.2820 0.5646 0.2019
ENERGY: 70000 0.0448 0.5738 0.1448 0.0000 -20453.9596 3400.0327 0.0000 0.0000 792.2156 -16260.9480 91.4780 -17053.1636 -16259.0867 90.6881 -637.6494 -582.0868 42664.3496 4.4323 4.4116
ENERGY: 75000 0.2397 0.6945 0.6356 0.0000 -20642.4159 3573.7984 0.0000 0.0000 786.6846 -16280.3631 90.8393 -17067.0477 -16279.5460 89.2915 412.1482 439.2434 42370.0212 4.0149 4.1610
TCL: Running 25000 steps at 120 kelvin.
TCL: Setting parameter langevinTemp to 120
TCL: Running for 25000 steps
ETITLE: TS BOND ANGLE DIHED IMPRP ELECT VDW BOUNDARY MISC KINETIC TOTAL TEMP POTENTIAL TOTAL3 TEMPAVG PRESSURE GPRESSURE VOLUME PRESSAVG GPRESSAVG
ENERGY: 75000 0.2397 0.6945 0.6356 0.0000 -20642.4159 3573.7984 0.0000 0.0000 786.2856 -16280.7620 90.7932 -17067.0477 -16279.3491 90.7932 390.5798 439.1888 42370.0212 390.5798 439.1888
ENERGY: 80000 0.5112 0.4185 0.1688 0.0000 -20010.2465 3248.1324 0.0000 0.0000 1047.1667 -15713.8488 120.9174 -16761.0155 -15711.1029 116.3639 -718.5653 -696.9919 42887.1502 1.2973 1.6008
ENERGY: 85000 0.4215 0.8443 0.5508 0.0000 -20148.9342 3384.7920 0.0000 0.0000 1029.1672 -15733.1585 118.8390 -16762.3257 -15730.9253 119.4629 33.1382 109.0434 42490.8667 5.5734 5.6114
ENERGY: 90000 0.1079 1.2084 0.6190 0.0000 -20161.1223 3363.2630 0.0000 0.0000 1044.0581 -15751.8659 120.5585 -16795.9240 -15748.3165 120.1069 -33.5848 22.5758 42280.6380 4.6455 4.6791
ENERGY: 95000 0.1787 1.6167 0.1155 0.0000 -20259.3215 3465.8144 0.0000 0.0000 1030.4437 -15761.1526 118.9864 -16791.5962 -15758.4323 120.6306 566.3936 616.2336 42168.7612 0.3293 0.7489
ENERGY: 100000 0.6689 1.2142 0.6609 0.0000 -20165.1994 3316.1258 0.0000 0.0000 1058.4928 -15788.0369 122.2253 -16846.5296 -15785.4310 119.1938 -351.8309 -341.3859 42273.4560 -1.7195 -1.4204
TCL: Running 25000 steps at 150 kelvin.
TCL: Setting parameter langevinTemp to 150
TCL: Running for 25000 steps
ETITLE: TS BOND ANGLE DIHED IMPRP ELECT VDW BOUNDARY MISC KINETIC TOTAL TEMP POTENTIAL TOTAL3 TEMPAVG PRESSURE GPRESSURE VOLUME PRESSAVG GPRESSAVG
ENERGY: 100000 0.6689 1.2142 0.6609 0.0000 -20165.1994 3316.1258 0.0000 0.0000 1057.9736 -15788.5560 122.1653 -16846.5296 -15786.0482 122.1653 -391.6701 -341.8231 42273.4560 -391.6701 -341.8231
ENERGY: 105000 0.3757 0.7862 0.1112 0.0000 -19780.7016 3275.5078 0.0000 0.0000 1318.1424 -15185.7782 152.2073 -16503.9206 -15184.0690 146.3805 146.8630 182.8099 42712.5254 7.7535 7.3295
ENERGY: 110000 0.0773 1.0743 0.2244 0.0000 -19866.4150 3312.5497 0.0000 0.0000 1296.9759 -15255.5135 149.7632 -16552.4893 -15252.8280 150.7077 290.7713 347.8737 42493.9792 -0.9865 -1.5925
ENERGY: 115000 0.0306 0.7113 0.1456 0.0000 -19760.2793 3219.1009 0.0000 0.0000 1285.7494 -15254.5415 148.4668 -16540.2909 -15252.1247 149.0375 -191.8712 -170.4645 42508.1986 3.4795 3.5541
ENERGY: 120000 0.2376 1.3079 0.1574 0.0000 -19765.8332 3184.8736 0.0000 0.0000 1297.6149 -15281.6418 149.8370 -16579.2567 -15278.1250 150.4361 -497.9788 -464.3617 42445.0174 0.5873 0.3999
ENERGY: 125000 0.2127 1.5925 1.5810 0.0000 -19927.7494 3310.8811 0.0000 0.0000 1291.7586 -15321.7234 149.1607 -16613.4820 -15318.3254 149.0470 167.8083 161.9784 42353.9874 6.3866 6.8602
TCL: Running 50000 steps at 180 kelvin.
TCL: Setting parameter langevinTemp to 180
TCL: Running for 50000 steps
ETITLE: TS BOND ANGLE DIHED IMPRP ELECT VDW BOUNDARY MISC KINETIC TOTAL TEMP POTENTIAL TOTAL3 TEMPAVG PRESSURE GPRESSURE VOLUME PRESSAVG GPRESSAVG
ENERGY: 125000 0.2127 1.5925 1.5810 0.0000 -19927.7494 3310.8811 0.0000 0.0000 1291.1128 -15322.3692 149.0862 -16613.4820 -15319.6726 149.0862 105.7488 162.8819 42353.9874 105.7488 162.8819
ENERGY: 135000 0.2011 2.8174 0.1873 0.0000 -19246.3463 3051.8906 0.0000 0.0000 1551.4374 -14639.8125 179.1461 -16191.2499 -14634.6843 180.4470 -324.2910 -255.2014 42537.6681 -1.8542 -1.9601
ENERGY: 145000 0.0419 0.5361 0.5396 0.0000 -19253.2770 3093.0499 0.0000 0.0000 1586.5452 -14572.5643 183.2001 -16159.1095 -14569.3850 181.7968 77.4689 172.5237 42362.4061 -0.2913 -0.7585
ENERGY: 155000 1.4433 1.4555 0.2637 0.0000 -19318.3033 3105.2744 0.0000 0.0000 1541.9749 -14667.8915 178.0535 -16209.8664 -14664.6081 179.5571 147.5302 200.6544 42159.9245 6.8349 7.3664
ENERGY: 165000 0.1492 1.3094 0.3203 0.0000 -19096.0844 2935.8648 0.0000 0.0000 1538.3801 -14620.0606 177.6384 -16158.4406 -14615.8633 179.3601 -924.7243 -836.1479 42696.8845 -0.0995 -0.0882
ENERGY: 175000 0.2029 2.5728 0.4925 0.0000 -19166.2560 3027.5457 0.0000 0.0000 1552.3204 -14583.1217 179.2481 -16135.4421 -14579.5198 182.0231 -410.2141 -340.5880 42743.9524 3.3082 2.9625
TCL: Running 50000 steps at 210 kelvin.
TCL: Setting parameter langevinTemp to 210
TCL: Running for 50000 steps
ETITLE: TS BOND ANGLE DIHED IMPRP ELECT VDW BOUNDARY MISC KINETIC TOTAL TEMP POTENTIAL TOTAL3 TEMPAVG PRESSURE GPRESSURE VOLUME PRESSAVG GPRESSAVG
ENERGY: 175000 0.2029 2.5728 0.4925 0.0000 -19166.2560 3027.5457 0.0000 0.0000 1551.5323 -14583.9098 179.1571 -16135.4421 -14581.0209 179.1571 -404.8408 -340.4657 42743.9524 -404.8408 -340.4657
ENERGY: 185000 0.0281 2.2843 0.5954 0.0000 -18309.6784 2788.2510 0.0000 0.0000 1840.9106 -13677.6091 212.5719 -15518.5196 -13674.0750 209.6578 40.9792 88.0423 42463.9571 4.4070 3.8577
ENERGY: 195000 0.6618 1.1569 0.7999 0.0000 -18322.4396 2774.3772 0.0000 0.0000 1853.0268 -13692.4170 213.9710 -15545.4438 -13686.8224 211.4530 -145.5204 -44.2433 42339.7617 0.9240 0.6263
ENERGY: 205000 0.3131 1.3797 0.7241 0.0000 -18325.2610 2744.0210 0.0000 0.0000 1813.9078 -13764.9153 209.4539 -15578.8231 -13760.7113 209.5670 -489.3028 -428.1408 42943.9296 5.5994 5.1291
ENERGY: 215000 0.2831 1.2986 0.4683 0.0000 -18479.7526 2915.6877 0.0000 0.0000 1797.7274 -13764.2874 207.5855 -15562.0147 -13761.7105 208.3989 386.9027 506.3829 42666.9432 2.6979 3.2799
ENERGY: 225000 0.1313 1.8155 0.8415 0.0000 -18344.4027 2833.5532 0.0000 0.0000 1837.0316 -13671.0297 212.1240 -15508.0613 -13668.3930 210.1980 108.9572 225.2651 42638.2170 5.4093 5.9081
TCL: Running 50000 steps at 240 kelvin.
TCL: Setting parameter langevinTemp to 240
TCL: Running for 50000 steps
ETITLE: TS BOND ANGLE DIHED IMPRP ELECT VDW BOUNDARY MISC KINETIC TOTAL TEMP POTENTIAL TOTAL3 TEMPAVG PRESSURE GPRESSURE VOLUME PRESSAVG GPRESSAVG
ENERGY: 225000 0.1313 1.8155 0.8415 0.0000 -18344.4027 2833.5532 0.0000 0.0000 1836.0852 -13671.9761 212.0147 -15508.0613 -13668.3609 212.0147 136.7908 224.3861 42638.2170 136.7908 224.3861
ENERGY: 235000 2.3518 2.7972 0.9633 0.0000 -17458.7091 2556.8709 0.0000 0.0000 2045.7815 -12849.9445 236.2286 -14895.7260 -12845.9482 239.3237 -97.5011 18.4862 43173.4340 2.7581 2.6594
ENERGY: 245000 0.1265 3.4734 0.7998 0.0000 -17497.2283 2536.7746 0.0000 0.0000 2135.8704 -12820.1836 246.6312 -14956.0540 -12812.7368 240.0037 -260.3604 -201.3566 43219.1153 5.4972 5.4113
ENERGY: 255000 1.0670 1.8752 1.0001 0.0000 -17205.7206 2363.4145 0.0000 0.0000 2132.9150 -12705.4487 246.2900 -14838.3637 -12699.7823 239.4596 -867.5830 -832.3927 43401.6220 2.1749 1.8814
ENERGY: 265000 1.3696 2.1686 0.5398 0.0000 -17410.2165 2542.8480 0.0000 0.0000 2046.7084 -12816.5822 236.3356 -14863.2906 -12810.7503 239.5758 -80.6073 16.0748 43176.4322 0.4048 0.1687
ENERGY: 275000 1.1086 2.8488 0.2137 0.0000 -17406.3689 2534.8628 0.0000 0.0000 2058.9847 -12808.3502 237.7532 -14867.3349 -12802.8672 241.0463 -54.2429 12.0308 43040.1911 3.0002 2.7143
TCL: Running 50000 steps at 270 kelvin.
TCL: Setting parameter langevinTemp to 270
TCL: Running for 50000 steps
ETITLE: TS BOND ANGLE DIHED IMPRP ELECT VDW BOUNDARY MISC KINETIC TOTAL TEMP POTENTIAL TOTAL3 TEMPAVG PRESSURE GPRESSURE VOLUME PRESSAVG GPRESSAVG
ENERGY: 275000 1.1086 2.8488 0.2137 0.0000 -17406.3689 2534.8628 0.0000 0.0000 2057.9786 -12809.3563 237.6370 -14867.3349 -12805.4508 237.6370 -56.4209 12.5346 43040.1911 -56.4209 12.5346
ENERGY: 285000 1.4138 1.3979 2.1734 0.0000 -16692.0006 2339.9716 0.0000 0.0000 2340.0363 -12007.0075 270.2065 -14347.0438 -12000.5070 269.2641 116.2512 174.9557 43556.8925 2.0187 1.6796
ENERGY: 295000 0.9418 1.2662 1.2158 0.0000 -16570.5591 2223.8920 0.0000 0.0000 2350.9888 -11992.2545 271.4712 -14343.2434 -11984.8811 269.9595 -771.1889 -649.0453 43753.4050 2.1870 1.8826
ENERGY: 305000 1.4461 5.1873 0.5958 0.0000 -16498.3069 2222.4780 0.0000 0.0000 2364.6525 -11903.9473 273.0489 -14268.5998 -11899.3597 269.5481 -600.6302 -552.3655 44186.2624 3.0229 3.2192
ENERGY: 315000 1.6582 2.3543 0.5415 0.0000 -16840.0035 2452.9883 0.0000 0.0000 2307.1197 -12075.3415 266.4056 -14382.4612 -12070.3928 269.6171 579.0105 622.4404 43425.7428 2.4748 2.2077
ENERGY: 325000 0.6277 3.3183 0.3252 0.0000 -16721.1678 2389.7274 0.0000 0.0000 2273.6435 -12053.5258 262.5400 -14327.1693 -12047.6262 270.4843 433.2246 504.1897 43276.4613 -0.7797 -0.3217
TCL: Running 1000000 steps at 300 kelvin.
TCL: Setting parameter langevinTemp to 300
TCL: Running for 1000000 steps
ETITLE: TS BOND ANGLE DIHED IMPRP ELECT VDW BOUNDARY MISC KINETIC TOTAL TEMP POTENTIAL TOTAL3 TEMPAVG PRESSURE GPRESSURE VOLUME PRESSAVG GPRESSAVG
ENERGY: 325000 0.6277 3.3183 0.3252 0.0000 -16721.1678 2389.7274 0.0000 0.0000 2272.4721 -12054.6972 262.4048 -14327.1693 -12051.0639 262.4048 410.2010 505.1818 43276.4613 410.2010 505.1818
ENERGY: 525000 0.5946 1.6961 1.0153 0.0000 -15703.5808 2035.7436 0.0000 0.0000 2573.0266 -11091.5046 297.1101 -13664.5313 -11084.5245 299.6210 -581.3963 -482.9613 45134.2027 0.5081 0.3454
ENERGY: 725000 2.3907 4.1695 0.6314 0.0000 -15841.8016 2178.8283 0.0000 0.0000 2582.0268 -11073.7549 298.1494 -13655.7818 -11068.9950 299.6219 107.4223 193.9327 45097.7550 -2.5580 -2.1734
ENERGY: 925000 0.3677 1.9801 0.0557 0.0000 -15874.4552 2158.1082 0.0000 0.0000 2597.4176 -11116.5258 299.9266 -13713.9434 -11109.9259 301.5653 -57.8796 13.8856 45210.3349 2.9528 3.0889
ENERGY: 1125000 0.8702 9.3185 0.6229 0.0000 -15712.2694 2064.8303 0.0000 0.0000 2602.5333 -11034.0942 300.5173 -13636.6276 -11029.7362 298.6167 -208.1869 -176.2203 44778.6084 3.1702 4.4215
ENERGY: 1325000 2.9217 4.3156 1.5687 0.0000 -15692.0454 1953.9257 0.0000 0.0000 2622.9844 -11106.3293 302.8788 -13729.3137 -11101.1979 300.0891 -1108.7004 -977.9266 45309.2091 -1.6078 -1.3459
TCL: Exiting due to exit command.
