Info: SIMULATION PARAMETERS:
Info: TIMESTEP               2
Info: NUMBER OF STEPS        0
Info: STEPS PER CYCLE        10
Info: PERIODIC CELL BASIS 1  43.508 0 0
Info: PERIODIC CELL BASIS 2  0 38.729 0
Info: PERIODIC CELL BASIS 3  0 0 40.47
Info: PERIODIC CELL CENTER   0 0 0
Info: WRAPPING WATERS AROUND PERIODIC BOUNDARIES ON OUTPUT.
Info: WRAPPING ALL CLUSTERS AROUND PERIODIC BOUNDARIES ON OUTPUT.
Info: FIRST LDB TIMESTEP     50
Info: LAST LDB TIMESTEP     -1
Info: HOM BACKGROUND SCALING 1
Info: PME BACKGROUND SCALING 1
Info: MIN ATOMS PER PATCH    40
Info: EMPTY PATCH LOAD       40 ATOMS
Info: INITIAL TEMPERATURE    300
Info: CENTER OF MASS MOVING INITIALLY? NO
Info: DIELECTRIC             1
Info: EXCLUDE                SCALED ONE-FOUR
Info: 1-4 ELECTROSTATICS SCALED BY 0.833333
Info: MODIFIED 1-4 VDW PARAMETERS WILL BE USED
Info: DCD FILENAME           mobley_5390332_min.dcd
Info: DCD FREQUENCY          5000
Info: DCD FIRST STEP         5000
Info: DCD FILE WILL CONTAIN UNIT CELL DATA
Info: XST FILENAME           mobley_5390332_min.xst
Info: XST FREQUENCY          5000
Info: NO VELOCITY DCD OUTPUT
Info: NO FORCE DCD OUTPUT
Info: OUTPUT FILENAME        mobley_5390332_min
Info: BINARY OUTPUT FILES WILL BE USED
Info: RESTART FILENAME       mobley_5390332_min.restart
Info: RESTART FREQUENCY      5000
Info: BINARY RESTART FILES WILL BE USED
Info: CUTOFF                 9
Info: PAIRLIST DISTANCE      11
Info: PAIRLIST SHRINK RATE   0.01
Info: PAIRLIST GROW RATE     0.01
Info: PAIRLIST TRIGGER       0.3
Info: PAIRLISTS PER CYCLE    2
Info: PAIRLISTS ENABLED
Info: MARGIN                 8
Info: HYDROGEN GROUP CUTOFF  2.5
Info: PATCH DIMENSION        21.5
Info: ENERGY OUTPUT STEPS    5000
Info: ENERGY EVALUATION STEPS    5000
Info: OUTPUT ENERGY PRECISION 4
Info: CROSSTERM ENERGY INCLUDED IN DIHEDRAL
Info: TIMING OUTPUT STEPS    50000
Info: PRESSURE OUTPUT STEPS  5000
Info: LANGEVIN DYNAMICS ACTIVE
Info: LANGEVIN TEMPERATURE   300
Info: LANGEVIN USING BBK INTEGRATOR
Info: LANGEVIN DAMPING COEFFICIENT IS 1 INVERSE PS
Info: LANGEVIN DYNAMICS APPLIED TO HYDROGENS
Info: LANGEVIN PISTON PRESSURE CONTROL ACTIVE
Info:        TARGET PRESSURE IS 1.01325 BAR
Info:     OSCILLATION PERIOD IS 50 FS
Info:             DECAY TIME IS 25 FS
Info:     PISTON TEMPERATURE IS 300 K
Info:       PRESSURE CONTROL IS GROUP-BASED
Info:    INITIAL STRAIN RATE IS 0 0 0
Info:       CELL FLUCTUATION IS ISOTROPIC
Info: PARTICLE MESH EWALD (PME) ACTIVE
Info: PME TOLERANCE               1e-06
Info: PME EWALD COEFFICIENT       0.348832
Info: PME INTERPOLATION ORDER     4
Info: PME GRID DIMENSIONS         44 40 44
Info: PME MAXIMUM GRID SPACING    1
Info: FULL ELECTROSTATIC EVALUATION FREQUENCY      2
Info: USING VERLET I (r-RESPA) MTS SCHEME.
Info: C1 SPLITTING OF LONG RANGE ELECTROSTATICS
Info: PLACING ATOMS IN PATCHES BY HYDROGEN GROUPS
Info: RIGID BONDS TO HYDROGEN : ALL
Info:         ERROR TOLERANCE : 1e-08
Info:          MAX ITERATIONS : 100
Info: RIGID WATER USING SETTLE ALGORITHM
Info: RANDOM NUMBER SEED     1741344139
Info: USE HYDROGEN BONDS?    NO
Info: Using AMBER format force field!
Info: AMBER PARM FILE        mobley_5390332.prmtop
Info: COORDINATE PDB         mobley_5390332.pdb
Info: Exclusions will be read from PARM file!
Info: SCNB (VDW SCALING)     2
Info: USING ARITHMETIC MEAN TO COMBINE L-J SIGMA PARAMETERS
Info: SUMMARY OF PARAMETERS:
Info: 9 BONDS
Info: 11 ANGLES
Info:   11 HARMONIC
Info:   0 COSINE-BASED
Info: 19 DIHEDRAL
Info: 0 IMPROPER
Info: 0 CROSSTERM
Info: 0 VDW
Info: 36 VDW_PAIRS
Info: 0 NBTHOLE_PAIRS
Info: STRUCTURE SUMMARY:
Info: 4709 ATOMS
Info: 4708 BONDS
Info: 28 ANGLES
Info: 39 DIHEDRALS
Info: 0 IMPROPERS
Info: 0 CROSSTERMS
Info: 4765 EXCLUSIONS
Info: 4702 RIGID BONDS
Info: 9425 DEGREES OF FREEDOM
Info: 1571 HYDROGEN GROUPS
Info: 4 ATOMS IN LARGEST HYDROGEN GROUP
Info: 1571 MIGRATION GROUPS
Info: 4 ATOMS IN LARGEST MIGRATION GROUP
Info: TOTAL MASS = 28279.2 amu
Info: TOTAL CHARGE = -9.99719e-05 e
Info: MASS DENSITY = 0.688632 g/cm^3
Info: ATOM DENSITY = 0.0690542 atoms/A^3
Info: ADDED 0 IMPLICIT EXCLUSIONS
Info: NONBONDED TABLE R-SQUARED SPACING: 0.0625
Info: NONBONDED TABLE SIZE: 705 POINTS
Info: REMOVING COM VELOCITY 0.169482 -0.014751 -0.0976637
TCL: Minimizing for 2000 steps
ETITLE: TS BOND ANGLE DIHED IMPRP ELECT VDW BOUNDARY MISC KINETIC TOTAL TEMP POTENTIAL TOTAL3 TEMPAVG PRESSURE GPRESSURE VOLUME PRESSAVG GPRESSAVG
ENERGY: 0 0.1519 0.8317 20.7897 0.0000 -14726.7972 1710.0087 0.0000 0.0000 0.0000 -12995.0153 0.0000 -12995.0153 -12995.0153 0.0000 10823.2661 -14768.6073 68192.8133 10823.2661 -14768.6073
ENERGY: 400 5.8026 4.0908 19.7098 0.0000 -19753.7812 2892.2772 0.0000 0.0000 0.0000 -16831.9008 0.0000 -16831.9008 -16831.9008 0.0000 15169.0196 15223.2007 68192.8133 15169.0196 15223.2007
ENERGY: 800 10.0091 2.0013 18.3331 0.0000 -20717.3814 3398.3370 0.0000 0.0000 0.0000 -17288.7009 0.0000 -17288.7009 -17288.7009 0.0000 17512.8402 17515.8054 68192.8133 17512.8402 17515.8054
ENERGY: 1200 0.4875 0.5974 17.7029 0.0000 -21039.4943 3517.8755 0.0000 0.0000 0.0000 -17502.8309 0.0000 -17502.8309 -17502.8309 0.0000 18113.3468 18103.4272 68192.8133 18113.3468 18103.4272
ENERGY: 1600 0.2948 0.4369 17.7783 0.0000 -21325.9148 3666.2313 0.0000 0.0000 0.0000 -17641.1735 0.0000 -17641.1735 -17641.1735 0.0000 18877.7787 18900.0261 68192.8133 18877.7787 18900.0261
ENERGY: 2000 1.1770 0.5287 17.8603 0.0000 -21496.1442 3725.5318 0.0000 0.0000 0.0000 -17751.0463 0.0000 -17751.0463 -17751.0463 0.0000 19184.6467 19186.2990 68192.8133 19184.6467 19186.2990
TCL: Exiting due to exit command.
Info: NAMD 3.0.1 for Linux-x86_64-multicore
Info: Please visit http://www.ks.uiuc.edu/Research/namd/
Info: for updates, documentation, and support information.
Info: Please cite Phillips et al., J. Chem. Phys. 153:044130 (2020) doi:10.1063/5.0014475
Info: in all publications reporting results obtained with NAMD.
Info: Based on Charm++/Converse 80000 for multicore-linux-x86_64-gcc
Info: Built Mon Oct 14 11:11:06 CDT 2024 by dhardy on athine.ks.uiuc.edu
Info: 1 NAMD  3.0.1  Linux-x86_64-multicore  16    k006  z5358697
Info: Running on 16 processors, 1 nodes, 1 physical nodes.
Info: CPU topology information available.
Info: Charm++/Converse parallel runtime startup completed at 0.00941921 s
Info: 1043.45 MB of memory in use based on /proc/self/stat
Info: Configuration file is mobley_5390332_equil.namd
Info: Working in the current directory /srv/scratch/z5358697/prod_prep_6/5390332
TCL: Running 25000 steps at 30 kelvin.
TCL: Suspending until startup complete.
Info: SIMULATION PARAMETERS:
Info: TIMESTEP               2
Info: NUMBER OF STEPS        0
Info: STEPS PER CYCLE        10
Info: PERIODIC CELL BASIS 1  43.508 0 0
Info: PERIODIC CELL BASIS 2  0 38.729 0
Info: PERIODIC CELL BASIS 3  0 0 40.47
Info: PERIODIC CELL CENTER   0 0 0
Info: WRAPPING WATERS AROUND PERIODIC BOUNDARIES ON OUTPUT.
Info: WRAPPING ALL CLUSTERS AROUND PERIODIC BOUNDARIES ON OUTPUT.
Info: FIRST LDB TIMESTEP     50
Info: LAST LDB TIMESTEP     -1
Info: HOM BACKGROUND SCALING 1
Info: PME BACKGROUND SCALING 1
Info: MIN ATOMS PER PATCH    40
Info: EMPTY PATCH LOAD       40 ATOMS
Info: INITIAL TEMPERATURE    300
Info: CENTER OF MASS MOVING INITIALLY? NO
Info: DIELECTRIC             1
Info: EXCLUDE                SCALED ONE-FOUR
Info: 1-4 ELECTROSTATICS SCALED BY 0.833333
Info: MODIFIED 1-4 VDW PARAMETERS WILL BE USED
Info: DCD FILENAME           mobley_5390332_equil.dcd
Info: DCD FREQUENCY          5000
Info: DCD FIRST STEP         5000
Info: DCD FILE WILL CONTAIN UNIT CELL DATA
Info: XST FILENAME           mobley_5390332_equil.xst
Info: XST FREQUENCY          5000
Info: NO VELOCITY DCD OUTPUT
Info: NO FORCE DCD OUTPUT
Info: OUTPUT FILENAME        mobley_5390332_equil
Info: BINARY OUTPUT FILES WILL BE USED
Info: RESTART FILENAME       mobley_5390332_equil.restart
Info: RESTART FREQUENCY      5000
Info: BINARY RESTART FILES WILL BE USED
Info: CUTOFF                 9
Info: PAIRLIST DISTANCE      11
Info: PAIRLIST SHRINK RATE   0.01
Info: PAIRLIST GROW RATE     0.01
Info: PAIRLIST TRIGGER       0.3
Info: PAIRLISTS PER CYCLE    2
Info: PAIRLISTS ENABLED
Info: MARGIN                 8
Info: HYDROGEN GROUP CUTOFF  2.5
Info: PATCH DIMENSION        21.5
Info: ENERGY OUTPUT STEPS    5000
Info: ENERGY EVALUATION STEPS    5000
Info: OUTPUT ENERGY PRECISION 4
Info: CROSSTERM ENERGY INCLUDED IN DIHEDRAL
Info: TIMING OUTPUT STEPS    50000
Info: PRESSURE OUTPUT STEPS  5000
Info: LANGEVIN DYNAMICS ACTIVE
Info: LANGEVIN TEMPERATURE   30
Info: LANGEVIN USING BBK INTEGRATOR
Info: LANGEVIN DAMPING COEFFICIENT IS 1 INVERSE PS
Info: LANGEVIN DYNAMICS APPLIED TO HYDROGENS
Info: LANGEVIN PISTON PRESSURE CONTROL ACTIVE
Info:        TARGET PRESSURE IS 1.01325 BAR
Info:     OSCILLATION PERIOD IS 50 FS
Info:             DECAY TIME IS 25 FS
Info:     PISTON TEMPERATURE IS 300 K
Info:       PRESSURE CONTROL IS GROUP-BASED
Info:    INITIAL STRAIN RATE IS 0 0 0
Info:       CELL FLUCTUATION IS ISOTROPIC
Info: PARTICLE MESH EWALD (PME) ACTIVE
Info: PME TOLERANCE               1e-06
Info: PME EWALD COEFFICIENT       0.348832
Info: PME INTERPOLATION ORDER     4
Info: PME GRID DIMENSIONS         44 40 44
Info: PME MAXIMUM GRID SPACING    1
Info: FULL ELECTROSTATIC EVALUATION FREQUENCY      2
Info: USING VERLET I (r-RESPA) MTS SCHEME.
Info: C1 SPLITTING OF LONG RANGE ELECTROSTATICS
Info: PLACING ATOMS IN PATCHES BY HYDROGEN GROUPS
Info: RIGID BONDS TO HYDROGEN : ALL
Info:         ERROR TOLERANCE : 1e-08
Info:          MAX ITERATIONS : 100
Info: RIGID WATER USING SETTLE ALGORITHM
Info: RANDOM NUMBER SEED     1741344155
Info: USE HYDROGEN BONDS?    NO
Info: Using AMBER format force field!
Info: AMBER PARM FILE        mobley_5390332.prmtop
Info: COORDINATE PDB         mobley_5390332.pdb
Info: Exclusions will be read from PARM file!
Info: SCNB (VDW SCALING)     2
Info: USING ARITHMETIC MEAN TO COMBINE L-J SIGMA PARAMETERS
Info: BINARY COORDINATES     mobley_5390332_min.coor
Info: SUMMARY OF PARAMETERS:
Info: 9 BONDS
Info: 11 ANGLES
Info:   11 HARMONIC
Info:   0 COSINE-BASED
Info: 19 DIHEDRAL
Info: 0 IMPROPER
Info: 0 CROSSTERM
Info: 0 VDW
Info: 36 VDW_PAIRS
Info: 0 NBTHOLE_PAIRS
Info: STRUCTURE SUMMARY:
Info: 4709 ATOMS
Info: 4708 BONDS
Info: 28 ANGLES
Info: 39 DIHEDRALS
Info: 0 IMPROPERS
Info: 0 CROSSTERMS
Info: 4765 EXCLUSIONS
Info: 4702 RIGID BONDS
Info: 9425 DEGREES OF FREEDOM
Info: 1571 HYDROGEN GROUPS
Info: 4 ATOMS IN LARGEST HYDROGEN GROUP
Info: 1571 MIGRATION GROUPS
Info: 4 ATOMS IN LARGEST MIGRATION GROUP
Info: TOTAL MASS = 28279.2 amu
Info: TOTAL CHARGE = -9.99719e-05 e
Info: MASS DENSITY = 0.688632 g/cm^3
Info: ATOM DENSITY = 0.0690542 atoms/A^3
Info: ADDED 0 IMPLICIT EXCLUSIONS
Info: NONBONDED TABLE R-SQUARED SPACING: 0.0625
Info: NONBONDED TABLE SIZE: 705 POINTS
Info: REMOVING COM VELOCITY -0.0827502 0.21371 0.0155953
TCL: Running for 25000 steps
ETITLE: TS BOND ANGLE DIHED IMPRP ELECT VDW BOUNDARY MISC KINETIC TOTAL TEMP POTENTIAL TOTAL3 TEMPAVG PRESSURE GPRESSURE VOLUME PRESSAVG GPRESSAVG
ENERGY: 0 1.1770 0.5287 17.8603 0.0000 -21496.1442 3725.5318 0.0000 0.0000 2889.9216 -14861.1247 308.5994 -17751.0463 -14860.4901 308.5994 432.3703 470.6321 68192.8133 432.3703 470.6321
ENERGY: 5000 0.1847 0.8519 18.1247 0.0000 -22718.5998 4093.3542 0.0000 0.0000 293.4565 -18312.6277 31.3367 -18606.0842 -18311.7947 48.3169 970.7302 1022.3336 46510.8660 5.8670 5.6915
ENERGY: 10000 0.3103 0.7935 18.0688 0.0000 -22487.4292 3813.2628 0.0000 0.0000 279.3724 -18375.6215 29.8327 -18654.9939 -18374.7362 30.2670 -642.7633 -603.4705 46892.2293 0.6399 0.5977
ENERGY: 15000 0.5903 1.2091 17.9324 0.0000 -22903.8200 4223.7168 0.0000 0.0000 276.4382 -18383.9333 29.5194 -18660.3715 -18383.5613 30.0659 1566.4784 1631.9508 46116.1520 1.0606 1.4257
ENERGY: 20000 0.2977 0.9328 17.9585 0.0000 -22653.3998 3958.1620 0.0000 0.0000 288.4912 -18387.5577 30.8064 -18676.0488 -18386.7820 30.0302 76.4854 134.8862 46529.3217 2.9510 2.9115
ENERGY: 25000 0.4548 1.2298 18.3681 0.0000 -22678.0739 3982.3967 0.0000 0.0000 283.6104 -18392.0141 30.2853 -18675.6245 -18391.7161 30.2897 192.4538 245.4913 46503.9195 2.1820 2.1467
TCL: Running 25000 steps at 60 kelvin.
TCL: Setting parameter langevinTemp to 60
TCL: Running for 25000 steps
ETITLE: TS BOND ANGLE DIHED IMPRP ELECT VDW BOUNDARY MISC KINETIC TOTAL TEMP POTENTIAL TOTAL3 TEMPAVG PRESSURE GPRESSURE VOLUME PRESSAVG GPRESSAVG
ENERGY: 25000 0.4548 1.2298 18.3681 0.0000 -22678.0739 3982.3967 0.0000 0.0000 283.4655 -18392.1590 30.2698 -18675.6245 -18391.5670 30.2698 194.5602 245.2495 46503.9195 194.5602 245.2495
ENERGY: 30000 0.5248 2.0505 18.6062 0.0000 -22332.1782 3885.8700 0.0000 0.0000 572.3016 -17852.8251 61.1131 -18425.1267 -17851.4192 57.2503 351.7883 395.8824 46490.7725 3.5933 3.4094
ENERGY: 35000 0.5278 1.7194 18.3134 0.0000 -22211.9719 3721.5424 0.0000 0.0000 547.4363 -17922.4325 58.4578 -18469.8688 -17920.7398 60.3182 -611.9298 -554.2157 46538.4615 4.4400 4.5089
ENERGY: 40000 0.3552 1.4075 18.2119 0.0000 -22294.2247 3757.0151 0.0000 0.0000 554.9466 -17962.2884 59.2598 -18517.2351 -17960.7335 60.0675 -471.3096 -404.3214 46469.4882 1.8800 1.8961
ENERGY: 45000 0.7770 2.2586 18.3303 0.0000 -22237.5025 3686.6860 0.0000 0.0000 576.3774 -17953.0731 61.5483 -18529.4505 -17951.6991 60.2279 -896.4510 -844.6205 46722.7009 -0.1414 -0.5442
ENERGY: 50000 0.5504 1.4261 18.0672 0.0000 -22359.2838 3772.3042 0.0000 0.0000 569.7836 -17997.1522 60.8442 -18566.9359 -17995.4564 60.5057 -532.7953 -465.9663 46599.6837 1.6609 1.5608
TCL: Running 25000 steps at 90 kelvin.
TCL: Setting parameter langevinTemp to 90
TCL: Running for 25000 steps
ETITLE: TS BOND ANGLE DIHED IMPRP ELECT VDW BOUNDARY MISC KINETIC TOTAL TEMP POTENTIAL TOTAL3 TEMPAVG PRESSURE GPRESSURE VOLUME PRESSAVG GPRESSAVG
ENERGY: 50000 0.5504 1.4261 18.0672 0.0000 -22359.2838 3772.3042 0.0000 0.0000 569.5151 -17997.4207 60.8155 -18566.9359 -17996.2007 60.8155 -523.7378 -465.7393 46599.6837 -523.7378 -465.7393
ENERGY: 55000 0.2265 2.8888 18.0660 0.0000 -22129.0026 3830.1156 0.0000 0.0000 870.7152 -17406.9906 92.9791 -18277.7058 -17405.5035 87.7082 343.0446 415.4928 46719.6191 1.0392 1.1372
ENERGY: 60000 0.6076 1.8223 18.3503 0.0000 -22085.4658 3774.8672 0.0000 0.0000 832.0763 -17457.7422 88.8530 -18289.8185 -17455.5882 89.8407 -2.2522 33.5584 46801.7600 0.5862 0.8895
ENERGY: 65000 0.4128 3.1659 17.9712 0.0000 -22227.3956 3875.3237 0.0000 0.0000 859.9813 -17470.5407 91.8328 -18330.5221 -17466.8678 89.7420 444.8780 523.6823 46597.7177 3.3089 3.3193
ENERGY: 70000 0.2795 2.4804 17.4089 0.0000 -22381.8125 4000.0704 0.0000 0.0000 860.2319 -17501.3414 91.8596 -18361.5733 -17498.7696 89.9448 1192.2306 1253.3409 46192.4678 2.8463 3.0300
ENERGY: 75000 0.2900 3.5358 18.3594 0.0000 -22184.5211 3806.8886 0.0000 0.0000 845.1891 -17510.2583 90.2533 -18355.4474 -17508.6667 90.2725 140.3781 202.0878 46449.9484 5.5358 5.4433
TCL: Running 25000 steps at 120 kelvin.
TCL: Setting parameter langevinTemp to 120
TCL: Running for 25000 steps
ETITLE: TS BOND ANGLE DIHED IMPRP ELECT VDW BOUNDARY MISC KINETIC TOTAL TEMP POTENTIAL TOTAL3 TEMPAVG PRESSURE GPRESSURE VOLUME PRESSAVG GPRESSAVG
ENERGY: 75000 0.2900 3.5358 18.3594 0.0000 -22184.5211 3806.8886 0.0000 0.0000 844.7720 -17510.6754 90.2087 -18355.4474 -17509.0802 90.2087 136.5328 202.5813 46449.9484 136.5328 202.5813
ENERGY: 80000 0.2792 2.1671 17.6752 0.0000 -21559.5615 3503.2142 0.0000 0.0000 1109.5343 -16926.6916 118.4813 -18036.2259 -16923.9647 116.2979 -791.5782 -727.0688 47059.3521 6.4576 6.3154
ENERGY: 85000 0.8204 2.2317 17.9568 0.0000 -21803.8875 3718.7646 0.0000 0.0000 1122.4594 -16941.6546 119.8615 -18064.1140 -16939.7225 120.0920 407.9260 433.8069 46539.1203 1.9597 1.5248
ENERGY: 90000 1.2690 3.5371 18.1177 0.0000 -21813.7571 3666.6115 0.0000 0.0000 1168.2117 -16956.0101 124.7471 -18124.2218 -16952.5330 121.7489 -68.9914 -56.4718 46641.3287 3.1163 3.5475
ENERGY: 95000 1.0847 3.0933 18.9156 0.0000 -21921.5315 3768.0412 0.0000 0.0000 1110.7355 -17019.6613 118.6096 -18130.3968 -17015.8212 120.1361 482.4847 514.1577 46308.3503 5.6279 5.2452
ENERGY: 100000 0.6926 2.5905 18.3659 0.0000 -21890.6185 3694.5279 0.0000 0.0000 1116.7810 -17057.6605 119.2551 -18174.4415 -17054.5572 120.6148 11.6048 74.7831 46191.3934 4.9905 4.8243
TCL: Running 25000 steps at 150 kelvin.
TCL: Setting parameter langevinTemp to 150
TCL: Running for 25000 steps
ETITLE: TS BOND ANGLE DIHED IMPRP ELECT VDW BOUNDARY MISC KINETIC TOTAL TEMP POTENTIAL TOTAL3 TEMPAVG PRESSURE GPRESSURE VOLUME PRESSAVG GPRESSAVG
ENERGY: 100000 0.6926 2.5905 18.3659 0.0000 -21890.6185 3694.5279 0.0000 0.0000 1116.2261 -17058.2154 119.1959 -18174.4415 -17055.9217 119.1959 21.5369 74.7799 46191.3934 21.5369 74.7799
ENERGY: 105000 0.2656 4.4808 18.4686 0.0000 -21323.2330 3507.5163 0.0000 0.0000 1390.5542 -16401.9476 148.4899 -17792.5018 -16398.8941 146.1242 -180.8259 -74.8219 46674.8051 3.3217 3.2737
ENERGY: 110000 0.4820 3.7298 18.7368 0.0000 -21443.7868 3574.8806 0.0000 0.0000 1410.6043 -16435.3533 150.6310 -17845.9576 -16433.2716 149.6699 105.0918 175.4774 46415.1095 5.6967 5.6619
ENERGY: 115000 0.9415 3.4772 18.9554 0.0000 -21562.4053 3701.8797 0.0000 0.0000 1405.7569 -16431.3947 150.1133 -17837.1516 -16427.2389 148.7438 707.9073 751.3147 46551.3970 4.8298 5.0829
ENERGY: 120000 0.4863 3.9858 18.9071 0.0000 -21316.1210 3485.0329 0.0000 0.0000 1440.2984 -16367.4105 153.8018 -17807.7089 -16365.4053 151.0370 -391.1560 -356.3496 46932.0134 -0.3675 -0.6137
ENERGY: 125000 2.3085 3.4640 18.2735 0.0000 -21515.9012 3638.1732 0.0000 0.0000 1383.5756 -16470.1064 147.7447 -17853.6820 -16466.1478 150.4698 360.1244 416.8687 46321.8968 1.2209 1.0965
TCL: Running 50000 steps at 180 kelvin.
TCL: Setting parameter langevinTemp to 180
TCL: Running for 50000 steps
ETITLE: TS BOND ANGLE DIHED IMPRP ELECT VDW BOUNDARY MISC KINETIC TOTAL TEMP POTENTIAL TOTAL3 TEMPAVG PRESSURE GPRESSURE VOLUME PRESSAVG GPRESSAVG
ENERGY: 125000 2.3085 3.4640 18.2735 0.0000 -21515.9012 3638.1732 0.0000 0.0000 1382.8830 -16470.7989 147.6707 -17853.6820 -16468.0621 147.6707 369.1293 417.7501 46321.8968 369.1293 417.7501
ENERGY: 135000 2.2249 4.9762 18.0093 0.0000 -20728.1085 3284.1331 0.0000 0.0000 1695.1266 -15723.6383 181.0136 -17418.7650 -15721.1794 180.1477 -393.8547 -323.1355 46583.0242 -3.0304 -2.9361
ENERGY: 145000 0.7974 3.8460 18.8841 0.0000 -20919.0170 3383.5985 0.0000 0.0000 1714.5035 -15797.3874 183.0827 -17511.8910 -15792.8906 180.6171 -87.1108 -4.0490 46403.0210 0.0962 0.0767
ENERGY: 155000 0.9675 4.2349 18.7598 0.0000 -20717.4514 3244.7748 0.0000 0.0000 1666.6937 -15782.0207 177.9774 -17448.7144 -15775.9938 179.9322 -671.6038 -635.4082 46632.4908 4.3010 3.9531
ENERGY: 165000 0.3272 5.0015 18.3647 0.0000 -20900.7491 3373.1903 0.0000 0.0000 1701.8704 -15801.9950 181.7337 -17503.8654 -15796.9319 179.1502 -117.7514 -35.9568 46224.2975 3.1203 2.9379
ENERGY: 175000 1.6018 3.4874 18.3316 0.0000 -20781.0848 3233.3645 0.0000 0.0000 1654.7325 -15869.5670 176.7001 -17524.2995 -15866.2652 179.8429 -858.6451 -798.9889 46379.1487 6.1744 6.4456
TCL: Running 50000 steps at 210 kelvin.
TCL: Setting parameter langevinTemp to 210
TCL: Running for 50000 steps
ETITLE: TS BOND ANGLE DIHED IMPRP ELECT VDW BOUNDARY MISC KINETIC TOTAL TEMP POTENTIAL TOTAL3 TEMPAVG PRESSURE GPRESSURE VOLUME PRESSAVG GPRESSAVG
ENERGY: 175000 1.6018 3.4874 18.3316 0.0000 -20781.0848 3233.3645 0.0000 0.0000 1653.9095 -15870.3899 176.6122 -17524.2995 -15867.1018 176.6122 -855.7034 -799.4525 46379.1487 -855.7034 -799.4525
ENERGY: 185000 1.1564 3.9407 18.2132 0.0000 -19803.4219 3016.3741 0.0000 0.0000 1909.7131 -14854.0244 203.9281 -16763.7374 -14848.0995 210.8923 -338.7876 -268.1973 46476.6215 3.4466 3.2879
ENERGY: 195000 1.6224 6.8700 18.1231 0.0000 -19888.3462 3042.1780 0.0000 0.0000 1965.0459 -14854.5067 209.8368 -16819.5526 -14849.2192 208.7336 -47.1460 13.7272 45882.7188 3.5574 3.8720
ENERGY: 205000 1.9240 9.7506 18.1461 0.0000 -19691.4082 2894.6195 0.0000 0.0000 1941.8312 -14825.1368 207.3579 -16766.9681 -14819.5035 210.2741 -807.2766 -687.8574 46100.6419 -1.4137 -0.6451
ENERGY: 215000 0.6218 6.7965 17.9458 0.0000 -19891.2607 3119.7240 0.0000 0.0000 1985.7884 -14760.3841 212.0518 -16746.1726 -14757.0223 211.1850 401.9099 480.4927 46026.1621 0.9968 0.8791
ENERGY: 225000 1.8574 4.2508 18.8494 0.0000 -19882.7985 3014.4673 0.0000 0.0000 1937.4807 -14905.8928 206.8933 -16843.3736 -14899.3670 209.0842 -304.0667 -223.5975 45922.3617 2.1314 2.3493
TCL: Running 50000 steps at 240 kelvin.
TCL: Setting parameter langevinTemp to 240
TCL: Running for 50000 steps
ETITLE: TS BOND ANGLE DIHED IMPRP ELECT VDW BOUNDARY MISC KINETIC TOTAL TEMP POTENTIAL TOTAL3 TEMPAVG PRESSURE GPRESSURE VOLUME PRESSAVG GPRESSAVG
ENERGY: 225000 1.8574 4.2508 18.8494 0.0000 -19882.7985 3014.4673 0.0000 0.0000 1936.5269 -14906.8466 206.7914 -16843.3736 -14903.6126 206.7914 -301.5390 -222.1367 45922.3617 -301.5390 -222.1367
ENERGY: 235000 1.5070 8.8522 18.7062 0.0000 -18897.9901 2802.2272 0.0000 0.0000 2260.6798 -13806.0177 241.4060 -16066.6975 -13801.2183 240.6862 259.0450 331.2309 46424.1063 5.4573 5.1788
ENERGY: 245000 1.5559 5.7860 16.9860 0.0000 -18883.3823 2742.2262 0.0000 0.0000 2306.3914 -13810.4369 246.2873 -16116.8283 -13805.3746 240.1223 -21.7448 80.1894 46237.4840 0.8298 0.2370
ENERGY: 255000 0.7956 4.4973 16.7061 0.0000 -18879.2647 2801.7231 0.0000 0.0000 2300.6018 -13754.9408 245.6691 -16055.5425 -13751.1632 240.5038 522.0057 590.9667 45830.2562 3.5814 3.4295
ENERGY: 265000 1.5017 8.5317 16.9124 0.0000 -18837.3558 2690.3590 0.0000 0.0000 2272.0400 -13848.0111 242.6191 -16120.0511 -13842.1262 240.5680 -158.3359 -116.1806 46174.1318 0.5543 0.4462
ENERGY: 275000 1.0932 4.3812 17.6442 0.0000 -18823.7609 2715.6931 0.0000 0.0000 2258.4725 -13826.4768 241.1703 -16084.9493 -13820.6413 239.8994 -111.4624 -17.5709 46053.3416 6.3154 5.8878
TCL: Running 50000 steps at 270 kelvin.
TCL: Setting parameter langevinTemp to 270
TCL: Running for 50000 steps
ETITLE: TS BOND ANGLE DIHED IMPRP ELECT VDW BOUNDARY MISC KINETIC TOTAL TEMP POTENTIAL TOTAL3 TEMPAVG PRESSURE GPRESSURE VOLUME PRESSAVG GPRESSAVG
ENERGY: 275000 1.0932 4.3812 17.6442 0.0000 -18823.7609 2715.6931 0.0000 0.0000 2257.3317 -13827.6177 241.0485 -16084.9493 -13824.0290 241.0485 -109.7698 -17.3435 46053.3416 -109.7698 -17.3435
ENERGY: 285000 3.5079 5.4756 18.4124 0.0000 -17844.8564 2466.1103 0.0000 0.0000 2530.9919 -12820.3583 270.2712 -15351.3502 -12815.5200 270.4806 -71.2470 -22.7947 47265.3121 1.3974 0.9008
ENERGY: 295000 0.6195 11.9967 18.1825 0.0000 -17813.9581 2415.8574 0.0000 0.0000 2484.0277 -12883.2744 265.2561 -15367.3020 -12877.4590 270.7571 -347.6515 -252.8492 47397.3091 6.4919 6.8760
ENERGY: 305000 1.6683 5.9854 19.7412 0.0000 -17910.5373 2486.2194 0.0000 0.0000 2512.8877 -12884.0354 268.3380 -15396.9231 -12878.3922 269.1266 -226.5586 -113.0598 47670.3242 -0.4479 -0.5756
ENERGY: 315000 1.2604 6.2337 19.5851 0.0000 -18169.1366 2736.9440 0.0000 0.0000 2563.1601 -12841.9533 273.7063 -15405.1134 -12836.4618 270.1165 1274.6774 1366.4745 47021.0630 0.3093 0.1875
ENERGY: 325000 1.2942 5.3336 17.9495 0.0000 -17882.5818 2458.3035 0.0000 0.0000 2466.3531 -12933.3479 263.3688 -15399.7010 -12927.3867 268.5359 -448.4628 -381.9894 47597.4108 4.0496 4.1649
TCL: Running 1000000 steps at 300 kelvin.
TCL: Setting parameter langevinTemp to 300
TCL: Running for 1000000 steps
ETITLE: TS BOND ANGLE DIHED IMPRP ELECT VDW BOUNDARY MISC KINETIC TOTAL TEMP POTENTIAL TOTAL3 TEMPAVG PRESSURE GPRESSURE VOLUME PRESSAVG GPRESSAVG
ENERGY: 325000 1.2942 5.3336 17.9495 0.0000 -17882.5818 2458.3035 0.0000 0.0000 2465.0764 -12934.6246 263.2324 -15399.7010 -12930.6223 263.2324 -464.9816 -379.8102 47597.4108 -464.9816 -379.8102
ENERGY: 525000 0.4711 7.3864 21.0426 0.0000 -17043.2696 2287.9318 0.0000 0.0000 2826.9230 -11899.5147 301.8721 -14726.4377 -11893.4181 300.7141 -50.0507 30.2257 48584.1530 -0.3807 -0.2901
ENERGY: 725000 1.6742 6.5041 19.0014 0.0000 -17121.5573 2359.5818 0.0000 0.0000 2732.1279 -12002.6679 291.7495 -14734.7958 -11998.0880 298.9090 348.6299 435.2387 48184.9864 4.1525 3.8509
ENERGY: 925000 0.7531 9.8817 17.2217 0.0000 -17100.7092 2303.2261 0.0000 0.0000 2851.3935 -11918.2331 304.4852 -14769.6266 -11914.0096 302.3404 -3.8985 102.2480 48535.0512 3.6942 4.2287
ENERGY: 1125000 1.3958 5.5478 18.5026 0.0000 -17420.2466 2439.8603 0.0000 0.0000 2848.6587 -12106.2814 304.1932 -14954.9401 -12100.9524 297.9974 696.2957 716.8458 47689.5683 2.1797 2.4034
ENERGY: 1325000 1.1748 4.1995 21.2120 0.0000 -17214.9795 2382.6808 0.0000 0.0000 2737.6515 -12068.0608 292.3393 -14805.7123 -12061.9148 297.9404 419.0664 520.2565 48158.2311 0.6485 0.1146
TCL: Exiting due to exit command.
