Info: SIMULATION PARAMETERS:
Info: TIMESTEP               2
Info: NUMBER OF STEPS        0
Info: STEPS PER CYCLE        10
Info: PERIODIC CELL BASIS 1  43.508 0 0
Info: PERIODIC CELL BASIS 2  0 41.432 0
Info: PERIODIC CELL BASIS 3  0 0 43.557
Info: PERIODIC CELL CENTER   0 0 0
Info: WRAPPING WATERS AROUND PERIODIC BOUNDARIES ON OUTPUT.
Info: WRAPPING ALL CLUSTERS AROUND PERIODIC BOUNDARIES ON OUTPUT.
Info: FIRST LDB TIMESTEP     50
Info: LAST LDB TIMESTEP     -1
Info: HOM BACKGROUND SCALING 1
Info: PME BACKGROUND SCALING 1
Info: MIN ATOMS PER PATCH    40
Info: EMPTY PATCH LOAD       40 ATOMS
Info: INITIAL TEMPERATURE    300
Info: CENTER OF MASS MOVING INITIALLY? NO
Info: DIELECTRIC             1
Info: EXCLUDE                SCALED ONE-FOUR
Info: 1-4 ELECTROSTATICS SCALED BY 0.833333
Info: MODIFIED 1-4 VDW PARAMETERS WILL BE USED
Info: DCD FILENAME           mobley_1417007_min.dcd
Info: DCD FREQUENCY          5000
Info: DCD FIRST STEP         5000
Info: DCD FILE WILL CONTAIN UNIT CELL DATA
Info: XST FILENAME           mobley_1417007_min.xst
Info: XST FREQUENCY          5000
Info: NO VELOCITY DCD OUTPUT
Info: NO FORCE DCD OUTPUT
Info: OUTPUT FILENAME        mobley_1417007_min
Info: BINARY OUTPUT FILES WILL BE USED
Info: RESTART FILENAME       mobley_1417007_min.restart
Info: RESTART FREQUENCY      5000
Info: BINARY RESTART FILES WILL BE USED
Info: CUTOFF                 9
Info: PAIRLIST DISTANCE      11
Info: PAIRLIST SHRINK RATE   0.01
Info: PAIRLIST GROW RATE     0.01
Info: PAIRLIST TRIGGER       0.3
Info: PAIRLISTS PER CYCLE    2
Info: PAIRLISTS ENABLED
Info: MARGIN                 8
Info: HYDROGEN GROUP CUTOFF  2.5
Info: PATCH DIMENSION        21.5
Info: ENERGY OUTPUT STEPS    5000
Info: ENERGY EVALUATION STEPS    5000
Info: OUTPUT ENERGY PRECISION 4
Info: CROSSTERM ENERGY INCLUDED IN DIHEDRAL
Info: TIMING OUTPUT STEPS    50000
Info: PRESSURE OUTPUT STEPS  5000
Info: LANGEVIN DYNAMICS ACTIVE
Info: LANGEVIN TEMPERATURE   300
Info: LANGEVIN USING BBK INTEGRATOR
Info: LANGEVIN DAMPING COEFFICIENT IS 1 INVERSE PS
Info: LANGEVIN DYNAMICS APPLIED TO HYDROGENS
Info: LANGEVIN PISTON PRESSURE CONTROL ACTIVE
Info:        TARGET PRESSURE IS 1.01325 BAR
Info:     OSCILLATION PERIOD IS 50 FS
Info:             DECAY TIME IS 25 FS
Info:     PISTON TEMPERATURE IS 300 K
Info:       PRESSURE CONTROL IS GROUP-BASED
Info:    INITIAL STRAIN RATE IS 0 0 0
Info:       CELL FLUCTUATION IS ISOTROPIC
Info: PARTICLE MESH EWALD (PME) ACTIVE
Info: PME TOLERANCE               1e-06
Info: PME EWALD COEFFICIENT       0.348832
Info: PME INTERPOLATION ORDER     4
Info: PME GRID DIMENSIONS         44 44 44
Info: PME MAXIMUM GRID SPACING    1
Info: FULL ELECTROSTATIC EVALUATION FREQUENCY      2
Info: USING VERLET I (r-RESPA) MTS SCHEME.
Info: C1 SPLITTING OF LONG RANGE ELECTROSTATICS
Info: PLACING ATOMS IN PATCHES BY HYDROGEN GROUPS
Info: RIGID BONDS TO HYDROGEN : ALL
Info:         ERROR TOLERANCE : 1e-08
Info:          MAX ITERATIONS : 100
Info: RIGID WATER USING SETTLE ALGORITHM
Info: RANDOM NUMBER SEED     1741311359
Info: USE HYDROGEN BONDS?    NO
Info: Using AMBER format force field!
Info: AMBER PARM FILE        mobley_1417007.prmtop
Info: COORDINATE PDB         mobley_1417007.pdb
Info: Exclusions will be read from PARM file!
Info: SCNB (VDW SCALING)     2
Info: USING ARITHMETIC MEAN TO COMBINE L-J SIGMA PARAMETERS
Info: SUMMARY OF PARAMETERS:
Info: 13 BONDS
Info: 18 ANGLES
Info:   18 HARMONIC
Info:   0 COSINE-BASED
Info: 29 DIHEDRAL
Info: 0 IMPROPER
Info: 0 CROSSTERM
Info: 0 VDW
Info: 55 VDW_PAIRS
Info: 0 NBTHOLE_PAIRS
Info: STRUCTURE SUMMARY:
Info: 5535 ATOMS
Info: 5536 BONDS
Info: 46 ANGLES
Info: 94 DIHEDRALS
Info: 0 IMPROPERS
Info: 0 CROSSTERMS
Info: 5642 EXCLUSIONS
Info: 5519 RIGID BONDS
Info: 11086 DEGREES OF FREEDOM
Info: 1853 HYDROGEN GROUPS
Info: 3 ATOMS IN LARGEST HYDROGEN GROUP
Info: 1853 MIGRATION GROUPS
Info: 3 ATOMS IN LARGEST MIGRATION GROUP
Info: TOTAL MASS = 33396 amu
Info: TOTAL CHARGE = -9.99868e-05 e
Info: MASS DENSITY = 0.706302 g/cm^3
Info: ATOM DENSITY = 0.0704944 atoms/A^3
Info: ADDED 0 IMPLICIT EXCLUSIONS
Info: NONBONDED TABLE R-SQUARED SPACING: 0.0625
Info: NONBONDED TABLE SIZE: 705 POINTS
Info: REMOVING COM VELOCITY 0.190227 -0.0462746 -0.0729617
TCL: Minimizing for 2000 steps
ETITLE: TS BOND ANGLE DIHED IMPRP ELECT VDW BOUNDARY MISC KINETIC TOTAL TEMP POTENTIAL TOTAL3 TEMPAVG PRESSURE GPRESSURE VOLUME PRESSAVG GPRESSAVG
ENERGY: 0 1.3391 20.3261 36.4073 0.0000 -17233.2362 1912.8309 0.0000 0.0000 0.0000 -15262.3328 0.0000 -15262.3328 -15262.3328 0.0000 10834.2216 -15593.4814 78516.8699 10834.2216 -15593.4814
ENERGY: 400 3.2708 24.3825 34.1418 0.0000 -23042.7997 3281.5105 0.0000 0.0000 0.0000 -19699.4940 0.0000 -19699.4940 -19699.4940 0.0000 15117.5266 15025.5586 78516.8699 15117.5266 15025.5586
ENERGY: 800 1.8124 19.4756 34.5512 0.0000 -24429.9911 3945.5656 0.0000 0.0000 0.0000 -20428.5863 0.0000 -20428.5863 -20428.5863 0.0000 17757.7086 17612.0454 78516.8699 17757.7086 17612.0454
ENERGY: 1200 21.7738 27.9904 35.7564 0.0000 -24934.8073 4165.6721 0.0000 0.0000 0.0000 -20683.6145 0.0000 -20683.6145 -20683.6145 0.0000 18649.0465 18473.3967 78516.8699 18649.0465 18473.3967
ENERGY: 1600 0.6430 19.2353 34.8472 0.0000 -25166.4460 4267.8285 0.0000 0.0000 0.0000 -20843.8920 0.0000 -20843.8920 -20843.8920 0.0000 19120.3803 18937.8922 78516.8699 19120.3803 18937.8922
ENERGY: 2000 0.6973 19.3644 34.6930 0.0000 -25344.9470 4346.7595 0.0000 0.0000 0.0000 -20943.4328 0.0000 -20943.4328 -20943.4328 0.0000 19496.1547 19250.6018 78516.8699 19496.1547 19250.6018
TCL: Exiting due to exit command.
Info: NAMD 3.0.1 for Linux-x86_64-multicore
Info: Please visit http://www.ks.uiuc.edu/Research/namd/
Info: for updates, documentation, and support information.
Info: Please cite Phillips et al., J. Chem. Phys. 153:044130 (2020) doi:10.1063/5.0014475
Info: in all publications reporting results obtained with NAMD.
Info: Based on Charm++/Converse 80000 for multicore-linux-x86_64-gcc
Info: Built Mon Oct 14 11:11:06 CDT 2024 by dhardy on athine.ks.uiuc.edu
Info: 1 NAMD  3.0.1  Linux-x86_64-multicore  16    k065  z5358697
Info: Running on 16 processors, 1 nodes, 1 physical nodes.
Info: CPU topology information available.
Info: Charm++/Converse parallel runtime startup completed at 0.0101753 s
Info: 1043.46 MB of memory in use based on /proc/self/stat
Info: Configuration file is mobley_1417007_equil.namd
Info: Working in the current directory /srv/scratch/z5358697/prod_prep/1417007
TCL: Running 25000 steps at 30 kelvin.
TCL: Suspending until startup complete.
Info: SIMULATION PARAMETERS:
Info: TIMESTEP               2
Info: NUMBER OF STEPS        0
Info: STEPS PER CYCLE        10
Info: PERIODIC CELL BASIS 1  43.508 0 0
Info: PERIODIC CELL BASIS 2  0 41.432 0
Info: PERIODIC CELL BASIS 3  0 0 43.557
Info: PERIODIC CELL CENTER   0 0 0
Info: WRAPPING WATERS AROUND PERIODIC BOUNDARIES ON OUTPUT.
Info: WRAPPING ALL CLUSTERS AROUND PERIODIC BOUNDARIES ON OUTPUT.
Info: FIRST LDB TIMESTEP     50
Info: LAST LDB TIMESTEP     -1
Info: HOM BACKGROUND SCALING 1
Info: PME BACKGROUND SCALING 1
Info: MIN ATOMS PER PATCH    40
Info: EMPTY PATCH LOAD       40 ATOMS
Info: INITIAL TEMPERATURE    300
Info: CENTER OF MASS MOVING INITIALLY? NO
Info: DIELECTRIC             1
Info: EXCLUDE                SCALED ONE-FOUR
Info: 1-4 ELECTROSTATICS SCALED BY 0.833333
Info: MODIFIED 1-4 VDW PARAMETERS WILL BE USED
Info: DCD FILENAME           mobley_1417007_equil.dcd
Info: DCD FREQUENCY          5000
Info: DCD FIRST STEP         5000
Info: DCD FILE WILL CONTAIN UNIT CELL DATA
Info: XST FILENAME           mobley_1417007_equil.xst
Info: XST FREQUENCY          5000
Info: NO VELOCITY DCD OUTPUT
Info: NO FORCE DCD OUTPUT
Info: OUTPUT FILENAME        mobley_1417007_equil
Info: BINARY OUTPUT FILES WILL BE USED
Info: RESTART FILENAME       mobley_1417007_equil.restart
Info: RESTART FREQUENCY      5000
Info: BINARY RESTART FILES WILL BE USED
Info: CUTOFF                 9
Info: PAIRLIST DISTANCE      11
Info: PAIRLIST SHRINK RATE   0.01
Info: PAIRLIST GROW RATE     0.01
Info: PAIRLIST TRIGGER       0.3
Info: PAIRLISTS PER CYCLE    2
Info: PAIRLISTS ENABLED
Info: MARGIN                 8
Info: HYDROGEN GROUP CUTOFF  2.5
Info: PATCH DIMENSION        21.5
Info: ENERGY OUTPUT STEPS    5000
Info: ENERGY EVALUATION STEPS    5000
Info: OUTPUT ENERGY PRECISION 4
Info: CROSSTERM ENERGY INCLUDED IN DIHEDRAL
Info: TIMING OUTPUT STEPS    50000
Info: PRESSURE OUTPUT STEPS  5000
Info: LANGEVIN DYNAMICS ACTIVE
Info: LANGEVIN TEMPERATURE   30
Info: LANGEVIN USING BBK INTEGRATOR
Info: LANGEVIN DAMPING COEFFICIENT IS 1 INVERSE PS
Info: LANGEVIN DYNAMICS APPLIED TO HYDROGENS
Info: LANGEVIN PISTON PRESSURE CONTROL ACTIVE
Info:        TARGET PRESSURE IS 1.01325 BAR
Info:     OSCILLATION PERIOD IS 50 FS
Info:             DECAY TIME IS 25 FS
Info:     PISTON TEMPERATURE IS 300 K
Info:       PRESSURE CONTROL IS GROUP-BASED
Info:    INITIAL STRAIN RATE IS 0 0 0
Info:       CELL FLUCTUATION IS ISOTROPIC
Info: PARTICLE MESH EWALD (PME) ACTIVE
Info: PME TOLERANCE               1e-06
Info: PME EWALD COEFFICIENT       0.348832
Info: PME INTERPOLATION ORDER     4
Info: PME GRID DIMENSIONS         44 44 44
Info: PME MAXIMUM GRID SPACING    1
Info: FULL ELECTROSTATIC EVALUATION FREQUENCY      2
Info: USING VERLET I (r-RESPA) MTS SCHEME.
Info: C1 SPLITTING OF LONG RANGE ELECTROSTATICS
Info: PLACING ATOMS IN PATCHES BY HYDROGEN GROUPS
Info: RIGID BONDS TO HYDROGEN : ALL
Info:         ERROR TOLERANCE : 1e-08
Info:          MAX ITERATIONS : 100
Info: RIGID WATER USING SETTLE ALGORITHM
Info: RANDOM NUMBER SEED     1741311375
Info: USE HYDROGEN BONDS?    NO
Info: Using AMBER format force field!
Info: AMBER PARM FILE        mobley_1417007.prmtop
Info: COORDINATE PDB         mobley_1417007.pdb
Info: Exclusions will be read from PARM file!
Info: SCNB (VDW SCALING)     2
Info: USING ARITHMETIC MEAN TO COMBINE L-J SIGMA PARAMETERS
Info: BINARY COORDINATES     mobley_1417007_min.coor
Info: SUMMARY OF PARAMETERS:
Info: 13 BONDS
Info: 18 ANGLES
Info:   18 HARMONIC
Info:   0 COSINE-BASED
Info: 29 DIHEDRAL
Info: 0 IMPROPER
Info: 0 CROSSTERM
Info: 0 VDW
Info: 55 VDW_PAIRS
Info: 0 NBTHOLE_PAIRS
Info: STRUCTURE SUMMARY:
Info: 5535 ATOMS
Info: 5536 BONDS
Info: 46 ANGLES
Info: 94 DIHEDRALS
Info: 0 IMPROPERS
Info: 0 CROSSTERMS
Info: 5642 EXCLUSIONS
Info: 5519 RIGID BONDS
Info: 11086 DEGREES OF FREEDOM
Info: 1853 HYDROGEN GROUPS
Info: 3 ATOMS IN LARGEST HYDROGEN GROUP
Info: 1853 MIGRATION GROUPS
Info: 3 ATOMS IN LARGEST MIGRATION GROUP
Info: TOTAL MASS = 33396 amu
Info: TOTAL CHARGE = -9.99868e-05 e
Info: MASS DENSITY = 0.706302 g/cm^3
Info: ATOM DENSITY = 0.0704944 atoms/A^3
Info: ADDED 0 IMPLICIT EXCLUSIONS
Info: NONBONDED TABLE R-SQUARED SPACING: 0.0625
Info: NONBONDED TABLE SIZE: 705 POINTS
Info: REMOVING COM VELOCITY 0.135046 -0.0337075 -0.230189
TCL: Running for 25000 steps
ETITLE: TS BOND ANGLE DIHED IMPRP ELECT VDW BOUNDARY MISC KINETIC TOTAL TEMP POTENTIAL TOTAL3 TEMPAVG PRESSURE GPRESSURE VOLUME PRESSAVG GPRESSAVG
ENERGY: 0 0.6973 19.3644 34.6930 0.0000 -25344.9470 4346.7595 0.0000 0.0000 3376.8020 -17566.6308 306.5640 -20943.4328 -17565.9279 306.5640 291.0059 329.4238 78516.8699 291.0059 329.4238
ENERGY: 5000 1.0281 19.4780 35.5989 0.0000 -26418.4947 4539.2665 0.0000 0.0000 332.6436 -21490.4796 30.1991 -21823.1232 -21489.7428 47.9161 -194.6100 -151.6163 55784.8476 -0.5654 -0.5545
ENERGY: 10000 0.7815 20.0579 34.6443 0.0000 -26715.8064 4801.7752 0.0000 0.0000 329.6419 -21528.9057 29.9266 -21858.5476 -21528.2295 30.2697 983.1769 1033.8981 55245.1553 -0.2828 -0.3739
ENERGY: 15000 0.8768 19.5255 34.9649 0.0000 -26562.2768 4624.0450 0.0000 0.0000 326.8108 -21556.0539 29.6696 -21882.8646 -21555.2097 29.8220 106.5240 150.0702 55524.8190 2.2154 2.2141
ENERGY: 20000 1.7688 19.8963 34.7258 0.0000 -26455.4178 4498.7463 0.0000 0.0000 326.4036 -21573.8770 29.6326 -21900.2806 -21572.8572 30.3549 -528.0719 -458.6810 55784.2246 4.2612 4.2045
ENERGY: 25000 0.9281 20.7804 34.1481 0.0000 -26358.5067 4395.9862 0.0000 0.0000 328.0303 -21578.6335 29.7803 -21906.6638 -21577.7504 30.2240 -989.3760 -924.4842 55808.1481 2.3218 2.2928
TCL: Running 25000 steps at 60 kelvin.
TCL: Setting parameter langevinTemp to 60
TCL: Running for 25000 steps
ETITLE: TS BOND ANGLE DIHED IMPRP ELECT VDW BOUNDARY MISC KINETIC TOTAL TEMP POTENTIAL TOTAL3 TEMPAVG PRESSURE GPRESSURE VOLUME PRESSAVG GPRESSAVG
ENERGY: 25000 0.9281 20.7804 34.1481 0.0000 -26358.5067 4395.9862 0.0000 0.0000 327.8642 -21578.7997 29.7652 -21906.6638 -21578.1023 29.7652 -982.9487 -924.5346 55808.1481 -982.9487 -924.5346
ENERGY: 30000 1.0216 21.5958 34.2103 0.0000 -26037.3950 4365.8576 0.0000 0.0000 662.7213 -20951.9883 60.1654 -21614.7097 -20948.9844 57.1329 -425.9721 -385.4583 55606.5814 5.3731 5.2836
ENERGY: 35000 1.3276 20.9446 35.9444 0.0000 -26167.0454 4432.2963 0.0000 0.0000 651.9834 -21024.5491 59.1905 -21676.5325 -21022.8958 60.0710 -322.2413 -269.3162 55411.9529 0.7446 0.5431
ENERGY: 40000 2.1259 19.8189 34.8666 0.0000 -26026.8287 4291.6491 0.0000 0.0000 656.4953 -21021.8728 59.6001 -21678.3681 -21019.8128 60.3240 -959.4996 -901.4024 55591.7765 4.9699 5.0692
ENERGY: 45000 1.2083 23.2837 34.0676 0.0000 -26508.0036 4734.4386 0.0000 0.0000 654.0704 -21060.9351 59.3800 -21715.0055 -21060.2775 60.1103 906.8316 950.0368 55166.9178 2.3223 2.4085
ENERGY: 50000 1.3246 20.9676 35.3167 0.0000 -26136.1595 4325.8774 0.0000 0.0000 662.9821 -21089.6911 60.1890 -21752.6732 -21088.1495 60.2128 -967.6747 -937.3209 55595.5915 -1.9714 -1.7469
TCL: Running 25000 steps at 90 kelvin.
TCL: Setting parameter langevinTemp to 90
TCL: Running for 25000 steps
ETITLE: TS BOND ANGLE DIHED IMPRP ELECT VDW BOUNDARY MISC KINETIC TOTAL TEMP POTENTIAL TOTAL3 TEMPAVG PRESSURE GPRESSURE VOLUME PRESSAVG GPRESSAVG
ENERGY: 50000 1.3246 20.9676 35.3167 0.0000 -26136.1595 4325.8774 0.0000 0.0000 662.6545 -21090.0187 60.1593 -21752.6732 -21088.7397 60.1593 -984.4145 -937.4643 55595.5915 -984.4145 -937.4643
ENERGY: 55000 1.8627 22.5270 36.5119 0.0000 -25856.6624 4333.3365 0.0000 0.0000 1000.4696 -20461.9546 90.8279 -21462.4242 -20459.5003 88.0274 -266.6448 -212.3737 55096.9013 1.3251 1.0949
ENERGY: 60000 2.0215 22.5300 36.7980 0.0000 -26044.5429 4453.7675 0.0000 0.0000 1002.9413 -20526.4845 91.0523 -21529.4258 -20523.9533 90.6806 46.2184 120.8641 54850.4648 3.6154 3.3785
ENERGY: 65000 2.9943 19.8509 36.6796 0.0000 -25980.4349 4391.4893 0.0000 0.0000 993.7043 -20535.7165 90.2137 -21529.4208 -20533.5056 89.8110 -175.7941 -116.7133 54759.6255 5.2511 5.0652
ENERGY: 70000 0.9582 22.1124 36.0534 0.0000 -26231.5856 4633.5159 0.0000 0.0000 1003.9186 -20535.0271 91.1410 -21538.9457 -20531.8224 89.9247 887.2357 979.5149 54509.6863 6.3999 6.2121
ENERGY: 75000 1.8879 20.8989 35.5245 0.0000 -26040.0147 4408.4106 0.0000 0.0000 1005.0247 -20568.2681 91.2415 -21573.2928 -20565.4587 90.4670 -184.2638 -129.4380 54786.6500 0.3548 0.2265
TCL: Running 25000 steps at 120 kelvin.
TCL: Setting parameter langevinTemp to 120
TCL: Running for 25000 steps
ETITLE: TS BOND ANGLE DIHED IMPRP ELECT VDW BOUNDARY MISC KINETIC TOTAL TEMP POTENTIAL TOTAL3 TEMPAVG PRESSURE GPRESSURE VOLUME PRESSAVG GPRESSAVG
ENERGY: 75000 1.8879 20.8989 35.5245 0.0000 -26040.0147 4408.4106 0.0000 0.0000 1004.5408 -20568.7520 91.1975 -21573.2928 -20566.5740 91.1975 -183.8409 -129.6109 54786.6500 -183.8409 -129.6109
ENERGY: 80000 2.0888 22.5783 36.4405 0.0000 -25611.1629 4363.4883 0.0000 0.0000 1329.6604 -19856.9065 120.7136 -21186.5670 -19853.5719 116.4258 389.4894 438.4550 54973.5474 1.2982 1.6520
ENERGY: 85000 2.3264 23.9426 34.7298 0.0000 -25560.3575 4279.4089 0.0000 0.0000 1332.2401 -19887.7097 120.9478 -21219.9498 -19883.5306 120.2168 -90.1922 -55.8854 54897.0173 -1.2154 -1.0986
ENERGY: 90000 2.0986 20.6318 36.2420 0.0000 -25688.1373 4350.9367 0.0000 0.0000 1323.9877 -19954.2405 120.1986 -21278.2282 -19951.5344 120.2199 105.5670 158.7352 54814.6719 3.4228 3.7114
ENERGY: 95000 2.6176 24.0039 35.1797 0.0000 -25722.3863 4323.3380 0.0000 0.0000 1340.7450 -19996.5020 121.7199 -21337.2470 -19992.9035 121.0408 4.5550 39.8670 54545.5311 1.3565 1.7369
ENERGY: 100000 1.5352 22.9971 35.1241 0.0000 -25698.4648 4262.1586 0.0000 0.0000 1339.5866 -20037.0632 121.6148 -21376.6498 -20033.8079 120.4140 -297.0537 -240.0933 54534.1672 6.9285 7.2183
TCL: Running 25000 steps at 150 kelvin.
TCL: Setting parameter langevinTemp to 150
TCL: Running for 25000 steps
ETITLE: TS BOND ANGLE DIHED IMPRP ELECT VDW BOUNDARY MISC KINETIC TOTAL TEMP POTENTIAL TOTAL3 TEMPAVG PRESSURE GPRESSURE VOLUME PRESSAVG GPRESSAVG
ENERGY: 100000 1.5352 22.9971 35.1241 0.0000 -25698.4648 4262.1586 0.0000 0.0000 1338.9184 -20037.7314 121.5541 -21376.6498 -20035.5849 121.5541 -286.7011 -240.4667 54534.1672 -286.7011 -240.4667
ENERGY: 105000 1.9822 22.3725 36.0851 0.0000 -25315.3016 4302.1464 0.0000 0.0000 1621.3359 -19331.3796 147.1935 -20952.7154 -19326.9680 146.2947 605.5748 686.2769 54589.7767 6.6435 6.1223
ENERGY: 110000 1.2137 26.3564 35.8859 0.0000 -25168.4846 4138.8511 0.0000 0.0000 1641.7510 -19324.4265 149.0469 -20966.1775 -19321.0376 149.8527 -150.5789 -66.6485 54783.4318 1.8976 1.7456
ENERGY: 115000 5.2929 21.7083 35.7730 0.0000 -25150.4641 4125.3838 0.0000 0.0000 1661.8587 -19300.4474 150.8723 -20962.3061 -19296.5274 150.6268 -275.0480 -271.2025 54807.7157 1.8897 1.7891
ENERGY: 120000 2.8448 23.4674 36.7361 0.0000 -25246.9646 4156.4741 0.0000 0.0000 1628.2139 -19399.2283 147.8179 -21027.4422 -19393.3796 150.0018 -216.3549 -146.7151 54553.4136 -1.3037 -1.0991
ENERGY: 125000 2.4073 24.6747 35.6144 0.0000 -25244.1765 4161.6364 0.0000 0.0000 1662.3039 -19357.5397 150.9128 -21019.8436 -19354.6463 150.1850 -78.4024 -32.5982 54681.4517 8.0991 8.5622
TCL: Running 50000 steps at 180 kelvin.
TCL: Setting parameter langevinTemp to 180
TCL: Running for 50000 steps
ETITLE: TS BOND ANGLE DIHED IMPRP ELECT VDW BOUNDARY MISC KINETIC TOTAL TEMP POTENTIAL TOTAL3 TEMPAVG PRESSURE GPRESSURE VOLUME PRESSAVG GPRESSAVG
ENERGY: 125000 2.4073 24.6747 35.6144 0.0000 -25244.1765 4161.6364 0.0000 0.0000 1661.4745 -19358.3691 150.8375 -21019.8436 -19354.5618 150.8375 -86.9748 -33.2886 54681.4517 -86.9748 -33.2886
ENERGY: 135000 3.9645 26.0872 37.6342 0.0000 -24662.2316 4022.3066 0.0000 0.0000 1995.1855 -18577.0536 181.1335 -20572.2392 -18570.5349 179.7371 86.2660 144.6371 55014.4084 2.4430 2.0100
ENERGY: 145000 2.4397 24.2680 37.4828 0.0000 -24508.3858 3978.8480 0.0000 0.0000 1997.6869 -18467.6603 181.3606 -20465.3472 -18464.0199 181.7708 177.9815 238.0377 54661.4327 0.2936 0.4683
ENERGY: 155000 3.2393 26.2594 37.4847 0.0000 -24628.1608 3984.8076 0.0000 0.0000 1993.3133 -18583.0564 180.9635 -20576.3697 -18578.4371 180.4007 -25.5890 21.8566 54605.3928 3.6872 4.0759
ENERGY: 165000 3.7177 28.5993 33.9302 0.0000 -24483.1512 3898.4929 0.0000 0.0000 1990.7705 -18527.6406 180.7327 -20518.4111 -18523.1038 180.1262 -342.2617 -290.6880 54650.0024 4.8082 4.8477
ENERGY: 175000 2.9451 22.1591 37.0785 0.0000 -24725.7491 3997.0742 0.0000 0.0000 2013.0013 -18653.4908 182.7509 -20666.4921 -18648.6538 179.3558 18.9381 104.2197 54287.0757 0.0925 0.2129
TCL: Running 50000 steps at 210 kelvin.
TCL: Setting parameter langevinTemp to 210
TCL: Running for 50000 steps
ETITLE: TS BOND ANGLE DIHED IMPRP ELECT VDW BOUNDARY MISC KINETIC TOTAL TEMP POTENTIAL TOTAL3 TEMPAVG PRESSURE GPRESSURE VOLUME PRESSAVG GPRESSAVG
ENERGY: 175000 2.9451 22.1591 37.0785 0.0000 -24725.7491 3997.0742 0.0000 0.0000 2011.9821 -18654.5100 182.6584 -20666.4921 -18651.1311 182.6584 46.6180 105.1839 54287.0757 46.6180 105.1839
ENERGY: 185000 3.8094 25.9294 37.9824 0.0000 -23263.0722 3471.0729 0.0000 0.0000 2290.7959 -17433.4822 207.9706 -19724.2781 -17430.0105 208.7941 -448.7657 -355.1511 54534.7309 3.7523 4.1018
ENERGY: 195000 5.0683 25.8059 34.6961 0.0000 -23296.1414 3509.3473 0.0000 0.0000 2361.0300 -17360.1939 214.3468 -19721.2239 -17356.2770 211.0451 -265.4254 -158.9316 54208.0664 6.9102 6.7521
ENERGY: 205000 4.5779 22.6384 37.3452 0.0000 -23175.5656 3439.9412 0.0000 0.0000 2312.2490 -17358.8140 209.9182 -19671.0629 -17353.1048 210.9704 -496.5569 -410.9528 54341.2721 2.7952 2.5257
ENERGY: 215000 4.0433 28.0365 35.5672 0.0000 -23260.1338 3470.0131 0.0000 0.0000 2295.5703 -17426.9033 208.4040 -19722.4736 -17422.6723 209.3326 -318.9305 -208.5898 53986.9481 5.0056 5.3963
ENERGY: 225000 3.0400 27.7525 35.4181 0.0000 -23388.6272 3619.6809 0.0000 0.0000 2321.9540 -17380.7817 210.7993 -19702.7358 -17377.4254 209.5616 417.6632 476.3638 53802.0951 4.3718 3.9272
TCL: Running 50000 steps at 240 kelvin.
TCL: Setting parameter langevinTemp to 240
TCL: Running for 50000 steps
ETITLE: TS BOND ANGLE DIHED IMPRP ELECT VDW BOUNDARY MISC KINETIC TOTAL TEMP POTENTIAL TOTAL3 TEMPAVG PRESSURE GPRESSURE VOLUME PRESSAVG GPRESSAVG
ENERGY: 225000 3.0400 27.7525 35.4181 0.0000 -23388.6272 3619.6809 0.0000 0.0000 2320.7921 -17381.9437 210.6938 -19702.7358 -17378.3766 210.6938 400.3649 475.9202 53802.0951 400.3649 475.9202
ENERGY: 235000 6.0550 27.9598 36.9808 0.0000 -22334.5455 3296.6738 0.0000 0.0000 2652.6241 -16314.2520 240.8193 -18966.8761 -16309.5824 239.4690 73.6195 166.3516 54820.4601 3.5493 3.8895
ENERGY: 245000 5.9435 25.8483 36.0214 0.0000 -22067.9123 3180.9824 0.0000 0.0000 2655.3000 -16163.8166 241.0622 -18819.1166 -16160.9809 240.8270 -173.1174 -92.1937 54807.1380 2.7694 2.7648
ENERGY: 255000 5.3976 26.6307 37.2520 0.0000 -22159.4169 3202.1696 0.0000 0.0000 2651.3121 -16236.6549 240.7002 -18887.9670 -16232.3744 239.6386 128.7211 216.8666 54071.1844 2.2839 2.0849
ENERGY: 265000 3.7922 28.6464 34.5251 0.0000 -21988.6255 3065.9563 0.0000 0.0000 2651.7878 -16203.9177 240.7433 -18855.7055 -16199.3378 239.8101 -596.3782 -502.1868 54389.0167 3.7717 3.3050
ENERGY: 275000 6.1882 26.5403 36.3285 0.0000 -22294.5556 3221.3487 0.0000 0.0000 2696.6415 -16307.5085 244.8154 -19004.1500 -16301.5081 240.0661 -222.7733 -178.1656 54424.4541 1.1158 1.1862
TCL: Running 50000 steps at 270 kelvin.
TCL: Setting parameter langevinTemp to 270
TCL: Running for 50000 steps
ETITLE: TS BOND ANGLE DIHED IMPRP ELECT VDW BOUNDARY MISC KINETIC TOTAL TEMP POTENTIAL TOTAL3 TEMPAVG PRESSURE GPRESSURE VOLUME PRESSAVG GPRESSAVG
ENERGY: 275000 6.1882 26.5403 36.3285 0.0000 -22294.5556 3221.3487 0.0000 0.0000 2695.3312 -16308.8188 244.6964 -19004.1500 -16304.7845 244.6964 -262.3957 -176.8354 54424.4541 -262.3957 -176.8354
ENERGY: 285000 4.8293 24.5409 37.4452 0.0000 -21112.2353 2991.7655 0.0000 0.0000 2994.5687 -15059.0857 271.8628 -18053.6544 -15050.4342 270.4849 454.7593 482.6196 55157.1249 -0.1322 -0.3368
ENERGY: 295000 7.3541 31.2685 37.0431 0.0000 -21279.2438 3101.5434 0.0000 0.0000 2984.6852 -15117.3495 270.9655 -18102.0347 -15116.3414 269.8670 548.5941 646.6192 55590.8069 1.4435 1.6907
ENERGY: 305000 4.0031 34.4602 35.3927 0.0000 -21004.6259 2935.1035 0.0000 0.0000 2914.2850 -15081.3813 264.5742 -17995.6663 -15075.9973 270.2691 54.5275 111.6971 55936.7325 0.5555 1.1886
ENERGY: 315000 4.3942 25.5089 35.3584 0.0000 -21125.8657 3022.6525 0.0000 0.0000 3012.9412 -15025.0105 273.5308 -18037.9517 -15021.6803 270.6610 532.9536 590.5410 55641.1462 -0.9587 -0.7474
ENERGY: 325000 4.6177 26.3185 39.0645 0.0000 -21128.7384 2909.6786 0.0000 0.0000 3074.1872 -15074.8719 279.0910 -18149.0591 -15065.8610 270.4172 -245.2230 -79.2061 55552.4614 3.9271 4.3005
TCL: Running 1000000 steps at 300 kelvin.
TCL: Setting parameter langevinTemp to 300
TCL: Running for 1000000 steps
ETITLE: TS BOND ANGLE DIHED IMPRP ELECT VDW BOUNDARY MISC KINETIC TOTAL TEMP POTENTIAL TOTAL3 TEMPAVG PRESSURE GPRESSURE VOLUME PRESSAVG GPRESSAVG
ENERGY: 325000 4.6177 26.3185 39.0645 0.0000 -21128.7384 2909.6786 0.0000 0.0000 3072.7533 -15076.3059 278.9608 -18149.0591 -15071.0401 278.9608 -157.2515 -78.0864 55552.4614 -157.2515 -78.0864
ENERGY: 525000 7.3212 31.0459 36.2019 0.0000 -20013.3420 2596.3162 0.0000 0.0000 3274.0805 -14068.3763 297.2384 -17342.4568 -14064.2172 299.9117 -533.2321 -407.3415 57081.6736 2.9158 3.0574
ENERGY: 725000 7.8691 30.5028 37.2534 0.0000 -20028.9946 2646.9663 0.0000 0.0000 3321.3624 -13985.0404 301.5309 -17306.4028 -13981.8465 300.0301 -157.7090 -68.0066 57289.0615 5.7560 6.3815
ENERGY: 925000 4.4207 26.7050 38.3512 0.0000 -20161.4548 2752.4775 0.0000 0.0000 3298.3859 -14041.1145 299.4449 -17339.5004 -14036.5650 300.3226 159.0591 258.6252 57551.7967 1.5994 2.0681
ENERGY: 1125000 3.7784 27.4020 37.0178 0.0000 -19975.1374 2648.3110 0.0000 0.0000 3277.3650 -13981.2633 297.5365 -17258.6282 -13976.6642 300.5790 -199.8763 -133.7778 57628.1694 -2.9404 -2.7192
ENERGY: 1325000 5.4554 25.3237 38.8947 0.0000 -20040.8665 2696.4208 0.0000 0.0000 3321.2171 -13953.5549 301.5177 -17274.7720 -13950.1963 300.9564 11.3928 61.5130 57448.0290 1.5723 1.5339
TCL: Exiting due to exit command.
