Info: SIMULATION PARAMETERS:
Info: TIMESTEP               2
Info: NUMBER OF STEPS        0
Info: STEPS PER CYCLE        10
Info: PERIODIC CELL BASIS 1  32.2601 0 0
Info: PERIODIC CELL BASIS 2  0 30.2042 0
Info: PERIODIC CELL BASIS 3  0 0 31.494
Info: PERIODIC CELL CENTER   0 0 0
Info: WRAPPING WATERS AROUND PERIODIC BOUNDARIES ON OUTPUT.
Info: WRAPPING ALL CLUSTERS AROUND PERIODIC BOUNDARIES ON OUTPUT.
Info: FIRST LDB TIMESTEP     50
Info: LAST LDB TIMESTEP     -1
Info: HOM BACKGROUND SCALING 1
Info: PME BACKGROUND SCALING 1
Info: MIN ATOMS PER PATCH    40
Info: EMPTY PATCH LOAD       40 ATOMS
Info: VELOCITY FILE          mobley_4553008_equil.vel
Info: CENTER OF MASS MOVING INITIALLY? NO
Info: DIELECTRIC             1
Info: EXCLUDE                SCALED ONE-FOUR
Info: 1-4 ELECTROSTATICS SCALED BY 0.833333
Info: MODIFIED 1-4 VDW PARAMETERS WILL BE USED
Info: DCD FILENAME           mobley_4553008_prod.dcd
Info: DCD FREQUENCY          100000
Info: DCD FIRST STEP         100000
Info: DCD FILE WILL CONTAIN UNIT CELL DATA
Info: XST FILENAME           mobley_4553008_prod.xst
Info: XST FREQUENCY          100000
Info: NO VELOCITY DCD OUTPUT
Info: NO FORCE DCD OUTPUT
Info: OUTPUT FILENAME        mobley_4553008_prod
Info: BINARY OUTPUT FILES WILL BE USED
Info: RESTART FILENAME       mobley_4553008_prod.restart
Info: RESTART FREQUENCY      100000
Info: BINARY RESTART FILES WILL BE USED
Info: CUTOFF                 9
Info: PAIRLIST DISTANCE      11
Info: PAIRLIST SHRINK RATE   0.01
Info: PAIRLIST GROW RATE     0.01
Info: PAIRLIST TRIGGER       0.3
Info: PAIRLISTS PER CYCLE    2
Info: PAIRLISTS ENABLED
Info: MARGIN                 2
Info: HYDROGEN GROUP CUTOFF  2.5
Info: PATCH DIMENSION        15.5
Info: ENERGY OUTPUT STEPS    100000
Info: ENERGY EVALUATION STEPS    100000
Info: OUTPUT ENERGY PRECISION 4
Info: CROSSTERM ENERGY INCLUDED IN DIHEDRAL
Info: TIMING OUTPUT STEPS    1000000
Info: PRESSURE OUTPUT STEPS  100000
Info: ALCHEMICAL FEP ON
Info: FEP CURRENT LAMBDA VALUE     1
Info: FEP COMPARISON LAMBDA VALUE  0.95
Info: FEP INTRA-ALCHEMICAL NON-BONDED INTERACTIONS WILL BE RETAINED
Info: FEP INTRA-ALCHEMICAL BONDED INTERACTIONS WILL BE RETAINED
Info: FEP VDW SHIFTING COEFFICIENT 5
Info: FEP ELEC. ACTIVE FOR ANNIHILATED PARTICLES BETWEEN LAMBDA = 0 AND LAMBDA = 0.5
Info: FEP ELEC. ACTIVE FOR EXNIHILATED PARTICLES BETWEEN LAMBDA = 0.5 AND LAMBDA = 1
Info: FEP VDW ACTIVE FOR ANNIHILATED PARTICLES BETWEEN LAMBDA = 0 AND LAMBDA = 1
Info: FEP VDW ACTIVE FOR EXNIHILATED PARTICLES BETWEEN LAMBDA = 0 AND LAMBDA = 1
Info: FEP BOND ACTIVE FOR ANNIHILATED PARTICLES BETWEEN LAMBDA = 1 AND LAMBDA = 1
Info: FEP BOND ACTIVE FOR EXNIHILATED PARTICLES BETWEEN LAMBDA = 0 AND LAMBDA = 0
Info: LANGEVIN DYNAMICS ACTIVE
Info: LANGEVIN TEMPERATURE   300
Info: LANGEVIN USING BBK INTEGRATOR
Info: LANGEVIN DAMPING COEFFICIENT IS 1 INVERSE PS
Info: LANGEVIN DYNAMICS APPLIED TO HYDROGENS
Info: LANGEVIN PISTON PRESSURE CONTROL ACTIVE
Info:        TARGET PRESSURE IS 1.01325 BAR
Info:     OSCILLATION PERIOD IS 50 FS
Info:             DECAY TIME IS 25 FS
Info:     PISTON TEMPERATURE IS 300 K
Info:       PRESSURE CONTROL IS GROUP-BASED
Info:    INITIAL STRAIN RATE IS -0.000191085 -0.000191085 -0.000191085
Info:       CELL FLUCTUATION IS ISOTROPIC
Info: PARTICLE MESH EWALD (PME) ACTIVE
Info: PME TOLERANCE               1e-06
Info: PME EWALD COEFFICIENT       0.348832
Info: PME INTERPOLATION ORDER     4
Info: PME GRID DIMENSIONS         36 32 32
Info: PME MAXIMUM GRID SPACING    1
Info: PME CALCULATION WILL BE PERFORMED ON GPU
Info: FULL ELECTROSTATIC EVALUATION FREQUENCY      2
Info: USING VERLET I (r-RESPA) MTS SCHEME.
Info: C1 SPLITTING OF LONG RANGE ELECTROSTATICS
Info: PLACING ATOMS IN PATCHES BY HYDROGEN GROUPS
Info: RIGID BONDS TO HYDROGEN : ALL
Info:         ERROR TOLERANCE : 1e-08
Info:          MAX ITERATIONS : 100
Info: RIGID WATER USING SETTLE ALGORITHM
Info: RANDOM NUMBER SEED     1742247886
Info: USE HYDROGEN BONDS?    NO
Info: Using AMBER format force field!
Info: AMBER PARM FILE        mobley_4553008.prmtop
Info: COORDINATE PDB         mobley_4553008.pdb
Info: Exclusions will be read from PARM file!
Info: SCNB (VDW SCALING)     2
Info: USING ARITHMETIC MEAN TO COMBINE L-J SIGMA PARAMETERS
Info: BINARY COORDINATES     mobley_4553008_equil.coor
Info: SUMMARY OF PARAMETERS:
Info: 5 BONDS
Info: 3 ANGLES
Info:   3 HARMONIC
Info:   0 COSINE-BASED
Info: 2 DIHEDRAL
Info: 0 IMPROPER
Info: 0 CROSSTERM
Info: 0 VDW
Info: 15 VDW_PAIRS
Info: 0 NBTHOLE_PAIRS
Info: To read alchdata from file: mobley_4553008.pdb
Info: To read alchflag data from column: 5
Info: STRUCTURE SUMMARY:
Info: 2979 ATOMS
Info: 2979 BONDS
Info: 18 ANGLES
Info: 30 DIHEDRALS
Info: 0 IMPROPERS
Info: 0 CROSSTERMS
Info: 3018 EXCLUSIONS
Info: 2971 RIGID BONDS
Info: ALCH: 0 ATOMS TO DISAPPEAR IN FINAL STATE
Info: ALCH: 12 ATOMS TO APPEAR IN FINAL STATE
Info: 5966 DEGREES OF FREEDOM
Info: 997 HYDROGEN GROUPS
Info: 3 ATOMS IN LARGEST HYDROGEN GROUP
Info: 997 MIGRATION GROUPS
Info: 3 ATOMS IN LARGEST MIGRATION GROUP
Info: TOTAL MASS = 17964.8 amu
Info: TOTAL CHARGE = 0.000300009 e
Info: MASS DENSITY = 0.972126 g/cm^3
Info: ATOM DENSITY = 0.0970758 atoms/A^3
Info: ADDED 0 IMPLICIT EXCLUSIONS
Info: NONBONDED TABLE R-SQUARED SPACING: 0.0625
Info: NONBONDED TABLE SIZE: 705 POINTS
Info: REMOVING COM VELOCITY 0.144654 -0.126286 -0.0336651
Info: Use 3D box decompostion in PME FFT.
Info: Updated CUDA force table with 4096 elements.
Info: Updated CUDA LJ table with 5 x 5 elements.
Info: Found 14 unique exclusion lists needing 24 bytes
TCL: Running for 1500000 steps
ETITLE: TS BOND ANGLE DIHED IMPRP ELECT VDW BOUNDARY MISC KINETIC TOTAL TEMP POTENTIAL TOTALAVG TEMPAVG PRESSURE GPRESSURE VOLUME PRESSAVG GPRESSAVG
ENERGY: 0 2.9979 3.0827 4.5349 0.0000 -10797.1186 1463.6655 0.0000 0.0000 1732.3255 -7590.5122 292.2380 -9322.8377 -7590.5122 292.2380 126.3354 218.6636 30687.3479 126.3354 218.6636
ENERGY: 300000 3.6395 2.8586 2.8416 0.0000 -10868.5007 1460.4700 0.0000 0.0000 1716.8526 -7681.8383 289.6277 -9398.6909 -7603.1530 293.7655 -333.3599 -216.0632 30715.4748 193.3775 286.5261
ENERGY: 600000 3.1066 4.9585 4.3058 0.0000 -10963.7697 1584.6938 0.0000 0.0000 1809.9110 -7556.7941 305.3264 -9366.7051 -7615.9981 293.7984 1168.8132 1213.5378 30521.1057 195.8078 269.7742
ENERGY: 900000 6.1921 3.1136 3.7481 0.0000 -10824.4310 1488.2641 0.0000 0.0000 1716.7359 -7606.3773 289.6080 -9323.1132 -7607.1605 293.8270 13.9540 96.4417 31174.7405 59.6119 131.2630
ENERGY: 1200000 1.4703 2.0568 4.8261 0.0000 -10721.0008 1439.0163 0.0000 0.0000 1755.0759 -7518.5554 296.0759 -9273.6313 -7591.0454 294.8955 89.3568 156.4284 30931.1677 100.6895 168.2220
ENERGY: 1500000 2.3727 2.8496 3.2632 0.0000 -10776.0095 1432.4853 0.0000 0.0000 1821.9269 -7513.1118 307.3534 -9335.0387 -7576.7101 296.1634 121.9213 176.0379 30554.0768 79.8143 150.5780
TCL: Running FEP window   2: Lambda1 0.95   Lambda2 0.8999999999999999 [dLambda -0.050000000000000044]
TCL: Setting parameter firsttimestep to 0
TCL: Setting parameter alchLambda to 0.95
Info: NONBONDED TABLE R-SQUARED SPACING: 0.0625
Info: NONBONDED TABLE SIZE: 705 POINTS
TCL: Setting parameter alchLambda2 to 0.8999999999999999
Info: NONBONDED TABLE R-SQUARED SPACING: 0.0625
Info: NONBONDED TABLE SIZE: 705 POINTS
TCL: Running for 1500000 steps
ETITLE: TS BOND ANGLE DIHED IMPRP ELECT VDW BOUNDARY MISC KINETIC TOTAL TEMP POTENTIAL TOTALAVG TEMPAVG PRESSURE GPRESSURE VOLUME PRESSAVG GPRESSAVG
ENERGY: 0 2.3727 2.8496 3.2632 0.0000 -10775.2962 1432.8277 0.0000 0.0000 1821.0577 -7512.9253 307.2068 -9333.9830 -7512.9253 307.2068 89.5041 169.6388 30554.0768 89.5041 169.6388
ENERGY: 300000 2.9777 5.6346 3.1927 0.0000 -10876.0486 1499.2533 0.0000 0.0000 1729.3230 -7635.6672 291.7315 -9364.9903 -7580.8198 300.3108 312.1288 349.9382 30720.7940 129.1282 181.5790
ENERGY: 600000 2.8864 1.3723 3.4308 0.0000 -10911.2824 1511.4962 0.0000 0.0000 1739.2261 -7652.8706 293.4021 -9392.0967 -7594.2627 299.1878 674.6479 648.5940 30081.0423 160.8109 210.4759
ENERGY: 900000 1.4915 3.3251 2.2930 0.0000 -10876.7505 1508.3929 0.0000 0.0000 1806.3270 -7554.9211 304.7218 -9361.2481 -7577.9982 301.0484 345.5912 359.5353 31031.2019 140.7167 193.4847
ENERGY: 1200000 2.4476 2.4170 2.6988 0.0000 -10788.9956 1433.6616 0.0000 0.0000 1775.8193 -7571.9512 299.5752 -9347.7705 -7581.4987 301.1626 -262.9667 -138.7254 30602.8349 31.4526 97.9004
ENERGY: 1500000 1.0615 1.7790 3.1586 0.0000 -10699.1989 1407.8946 0.0000 0.0000 1789.4701 -7495.8350 301.8781 -9285.3051 -7566.1021 302.1054 -257.8944 -202.0991 31009.7440 -2.4272 57.4166
TCL: Running FEP window   3: Lambda1 0.8999999999999999 Lambda2 0.8499999999999999 [dLambda -0.050000000000000044]
TCL: Setting parameter firsttimestep to 0
TCL: Setting parameter alchLambda to 0.8999999999999999
Info: NONBONDED TABLE R-SQUARED SPACING: 0.0625
Info: NONBONDED TABLE SIZE: 705 POINTS
TCL: Setting parameter alchLambda2 to 0.8499999999999999
Info: NONBONDED TABLE R-SQUARED SPACING: 0.0625
Info: NONBONDED TABLE SIZE: 705 POINTS
TCL: Running for 1500000 steps
ETITLE: TS BOND ANGLE DIHED IMPRP ELECT VDW BOUNDARY MISC KINETIC TOTAL TEMP POTENTIAL TOTALAVG TEMPAVG PRESSURE GPRESSURE VOLUME PRESSAVG GPRESSAVG
ENERGY: 0 1.0615 1.7790 3.1586 0.0000 -10699.0266 1408.0987 0.0000 0.0000 1788.5643 -7496.3644 301.7253 -9284.9287 -7496.3644 301.7253 -289.4138 -209.8727 31009.7440 -289.4138 -209.8727
ENERGY: 300000 3.5393 2.4376 1.6361 0.0000 -10764.7711 1460.7890 0.0000 0.0000 1731.6803 -7564.6889 292.1291 -9296.3691 -7531.4851 300.5422 -51.6978 73.9898 30886.3710 -3.3346 57.9737
ENERGY: 600000 0.6601 1.6700 2.2195 0.0000 -10626.8441 1353.5398 0.0000 0.0000 1748.7481 -7520.0065 295.0084 -9268.7546 -7524.3365 299.8061 -475.4459 -319.0354 30700.9296 -144.8136 -74.8954
ENERGY: 900000 1.5139 2.3173 3.8645 0.0000 -10845.6801 1463.8564 0.0000 0.0000 1767.8420 -7606.2859 298.2295 -9374.1279 -7544.6846 298.1733 -26.0740 53.2983 30916.6995 -186.7587 -119.2797
ENERGY: 1200000 3.2630 2.5384 0.7269 0.0000 -10892.3662 1470.1110 0.0000 0.0000 1747.3821 -7668.3448 294.7780 -9415.7269 -7559.5093 298.3288 -22.0514 62.3260 30712.7206 -123.0372 -47.1082
ENERGY: 1500000 2.1480 1.7246 2.2894 0.0000 -10927.2476 1500.2698 0.0000 0.0000 1787.2990 -7633.5167 301.5118 -9420.8157 -7567.2316 298.5844 370.9766 395.9374 30196.3282 -82.9587 -16.9342
TCL: Running FEP window   4: Lambda1 0.8499999999999999 Lambda2 0.7999999999999998 [dLambda -0.050000000000000044]
TCL: Setting parameter firsttimestep to 0
TCL: Setting parameter alchLambda to 0.8499999999999999
Info: NONBONDED TABLE R-SQUARED SPACING: 0.0625
Info: NONBONDED TABLE SIZE: 705 POINTS
TCL: Setting parameter alchLambda2 to 0.7999999999999998
Info: NONBONDED TABLE R-SQUARED SPACING: 0.0625
Info: NONBONDED TABLE SIZE: 705 POINTS
TCL: Running for 1500000 steps
ETITLE: TS BOND ANGLE DIHED IMPRP ELECT VDW BOUNDARY MISC KINETIC TOTAL TEMP POTENTIAL TOTALAVG TEMPAVG PRESSURE GPRESSURE VOLUME PRESSAVG GPRESSAVG
ENERGY: 0 2.1480 1.7246 2.2894 0.0000 -10926.9511 1500.4443 0.0000 0.0000 1786.4221 -7633.9226 301.3639 -9420.3448 -7633.9226 301.3639 302.4078 384.8420 30196.3282 302.4078 384.8420
ENERGY: 300000 1.1830 4.5659 1.7876 0.0000 -10811.1171 1441.4528 0.0000 0.0000 1801.9039 -7560.2238 303.9756 -9362.1277 -7584.3589 300.4173 59.1781 44.1264 30572.8243 -2.5807 79.0138
ENERGY: 600000 3.0808 1.8995 6.4628 0.0000 -10913.4000 1508.2095 0.0000 0.0000 1765.0846 -7628.6628 297.7643 -9393.7474 -7570.8815 300.7997 206.7181 317.6323 30510.8247 -42.0638 58.7047
ENERGY: 900000 4.5703 3.0446 2.2383 0.0000 -10738.3656 1330.3917 0.0000 0.0000 1772.5773 -7625.5434 299.0283 -9398.1207 -7561.6668 301.9588 -1492.5135 -1415.2884 31478.0273 -114.0607 -28.6881
ENERGY: 1200000 2.5112 1.5807 5.3485 0.0000 -10616.8658 1345.6693 0.0000 0.0000 1768.8812 -7492.8748 298.4048 -9261.7560 -7561.0948 301.4460 -630.0844 -606.5583 30833.0698 -113.7818 -31.8122
ENERGY: 1500000 3.2672 4.1514 3.7917 0.0000 -10888.4526 1478.3761 0.0000 0.0000 1738.6857 -7660.1806 293.3109 -9398.8662 -7568.6495 300.4754 165.8113 243.7343 30581.6383 -64.1348 14.7841
TCL: Running FEP window   5: Lambda1 0.7999999999999998 Lambda2 0.7499999999999998 [dLambda -0.050000000000000044]
TCL: Setting parameter firsttimestep to 0
TCL: Setting parameter alchLambda to 0.7999999999999998
Info: NONBONDED TABLE R-SQUARED SPACING: 0.0625
Info: NONBONDED TABLE SIZE: 705 POINTS
TCL: Setting parameter alchLambda2 to 0.7499999999999998
Info: NONBONDED TABLE R-SQUARED SPACING: 0.0625
Info: NONBONDED TABLE SIZE: 705 POINTS
TCL: Running for 1500000 steps
ETITLE: TS BOND ANGLE DIHED IMPRP ELECT VDW BOUNDARY MISC KINETIC TOTAL TEMP POTENTIAL TOTALAVG TEMPAVG PRESSURE GPRESSURE VOLUME PRESSAVG GPRESSAVG
ENERGY: 0 3.2672 4.1514 3.7917 0.0000 -10888.2131 1478.6057 0.0000 0.0000 1737.7780 -7660.6191 293.1578 -9398.3971 -7660.6191 293.1578 146.0423 233.6681 30581.6383 146.0423 233.6681
ENERGY: 300000 3.4931 2.2661 4.0254 0.0000 -10915.7123 1491.3060 0.0000 0.0000 1820.1361 -7594.4856 307.0513 -9414.6217 -7577.1690 301.1494 147.3573 203.8746 30624.2626 60.5513 131.8657
ENERGY: 600000 2.6149 3.0788 3.1399 0.0000 -10909.4077 1519.3763 0.0000 0.0000 1764.6006 -7616.5971 297.6827 -9381.1978 -7582.1501 301.7149 865.9693 883.0963 30023.3481 411.4013 471.5896
ENERGY: 900000 2.1834 4.8200 3.1265 0.0000 -10672.9210 1325.3198 0.0000 0.0000 1819.9931 -7517.4781 307.0272 -9337.4712 -7581.5672 302.9746 -881.0061 -862.9991 30855.0270 239.6298 288.7501
ENERGY: 1200000 2.2423 2.8631 2.0438 0.0000 -10877.1602 1481.6322 0.0000 0.0000 1795.7714 -7592.6074 302.9411 -9388.3788 -7587.0261 301.6347 297.7843 374.8285 30468.5704 246.6948 296.9994
ENERGY: 1500000 1.3030 4.2928 2.4282 0.0000 -10745.6294 1429.6025 0.0000 0.0000 1763.8821 -7544.1209 297.5615 -9308.0030 -7576.9175 301.4182 -144.6613 -154.4144 30990.2530 157.4626 212.0355
TCL: Running FEP window   6: Lambda1 0.7499999999999998 Lambda2 0.6999999999999997 [dLambda -0.050000000000000044]
TCL: Setting parameter firsttimestep to 0
TCL: Setting parameter alchLambda to 0.7499999999999998
Info: NONBONDED TABLE R-SQUARED SPACING: 0.0625
Info: NONBONDED TABLE SIZE: 705 POINTS
TCL: Setting parameter alchLambda2 to 0.6999999999999997
Info: NONBONDED TABLE R-SQUARED SPACING: 0.0625
Info: NONBONDED TABLE SIZE: 705 POINTS
TCL: Running for 1500000 steps
ETITLE: TS BOND ANGLE DIHED IMPRP ELECT VDW BOUNDARY MISC KINETIC TOTAL TEMP POTENTIAL TOTALAVG TEMPAVG PRESSURE GPRESSURE VOLUME PRESSAVG GPRESSAVG
ENERGY: 0 1.3030 4.2928 2.4282 0.0000 -10745.4998 1430.3785 0.0000 0.0000 1762.9652 -7544.1322 297.4068 -9307.0973 -7544.1322 297.4068 -243.7632 -156.5906 30990.2530 -243.7632 -156.5906
ENERGY: 300000 3.3133 3.5089 1.6451 0.0000 -10868.3015 1457.4878 0.0000 0.0000 1777.8056 -7624.5408 299.9103 -9402.3463 -7553.9765 301.4589 -137.2645 -25.3246 30466.7103 55.1370 134.6183
ENERGY: 600000 2.1645 1.0916 1.8328 0.0000 -10857.8206 1425.3098 0.0000 0.0000 1739.3686 -7688.0534 293.4261 -9427.4220 -7576.5114 298.5422 -516.2534 -445.9314 30719.9131 35.2134 112.7490
ENERGY: 900000 1.8820 3.4471 1.2432 0.0000 -10916.0181 1564.5410 0.0000 0.0000 1743.4395 -7601.4653 294.1129 -9344.9048 -7572.7981 298.9944 1041.5695 1071.5530 30430.5869 182.2471 250.5365
ENERGY: 1200000 1.2595 3.9964 3.1053 0.0000 -10734.2596 1319.6931 0.0000 0.0000 1773.9021 -7632.3032 299.2518 -9406.2054 -7574.6715 299.7948 -1216.0589 -1110.4613 30579.3577 -6.9392 60.7555
ENERGY: 1500000 0.8367 3.7442 3.8516 0.0000 -10655.6498 1360.1355 0.0000 0.0000 1796.4663 -7490.6154 303.0583 -9287.0817 -7566.4350 299.7435 -806.5492 -742.4550 31104.6505 -138.6973 -75.3469
TCL: Running FEP window   7: Lambda1 0.6999999999999997 Lambda2 0.6499999999999997 [dLambda -0.050000000000000044]
TCL: Setting parameter firsttimestep to 0
TCL: Setting parameter alchLambda to 0.6999999999999997
Info: NONBONDED TABLE R-SQUARED SPACING: 0.0625
Info: NONBONDED TABLE SIZE: 705 POINTS
TCL: Setting parameter alchLambda2 to 0.6499999999999997
Info: NONBONDED TABLE R-SQUARED SPACING: 0.0625
Info: NONBONDED TABLE SIZE: 705 POINTS
TCL: Running for 1500000 steps
ETITLE: TS BOND ANGLE DIHED IMPRP ELECT VDW BOUNDARY MISC KINETIC TOTAL TEMP POTENTIAL TOTALAVG TEMPAVG PRESSURE GPRESSURE VOLUME PRESSAVG GPRESSAVG
ENERGY: 0 0.8367 3.7442 3.8516 0.0000 -10655.1157 1360.2372 0.0000 0.0000 1795.5667 -7490.8791 302.9066 -9286.4458 -7490.8791 302.9066 -843.4080 -747.4193 31104.6505 -843.4080 -747.4193
ENERGY: 300000 1.2118 2.3794 3.7441 0.0000 -10826.9151 1474.5688 0.0000 0.0000 1743.6314 -7601.3797 294.1452 -9345.0111 -7545.4272 299.4238 191.0197 274.1471 30519.5657 -521.4823 -452.2551
ENERGY: 600000 2.4805 2.9915 2.5656 0.0000 -10868.3279 1456.5630 0.0000 0.0000 1832.8496 -7570.8776 309.1961 -9403.7273 -7565.7532 301.4722 202.8601 230.5008 30206.9796 -255.1956 -191.9822
ENERGY: 900000 0.7065 1.2911 4.2251 0.0000 -10862.6186 1481.9438 0.0000 0.0000 1777.0930 -7597.3592 299.7901 -9374.4521 -7578.7189 300.5928 340.1849 358.5208 30183.7072 -120.1595 -64.3103
ENERGY: 1200000 0.7899 2.2881 0.8706 0.0000 -10826.1843 1489.7498 0.0000 0.0000 1774.7891 -7557.6968 299.4014 -9332.4859 -7572.3038 300.9499 358.4220 425.8204 30584.0421 -76.9308 -21.6308
ENERGY: 1500000 1.4751 1.5102 4.0152 0.0000 -10881.9615 1509.4410 0.0000 0.0000 1791.8925 -7573.6275 302.2867 -9365.5200 -7571.6446 300.6107 264.4327 288.3853 30868.9899 56.6561 108.4542
TCL: Running FEP window   8: Lambda1 0.6499999999999997 Lambda2 0.5999999999999996 [dLambda -0.050000000000000044]
TCL: Setting parameter firsttimestep to 0
TCL: Setting parameter alchLambda to 0.6499999999999997
Info: NONBONDED TABLE R-SQUARED SPACING: 0.0625
Info: NONBONDED TABLE SIZE: 705 POINTS
TCL: Setting parameter alchLambda2 to 0.5999999999999996
Info: NONBONDED TABLE R-SQUARED SPACING: 0.0625
Info: NONBONDED TABLE SIZE: 705 POINTS
TCL: Running for 1500000 steps
ETITLE: TS BOND ANGLE DIHED IMPRP ELECT VDW BOUNDARY MISC KINETIC TOTAL TEMP POTENTIAL TOTALAVG TEMPAVG PRESSURE GPRESSURE VOLUME PRESSAVG GPRESSAVG
ENERGY: 0 1.4751 1.5102 4.0152 0.0000 -10881.5339 1509.8069 0.0000 0.0000 1791.0055 -7573.7211 302.1371 -9364.7265 -7573.7211 302.1371 196.9573 283.0461 30868.9899 196.9573 283.0461
ENERGY: 300000 5.1450 2.6235 2.7458 0.0000 -10891.1314 1516.4703 0.0000 0.0000 1754.7817 -7609.3652 296.0262 -9364.1469 -7579.6971 301.2144 408.1954 424.3913 30855.7395 -34.4518 22.4062
ENERGY: 600000 2.6508 1.5614 3.2353 0.0000 -10878.7705 1459.1822 0.0000 0.0000 1801.9689 -7610.1720 303.9866 -9412.1409 -7583.0437 300.7549 -136.4272 -39.4587 30563.7136 -42.1305 18.6210
ENERGY: 900000 3.7633 1.3596 2.0798 0.0000 -10835.9596 1458.0615 0.0000 0.0000 1760.4229 -7610.2725 296.9779 -9370.6954 -7575.6623 300.5860 56.5172 109.8346 30418.9076 -73.3847 -21.7581
ENERGY: 1200000 2.4347 2.7740 3.8169 0.0000 -10871.1383 1523.9218 0.0000 0.0000 1753.0116 -7585.1792 295.7277 -9338.1908 -7575.0966 300.0723 483.8407 535.9239 30856.8862 27.9914 85.6914
ENERGY: 1500000 2.1289 2.8866 4.3671 0.0000 -10961.5755 1536.6566 0.0000 0.0000 1710.3857 -7705.1507 288.5368 -9415.5364 -7585.2019 299.2097 593.9491 610.3121 30189.8159 76.0855 131.0121
TCL: Running FEP window   9: Lambda1 0.5999999999999996 Lambda2 0.5499999999999996 [dLambda -0.050000000000000044]
TCL: Setting parameter firsttimestep to 0
TCL: Setting parameter alchLambda to 0.5999999999999996
Info: NONBONDED TABLE R-SQUARED SPACING: 0.0625
Info: NONBONDED TABLE SIZE: 705 POINTS
TCL: Setting parameter alchLambda2 to 0.5499999999999996
Info: NONBONDED TABLE R-SQUARED SPACING: 0.0625
Info: NONBONDED TABLE SIZE: 705 POINTS
TCL: Running for 1500000 steps
ETITLE: TS BOND ANGLE DIHED IMPRP ELECT VDW BOUNDARY MISC KINETIC TOTAL TEMP POTENTIAL TOTALAVG TEMPAVG PRESSURE GPRESSURE VOLUME PRESSAVG GPRESSAVG
ENERGY: 0 2.1289 2.8866 4.3671 0.0000 -10961.4138 1537.0630 0.0000 0.0000 1709.4982 -7705.4701 288.3871 -9414.9683 -7705.4701 288.3871 532.4306 607.5490 30189.8159 532.4306 607.5490
ENERGY: 300000 0.6769 2.0614 2.1219 0.0000 -10676.7053 1382.2147 0.0000 0.0000 1788.4719 -7501.1586 301.7097 -9289.6304 -7578.2547 297.2533 -539.7680 -478.1128 30946.5347 -550.8380 -485.7797
ENERGY: 600000 2.4208 2.9762 4.7639 0.0000 -10833.8202 1467.7088 0.0000 0.0000 1718.6855 -7637.2649 289.9369 -9355.9505 -7606.3142 295.9423 205.2082 200.8640 30576.8072 -430.1231 -366.7628
ENERGY: 900000 1.0009 3.9829 1.0986 0.0000 -10828.0079 1414.7408 0.0000 0.0000 1797.5422 -7609.6423 303.2398 -9407.1845 -7592.1143 297.2679 -423.7806 -392.4865 30930.8922 -327.6522 -268.7032
ENERGY: 1200000 6.1562 2.0946 4.4622 0.0000 -10777.5226 1448.8367 0.0000 0.0000 1767.1702 -7548.8027 298.1162 -9315.9730 -7592.8576 296.9337 24.6049 132.0510 30934.6800 -251.7017 -189.5658
ENERGY: 1500000 3.0097 5.8849 3.8679 0.0000 -10841.9564 1477.3882 0.0000 0.0000 1735.2614 -7616.5443 292.7332 -9351.8057 -7586.7390 297.4731 251.4281 344.4157 30417.7567 -187.5498 -118.3399
TCL: Running FEP window  10: Lambda1 0.5499999999999996 Lambda2 0.4999999999999996 [dLambda -0.04999999999999999]
TCL: Setting parameter firsttimestep to 0
TCL: Setting parameter alchLambda to 0.5499999999999996
Info: NONBONDED TABLE R-SQUARED SPACING: 0.0625
Info: NONBONDED TABLE SIZE: 705 POINTS
TCL: Setting parameter alchLambda2 to 0.4999999999999996
Info: NONBONDED TABLE R-SQUARED SPACING: 0.0625
Info: NONBONDED TABLE SIZE: 705 POINTS
TCL: Running for 1500000 steps
ETITLE: TS BOND ANGLE DIHED IMPRP ELECT VDW BOUNDARY MISC KINETIC TOTAL TEMP POTENTIAL TOTALAVG TEMPAVG PRESSURE GPRESSURE VOLUME PRESSAVG GPRESSAVG
ENERGY: 0 3.0097 5.8849 3.8679 0.0000 -10842.2035 1477.2222 0.0000 0.0000 1734.3611 -7617.8576 292.5814 -9352.2187 -7617.8576 292.5814 251.2897 331.6391 30417.7567 251.2897 331.6391
ENERGY: 300000 2.1942 2.6112 3.2778 0.0000 -10980.8978 1541.4879 0.0000 0.0000 1824.4010 -7606.9258 307.7708 -9431.3268 -7577.3875 300.3623 485.9207 603.1939 30417.9065 185.8126 257.6520
ENERGY: 600000 1.1115 2.3064 3.5833 0.0000 -10899.0788 1488.3539 0.0000 0.0000 1792.8766 -7610.8471 302.4528 -9403.7238 -7592.4859 298.1948 236.6003 365.2543 30527.6737 155.1937 234.1654
ENERGY: 900000 2.0099 1.5845 2.8994 0.0000 -10849.7875 1487.1366 0.0000 0.0000 1777.9975 -7578.1595 299.9427 -9356.1570 -7585.7903 298.4979 -64.8216 -14.5169 30988.7044 95.7333 160.7639
ENERGY: 1200000 4.0950 0.6904 3.5353 0.0000 -10875.5319 1485.3630 0.0000 0.0000 1852.7832 -7529.0650 312.5588 -9381.8482 -7578.8492 299.2640 240.7164 300.8925 30263.9315 51.5900 109.4738
ENERGY: 1500000 3.8334 2.5419 3.4086 0.0000 -10858.7820 1531.2521 0.0000 0.0000 1809.0139 -7508.7321 305.1751 -9317.7461 -7569.6567 300.2345 394.0481 567.5652 30574.7643 44.1815 106.3143
TCL: Running FEP window  11: Lambda1 0.4999999999999996 Lambda2 0.4499999999999996 [dLambda -0.04999999999999999]
TCL: Setting parameter firsttimestep to 0
TCL: Setting parameter alchLambda to 0.4999999999999996
Info: NONBONDED TABLE R-SQUARED SPACING: 0.0625
Info: NONBONDED TABLE SIZE: 705 POINTS
TCL: Setting parameter alchLambda2 to 0.4499999999999996
Info: NONBONDED TABLE R-SQUARED SPACING: 0.0625
Info: NONBONDED TABLE SIZE: 705 POINTS
TCL: Running for 1500000 steps
ETITLE: TS BOND ANGLE DIHED IMPRP ELECT VDW BOUNDARY MISC KINETIC TOTAL TEMP POTENTIAL TOTALAVG TEMPAVG PRESSURE GPRESSURE VOLUME PRESSAVG GPRESSAVG
ENERGY: 0 3.8333 2.5419 3.4086 0.0000 -10858.6427 1531.5380 0.0000 0.0000 1808.1534 -7509.1675 305.0299 -9317.3209 -7509.1675 305.0299 475.8272 563.4095 30574.7643 475.8272 563.4095
ENERGY: 300000 1.8031 5.7675 2.5561 0.0000 -10814.3028 1517.2989 0.0000 0.0000 1751.2102 -7535.6671 295.4237 -9286.8773 -7525.9531 304.2208 456.0662 487.1968 30809.0123 207.9864 280.7680
ENERGY: 600000 3.4718 1.4856 2.7915 0.0000 -10938.3824 1515.2946 0.0000 0.0000 1811.1075 -7604.2314 305.5282 -9415.3390 -7559.5577 303.7556 335.6928 457.0824 30278.4548 217.2690 284.6626
ENERGY: 900000 4.1155 2.5049 5.2967 0.0000 -10718.0471 1406.8679 0.0000 0.0000 1693.4127 -7605.8493 285.6735 -9299.2620 -7560.0915 301.4308 -354.2657 -278.1649 30495.1445 160.2927 233.0572
ENERGY: 1200000 1.8454 2.4221 4.1867 0.0000 -10757.7208 1366.4515 0.0000 0.0000 1764.7118 -7618.1033 297.7014 -9382.8150 -7551.9768 301.2326 -879.7472 -855.5129 30878.0473 42.9972 108.4494
ENERGY: 1500000 3.6130 1.0169 2.9906 0.0000 -10789.7199 1415.5063 0.0000 0.0000 1804.3971 -7562.1960 304.3962 -9366.5931 -7546.7660 301.6413 -599.6966 -499.4827 30820.3506 -60.3355 6.4626
TCL: Running FEP window  12: Lambda1 0.4499999999999996 Lambda2 0.39999999999999963 [dLambda -0.04999999999999999]
TCL: Setting parameter firsttimestep to 0
TCL: Setting parameter alchLambda to 0.4499999999999996
Info: NONBONDED TABLE R-SQUARED SPACING: 0.0625
Info: NONBONDED TABLE SIZE: 705 POINTS
TCL: Setting parameter alchLambda2 to 0.39999999999999963
Info: NONBONDED TABLE R-SQUARED SPACING: 0.0625
Info: NONBONDED TABLE SIZE: 705 POINTS
TCL: Running for 1500000 steps
ETITLE: TS BOND ANGLE DIHED IMPRP ELECT VDW BOUNDARY MISC KINETIC TOTAL TEMP POTENTIAL TOTALAVG TEMPAVG PRESSURE GPRESSURE VOLUME PRESSAVG GPRESSAVG
ENERGY: 0 3.6130 1.0169 2.9906 0.0000 -10789.7208 1416.1580 0.0000 0.0000 1803.5098 -7562.4325 304.2465 -9365.9424 -7562.4325 304.2465 -578.4490 -495.2162 30820.3506 -578.4490 -495.2162
ENERGY: 300000 1.6173 3.3732 2.7551 0.0000 -10710.9176 1371.4971 0.0000 0.0000 1755.4255 -7576.2494 296.1349 -9331.6749 -7593.1485 298.7707 -745.9340 -696.6535 30791.1735 -273.8849 -214.6757
ENERGY: 600000 2.7712 5.1799 3.3558 0.0000 -10818.3945 1452.2418 0.0000 0.0000 1819.0540 -7535.7918 306.8688 -9354.8458 -7582.0447 299.7217 237.6587 350.4879 30242.5595 -239.9746 -170.9259
ENERGY: 900000 1.8242 4.9027 3.8776 0.0000 -10828.6850 1426.6907 0.0000 0.0000 1762.9039 -7628.4857 297.3965 -9391.3896 -7585.6418 299.9143 -250.9423 -217.6293 30514.8881 -219.0064 -155.0474
ENERGY: 1200000 1.8749 2.6656 3.5536 0.0000 -10809.8009 1405.8912 0.0000 0.0000 1761.2122 -7634.6036 297.1111 -9395.8158 -7589.9683 299.9094 -357.0548 -324.4690 30359.2235 -208.0802 -138.8298
ENERGY: 1500000 0.8752 3.1539 1.5754 0.0000 -10707.0332 1399.7746 0.0000 0.0000 1778.6610 -7522.9932 300.0546 -9301.6542 -7575.5736 299.8581 -376.5543 -355.5084 30610.3548 -273.0073 -208.4593
TCL: Running FEP window  13: Lambda1 0.39999999999999963 Lambda2 0.34999999999999964 [dLambda -0.04999999999999999]
TCL: Setting parameter firsttimestep to 0
TCL: Setting parameter alchLambda to 0.39999999999999963
Info: NONBONDED TABLE R-SQUARED SPACING: 0.0625
Info: NONBONDED TABLE SIZE: 705 POINTS
TCL: Setting parameter alchLambda2 to 0.34999999999999964
Info: NONBONDED TABLE R-SQUARED SPACING: 0.0625
Info: NONBONDED TABLE SIZE: 705 POINTS
TCL: Running for 1500000 steps
ETITLE: TS BOND ANGLE DIHED IMPRP ELECT VDW BOUNDARY MISC KINETIC TOTAL TEMP POTENTIAL TOTALAVG TEMPAVG PRESSURE GPRESSURE VOLUME PRESSAVG GPRESSAVG
ENERGY: 0 0.8752 3.1539 1.5754 0.0000 -10707.0318 1400.1785 0.0000 0.0000 1777.8136 -7523.4353 299.9117 -9301.2489 -7523.4353 299.9117 -444.5114 -357.2551 30610.3548 -444.5114 -357.2551
ENERGY: 300000 0.9909 0.6005 2.6277 0.0000 -10831.5748 1512.8151 0.0000 0.0000 1752.2730 -7562.2676 295.6030 -9314.5406 -7549.9296 300.4420 424.7721 445.0558 30769.4576 -145.6290 -61.3948
ENERGY: 600000 3.4324 4.2348 1.5923 0.0000 -10679.5838 1358.4277 0.0000 0.0000 1729.0091 -7582.8875 291.6785 -9311.8966 -7572.4476 299.1575 -1247.7361 -1055.3967 31300.4223 -390.5827 -305.1537
ENERGY: 900000 1.6169 3.2608 1.8004 0.0000 -10859.0970 1508.4743 0.0000 0.0000 1823.5730 -7520.3716 307.6311 -9343.9446 -7561.2587 300.3043 605.3501 647.1586 30358.7483 -307.7406 -238.1433
ENERGY: 1200000 1.0299 3.9318 3.5415 0.0000 -10784.6419 1402.9603 0.0000 0.0000 1811.5191 -7561.6592 305.5977 -9373.1783 -7565.8663 300.0536 -336.2847 -278.3332 30261.0638 -292.2135 -225.1481
ENERGY: 1500000 0.9504 2.6900 2.7168 0.0000 -10779.0029 1414.4039 0.0000 0.0000 1793.5241 -7564.7177 302.5620 -9358.2417 -7570.9383 300.0894 -496.1830 -415.3781 30876.2060 -258.4535 -187.9193
TCL: Running FEP window  14: Lambda1 0.34999999999999964 Lambda2 0.29999999999999966 [dLambda -0.04999999999999999]
TCL: Setting parameter firsttimestep to 0
TCL: Setting parameter alchLambda to 0.34999999999999964
Info: NONBONDED TABLE R-SQUARED SPACING: 0.0625
Info: NONBONDED TABLE SIZE: 705 POINTS
TCL: Setting parameter alchLambda2 to 0.29999999999999966
Info: NONBONDED TABLE R-SQUARED SPACING: 0.0625
Info: NONBONDED TABLE SIZE: 705 POINTS
TCL: Running for 1500000 steps
ETITLE: TS BOND ANGLE DIHED IMPRP ELECT VDW BOUNDARY MISC KINETIC TOTAL TEMP POTENTIAL TOTALAVG TEMPAVG PRESSURE GPRESSURE VOLUME PRESSAVG GPRESSAVG
ENERGY: 0 0.9504 2.6900 2.7168 0.0000 -10779.0028 1414.7420 0.0000 0.0000 1792.6489 -7565.2546 302.4143 -9357.9035 -7565.2546 302.4143 -518.7704 -419.1467 30876.2060 -518.7704 -419.1467
ENERGY: 300000 2.0120 2.5553 4.9358 0.0000 -10666.5700 1424.5605 0.0000 0.0000 1779.6709 -7452.8355 300.2250 -9232.5065 -7515.2033 298.3055 92.0393 119.1418 30753.9697 -256.0782 -185.0471
ENERGY: 600000 1.8082 2.7356 3.3090 0.0000 -10660.1825 1364.5466 0.0000 0.0000 1743.7968 -7543.9863 294.1731 -9287.7831 -7533.3378 298.0203 -661.6632 -661.1554 30906.9992 -236.5517 -167.9508
ENERGY: 900000 3.1139 4.2743 1.5041 0.0000 -10942.7580 1596.1297 0.0000 0.0000 1767.4084 -7570.3275 298.1563 -9337.7359 -7548.7080 298.0573 1395.3302 1417.5927 30387.0338 17.3321 77.3507
ENERGY: 1200000 2.1188 3.8009 3.3508 0.0000 -10886.7184 1465.2301 0.0000 0.0000 1792.6274 -7619.5903 302.4107 -9412.2178 -7556.5498 298.6751 -54.0035 -59.2052 30437.7891 -29.6619 30.1089
ENERGY: 1500000 2.1315 2.3065 5.7512 0.0000 -10887.9492 1567.8389 0.0000 0.0000 1799.5963 -7510.3248 303.5863 -9309.9211 -7558.0512 299.5368 1103.1219 1147.8719 30487.5694 -32.4396 24.8552
TCL: Running FEP window  15: Lambda1 0.29999999999999966 Lambda2 0.24999999999999967 [dLambda -0.04999999999999999]
TCL: Setting parameter firsttimestep to 0
TCL: Setting parameter alchLambda to 0.29999999999999966
Info: NONBONDED TABLE R-SQUARED SPACING: 0.0625
Info: NONBONDED TABLE SIZE: 705 POINTS
TCL: Setting parameter alchLambda2 to 0.24999999999999967
Info: NONBONDED TABLE R-SQUARED SPACING: 0.0625
Info: NONBONDED TABLE SIZE: 705 POINTS
TCL: Running for 1500000 steps
ETITLE: TS BOND ANGLE DIHED IMPRP ELECT VDW BOUNDARY MISC KINETIC TOTAL TEMP POTENTIAL TOTALAVG TEMPAVG PRESSURE GPRESSURE VOLUME PRESSAVG GPRESSAVG
ENERGY: 0 2.1315 2.3065 5.7512 0.0000 -10887.9493 1567.7457 0.0000 0.0000 1798.7187 -7511.2957 303.4383 -9310.0145 -7511.2957 303.4383 1055.5976 1141.7951 30487.5694 1055.5976 1141.7951
ENERGY: 300000 0.7992 1.4184 1.0663 0.0000 -10784.5999 1411.5857 0.0000 0.0000 1773.2179 -7596.5124 299.1364 -9369.7303 -7585.7679 300.6395 -272.4585 -236.0140 30401.3813 59.2569 132.9071
ENERGY: 600000 2.5676 4.1337 2.3543 0.0000 -10758.9327 1450.1810 0.0000 0.0000 1774.8993 -7524.7967 299.4200 -9299.6960 -7590.2680 298.7467 -54.9296 27.2305 30812.3194 6.4096 87.4802
ENERGY: 900000 0.9122 2.4923 2.6113 0.0000 -10913.8988 1515.9377 0.0000 0.0000 1761.2449 -7630.7005 297.1166 -9391.9454 -7595.1938 298.0390 306.3619 333.7359 30537.2287 -39.8750 38.7543
ENERGY: 1200000 1.2204 2.2273 2.3417 0.0000 -10853.4950 1468.8001 0.0000 0.0000 1773.8098 -7605.0958 299.2362 -9378.9055 -7583.0202 299.0766 30.9883 132.2190 30639.0568 -58.9295 24.1214
ENERGY: 1500000 3.8500 1.4556 1.8669 0.0000 -10809.8952 1420.4234 0.0000 0.0000 1802.1403 -7580.1590 304.0155 -9382.2993 -7571.8943 300.0050 -340.7564 -367.9878 30776.7714 -163.9099 -93.1686
TCL: Running FEP window  16: Lambda1 0.24999999999999967 Lambda2 0.19999999999999968 [dLambda -0.04999999999999999]
TCL: Setting parameter firsttimestep to 0
TCL: Setting parameter alchLambda to 0.24999999999999967
Info: NONBONDED TABLE R-SQUARED SPACING: 0.0625
Info: NONBONDED TABLE SIZE: 705 POINTS
TCL: Setting parameter alchLambda2 to 0.19999999999999968
Info: NONBONDED TABLE R-SQUARED SPACING: 0.0625
Info: NONBONDED TABLE SIZE: 705 POINTS
TCL: Running for 1500000 steps
ETITLE: TS BOND ANGLE DIHED IMPRP ELECT VDW BOUNDARY MISC KINETIC TOTAL TEMP POTENTIAL TOTALAVG TEMPAVG PRESSURE GPRESSURE VOLUME PRESSAVG GPRESSAVG
ENERGY: 0 3.8500 1.4556 1.8669 0.0000 -10809.8952 1420.8444 0.0000 0.0000 1801.2540 -7580.6242 303.8660 -9381.8783 -7580.6242 303.8660 -452.7598 -367.3811 30776.7714 -452.7598 -367.3811
ENERGY: 300000 3.3542 0.4227 3.2468 0.0000 -10757.3121 1408.7438 0.0000 0.0000 1837.0372 -7504.5074 309.9025 -9341.5445 -7535.8708 302.7237 -205.2422 -228.3162 30421.8668 -530.2252 -504.6887
ENERGY: 600000 1.3419 3.7730 1.4048 0.0000 -10643.2889 1424.1116 0.0000 0.0000 1789.2414 -7423.4162 301.8395 -9212.6576 -7521.3313 302.3298 -200.6476 -124.7127 31076.6785 -533.0162 -491.4390
ENERGY: 900000 4.1341 2.6994 2.8541 0.0000 -10787.4017 1437.8157 0.0000 0.0000 1801.2446 -7538.6538 303.8644 -9339.8984 -7536.2274 302.1982 -155.3673 -90.2049 30534.2820 -377.4029 -334.0605
ENERGY: 1200000 4.8433 2.5056 1.1324 0.0000 -10822.6547 1423.0918 0.0000 0.0000 1836.8225 -7554.2590 309.8663 -9391.0816 -7536.8362 302.7520 -385.2485 -341.9022 30668.7491 -366.2927 -322.3299
ENERGY: 1500000 5.2585 2.4613 1.3345 0.0000 -10794.1785 1453.7036 0.0000 0.0000 1758.1873 -7573.2333 296.6008 -9331.4206 -7533.7855 302.7882 -232.7053 -183.4233 30550.7325 -358.4017 -315.7794
TCL: Running FEP window  17: Lambda1 0.19999999999999968 Lambda2 0.1499999999999997 [dLambda -0.04999999999999999]
TCL: Setting parameter firsttimestep to 0
TCL: Setting parameter alchLambda to 0.19999999999999968
Info: NONBONDED TABLE R-SQUARED SPACING: 0.0625
Info: NONBONDED TABLE SIZE: 705 POINTS
TCL: Setting parameter alchLambda2 to 0.1499999999999997
Info: NONBONDED TABLE R-SQUARED SPACING: 0.0625
Info: NONBONDED TABLE SIZE: 705 POINTS
TCL: Running for 1500000 steps
ETITLE: TS BOND ANGLE DIHED IMPRP ELECT VDW BOUNDARY MISC KINETIC TOTAL TEMP POTENTIAL TOTALAVG TEMPAVG PRESSURE GPRESSURE VOLUME PRESSAVG GPRESSAVG
ENERGY: 0 5.2585 2.4613 1.3345 0.0000 -10794.1777 1453.5318 0.0000 0.0000 1757.2957 -7574.2959 296.4504 -9331.5916 -7574.2959 296.4504 -276.0433 -186.6082 30550.7325 -276.0433 -186.6082
ENERGY: 300000 4.7049 1.4357 3.5942 0.0000 -11012.5022 1585.5238 0.0000 0.0000 1751.5333 -7665.7103 295.4783 -9417.2436 -7583.3594 299.6533 1117.5295 1147.9204 30194.0372 309.4158 372.8175
ENERGY: 600000 4.3447 4.9373 1.9336 0.0000 -10624.5145 1331.5698 0.0000 0.0000 1812.0655 -7469.6638 305.6898 -9281.7292 -7558.9240 299.3815 -814.1413 -765.9337 30709.3890 67.6082 117.7022
ENERGY: 900000 2.6209 3.6216 2.5684 0.0000 -10803.0538 1435.7930 0.0000 0.0000 1745.5175 -7612.9323 294.4634 -9358.4498 -7564.3608 298.3583 -390.8740 -337.9408 30880.9770 -56.4835 -9.5349
ENERGY: 1200000 1.4736 3.1325 2.0856 0.0000 -10808.9663 1471.1753 0.0000 0.0000 1819.6429 -7511.4564 306.9681 -9331.0993 -7562.0777 299.5178 -97.6511 -107.3140 31061.1384 -37.7944 14.2265
ENERGY: 1500000 2.6629 1.7835 2.6561 0.0000 -10804.3745 1425.8464 0.0000 0.0000 1799.9022 -7571.5236 303.6379 -9371.4258 -7558.9559 300.3830 -515.1776 -450.9902 31076.0990 -76.0091 -23.5423
TCL: Running FEP window  18: Lambda1 0.1499999999999997 Lambda2 0.09999999999999969 [dLambda -0.05 ]
TCL: Setting parameter firsttimestep to 0
TCL: Setting parameter alchLambda to 0.1499999999999997
Info: NONBONDED TABLE R-SQUARED SPACING: 0.0625
Info: NONBONDED TABLE SIZE: 705 POINTS
TCL: Setting parameter alchLambda2 to 0.09999999999999969
Info: NONBONDED TABLE R-SQUARED SPACING: 0.0625
Info: NONBONDED TABLE SIZE: 705 POINTS
TCL: Running for 1500000 steps
ETITLE: TS BOND ANGLE DIHED IMPRP ELECT VDW BOUNDARY MISC KINETIC TOTAL TEMP POTENTIAL TOTALAVG TEMPAVG PRESSURE GPRESSURE VOLUME PRESSAVG GPRESSAVG
ENERGY: 0 2.6629 1.7835 2.6561 0.0000 -10804.3758 1425.4856 0.0000 0.0000 1799.0447 -7572.7430 303.4933 -9371.7878 -7572.7430 303.4933 -531.0375 -455.3512 31076.0990 -531.0375 -455.3512
ENERGY: 300000 4.5926 2.6654 2.4479 0.0000 -10927.4703 1492.7948 0.0000 0.0000 1745.6051 -7679.3643 294.4782 -9424.9694 -7618.6507 298.6348 -25.3227 -27.1099 30479.9557 -213.1200 -173.2152
ENERGY: 600000 2.5450 2.3711 1.9368 0.0000 -11071.8579 1642.5850 0.0000 0.0000 1793.4226 -7628.9974 302.5448 -9422.4200 -7580.6061 300.6545 1255.0208 1362.7942 30023.4469 124.4529 190.1255
ENERGY: 900000 2.4415 2.6988 2.9388 0.0000 -10771.3022 1438.8226 0.0000 0.0000 1730.4402 -7593.9603 291.9199 -9324.4005 -7574.4098 299.4199 -206.5957 -114.0679 30665.7156 19.7717 89.9109
ENERGY: 1200000 3.6762 2.3411 1.8169 0.0000 -10699.2426 1322.3915 0.0000 0.0000 1743.9119 -7625.1051 294.1926 -9369.0170 -7577.6643 298.6799 -1100.4325 -1016.0570 30484.9149 -198.5625 -128.6716
ENERGY: 1500000 2.7337 1.6747 2.8007 0.0000 -10870.5807 1532.2085 0.0000 0.0000 1775.1519 -7556.0113 299.4626 -9331.1632 -7576.3586 298.7179 914.5815 903.6472 30178.6947 -184.4380 -126.3879
TCL: Running FEP window  19: Lambda1 0.09999999999999969 Lambda2 0.049999999999999684 [dLambda -0.05 ]
TCL: Setting parameter firsttimestep to 0
TCL: Setting parameter alchLambda to 0.09999999999999969
Info: NONBONDED TABLE R-SQUARED SPACING: 0.0625
Info: NONBONDED TABLE SIZE: 705 POINTS
TCL: Setting parameter alchLambda2 to 0.049999999999999684
Info: NONBONDED TABLE R-SQUARED SPACING: 0.0625
Info: NONBONDED TABLE SIZE: 705 POINTS
TCL: Running for 1500000 steps
ETITLE: TS BOND ANGLE DIHED IMPRP ELECT VDW BOUNDARY MISC KINETIC TOTAL TEMP POTENTIAL TOTALAVG TEMPAVG PRESSURE GPRESSURE VOLUME PRESSAVG GPRESSAVG
ENERGY: 0 2.7337 1.6747 2.8007 0.0000 -10870.5799 1531.1978 0.0000 0.0000 1774.2612 -7557.9119 299.3124 -9332.1731 -7557.9119 299.3124 803.2331 895.9903 30178.6947 803.2331 895.9903
ENERGY: 300000 4.6494 1.7438 3.7362 0.0000 -10710.8092 1390.8876 0.0000 0.0000 1806.2537 -7503.5384 304.7094 -9309.7921 -7542.7806 299.4552 -586.5527 -475.2175 30580.4386 64.5430 139.2539
ENERGY: 600000 1.5306 1.2819 2.1907 0.0000 -10836.5312 1450.4038 0.0000 0.0000 1731.8839 -7649.2402 292.1635 -9381.1241 -7568.5203 298.0282 -121.5188 -21.6936 30491.2307 22.1372 83.3998
ENERGY: 900000 1.6665 1.4685 1.5700 0.0000 -10867.2645 1482.9234 0.0000 0.0000 1734.5940 -7645.0421 292.6207 -9379.6361 -7571.3877 297.7322 316.7926 380.7170 30071.4143 31.9373 100.8209
ENERGY: 1200000 1.9724 2.1897 1.5965 0.0000 -10610.4480 1335.3910 0.0000 0.0000 1751.1633 -7518.1352 295.4158 -9269.2984 -7570.3922 297.6661 -725.3266 -672.4169 30517.5437 -113.4621 -42.7349
ENERGY: 1500000 2.5970 1.5944 1.6384 0.0000 -10740.7182 1386.8203 0.0000 0.0000 1805.3052 -7542.7628 304.5494 -9348.0680 -7563.7141 298.9472 -638.2954 -598.4660 30990.1148 -180.3247 -108.2493
TCL: Running FEP window  20: Lambda1 0.049999999999999684 Lambda2 0.0    [dLambda -0.049999999999999684]
TCL: Setting parameter firsttimestep to 0
TCL: Setting parameter alchLambda to 0.049999999999999684
Info: NONBONDED TABLE R-SQUARED SPACING: 0.0625
Info: NONBONDED TABLE SIZE: 705 POINTS
TCL: Setting parameter alchLambda2 to 0.0
Info: NONBONDED TABLE R-SQUARED SPACING: 0.0625
Info: NONBONDED TABLE SIZE: 705 POINTS
TCL: Running for 1500000 steps
ETITLE: TS BOND ANGLE DIHED IMPRP ELECT VDW BOUNDARY MISC KINETIC TOTAL TEMP POTENTIAL TOTALAVG TEMPAVG PRESSURE GPRESSURE VOLUME PRESSAVG GPRESSAVG
ENERGY: 0 2.5970 1.5944 1.6384 0.0000 -10740.7170 1387.3220 0.0000 0.0000 1804.3896 -7543.1755 304.3950 -9347.5652 -7543.1755 304.3950 -669.5104 -598.6365 30990.1148 -669.5104 -598.6365
ENERGY: 300000 1.7827 1.2235 2.9770 0.0000 -10723.8360 1411.6074 0.0000 0.0000 1783.8166 -7522.4288 300.9244 -9306.2455 -7528.1786 301.0001 -349.1911 -308.6622 30710.7449 -547.6720 -508.1650
ENERGY: 600000 0.6542 1.3708 3.7103 0.0000 -10653.4903 1311.1319 0.0000 0.0000 1774.7487 -7561.8743 299.3946 -9336.6230 -7525.3454 301.5426 -1124.3729 -1037.7568 30533.2216 -399.4176 -340.2575
ENERGY: 900000 3.4526 1.8989 4.0727 0.0000 -10829.0614 1471.9482 0.0000 0.0000 1734.7909 -7612.8981 292.6539 -9347.6890 -7541.6314 300.8339 -52.1108 73.0567 30650.4143 -371.6416 -299.6592
ENERGY: 1200000 1.3317 2.2785 0.9113 0.0000 -10711.5347 1441.7958 0.0000 0.0000 1784.3511 -7480.8662 301.0145 -9265.2173 -7540.7014 300.2246 10.3307 32.8582 30960.5102 -292.5906 -221.2965
ENERGY: 1500000 1.1266 4.2965 1.9471 0.0000 -10785.8282 1423.5584 0.0000 0.0000 1840.1449 -7514.7547 310.4268 -9354.8996 -7542.2000 300.2197 106.6447 155.8494 29899.8563 -221.8371 -147.5792
TCL: Exiting due to exit command.
