Info: SIMULATION PARAMETERS:
Info: TIMESTEP               2
Info: NUMBER OF STEPS        0
Info: STEPS PER CYCLE        10
Info: PERIODIC CELL BASIS 1  36.592 0 0
Info: PERIODIC CELL BASIS 2  0 35.779 0
Info: PERIODIC CELL BASIS 3  0 0 34.471
Info: PERIODIC CELL CENTER   0 0 0
Info: WRAPPING WATERS AROUND PERIODIC BOUNDARIES ON OUTPUT.
Info: WRAPPING ALL CLUSTERS AROUND PERIODIC BOUNDARIES ON OUTPUT.
Info: FIRST LDB TIMESTEP     50
Info: LAST LDB TIMESTEP     -1
Info: HOM BACKGROUND SCALING 1
Info: PME BACKGROUND SCALING 1
Info: MIN ATOMS PER PATCH    40
Info: EMPTY PATCH LOAD       40 ATOMS
Info: INITIAL TEMPERATURE    300
Info: CENTER OF MASS MOVING INITIALLY? NO
Info: DIELECTRIC             1
Info: EXCLUDE                SCALED ONE-FOUR
Info: 1-4 ELECTROSTATICS SCALED BY 0.833333
Info: MODIFIED 1-4 VDW PARAMETERS WILL BE USED
Info: DCD FILENAME           mobley_3211679_equil.dcd
Info: DCD FREQUENCY          100000
Info: DCD FIRST STEP         100000
Info: DCD FILE WILL CONTAIN UNIT CELL DATA
Info: XST FILENAME           mobley_3211679_equil.xst
Info: XST FREQUENCY          100000
Info: NO VELOCITY DCD OUTPUT
Info: NO FORCE DCD OUTPUT
Info: OUTPUT FILENAME        mobley_3211679_equil
Info: BINARY OUTPUT FILES WILL BE USED
Info: RESTART FILENAME       mobley_3211679_equil.restart
Info: RESTART FREQUENCY      100000
Info: BINARY RESTART FILES WILL BE USED
Info: CUTOFF                 9
Info: PAIRLIST DISTANCE      11
Info: PAIRLIST SHRINK RATE   0.01
Info: PAIRLIST GROW RATE     0.01
Info: PAIRLIST TRIGGER       0.3
Info: PAIRLISTS PER CYCLE    2
Info: PAIRLISTS ENABLED
Info: MARGIN                 8
Info: HYDROGEN GROUP CUTOFF  2.5
Info: PATCH DIMENSION        21.5
Info: ENERGY OUTPUT STEPS    100000
Info: ENERGY EVALUATION STEPS    100000
Info: OUTPUT ENERGY PRECISION 4
Info: CROSSTERM ENERGY INCLUDED IN DIHEDRAL
Info: TIMING OUTPUT STEPS    1000000
Info: PRESSURE OUTPUT STEPS  100000
Info: LANGEVIN DYNAMICS ACTIVE
Info: LANGEVIN TEMPERATURE   30
Info: LANGEVIN USING BBK INTEGRATOR
Info: LANGEVIN DAMPING COEFFICIENT IS 1 INVERSE PS
Info: LANGEVIN DYNAMICS APPLIED TO HYDROGENS
Info: LANGEVIN PISTON PRESSURE CONTROL ACTIVE
Info:        TARGET PRESSURE IS 1.01325 BAR
Info:     OSCILLATION PERIOD IS 50 FS
Info:             DECAY TIME IS 25 FS
Info:     PISTON TEMPERATURE IS 300 K
Info:       PRESSURE CONTROL IS GROUP-BASED
Info:    INITIAL STRAIN RATE IS 0 0 0
Info:       CELL FLUCTUATION IS ISOTROPIC
Info: PARTICLE MESH EWALD (PME) ACTIVE
Info: PME TOLERANCE               1e-06
Info: PME EWALD COEFFICIENT       0.348832
Info: PME INTERPOLATION ORDER     4
Info: PME GRID DIMENSIONS         40 36 36
Info: PME MAXIMUM GRID SPACING    1
Info: FULL ELECTROSTATIC EVALUATION FREQUENCY      2
Info: USING VERLET I (r-RESPA) MTS SCHEME.
Info: C1 SPLITTING OF LONG RANGE ELECTROSTATICS
Info: PLACING ATOMS IN PATCHES BY HYDROGEN GROUPS
Info: RIGID BONDS TO HYDROGEN : ALL
Info:         ERROR TOLERANCE : 1e-08
Info:          MAX ITERATIONS : 100
Info: RIGID WATER USING SETTLE ALGORITHM
Info: RANDOM NUMBER SEED     1742261786
Info: USE HYDROGEN BONDS?    NO
Info: Using AMBER format force field!
Info: AMBER PARM FILE        mobley_3211679.prmtop
Info: COORDINATE PDB         mobley_3211679.pdb
Info: Exclusions will be read from PARM file!
Info: SCNB (VDW SCALING)     2
Info: USING ARITHMETIC MEAN TO COMBINE L-J SIGMA PARAMETERS
Info: BINARY COORDINATES     mobley_3211679_min.coor
Info: SUMMARY OF PARAMETERS:
Info: 7 BONDS
Info: 8 ANGLES
Info:   8 HARMONIC
Info:   0 COSINE-BASED
Info: 10 DIHEDRAL
Info: 0 IMPROPER
Info: 0 CROSSTERM
Info: 0 VDW
Info: 21 VDW_PAIRS
Info: 0 NBTHOLE_PAIRS
Info: STRUCTURE SUMMARY:
Info: 2983 ATOMS
Info: 2983 BONDS
Info: 30 ANGLES
Info: 45 DIHEDRALS
Info: 0 IMPROPERS
Info: 0 CROSSTERMS
Info: 3053 EXCLUSIONS
Info: 2977 RIGID BONDS
Info: 5972 DEGREES OF FREEDOM
Info: 995 HYDROGEN GROUPS
Info: 3 ATOMS IN LARGEST HYDROGEN GROUP
Info: 995 MIGRATION GROUPS
Info: 3 ATOMS IN LARGEST MIGRATION GROUP
Info: TOTAL MASS = 17900 amu
Info: TOTAL CHARGE = -0.000200011 e
Info: MASS DENSITY = 0.658633 g/cm^3
Info: ATOM DENSITY = 0.0660975 atoms/A^3
Info: ADDED 0 IMPLICIT EXCLUSIONS
Info: NONBONDED TABLE R-SQUARED SPACING: 0.0625
Info: NONBONDED TABLE SIZE: 705 POINTS
Info: REMOVING COM VELOCITY -0.106328 0.251635 -0.141676
TCL: Running for 100000 steps
ETITLE: TS BOND ANGLE DIHED IMPRP ELECT VDW BOUNDARY MISC KINETIC TOTAL TEMP POTENTIAL TOTAL3 TEMPAVG PRESSURE GPRESSURE VOLUME PRESSAVG GPRESSAVG
ENERGY: 0 0.1258 0.2199 1.4687 0.0000 -13775.9328 2440.1663 0.0000 0.0000 1794.0130 -9539.9391 302.3404 -11333.9521 -9539.5819 302.3404 577.7940 613.0432 45130.3008 577.7940 613.0432
ENERGY: 100000 0.2959 1.1480 1.5967 0.0000 -14292.2072 2447.1351 0.0000 0.0000 181.9841 -11660.0473 30.6693 -11842.0315 -11659.5959 30.8649 -464.4381 -401.2883 29600.4704 4.8735 4.8833
TCL: Running 100000 steps at 60 kelvin.
TCL: Setting parameter langevinTemp to 60
TCL: Running for 100000 steps
ETITLE: TS BOND ANGLE DIHED IMPRP ELECT VDW BOUNDARY MISC KINETIC TOTAL TEMP POTENTIAL TOTAL3 TEMPAVG PRESSURE GPRESSURE VOLUME PRESSAVG GPRESSAVG
ENERGY: 100000 0.2959 1.1480 1.5967 0.0000 -14292.2072 2447.1351 0.0000 0.0000 181.8954 -11660.1360 30.6544 -11842.0315 -11659.7582 30.6544 -459.6645 -401.4255 29600.4704 -459.6645 -401.4255
ENERGY: 200000 0.4949 2.0728 2.1243 0.0000 -14276.7505 2538.5133 0.0000 0.0000 352.0000 -11381.5452 59.3217 -11733.5452 -11381.4600 59.9458 648.6762 734.4497 29313.2581 4.6903 4.7217
TCL: Running 100000 steps at 90 kelvin.
TCL: Setting parameter langevinTemp to 90
TCL: Running for 100000 steps
ETITLE: TS BOND ANGLE DIHED IMPRP ELECT VDW BOUNDARY MISC KINETIC TOTAL TEMP POTENTIAL TOTAL3 TEMPAVG PRESSURE GPRESSURE VOLUME PRESSAVG GPRESSAVG
ENERGY: 200000 0.4949 2.0728 2.1243 0.0000 -14276.7505 2538.5133 0.0000 0.0000 351.8205 -11381.7248 59.2914 -11733.5452 -11380.8794 59.2914 670.8451 733.8974 29313.2581 670.8451 733.8974
ENERGY: 300000 0.1425 2.2561 2.4728 0.0000 -14031.1430 2331.8351 0.0000 0.0000 541.2889 -11153.1477 91.2220 -11694.4366 -11151.6644 89.9764 -599.1284 -571.1922 29002.0215 4.8858 4.9076
TCL: Running 100000 steps at 120 kelvin.
TCL: Setting parameter langevinTemp to 120
TCL: Running for 100000 steps
ETITLE: TS BOND ANGLE DIHED IMPRP ELECT VDW BOUNDARY MISC KINETIC TOTAL TEMP POTENTIAL TOTAL3 TEMPAVG PRESSURE GPRESSURE VOLUME PRESSAVG GPRESSAVG
ENERGY: 300000 0.1425 2.2561 2.4728 0.0000 -14031.1430 2331.8351 0.0000 0.0000 541.0262 -11153.4103 91.1778 -11694.4366 -11152.1402 91.1778 -613.7448 -570.9581 29002.0215 -613.7448 -570.9581
ENERGY: 400000 1.3240 2.0847 1.8136 0.0000 -13762.5432 2206.5038 0.0000 0.0000 725.0995 -10825.7177 122.1991 -11550.8171 -10823.6437 120.0188 -1201.3324 -1152.6975 29246.5407 4.0754 4.0253
TCL: Running 100000 steps at 150 kelvin.
TCL: Setting parameter langevinTemp to 150
TCL: Running for 100000 steps
ETITLE: TS BOND ANGLE DIHED IMPRP ELECT VDW BOUNDARY MISC KINETIC TOTAL TEMP POTENTIAL TOTAL3 TEMPAVG PRESSURE GPRESSURE VOLUME PRESSAVG GPRESSAVG
ENERGY: 400000 1.3240 2.0847 1.8136 0.0000 -13762.5432 2206.5038 0.0000 0.0000 724.7389 -10826.0782 122.1384 -11550.8171 -10824.4632 122.1384 -1187.0914 -1153.0151 29246.5407 -1187.0914 -1153.0151
ENERGY: 500000 1.9696 4.2878 3.2301 0.0000 -13653.4521 2257.4872 0.0000 0.0000 878.2561 -10508.2214 148.0102 -11386.4775 -10507.1947 150.0620 -297.5210 -225.5849 29250.2633 3.2735 3.1734
TCL: Running 100000 steps at 180 kelvin.
TCL: Setting parameter langevinTemp to 180
TCL: Running for 100000 steps
ETITLE: TS BOND ANGLE DIHED IMPRP ELECT VDW BOUNDARY MISC KINETIC TOTAL TEMP POTENTIAL TOTAL3 TEMPAVG PRESSURE GPRESSURE VOLUME PRESSAVG GPRESSAVG
ENERGY: 500000 1.9696 4.2878 3.2301 0.0000 -13653.4521 2257.4872 0.0000 0.0000 877.8123 -10508.6652 147.9354 -11386.4775 -10507.0009 147.9354 -284.6587 -225.8947 29250.2633 -284.6587 -225.8947
ENERGY: 600000 0.5641 2.7377 1.5654 0.0000 -13169.7238 2100.7166 0.0000 0.0000 1053.6326 -10010.5074 177.5660 -11064.1400 -10006.8189 180.0791 -63.9453 11.2079 28986.7045 2.6967 2.8107
TCL: Running 100000 steps at 210 kelvin.
TCL: Setting parameter langevinTemp to 210
TCL: Running for 100000 steps
ETITLE: TS BOND ANGLE DIHED IMPRP ELECT VDW BOUNDARY MISC KINETIC TOTAL TEMP POTENTIAL TOTAL3 TEMPAVG PRESSURE GPRESSURE VOLUME PRESSAVG GPRESSAVG
ENERGY: 600000 0.5641 2.7377 1.5654 0.0000 -13169.7238 2100.7166 0.0000 0.0000 1053.1006 -10011.0393 177.4763 -11064.1400 -10008.9943 177.4763 -44.3950 11.3168 28986.7045 -44.3950 11.3168
ENERGY: 700000 0.5270 5.9215 3.2491 0.0000 -12610.3804 1975.6713 0.0000 0.0000 1258.2367 -9366.7749 212.0474 -10625.0115 -9365.2255 209.8672 577.6038 700.0333 28778.8605 3.2484 3.3429
TCL: Running 100000 steps at 240 kelvin.
TCL: Setting parameter langevinTemp to 240
TCL: Running for 100000 steps
ETITLE: TS BOND ANGLE DIHED IMPRP ELECT VDW BOUNDARY MISC KINETIC TOTAL TEMP POTENTIAL TOTAL3 TEMPAVG PRESSURE GPRESSURE VOLUME PRESSAVG GPRESSAVG
ENERGY: 700000 0.5270 5.9215 3.2491 0.0000 -12610.3804 1975.6713 0.0000 0.0000 1257.6221 -9367.3894 211.9438 -10625.0115 -9365.2212 211.9438 632.0845 700.1962 28778.8605 632.0845 700.1962
ENERGY: 800000 1.4158 5.2595 1.9415 0.0000 -11877.5633 1712.1747 0.0000 0.0000 1440.9580 -8715.8139 242.8409 -10156.7719 -8712.8106 240.1600 -66.5039 -7.8363 29495.3032 3.6656 3.7639
TCL: Running 100000 steps at 270 kelvin.
TCL: Setting parameter langevinTemp to 270
TCL: Running for 100000 steps
ETITLE: TS BOND ANGLE DIHED IMPRP ELECT VDW BOUNDARY MISC KINETIC TOTAL TEMP POTENTIAL TOTAL3 TEMPAVG PRESSURE GPRESSURE VOLUME PRESSAVG GPRESSAVG
ENERGY: 800000 1.4158 5.2595 1.9415 0.0000 -11877.5633 1712.1747 0.0000 0.0000 1440.2564 -8716.5155 242.7227 -10156.7719 -8713.8631 242.7227 -101.3862 -7.5243 29495.3032 -101.3862 -7.5243
ENERGY: 900000 2.0738 7.8114 2.5272 0.0000 -11482.7231 1710.2314 0.0000 0.0000 1574.2381 -8185.8413 265.3023 -9760.0794 -8184.0455 269.5632 1122.8945 1184.4552 29749.1125 2.1719 2.2323
TCL: Running 1000000 steps at 300 kelvin.
TCL: Setting parameter langevinTemp to 300
TCL: Running for 1000000 steps
ETITLE: TS BOND ANGLE DIHED IMPRP ELECT VDW BOUNDARY MISC KINETIC TOTAL TEMP POTENTIAL TOTAL3 TEMPAVG PRESSURE GPRESSURE VOLUME PRESSAVG GPRESSAVG
ENERGY: 900000 2.0738 7.8114 2.5272 0.0000 -11482.7231 1710.2314 0.0000 0.0000 1573.4593 -8186.6201 265.1710 -9760.0794 -8184.0649 265.1710 1109.4178 1182.8981 29749.1125 1109.4178 1182.8981
ENERGY: 1100000 1.4119 6.8938 1.5368 0.0000 -10724.7364 1402.4586 0.0000 0.0000 1691.1789 -7621.2564 285.0100 -9312.4353 -7617.4285 300.2332 -467.9357 -465.5826 30895.9366 3.0738 3.0234
ENERGY: 1300000 3.2235 7.8787 3.3194 0.0000 -10935.8511 1504.6239 0.0000 0.0000 1838.7718 -7578.0338 309.8835 -9416.8056 -7576.3711 300.7853 425.5251 470.4788 30275.2318 4.3444 4.2423
ENERGY: 1500000 2.0794 4.9735 2.1989 0.0000 -10825.4798 1456.6092 0.0000 0.0000 1812.1174 -7547.5014 305.3915 -9359.6187 -7542.3287 300.2333 234.3347 257.6539 30473.3675 0.9837 1.0216
ENERGY: 1700000 3.7903 7.1572 4.0162 0.0000 -10788.1600 1458.2178 0.0000 0.0000 1793.0284 -7521.9502 302.1745 -9314.9786 -7518.8371 299.7187 -44.6794 8.2764 30844.2254 3.7073 3.7992
ENERGY: 1900000 1.3446 8.2856 2.5435 0.0000 -10908.6295 1465.6546 0.0000 0.0000 1763.3552 -7667.4462 297.1737 -9430.8013 -7664.3527 300.5244 -62.6882 -33.6711 30571.9265 1.3814 1.4705
TCL: Exiting due to exit command.
