Info: SIMULATION PARAMETERS:
Info: TIMESTEP               2
Info: NUMBER OF STEPS        0
Info: STEPS PER CYCLE        10
Info: PERIODIC CELL BASIS 1  43.508 0 0
Info: PERIODIC CELL BASIS 2  0 43.18 0
Info: PERIODIC CELL BASIS 3  0 0 39.527
Info: PERIODIC CELL CENTER   0 0 0
Info: WRAPPING WATERS AROUND PERIODIC BOUNDARIES ON OUTPUT.
Info: WRAPPING ALL CLUSTERS AROUND PERIODIC BOUNDARIES ON OUTPUT.
Info: FIRST LDB TIMESTEP     50
Info: LAST LDB TIMESTEP     -1
Info: HOM BACKGROUND SCALING 1
Info: PME BACKGROUND SCALING 1
Info: MIN ATOMS PER PATCH    40
Info: EMPTY PATCH LOAD       40 ATOMS
Info: INITIAL TEMPERATURE    300
Info: CENTER OF MASS MOVING INITIALLY? NO
Info: DIELECTRIC             1
Info: EXCLUDE                SCALED ONE-FOUR
Info: 1-4 ELECTROSTATICS SCALED BY 0.833333
Info: MODIFIED 1-4 VDW PARAMETERS WILL BE USED
Info: DCD FILENAME           mobley_5665561_min.dcd
Info: DCD FREQUENCY          5000
Info: DCD FIRST STEP         5000
Info: DCD FILE WILL CONTAIN UNIT CELL DATA
Info: XST FILENAME           mobley_5665561_min.xst
Info: XST FREQUENCY          5000
Info: NO VELOCITY DCD OUTPUT
Info: NO FORCE DCD OUTPUT
Info: OUTPUT FILENAME        mobley_5665561_min
Info: BINARY OUTPUT FILES WILL BE USED
Info: RESTART FILENAME       mobley_5665561_min.restart
Info: RESTART FREQUENCY      5000
Info: BINARY RESTART FILES WILL BE USED
Info: CUTOFF                 9
Info: PAIRLIST DISTANCE      11
Info: PAIRLIST SHRINK RATE   0.01
Info: PAIRLIST GROW RATE     0.01
Info: PAIRLIST TRIGGER       0.3
Info: PAIRLISTS PER CYCLE    2
Info: PAIRLISTS ENABLED
Info: MARGIN                 8
Info: HYDROGEN GROUP CUTOFF  2.5
Info: PATCH DIMENSION        21.5
Info: ENERGY OUTPUT STEPS    5000
Info: ENERGY EVALUATION STEPS    5000
Info: OUTPUT ENERGY PRECISION 4
Info: CROSSTERM ENERGY INCLUDED IN DIHEDRAL
Info: TIMING OUTPUT STEPS    50000
Info: PRESSURE OUTPUT STEPS  5000
Info: LANGEVIN DYNAMICS ACTIVE
Info: LANGEVIN TEMPERATURE   300
Info: LANGEVIN USING BBK INTEGRATOR
Info: LANGEVIN DAMPING COEFFICIENT IS 1 INVERSE PS
Info: LANGEVIN DYNAMICS APPLIED TO HYDROGENS
Info: LANGEVIN PISTON PRESSURE CONTROL ACTIVE
Info:        TARGET PRESSURE IS 1.01325 BAR
Info:     OSCILLATION PERIOD IS 50 FS
Info:             DECAY TIME IS 25 FS
Info:     PISTON TEMPERATURE IS 300 K
Info:       PRESSURE CONTROL IS GROUP-BASED
Info:    INITIAL STRAIN RATE IS 0 0 0
Info:       CELL FLUCTUATION IS ISOTROPIC
Info: PARTICLE MESH EWALD (PME) ACTIVE
Info: PME TOLERANCE               1e-06
Info: PME EWALD COEFFICIENT       0.348832
Info: PME INTERPOLATION ORDER     4
Info: PME GRID DIMENSIONS         44 44 40
Info: PME MAXIMUM GRID SPACING    1
Info: FULL ELECTROSTATIC EVALUATION FREQUENCY      2
Info: USING VERLET I (r-RESPA) MTS SCHEME.
Info: C1 SPLITTING OF LONG RANGE ELECTROSTATICS
Info: PLACING ATOMS IN PATCHES BY HYDROGEN GROUPS
Info: RIGID BONDS TO HYDROGEN : ALL
Info:         ERROR TOLERANCE : 1e-08
Info:          MAX ITERATIONS : 100
Info: RIGID WATER USING SETTLE ALGORITHM
Info: RANDOM NUMBER SEED     1741350192
Info: USE HYDROGEN BONDS?    NO
Info: Using AMBER format force field!
Info: AMBER PARM FILE        mobley_5665561.prmtop
Info: COORDINATE PDB         mobley_5665561.pdb
Info: Exclusions will be read from PARM file!
Info: SCNB (VDW SCALING)     2
Info: USING ARITHMETIC MEAN TO COMBINE L-J SIGMA PARAMETERS
Info: SUMMARY OF PARAMETERS:
Info: 6 BONDS
Info: 5 ANGLES
Info:   5 HARMONIC
Info:   0 COSINE-BASED
Info: 3 DIHEDRAL
Info: 0 IMPROPER
Info: 0 CROSSTERM
Info: 0 VDW
Info: 21 VDW_PAIRS
Info: 0 NBTHOLE_PAIRS
Info: STRUCTURE SUMMARY:
Info: 5187 ATOMS
Info: 5188 BONDS
Info: 42 ANGLES
Info: 64 DIHEDRALS
Info: 0 IMPROPERS
Info: 0 CROSSTERMS
Info: 5280 EXCLUSIONS
Info: 5175 RIGID BONDS
Info: 10386 DEGREES OF FREEDOM
Info: 1733 HYDROGEN GROUPS
Info: 4 ATOMS IN LARGEST HYDROGEN GROUP
Info: 1733 MIGRATION GROUPS
Info: 4 ATOMS IN LARGEST MIGRATION GROUP
Info: TOTAL MASS = 31161.8 amu
Info: TOTAL CHARGE = -1.86265e-08 e
Info: MASS DENSITY = 0.696844 g/cm^3
Info: ATOM DENSITY = 0.0698507 atoms/A^3
Info: ADDED 0 IMPLICIT EXCLUSIONS
Info: NONBONDED TABLE R-SQUARED SPACING: 0.0625
Info: NONBONDED TABLE SIZE: 705 POINTS
Info: REMOVING COM VELOCITY -0.0201559 -0.043248 -0.0434076
TCL: Minimizing for 2000 steps
ETITLE: TS BOND ANGLE DIHED IMPRP ELECT VDW BOUNDARY MISC KINETIC TOTAL TEMP POTENTIAL TOTAL3 TEMPAVG PRESSURE GPRESSURE VOLUME PRESSAVG GPRESSAVG
ENERGY: 0 0.4032 0.6228 0.0002 0.0000 -15986.9279 1758.1111 0.0000 0.0000 0.0000 -14227.7907 0.0000 -14227.7907 -14227.7907 0.0000 10419.6124 -15409.8877 74258.4041 10419.6124 -15409.8877
ENERGY: 400 2.7128 1.9451 0.3864 0.0000 -21901.7086 3398.0449 0.0000 0.0000 0.0000 -18498.6194 0.0000 -18498.6194 -18498.6194 0.0000 16223.1256 16350.8931 74258.4041 16223.1256 16350.8931
ENERGY: 800 1.0794 0.6084 0.0215 0.0000 -23004.4059 3824.6004 0.0000 0.0000 0.0000 -19178.0963 0.0000 -19178.0963 -19178.0963 0.0000 18041.1090 18163.9213 74258.4041 18041.1090 18163.9213
ENERGY: 1200 0.7504 0.5243 0.0744 0.0000 -23344.5412 3949.5668 0.0000 0.0000 0.0000 -19393.6253 0.0000 -19393.6253 -19393.6253 0.0000 18618.4071 18736.5114 74258.4041 18618.4071 18736.5114
ENERGY: 1600 0.7561 0.4323 0.0428 0.0000 -23567.6411 4051.1418 0.0000 0.0000 0.0000 -19515.2681 0.0000 -19515.2681 -19515.2681 0.0000 19096.1076 19206.8798 74258.4041 19096.1076 19206.8798
ENERGY: 2000 0.7896 0.3956 0.0335 0.0000 -23694.2032 4104.5024 0.0000 0.0000 0.0000 -19588.4821 0.0000 -19588.4821 -19588.4821 0.0000 19361.7081 19469.0618 74258.4041 19361.7081 19469.0618
TCL: Exiting due to exit command.
Info: NAMD 3.0.1 for Linux-x86_64-multicore
Info: Please visit http://www.ks.uiuc.edu/Research/namd/
Info: for updates, documentation, and support information.
Info: Please cite Phillips et al., J. Chem. Phys. 153:044130 (2020) doi:10.1063/5.0014475
Info: in all publications reporting results obtained with NAMD.
Info: Based on Charm++/Converse 80000 for multicore-linux-x86_64-gcc
Info: Built Mon Oct 14 11:11:06 CDT 2024 by dhardy on athine.ks.uiuc.edu
Info: 1 NAMD  3.0.1  Linux-x86_64-multicore  16    k011  z5358697
Info: Running on 16 processors, 1 nodes, 1 physical nodes.
Info: CPU topology information available.
Info: Charm++/Converse parallel runtime startup completed at 0.00948357 s
Info: 1043.45 MB of memory in use based on /proc/self/stat
Info: Configuration file is mobley_5665561_equil.namd
Info: Working in the current directory /srv/scratch/z5358697/prod_prep_7/5665561
TCL: Running 25000 steps at 30 kelvin.
TCL: Suspending until startup complete.
Info: SIMULATION PARAMETERS:
Info: TIMESTEP               2
Info: NUMBER OF STEPS        0
Info: STEPS PER CYCLE        10
Info: PERIODIC CELL BASIS 1  43.508 0 0
Info: PERIODIC CELL BASIS 2  0 43.18 0
Info: PERIODIC CELL BASIS 3  0 0 39.527
Info: PERIODIC CELL CENTER   0 0 0
Info: WRAPPING WATERS AROUND PERIODIC BOUNDARIES ON OUTPUT.
Info: WRAPPING ALL CLUSTERS AROUND PERIODIC BOUNDARIES ON OUTPUT.
Info: FIRST LDB TIMESTEP     50
Info: LAST LDB TIMESTEP     -1
Info: HOM BACKGROUND SCALING 1
Info: PME BACKGROUND SCALING 1
Info: MIN ATOMS PER PATCH    40
Info: EMPTY PATCH LOAD       40 ATOMS
Info: INITIAL TEMPERATURE    300
Info: CENTER OF MASS MOVING INITIALLY? NO
Info: DIELECTRIC             1
Info: EXCLUDE                SCALED ONE-FOUR
Info: 1-4 ELECTROSTATICS SCALED BY 0.833333
Info: MODIFIED 1-4 VDW PARAMETERS WILL BE USED
Info: DCD FILENAME           mobley_5665561_equil.dcd
Info: DCD FREQUENCY          5000
Info: DCD FIRST STEP         5000
Info: DCD FILE WILL CONTAIN UNIT CELL DATA
Info: XST FILENAME           mobley_5665561_equil.xst
Info: XST FREQUENCY          5000
Info: NO VELOCITY DCD OUTPUT
Info: NO FORCE DCD OUTPUT
Info: OUTPUT FILENAME        mobley_5665561_equil
Info: BINARY OUTPUT FILES WILL BE USED
Info: RESTART FILENAME       mobley_5665561_equil.restart
Info: RESTART FREQUENCY      5000
Info: BINARY RESTART FILES WILL BE USED
Info: CUTOFF                 9
Info: PAIRLIST DISTANCE      11
Info: PAIRLIST SHRINK RATE   0.01
Info: PAIRLIST GROW RATE     0.01
Info: PAIRLIST TRIGGER       0.3
Info: PAIRLISTS PER CYCLE    2
Info: PAIRLISTS ENABLED
Info: MARGIN                 8
Info: HYDROGEN GROUP CUTOFF  2.5
Info: PATCH DIMENSION        21.5
Info: ENERGY OUTPUT STEPS    5000
Info: ENERGY EVALUATION STEPS    5000
Info: OUTPUT ENERGY PRECISION 4
Info: CROSSTERM ENERGY INCLUDED IN DIHEDRAL
Info: TIMING OUTPUT STEPS    50000
Info: PRESSURE OUTPUT STEPS  5000
Info: LANGEVIN DYNAMICS ACTIVE
Info: LANGEVIN TEMPERATURE   30
Info: LANGEVIN USING BBK INTEGRATOR
Info: LANGEVIN DAMPING COEFFICIENT IS 1 INVERSE PS
Info: LANGEVIN DYNAMICS APPLIED TO HYDROGENS
Info: LANGEVIN PISTON PRESSURE CONTROL ACTIVE
Info:        TARGET PRESSURE IS 1.01325 BAR
Info:     OSCILLATION PERIOD IS 50 FS
Info:             DECAY TIME IS 25 FS
Info:     PISTON TEMPERATURE IS 300 K
Info:       PRESSURE CONTROL IS GROUP-BASED
Info:    INITIAL STRAIN RATE IS 0 0 0
Info:       CELL FLUCTUATION IS ISOTROPIC
Info: PARTICLE MESH EWALD (PME) ACTIVE
Info: PME TOLERANCE               1e-06
Info: PME EWALD COEFFICIENT       0.348832
Info: PME INTERPOLATION ORDER     4
Info: PME GRID DIMENSIONS         44 44 40
Info: PME MAXIMUM GRID SPACING    1
Info: FULL ELECTROSTATIC EVALUATION FREQUENCY      2
Info: USING VERLET I (r-RESPA) MTS SCHEME.
Info: C1 SPLITTING OF LONG RANGE ELECTROSTATICS
Info: PLACING ATOMS IN PATCHES BY HYDROGEN GROUPS
Info: RIGID BONDS TO HYDROGEN : ALL
Info:         ERROR TOLERANCE : 1e-08
Info:          MAX ITERATIONS : 100
Info: RIGID WATER USING SETTLE ALGORITHM
Info: RANDOM NUMBER SEED     1741350210
Info: USE HYDROGEN BONDS?    NO
Info: Using AMBER format force field!
Info: AMBER PARM FILE        mobley_5665561.prmtop
Info: COORDINATE PDB         mobley_5665561.pdb
Info: Exclusions will be read from PARM file!
Info: SCNB (VDW SCALING)     2
Info: USING ARITHMETIC MEAN TO COMBINE L-J SIGMA PARAMETERS
Info: BINARY COORDINATES     mobley_5665561_min.coor
Info: SUMMARY OF PARAMETERS:
Info: 6 BONDS
Info: 5 ANGLES
Info:   5 HARMONIC
Info:   0 COSINE-BASED
Info: 3 DIHEDRAL
Info: 0 IMPROPER
Info: 0 CROSSTERM
Info: 0 VDW
Info: 21 VDW_PAIRS
Info: 0 NBTHOLE_PAIRS
Info: STRUCTURE SUMMARY:
Info: 5187 ATOMS
Info: 5188 BONDS
Info: 42 ANGLES
Info: 64 DIHEDRALS
Info: 0 IMPROPERS
Info: 0 CROSSTERMS
Info: 5280 EXCLUSIONS
Info: 5175 RIGID BONDS
Info: 10386 DEGREES OF FREEDOM
Info: 1733 HYDROGEN GROUPS
Info: 4 ATOMS IN LARGEST HYDROGEN GROUP
Info: 1733 MIGRATION GROUPS
Info: 4 ATOMS IN LARGEST MIGRATION GROUP
Info: TOTAL MASS = 31161.8 amu
Info: TOTAL CHARGE = -1.86265e-08 e
Info: MASS DENSITY = 0.696844 g/cm^3
Info: ATOM DENSITY = 0.0698507 atoms/A^3
Info: ADDED 0 IMPLICIT EXCLUSIONS
Info: NONBONDED TABLE R-SQUARED SPACING: 0.0625
Info: NONBONDED TABLE SIZE: 705 POINTS
Info: REMOVING COM VELOCITY -0.0342052 0.0462926 -0.0115409
TCL: Running for 25000 steps
ETITLE: TS BOND ANGLE DIHED IMPRP ELECT VDW BOUNDARY MISC KINETIC TOTAL TEMP POTENTIAL TOTAL3 TEMPAVG PRESSURE GPRESSURE VOLUME PRESSAVG GPRESSAVG
ENERGY: 0 0.7896 0.3956 0.0335 0.0000 -23694.2032 4104.5024 0.0000 0.0000 3097.8722 -16490.6099 300.1965 -19588.4821 -16490.0184 300.1965 333.2435 371.0537 74258.4041 333.2435 371.0537
ENERGY: 5000 0.9073 0.7393 0.3624 0.0000 -24717.1920 4202.6582 0.0000 0.0000 320.9687 -20191.5561 31.1032 -20512.5248 -20190.6533 47.9891 -482.9627 -407.3606 50429.2942 0.2552 0.3311
ENERGY: 10000 0.7692 1.0675 0.3484 0.0000 -25125.9841 4569.3370 0.0000 0.0000 310.2185 -20244.2435 30.0614 -20554.4621 -20243.2905 30.3320 1354.3679 1391.5336 49707.1230 3.8136 3.7507
ENERGY: 15000 1.0668 0.9616 0.4241 0.0000 -25190.0068 4610.1519 0.0000 0.0000 309.3256 -20268.0767 29.9749 -20577.4023 -20267.4841 30.1949 1411.1777 1477.7644 49787.4040 5.2124 5.2823
ENERGY: 20000 0.5440 0.9306 0.7259 0.0000 -24972.1840 4395.4786 0.0000 0.0000 314.7630 -20259.7420 30.5018 -20574.5050 -20258.9785 30.2795 344.8083 409.8486 50275.2061 4.9225 4.9596
ENERGY: 25000 0.6166 0.9268 0.3273 0.0000 -24993.7713 4400.4649 0.0000 0.0000 305.7454 -20285.6903 29.6280 -20591.4358 -20284.9151 30.1306 343.5889 401.4765 50078.9588 4.2043 4.0130
TCL: Running 25000 steps at 60 kelvin.
TCL: Setting parameter langevinTemp to 60
TCL: Running for 25000 steps
ETITLE: TS BOND ANGLE DIHED IMPRP ELECT VDW BOUNDARY MISC KINETIC TOTAL TEMP POTENTIAL TOTAL3 TEMPAVG PRESSURE GPRESSURE VOLUME PRESSAVG GPRESSAVG
ENERGY: 25000 0.6166 0.9268 0.3273 0.0000 -24993.7713 4400.4649 0.0000 0.0000 305.5878 -20285.8480 29.6127 -20591.4358 -20285.2298 29.6127 335.6093 401.4694 50078.9588 335.6093 401.4694
ENERGY: 30000 1.1882 1.4718 0.3723 0.0000 -24565.1128 4222.5635 0.0000 0.0000 624.8885 -19714.6285 60.5542 -20339.5171 -19713.7459 57.2520 92.3308 146.5639 50349.6955 2.2952 2.1757
ENERGY: 35000 1.1134 1.2292 0.6587 0.0000 -24773.3931 4352.9503 0.0000 0.0000 613.5237 -19803.9179 59.4529 -20417.4415 -19802.5125 60.3552 574.8872 643.7886 49977.2322 -0.1070 -0.2243
ENERGY: 40000 1.1410 1.8962 0.8093 0.0000 -24587.4953 4138.1697 0.0000 0.0000 624.0125 -19821.4666 60.4694 -20445.4790 -19819.6677 60.1882 -485.3751 -445.7276 50056.3711 3.0151 3.2382
ENERGY: 45000 1.9807 1.2766 1.2873 0.0000 -24656.6139 4179.0599 0.0000 0.0000 618.1005 -19854.9089 59.8965 -20473.0094 -19853.6361 59.4607 -397.2706 -349.3300 50034.9774 5.1141 5.2915
ENERGY: 50000 1.2937 2.0453 0.9666 0.0000 -24636.8028 4157.1365 0.0000 0.0000 615.7268 -19859.6340 59.6664 -20475.3608 -19857.6925 59.9995 -492.6938 -412.2517 50107.5251 4.8274 4.5665
TCL: Running 25000 steps at 90 kelvin.
TCL: Setting parameter langevinTemp to 90
TCL: Running for 25000 steps
ETITLE: TS BOND ANGLE DIHED IMPRP ELECT VDW BOUNDARY MISC KINETIC TOTAL TEMP POTENTIAL TOTAL3 TEMPAVG PRESSURE GPRESSURE VOLUME PRESSAVG GPRESSAVG
ENERGY: 50000 1.2937 2.0453 0.9666 0.0000 -24636.8028 4157.1365 0.0000 0.0000 615.4169 -19859.9439 59.6364 -20475.3608 -19858.8068 59.6364 -470.6841 -412.2434 50107.5251 -470.6841 -412.2434
ENERGY: 55000 2.0803 2.1694 2.1897 0.0000 -24314.4507 4163.7305 0.0000 0.0000 937.4947 -19206.7861 90.8471 -20144.2808 -19204.6959 87.4066 249.1183 305.7201 50185.2625 0.4401 0.7825
ENERGY: 60000 1.6513 1.9866 1.1511 0.0000 -24149.9313 3961.0198 0.0000 0.0000 917.0780 -19267.0444 88.8686 -20184.1224 -19263.7326 89.4255 -867.3470 -768.4591 50571.8402 7.1263 7.2411
ENERGY: 65000 0.8837 1.7463 1.0533 0.0000 -24305.4568 4092.3184 0.0000 0.0000 947.9863 -19261.4688 91.8637 -20209.4551 -19259.7174 88.9885 -235.7753 -165.2825 50314.1663 -1.7884 -1.6020
ENERGY: 70000 1.9915 1.5784 1.1254 0.0000 -24331.3688 4080.7536 0.0000 0.0000 918.4896 -19327.4302 89.0054 -20245.9198 -19324.3701 90.0053 -410.3879 -331.9163 50374.8859 5.0222 4.8219
ENERGY: 75000 1.4075 2.5130 1.1966 0.0000 -24363.2514 4108.6266 0.0000 0.0000 938.3522 -19311.1555 90.9302 -20249.5077 -19309.1881 89.6941 -207.8127 -153.3608 50235.8602 1.7621 2.1485
TCL: Running 25000 steps at 120 kelvin.
TCL: Setting parameter langevinTemp to 120
TCL: Running for 25000 steps
ETITLE: TS BOND ANGLE DIHED IMPRP ELECT VDW BOUNDARY MISC KINETIC TOTAL TEMP POTENTIAL TOTAL3 TEMPAVG PRESSURE GPRESSURE VOLUME PRESSAVG GPRESSAVG
ENERGY: 75000 1.4075 2.5130 1.1966 0.0000 -24363.2514 4108.6266 0.0000 0.0000 937.8919 -19311.6158 90.8855 -20249.5077 -19309.2981 90.8855 -214.7301 -153.6644 50235.8602 -214.7301 -153.6644
ENERGY: 80000 1.6277 2.9100 1.7917 0.0000 -23914.0625 3968.7173 0.0000 0.0000 1272.0717 -18666.9441 123.2689 -19939.0158 -18663.5343 116.5408 -161.3174 -92.3472 50301.8121 2.0085 2.1591
ENERGY: 85000 1.6701 2.8969 1.6758 0.0000 -24145.1817 4184.6248 0.0000 0.0000 1254.4723 -18699.8418 121.5635 -19954.3141 -18697.2852 120.2084 761.3853 843.4062 50139.3719 3.9741 4.0449
ENERGY: 90000 3.1394 2.8043 2.9117 0.0000 -24168.4039 4196.8333 0.0000 0.0000 1224.3677 -18738.3475 118.6462 -19962.7152 -18735.2441 119.2579 1012.0841 1043.6142 49875.9591 4.2823 4.3116
ENERGY: 95000 1.7292 2.4316 1.7438 0.0000 -23928.5989 3943.5088 0.0000 0.0000 1246.2017 -18732.9837 120.7620 -19979.1854 -18729.6090 120.2598 -339.0220 -263.7156 50423.3695 1.6867 1.6571
ENERGY: 100000 2.0481 3.6820 1.0784 0.0000 -23935.3222 3934.9911 0.0000 0.0000 1219.3252 -18774.1975 118.1576 -19993.5227 -18771.9064 120.6200 -469.4948 -383.5301 50306.3583 -0.6485 -0.7323
TCL: Running 25000 steps at 150 kelvin.
TCL: Setting parameter langevinTemp to 150
TCL: Running for 25000 steps
ETITLE: TS BOND ANGLE DIHED IMPRP ELECT VDW BOUNDARY MISC KINETIC TOTAL TEMP POTENTIAL TOTAL3 TEMPAVG PRESSURE GPRESSURE VOLUME PRESSAVG GPRESSAVG
ENERGY: 100000 2.0481 3.6820 1.0784 0.0000 -23935.3222 3934.9911 0.0000 0.0000 1218.7138 -18774.8088 118.0983 -19993.5227 -18772.3011 118.0983 -449.7784 -383.6370 50306.3583 -449.7784 -383.6370
ENERGY: 105000 1.2782 4.0042 3.1095 0.0000 -23648.2998 4031.5578 0.0000 0.0000 1518.2659 -18090.0843 147.1262 -19608.3502 -18086.7835 146.5676 786.5511 833.0626 50321.6974 4.3056 4.6948
ENERGY: 110000 3.8093 4.2852 1.1992 0.0000 -23353.2757 3717.4852 0.0000 0.0000 1534.0441 -18092.4528 148.6551 -19626.4969 -18090.7855 150.5430 -839.2262 -784.5713 50827.0319 4.9455 4.9131
ENERGY: 115000 1.8292 3.6417 2.3238 0.0000 -23564.3001 3904.1637 0.0000 0.0000 1558.4448 -18093.8969 151.0197 -19652.3417 -18090.6364 149.9176 91.7907 142.7172 50430.9276 2.4618 2.0811
ENERGY: 120000 4.1301 4.9419 3.1267 0.0000 -23430.5299 3730.8637 0.0000 0.0000 1557.3791 -18130.0883 150.9164 -19687.4675 -18126.5051 150.8669 -920.4929 -889.4448 50914.2162 3.1666 3.0558
ENERGY: 125000 1.7859 3.2537 3.5592 0.0000 -23646.8884 3892.5106 0.0000 0.0000 1561.8433 -18183.9358 151.3490 -19745.7791 -18179.6754 150.4132 -158.4160 -72.4319 50669.4654 4.1118 3.7282
TCL: Running 50000 steps at 180 kelvin.
TCL: Setting parameter langevinTemp to 180
TCL: Running for 50000 steps
ETITLE: TS BOND ANGLE DIHED IMPRP ELECT VDW BOUNDARY MISC KINETIC TOTAL TEMP POTENTIAL TOTAL3 TEMPAVG PRESSURE GPRESSURE VOLUME PRESSAVG GPRESSAVG
ENERGY: 125000 1.7859 3.2537 3.5592 0.0000 -23646.8884 3892.5106 0.0000 0.0000 1561.0548 -18184.7243 151.2726 -19745.7791 -18181.3210 151.2726 -128.4963 -72.3628 50669.4654 -128.4963 -72.3628
ENERGY: 135000 1.5769 5.0728 2.0564 0.0000 -22988.1179 3742.7015 0.0000 0.0000 1867.0995 -17369.6107 180.9296 -19236.7103 -17364.3898 179.5595 190.4670 246.2459 50733.3199 5.7125 6.0494
ENERGY: 145000 3.0109 5.6177 2.6887 0.0000 -22923.2419 3647.0294 0.0000 0.0000 1869.2141 -17395.6812 181.1345 -19264.8952 -17391.7890 180.1110 -329.8494 -292.8337 50732.0006 6.2085 6.1641
ENERGY: 155000 5.7638 4.3688 4.1800 0.0000 -22964.8626 3694.9636 0.0000 0.0000 1875.7566 -17379.8299 181.7685 -19255.5865 -17375.7229 179.4684 -32.5989 32.5734 50509.2180 3.9603 3.3256
ENERGY: 165000 1.6843 5.0031 2.3324 0.0000 -23249.4944 3963.0225 0.0000 0.0000 1868.6491 -17408.8029 181.0797 -19277.4520 -17404.1718 178.1677 1457.3535 1460.3176 49944.0812 5.3276 5.1118
ENERGY: 175000 2.1772 4.8189 2.0937 0.0000 -22847.5681 3580.4448 0.0000 0.0000 1854.6302 -17403.4034 179.7212 -19258.0337 -17395.6188 181.0693 -572.6729 -523.8750 50630.4947 4.6305 4.8522
TCL: Running 50000 steps at 210 kelvin.
TCL: Setting parameter langevinTemp to 210
TCL: Running for 50000 steps
ETITLE: TS BOND ANGLE DIHED IMPRP ELECT VDW BOUNDARY MISC KINETIC TOTAL TEMP POTENTIAL TOTAL3 TEMPAVG PRESSURE GPRESSURE VOLUME PRESSAVG GPRESSAVG
ENERGY: 175000 2.1772 4.8189 2.0937 0.0000 -22847.5681 3580.4448 0.0000 0.0000 1853.7007 -17404.3329 179.6312 -19258.0337 -17400.9616 179.6312 -587.5433 -522.6866 50630.4947 -587.5433 -522.6866
ENERGY: 185000 2.3700 4.6042 4.6707 0.0000 -21794.6193 3280.0143 0.0000 0.0000 2141.8690 -16361.0911 207.5559 -18502.9601 -16357.8736 209.4226 -638.9648 -548.3320 51045.2095 5.6930 5.4738
ENERGY: 195000 4.5004 6.9475 2.9680 0.0000 -21793.2081 3295.5539 0.0000 0.0000 2120.3953 -16362.8429 205.4750 -18483.2382 -16358.2261 210.6445 -337.4515 -246.7644 50938.3333 3.4521 3.4560
ENERGY: 205000 5.9089 5.0368 2.7800 0.0000 -21670.7969 3182.3252 0.0000 0.0000 2168.0775 -16306.6685 210.0956 -18474.7460 -16300.3811 210.2925 -967.1882 -910.2038 51431.9627 4.9360 4.0767
ENERGY: 215000 4.1616 6.3755 1.4007 0.0000 -21927.0125 3419.3911 0.0000 0.0000 2171.0422 -16324.6414 210.3828 -18495.6836 -16319.0059 211.0954 201.0132 291.9001 50959.0957 7.2323 7.6996
ENERGY: 225000 2.2927 2.6850 1.8414 0.0000 -21863.6299 3343.3784 0.0000 0.0000 2201.7025 -16311.7299 213.3540 -18513.4324 -16305.6903 210.8418 65.5882 113.2309 50652.9817 3.9155 3.3532
TCL: Running 50000 steps at 240 kelvin.
TCL: Setting parameter langevinTemp to 240
TCL: Running for 50000 steps
ETITLE: TS BOND ANGLE DIHED IMPRP ELECT VDW BOUNDARY MISC KINETIC TOTAL TEMP POTENTIAL TOTAL3 TEMPAVG PRESSURE GPRESSURE VOLUME PRESSAVG GPRESSAVG
ENERGY: 225000 2.2927 2.6850 1.8414 0.0000 -21863.6299 3343.3784 0.0000 0.0000 2200.6102 -16312.8221 213.2481 -18513.4324 -16309.2353 213.2481 38.7328 112.5209 50652.9817 38.7328 112.5209
ENERGY: 235000 4.8259 4.8199 5.0397 0.0000 -20689.2392 3000.4871 0.0000 0.0000 2400.2025 -15273.8640 232.5894 -17674.0665 -15267.5953 240.5485 -162.9828 -66.2243 51075.9004 4.2404 4.0647
ENERGY: 245000 3.7191 5.5542 4.2760 0.0000 -20560.8339 2953.0372 0.0000 0.0000 2484.4645 -15109.7829 240.7547 -17594.2474 -15104.1431 242.1988 -267.7911 -251.2785 51591.2870 4.3590 4.4638
ENERGY: 255000 3.6794 4.8703 2.2523 0.0000 -20661.4225 2985.0816 0.0000 0.0000 2497.8110 -15167.7279 242.0481 -17665.5389 -15161.1562 240.7574 -44.0882 42.1766 50981.7274 6.3079 6.0774
ENERGY: 265000 5.1537 7.2836 3.2156 0.0000 -20752.5688 3058.4970 0.0000 0.0000 2543.5989 -15134.8200 246.4851 -17678.4189 -15129.8850 241.8900 138.0182 173.2819 51121.1830 4.9106 4.8002
ENERGY: 275000 3.2534 6.6082 4.6625 0.0000 -20537.4490 2856.4871 0.0000 0.0000 2561.2859 -15105.1519 248.1991 -17666.4378 -15097.8702 240.4936 -562.9529 -458.6192 50902.3896 1.1531 0.8728
TCL: Running 50000 steps at 270 kelvin.
TCL: Setting parameter langevinTemp to 270
TCL: Running for 50000 steps
ETITLE: TS BOND ANGLE DIHED IMPRP ELECT VDW BOUNDARY MISC KINETIC TOTAL TEMP POTENTIAL TOTAL3 TEMPAVG PRESSURE GPRESSURE VOLUME PRESSAVG GPRESSAVG
ENERGY: 275000 3.2534 6.6082 4.6625 0.0000 -20537.4490 2856.4871 0.0000 0.0000 2560.0592 -15106.3787 248.0802 -17666.4378 -15102.7980 248.0802 -552.3804 -459.1405 50902.3896 -552.3804 -459.1405
ENERGY: 285000 3.1023 8.8652 5.2622 0.0000 -19703.8911 2662.1350 0.0000 0.0000 2808.6395 -14215.8870 272.1686 -17024.5265 -14210.9691 270.1590 -675.0490 -540.7180 52210.5954 1.5442 2.2724
ENERGY: 295000 2.4842 7.9002 6.5198 0.0000 -19798.5325 2761.7072 0.0000 0.0000 2794.6828 -14225.2383 270.8162 -17019.9211 -14219.1290 271.0204 -95.5914 -7.5564 51865.1209 3.6383 3.5331
ENERGY: 305000 2.9710 4.1647 3.3216 0.0000 -19755.3939 2776.0503 0.0000 0.0000 2780.1680 -14188.7183 269.4096 -16968.8863 -14182.5738 269.5588 -121.1685 -51.8645 52449.9714 -0.0920 0.0705
ENERGY: 315000 1.8361 5.0545 4.5335 0.0000 -19684.1917 2664.5672 0.0000 0.0000 2851.3207 -14156.8797 276.3046 -17008.2004 -14151.5100 267.2887 -335.3052 -241.8837 51814.5798 -0.9477 -1.5081
ENERGY: 325000 6.8355 6.7946 6.6933 0.0000 -19687.9722 2758.7059 0.0000 0.0000 2798.6281 -14110.3148 271.1985 -16908.9429 -14105.6985 271.1336 91.2715 186.0744 52039.9862 1.5091 1.5661
TCL: Running 1000000 steps at 300 kelvin.
TCL: Setting parameter langevinTemp to 300
TCL: Running for 1000000 steps
ETITLE: TS BOND ANGLE DIHED IMPRP ELECT VDW BOUNDARY MISC KINETIC TOTAL TEMP POTENTIAL TOTAL3 TEMPAVG PRESSURE GPRESSURE VOLUME PRESSAVG GPRESSAVG
ENERGY: 325000 6.8355 6.7946 6.6933 0.0000 -19687.9722 2758.7059 0.0000 0.0000 2797.2250 -14111.7179 271.0625 -16908.9429 -14107.6762 271.0625 96.9489 185.0669 52039.9862 96.9489 185.0669
ENERGY: 525000 1.7661 6.0703 2.4405 0.0000 -18658.6041 2462.8783 0.0000 0.0000 3179.2759 -13006.1729 308.0848 -16185.4488 -12998.8378 301.3695 -135.1067 31.5486 53557.3620 1.7791 1.2278
ENERGY: 725000 3.7105 10.0592 4.9570 0.0000 -18828.0441 2515.3486 0.0000 0.0000 3093.1656 -13200.8031 299.7404 -16293.9687 -13194.7789 298.1832 -146.8059 -31.6654 53094.6965 1.2916 0.9410
ENERGY: 925000 4.4969 10.3278 6.3121 0.0000 -18929.8428 2633.5125 0.0000 0.0000 3036.8044 -13238.3891 294.2787 -16275.1935 -13235.0312 299.3837 469.4477 534.7768 52844.8487 4.0870 3.7363
ENERGY: 1125000 6.4242 6.7933 4.4439 0.0000 -18683.9984 2444.7795 0.0000 0.0000 3126.6862 -13094.8713 302.9886 -16221.5575 -13087.7667 300.4458 -418.8260 -324.2893 53559.7329 5.2321 5.0161
ENERGY: 1325000 3.2519 11.0919 5.5696 0.0000 -18891.8605 2603.1196 0.0000 0.0000 3142.0415 -13126.7860 304.4766 -16268.8276 -13120.7858 300.4326 365.6919 433.6552 53509.3069 2.0172 2.0706
TCL: Exiting due to exit command.
