Info: SIMULATION PARAMETERS:
Info: TIMESTEP               2
Info: NUMBER OF STEPS        0
Info: STEPS PER CYCLE        10
Info: PERIODIC CELL BASIS 1  35.89 0 0
Info: PERIODIC CELL BASIS 2  0 35.411 0
Info: PERIODIC CELL BASIS 3  0 0 34.954
Info: PERIODIC CELL CENTER   0 0 0
Info: WRAPPING WATERS AROUND PERIODIC BOUNDARIES ON OUTPUT.
Info: WRAPPING ALL CLUSTERS AROUND PERIODIC BOUNDARIES ON OUTPUT.
Info: FIRST LDB TIMESTEP     50
Info: LAST LDB TIMESTEP     -1
Info: HOM BACKGROUND SCALING 1
Info: PME BACKGROUND SCALING 1
Info: MIN ATOMS PER PATCH    40
Info: EMPTY PATCH LOAD       40 ATOMS
Info: INITIAL TEMPERATURE    300
Info: CENTER OF MASS MOVING INITIALLY? NO
Info: DIELECTRIC             1
Info: EXCLUDE                SCALED ONE-FOUR
Info: 1-4 ELECTROSTATICS SCALED BY 0.833333
Info: MODIFIED 1-4 VDW PARAMETERS WILL BE USED
Info: DCD FILENAME           mobley_7769613_equil.dcd
Info: DCD FREQUENCY          100000
Info: DCD FIRST STEP         100000
Info: DCD FILE WILL CONTAIN UNIT CELL DATA
Info: XST FILENAME           mobley_7769613_equil.xst
Info: XST FREQUENCY          100000
Info: NO VELOCITY DCD OUTPUT
Info: NO FORCE DCD OUTPUT
Info: OUTPUT FILENAME        mobley_7769613_equil
Info: BINARY OUTPUT FILES WILL BE USED
Info: RESTART FILENAME       mobley_7769613_equil.restart
Info: RESTART FREQUENCY      100000
Info: BINARY RESTART FILES WILL BE USED
Info: CUTOFF                 9
Info: PAIRLIST DISTANCE      11
Info: PAIRLIST SHRINK RATE   0.01
Info: PAIRLIST GROW RATE     0.01
Info: PAIRLIST TRIGGER       0.3
Info: PAIRLISTS PER CYCLE    2
Info: PAIRLISTS ENABLED
Info: MARGIN                 8
Info: HYDROGEN GROUP CUTOFF  2.5
Info: PATCH DIMENSION        21.5
Info: ENERGY OUTPUT STEPS    100000
Info: ENERGY EVALUATION STEPS    100000
Info: OUTPUT ENERGY PRECISION 4
Info: CROSSTERM ENERGY INCLUDED IN DIHEDRAL
Info: TIMING OUTPUT STEPS    1000000
Info: PRESSURE OUTPUT STEPS  100000
Info: FIXED ATOMS ACTIVE
Info: LANGEVIN DYNAMICS ACTIVE
Info: LANGEVIN TEMPERATURE   30
Info: LANGEVIN USING BBK INTEGRATOR
Info: LANGEVIN DAMPING COEFFICIENT IS 1 INVERSE PS
Info: LANGEVIN DYNAMICS APPLIED TO HYDROGENS
Info: LANGEVIN PISTON PRESSURE CONTROL ACTIVE
Info:        TARGET PRESSURE IS 1.01325 BAR
Info:     OSCILLATION PERIOD IS 50 FS
Info:             DECAY TIME IS 25 FS
Info:     PISTON TEMPERATURE IS 300 K
Info:       PRESSURE CONTROL IS GROUP-BASED
Info:    INITIAL STRAIN RATE IS 0 0 0
Info:       CELL FLUCTUATION IS ISOTROPIC
Info: PARTICLE MESH EWALD (PME) ACTIVE
Info: PME TOLERANCE               1e-06
Info: PME EWALD COEFFICIENT       0.348832
Info: PME INTERPOLATION ORDER     4
Info: PME GRID DIMENSIONS         36 36 36
Info: PME MAXIMUM GRID SPACING    1
Info: FULL ELECTROSTATIC EVALUATION FREQUENCY      2
Info: USING VERLET I (r-RESPA) MTS SCHEME.
Info: C1 SPLITTING OF LONG RANGE ELECTROSTATICS
Info: PLACING ATOMS IN PATCHES BY HYDROGEN GROUPS
Info: RIGID BONDS TO HYDROGEN : ALL
Info:         ERROR TOLERANCE : 1e-08
Info:          MAX ITERATIONS : 100
Info: RIGID WATER USING SETTLE ALGORITHM
Info: RANDOM NUMBER SEED     1742214774
Info: USE HYDROGEN BONDS?    NO
Info: Using AMBER format force field!
Info: AMBER PARM FILE        mobley_7769613.prmtop
Info: COORDINATE PDB         mobley_7769613.pdb
Info: Exclusions will be read from PARM file!
Info: SCNB (VDW SCALING)     2
Info: USING ARITHMETIC MEAN TO COMBINE L-J SIGMA PARAMETERS
Info: BINARY COORDINATES     mobley_7769613_min.coor
Info: SUMMARY OF PARAMETERS:
Info: 5 BONDS
Info: 4 ANGLES
Info:   4 HARMONIC
Info:   0 COSINE-BASED
Info: 2 DIHEDRAL
Info: 0 IMPROPER
Info: 0 CROSSTERM
Info: 0 VDW
Info: 15 VDW_PAIRS
Info: 0 NBTHOLE_PAIRS
Info: STRUCTURE SUMMARY:
Info: 2915 ATOMS
Info: 2914 BONDS
Info: 24 ANGLES
Info: 27 DIHEDRALS
Info: 0 IMPROPERS
Info: 0 CROSSTERMS
Info: 2965 EXCLUSIONS
Info: 14 FIXED ATOMS
Info: 2910 RIGID BONDS
Info: 9 RIGID BONDS BETWEEN FIXED ATOMS
Info: 5802 DEGREES OF FREEDOM
Info: 972 HYDROGEN GROUPS
Info: 4 ATOMS IN LARGEST HYDROGEN GROUP
Info: 972 MIGRATION GROUPS
Info: 4 ATOMS IN LARGEST MIGRATION GROUP
Info: 5 HYDROGEN GROUPS WITH ALL ATOMS FIXED
Info: TOTAL MASS = 17558.5 amu
Info: TOTAL CHARGE = 0.00040001 e
Info: MASS DENSITY = 0.656353 g/cm^3
Info: ATOM DENSITY = 0.0656191 atoms/A^3
Info: ADDED 0 IMPLICIT EXCLUSIONS
Info: NONBONDED TABLE R-SQUARED SPACING: 0.0625
Info: NONBONDED TABLE SIZE: 705 POINTS
Info: REMOVING COM VELOCITY 0.0527444 0.119085 -0.331435
TCL: Running for 100000 steps
ETITLE: TS BOND ANGLE DIHED IMPRP ELECT VDW BOUNDARY MISC KINETIC TOTAL TEMP POTENTIAL TOTAL3 TEMPAVG PRESSURE GPRESSURE VOLUME PRESSAVG GPRESSAVG
ENERGY: 0 0.0000 0.0000 0.0000 0.0000 -13498.1122 2373.9387 0.0000 0.0000 1741.4741 -9382.6994 302.0854 -11124.1735 -9382.3462 302.0854 349.2637 381.2730 44423.0662 349.2637 381.2730
ENERGY: 100000 0.0000 0.0000 0.0000 0.0000 -14014.5606 2445.9642 0.0000 0.0000 175.4152 -11393.1811 30.4285 -11568.5963 -11392.5002 30.7920 147.0955 203.9374 28700.4449 2.8818 2.7913
TCL: Running 100000 steps at 60 kelvin.
TCL: Setting parameter langevinTemp to 60
TCL: Running for 100000 steps
ETITLE: TS BOND ANGLE DIHED IMPRP ELECT VDW BOUNDARY MISC KINETIC TOTAL TEMP POTENTIAL TOTAL3 TEMPAVG PRESSURE GPRESSURE VOLUME PRESSAVG GPRESSAVG
ENERGY: 100000 0.0000 0.0000 0.0000 0.0000 -14014.5606 2445.9642 0.0000 0.0000 175.3291 -11393.2673 30.4135 -11568.5963 -11392.8857 30.4135 133.0751 204.1793 28700.4449 133.0751 204.1793
ENERGY: 200000 0.0000 0.0000 0.0000 0.0000 -13840.9231 2308.3854 0.0000 0.0000 350.4037 -11182.1340 60.7829 -11532.5377 -11181.2762 59.9855 -729.8833 -724.6092 28600.5979 5.7120 5.7063
TCL: Running 100000 steps at 90 kelvin.
TCL: Setting parameter langevinTemp to 90
TCL: Running for 100000 steps
ETITLE: TS BOND ANGLE DIHED IMPRP ELECT VDW BOUNDARY MISC KINETIC TOTAL TEMP POTENTIAL TOTAL3 TEMPAVG PRESSURE GPRESSURE VOLUME PRESSAVG GPRESSAVG
ENERGY: 200000 0.0000 0.0000 0.0000 0.0000 -13840.9231 2308.3854 0.0000 0.0000 350.2371 -11182.3006 60.7540 -11532.5377 -11181.4592 60.7540 -773.9903 -724.8999 28600.5979 -773.9903 -724.8999
ENERGY: 300000 0.0000 0.0000 0.0000 0.0000 -13746.6781 2308.3590 0.0000 0.0000 512.0124 -10926.3067 88.8164 -11438.3191 -10924.4525 90.1963 -437.6748 -361.7450 28630.5836 4.0359 3.9964
TCL: Running 100000 steps at 120 kelvin.
TCL: Setting parameter langevinTemp to 120
TCL: Running for 100000 steps
ETITLE: TS BOND ANGLE DIHED IMPRP ELECT VDW BOUNDARY MISC KINETIC TOTAL TEMP POTENTIAL TOTAL3 TEMPAVG PRESSURE GPRESSURE VOLUME PRESSAVG GPRESSAVG
ENERGY: 300000 0.0000 0.0000 0.0000 0.0000 -13746.6781 2308.3590 0.0000 0.0000 511.7657 -10926.5534 88.7736 -11438.3191 -10925.5394 88.7736 -412.7893 -361.4371 28630.5836 -412.7893 -361.4371
ENERGY: 400000 0.0000 0.0000 0.0000 0.0000 -13659.7560 2383.1348 0.0000 0.0000 684.4004 -10592.2207 118.7197 -11276.6212 -10591.4402 119.9639 740.1282 813.7397 28686.8168 4.0507 4.1427
TCL: Running 100000 steps at 150 kelvin.
TCL: Setting parameter langevinTemp to 150
TCL: Running for 100000 steps
ETITLE: TS BOND ANGLE DIHED IMPRP ELECT VDW BOUNDARY MISC KINETIC TOTAL TEMP POTENTIAL TOTAL3 TEMPAVG PRESSURE GPRESSURE VOLUME PRESSAVG GPRESSAVG
ENERGY: 400000 0.0000 0.0000 0.0000 0.0000 -13659.7560 2383.1348 0.0000 0.0000 684.0317 -10592.5895 118.6558 -11276.6212 -10591.5222 118.6558 755.1533 813.2518 28686.8168 755.1533 813.2518
ENERGY: 500000 0.0000 0.0000 0.0000 0.0000 -13324.1669 2178.7174 0.0000 0.0000 857.7659 -10287.6837 148.7926 -11145.4496 -10284.8727 150.0724 -487.3120 -438.2182 28821.0699 3.7065 3.6482
TCL: Running 100000 steps at 180 kelvin.
TCL: Setting parameter langevinTemp to 180
TCL: Running for 100000 steps
ETITLE: TS BOND ANGLE DIHED IMPRP ELECT VDW BOUNDARY MISC KINETIC TOTAL TEMP POTENTIAL TOTAL3 TEMPAVG PRESSURE GPRESSURE VOLUME PRESSAVG GPRESSAVG
ENERGY: 500000 0.0000 0.0000 0.0000 0.0000 -13324.1669 2178.7174 0.0000 0.0000 857.3328 -10288.1168 148.7175 -11145.4496 -10286.1524 148.7175 -498.3801 -439.1797 28821.0699 -498.3801 -439.1797
ENERGY: 600000 0.0000 0.0000 0.0000 0.0000 -12946.1156 2087.7885 0.0000 0.0000 1029.3224 -9829.0047 178.5517 -10858.3271 -9826.0641 180.1944 -82.1327 2.0368 28736.7836 4.6619 4.5240
TCL: Running 100000 steps at 210 kelvin.
TCL: Setting parameter langevinTemp to 210
TCL: Running for 100000 steps
ETITLE: TS BOND ANGLE DIHED IMPRP ELECT VDW BOUNDARY MISC KINETIC TOTAL TEMP POTENTIAL TOTAL3 TEMPAVG PRESSURE GPRESSURE VOLUME PRESSAVG GPRESSAVG
ENERGY: 600000 0.0000 0.0000 0.0000 0.0000 -12946.1156 2087.7885 0.0000 0.0000 1028.8097 -9829.5174 178.4628 -10858.3271 -9827.2783 178.4628 -56.5436 3.6792 28736.7836 -56.5436 3.6792
ENERGY: 700000 0.0000 0.0000 0.0000 0.0000 -12198.1403 1797.6522 0.0000 0.0000 1176.1151 -9224.3730 204.0152 -10400.4881 -9221.0307 209.9586 -714.4474 -617.6296 28534.2773 3.5683 3.7197
TCL: Running 100000 steps at 240 kelvin.
TCL: Setting parameter langevinTemp to 240
TCL: Running for 100000 steps
ETITLE: TS BOND ANGLE DIHED IMPRP ELECT VDW BOUNDARY MISC KINETIC TOTAL TEMP POTENTIAL TOTAL3 TEMPAVG PRESSURE GPRESSURE VOLUME PRESSAVG GPRESSAVG
ENERGY: 700000 0.0000 0.0000 0.0000 0.0000 -12198.1403 1797.6522 0.0000 0.0000 1175.5000 -9224.9881 203.9085 -10400.4881 -9222.6242 203.9085 -703.0105 -618.2572 28534.2773 -703.0105 -618.2572
ENERGY: 800000 0.0000 0.0000 0.0000 0.0000 -11598.7671 1695.7733 0.0000 0.0000 1400.9526 -8502.0411 243.0167 -9902.9938 -8499.4546 239.6795 152.4180 284.9477 28825.0812 3.1929 3.0064
TCL: Running 100000 steps at 270 kelvin.
TCL: Setting parameter langevinTemp to 270
TCL: Running for 100000 steps
ETITLE: TS BOND ANGLE DIHED IMPRP ELECT VDW BOUNDARY MISC KINETIC TOTAL TEMP POTENTIAL TOTAL3 TEMPAVG PRESSURE GPRESSURE VOLUME PRESSAVG GPRESSAVG
ENERGY: 800000 0.0000 0.0000 0.0000 0.0000 -11598.7671 1695.7733 0.0000 0.0000 1400.2119 -8502.7818 242.8882 -9902.9938 -8500.3082 242.8882 202.1129 283.5942 28825.0812 202.1129 283.5942
ENERGY: 900000 0.0000 0.0000 0.0000 0.0000 -11032.2582 1508.6643 0.0000 0.0000 1620.0828 -7903.5111 281.0282 -9523.5939 -7900.6350 269.7972 -358.5125 -325.8197 29730.3332 4.5139 4.5274
TCL: Running 1000000 steps at 300 kelvin.
TCL: Setting parameter langevinTemp to 300
TCL: Running for 1000000 steps
ETITLE: TS BOND ANGLE DIHED IMPRP ELECT VDW BOUNDARY MISC KINETIC TOTAL TEMP POTENTIAL TOTAL3 TEMPAVG PRESSURE GPRESSURE VOLUME PRESSAVG GPRESSAVG
ENERGY: 900000 0.0000 0.0000 0.0000 0.0000 -11032.2582 1508.6643 0.0000 0.0000 1619.2921 -7904.3018 280.8910 -9523.5939 -7901.9302 280.8910 -412.6897 -327.0397 29730.3332 -412.6897 -327.0397
ENERGY: 1100000 0.0000 0.0000 0.0000 0.0000 -10508.5015 1395.4386 0.0000 0.0000 1768.6953 -7344.3676 306.8073 -9113.0628 -7339.8793 300.2003 -272.3083 -172.7155 30449.1500 4.4000 4.2185
ENERGY: 1300000 0.0000 0.0000 0.0000 0.0000 -10656.6868 1469.7284 0.0000 0.0000 1694.9922 -7491.9662 294.0224 -9186.9584 -7487.3883 299.8065 380.5436 438.6893 30029.6595 2.7483 2.9018
ENERGY: 1500000 0.0000 0.0000 0.0000 0.0000 -10641.3388 1428.6397 0.0000 0.0000 1759.2891 -7453.4100 305.1756 -9212.6991 -7447.7992 301.0723 -34.7782 -3.9861 29968.0964 2.7588 2.6957
ENERGY: 1700000 0.0000 0.0000 0.0000 0.0000 -10640.0643 1466.0604 0.0000 0.0000 1759.0632 -7414.9408 305.1365 -9174.0039 -7412.2755 300.1681 291.8875 408.4292 30089.5323 4.4812 4.1956
ENERGY: 1900000 0.0000 0.0000 0.0000 0.0000 -10533.1345 1378.8045 0.0000 0.0000 1725.6934 -7428.6367 299.3480 -9154.3301 -7426.4921 300.7792 -205.7997 -209.8789 29976.2711 1.9250 2.0644
TCL: Exiting due to exit command.
