Info: SIMULATION PARAMETERS:
Info: TIMESTEP               2
Info: NUMBER OF STEPS        0
Info: STEPS PER CYCLE        10
Info: PERIODIC CELL BASIS 1  79.5935 0 0
Info: PERIODIC CELL BASIS 2  0 79.5935 0
Info: PERIODIC CELL BASIS 3  0 0 79.5935
Info: PERIODIC CELL CENTER   35.976 35.976 35.976
Info: WRAPPING ALL CLUSTERS AROUND PERIODIC BOUNDARIES ON OUTPUT.
Info: FIRST LDB TIMESTEP     50
Info: LAST LDB TIMESTEP     -1
Info: HOM BACKGROUND SCALING 1
Info: PME BACKGROUND SCALING 1
Info: MIN ATOMS PER PATCH    40
Info: EMPTY PATCH LOAD       40 ATOMS
Info: VELOCITY FILE          mobley_5520946_equilibrated.vel
Info: CENTER OF MASS MOVING INITIALLY? NO
Info: DIELECTRIC             1
Info: EXCLUDE                SCALED ONE-FOUR
Info: 1-4 ELECTROSTATICS SCALED BY 1
Info: MODIFIED 1-4 VDW PARAMETERS WILL BE USED
Info: DCD FILENAME           mobley_5520946_forwards.dcd
Info: DCD FREQUENCY          500
Info: DCD FIRST STEP         500
Info: DCD FILE WILL CONTAIN UNIT CELL DATA
Info: NO EXTENDED SYSTEM TRAJECTORY OUTPUT
Info: NO VELOCITY DCD OUTPUT
Info: NO FORCE DCD OUTPUT
Info: OUTPUT FILENAME        mobley_5520946_forwards
Info: BINARY OUTPUT FILES WILL BE USED
Info: NO RESTART FILE
Info: SWITCHING ACTIVE
Info: SWITCHING ON           10
Info: SWITCHING OFF          12
Info: PAIRLIST DISTANCE      14
Info: PAIRLIST SHRINK RATE   0.01
Info: PAIRLIST GROW RATE     0.01
Info: PAIRLIST TRIGGER       0.3
Info: PAIRLISTS PER CYCLE    2
Info: PAIRLISTS ENABLED
Info: MARGIN                 8
Info: HYDROGEN GROUP CUTOFF  2.5
Info: PATCH DIMENSION        24.5
Info: ENERGY OUTPUT STEPS    500
Info: ENERGY EVALUATION STEPS    500
Info: OUTPUT ENERGY PRECISION 4
Info: CROSSTERM ENERGY INCLUDED IN DIHEDRAL
Info: TIMING OUTPUT STEPS    500
Info: PRESSURE OUTPUT STEPS  500
Info: ALCHEMICAL FEP ON
Info: FEP CURRENT LAMBDA VALUE     0
Info: FEP COMPARISON LAMBDA VALUE  0.0625
Info: FEP INTRA-ALCHEMICAL NON-BONDED INTERACTIONS WILL BE DECOUPLED
Info: FEP INTRA-ALCHEMICAL BONDED INTERACTIONS WILL BE RETAINED
Info: FEP VDW SHIFTING COEFFICIENT 6
Info: FEP ELEC. ACTIVE FOR ANNIHILATED PARTICLES BETWEEN LAMBDA = 0 AND LAMBDA = 0.5
Info: FEP ELEC. ACTIVE FOR EXNIHILATED PARTICLES BETWEEN LAMBDA = 0.5 AND LAMBDA = 1
Info: FEP VDW ACTIVE FOR ANNIHILATED PARTICLES BETWEEN LAMBDA = 0 AND LAMBDA = 1
Info: FEP VDW ACTIVE FOR EXNIHILATED PARTICLES BETWEEN LAMBDA = 0 AND LAMBDA = 1
Info: FEP BOND ACTIVE FOR ANNIHILATED PARTICLES BETWEEN LAMBDA = 1 AND LAMBDA = 1
Info: FEP BOND ACTIVE FOR EXNIHILATED PARTICLES BETWEEN LAMBDA = 0 AND LAMBDA = 0
Info: LANGEVIN DYNAMICS ACTIVE
Info: LANGEVIN TEMPERATURE   298
Info: LANGEVIN USING BBK INTEGRATOR
Info: LANGEVIN DAMPING COEFFICIENT IS 1 INVERSE PS
Info: LANGEVIN DYNAMICS NOT APPLIED TO HYDROGENS
Info: LANGEVIN PISTON PRESSURE CONTROL ACTIVE
Info:        TARGET PRESSURE IS 1.01325 BAR
Info:     OSCILLATION PERIOD IS 100 FS
Info:             DECAY TIME IS 50 FS
Info:     PISTON TEMPERATURE IS 298 K
Info:       PRESSURE CONTROL IS GROUP-BASED
Info:    INITIAL STRAIN RATE IS -0.000186856 -0.000186856 -0.000186856
Info:       CELL FLUCTUATION IS ISOTROPIC
Info: PARTICLE MESH EWALD (PME) ACTIVE
Info: PME TOLERANCE               1e-05
Info: PME EWALD COEFFICIENT       0.226635
Info: PME INTERPOLATION ORDER     4
Info: PME GRID DIMENSIONS         80 80 80
Info: PME MAXIMUM GRID SPACING    1
Info: FULL ELECTROSTATIC EVALUATION FREQUENCY      1
Info: USING VERLET I (r-RESPA) MTS SCHEME.
Info: C1 SPLITTING OF LONG RANGE ELECTROSTATICS
Info: PLACING ATOMS IN PATCHES BY HYDROGEN GROUPS
Info: RIGID BONDS TO HYDROGEN : ALL
Info:         ERROR TOLERANCE : 1e-08
Info:          MAX ITERATIONS : 100
Info: RIGID WATER USING SETTLE ALGORITHM
Info: RANDOM NUMBER SEED     1740645775
Info: USE HYDROGEN BONDS?    NO
Info: COORDINATE PDB         mobley_5520946.pdb
Info: STRUCTURE FILE         mobley_5520946.psf
Info: PARAMETER file: CHARMM format!
Info: PARAMETERS             ../common/par_all27_prot_lipid.inp
Info: PARAMETERS             mobley_5520946.prm
Info: USING ARITHMETIC MEAN TO COMBINE L-J SIGMA PARAMETERS
Info: BINARY COORDINATES     mobley_5520946_equilibrated.coor
Info: SUMMARY OF PARAMETERS:
Info: 184 BONDS
Info: 451 ANGLES
Info: 572 DIHEDRAL
Info: 48 IMPROPER
Info: 6 CROSSTERM
Info: 123 VDW
Info: 0 VDW_PAIRS
Info: 0 NBTHOLE_PAIRS
Info: To read alchdata from file: mobley_5520946.pdb
Info: To read alchflag data from column: 5
Info: STRUCTURE SUMMARY:
Info: 4489 ATOMS
Info: 2997 BONDS
Info: 1511 ANGLES
Info: 26 DIHEDRALS
Info: 6 IMPROPERS
Info: 0 CROSSTERMS
Info: 0 EXCLUSIONS
Info: 4482 RIGID BONDS
Info: ALCH: 0 ATOMS TO DISAPPEAR IN FINAL STATE
Info: ALCH: 13 ATOMS TO APPEAR IN FINAL STATE
Info: 8985 DEGREES OF FREEDOM
Info: 1499 HYDROGEN GROUPS
Info: 3 ATOMS IN LARGEST HYDROGEN GROUP
Info: 1499 MIGRATION GROUPS
Info: 3 ATOMS IN LARGEST MIGRATION GROUP
Info: TOTAL MASS = 26989.1 amu
Info: TOTAL CHARGE = 3.72529e-08 e
Info: MASS DENSITY = 0.0888824 g/cm^3
Info: ATOM DENSITY = 0.00890261 atoms/A^3
Info: ADDED 4531 IMPLICIT EXCLUSIONS
Info: NONBONDED TABLE R-SQUARED SPACING: 0.0625
Info: NONBONDED TABLE SIZE: 769 POINTS
Info: REMOVING COM VELOCITY -0.134171 0.164585 0.0353546
TCL: Running for 5000 steps
ETITLE: TS BOND ANGLE DIHED IMPRP ELECT VDW BOUNDARY MISC KINETIC TOTAL TEMP POTENTIAL TOTAL3 TEMPAVG PRESSURE GPRESSURE VOLUME PRESSAVG GPRESSAVG
ENERGY: 0 0.7933 2.5908 2.3664 0.2010 -15486.9058 1655.3147 0.0000 0.0000 2632.0886 -11193.5509 294.8308 -13825.6395 -11188.3726 294.8308 5.3925 5.3925 504234.3256 5.3925 5.3925
ENERGY: 1000 2.3206 3.5915 3.3007 0.3422 -15413.7590 1637.6019 0.0000 0.0000 2681.3735 -11085.2287 300.3514 -13766.6022 -11079.9902 299.3951 13.3698 13.7058 489541.4234 -0.1520 -0.1729
ENERGY: 2000 1.1220 1.5073 2.2959 0.1697 -15315.9891 1602.0457 0.0000 0.0000 2660.3391 -11048.5093 297.9952 -13708.8484 -11044.4887 298.4763 10.4971 10.0943 465311.7736 1.9438 1.9267
ENERGY: 3000 0.8064 3.3388 2.3978 0.1784 -15379.5863 1574.2814 0.0000 0.0000 2666.8338 -11131.7496 298.7227 -13798.5835 -11126.4622 301.0220 -28.9855 -30.3372 469365.8373 2.1829 2.1609
ENERGY: 4000 1.6908 2.6031 0.7651 0.0757 -15411.0968 1671.9810 0.0000 0.0000 2629.1495 -11104.8316 294.5016 -13733.9811 -11099.1121 297.8677 17.5662 18.3109 469219.7447 -0.3330 -0.3340
ENERGY: 5000 1.0399 1.8681 2.7717 0.2496 -15543.4061 1688.2027 0.0000 0.0000 2665.3890 -11183.8852 298.5609 -13849.2742 -11178.0130 295.9537 17.2409 16.9776 468550.7174 -0.1575 -0.1764
TCL: Running FEP window   2: Lambda1 0.0625 Lambda2 0.125  [dLambda 0.0625]
TCL: Setting parameter firsttimestep to 0
TCL: Setting parameter alchLambda to 0.0625
Info: NONBONDED TABLE R-SQUARED SPACING: 0.0625
Info: NONBONDED TABLE SIZE: 769 POINTS
TCL: Setting parameter alchLambda2 to 0.125
Info: NONBONDED TABLE R-SQUARED SPACING: 0.0625
Info: NONBONDED TABLE SIZE: 769 POINTS
TCL: Running for 5000 steps
ETITLE: TS BOND ANGLE DIHED IMPRP ELECT VDW BOUNDARY MISC KINETIC TOTAL TEMP POTENTIAL TOTAL3 TEMPAVG PRESSURE GPRESSURE VOLUME PRESSAVG GPRESSAVG
ENERGY: 0 1.0399 1.8681 2.7717 0.2496 -15543.4061 1689.0221 0.0000 0.0000 2665.3072 -11183.1475 298.5517 -13848.4547 -11177.8390 298.5517 17.1559 17.1559 468550.7174 17.1559 17.1559
ENERGY: 1000 2.0325 2.6076 3.4284 0.2685 -15417.4485 1586.9963 0.0000 0.0000 2616.0136 -11206.1017 293.0301 -13822.1153 -11201.8161 294.3952 -28.5072 -28.5577 463684.1014 0.3423 0.3454
ENERGY: 2000 2.9669 1.5277 2.4591 0.1717 -15405.1518 1585.7779 0.0000 0.0000 2650.6728 -11161.5758 296.9125 -13812.2485 -11156.3952 296.2403 -37.1169 -36.2407 477014.6774 0.9768 1.0131
ENERGY: 3000 2.2414 3.8453 5.2352 0.3148 -15391.5184 1583.6486 0.0000 0.0000 2677.0527 -11119.1805 299.8674 -13796.2331 -11114.0707 296.2691 -34.0300 -33.5821 466606.8359 -0.0703 -0.0644
ENERGY: 4000 1.9425 6.4885 3.8715 0.2680 -15318.6899 1503.5613 0.0000 0.0000 2595.5386 -11207.0196 290.7367 -13802.5582 -11202.6952 296.4736 -88.4791 -88.5850 433118.6278 1.9146 1.8681
ENERGY: 5000 2.1038 3.3950 2.0672 0.2577 -15429.2138 1622.8564 0.0000 0.0000 2673.0175 -11125.5161 299.4154 -13798.5336 -11118.9082 298.1671 16.0397 14.8366 417073.3727 0.0698 0.0409
TCL: Running FEP window   3: Lambda1 0.125  Lambda2 0.1875 [dLambda 0.0625]
TCL: Setting parameter firsttimestep to 0
TCL: Setting parameter alchLambda to 0.125
Info: NONBONDED TABLE R-SQUARED SPACING: 0.0625
Info: NONBONDED TABLE SIZE: 769 POINTS
TCL: Setting parameter alchLambda2 to 0.1875
Info: NONBONDED TABLE R-SQUARED SPACING: 0.0625
Info: NONBONDED TABLE SIZE: 769 POINTS
TCL: Running for 5000 steps
ETITLE: TS BOND ANGLE DIHED IMPRP ELECT VDW BOUNDARY MISC KINETIC TOTAL TEMP POTENTIAL TOTAL3 TEMPAVG PRESSURE GPRESSURE VOLUME PRESSAVG GPRESSAVG
ENERGY: 0 2.1038 3.3950 2.0672 0.2577 -15429.2138 1623.4461 0.0000 0.0000 2672.9388 -11125.0051 299.4066 -13797.9439 -11120.3022 299.4066 15.2633 15.2633 417073.3727 15.2633 15.2633
ENERGY: 1000 1.4566 4.4773 2.9128 0.3322 -15504.4844 1687.8256 0.0000 0.0000 2623.5861 -11183.8939 293.8784 -13807.4800 -11179.8376 295.0232 20.8945 19.6623 407817.4814 -1.2043 -1.1891
ENERGY: 2000 2.9648 4.5062 1.6463 0.1267 -15480.3887 1649.9658 0.0000 0.0000 2601.4154 -11219.7634 291.3949 -13821.1788 -11215.8501 296.9736 -5.2765 -5.7120 403377.7648 3.6286 3.6344
ENERGY: 3000 0.9559 2.1070 0.7036 0.0722 -15506.9164 1647.4861 0.0000 0.0000 2653.0352 -11202.5564 297.1771 -13855.5916 -11197.0617 298.6084 -0.0605 -0.2050 421627.2789 2.8345 2.8639
ENERGY: 4000 2.1795 2.6024 0.5428 0.0577 -15330.2298 1502.4672 0.0000 0.0000 2599.3795 -11223.0006 291.1669 -13822.3801 -11218.6690 294.7777 -86.8436 -87.3160 431782.6593 2.5550 2.5484
ENERGY: 5000 1.5911 3.0439 3.7742 0.2790 -15608.3683 1668.8062 0.0000 0.0000 2603.7200 -11327.1540 291.6531 -13930.8739 -11324.2755 293.3933 -25.3117 -25.7392 429507.0506 2.1181 2.1027
TCL: Running FEP window   4: Lambda1 0.1875 Lambda2 0.25   [dLambda 0.0625]
TCL: Setting parameter firsttimestep to 0
TCL: Setting parameter alchLambda to 0.1875
Info: NONBONDED TABLE R-SQUARED SPACING: 0.0625
Info: NONBONDED TABLE SIZE: 769 POINTS
TCL: Setting parameter alchLambda2 to 0.25
Info: NONBONDED TABLE R-SQUARED SPACING: 0.0625
Info: NONBONDED TABLE SIZE: 769 POINTS
TCL: Running for 5000 steps
ETITLE: TS BOND ANGLE DIHED IMPRP ELECT VDW BOUNDARY MISC KINETIC TOTAL TEMP POTENTIAL TOTAL3 TEMPAVG PRESSURE GPRESSURE VOLUME PRESSAVG GPRESSAVG
ENERGY: 0 1.5911 3.0439 3.7742 0.2790 -15608.3683 1669.2838 0.0000 0.0000 2603.6369 -11326.7595 291.6438 -13930.3964 -11321.3164 291.6438 -25.6304 -25.6304 429507.0506 -25.6304 -25.6304
ENERGY: 1000 1.7101 2.6769 1.5888 0.1826 -15453.5327 1593.2190 0.0000 0.0000 2580.8637 -11273.2917 289.0929 -13854.1554 -11270.1451 293.3847 -37.8512 -37.4292 418004.4005 1.6869 1.7249
ENERGY: 2000 1.9086 2.0995 1.6541 0.1512 -15524.8332 1667.6195 0.0000 0.0000 2626.1420 -11225.2583 294.1647 -13851.4003 -11220.5309 296.4651 3.5983 2.0459 396631.4648 1.1575 1.1592
ENERGY: 3000 1.5528 4.4395 2.8922 0.1510 -15385.6467 1538.1497 0.0000 0.0000 2607.3861 -11231.0755 292.0637 -13838.4616 -11226.4037 297.5324 -91.6314 -91.4562 384166.6224 1.5519 1.5391
ENERGY: 4000 1.1810 3.1136 1.6095 0.0979 -15511.3498 1650.9647 0.0000 0.0000 2607.1326 -11247.2505 292.0354 -13854.3831 -11241.9215 293.2142 5.0474 4.3787 384630.0859 1.2134 1.2287
ENERGY: 5000 2.0606 1.6113 1.7814 0.1772 -15420.3027 1593.2575 0.0000 0.0000 2632.5335 -11188.8814 294.8806 -13821.4149 -11183.5385 294.7672 -16.0680 -16.3731 388246.3035 2.0894 2.0537
TCL: Running FEP window   5: Lambda1 0.25   Lambda2 0.3125 [dLambda 0.0625]
TCL: Setting parameter firsttimestep to 0
TCL: Setting parameter alchLambda to 0.25
Info: NONBONDED TABLE R-SQUARED SPACING: 0.0625
Info: NONBONDED TABLE SIZE: 769 POINTS
TCL: Setting parameter alchLambda2 to 0.3125
Info: NONBONDED TABLE R-SQUARED SPACING: 0.0625
Info: NONBONDED TABLE SIZE: 769 POINTS
TCL: Running for 5000 steps
ETITLE: TS BOND ANGLE DIHED IMPRP ELECT VDW BOUNDARY MISC KINETIC TOTAL TEMP POTENTIAL TOTAL3 TEMPAVG PRESSURE GPRESSURE VOLUME PRESSAVG GPRESSAVG
ENERGY: 0 2.0606 1.6113 1.7814 0.1772 -15420.3027 1596.1314 0.0000 0.0000 2632.4530 -11186.0880 294.8716 -13818.5410 -11181.3760 294.8716 -15.2237 -15.2237 388246.3035 -15.2237 -15.2237
ENERGY: 1000 3.8667 5.9149 3.9326 0.4074 -15432.5816 1638.1601 0.0000 0.0000 2609.8378 -11170.4621 292.3384 -13780.2998 -11166.6872 298.2704 -23.5702 -23.2773 386212.2486 0.4917 0.5240
ENERGY: 2000 1.8091 5.1283 5.8131 0.5698 -15627.6630 1696.3974 0.0000 0.0000 2655.0101 -11262.9352 297.3983 -13917.9453 -11259.3754 294.7471 26.3955 26.7279 367909.4200 0.8894 0.9158
ENERGY: 3000 0.3763 3.0610 1.4650 0.1533 -15542.9616 1680.3057 0.0000 0.0000 2633.2546 -11224.3457 294.9614 -13857.6003 -11220.7387 294.0019 13.1479 13.3726 378970.8234 2.1695 2.1100
ENERGY: 4000 1.7127 3.0291 3.5922 0.4203 -15395.0082 1603.4042 0.0000 0.0000 2618.3237 -11164.5259 293.2889 -13782.8497 -11160.0375 296.9517 -37.1330 -36.7453 388952.7476 -1.3220 -1.3325
ENERGY: 5000 1.4934 4.5892 1.6518 0.1529 -15448.3616 1659.8397 0.0000 0.0000 2627.9791 -11152.6556 294.3705 -13780.6347 -11147.2157 296.2104 14.4881 13.4967 389191.6792 0.7793 0.8305
TCL: Running FEP window   6: Lambda1 0.3125 Lambda2 0.375  [dLambda 0.0625]
TCL: Setting parameter firsttimestep to 0
TCL: Setting parameter alchLambda to 0.3125
Info: NONBONDED TABLE R-SQUARED SPACING: 0.0625
Info: NONBONDED TABLE SIZE: 769 POINTS
TCL: Setting parameter alchLambda2 to 0.375
Info: NONBONDED TABLE R-SQUARED SPACING: 0.0625
Info: NONBONDED TABLE SIZE: 769 POINTS
TCL: Running for 5000 steps
ETITLE: TS BOND ANGLE DIHED IMPRP ELECT VDW BOUNDARY MISC KINETIC TOTAL TEMP POTENTIAL TOTAL3 TEMPAVG PRESSURE GPRESSURE VOLUME PRESSAVG GPRESSAVG
ENERGY: 0 1.4934 4.5892 1.6518 0.1529 -15448.3616 1660.4374 0.0000 0.0000 2627.8990 -11152.1380 294.3615 -13780.0370 -11147.7203 294.3615 14.3711 14.3711 389191.6792 14.3711 14.3711
ENERGY: 1000 0.9244 4.1927 1.4107 0.0866 -15339.6809 1549.9907 0.0000 0.0000 2665.9839 -11117.0919 298.6275 -13783.0758 -11110.7363 298.5893 -38.3220 -37.4483 380537.5259 -0.1255 -0.0592
ENERGY: 2000 1.6284 2.4768 1.2136 0.1522 -15363.9009 1606.9429 0.0000 0.0000 2680.3580 -11071.1290 300.2376 -13751.4870 -11065.8011 299.1857 -18.8326 -18.8947 394621.2550 1.8422 1.8202
ENERGY: 3000 2.3669 2.3119 3.0676 0.1804 -15365.8301 1570.3460 0.0000 0.0000 2594.9955 -11192.5619 290.6758 -13787.5573 -11187.5087 297.3021 -36.3748 -35.9173 417163.0405 2.3020 2.2981
ENERGY: 4000 2.2502 1.1636 1.9671 0.2635 -15298.4279 1563.9775 0.0000 0.0000 2657.2018 -11071.6042 297.6438 -13728.8060 -11065.3507 299.0126 -36.0159 -37.0106 423131.5703 1.1946 1.1651
ENERGY: 5000 5.0156 3.2827 1.9332 0.2298 -15323.2427 1591.1069 0.0000 0.0000 2610.4805 -11111.1940 292.4104 -13721.6744 -11107.6839 299.4446 -7.7820 -7.6721 410564.9893 0.8750 0.8437
TCL: Running FEP window   7: Lambda1 0.375  Lambda2 0.4375 [dLambda 0.0625]
TCL: Setting parameter firsttimestep to 0
TCL: Setting parameter alchLambda to 0.375
Info: NONBONDED TABLE R-SQUARED SPACING: 0.0625
Info: NONBONDED TABLE SIZE: 769 POINTS
TCL: Setting parameter alchLambda2 to 0.4375
Info: NONBONDED TABLE R-SQUARED SPACING: 0.0625
Info: NONBONDED TABLE SIZE: 769 POINTS
TCL: Running for 5000 steps
ETITLE: TS BOND ANGLE DIHED IMPRP ELECT VDW BOUNDARY MISC KINETIC TOTAL TEMP POTENTIAL TOTAL3 TEMPAVG PRESSURE GPRESSURE VOLUME PRESSAVG GPRESSAVG
ENERGY: 0 5.0156 3.2827 1.9332 0.2298 -15323.2427 1592.9793 0.0000 0.0000 2610.3967 -11109.4053 292.4010 -13719.8021 -11104.6918 292.4010 -6.5821 -6.5821 410564.9893 -6.5821 -6.5821
ENERGY: 1000 0.7318 4.3767 1.7851 0.1354 -15356.0755 1614.8234 0.0000 0.0000 2678.7962 -11055.4269 300.0627 -13734.2231 -11052.5972 299.4867 -9.4838 -9.8004 405019.1978 -1.5994 -1.5745
ENERGY: 2000 2.9187 2.0226 2.0362 0.1333 -15442.1459 1626.7062 0.0000 0.0000 2706.2166 -11102.1125 303.1341 -13808.3291 -11095.9819 299.0747 -0.3886 0.3207 424585.4996 0.9380 0.9513
ENERGY: 3000 1.6665 1.8911 1.3725 0.1040 -15271.1670 1564.6760 0.0000 0.0000 2604.2032 -11097.2535 291.7072 -13701.4567 -11090.2124 297.5314 -22.3156 -22.1009 421030.7102 1.4513 1.4557
ENERGY: 4000 1.4028 2.6567 4.7607 0.2952 -15522.4019 1670.2100 0.0000 0.0000 2688.6733 -11154.4033 301.1691 -13843.0766 -11149.3581 297.0851 10.8850 10.7198 428550.2019 2.0639 2.0173
ENERGY: 5000 1.2605 4.4861 1.5504 0.1083 -15302.4516 1587.4266 0.0000 0.0000 2630.2220 -11077.3977 294.6217 -13707.6198 -11071.1465 297.2963 -31.3263 -32.0842 438555.2115 2.7905 2.7628
TCL: Running FEP window   8: Lambda1 0.4375 Lambda2 0.5    [dLambda 0.0625]
TCL: Setting parameter firsttimestep to 0
TCL: Setting parameter alchLambda to 0.4375
Info: NONBONDED TABLE R-SQUARED SPACING: 0.0625
Info: NONBONDED TABLE SIZE: 769 POINTS
TCL: Setting parameter alchLambda2 to 0.5
Info: NONBONDED TABLE R-SQUARED SPACING: 0.0625
Info: NONBONDED TABLE SIZE: 769 POINTS
TCL: Running for 5000 steps
ETITLE: TS BOND ANGLE DIHED IMPRP ELECT VDW BOUNDARY MISC KINETIC TOTAL TEMP POTENTIAL TOTAL3 TEMPAVG PRESSURE GPRESSURE VOLUME PRESSAVG GPRESSAVG
ENERGY: 0 1.2605 4.4861 1.5504 0.1083 -15302.4516 1587.3869 0.0000 0.0000 2630.1422 -11077.5172 294.6127 -13707.6595 -11072.2935 294.6127 -31.4853 -31.4853 438555.2115 -31.4853 -31.4853
ENERGY: 1000 4.1242 2.6410 1.2109 0.1149 -15410.1250 1617.2552 0.0000 0.0000 2675.3454 -11109.4334 299.6761 -13784.7788 -11104.4515 298.8768 -5.4370 -5.4262 432319.2548 -0.6452 -0.6389
ENERGY: 2000 2.9930 3.0635 2.3157 0.2185 -15264.4928 1575.6047 0.0000 0.0000 2627.6649 -11052.6325 294.3353 -13680.2974 -11048.8880 298.9156 -9.5292 -9.7919 437329.4265 0.7453 0.7436
ENERGY: 3000 0.5573 4.9981 1.5398 0.1383 -15339.2281 1603.6296 0.0000 0.0000 2658.4956 -11069.8693 297.7887 -13728.3649 -11064.3423 300.1105 -4.9575 -5.6920 430929.5203 -1.4085 -1.3778
ENERGY: 4000 1.2655 4.2702 2.7582 0.2196 -15529.5948 1687.4166 0.0000 0.0000 2686.7273 -11146.9374 300.9511 -13833.6647 -11143.0737 300.1533 21.2149 21.0523 430887.9592 2.5502 2.5968
ENERGY: 5000 2.1397 4.6999 1.9991 0.1141 -15305.6054 1523.5831 0.0000 0.0000 2639.0771 -11133.9923 295.6136 -13773.0695 -11128.9329 297.7493 -39.1002 -38.4940 437411.2603 1.0608 1.1043
TCL: Running FEP window   9: Lambda1 0.5    Lambda2 0.5625 [dLambda 0.0625]
TCL: Setting parameter firsttimestep to 0
TCL: Setting parameter alchLambda to 0.5
Info: NONBONDED TABLE R-SQUARED SPACING: 0.0625
Info: NONBONDED TABLE SIZE: 769 POINTS
TCL: Setting parameter alchLambda2 to 0.5625
Info: NONBONDED TABLE R-SQUARED SPACING: 0.0625
Info: NONBONDED TABLE SIZE: 769 POINTS
TCL: Running for 5000 steps
ETITLE: TS BOND ANGLE DIHED IMPRP ELECT VDW BOUNDARY MISC KINETIC TOTAL TEMP POTENTIAL TOTAL3 TEMPAVG PRESSURE GPRESSURE VOLUME PRESSAVG GPRESSAVG
ENERGY: 0 2.1397 4.6999 1.9991 0.1141 -15305.6054 1523.9653 0.0000 0.0000 2638.9978 -11133.6895 295.6047 -13772.6873 -11128.1040 295.6047 -37.8446 -37.8446 437411.2603 -37.8446 -37.8446
ENERGY: 1000 2.3685 1.6841 2.1082 0.1767 -15404.5674 1608.9126 0.0000 0.0000 2720.1851 -11069.1322 304.6988 -13789.3173 -11064.5044 299.5032 -0.5364 -0.6087 437552.7788 2.0286 2.0232
ENERGY: 2000 1.1392 7.9823 2.5404 0.1558 -15440.8616 1629.9496 0.0000 0.0000 2628.7296 -11170.3647 294.4545 -13799.0942 -11163.6007 298.0935 8.0190 7.9941 432638.7142 2.3107 2.2991
ENERGY: 3000 1.2583 3.8612 2.8238 0.0858 -15449.4194 1635.6727 0.0000 0.0000 2613.0805 -11192.6371 292.7016 -13805.7176 -11188.0518 294.5632 10.7939 11.4193 438717.0336 0.5515 0.5662
ENERGY: 4000 1.9582 1.6773 1.1225 0.1437 -15479.7889 1662.6460 0.0000 0.0000 2652.2151 -11160.0262 297.0852 -13812.2413 -11154.9089 295.3310 13.3537 12.6929 427926.5749 -0.7043 -0.6644
ENERGY: 5000 2.6268 3.9763 1.5848 0.0992 -15400.5123 1601.0154 0.0000 0.0000 2730.1737 -11061.0363 305.8177 -13791.2099 -11054.6146 300.1109 -22.6016 -22.5780 423073.2796 0.5809 0.5740
TCL: Running FEP window  10: Lambda1 0.5625 Lambda2 0.625  [dLambda 0.0625]
TCL: Setting parameter firsttimestep to 0
TCL: Setting parameter alchLambda to 0.5625
Info: NONBONDED TABLE R-SQUARED SPACING: 0.0625
Info: NONBONDED TABLE SIZE: 769 POINTS
TCL: Setting parameter alchLambda2 to 0.625
Info: NONBONDED TABLE R-SQUARED SPACING: 0.0625
Info: NONBONDED TABLE SIZE: 769 POINTS
TCL: Running for 5000 steps
ETITLE: TS BOND ANGLE DIHED IMPRP ELECT VDW BOUNDARY MISC KINETIC TOTAL TEMP POTENTIAL TOTAL3 TEMPAVG PRESSURE GPRESSURE VOLUME PRESSAVG GPRESSAVG
ENERGY: 0 2.6268 3.9763 1.5848 0.0992 -15401.0601 1600.7099 0.0000 0.0000 2730.0914 -11061.9718 305.8085 -13792.0632 -11056.6674 305.8085 -22.0291 -22.0291 423073.2796 -22.0291 -22.0291
ENERGY: 1000 3.3207 2.1857 3.3341 0.3361 -15300.8577 1593.4280 0.0000 0.0000 2678.0362 -11020.2169 299.9775 -13698.2531 -11016.3410 304.0502 -6.7565 -6.7224 421550.1051 1.4783 1.4251
ENERGY: 2000 1.2549 2.3773 1.3053 0.1870 -15417.6702 1620.3042 0.0000 0.0000 2722.7016 -11069.5400 304.9807 -13792.2416 -11064.3553 301.5687 5.1219 6.2340 412045.2035 0.8849 0.8859
ENERGY: 3000 1.5368 5.3137 1.4587 0.0822 -15349.3697 1589.8809 0.0000 0.0000 2692.8052 -11058.2923 301.6319 -13751.0975 -11053.4743 297.4741 -24.0020 -24.2200 420078.7111 0.5441 0.5431
ENERGY: 4000 2.4200 4.0520 1.0952 0.1241 -15294.2560 1593.1968 0.0000 0.0000 2689.4275 -11003.9404 301.2535 -13693.3679 -10998.1702 301.8639 11.2974 10.0728 408925.4937 -0.7254 -0.7367
ENERGY: 5000 1.3567 5.2989 1.0166 0.1222 -15219.7644 1591.4635 0.0000 0.0000 2682.2232 -10938.2833 300.4465 -13620.5065 -10933.3241 301.6254 0.7584 0.7914 426071.0684 2.0930 2.0897
TCL: Running FEP window  11: Lambda1 0.625  Lambda2 0.6875 [dLambda 0.0625]
TCL: Setting parameter firsttimestep to 0
TCL: Setting parameter alchLambda to 0.625
Info: NONBONDED TABLE R-SQUARED SPACING: 0.0625
Info: NONBONDED TABLE SIZE: 769 POINTS
TCL: Setting parameter alchLambda2 to 0.6875
Info: NONBONDED TABLE R-SQUARED SPACING: 0.0625
Info: NONBONDED TABLE SIZE: 769 POINTS
TCL: Running for 5000 steps
ETITLE: TS BOND ANGLE DIHED IMPRP ELECT VDW BOUNDARY MISC KINETIC TOTAL TEMP POTENTIAL TOTAL3 TEMPAVG PRESSURE GPRESSURE VOLUME PRESSAVG GPRESSAVG
ENERGY: 0 1.3567 5.2989 1.0166 0.1222 -15221.3175 1595.6703 0.0000 0.0000 2682.1408 -10935.7119 300.4373 -13617.8527 -10930.9963 300.4373 4.0831 4.0831 426071.0684 4.0831 4.0831
ENERGY: 1000 0.9976 3.2728 2.9925 0.2832 -15280.6060 1583.8663 0.0000 0.0000 2668.8683 -11020.3252 298.9506 -13689.1936 -11013.7561 302.8180 -12.7639 -12.4416 436034.5569 2.1598 2.1452
ENERGY: 2000 1.2858 1.8230 3.0701 0.2182 -15297.2679 1587.7684 0.0000 0.0000 2701.1251 -11001.9773 302.5638 -13703.1024 -10998.4050 300.6401 -5.9725 -6.3732 442171.8223 0.2885 0.3033
ENERGY: 3000 1.4330 2.7321 1.5369 0.1777 -15432.6273 1661.9582 0.0000 0.0000 2633.7144 -11131.0751 295.0129 -13764.7895 -11125.2790 300.6348 16.7924 16.4109 446783.0273 -0.3835 -0.3817
ENERGY: 4000 1.1910 3.0591 5.3402 0.5778 -15443.4398 1655.5294 0.0000 0.0000 2665.3193 -11112.4230 298.5531 -13777.7423 -11105.7123 300.7250 15.8421 16.4639 436853.7321 -0.6466 -0.6523
ENERGY: 5000 4.1891 3.4862 2.0837 0.2563 -15538.9285 1714.1475 0.0000 0.0000 2750.5991 -11064.1666 308.1056 -13814.7656 -11058.6358 302.5799 63.8874 65.7544 411488.7230 3.5801 3.5581
TCL: Running FEP window  12: Lambda1 0.6875 Lambda2 0.75   [dLambda 0.0625]
TCL: Setting parameter firsttimestep to 0
TCL: Setting parameter alchLambda to 0.6875
Info: NONBONDED TABLE R-SQUARED SPACING: 0.0625
Info: NONBONDED TABLE SIZE: 769 POINTS
TCL: Setting parameter alchLambda2 to 0.75
Info: NONBONDED TABLE R-SQUARED SPACING: 0.0625
Info: NONBONDED TABLE SIZE: 769 POINTS
TCL: Running for 5000 steps
ETITLE: TS BOND ANGLE DIHED IMPRP ELECT VDW BOUNDARY MISC KINETIC TOTAL TEMP POTENTIAL TOTAL3 TEMPAVG PRESSURE GPRESSURE VOLUME PRESSAVG GPRESSAVG
ENERGY: 0 4.1891 3.4862 2.0837 0.2563 -15539.8787 1713.8849 0.0000 0.0000 2750.5162 -11065.4622 308.0963 -13815.9784 -11060.6257 308.0963 66.0139 66.0139 411488.7230 66.0139 66.0139
ENERGY: 1000 2.1800 3.0514 2.2393 0.2535 -15461.8076 1718.6897 0.0000 0.0000 2647.0196 -11088.3741 296.5032 -13735.3937 -11084.5559 299.8298 82.0090 81.8093 393241.9081 0.5289 0.5211
ENERGY: 2000 2.1404 2.0827 4.1177 0.3315 -15450.6884 1608.2321 0.0000 0.0000 2674.8198 -11158.9642 299.6173 -13833.7840 -11154.1686 298.4503 -7.3379 -7.3962 395894.6406 0.1654 0.1720
ENERGY: 3000 4.6855 2.5195 0.3654 0.0362 -15407.5497 1654.1250 0.0000 0.0000 2624.2778 -11121.5402 293.9559 -13745.8180 -11115.6970 298.6062 27.0807 26.9614 407791.9310 3.3634 3.3274
ENERGY: 4000 0.6553 2.6655 1.6912 0.1665 -15329.2718 1645.3246 0.0000 0.0000 2695.9547 -10982.8140 301.9847 -13678.7687 -10976.8608 300.1821 33.8301 33.6240 413216.0302 2.5234 2.4916
ENERGY: 5000 2.6510 2.0165 1.1115 0.0811 -15341.7152 1593.4301 0.0000 0.0000 2651.2479 -11091.1771 296.9769 -13742.4251 -11084.7342 299.1754 -30.5889 -31.1447 413368.9323 2.4248 2.4146
TCL: Running FEP window  13: Lambda1 0.75   Lambda2 0.8125 [dLambda 0.0625]
TCL: Setting parameter firsttimestep to 0
TCL: Setting parameter alchLambda to 0.75
Info: NONBONDED TABLE R-SQUARED SPACING: 0.0625
Info: NONBONDED TABLE SIZE: 769 POINTS
TCL: Setting parameter alchLambda2 to 0.8125
Info: NONBONDED TABLE R-SQUARED SPACING: 0.0625
Info: NONBONDED TABLE SIZE: 769 POINTS
TCL: Running for 5000 steps
ETITLE: TS BOND ANGLE DIHED IMPRP ELECT VDW BOUNDARY MISC KINETIC TOTAL TEMP POTENTIAL TOTAL3 TEMPAVG PRESSURE GPRESSURE VOLUME PRESSAVG GPRESSAVG
ENERGY: 0 2.6510 2.0165 1.1115 0.0811 -15342.1870 1593.8978 0.0000 0.0000 2651.1601 -11091.2690 296.9670 -13742.4291 -11085.8354 296.9670 -30.5132 -30.5132 413368.9323 -30.5132 -30.5132
ENERGY: 1000 2.4232 2.3484 2.2420 0.2221 -15431.1817 1626.2683 0.0000 0.0000 2675.6904 -11121.9873 299.7148 -13797.6777 -11116.9519 300.6250 -7.7058 -7.4833 404610.9698 0.2456 0.2236
ENERGY: 2000 1.7379 3.7043 1.5001 0.2134 -15444.4056 1649.4369 0.0000 0.0000 2690.4102 -11097.4028 301.3636 -13787.8131 -11091.8022 297.6737 22.6550 23.1720 408426.2707 -0.6576 -0.6990
ENERGY: 3000 2.7312 2.7703 2.5454 0.3086 -15509.2026 1725.6141 0.0000 0.0000 2622.9066 -11152.3263 293.8023 -13775.2329 -11147.5719 297.0230 52.8745 52.6688 410682.2735 3.6878 3.6815
ENERGY: 4000 1.1479 2.1887 1.9517 0.2130 -15424.5232 1640.0382 0.0000 0.0000 2587.9402 -11191.0434 289.8855 -13778.9837 -11186.5858 295.9337 38.5546 38.4929 403819.7405 2.6589 2.6009
ENERGY: 5000 2.0853 2.9366 3.3769 0.4086 -15359.9717 1565.0982 0.0000 0.0000 2627.1638 -11158.9024 294.2791 -13786.0662 -11153.0732 299.8428 -36.6617 -36.1719 416218.0097 0.6936 0.7225
TCL: Running FEP window  14: Lambda1 0.8125 Lambda2 0.875  [dLambda 0.0625]
TCL: Setting parameter firsttimestep to 0
TCL: Setting parameter alchLambda to 0.8125
Info: NONBONDED TABLE R-SQUARED SPACING: 0.0625
Info: NONBONDED TABLE SIZE: 769 POINTS
TCL: Setting parameter alchLambda2 to 0.875
Info: NONBONDED TABLE R-SQUARED SPACING: 0.0625
Info: NONBONDED TABLE SIZE: 769 POINTS
TCL: Running for 5000 steps
ETITLE: TS BOND ANGLE DIHED IMPRP ELECT VDW BOUNDARY MISC KINETIC TOTAL TEMP POTENTIAL TOTAL3 TEMPAVG PRESSURE GPRESSURE VOLUME PRESSAVG GPRESSAVG
ENERGY: 0 2.0853 2.9366 3.3769 0.4086 -15361.1105 1565.1604 0.0000 0.0000 2627.0821 -11160.0606 294.2700 -13787.1428 -11155.0492 294.2700 -35.7893 -35.7893 416218.0097 -35.7893 -35.7893
ENERGY: 1000 4.2149 3.7014 1.7210 0.1304 -15492.2917 1629.7026 0.0000 0.0000 2648.5808 -11204.2407 296.6781 -13852.8215 -11198.2780 294.6004 5.6818 6.2949 415165.6580 0.4823 0.4500
ENERGY: 2000 2.8207 3.1079 2.3153 0.2028 -15442.9014 1624.2323 0.0000 0.0000 2679.4000 -11130.8224 300.1303 -13810.2224 -11125.2979 299.1967 -20.5353 -21.2578 438996.9242 2.3768 2.3786
ENERGY: 3000 2.7217 3.2678 0.9503 0.0882 -15429.4993 1578.9811 0.0000 0.0000 2661.9382 -11181.5520 298.1743 -13843.4902 -11178.9473 299.8125 -38.3838 -38.9253 426276.0163 -0.8279 -0.8133
ENERGY: 4000 2.9251 3.9469 4.8831 0.3397 -15486.8909 1662.4647 0.0000 0.0000 2720.0580 -11092.2733 304.6846 -13812.3314 -11089.0015 297.5139 2.6233 2.6245 432705.0484 1.8782 1.8686
ENERGY: 5000 1.8753 2.8799 8.2254 0.3418 -15524.0411 1678.6869 0.0000 0.0000 2690.0381 -11141.9937 301.3219 -13832.0318 -11136.8249 299.0496 25.4128 26.1439 416798.8270 -0.9861 -1.0129
TCL: Running FEP window  15: Lambda1 0.875  Lambda2 0.9375 [dLambda 0.0625]
TCL: Setting parameter firsttimestep to 0
TCL: Setting parameter alchLambda to 0.875
Info: NONBONDED TABLE R-SQUARED SPACING: 0.0625
Info: NONBONDED TABLE SIZE: 769 POINTS
TCL: Setting parameter alchLambda2 to 0.9375
Info: NONBONDED TABLE R-SQUARED SPACING: 0.0625
Info: NONBONDED TABLE SIZE: 769 POINTS
TCL: Running for 5000 steps
ETITLE: TS BOND ANGLE DIHED IMPRP ELECT VDW BOUNDARY MISC KINETIC TOTAL TEMP POTENTIAL TOTAL3 TEMPAVG PRESSURE GPRESSURE VOLUME PRESSAVG GPRESSAVG
ENERGY: 0 1.8753 2.8799 8.2254 0.3418 -15525.5827 1679.4040 0.0000 0.0000 2689.9580 -11142.8982 301.3130 -13832.8562 -11138.1228 301.3130 26.9913 26.9913 416798.8270 26.9913 26.9913
ENERGY: 1000 1.0602 3.5860 2.2018 0.1270 -15289.3187 1567.8647 0.0000 0.0000 2615.5445 -11098.9345 292.9776 -13714.4790 -11095.0226 299.3043 -21.6715 -22.2878 408957.7990 0.4689 0.4994
ENERGY: 2000 1.7464 3.1245 4.7568 0.4141 -15509.9424 1654.6152 0.0000 0.0000 2623.9135 -11221.3719 293.9150 -13845.2853 -11215.7382 296.9361 5.6591 4.9822 403397.5347 1.9166 1.9222
ENERGY: 3000 1.9627 2.6196 2.5388 0.2270 -15353.7514 1548.0778 0.0000 0.0000 2696.2946 -11102.0310 302.0227 -13798.3255 -11097.5588 298.2009 -31.0424 -31.4886 407457.3845 2.5630 2.4975
ENERGY: 4000 2.6678 1.8338 1.3033 0.0960 -15448.1004 1673.9760 0.0000 0.0000 2672.8297 -11095.3938 299.3943 -13768.2236 -11090.0749 298.3047 42.2983 41.3922 404733.0831 -0.3376 -0.3597
ENERGY: 5000 2.8755 1.9772 1.5629 0.2050 -15301.2660 1590.5435 0.0000 0.0000 2664.1735 -11039.9285 298.4247 -13704.1020 -11036.4486 302.1856 -9.8636 -11.3813 383885.4889 3.3788 3.3766
TCL: Running FEP window  16: Lambda1 0.9375 Lambda2 1.0    [dLambda 0.0625]
TCL: Setting parameter firsttimestep to 0
TCL: Setting parameter alchLambda to 0.9375
Info: NONBONDED TABLE R-SQUARED SPACING: 0.0625
Info: NONBONDED TABLE SIZE: 769 POINTS
TCL: Setting parameter alchLambda2 to 1.0
Info: NONBONDED TABLE R-SQUARED SPACING: 0.0625
Info: NONBONDED TABLE SIZE: 769 POINTS
TCL: Running for 5000 steps
ETITLE: TS BOND ANGLE DIHED IMPRP ELECT VDW BOUNDARY MISC KINETIC TOTAL TEMP POTENTIAL TOTAL3 TEMPAVG PRESSURE GPRESSURE VOLUME PRESSAVG GPRESSAVG
ENERGY: 0 2.8755 1.9772 1.5629 0.2050 -15302.3203 1591.3173 0.0000 0.0000 2664.0892 -11040.2933 298.4153 -13704.3825 -11035.6703 298.4153 -10.5927 -10.5927 383885.4889 -10.5927 -10.5927
ENERGY: 1000 3.0320 5.6648 1.6659 0.1655 -15412.7283 1614.0863 0.0000 0.0000 2694.5136 -11093.6002 301.8232 -13788.1138 -11089.1139 298.4728 2.1418 1.0825 381731.0322 -1.5518 -1.5684
ENERGY: 2000 2.8044 3.8546 1.7520 0.1484 -15330.0245 1620.5610 0.0000 0.0000 2639.7018 -11061.2024 295.6836 -13700.9042 -11055.3665 300.0955 0.4486 0.7501 388785.1053 0.4178 0.4581
ENERGY: 3000 1.2141 4.1165 4.5071 0.6560 -15273.0763 1547.1573 0.0000 0.0000 2634.7134 -11080.7119 295.1248 -13715.4253 -11075.5695 300.4386 -27.3585 -27.7414 396067.3133 -0.0828 -0.0300
ENERGY: 4000 1.5280 2.3347 1.9503 0.1884 -15356.0217 1648.4351 0.0000 0.0000 2651.8155 -11049.7697 297.0405 -13701.5853 -11045.2502 302.6330 10.7246 10.6530 398300.6765 1.3081 1.2712
ENERGY: 5000 1.6936 2.2474 2.3739 0.1814 -15408.9032 1595.8588 0.0000 0.0000 2650.4839 -11156.0641 296.8913 -13806.5480 -11151.3493 299.0184 -43.0746 -43.5780 400197.1044 -3.8172 -3.8238
