Info: SIMULATION PARAMETERS:
Info: TIMESTEP               2
Info: NUMBER OF STEPS        0
Info: STEPS PER CYCLE        10
Info: PERIODIC CELL BASIS 1  39.806 0 0
Info: PERIODIC CELL BASIS 2  0 39.013 0
Info: PERIODIC CELL BASIS 3  0 0 42.851
Info: PERIODIC CELL CENTER   0 0 0
Info: WRAPPING WATERS AROUND PERIODIC BOUNDARIES ON OUTPUT.
Info: WRAPPING ALL CLUSTERS AROUND PERIODIC BOUNDARIES ON OUTPUT.
Info: FIRST LDB TIMESTEP     50
Info: LAST LDB TIMESTEP     -1
Info: HOM BACKGROUND SCALING 1
Info: PME BACKGROUND SCALING 1
Info: MIN ATOMS PER PATCH    40
Info: EMPTY PATCH LOAD       40 ATOMS
Info: INITIAL TEMPERATURE    300
Info: CENTER OF MASS MOVING INITIALLY? NO
Info: DIELECTRIC             1
Info: EXCLUDE                SCALED ONE-FOUR
Info: 1-4 ELECTROSTATICS SCALED BY 0.833333
Info: MODIFIED 1-4 VDW PARAMETERS WILL BE USED
Info: DCD FILENAME           mobley_7295828_min.dcd
Info: DCD FREQUENCY          5000
Info: DCD FIRST STEP         5000
Info: DCD FILE WILL CONTAIN UNIT CELL DATA
Info: XST FILENAME           mobley_7295828_min.xst
Info: XST FREQUENCY          5000
Info: NO VELOCITY DCD OUTPUT
Info: NO FORCE DCD OUTPUT
Info: OUTPUT FILENAME        mobley_7295828_min
Info: BINARY OUTPUT FILES WILL BE USED
Info: RESTART FILENAME       mobley_7295828_min.restart
Info: RESTART FREQUENCY      5000
Info: BINARY RESTART FILES WILL BE USED
Info: CUTOFF                 9
Info: PAIRLIST DISTANCE      11
Info: PAIRLIST SHRINK RATE   0.01
Info: PAIRLIST GROW RATE     0.01
Info: PAIRLIST TRIGGER       0.3
Info: PAIRLISTS PER CYCLE    2
Info: PAIRLISTS ENABLED
Info: MARGIN                 8
Info: HYDROGEN GROUP CUTOFF  2.5
Info: PATCH DIMENSION        21.5
Info: ENERGY OUTPUT STEPS    5000
Info: ENERGY EVALUATION STEPS    5000
Info: OUTPUT ENERGY PRECISION 4
Info: CROSSTERM ENERGY INCLUDED IN DIHEDRAL
Info: TIMING OUTPUT STEPS    50000
Info: PRESSURE OUTPUT STEPS  5000
Info: LANGEVIN DYNAMICS ACTIVE
Info: LANGEVIN TEMPERATURE   300
Info: LANGEVIN USING BBK INTEGRATOR
Info: LANGEVIN DAMPING COEFFICIENT IS 1 INVERSE PS
Info: LANGEVIN DYNAMICS APPLIED TO HYDROGENS
Info: LANGEVIN PISTON PRESSURE CONTROL ACTIVE
Info:        TARGET PRESSURE IS 1.01325 BAR
Info:     OSCILLATION PERIOD IS 50 FS
Info:             DECAY TIME IS 25 FS
Info:     PISTON TEMPERATURE IS 300 K
Info:       PRESSURE CONTROL IS GROUP-BASED
Info:    INITIAL STRAIN RATE IS 0 0 0
Info:       CELL FLUCTUATION IS ISOTROPIC
Info: PARTICLE MESH EWALD (PME) ACTIVE
Info: PME TOLERANCE               1e-06
Info: PME EWALD COEFFICIENT       0.348832
Info: PME INTERPOLATION ORDER     4
Info: PME GRID DIMENSIONS         40 40 44
Info: PME MAXIMUM GRID SPACING    1
Info: FULL ELECTROSTATIC EVALUATION FREQUENCY      2
Info: USING VERLET I (r-RESPA) MTS SCHEME.
Info: C1 SPLITTING OF LONG RANGE ELECTROSTATICS
Info: PLACING ATOMS IN PATCHES BY HYDROGEN GROUPS
Info: RIGID BONDS TO HYDROGEN : ALL
Info:         ERROR TOLERANCE : 1e-08
Info:          MAX ITERATIONS : 100
Info: RIGID WATER USING SETTLE ALGORITHM
Info: RANDOM NUMBER SEED     1741395175
Info: USE HYDROGEN BONDS?    NO
Info: Using AMBER format force field!
Info: AMBER PARM FILE        mobley_7295828.prmtop
Info: COORDINATE PDB         mobley_7295828.pdb
Info: Exclusions will be read from PARM file!
Info: SCNB (VDW SCALING)     2
Info: USING ARITHMETIC MEAN TO COMBINE L-J SIGMA PARAMETERS
Info: SUMMARY OF PARAMETERS:
Info: 7 BONDS
Info: 6 ANGLES
Info:   6 HARMONIC
Info:   0 COSINE-BASED
Info: 4 DIHEDRAL
Info: 0 IMPROPER
Info: 0 CROSSTERM
Info: 0 VDW
Info: 28 VDW_PAIRS
Info: 0 NBTHOLE_PAIRS
Info: STRUCTURE SUMMARY:
Info: 4771 ATOMS
Info: 4771 BONDS
Info: 25 ANGLES
Info: 34 DIHEDRALS
Info: 0 IMPROPERS
Info: 0 CROSSTERMS
Info: 4822 EXCLUSIONS
Info: 4763 RIGID BONDS
Info: 9550 DEGREES OF FREEDOM
Info: 1593 HYDROGEN GROUPS
Info: 4 ATOMS IN LARGEST HYDROGEN GROUP
Info: 1593 MIGRATION GROUPS
Info: 4 ATOMS IN LARGEST MIGRATION GROUP
Info: TOTAL MASS = 28663.5 amu
Info: TOTAL CHARGE = -0.000100031 e
Info: MASS DENSITY = 0.715269 g/cm^3
Info: ATOM DENSITY = 0.0716953 atoms/A^3
Info: ADDED 0 IMPLICIT EXCLUSIONS
Info: NONBONDED TABLE R-SQUARED SPACING: 0.0625
Info: NONBONDED TABLE SIZE: 705 POINTS
Info: REMOVING COM VELOCITY -0.119461 -0.0739559 0.0533076
TCL: Minimizing for 2000 steps
ETITLE: TS BOND ANGLE DIHED IMPRP ELECT VDW BOUNDARY MISC KINETIC TOTAL TEMP POTENTIAL TOTAL3 TEMPAVG PRESSURE GPRESSURE VOLUME PRESSAVG GPRESSAVG
ENERGY: 0 0.0553 0.2110 0.0008 0.0000 -14834.0784 1720.8534 0.0000 0.0000 0.0000 -13112.9580 0.0000 -13112.9580 -13112.9580 0.0000 11209.0842 -15450.2232 66545.5238 11209.0842 -15450.2232
ENERGY: 400 3.0441 4.7163 0.9908 0.0000 -19723.7284 2789.0016 0.0000 0.0000 0.0000 -16925.9755 0.0000 -16925.9755 -16925.9755 0.0000 15093.3710 15199.9510 66545.5238 15093.3710 15199.9510
ENERGY: 800 0.8986 1.5263 0.4824 0.0000 -21138.3375 3518.3875 0.0000 0.0000 0.0000 -17617.0427 0.0000 -17617.0427 -17617.0427 0.0000 18542.7248 18660.0783 66545.5238 18542.7248 18660.0783
ENERGY: 1200 0.5608 0.8639 0.1831 0.0000 -21617.8496 3697.5952 0.0000 0.0000 0.0000 -17918.6466 0.0000 -17918.6466 -17918.6466 0.0000 19448.1807 19554.7436 66545.5238 19448.1807 19554.7436
ENERGY: 1600 0.1979 1.0212 0.1974 0.0000 -21825.7804 3785.2162 0.0000 0.0000 0.0000 -18039.1478 0.0000 -18039.1478 -18039.1478 0.0000 19907.4253 20005.3461 66545.5238 19907.4253 20005.3461
ENERGY: 2000 0.2831 0.8455 0.2196 0.0000 -21928.2500 3831.2348 0.0000 0.0000 0.0000 -18095.6669 0.0000 -18095.6669 -18095.6669 0.0000 20148.4245 20246.6225 66545.5238 20148.4245 20246.6225
TCL: Exiting due to exit command.
Info: NAMD 3.0.1 for Linux-x86_64-multicore
Info: Please visit http://www.ks.uiuc.edu/Research/namd/
Info: for updates, documentation, and support information.
Info: Please cite Phillips et al., J. Chem. Phys. 153:044130 (2020) doi:10.1063/5.0014475
Info: in all publications reporting results obtained with NAMD.
Info: Based on Charm++/Converse 80000 for multicore-linux-x86_64-gcc
Info: Built Mon Oct 14 11:11:06 CDT 2024 by dhardy on athine.ks.uiuc.edu
Info: 1 NAMD  3.0.1  Linux-x86_64-multicore  16    k064  z5358697
Info: Running on 16 processors, 1 nodes, 1 physical nodes.
Info: CPU topology information available.
Info: Charm++/Converse parallel runtime startup completed at 0.00903552 s
Info: 1043.46 MB of memory in use based on /proc/self/stat
Info: Configuration file is mobley_7295828_equil.namd
Info: Working in the current directory /srv/scratch/z5358697/prod_prep_9/7295828
TCL: Running 25000 steps at 30 kelvin.
TCL: Suspending until startup complete.
Info: SIMULATION PARAMETERS:
Info: TIMESTEP               2
Info: NUMBER OF STEPS        0
Info: STEPS PER CYCLE        10
Info: PERIODIC CELL BASIS 1  39.806 0 0
Info: PERIODIC CELL BASIS 2  0 39.013 0
Info: PERIODIC CELL BASIS 3  0 0 42.851
Info: PERIODIC CELL CENTER   0 0 0
Info: WRAPPING WATERS AROUND PERIODIC BOUNDARIES ON OUTPUT.
Info: WRAPPING ALL CLUSTERS AROUND PERIODIC BOUNDARIES ON OUTPUT.
Info: FIRST LDB TIMESTEP     50
Info: LAST LDB TIMESTEP     -1
Info: HOM BACKGROUND SCALING 1
Info: PME BACKGROUND SCALING 1
Info: MIN ATOMS PER PATCH    40
Info: EMPTY PATCH LOAD       40 ATOMS
Info: INITIAL TEMPERATURE    300
Info: CENTER OF MASS MOVING INITIALLY? NO
Info: DIELECTRIC             1
Info: EXCLUDE                SCALED ONE-FOUR
Info: 1-4 ELECTROSTATICS SCALED BY 0.833333
Info: MODIFIED 1-4 VDW PARAMETERS WILL BE USED
Info: DCD FILENAME           mobley_7295828_equil.dcd
Info: DCD FREQUENCY          5000
Info: DCD FIRST STEP         5000
Info: DCD FILE WILL CONTAIN UNIT CELL DATA
Info: XST FILENAME           mobley_7295828_equil.xst
Info: XST FREQUENCY          5000
Info: NO VELOCITY DCD OUTPUT
Info: NO FORCE DCD OUTPUT
Info: OUTPUT FILENAME        mobley_7295828_equil
Info: BINARY OUTPUT FILES WILL BE USED
Info: RESTART FILENAME       mobley_7295828_equil.restart
Info: RESTART FREQUENCY      5000
Info: BINARY RESTART FILES WILL BE USED
Info: CUTOFF                 9
Info: PAIRLIST DISTANCE      11
Info: PAIRLIST SHRINK RATE   0.01
Info: PAIRLIST GROW RATE     0.01
Info: PAIRLIST TRIGGER       0.3
Info: PAIRLISTS PER CYCLE    2
Info: PAIRLISTS ENABLED
Info: MARGIN                 8
Info: HYDROGEN GROUP CUTOFF  2.5
Info: PATCH DIMENSION        21.5
Info: ENERGY OUTPUT STEPS    5000
Info: ENERGY EVALUATION STEPS    5000
Info: OUTPUT ENERGY PRECISION 4
Info: CROSSTERM ENERGY INCLUDED IN DIHEDRAL
Info: TIMING OUTPUT STEPS    50000
Info: PRESSURE OUTPUT STEPS  5000
Info: LANGEVIN DYNAMICS ACTIVE
Info: LANGEVIN TEMPERATURE   30
Info: LANGEVIN USING BBK INTEGRATOR
Info: LANGEVIN DAMPING COEFFICIENT IS 1 INVERSE PS
Info: LANGEVIN DYNAMICS APPLIED TO HYDROGENS
Info: LANGEVIN PISTON PRESSURE CONTROL ACTIVE
Info:        TARGET PRESSURE IS 1.01325 BAR
Info:     OSCILLATION PERIOD IS 50 FS
Info:             DECAY TIME IS 25 FS
Info:     PISTON TEMPERATURE IS 300 K
Info:       PRESSURE CONTROL IS GROUP-BASED
Info:    INITIAL STRAIN RATE IS 0 0 0
Info:       CELL FLUCTUATION IS ISOTROPIC
Info: PARTICLE MESH EWALD (PME) ACTIVE
Info: PME TOLERANCE               1e-06
Info: PME EWALD COEFFICIENT       0.348832
Info: PME INTERPOLATION ORDER     4
Info: PME GRID DIMENSIONS         40 40 44
Info: PME MAXIMUM GRID SPACING    1
Info: FULL ELECTROSTATIC EVALUATION FREQUENCY      2
Info: USING VERLET I (r-RESPA) MTS SCHEME.
Info: C1 SPLITTING OF LONG RANGE ELECTROSTATICS
Info: PLACING ATOMS IN PATCHES BY HYDROGEN GROUPS
Info: RIGID BONDS TO HYDROGEN : ALL
Info:         ERROR TOLERANCE : 1e-08
Info:          MAX ITERATIONS : 100
Info: RIGID WATER USING SETTLE ALGORITHM
Info: RANDOM NUMBER SEED     1741395187
Info: USE HYDROGEN BONDS?    NO
Info: Using AMBER format force field!
Info: AMBER PARM FILE        mobley_7295828.prmtop
Info: COORDINATE PDB         mobley_7295828.pdb
Info: Exclusions will be read from PARM file!
Info: SCNB (VDW SCALING)     2
Info: USING ARITHMETIC MEAN TO COMBINE L-J SIGMA PARAMETERS
Info: BINARY COORDINATES     mobley_7295828_min.coor
Info: SUMMARY OF PARAMETERS:
Info: 7 BONDS
Info: 6 ANGLES
Info:   6 HARMONIC
Info:   0 COSINE-BASED
Info: 4 DIHEDRAL
Info: 0 IMPROPER
Info: 0 CROSSTERM
Info: 0 VDW
Info: 28 VDW_PAIRS
Info: 0 NBTHOLE_PAIRS
Info: STRUCTURE SUMMARY:
Info: 4771 ATOMS
Info: 4771 BONDS
Info: 25 ANGLES
Info: 34 DIHEDRALS
Info: 0 IMPROPERS
Info: 0 CROSSTERMS
Info: 4822 EXCLUSIONS
Info: 4763 RIGID BONDS
Info: 9550 DEGREES OF FREEDOM
Info: 1593 HYDROGEN GROUPS
Info: 4 ATOMS IN LARGEST HYDROGEN GROUP
Info: 1593 MIGRATION GROUPS
Info: 4 ATOMS IN LARGEST MIGRATION GROUP
Info: TOTAL MASS = 28663.5 amu
Info: TOTAL CHARGE = -0.000100031 e
Info: MASS DENSITY = 0.715269 g/cm^3
Info: ATOM DENSITY = 0.0716953 atoms/A^3
Info: ADDED 0 IMPLICIT EXCLUSIONS
Info: NONBONDED TABLE R-SQUARED SPACING: 0.0625
Info: NONBONDED TABLE SIZE: 705 POINTS
Info: REMOVING COM VELOCITY -0.00824318 0.0584476 0.0234796
TCL: Running for 25000 steps
ETITLE: TS BOND ANGLE DIHED IMPRP ELECT VDW BOUNDARY MISC KINETIC TOTAL TEMP POTENTIAL TOTAL3 TEMPAVG PRESSURE GPRESSURE VOLUME PRESSAVG GPRESSAVG
ENERGY: 0 0.2831 0.8455 0.2196 0.0000 -21928.2500 3831.2348 0.0000 0.0000 2796.9515 -15298.7154 294.7623 -18095.6669 -15298.1812 294.7623 431.3011 462.6619 66545.5238 431.3011 462.6619
ENERGY: 5000 0.1828 1.5372 0.2606 0.0000 -23128.7436 4145.2251 0.0000 0.0000 291.0983 -18690.4396 30.6780 -18981.5378 -18689.7796 47.7361 818.4993 878.6082 46254.5627 -2.0639 -2.0515
ENERGY: 10000 0.4879 1.5693 0.5866 0.0000 -23088.7648 4066.3329 0.0000 0.0000 288.3479 -18731.4402 30.3881 -19019.7881 -18731.1792 30.1219 284.3074 351.3795 46281.5014 -0.1688 -0.3031
ENERGY: 15000 0.9216 0.8237 0.5292 0.0000 -22967.1374 3926.4830 0.0000 0.0000 286.3586 -18752.0213 30.1785 -19038.3799 -18751.2469 30.1370 -444.5643 -394.8256 46385.8693 -1.7838 -1.7877
ENERGY: 20000 0.3739 1.0552 0.4493 0.0000 -23149.7989 4096.6954 0.0000 0.0000 278.1275 -18773.0975 29.3110 -19051.2249 -18772.5671 29.9901 435.3645 504.9817 46070.4359 6.2387 6.1678
ENERGY: 25000 0.6582 1.6603 0.1928 0.0000 -22860.6754 3785.6939 0.0000 0.0000 280.9731 -18791.4972 29.6109 -19072.4702 -18790.8106 30.0284 -1255.7927 -1202.2038 46499.1972 -3.5156 -3.3217
TCL: Running 25000 steps at 60 kelvin.
TCL: Setting parameter langevinTemp to 60
TCL: Running for 25000 steps
ETITLE: TS BOND ANGLE DIHED IMPRP ELECT VDW BOUNDARY MISC KINETIC TOTAL TEMP POTENTIAL TOTAL3 TEMPAVG PRESSURE GPRESSURE VOLUME PRESSAVG GPRESSAVG
ENERGY: 25000 0.6582 1.6603 0.1928 0.0000 -22860.6754 3785.6939 0.0000 0.0000 280.8312 -18791.6390 29.5960 -19072.4702 -18790.9960 29.5960 -1253.0878 -1202.2539 46499.1972 -1253.0878 -1202.2539
ENERGY: 30000 1.1604 1.5746 0.5331 0.0000 -22940.9468 4127.9288 0.0000 0.0000 578.8520 -18230.8980 61.0035 -18809.7500 -18229.4963 57.6291 1136.5527 1199.9046 46300.2088 4.3260 4.1796
ENERGY: 35000 0.9821 3.0913 0.8327 0.0000 -22772.9127 3930.9040 0.0000 0.0000 563.4136 -18273.6890 59.3765 -18837.1026 -18272.2338 60.3109 53.7302 103.7345 46381.8103 5.1939 5.4489
ENERGY: 40000 0.7331 1.9567 0.8702 0.0000 -22689.3830 3825.3763 0.0000 0.0000 565.3475 -18295.0992 59.5803 -18860.4467 -18293.2672 59.8844 -632.7244 -576.0365 46817.4795 -1.2357 -0.8352
ENERGY: 45000 0.5769 2.3982 1.0193 0.0000 -22794.4156 3933.3652 0.0000 0.0000 583.3950 -18273.6610 61.4822 -18857.0561 -18272.1722 60.2119 -30.1729 34.2010 46570.7947 1.3759 1.0192
ENERGY: 50000 0.5587 2.4262 0.2443 0.0000 -22909.1104 4033.1779 0.0000 0.0000 593.7825 -18278.9209 62.5770 -18872.7034 -18277.9029 60.4316 528.2765 577.9750 46361.9671 5.3568 5.4920
TCL: Running 25000 steps at 90 kelvin.
TCL: Setting parameter langevinTemp to 90
TCL: Running for 25000 steps
ETITLE: TS BOND ANGLE DIHED IMPRP ELECT VDW BOUNDARY MISC KINETIC TOTAL TEMP POTENTIAL TOTAL3 TEMPAVG PRESSURE GPRESSURE VOLUME PRESSAVG GPRESSAVG
ENERGY: 50000 0.5587 2.4262 0.2443 0.0000 -22909.1104 4033.1779 0.0000 0.0000 593.5040 -18279.1994 62.5476 -18872.7034 -18278.1591 62.5476 523.3066 577.7770 46361.9671 523.3066 577.7770
ENERGY: 55000 1.3333 1.7961 1.4336 0.0000 -22520.7180 3927.6921 0.0000 0.0000 888.8711 -17699.5919 93.6754 -18588.4629 -17697.3490 86.9276 562.1053 628.7015 46717.8937 1.4243 1.3629
ENERGY: 60000 0.8083 3.0101 1.1814 0.0000 -22558.1166 3957.7924 0.0000 0.0000 848.4052 -17746.9192 89.4109 -18595.3244 -17745.6814 89.8789 814.3916 872.8423 46585.4997 6.6547 6.8969
ENERGY: 65000 0.6469 2.1421 1.2813 0.0000 -22527.9955 3919.9742 0.0000 0.0000 850.8703 -17753.0807 89.6707 -18603.9510 -17751.2535 90.4902 555.1688 600.0553 46589.4998 -2.5055 -2.1888
ENERGY: 70000 0.9603 0.8697 0.9867 0.0000 -22518.4618 3880.4273 0.0000 0.0000 868.0759 -17767.1419 91.4839 -18635.2177 -17764.1581 90.1812 184.6267 273.7508 46712.8291 2.2875 2.4567
ENERGY: 75000 1.0819 1.5987 1.1753 0.0000 -22300.3346 3647.6472 0.0000 0.0000 869.0427 -17779.7889 91.5858 -18648.8316 -17776.6005 90.2561 -1164.3947 -1071.0148 47001.8466 0.0442 0.1304
TCL: Running 25000 steps at 120 kelvin.
TCL: Setting parameter langevinTemp to 120
TCL: Running for 25000 steps
ETITLE: TS BOND ANGLE DIHED IMPRP ELECT VDW BOUNDARY MISC KINETIC TOTAL TEMP POTENTIAL TOTAL3 TEMPAVG PRESSURE GPRESSURE VOLUME PRESSAVG GPRESSAVG
ENERGY: 75000 1.0819 1.5987 1.1753 0.0000 -22300.3346 3647.6472 0.0000 0.0000 868.6279 -17780.2037 91.5421 -18648.8316 -17778.4430 91.5421 -1123.7543 -1070.6885 47001.8466 -1123.7543 -1070.6885
ENERGY: 80000 1.0710 2.7121 0.7224 0.0000 -21994.0319 3658.7620 0.0000 0.0000 1127.4197 -17203.3447 118.8154 -18330.7644 -17202.2253 116.8467 -343.5022 -303.4536 47324.4049 2.0040 2.1098
ENERGY: 85000 1.4260 1.4285 1.2704 0.0000 -21868.3936 3512.2652 0.0000 0.0000 1130.6030 -17221.4004 119.1508 -18352.0034 -17216.4142 120.8230 -1213.7757 -1160.9094 47581.7512 0.7661 0.4065
ENERGY: 90000 2.1216 3.4488 1.1763 0.0000 -22240.7761 3852.4101 0.0000 0.0000 1154.7397 -17226.8795 121.6945 -18381.6192 -17224.0021 120.6369 548.7280 595.6923 46824.6978 1.7526 1.4610
ENERGY: 95000 2.4083 2.5334 1.9874 0.0000 -22164.0512 3769.9588 0.0000 0.0000 1144.0881 -17243.0751 120.5720 -18387.1632 -17239.7176 119.8893 11.0434 92.1483 47012.6479 3.9357 4.3551
ENERGY: 100000 0.3803 3.1385 1.3485 0.0000 -22273.6380 3855.5788 0.0000 0.0000 1133.2538 -17279.9382 119.4302 -18413.1919 -17277.7300 120.0665 508.5558 573.3074 46842.1124 3.0078 2.9370
TCL: Running 25000 steps at 150 kelvin.
TCL: Setting parameter langevinTemp to 150
TCL: Running for 25000 steps
ETITLE: TS BOND ANGLE DIHED IMPRP ELECT VDW BOUNDARY MISC KINETIC TOTAL TEMP POTENTIAL TOTAL3 TEMPAVG PRESSURE GPRESSURE VOLUME PRESSAVG GPRESSAVG
ENERGY: 100000 0.3803 3.1385 1.3485 0.0000 -22273.6380 3855.5788 0.0000 0.0000 1132.6947 -17280.4972 119.3713 -18413.1919 -17278.6309 119.3713 511.7628 572.6510 46842.1124 511.7628 572.6510
ENERGY: 105000 1.8099 4.8842 2.9500 0.0000 -21595.6086 3544.4703 0.0000 0.0000 1438.9131 -16602.5811 151.6427 -18041.4942 -16600.3049 147.1530 -236.7546 -203.0925 47389.3690 2.4313 2.7599
ENERGY: 110000 1.8677 2.4705 1.8557 0.0000 -21633.0262 3518.1095 0.0000 0.0000 1449.5118 -16659.2110 152.7597 -18108.7229 -16654.7615 150.9993 -460.3568 -433.7680 47469.0992 7.5891 7.3803
ENERGY: 115000 0.6337 3.3925 2.9955 0.0000 -21579.5481 3502.9525 0.0000 0.0000 1401.8314 -16667.7424 147.7348 -18069.5739 -16665.7930 150.4599 -545.7278 -489.3419 47452.4876 2.8189 2.7262
ENERGY: 120000 1.1881 2.8133 1.2529 0.0000 -21738.8476 3595.1345 0.0000 0.0000 1409.6559 -16728.8029 148.5594 -18138.4588 -16725.4225 150.6543 -76.5676 -26.7967 47027.1207 2.5334 2.4955
ENERGY: 125000 1.6091 4.0233 2.6663 0.0000 -21951.0800 3769.6640 0.0000 0.0000 1429.3087 -16743.8087 150.6305 -18173.1173 -16740.3327 150.0015 806.4012 836.0791 46610.3598 -0.2634 -0.6016
TCL: Running 50000 steps at 180 kelvin.
TCL: Setting parameter langevinTemp to 180
TCL: Running for 50000 steps
ETITLE: TS BOND ANGLE DIHED IMPRP ELECT VDW BOUNDARY MISC KINETIC TOTAL TEMP POTENTIAL TOTAL3 TEMPAVG PRESSURE GPRESSURE VOLUME PRESSAVG GPRESSAVG
ENERGY: 125000 1.6091 4.0233 2.6663 0.0000 -21951.0800 3769.6640 0.0000 0.0000 1428.6023 -16744.5150 150.5561 -18173.1173 -16742.1162 150.5561 793.6381 836.2178 46610.3598 793.6381 836.2178
ENERGY: 135000 1.9484 3.9550 4.9326 0.0000 -21015.8501 3340.5748 0.0000 0.0000 1720.4764 -15943.9629 181.3158 -17664.4393 -15939.2567 180.6749 -282.9645 -245.6863 47076.5646 2.1064 1.6704
ENERGY: 145000 2.1885 4.2660 3.5319 0.0000 -21193.9160 3392.0014 0.0000 0.0000 1709.7775 -16082.1507 180.1883 -17791.9282 -16078.5019 179.8059 -401.8199 -285.4328 46879.1616 3.8652 3.7977
ENERGY: 155000 0.7763 2.1817 1.7762 0.0000 -21296.5701 3570.8488 0.0000 0.0000 1760.2135 -15960.7736 185.5036 -17720.9872 -15958.9297 180.5726 884.6333 923.9925 46668.7471 2.7296 2.8132
ENERGY: 165000 2.3057 2.6613 2.5855 0.0000 -21171.0542 3474.9025 0.0000 0.0000 1704.0705 -15984.5286 179.5869 -17688.5992 -15980.4387 180.3259 529.2974 582.0445 46384.0961 -1.7537 -1.5690
ENERGY: 175000 1.6833 3.7685 2.0939 0.0000 -21202.6756 3474.3143 0.0000 0.0000 1742.0754 -15978.7403 183.5921 -17720.8157 -15976.3428 180.1257 369.1972 389.1711 46658.2696 8.4000 8.2807
TCL: Running 50000 steps at 210 kelvin.
TCL: Setting parameter langevinTemp to 210
TCL: Running for 50000 steps
ETITLE: TS BOND ANGLE DIHED IMPRP ELECT VDW BOUNDARY MISC KINETIC TOTAL TEMP POTENTIAL TOTAL3 TEMPAVG PRESSURE GPRESSURE VOLUME PRESSAVG GPRESSAVG
ENERGY: 175000 1.6833 3.7685 2.0939 0.0000 -21202.6756 3474.3143 0.0000 0.0000 1741.2370 -15979.5786 183.5037 -17720.8157 -15977.0526 183.5037 321.5002 389.5617 46658.2696 321.5002 389.5617
ENERGY: 185000 1.4782 2.6461 2.5921 0.0000 -19955.6379 2930.3304 0.0000 0.0000 1950.5666 -15068.0245 205.5643 -17018.5911 -15063.7779 210.6882 -908.1467 -837.5601 46867.9864 -1.0319 -0.3787
ENERGY: 195000 1.1034 4.7176 1.4571 0.0000 -19955.3290 2977.5447 0.0000 0.0000 1935.4679 -15035.0382 203.9731 -16970.5062 -15031.3849 209.6533 -416.7785 -368.3866 46679.1527 6.3468 5.9373
ENERGY: 205000 1.7323 4.4260 2.4912 0.0000 -20128.1462 3143.9720 0.0000 0.0000 2041.3739 -14934.1508 215.1343 -16975.5247 -14928.7825 210.5139 490.4874 529.0860 46414.9027 3.8221 3.7349
ENERGY: 215000 1.0245 5.2316 1.3033 0.0000 -19947.1797 2946.0203 0.0000 0.0000 2028.9455 -14964.6544 213.8245 -16993.5999 -14960.9004 208.8174 -650.2851 -553.7692 46952.2802 5.3251 5.4436
ENERGY: 225000 2.3933 3.1120 6.3653 0.0000 -20005.7556 2970.8798 0.0000 0.0000 2032.1576 -14990.8476 214.1630 -17023.0053 -14984.0314 210.4540 -598.9584 -522.6370 46700.1766 2.2288 2.5103
TCL: Running 50000 steps at 240 kelvin.
TCL: Setting parameter langevinTemp to 240
TCL: Running for 50000 steps
ETITLE: TS BOND ANGLE DIHED IMPRP ELECT VDW BOUNDARY MISC KINETIC TOTAL TEMP POTENTIAL TOTAL3 TEMPAVG PRESSURE GPRESSURE VOLUME PRESSAVG GPRESSAVG
ENERGY: 225000 2.3933 3.1120 6.3653 0.0000 -20005.7556 2970.8798 0.0000 0.0000 2031.1598 -14991.8455 214.0578 -17023.0053 -14987.6961 214.0578 -602.7721 -521.6175 46700.1766 -602.7721 -521.6175
ENERGY: 235000 2.2693 4.1082 5.4317 0.0000 -18875.3583 2614.6548 0.0000 0.0000 2257.3089 -13991.5855 237.8910 -16248.8943 -13985.9978 241.2565 -480.9702 -409.8829 46298.3806 2.9391 3.3603
ENERGY: 245000 1.5959 5.8221 4.0957 0.0000 -19066.1321 2699.8391 0.0000 0.0000 2282.4139 -14072.3653 240.5367 -16354.7792 -14069.5402 239.6123 -558.5964 -470.2153 47090.6200 -2.9095 -2.5285
ENERGY: 255000 1.9922 2.5033 3.4254 0.0000 -18942.8682 2665.9792 0.0000 0.0000 2244.1695 -14024.7987 236.5063 -16268.9681 -14021.5626 242.1332 -587.1861 -493.7233 47048.6058 3.9908 3.9353
ENERGY: 265000 3.1436 5.3378 3.0445 0.0000 -19062.0102 2810.9227 0.0000 0.0000 2258.2056 -13981.3560 237.9855 -16239.5616 -13979.2265 240.1172 243.0838 349.5323 46985.0605 -0.8567 -0.9168
ENERGY: 275000 2.4489 2.5304 3.0309 0.0000 -19200.8073 2800.9019 0.0000 0.0000 2315.4363 -14076.4589 244.0169 -16391.8952 -14071.1562 239.2904 -225.4400 -117.3794 47102.6788 4.4741 4.4479
TCL: Running 50000 steps at 270 kelvin.
TCL: Setting parameter langevinTemp to 270
TCL: Running for 50000 steps
ETITLE: TS BOND ANGLE DIHED IMPRP ELECT VDW BOUNDARY MISC KINETIC TOTAL TEMP POTENTIAL TOTAL3 TEMPAVG PRESSURE GPRESSURE VOLUME PRESSAVG GPRESSAVG
ENERGY: 275000 2.4489 2.5304 3.0309 0.0000 -19200.8073 2800.9019 0.0000 0.0000 2314.3264 -14077.5688 243.8999 -16391.8952 -14073.3466 243.8999 -203.6205 -116.9589 47102.6788 -203.6205 -116.9589
ENERGY: 285000 2.4841 4.0748 2.3864 0.0000 -18148.0917 2551.5790 0.0000 0.0000 2612.9081 -12974.6592 275.3665 -15587.5673 -12971.3327 270.3613 77.4671 192.7994 47932.6511 0.6202 1.2900
ENERGY: 295000 1.9524 5.1151 4.4364 0.0000 -18104.6125 2493.2218 0.0000 0.0000 2583.2545 -13016.6324 272.2414 -15599.8869 -13010.4486 270.1528 -66.7457 11.0094 47683.8943 0.9992 1.1134
ENERGY: 305000 0.6350 5.5174 1.4203 0.0000 -18170.9426 2471.7649 0.0000 0.0000 2522.0079 -13169.5972 265.7868 -15691.6050 -13163.6725 270.1725 -444.1781 -335.5759 47874.9285 -1.3689 -1.4145
ENERGY: 315000 7.3572 4.3729 2.1945 0.0000 -18121.4655 2466.8041 0.0000 0.0000 2592.9350 -13047.8017 273.2616 -15640.7367 -13040.6248 271.2097 -458.4771 -417.8014 47948.1217 -0.8879 -0.2722
ENERGY: 325000 2.0660 4.6574 4.5242 0.0000 -18260.2491 2596.0243 0.0000 0.0000 2549.2998 -13103.6774 268.6630 -15652.9773 -13099.5216 271.6759 229.8936 321.7958 47805.8901 -0.2093 -0.2011
TCL: Running 1000000 steps at 300 kelvin.
TCL: Setting parameter langevinTemp to 300
TCL: Running for 1000000 steps
ETITLE: TS BOND ANGLE DIHED IMPRP ELECT VDW BOUNDARY MISC KINETIC TOTAL TEMP POTENTIAL TOTAL3 TEMPAVG PRESSURE GPRESSURE VOLUME PRESSAVG GPRESSAVG
ENERGY: 325000 2.0660 4.6574 4.5242 0.0000 -18260.2491 2596.0243 0.0000 0.0000 2548.0052 -13104.9721 268.5266 -15652.9773 -13100.8216 268.5266 232.5701 322.0472 47805.8901 232.5701 322.0472
ENERGY: 525000 2.3237 5.2531 2.8216 0.0000 -17217.6485 2255.0288 0.0000 0.0000 2793.0736 -12159.1478 294.3536 -14952.2214 -12155.1416 302.1867 -469.4923 -344.0293 49333.2141 -1.8627 -1.3124
ENERGY: 725000 1.4363 5.5714 3.9295 0.0000 -17380.2528 2285.8514 0.0000 0.0000 2874.4571 -12209.0070 302.9304 -15083.4641 -12203.1428 299.2571 -214.5360 -165.8297 49059.2470 3.1906 3.5077
ENERGY: 925000 0.5435 4.1948 2.6202 0.0000 -17496.9666 2348.1904 0.0000 0.0000 2868.8496 -12272.5683 302.3394 -15141.4179 -12268.2833 303.0994 -261.8359 -170.3906 49210.7619 0.2525 0.6720
ENERGY: 1125000 0.6488 3.3648 3.4138 0.0000 -17318.5178 2288.5006 0.0000 0.0000 2792.0948 -12230.4950 294.2505 -15022.5898 -12225.7898 299.2421 -303.1034 -251.3010 49181.2637 4.1256 3.9471
ENERGY: 1325000 1.1904 6.4749 7.6058 0.0000 -17223.7986 2199.7267 0.0000 0.0000 2867.5270 -12141.2739 302.2001 -15008.8009 -12135.6143 300.9094 -592.0137 -532.5758 49025.4735 -1.8603 -1.5823
TCL: Exiting due to exit command.
