Info: SIMULATION PARAMETERS:
Info: TIMESTEP               2
Info: NUMBER OF STEPS        0
Info: STEPS PER CYCLE        10
Info: PERIODIC CELL BASIS 1  35.89 0 0
Info: PERIODIC CELL BASIS 2  0 35.411 0
Info: PERIODIC CELL BASIS 3  0 0 35.723
Info: PERIODIC CELL CENTER   0 0 0
Info: WRAPPING WATERS AROUND PERIODIC BOUNDARIES ON OUTPUT.
Info: WRAPPING ALL CLUSTERS AROUND PERIODIC BOUNDARIES ON OUTPUT.
Info: FIRST LDB TIMESTEP     50
Info: LAST LDB TIMESTEP     -1
Info: HOM BACKGROUND SCALING 1
Info: PME BACKGROUND SCALING 1
Info: MIN ATOMS PER PATCH    40
Info: EMPTY PATCH LOAD       40 ATOMS
Info: INITIAL TEMPERATURE    300
Info: CENTER OF MASS MOVING INITIALLY? NO
Info: DIELECTRIC             1
Info: EXCLUDE                SCALED ONE-FOUR
Info: 1-4 ELECTROSTATICS SCALED BY 0.833333
Info: MODIFIED 1-4 VDW PARAMETERS WILL BE USED
Info: DCD FILENAME           mobley_1723043_equil.dcd
Info: DCD FREQUENCY          100000
Info: DCD FIRST STEP         100000
Info: DCD FILE WILL CONTAIN UNIT CELL DATA
Info: XST FILENAME           mobley_1723043_equil.xst
Info: XST FREQUENCY          100000
Info: NO VELOCITY DCD OUTPUT
Info: NO FORCE DCD OUTPUT
Info: OUTPUT FILENAME        mobley_1723043_equil
Info: BINARY OUTPUT FILES WILL BE USED
Info: RESTART FILENAME       mobley_1723043_equil.restart
Info: RESTART FREQUENCY      100000
Info: BINARY RESTART FILES WILL BE USED
Info: CUTOFF                 9
Info: PAIRLIST DISTANCE      11
Info: PAIRLIST SHRINK RATE   0.01
Info: PAIRLIST GROW RATE     0.01
Info: PAIRLIST TRIGGER       0.3
Info: PAIRLISTS PER CYCLE    2
Info: PAIRLISTS ENABLED
Info: MARGIN                 8
Info: HYDROGEN GROUP CUTOFF  2.5
Info: PATCH DIMENSION        21.5
Info: ENERGY OUTPUT STEPS    100000
Info: ENERGY EVALUATION STEPS    100000
Info: OUTPUT ENERGY PRECISION 4
Info: CROSSTERM ENERGY INCLUDED IN DIHEDRAL
Info: TIMING OUTPUT STEPS    1000000
Info: PRESSURE OUTPUT STEPS  100000
Info: LANGEVIN DYNAMICS ACTIVE
Info: LANGEVIN TEMPERATURE   30
Info: LANGEVIN USING BBK INTEGRATOR
Info: LANGEVIN DAMPING COEFFICIENT IS 1 INVERSE PS
Info: LANGEVIN DYNAMICS APPLIED TO HYDROGENS
Info: LANGEVIN PISTON PRESSURE CONTROL ACTIVE
Info:        TARGET PRESSURE IS 1.01325 BAR
Info:     OSCILLATION PERIOD IS 50 FS
Info:             DECAY TIME IS 25 FS
Info:     PISTON TEMPERATURE IS 300 K
Info:       PRESSURE CONTROL IS GROUP-BASED
Info:    INITIAL STRAIN RATE IS 0 0 0
Info:       CELL FLUCTUATION IS ISOTROPIC
Info: PARTICLE MESH EWALD (PME) ACTIVE
Info: PME TOLERANCE               1e-06
Info: PME EWALD COEFFICIENT       0.348832
Info: PME INTERPOLATION ORDER     4
Info: PME GRID DIMENSIONS         36 36 36
Info: PME MAXIMUM GRID SPACING    1
Info: FULL ELECTROSTATIC EVALUATION FREQUENCY      2
Info: USING VERLET I (r-RESPA) MTS SCHEME.
Info: C1 SPLITTING OF LONG RANGE ELECTROSTATICS
Info: PLACING ATOMS IN PATCHES BY HYDROGEN GROUPS
Info: RIGID BONDS TO HYDROGEN : ALL
Info:         ERROR TOLERANCE : 1e-08
Info:          MAX ITERATIONS : 100
Info: RIGID WATER USING SETTLE ALGORITHM
Info: RANDOM NUMBER SEED     1742014391
Info: USE HYDROGEN BONDS?    NO
Info: Using AMBER format force field!
Info: AMBER PARM FILE        mobley_1723043.prmtop
Info: COORDINATE PDB         mobley_1723043.pdb
Info: Exclusions will be read from PARM file!
Info: SCNB (VDW SCALING)     2
Info: USING ARITHMETIC MEAN TO COMBINE L-J SIGMA PARAMETERS
Info: BINARY COORDINATES     mobley_1723043_min.coor
Info: SUMMARY OF PARAMETERS:
Info: 4 BONDS
Info: 3 ANGLES
Info:   3 HARMONIC
Info:   0 COSINE-BASED
Info: 1 DIHEDRAL
Info: 0 IMPROPER
Info: 0 CROSSTERM
Info: 0 VDW
Info: 10 VDW_PAIRS
Info: 0 NBTHOLE_PAIRS
Info: STRUCTURE SUMMARY:
Info: 2994 ATOMS
Info: 2994 BONDS
Info: 24 ANGLES
Info: 36 DIHEDRALS
Info: 0 IMPROPERS
Info: 0 CROSSTERMS
Info: 3040 EXCLUSIONS
Info: 2982 RIGID BONDS
Info: 6000 DEGREES OF FREEDOM
Info: 1006 HYDROGEN GROUPS
Info: 3 ATOMS IN LARGEST HYDROGEN GROUP
Info: 1006 MIGRATION GROUPS
Info: 3 ATOMS IN LARGEST MIGRATION GROUP
Info: TOTAL MASS = 18107.9 amu
Info: TOTAL CHARGE = 0 e
Info: MASS DENSITY = 0.662321 g/cm^3
Info: ATOM DENSITY = 0.0659466 atoms/A^3
Info: ADDED 0 IMPLICIT EXCLUSIONS
Info: NONBONDED TABLE R-SQUARED SPACING: 0.0625
Info: NONBONDED TABLE SIZE: 705 POINTS
Info: REMOVING COM VELOCITY 0.188954 -0.0266887 0.0903061
TCL: Running for 100000 steps
ETITLE: TS BOND ANGLE DIHED IMPRP ELECT VDW BOUNDARY MISC KINETIC TOTAL TEMP POTENTIAL TOTAL3 TEMPAVG PRESSURE GPRESSURE VOLUME PRESSAVG GPRESSAVG
ENERGY: 0 0.3558 0.8496 5.7318 0.0000 -13855.5306 2464.0945 0.0000 0.0000 1759.9034 -9624.5954 295.2079 -11384.4988 -9624.2613 295.2079 430.5655 465.4923 45400.3889 430.5655 465.4923
ENERGY: 100000 0.4743 1.4618 6.1309 0.0000 -14302.9711 2407.8980 0.0000 0.0000 181.3848 -11705.6211 30.4257 -11887.0060 -11705.0735 30.8312 -920.5171 -851.4575 29560.0732 4.0719 4.0344
TCL: Running 100000 steps at 60 kelvin.
TCL: Setting parameter langevinTemp to 60
TCL: Running for 100000 steps
ETITLE: TS BOND ANGLE DIHED IMPRP ELECT VDW BOUNDARY MISC KINETIC TOTAL TEMP POTENTIAL TOTAL3 TEMPAVG PRESSURE GPRESSURE VOLUME PRESSAVG GPRESSAVG
ENERGY: 100000 0.4743 1.4618 6.1309 0.0000 -14302.9711 2407.8980 0.0000 0.0000 181.2952 -11705.7108 30.4106 -11887.0060 -11705.1688 30.4106 -907.0817 -851.2737 29560.0732 -907.0817 -851.2737
ENERGY: 200000 1.5736 3.1665 5.1843 0.0000 -14191.6104 2349.0994 0.0000 0.0000 347.2641 -11485.3226 58.2504 -11832.5867 -11484.7763 59.9566 -975.6787 -898.6300 29320.5884 2.9531 2.9142
TCL: Running 100000 steps at 90 kelvin.
TCL: Setting parameter langevinTemp to 90
TCL: Running for 100000 steps
ETITLE: TS BOND ANGLE DIHED IMPRP ELECT VDW BOUNDARY MISC KINETIC TOTAL TEMP POTENTIAL TOTAL3 TEMPAVG PRESSURE GPRESSURE VOLUME PRESSAVG GPRESSAVG
ENERGY: 200000 1.5736 3.1665 5.1843 0.0000 -14191.6104 2349.0994 0.0000 0.0000 347.0905 -11485.4962 58.2213 -11832.5867 -11484.7184 58.2213 -963.8584 -898.6330 29320.5884 -963.8584 -898.6330
ENERGY: 300000 1.6728 1.7343 4.8919 0.0000 -14159.8495 2418.0333 0.0000 0.0000 534.6172 -11198.9000 89.6772 -11733.5173 -11197.5334 89.8161 -71.5044 -48.5235 29114.6213 3.7924 3.8506
TCL: Running 100000 steps at 120 kelvin.
TCL: Setting parameter langevinTemp to 120
TCL: Running for 100000 steps
ETITLE: TS BOND ANGLE DIHED IMPRP ELECT VDW BOUNDARY MISC KINETIC TOTAL TEMP POTENTIAL TOTAL3 TEMPAVG PRESSURE GPRESSURE VOLUME PRESSAVG GPRESSAVG
ENERGY: 300000 1.6728 1.7343 4.8919 0.0000 -14159.8495 2418.0333 0.0000 0.0000 534.3475 -11199.1698 89.6320 -11733.5173 -11197.8447 89.6320 -106.6729 -48.8901 29114.6213 -106.6729 -48.8901
ENERGY: 400000 1.3653 2.2595 5.6571 0.0000 -13969.7084 2377.7868 0.0000 0.0000 695.9147 -10886.7249 116.7334 -11582.6397 -10884.9795 119.6677 136.4634 199.3352 29115.0171 3.9930 3.9542
TCL: Running 100000 steps at 150 kelvin.
TCL: Setting parameter langevinTemp to 150
TCL: Running for 100000 steps
ETITLE: TS BOND ANGLE DIHED IMPRP ELECT VDW BOUNDARY MISC KINETIC TOTAL TEMP POTENTIAL TOTAL3 TEMPAVG PRESSURE GPRESSURE VOLUME PRESSAVG GPRESSAVG
ENERGY: 400000 1.3653 2.2595 5.6571 0.0000 -13969.7084 2377.7868 0.0000 0.0000 695.5718 -10887.0679 116.6759 -11582.6397 -10885.8747 116.6759 151.4776 199.1861 29115.0171 151.4776 199.1861
ENERGY: 500000 2.0966 2.7192 5.4521 0.0000 -13863.7097 2416.1226 0.0000 0.0000 879.7620 -10557.5572 147.5721 -11437.3192 -10555.3060 149.9173 889.5236 950.1452 29303.9150 3.0575 3.1146
TCL: Running 100000 steps at 180 kelvin.
TCL: Setting parameter langevinTemp to 180
TCL: Running for 100000 steps
ETITLE: TS BOND ANGLE DIHED IMPRP ELECT VDW BOUNDARY MISC KINETIC TOTAL TEMP POTENTIAL TOTAL3 TEMPAVG PRESSURE GPRESSURE VOLUME PRESSAVG GPRESSAVG
ENERGY: 500000 2.0966 2.7192 5.4521 0.0000 -13863.7097 2416.1226 0.0000 0.0000 879.3026 -10558.0166 147.4951 -11437.3192 -10556.4249 147.4951 882.8869 950.6465 29303.9150 882.8869 950.6465
ENERGY: 600000 1.9049 3.0138 4.9016 0.0000 -13184.9395 2063.5680 0.0000 0.0000 1062.6504 -10048.9009 178.2500 -11111.5513 -10044.6137 180.2023 -742.6627 -668.1871 29451.1115 3.2940 3.1887
TCL: Running 100000 steps at 210 kelvin.
TCL: Setting parameter langevinTemp to 210
TCL: Running for 100000 steps
ETITLE: TS BOND ANGLE DIHED IMPRP ELECT VDW BOUNDARY MISC KINETIC TOTAL TEMP POTENTIAL TOTAL3 TEMPAVG PRESSURE GPRESSURE VOLUME PRESSAVG GPRESSAVG
ENERGY: 600000 1.9049 3.0138 4.9016 0.0000 -13184.9395 2063.5680 0.0000 0.0000 1062.0916 -10049.4597 178.1563 -11111.5513 -10047.5261 178.1563 -733.6321 -667.2159 29451.1115 -733.6321 -667.2159
ENERGY: 700000 3.4955 3.7461 5.4676 0.0000 -12531.8343 1908.5602 0.0000 0.0000 1331.9048 -9278.6601 223.4150 -10610.5649 -9277.2728 210.0221 21.4840 62.9468 29206.3899 2.3704 2.3349
TCL: Running 100000 steps at 240 kelvin.
TCL: Setting parameter langevinTemp to 240
TCL: Running for 100000 steps
ETITLE: TS BOND ANGLE DIHED IMPRP ELECT VDW BOUNDARY MISC KINETIC TOTAL TEMP POTENTIAL TOTAL3 TEMPAVG PRESSURE GPRESSURE VOLUME PRESSAVG GPRESSAVG
ENERGY: 700000 3.4955 3.7461 5.4676 0.0000 -12531.8343 1908.5602 0.0000 0.0000 1331.2799 -9279.2850 223.3102 -10610.5649 -9276.9046 223.3102 -12.6812 61.5892 29206.3899 -12.6812 61.5892
ENERGY: 800000 4.4236 6.6183 6.4007 0.0000 -12097.4359 1859.3723 0.0000 0.0000 1463.1729 -8757.4480 245.4340 -10220.6209 -8755.1476 240.2558 1224.4402 1343.0196 28953.7120 3.5154 3.4796
TCL: Running 100000 steps at 270 kelvin.
TCL: Setting parameter langevinTemp to 270
TCL: Running for 100000 steps
ETITLE: TS BOND ANGLE DIHED IMPRP ELECT VDW BOUNDARY MISC KINETIC TOTAL TEMP POTENTIAL TOTAL3 TEMPAVG PRESSURE GPRESSURE VOLUME PRESSAVG GPRESSAVG
ENERGY: 800000 4.4236 6.6183 6.4007 0.0000 -12097.4359 1859.3723 0.0000 0.0000 1462.4898 -8758.1312 245.3194 -10220.6209 -8755.8442 245.3194 1261.0667 1341.2226 28953.7120 1261.0667 1341.2226
ENERGY: 900000 2.9711 6.7705 4.6681 0.0000 -11367.8537 1577.6394 0.0000 0.0000 1588.8453 -8186.9593 266.5144 -9775.8046 -8184.7452 269.9265 -258.7611 -164.3699 30306.7091 3.1939 3.3214
TCL: Running 1000000 steps at 300 kelvin.
TCL: Setting parameter langevinTemp to 300
TCL: Running for 1000000 steps
ETITLE: TS BOND ANGLE DIHED IMPRP ELECT VDW BOUNDARY MISC KINETIC TOTAL TEMP POTENTIAL TOTAL3 TEMPAVG PRESSURE GPRESSURE VOLUME PRESSAVG GPRESSAVG
ENERGY: 900000 2.9711 6.7705 4.6681 0.0000 -11367.8537 1577.6394 0.0000 0.0000 1588.0130 -8187.7915 266.3748 -9775.8046 -8186.0539 266.3748 -246.6197 -164.3933 30306.7091 -246.6197 -164.3933
ENERGY: 1100000 3.3993 4.3355 5.0675 0.0000 -10810.3717 1529.9919 0.0000 0.0000 1817.1686 -7450.4090 304.8136 -9267.5776 -7449.2158 300.6152 624.1415 691.1939 31118.7719 3.3191 3.1215
ENERGY: 1300000 2.1841 3.6108 6.1154 0.0000 -10802.4371 1489.1894 0.0000 0.0000 1846.6248 -7454.7126 309.7546 -9301.3373 -7449.0477 300.0721 651.4612 769.2960 30574.3756 2.6944 2.7596
ENERGY: 1500000 2.7029 6.1914 6.1588 0.0000 -10737.2204 1401.0884 0.0000 0.0000 1797.4033 -7523.6756 301.4982 -9321.0789 -7518.8957 300.2713 -183.0838 -112.8444 30702.5572 4.8941 5.0537
ENERGY: 1700000 4.7519 5.8946 5.8252 0.0000 -10733.0940 1398.2407 0.0000 0.0000 1749.6736 -7568.7080 293.4919 -9318.3816 -7566.1333 300.2065 -272.3884 -181.5211 30842.2295 4.1931 4.1995
ENERGY: 1900000 4.3032 5.6000 6.2367 0.0000 -10898.8802 1548.1036 0.0000 0.0000 1772.4338 -7562.2030 297.3097 -9334.6368 -7558.5557 299.7858 922.9463 922.9805 31027.9465 2.4923 2.5361
TCL: Exiting due to exit command.
