Info: SIMULATION PARAMETERS:
Info: TIMESTEP               2
Info: NUMBER OF STEPS        0
Info: STEPS PER CYCLE        10
Info: PERIODIC CELL BASIS 1  85.4439 0 0
Info: PERIODIC CELL BASIS 2  0 85.4439 0
Info: PERIODIC CELL BASIS 3  0 0 85.4439
Info: PERIODIC CELL CENTER   41.59 41.59 41.59
Info: WRAPPING ALL CLUSTERS AROUND PERIODIC BOUNDARIES ON OUTPUT.
Info: FIRST LDB TIMESTEP     50
Info: LAST LDB TIMESTEP     -1
Info: HOM BACKGROUND SCALING 1
Info: PME BACKGROUND SCALING 1
Info: MIN ATOMS PER PATCH    40
Info: EMPTY PATCH LOAD       40 ATOMS
Info: VELOCITY FILE          mobley_3709920_equilibrated.vel
Info: CENTER OF MASS MOVING INITIALLY? NO
Info: DIELECTRIC             1
Info: EXCLUDE                SCALED ONE-FOUR
Info: 1-4 ELECTROSTATICS SCALED BY 1
Info: MODIFIED 1-4 VDW PARAMETERS WILL BE USED
Info: DCD FILENAME           mobley_3709920_forwards.dcd
Info: DCD FREQUENCY          500
Info: DCD FIRST STEP         500
Info: DCD FILE WILL CONTAIN UNIT CELL DATA
Info: NO EXTENDED SYSTEM TRAJECTORY OUTPUT
Info: NO VELOCITY DCD OUTPUT
Info: NO FORCE DCD OUTPUT
Info: OUTPUT FILENAME        mobley_3709920_forwards
Info: BINARY OUTPUT FILES WILL BE USED
Info: NO RESTART FILE
Info: SWITCHING ACTIVE
Info: SWITCHING ON           10
Info: SWITCHING OFF          12
Info: PAIRLIST DISTANCE      14
Info: PAIRLIST SHRINK RATE   0.01
Info: PAIRLIST GROW RATE     0.01
Info: PAIRLIST TRIGGER       0.3
Info: PAIRLISTS PER CYCLE    2
Info: PAIRLISTS ENABLED
Info: MARGIN                 8
Info: HYDROGEN GROUP CUTOFF  2.5
Info: PATCH DIMENSION        24.5
Info: ENERGY OUTPUT STEPS    500
Info: ENERGY EVALUATION STEPS    500
Info: OUTPUT ENERGY PRECISION 4
Info: CROSSTERM ENERGY INCLUDED IN DIHEDRAL
Info: TIMING OUTPUT STEPS    500
Info: PRESSURE OUTPUT STEPS  500
Info: ALCHEMICAL FEP ON
Info: FEP CURRENT LAMBDA VALUE     0
Info: FEP COMPARISON LAMBDA VALUE  0.0625
Info: FEP INTRA-ALCHEMICAL NON-BONDED INTERACTIONS WILL BE DECOUPLED
Info: FEP INTRA-ALCHEMICAL BONDED INTERACTIONS WILL BE RETAINED
Info: FEP VDW SHIFTING COEFFICIENT 6
Info: FEP ELEC. ACTIVE FOR ANNIHILATED PARTICLES BETWEEN LAMBDA = 0 AND LAMBDA = 0.5
Info: FEP ELEC. ACTIVE FOR EXNIHILATED PARTICLES BETWEEN LAMBDA = 0.5 AND LAMBDA = 1
Info: FEP VDW ACTIVE FOR ANNIHILATED PARTICLES BETWEEN LAMBDA = 0 AND LAMBDA = 1
Info: FEP VDW ACTIVE FOR EXNIHILATED PARTICLES BETWEEN LAMBDA = 0 AND LAMBDA = 1
Info: FEP BOND ACTIVE FOR ANNIHILATED PARTICLES BETWEEN LAMBDA = 1 AND LAMBDA = 1
Info: FEP BOND ACTIVE FOR EXNIHILATED PARTICLES BETWEEN LAMBDA = 0 AND LAMBDA = 0
Info: LANGEVIN DYNAMICS ACTIVE
Info: LANGEVIN TEMPERATURE   298
Info: LANGEVIN USING BBK INTEGRATOR
Info: LANGEVIN DAMPING COEFFICIENT IS 1 INVERSE PS
Info: LANGEVIN DYNAMICS NOT APPLIED TO HYDROGENS
Info: LANGEVIN PISTON PRESSURE CONTROL ACTIVE
Info:        TARGET PRESSURE IS 1.01325 BAR
Info:     OSCILLATION PERIOD IS 100 FS
Info:             DECAY TIME IS 50 FS
Info:     PISTON TEMPERATURE IS 298 K
Info:       PRESSURE CONTROL IS GROUP-BASED
Info:    INITIAL STRAIN RATE IS 6.51255e-05 6.51255e-05 6.51255e-05
Info:       CELL FLUCTUATION IS ISOTROPIC
Info: PARTICLE MESH EWALD (PME) ACTIVE
Info: PME TOLERANCE               1e-05
Info: PME EWALD COEFFICIENT       0.226635
Info: PME INTERPOLATION ORDER     4
Info: PME GRID DIMENSIONS         88 88 88
Info: PME MAXIMUM GRID SPACING    1
Info: FULL ELECTROSTATIC EVALUATION FREQUENCY      1
Info: USING VERLET I (r-RESPA) MTS SCHEME.
Info: C1 SPLITTING OF LONG RANGE ELECTROSTATICS
Info: PLACING ATOMS IN PATCHES BY HYDROGEN GROUPS
Info: RIGID BONDS TO HYDROGEN : ALL
Info:         ERROR TOLERANCE : 1e-08
Info:          MAX ITERATIONS : 100
Info: RIGID WATER USING SETTLE ALGORITHM
Info: RANDOM NUMBER SEED     1740641365
Info: USE HYDROGEN BONDS?    NO
Info: COORDINATE PDB         mobley_3709920.pdb
Info: STRUCTURE FILE         mobley_3709920.psf
Info: PARAMETER file: CHARMM format!
Info: PARAMETERS             ../common/par_all27_prot_lipid.inp
Info: PARAMETERS             mobley_3709920.prm
Info: USING ARITHMETIC MEAN TO COMBINE L-J SIGMA PARAMETERS
Info: BINARY COORDINATES     mobley_3709920_equilibrated.coor
Info: SUMMARY OF PARAMETERS:
Info: 185 BONDS
Info: 456 ANGLES
Info: 580 DIHEDRAL
Info: 48 IMPROPER
Info: 6 CROSSTERM
Info: 123 VDW
Info: 0 VDW_PAIRS
Info: 0 NBTHOLE_PAIRS
Info: To read alchdata from file: mobley_3709920.pdb
Info: To read alchflag data from column: 5
Info: STRUCTURE SUMMARY:
Info: 7059 ATOMS
Info: 4714 BONDS
Info: 2392 ANGLES
Info: 64 DIHEDRALS
Info: 2 IMPROPERS
Info: 0 CROSSTERMS
Info: 0 EXCLUSIONS
Info: 7050 RIGID BONDS
Info: ALCH: 0 ATOMS TO DISAPPEAR IN FINAL STATE
Info: ALCH: 27 ATOMS TO APPEAR IN FINAL STATE
Info: 14127 DEGREES OF FREEDOM
Info: 2353 HYDROGEN GROUPS
Info: 4 ATOMS IN LARGEST HYDROGEN GROUP
Info: 2353 MIGRATION GROUPS
Info: 4 ATOMS IN LARGEST MIGRATION GROUP
Info: TOTAL MASS = 42354.3 amu
Info: TOTAL CHARGE = 7.45058e-09 e
Info: MASS DENSITY = 0.112749 g/cm^3
Info: ATOM DENSITY = 0.0113162 atoms/A^3
Info: ADDED 7170 IMPLICIT EXCLUSIONS
Info: NONBONDED TABLE R-SQUARED SPACING: 0.0625
Info: NONBONDED TABLE SIZE: 769 POINTS
Info: REMOVING COM VELOCITY -0.247439 0.066564 0.0164825
TCL: Running for 5000 steps
ETITLE: TS BOND ANGLE DIHED IMPRP ELECT VDW BOUNDARY MISC KINETIC TOTAL TEMP POTENTIAL TOTAL3 TEMPAVG PRESSURE GPRESSURE VOLUME PRESSAVG GPRESSAVG
ENERGY: 0 6.3125 10.5768 5.2276 0.0242 -24433.5153 2514.5790 0.0000 0.0000 4128.9169 -17767.8783 294.1552 -21896.7952 -17759.8311 294.1552 -24.8567 -24.6335 623796.3056 -24.8567 -24.6335
ENERGY: 1000 1.9744 11.1725 6.8258 0.0403 -24564.8599 2663.9590 0.0000 0.0000 4163.3856 -17717.5023 296.6109 -21880.8879 -17706.3867 296.8639 32.8432 33.0960 602028.2604 1.9679 2.0017
ENERGY: 2000 1.0637 11.4137 5.6063 0.1082 -24372.4219 2559.7539 0.0000 0.0000 4164.5949 -17629.8812 296.6970 -21794.4761 -17622.8253 297.9129 15.8067 16.5369 593943.2677 -0.1873 -0.2109
ENERGY: 3000 0.4302 11.2131 5.5949 0.1187 -24315.3596 2521.6472 0.0000 0.0000 4205.5684 -17570.7871 299.6161 -21776.3555 -17562.0491 296.4515 -10.9469 -11.2286 586063.4248 0.5140 0.5280
ENERGY: 4000 1.1685 10.3431 7.5810 0.1558 -24507.8656 2590.4705 0.0000 0.0000 4159.9840 -17738.1629 296.3685 -21898.1469 -17731.9574 296.8259 17.0516 16.7984 576090.2328 1.0060 1.0174
ENERGY: 5000 3.2370 9.1709 4.1388 0.0301 -24499.4551 2548.4320 0.0000 0.0000 4163.0528 -17771.3935 296.5872 -21934.4463 -17760.7155 295.0829 -5.9832 -6.5022 584739.7179 3.2293 3.2050
TCL: Running FEP window   2: Lambda1 0.0625 Lambda2 0.125  [dLambda 0.0625]
TCL: Setting parameter firsttimestep to 0
TCL: Setting parameter alchLambda to 0.0625
Info: NONBONDED TABLE R-SQUARED SPACING: 0.0625
Info: NONBONDED TABLE SIZE: 769 POINTS
TCL: Setting parameter alchLambda2 to 0.125
Info: NONBONDED TABLE R-SQUARED SPACING: 0.0625
Info: NONBONDED TABLE SIZE: 769 POINTS
TCL: Running for 5000 steps
ETITLE: TS BOND ANGLE DIHED IMPRP ELECT VDW BOUNDARY MISC KINETIC TOTAL TEMP POTENTIAL TOTAL3 TEMPAVG PRESSURE GPRESSURE VOLUME PRESSAVG GPRESSAVG
ENERGY: 0 3.2370 9.1709 4.1388 0.0301 -24499.4551 2548.7804 0.0000 0.0000 4162.9207 -17771.1772 296.5778 -21934.0979 -17763.0714 296.5778 -6.2054 -6.2590 584739.7179 -6.2054 -6.2590
ENERGY: 1000 0.8513 8.7453 5.7809 0.2217 -24368.0022 2517.9629 0.0000 0.0000 4149.6662 -17684.7739 295.6335 -21834.4401 -17677.6887 297.0769 -8.1796 -8.8402 607542.8929 1.9307 1.9363
ENERGY: 2000 4.7790 15.2963 7.0075 0.0909 -24499.4047 2549.4058 0.0000 0.0000 4250.0312 -17672.7940 302.7837 -21922.8251 -17664.4024 298.9266 -26.7418 -27.2168 617619.8462 1.3956 1.3609
ENERGY: 3000 2.1307 12.3983 7.3110 0.1282 -24421.4337 2535.4853 0.0000 0.0000 4242.1068 -17621.8734 302.2192 -21863.9802 -17614.1274 297.9616 -5.9090 -5.5713 615903.4400 -0.9259 -0.8804
ENERGY: 4000 1.2167 14.8521 6.6928 0.0697 -24357.0640 2518.1023 0.0000 0.0000 4322.4190 -17493.7115 307.9408 -21816.1305 -17484.7623 302.7918 -3.4142 -2.5946 626962.5254 1.5631 1.5631
ENERGY: 5000 1.1297 9.9675 6.4184 0.0100 -24193.3138 2476.0218 0.0000 0.0000 4213.3841 -17486.3823 300.1729 -21699.7664 -17479.8061 302.5567 -10.6589 -10.6220 633402.9197 1.7642 1.7637
TCL: Running FEP window   3: Lambda1 0.125  Lambda2 0.1875 [dLambda 0.0625]
TCL: Setting parameter firsttimestep to 0
TCL: Setting parameter alchLambda to 0.125
Info: NONBONDED TABLE R-SQUARED SPACING: 0.0625
Info: NONBONDED TABLE SIZE: 769 POINTS
TCL: Setting parameter alchLambda2 to 0.1875
Info: NONBONDED TABLE R-SQUARED SPACING: 0.0625
Info: NONBONDED TABLE SIZE: 769 POINTS
TCL: Running for 5000 steps
ETITLE: TS BOND ANGLE DIHED IMPRP ELECT VDW BOUNDARY MISC KINETIC TOTAL TEMP POTENTIAL TOTAL3 TEMPAVG PRESSURE GPRESSURE VOLUME PRESSAVG GPRESSAVG
ENERGY: 0 1.1297 9.9675 6.4184 0.0100 -24193.3138 2476.7689 0.0000 0.0000 4213.2608 -17485.7585 300.1641 -21699.0193 -17477.2323 300.1641 -10.4476 -10.5614 633402.9197 -10.4476 -10.5614
ENERGY: 1000 3.4520 11.4223 6.6820 0.0254 -24403.2973 2562.8651 0.0000 0.0000 4247.5696 -17571.2809 302.6084 -21818.8505 -17563.4091 302.6527 36.4846 37.2249 621635.6170 -0.3903 -0.3800
ENERGY: 2000 2.0459 13.7420 9.0376 0.2079 -24513.3154 2623.5696 0.0000 0.0000 4195.6512 -17669.0610 298.9096 -21864.7123 -17659.0591 298.5796 29.2982 28.8435 639292.6451 0.6367 0.6079
ENERGY: 3000 1.8732 11.4243 10.5954 0.1217 -24552.4026 2632.4780 0.0000 0.0000 4137.9111 -17757.9988 294.7960 -21895.9099 -17753.5658 294.6210 15.0161 14.7840 644240.0658 1.3072 1.3523
ENERGY: 4000 2.5028 12.9403 8.1764 0.3296 -24515.3057 2573.3892 0.0000 0.0000 4163.1829 -17754.7844 296.5964 -21917.9673 -17745.8506 296.8807 6.2268 6.0552 631498.8751 0.8423 0.8528
ENERGY: 5000 3.6291 21.1066 5.9245 0.0465 -24639.0085 2667.4352 0.0000 0.0000 4156.0154 -17784.8512 296.0858 -21940.8665 -17776.5390 295.4409 64.0311 64.7208 606036.0913 2.4109 2.4416
TCL: Running FEP window   4: Lambda1 0.1875 Lambda2 0.25   [dLambda 0.0625]
TCL: Setting parameter firsttimestep to 0
TCL: Setting parameter alchLambda to 0.1875
Info: NONBONDED TABLE R-SQUARED SPACING: 0.0625
Info: NONBONDED TABLE SIZE: 769 POINTS
TCL: Setting parameter alchLambda2 to 0.25
Info: NONBONDED TABLE R-SQUARED SPACING: 0.0625
Info: NONBONDED TABLE SIZE: 769 POINTS
TCL: Running for 5000 steps
ETITLE: TS BOND ANGLE DIHED IMPRP ELECT VDW BOUNDARY MISC KINETIC TOTAL TEMP POTENTIAL TOTAL3 TEMPAVG PRESSURE GPRESSURE VOLUME PRESSAVG GPRESSAVG
ENERGY: 0 3.6291 21.1066 5.9245 0.0465 -24639.0085 2667.7109 0.0000 0.0000 4155.8848 -17784.7060 296.0765 -21940.5908 -17777.7874 296.0765 64.8670 65.0116 606036.0913 64.8670 65.0116
ENERGY: 1000 1.7755 12.7383 6.1096 0.2454 -24472.6152 2573.0010 0.0000 0.0000 4203.1942 -17675.5513 299.4470 -21878.7455 -17666.4642 296.2716 -8.4044 -8.3237 599163.1500 -0.4213 -0.4363
ENERGY: 2000 2.8954 12.7213 5.8508 0.1340 -24408.4502 2502.7215 0.0000 0.0000 4170.6678 -17713.4594 297.1297 -21884.1273 -17704.0055 297.1654 -27.3273 -27.4847 582548.1781 0.7823 0.8061
ENERGY: 3000 2.8539 13.9253 6.4623 0.0402 -24340.4131 2535.6676 0.0000 0.0000 4151.7055 -17629.7583 295.7788 -21781.4638 -17617.3486 298.0502 -10.4903 -11.3659 577022.6498 -0.3275 -0.3153
ENERGY: 4000 3.8661 14.8918 8.9465 0.0002 -24588.8275 2542.4330 0.0000 0.0000 4219.2158 -17799.4742 300.5884 -22018.6900 -17791.2842 295.3907 -46.8479 -47.1669 575834.5609 1.5522 1.5667
ENERGY: 5000 2.6373 15.6005 9.2534 0.0534 -24580.9062 2532.4302 0.0000 0.0000 4184.4382 -17836.4933 298.1107 -22020.9315 -17829.8364 294.6203 -26.9714 -27.0047 569708.4112 0.4920 0.4535
TCL: Running FEP window   5: Lambda1 0.25   Lambda2 0.3125 [dLambda 0.0625]
TCL: Setting parameter firsttimestep to 0
TCL: Setting parameter alchLambda to 0.25
Info: NONBONDED TABLE R-SQUARED SPACING: 0.0625
Info: NONBONDED TABLE SIZE: 769 POINTS
TCL: Setting parameter alchLambda2 to 0.3125
Info: NONBONDED TABLE R-SQUARED SPACING: 0.0625
Info: NONBONDED TABLE SIZE: 769 POINTS
TCL: Running for 5000 steps
ETITLE: TS BOND ANGLE DIHED IMPRP ELECT VDW BOUNDARY MISC KINETIC TOTAL TEMP POTENTIAL TOTAL3 TEMPAVG PRESSURE GPRESSURE VOLUME PRESSAVG GPRESSAVG
ENERGY: 0 2.6373 15.6005 9.2534 0.0534 -24580.9062 2532.3042 0.0000 0.0000 4184.3108 -17836.7467 298.1016 -22021.0575 -17828.4285 298.1016 -27.0650 -27.0602 569708.4112 -27.0650 -27.0602
ENERGY: 1000 0.7932 16.9647 11.7138 0.0989 -24520.6074 2601.8994 0.0000 0.0000 4146.2666 -17742.8708 295.3913 -21889.1375 -17735.5461 297.8532 13.8754 13.9741 570167.2734 0.0405 0.0698
ENERGY: 2000 1.5236 10.5073 10.0253 0.0256 -24546.4888 2616.6495 0.0000 0.0000 4190.0757 -17717.6818 298.5124 -21907.7575 -17710.1910 295.8721 38.0850 36.7582 569923.2279 0.8361 0.8166
ENERGY: 3000 2.2789 11.3065 6.1027 0.0647 -24558.3502 2606.9740 0.0000 0.0000 4176.8914 -17754.7320 297.5731 -21931.6235 -17746.3588 296.7199 32.9898 34.1410 551122.1600 0.9837 0.9441
ENERGY: 4000 5.6375 11.5881 9.8084 0.1066 -24287.3810 2527.5753 0.0000 0.0000 4105.5960 -17627.0692 292.4938 -21732.6652 -17619.0583 299.0738 14.7689 14.7883 548387.0677 -0.5828 -0.5789
ENERGY: 5000 2.3723 8.1174 5.3745 0.0427 -24548.8916 2592.8835 0.0000 0.0000 4232.3130 -17707.7884 301.5214 -21940.1013 -17699.0098 298.0511 1.0205 0.8988 545329.5702 -0.5373 -0.5485
TCL: Running FEP window   6: Lambda1 0.3125 Lambda2 0.375  [dLambda 0.0625]
TCL: Setting parameter firsttimestep to 0
TCL: Setting parameter alchLambda to 0.3125
Info: NONBONDED TABLE R-SQUARED SPACING: 0.0625
Info: NONBONDED TABLE SIZE: 769 POINTS
TCL: Setting parameter alchLambda2 to 0.375
Info: NONBONDED TABLE R-SQUARED SPACING: 0.0625
Info: NONBONDED TABLE SIZE: 769 POINTS
TCL: Running for 5000 steps
ETITLE: TS BOND ANGLE DIHED IMPRP ELECT VDW BOUNDARY MISC KINETIC TOTAL TEMP POTENTIAL TOTAL3 TEMPAVG PRESSURE GPRESSURE VOLUME PRESSAVG GPRESSAVG
ENERGY: 0 2.3723 8.1174 5.3745 0.0427 -24548.8916 2592.7885 0.0000 0.0000 4232.1878 -17708.0085 301.5125 -21940.1963 -17699.7817 301.5125 1.3063 1.0274 545329.5702 1.3063 1.0274
ENERGY: 1000 0.8592 11.2008 6.9475 0.0226 -24455.0875 2613.1201 0.0000 0.0000 4156.7169 -17666.2204 296.1358 -21822.9373 -17656.5929 299.7328 33.1789 33.3868 537789.5899 1.2014 1.1989
ENERGY: 2000 4.1341 9.8523 4.9885 0.0294 -24284.5694 2470.5241 0.0000 0.0000 4162.7155 -17632.3254 296.5631 -21795.0410 -17623.8478 297.4988 -22.0193 -22.6757 539460.6018 -0.5234 -0.5450
ENERGY: 3000 3.2054 14.2879 5.6594 0.1008 -24479.5716 2597.5472 0.0000 0.0000 4136.7199 -17722.0510 294.7111 -21858.7709 -17715.5963 299.0640 25.1326 24.8587 538921.7030 2.9278 2.9341
ENERGY: 4000 2.1699 13.8198 6.1141 0.0009 -24371.2072 2567.7719 0.0000 0.0000 4178.0441 -17603.2863 297.6552 -21781.3305 -17595.2801 300.1784 -5.9941 -5.8203 533814.3665 1.0554 1.0395
ENERGY: 5000 4.3832 15.4075 6.8328 0.2582 -24390.2866 2544.5230 0.0000 0.0000 4273.4295 -17545.4525 304.4507 -21818.8819 -17537.1614 300.8888 8.9970 8.8366 537715.9711 -1.4564 -1.4961
TCL: Running FEP window   7: Lambda1 0.375  Lambda2 0.4375 [dLambda 0.0625]
TCL: Setting parameter firsttimestep to 0
TCL: Setting parameter alchLambda to 0.375
Info: NONBONDED TABLE R-SQUARED SPACING: 0.0625
Info: NONBONDED TABLE SIZE: 769 POINTS
TCL: Setting parameter alchLambda2 to 0.4375
Info: NONBONDED TABLE R-SQUARED SPACING: 0.0625
Info: NONBONDED TABLE SIZE: 769 POINTS
TCL: Running for 5000 steps
ETITLE: TS BOND ANGLE DIHED IMPRP ELECT VDW BOUNDARY MISC KINETIC TOTAL TEMP POTENTIAL TOTAL3 TEMPAVG PRESSURE GPRESSURE VOLUME PRESSAVG GPRESSAVG
ENERGY: 0 4.3832 15.4075 6.8328 0.2582 -24390.2866 2544.5068 0.0000 0.0000 4273.3001 -17545.5980 304.4415 -21818.8981 -17537.9712 304.4415 9.0533 8.9617 537715.9711 9.0533 8.9617
ENERGY: 1000 2.2488 14.1311 6.0017 0.0043 -24239.0448 2402.8407 0.0000 0.0000 4200.7004 -17613.1177 299.2693 -21813.8181 -17605.1105 300.2916 -63.9987 -63.9172 545176.1653 -1.1543 -1.1495
ENERGY: 2000 1.8817 14.8268 6.1370 0.0486 -24458.4918 2516.5479 0.0000 0.0000 4208.4025 -17710.6473 299.8180 -21919.0498 -17701.1507 295.6348 -18.0917 -18.3889 552920.3188 1.5304 1.4949
ENERGY: 3000 1.3315 8.4191 6.7370 0.0183 -24290.3267 2530.5892 0.0000 0.0000 4160.9406 -17582.2910 296.4367 -21743.2316 -17572.8699 299.3297 -4.2243 -4.7799 552707.7825 1.6766 1.6717
ENERGY: 4000 2.0826 15.3044 6.6894 0.0135 -24409.0397 2575.3574 0.0000 0.0000 4189.3230 -17620.2694 298.4587 -21809.5925 -17612.6850 299.5123 28.3461 29.0656 539242.1582 0.4859 0.4969
ENERGY: 5000 3.3688 9.8209 5.6132 0.1045 -24526.0617 2569.8757 0.0000 0.0000 4194.7553 -17742.5233 298.8457 -21937.2786 -17733.0563 298.0131 12.9341 12.3737 544056.2075 -0.1989 -0.2209
TCL: Running FEP window   8: Lambda1 0.4375 Lambda2 0.5    [dLambda 0.0625]
TCL: Setting parameter firsttimestep to 0
TCL: Setting parameter alchLambda to 0.4375
Info: NONBONDED TABLE R-SQUARED SPACING: 0.0625
Info: NONBONDED TABLE SIZE: 769 POINTS
TCL: Setting parameter alchLambda2 to 0.5
Info: NONBONDED TABLE R-SQUARED SPACING: 0.0625
Info: NONBONDED TABLE SIZE: 769 POINTS
TCL: Running for 5000 steps
ETITLE: TS BOND ANGLE DIHED IMPRP ELECT VDW BOUNDARY MISC KINETIC TOTAL TEMP POTENTIAL TOTAL3 TEMPAVG PRESSURE GPRESSURE VOLUME PRESSAVG GPRESSAVG
ENERGY: 0 3.3688 9.8209 5.6132 0.1045 -24526.0617 2569.7901 0.0000 0.0000 4194.6263 -17742.7378 298.8366 -21937.3641 -17734.9908 298.8366 12.3587 12.6023 544056.2075 12.3587 12.6023
ENERGY: 1000 2.4174 12.4996 5.4692 0.0616 -24594.6169 2683.7567 0.0000 0.0000 4186.8433 -17703.5691 298.2821 -21890.4123 -17690.7767 296.4577 71.4824 71.0417 554760.1690 -1.1724 -1.1350
ENERGY: 2000 1.8924 11.9083 6.3874 0.0418 -24405.0684 2503.8806 0.0000 0.0000 4177.8361 -17703.1218 297.6404 -21880.9579 -17692.7512 297.0746 -10.6754 -11.1980 561127.6845 1.7420 1.7293
ENERGY: 3000 2.0650 10.2990 9.7525 0.1052 -24343.3245 2532.4896 0.0000 0.0000 4147.5805 -17641.0327 295.4849 -21788.6133 -17631.4741 297.3479 1.5776 2.3955 562670.3755 2.1256 2.0948
ENERGY: 4000 3.0565 12.5099 7.7084 0.0186 -24390.6113 2496.4586 0.0000 0.0000 4112.4807 -17758.3786 292.9843 -21870.8593 -17749.3551 297.4264 -12.6146 -11.7245 542105.5308 -0.3463 -0.3361
ENERGY: 5000 1.7229 11.8264 8.6550 0.0895 -24456.8132 2599.1557 0.0000 0.0000 4115.4922 -17719.8714 293.1988 -21835.3636 -17713.5737 298.1299 22.6151 22.9162 556825.0160 3.7178 3.6555
TCL: Running FEP window   9: Lambda1 0.5    Lambda2 0.5625 [dLambda 0.0625]
TCL: Setting parameter firsttimestep to 0
TCL: Setting parameter alchLambda to 0.5
Info: NONBONDED TABLE R-SQUARED SPACING: 0.0625
Info: NONBONDED TABLE SIZE: 769 POINTS
TCL: Setting parameter alchLambda2 to 0.5625
Info: NONBONDED TABLE R-SQUARED SPACING: 0.0625
Info: NONBONDED TABLE SIZE: 769 POINTS
TCL: Running for 5000 steps
ETITLE: TS BOND ANGLE DIHED IMPRP ELECT VDW BOUNDARY MISC KINETIC TOTAL TEMP POTENTIAL TOTAL3 TEMPAVG PRESSURE GPRESSURE VOLUME PRESSAVG GPRESSAVG
ENERGY: 0 1.7229 11.8264 8.6550 0.0895 -24456.8132 2599.1575 0.0000 0.0000 4115.3637 -17719.9981 293.1897 -21835.3618 -17711.8794 293.1897 22.7291 22.9370 556825.0160 22.7291 22.9370
ENERGY: 1000 1.0887 9.4042 7.9978 0.1139 -24435.4201 2536.9413 0.0000 0.0000 4175.9075 -17703.9667 297.5030 -21879.8742 -17698.4272 298.1121 -28.4871 -28.9234 583589.9900 1.8293 1.8255
ENERGY: 2000 2.5607 9.5461 7.3254 0.1910 -24482.5536 2539.3174 0.0000 0.0000 4199.0535 -17724.5595 299.1520 -21923.6130 -17716.8141 298.1867 9.5302 8.9101 613982.7459 0.4429 0.4593
ENERGY: 3000 2.0535 12.2994 7.7998 0.1923 -24548.7965 2577.0088 0.0000 0.0000 4150.2740 -17799.1687 295.6768 -21949.4427 -17791.3566 295.4958 0.4755 1.7914 618396.8888 0.1852 0.2066
ENERGY: 4000 2.6657 7.0316 5.9911 0.0451 -24154.3644 2367.0289 0.0000 0.0000 4132.3798 -17639.2222 294.4019 -21771.6020 -17629.1732 297.9347 -101.0922 -101.2986 620422.4685 0.0757 0.0978
ENERGY: 5000 3.1906 11.5708 7.4660 0.0169 -24333.3866 2532.5525 0.0000 0.0000 4104.1980 -17674.3918 292.3942 -21778.5898 -17666.1428 297.9189 -13.2339 -12.8753 619288.5832 1.9364 1.8821
TCL: Running FEP window  10: Lambda1 0.5625 Lambda2 0.625  [dLambda 0.0625]
TCL: Setting parameter firsttimestep to 0
TCL: Setting parameter alchLambda to 0.5625
Info: NONBONDED TABLE R-SQUARED SPACING: 0.0625
Info: NONBONDED TABLE SIZE: 769 POINTS
TCL: Setting parameter alchLambda2 to 0.625
Info: NONBONDED TABLE R-SQUARED SPACING: 0.0625
Info: NONBONDED TABLE SIZE: 769 POINTS
TCL: Running for 5000 steps
ETITLE: TS BOND ANGLE DIHED IMPRP ELECT VDW BOUNDARY MISC KINETIC TOTAL TEMP POTENTIAL TOTAL3 TEMPAVG PRESSURE GPRESSURE VOLUME PRESSAVG GPRESSAVG
ENERGY: 0 3.1906 11.5708 7.4660 0.0169 -24333.0768 2532.7025 0.0000 0.0000 4104.0647 -17674.0654 292.3847 -21778.1300 -17666.0215 292.3847 -12.7976 -12.7771 619288.5832 -12.7976 -12.7771
ENERGY: 1000 1.6045 7.3084 5.5304 0.0359 -24454.6670 2528.0210 0.0000 0.0000 4182.6066 -17729.5603 297.9802 -21912.1668 -17723.9030 297.0621 -10.1673 -9.7595 631321.4379 3.1171 3.1120
ENERGY: 2000 1.1680 12.3563 4.5330 0.0467 -24528.9720 2570.7350 0.0000 0.0000 4124.6447 -17815.4883 293.8509 -21940.1329 -17808.7259 293.6586 19.2149 20.3553 636721.4697 2.2660 2.2588
ENERGY: 3000 1.9085 8.6234 6.8797 0.1481 -24353.4078 2551.0173 0.0000 0.0000 4161.8901 -17622.9406 296.5043 -21784.8307 -17614.8455 296.3901 20.7694 20.6902 630095.3144 -0.1731 -0.1969
ENERGY: 4000 1.9470 12.1684 4.5382 0.0177 -24509.3110 2550.7443 0.0000 0.0000 4250.3547 -17689.5408 302.8068 -21939.8955 -17679.6972 298.2728 -2.5353 -2.0852 600628.0970 1.3445 1.3449
ENERGY: 5000 2.5576 14.8253 5.9285 0.2036 -24558.3164 2515.2714 0.0000 0.0000 4203.9274 -17815.6027 299.4992 -22019.5301 -17807.7450 296.2658 -21.3601 -20.6289 573744.2108 -0.2148 -0.2485
TCL: Running FEP window  11: Lambda1 0.625  Lambda2 0.6875 [dLambda 0.0625]
TCL: Setting parameter firsttimestep to 0
TCL: Setting parameter alchLambda to 0.625
Info: NONBONDED TABLE R-SQUARED SPACING: 0.0625
Info: NONBONDED TABLE SIZE: 769 POINTS
TCL: Setting parameter alchLambda2 to 0.6875
Info: NONBONDED TABLE R-SQUARED SPACING: 0.0625
Info: NONBONDED TABLE SIZE: 769 POINTS
TCL: Running for 5000 steps
ETITLE: TS BOND ANGLE DIHED IMPRP ELECT VDW BOUNDARY MISC KINETIC TOTAL TEMP POTENTIAL TOTAL3 TEMPAVG PRESSURE GPRESSURE VOLUME PRESSAVG GPRESSAVG
ENERGY: 0 2.5576 14.8253 5.9285 0.2036 -24557.9571 2515.4365 0.0000 0.0000 4203.7965 -17815.2092 299.4899 -22019.0057 -17806.7104 299.4899 -20.3974 -20.4719 573744.2108 -20.3974 -20.4719
ENERGY: 1000 2.6982 10.1238 6.5069 0.1193 -24678.2030 2621.4376 0.0000 0.0000 4095.9903 -17941.3268 291.8095 -22037.3172 -17930.7602 292.8148 16.1632 16.4354 579603.4012 3.0994 3.1054
ENERGY: 2000 1.6011 16.1742 7.0890 0.0267 -24506.3908 2526.8768 0.0000 0.0000 4074.7793 -17879.8437 290.2983 -21954.6230 -17872.3809 291.2658 -20.7894 -21.3208 559956.0639 -3.1902 -3.1518
ENERGY: 3000 1.5424 13.6933 7.4452 0.1163 -24679.6564 2629.3752 0.0000 0.0000 4090.1061 -17937.3778 291.3902 -22027.4839 -17929.0384 292.3082 19.8326 19.6793 558020.4389 2.0087 1.9748
ENERGY: 4000 3.0856 11.1384 7.1871 0.1105 -24668.7890 2682.4589 0.0000 0.0000 4118.4090 -17846.3996 293.4066 -21964.8086 -17838.7234 293.6295 44.2321 44.6484 540895.0461 1.7813 1.8326
ENERGY: 5000 6.4040 4.4378 5.9833 0.1189 -24450.0910 2587.3314 0.0000 0.0000 4131.1284 -17714.6871 294.3128 -21845.8155 -17706.6038 296.2608 26.0223 26.7199 532411.8245 -2.0785 -2.0635
TCL: Running FEP window  12: Lambda1 0.6875 Lambda2 0.75   [dLambda 0.0625]
TCL: Setting parameter firsttimestep to 0
TCL: Setting parameter alchLambda to 0.6875
Info: NONBONDED TABLE R-SQUARED SPACING: 0.0625
Info: NONBONDED TABLE SIZE: 769 POINTS
TCL: Setting parameter alchLambda2 to 0.75
Info: NONBONDED TABLE R-SQUARED SPACING: 0.0625
Info: NONBONDED TABLE SIZE: 769 POINTS
TCL: Running for 5000 steps
ETITLE: TS BOND ANGLE DIHED IMPRP ELECT VDW BOUNDARY MISC KINETIC TOTAL TEMP POTENTIAL TOTAL3 TEMPAVG PRESSURE GPRESSURE VOLUME PRESSAVG GPRESSAVG
ENERGY: 0 6.4040 4.4378 5.9833 0.1189 -24449.7482 2587.5016 0.0000 0.0000 4130.9997 -17714.3028 294.3036 -21845.3025 -17706.1764 294.3036 26.8945 26.8997 532411.8245 26.8945 26.8997
ENERGY: 1000 0.6496 14.3427 8.8317 0.0537 -24504.3601 2600.9225 0.0000 0.0000 4184.7778 -17694.7822 298.1349 -21879.5600 -17687.4164 298.4326 23.3110 23.3767 530440.7925 -2.3442 -2.3622
ENERGY: 2000 4.2845 11.9846 6.3383 0.0143 -24243.8104 2468.8410 0.0000 0.0000 4138.1036 -17614.2442 294.8097 -21752.3477 -17607.0463 299.7784 -26.8811 -26.7823 546117.4725 -0.0403 -0.0355
ENERGY: 3000 1.1252 10.1855 5.6361 0.1017 -24441.5524 2571.4379 0.0000 0.0000 4137.2100 -17715.8560 294.7461 -21853.0660 -17706.6883 297.9467 -0.7619 -1.7740 549990.3125 -0.7318 -0.7466
ENERGY: 4000 0.9861 11.6263 9.1724 0.0261 -24479.3156 2606.9397 0.0000 0.0000 4146.5234 -17704.0414 295.4096 -21850.5649 -17694.8206 297.4488 24.6696 24.3737 547265.4074 -0.8156 -0.8200
ENERGY: 5000 2.1935 10.2023 6.2600 0.1011 -24269.1145 2434.3324 0.0000 0.0000 4140.7258 -17675.2994 294.9965 -21816.0252 -17667.5013 295.2898 -58.8068 -57.7020 558224.8829 1.3983 1.4152
TCL: Running FEP window  13: Lambda1 0.75   Lambda2 0.8125 [dLambda 0.0625]
TCL: Setting parameter firsttimestep to 0
TCL: Setting parameter alchLambda to 0.75
Info: NONBONDED TABLE R-SQUARED SPACING: 0.0625
Info: NONBONDED TABLE SIZE: 769 POINTS
TCL: Setting parameter alchLambda2 to 0.8125
Info: NONBONDED TABLE R-SQUARED SPACING: 0.0625
Info: NONBONDED TABLE SIZE: 769 POINTS
TCL: Running for 5000 steps
ETITLE: TS BOND ANGLE DIHED IMPRP ELECT VDW BOUNDARY MISC KINETIC TOTAL TEMP POTENTIAL TOTAL3 TEMPAVG PRESSURE GPRESSURE VOLUME PRESSAVG GPRESSAVG
ENERGY: 0 2.1935 10.2023 6.2600 0.1011 -24268.7703 2435.5903 0.0000 0.0000 4140.6012 -17673.8218 294.9877 -21814.4231 -17665.9745 294.9877 -57.0386 -56.8619 558224.8829 -57.0386 -56.8619
ENERGY: 1000 3.3304 11.9803 5.0914 0.0854 -24338.8268 2566.5769 0.0000 0.0000 4164.5167 -17587.2458 296.6915 -21751.7625 -17576.7844 298.2025 1.9482 0.7734 555344.1533 1.4782 1.5215
ENERGY: 2000 0.7493 12.4469 6.0081 0.0625 -24409.9613 2490.2382 0.0000 0.0000 4181.8669 -17718.5894 297.9275 -21900.4562 -17712.1928 298.5976 -18.3209 -17.5720 547108.5027 -1.1674 -1.1529
ENERGY: 3000 1.8976 16.6174 5.8006 0.1136 -24683.8321 2659.8547 0.0000 0.0000 4109.6810 -17889.8672 292.7848 -21999.5482 -17883.1392 294.4190 21.8273 22.3023 553349.4552 -1.3520 -1.3300
ENERGY: 4000 1.3780 11.0297 5.9641 0.0108 -24476.3948 2508.4477 0.0000 0.0000 4063.0145 -17886.5500 289.4602 -21949.5645 -17877.7997 293.7884 -14.5492 -15.4597 546559.8300 0.4725 0.4897
ENERGY: 5000 2.1618 12.5566 7.2437 0.1290 -24606.2664 2587.4876 0.0000 0.0000 4134.8560 -17861.8316 294.5784 -21996.6876 -17853.7961 292.5147 -19.4475 -19.3145 545728.8305 0.6438 0.6448
TCL: Running FEP window  14: Lambda1 0.8125 Lambda2 0.875  [dLambda 0.0625]
TCL: Setting parameter firsttimestep to 0
TCL: Setting parameter alchLambda to 0.8125
Info: NONBONDED TABLE R-SQUARED SPACING: 0.0625
Info: NONBONDED TABLE SIZE: 769 POINTS
TCL: Setting parameter alchLambda2 to 0.875
Info: NONBONDED TABLE R-SQUARED SPACING: 0.0625
Info: NONBONDED TABLE SIZE: 769 POINTS
TCL: Running for 5000 steps
ETITLE: TS BOND ANGLE DIHED IMPRP ELECT VDW BOUNDARY MISC KINETIC TOTAL TEMP POTENTIAL TOTAL3 TEMPAVG PRESSURE GPRESSURE VOLUME PRESSAVG GPRESSAVG
ENERGY: 0 2.1618 12.5566 7.2437 0.1290 -24605.9223 2588.8335 0.0000 0.0000 4134.7278 -17860.2698 294.5692 -21994.9976 -17852.6982 294.5692 -18.6290 -18.4156 545728.8305 -18.6290 -18.4156
ENERGY: 1000 1.8333 7.0228 8.0332 0.0958 -24410.4817 2509.6351 0.0000 0.0000 4174.2665 -17709.5949 297.3861 -21883.8614 -17703.3718 297.6365 -39.8439 -39.6386 563559.9923 1.7704 1.7824
ENERGY: 2000 1.2769 13.0065 4.3296 0.0335 -24388.0620 2496.3535 0.0000 0.0000 4186.4603 -17686.6016 298.2548 -21873.0619 -17676.9114 296.4496 -19.0213 -18.4164 569283.8642 -0.0961 -0.1025
ENERGY: 3000 0.7717 8.5688 3.8724 0.0039 -24490.1697 2570.5286 0.0000 0.0000 4206.6252 -17699.7992 299.6914 -21906.4244 -17692.3259 298.0216 11.4675 11.5226 570178.8446 1.6911 1.6774
ENERGY: 4000 2.3010 9.8465 5.8486 0.0124 -24414.8138 2543.8788 0.0000 0.0000 4110.8006 -17742.1259 292.8646 -21852.9265 -17733.8116 295.9652 -4.4134 -4.6229 560500.3513 0.3109 0.2984
ENERGY: 5000 1.4012 10.0059 5.2333 0.0105 -24599.4799 2638.3792 0.0000 0.0000 4195.1314 -17749.3185 298.8725 -21944.4499 -17741.2924 296.9387 13.8440 14.2948 563658.0777 -1.2990 -1.3137
TCL: Running FEP window  15: Lambda1 0.875  Lambda2 0.9375 [dLambda 0.0625]
TCL: Setting parameter firsttimestep to 0
TCL: Setting parameter alchLambda to 0.875
Info: NONBONDED TABLE R-SQUARED SPACING: 0.0625
Info: NONBONDED TABLE SIZE: 769 POINTS
TCL: Setting parameter alchLambda2 to 0.9375
Info: NONBONDED TABLE R-SQUARED SPACING: 0.0625
Info: NONBONDED TABLE SIZE: 769 POINTS
TCL: Running for 5000 steps
ETITLE: TS BOND ANGLE DIHED IMPRP ELECT VDW BOUNDARY MISC KINETIC TOTAL TEMP POTENTIAL TOTAL3 TEMPAVG PRESSURE GPRESSURE VOLUME PRESSAVG GPRESSAVG
ENERGY: 0 1.4012 10.0059 5.2333 0.0105 -24599.1485 2639.6136 0.0000 0.0000 4195.0027 -17747.8814 298.8634 -21942.8841 -17740.4728 298.8634 15.0406 15.2000 563658.0777 15.0406 15.2000
ENERGY: 1000 2.5476 9.0180 6.0902 0.0915 -24450.1191 2532.8929 0.0000 0.0000 4258.7137 -17640.7652 303.4023 -21899.4789 -17632.4662 297.1223 -9.1515 -9.7649 569481.0974 -0.3420 -0.3488
ENERGY: 2000 0.7896 8.9644 5.8648 0.0826 -24566.4800 2654.3746 0.0000 0.0000 4120.6289 -17775.7752 293.5648 -21896.4041 -17768.3854 297.3902 23.8354 23.3389 580367.3998 0.7142 0.7327
ENERGY: 3000 1.4279 11.8477 3.6737 0.0099 -24399.9618 2545.1614 0.0000 0.0000 4167.5207 -17670.3205 296.9055 -21837.8412 -17663.2874 298.6350 -0.9462 -0.8754 576989.1075 0.9200 0.9384
ENERGY: 4000 3.4323 8.8004 8.9796 0.1236 -24562.1991 2543.7634 0.0000 0.0000 4240.6184 -17756.4816 302.1131 -21997.0999 -17748.6665 296.6271 -17.9235 -18.0971 577101.9644 1.8886 1.8607
ENERGY: 5000 2.3163 12.2420 7.6910 0.1342 -24320.3305 2442.9303 0.0000 0.0000 4160.7979 -17694.2188 296.4265 -21855.0167 -17686.5626 296.4660 -53.2349 -52.3830 592347.0017 -1.0024 -0.9845
TCL: Running FEP window  16: Lambda1 0.9375 Lambda2 1.0    [dLambda 0.0625]
TCL: Setting parameter firsttimestep to 0
TCL: Setting parameter alchLambda to 0.9375
Info: NONBONDED TABLE R-SQUARED SPACING: 0.0625
Info: NONBONDED TABLE SIZE: 769 POINTS
TCL: Setting parameter alchLambda2 to 1.0
Info: NONBONDED TABLE R-SQUARED SPACING: 0.0625
Info: NONBONDED TABLE SIZE: 769 POINTS
TCL: Running for 5000 steps
ETITLE: TS BOND ANGLE DIHED IMPRP ELECT VDW BOUNDARY MISC KINETIC TOTAL TEMP POTENTIAL TOTAL3 TEMPAVG PRESSURE GPRESSURE VOLUME PRESSAVG GPRESSAVG
ENERGY: 0 2.3163 12.2420 7.6910 0.1342 -24319.9785 2444.8053 0.0000 0.0000 4160.6670 -17692.1227 296.4172 -21852.7897 -17683.2394 296.4172 -51.2113 -51.1672 592347.0017 -51.2113 -51.1672
ENERGY: 1000 4.8159 10.9384 5.5386 0.0155 -24270.9036 2457.6867 0.0000 0.0000 4139.3633 -17652.5453 294.8995 -21791.9086 -17645.8781 297.4583 -27.0806 -26.7366 605561.7473 0.2295 0.2431
ENERGY: 2000 1.3938 19.8930 6.3124 0.0434 -24399.3304 2525.9899 0.0000 0.0000 4209.4853 -17636.2125 299.8951 -21845.6979 -17628.5660 296.4365 -26.0271 -26.2615 615696.8142 0.6333 0.6110
ENERGY: 3000 2.8724 14.8486 6.3807 0.0058 -24588.8152 2655.2043 0.0000 0.0000 4128.5007 -17781.0026 294.1256 -21909.5032 -17769.1724 298.0189 31.5870 32.5653 603703.2215 -1.6662 -1.6951
ENERGY: 4000 2.2538 12.8161 6.7331 0.0734 -24430.0756 2534.3436 0.0000 0.0000 4140.3511 -17733.5046 294.9698 -21873.8557 -17724.2396 295.4145 0.4371 1.0446 592727.9027 2.2134 2.2055
ENERGY: 5000 2.5552 10.6611 5.3213 0.0733 -24662.6611 2674.5424 0.0000 0.0000 4138.1370 -17831.3708 294.8121 -21969.5078 -17824.7636 296.1628 61.9713 61.3906 570194.4796 -0.0185 0.0206
