Info: SIMULATION PARAMETERS:
Info: TIMESTEP               2
Info: NUMBER OF STEPS        0
Info: STEPS PER CYCLE        10
Info: PERIODIC CELL BASIS 1  36.005 0 0
Info: PERIODIC CELL BASIS 2  0 34.1 0
Info: PERIODIC CELL BASIS 3  0 0 36.199
Info: PERIODIC CELL CENTER   0 0 0
Info: WRAPPING WATERS AROUND PERIODIC BOUNDARIES ON OUTPUT.
Info: WRAPPING ALL CLUSTERS AROUND PERIODIC BOUNDARIES ON OUTPUT.
Info: FIRST LDB TIMESTEP     50
Info: LAST LDB TIMESTEP     -1
Info: HOM BACKGROUND SCALING 1
Info: PME BACKGROUND SCALING 1
Info: MIN ATOMS PER PATCH    40
Info: EMPTY PATCH LOAD       40 ATOMS
Info: INITIAL TEMPERATURE    300
Info: CENTER OF MASS MOVING INITIALLY? NO
Info: DIELECTRIC             1
Info: EXCLUDE                SCALED ONE-FOUR
Info: 1-4 ELECTROSTATICS SCALED BY 0.833333
Info: MODIFIED 1-4 VDW PARAMETERS WILL BE USED
Info: DCD FILENAME           mobley_852937_equil.dcd
Info: DCD FREQUENCY          100000
Info: DCD FIRST STEP         100000
Info: DCD FILE WILL CONTAIN UNIT CELL DATA
Info: XST FILENAME           mobley_852937_equil.xst
Info: XST FREQUENCY          100000
Info: NO VELOCITY DCD OUTPUT
Info: NO FORCE DCD OUTPUT
Info: OUTPUT FILENAME        mobley_852937_equil
Info: BINARY OUTPUT FILES WILL BE USED
Info: RESTART FILENAME       mobley_852937_equil.restart
Info: RESTART FREQUENCY      100000
Info: BINARY RESTART FILES WILL BE USED
Info: CUTOFF                 9
Info: PAIRLIST DISTANCE      11
Info: PAIRLIST SHRINK RATE   0.01
Info: PAIRLIST GROW RATE     0.01
Info: PAIRLIST TRIGGER       0.3
Info: PAIRLISTS PER CYCLE    2
Info: PAIRLISTS ENABLED
Info: MARGIN                 8
Info: HYDROGEN GROUP CUTOFF  2.5
Info: PATCH DIMENSION        21.5
Info: ENERGY OUTPUT STEPS    100000
Info: ENERGY EVALUATION STEPS    100000
Info: OUTPUT ENERGY PRECISION 4
Info: CROSSTERM ENERGY INCLUDED IN DIHEDRAL
Info: TIMING OUTPUT STEPS    1000000
Info: PRESSURE OUTPUT STEPS  100000
Info: FIXED ATOMS ACTIVE
Info: LANGEVIN DYNAMICS ACTIVE
Info: LANGEVIN TEMPERATURE   30
Info: LANGEVIN USING BBK INTEGRATOR
Info: LANGEVIN DAMPING COEFFICIENT IS 1 INVERSE PS
Info: LANGEVIN DYNAMICS APPLIED TO HYDROGENS
Info: LANGEVIN PISTON PRESSURE CONTROL ACTIVE
Info:        TARGET PRESSURE IS 1.01325 BAR
Info:     OSCILLATION PERIOD IS 50 FS
Info:             DECAY TIME IS 25 FS
Info:     PISTON TEMPERATURE IS 300 K
Info:       PRESSURE CONTROL IS GROUP-BASED
Info:    INITIAL STRAIN RATE IS 0 0 0
Info:       CELL FLUCTUATION IS ISOTROPIC
Info: PARTICLE MESH EWALD (PME) ACTIVE
Info: PME TOLERANCE               1e-06
Info: PME EWALD COEFFICIENT       0.348832
Info: PME INTERPOLATION ORDER     4
Info: PME GRID DIMENSIONS         40 36 40
Info: PME MAXIMUM GRID SPACING    1
Info: FULL ELECTROSTATIC EVALUATION FREQUENCY      2
Info: USING VERLET I (r-RESPA) MTS SCHEME.
Info: C1 SPLITTING OF LONG RANGE ELECTROSTATICS
Info: PLACING ATOMS IN PATCHES BY HYDROGEN GROUPS
Info: RIGID BONDS TO HYDROGEN : ALL
Info:         ERROR TOLERANCE : 1e-08
Info:          MAX ITERATIONS : 100
Info: RIGID WATER USING SETTLE ALGORITHM
Info: RANDOM NUMBER SEED     1742534639
Info: USE HYDROGEN BONDS?    NO
Info: Using AMBER format force field!
Info: AMBER PARM FILE        mobley_852937.prmtop
Info: COORDINATE PDB         mobley_852937.pdb
Info: Exclusions will be read from PARM file!
Info: SCNB (VDW SCALING)     2
Info: USING ARITHMETIC MEAN TO COMBINE L-J SIGMA PARAMETERS
Info: BINARY COORDINATES     mobley_852937_min.coor
Info: SUMMARY OF PARAMETERS:
Info: 7 BONDS
Info: 5 ANGLES
Info:   5 HARMONIC
Info:   0 COSINE-BASED
Info: 3 DIHEDRAL
Info: 0 IMPROPER
Info: 0 CROSSTERM
Info: 0 VDW
Info: 28 VDW_PAIRS
Info: 0 NBTHOLE_PAIRS
Info: STRUCTURE SUMMARY:
Info: 2935 ATOMS
Info: 2935 BONDS
Info: 19 ANGLES
Info: 31 DIHEDRALS
Info: 0 IMPROPERS
Info: 0 CROSSTERMS
Info: 2977 EXCLUSIONS
Info: 13 FIXED ATOMS
Info: 2927 RIGID BONDS
Info: 5 RIGID BONDS BETWEEN FIXED ATOMS
Info: 5844 DEGREES OF FREEDOM
Info: 982 HYDROGEN GROUPS
Info: 3 ATOMS IN LARGEST HYDROGEN GROUP
Info: 982 MIGRATION GROUPS
Info: 3 ATOMS IN LARGEST MIGRATION GROUP
Info: 8 HYDROGEN GROUPS WITH ALL ATOMS FIXED
Info: TOTAL MASS = 17659.7 amu
Info: TOTAL CHARGE = 0.000199996 e
Info: MASS DENSITY = 0.659824 g/cm^3
Info: ATOM DENSITY = 0.0660381 atoms/A^3
Info: ADDED 0 IMPLICIT EXCLUSIONS
Info: NONBONDED TABLE R-SQUARED SPACING: 0.0625
Info: NONBONDED TABLE SIZE: 705 POINTS
Info: REMOVING COM VELOCITY 0.186548 0.0352163 -0.0728244
TCL: Running for 100000 steps
ETITLE: TS BOND ANGLE DIHED IMPRP ELECT VDW BOUNDARY MISC KINETIC TOTAL TEMP POTENTIAL TOTAL3 TEMPAVG PRESSURE GPRESSURE VOLUME PRESSAVG GPRESSAVG
ENERGY: 0 0.0000 0.0000 0.0000 0.0000 -13636.2417 2416.1387 0.0000 0.0000 1669.5295 -9550.5735 287.5241 -11220.1030 -9550.2573 287.5241 516.6816 543.9167 44444.0643 516.6816 543.9167
ENERGY: 100000 0.0000 0.0000 0.0000 0.0000 -14220.0307 2528.5829 0.0000 0.0000 178.8172 -11512.6305 30.7957 -11691.4477 -11512.2138 30.9043 500.3413 565.8806 29200.0145 4.8109 4.8009
TCL: Running 100000 steps at 60 kelvin.
TCL: Setting parameter langevinTemp to 60
TCL: Running for 100000 steps
ETITLE: TS BOND ANGLE DIHED IMPRP ELECT VDW BOUNDARY MISC KINETIC TOTAL TEMP POTENTIAL TOTAL3 TEMPAVG PRESSURE GPRESSURE VOLUME PRESSAVG GPRESSAVG
ENERGY: 100000 0.0000 0.0000 0.0000 0.0000 -14220.0307 2528.5829 0.0000 0.0000 178.7269 -11512.7208 30.7801 -11691.4477 -11512.4021 30.7801 514.5189 566.0249 29200.0145 514.5189 566.0249
ENERGY: 200000 0.0000 0.0000 0.0000 0.0000 -14043.9220 2371.0468 0.0000 0.0000 345.0265 -11327.8487 59.4200 -11672.8752 -11326.8491 59.9513 -528.2008 -466.4157 28868.1867 3.8196 3.8447
TCL: Running 100000 steps at 90 kelvin.
TCL: Setting parameter langevinTemp to 90
TCL: Running for 100000 steps
ETITLE: TS BOND ANGLE DIHED IMPRP ELECT VDW BOUNDARY MISC KINETIC TOTAL TEMP POTENTIAL TOTAL3 TEMPAVG PRESSURE GPRESSURE VOLUME PRESSAVG GPRESSAVG
ENERGY: 200000 0.0000 0.0000 0.0000 0.0000 -14043.9220 2371.0468 0.0000 0.0000 344.8475 -11328.0277 59.3892 -11672.8752 -11327.1914 59.3892 -520.7285 -466.6244 28868.1867 -520.7285 -466.6244
ENERGY: 300000 0.0000 0.0000 0.0000 0.0000 -13972.3085 2381.4722 0.0000 0.0000 512.9311 -11077.9052 88.3363 -11590.8363 -11077.0196 89.9965 -158.9179 -95.2233 28859.9674 3.1782 3.2703
TCL: Running 100000 steps at 120 kelvin.
TCL: Setting parameter langevinTemp to 120
TCL: Running for 100000 steps
ETITLE: TS BOND ANGLE DIHED IMPRP ELECT VDW BOUNDARY MISC KINETIC TOTAL TEMP POTENTIAL TOTAL3 TEMPAVG PRESSURE GPRESSURE VOLUME PRESSAVG GPRESSAVG
ENERGY: 300000 0.0000 0.0000 0.0000 0.0000 -13972.3085 2381.4722 0.0000 0.0000 512.6751 -11078.1611 88.2922 -11590.8363 -11077.1870 88.2922 -153.8382 -95.4252 28859.9674 -153.8382 -95.4252
ENERGY: 400000 0.0000 0.0000 0.0000 0.0000 -13821.4357 2374.3647 0.0000 0.0000 697.8997 -10749.1713 120.1913 -11447.0710 -10747.3214 119.9255 211.5866 240.0974 29018.3196 4.2872 4.4686
TCL: Running 100000 steps at 150 kelvin.
TCL: Setting parameter langevinTemp to 150
TCL: Running for 100000 steps
ETITLE: TS BOND ANGLE DIHED IMPRP ELECT VDW BOUNDARY MISC KINETIC TOTAL TEMP POTENTIAL TOTAL3 TEMPAVG PRESSURE GPRESSURE VOLUME PRESSAVG GPRESSAVG
ENERGY: 400000 0.0000 0.0000 0.0000 0.0000 -13821.4357 2374.3647 0.0000 0.0000 697.5513 -10749.5197 120.1313 -11447.0710 -10747.9537 120.1313 199.6078 239.9119 29018.3196 199.6078 239.9119
ENERGY: 500000 0.0000 0.0000 0.0000 0.0000 -13534.8354 2296.2316 0.0000 0.0000 863.3928 -10375.2110 148.6923 -11238.6038 -10372.2916 150.1828 406.4307 451.2752 29038.9601 4.0551 3.9473
TCL: Running 100000 steps at 180 kelvin.
TCL: Setting parameter langevinTemp to 180
TCL: Running for 100000 steps
ETITLE: TS BOND ANGLE DIHED IMPRP ELECT VDW BOUNDARY MISC KINETIC TOTAL TEMP POTENTIAL TOTAL3 TEMPAVG PRESSURE GPRESSURE VOLUME PRESSAVG GPRESSAVG
ENERGY: 500000 0.0000 0.0000 0.0000 0.0000 -13534.8354 2296.2316 0.0000 0.0000 862.9527 -10375.6511 148.6165 -11238.6038 -10373.9802 148.6165 412.5647 452.7606 29038.9601 412.5647 452.7606
ENERGY: 600000 0.0000 0.0000 0.0000 0.0000 -13054.7036 2114.2517 0.0000 0.0000 1022.2912 -9918.1607 176.0576 -10940.4519 -9916.8570 180.0184 99.1047 197.8028 28815.5879 4.6226 4.7455
TCL: Running 100000 steps at 210 kelvin.
TCL: Setting parameter langevinTemp to 210
TCL: Running for 100000 steps
ETITLE: TS BOND ANGLE DIHED IMPRP ELECT VDW BOUNDARY MISC KINETIC TOTAL TEMP POTENTIAL TOTAL3 TEMPAVG PRESSURE GPRESSURE VOLUME PRESSAVG GPRESSAVG
ENERGY: 600000 0.0000 0.0000 0.0000 0.0000 -13054.7036 2114.2517 0.0000 0.0000 1021.7661 -9918.6858 175.9672 -10940.4519 -9916.7271 175.9672 137.7793 197.1674 28815.5879 137.7793 197.1674
ENERGY: 700000 0.0000 0.0000 0.0000 0.0000 -12297.9047 1823.8551 0.0000 0.0000 1201.2943 -9272.7554 206.8853 -10474.0496 -9268.6604 209.9447 -535.4700 -425.9422 28758.2870 4.5701 4.4435
TCL: Running 100000 steps at 240 kelvin.
TCL: Setting parameter langevinTemp to 240
TCL: Running for 100000 steps
ETITLE: TS BOND ANGLE DIHED IMPRP ELECT VDW BOUNDARY MISC KINETIC TOTAL TEMP POTENTIAL TOTAL3 TEMPAVG PRESSURE GPRESSURE VOLUME PRESSAVG GPRESSAVG
ENERGY: 700000 0.0000 0.0000 0.0000 0.0000 -12297.9047 1823.8551 0.0000 0.0000 1200.6831 -9273.3666 206.7800 -10474.0496 -9271.2368 206.7800 -496.3236 -424.8802 28758.2870 -496.3236 -424.8802
ENERGY: 800000 0.0000 0.0000 0.0000 0.0000 -11785.0383 1703.4828 0.0000 0.0000 1364.5252 -8717.0303 234.9967 -10081.5555 -8714.1168 239.5464 -37.8071 41.2331 28856.9936 3.7461 3.7999
TCL: Running 100000 steps at 270 kelvin.
TCL: Setting parameter langevinTemp to 270
TCL: Running for 100000 steps
ETITLE: TS BOND ANGLE DIHED IMPRP ELECT VDW BOUNDARY MISC KINETIC TOTAL TEMP POTENTIAL TOTAL3 TEMPAVG PRESSURE GPRESSURE VOLUME PRESSAVG GPRESSAVG
ENERGY: 800000 0.0000 0.0000 0.0000 0.0000 -11785.0383 1703.4828 0.0000 0.0000 1363.8347 -8717.7208 234.8778 -10081.5555 -8716.1613 234.8778 -45.5066 40.7932 28856.9936 -45.5066 40.7932
ENERGY: 900000 0.0000 0.0000 0.0000 0.0000 -11152.3707 1537.4151 0.0000 0.0000 1534.3182 -8080.6374 264.2382 -9614.9556 -8076.3415 269.8622 334.3022 430.7337 28905.0460 2.9160 2.8915
TCL: Running 1000000 steps at 300 kelvin.
TCL: Setting parameter langevinTemp to 300
TCL: Running for 1000000 steps
ETITLE: TS BOND ANGLE DIHED IMPRP ELECT VDW BOUNDARY MISC KINETIC TOTAL TEMP POTENTIAL TOTAL3 TEMPAVG PRESSURE GPRESSURE VOLUME PRESSAVG GPRESSAVG
ENERGY: 900000 0.0000 0.0000 0.0000 0.0000 -11152.3707 1537.4151 0.0000 0.0000 1533.5769 -8081.3787 264.1105 -9614.9556 -8079.1065 264.1105 341.5354 430.9452 28905.0460 341.5354 430.9452
ENERGY: 1100000 0.0000 0.0000 0.0000 0.0000 -10832.3350 1488.9864 0.0000 0.0000 1790.9740 -7552.3746 308.4391 -9343.3486 -7548.8797 299.9997 273.1869 393.5139 30004.0733 3.0671 3.2661
ENERGY: 1300000 0.0000 0.0000 0.0000 0.0000 -10697.7519 1411.4726 0.0000 0.0000 1751.1370 -7535.1424 301.5784 -9286.2793 -7532.2543 299.9284 -217.3646 -202.7819 30189.3132 3.1533 3.0476
ENERGY: 1500000 0.0000 0.0000 0.0000 0.0000 -10644.7038 1429.3521 0.0000 0.0000 1756.8715 -7458.4801 302.5660 -9215.3517 -7456.9398 301.3657 -119.7178 -37.1162 30773.8145 3.6911 3.6837
ENERGY: 1700000 0.0000 0.0000 0.0000 0.0000 -10668.2437 1446.0624 0.0000 0.0000 1740.5739 -7481.6075 299.7593 -9222.1814 -7478.6904 300.5034 -88.9557 36.6349 30558.5212 2.4979 2.5714
ENERGY: 1900000 0.0000 0.0000 0.0000 0.0000 -10779.6289 1462.1857 0.0000 0.0000 1755.8082 -7561.6351 302.3829 -9317.4433 -7559.7399 299.9467 221.6247 302.0741 30023.6411 4.2586 4.2965
TCL: Exiting due to exit command.
