Info: SIMULATION PARAMETERS:
Info: TIMESTEP               2
Info: NUMBER OF STEPS        0
Info: STEPS PER CYCLE        10
Info: PERIODIC CELL BASIS 1  39.806 0 0
Info: PERIODIC CELL BASIS 2  0 40.343 0
Info: PERIODIC CELL BASIS 3  0 0 39.527
Info: PERIODIC CELL CENTER   0 0 0
Info: WRAPPING WATERS AROUND PERIODIC BOUNDARIES ON OUTPUT.
Info: WRAPPING ALL CLUSTERS AROUND PERIODIC BOUNDARIES ON OUTPUT.
Info: FIRST LDB TIMESTEP     50
Info: LAST LDB TIMESTEP     -1
Info: HOM BACKGROUND SCALING 1
Info: PME BACKGROUND SCALING 1
Info: MIN ATOMS PER PATCH    40
Info: EMPTY PATCH LOAD       40 ATOMS
Info: INITIAL TEMPERATURE    300
Info: CENTER OF MASS MOVING INITIALLY? NO
Info: DIELECTRIC             1
Info: EXCLUDE                SCALED ONE-FOUR
Info: 1-4 ELECTROSTATICS SCALED BY 0.833333
Info: MODIFIED 1-4 VDW PARAMETERS WILL BE USED
Info: DCD FILENAME           mobley_9671033_min.dcd
Info: DCD FREQUENCY          5000
Info: DCD FIRST STEP         5000
Info: DCD FILE WILL CONTAIN UNIT CELL DATA
Info: XST FILENAME           mobley_9671033_min.xst
Info: XST FREQUENCY          5000
Info: NO VELOCITY DCD OUTPUT
Info: NO FORCE DCD OUTPUT
Info: OUTPUT FILENAME        mobley_9671033_min
Info: BINARY OUTPUT FILES WILL BE USED
Info: RESTART FILENAME       mobley_9671033_min.restart
Info: RESTART FREQUENCY      5000
Info: BINARY RESTART FILES WILL BE USED
Info: CUTOFF                 9
Info: PAIRLIST DISTANCE      11
Info: PAIRLIST SHRINK RATE   0.01
Info: PAIRLIST GROW RATE     0.01
Info: PAIRLIST TRIGGER       0.3
Info: PAIRLISTS PER CYCLE    2
Info: PAIRLISTS ENABLED
Info: MARGIN                 8
Info: HYDROGEN GROUP CUTOFF  2.5
Info: PATCH DIMENSION        21.5
Info: ENERGY OUTPUT STEPS    5000
Info: ENERGY EVALUATION STEPS    5000
Info: OUTPUT ENERGY PRECISION 4
Info: CROSSTERM ENERGY INCLUDED IN DIHEDRAL
Info: TIMING OUTPUT STEPS    50000
Info: PRESSURE OUTPUT STEPS  5000
Info: LANGEVIN DYNAMICS ACTIVE
Info: LANGEVIN TEMPERATURE   300
Info: LANGEVIN USING BBK INTEGRATOR
Info: LANGEVIN DAMPING COEFFICIENT IS 1 INVERSE PS
Info: LANGEVIN DYNAMICS APPLIED TO HYDROGENS
Info: LANGEVIN PISTON PRESSURE CONTROL ACTIVE
Info:        TARGET PRESSURE IS 1.01325 BAR
Info:     OSCILLATION PERIOD IS 50 FS
Info:             DECAY TIME IS 25 FS
Info:     PISTON TEMPERATURE IS 300 K
Info:       PRESSURE CONTROL IS GROUP-BASED
Info:    INITIAL STRAIN RATE IS 0 0 0
Info:       CELL FLUCTUATION IS ISOTROPIC
Info: PARTICLE MESH EWALD (PME) ACTIVE
Info: PME TOLERANCE               1e-06
Info: PME EWALD COEFFICIENT       0.348832
Info: PME INTERPOLATION ORDER     4
Info: PME GRID DIMENSIONS         40 44 40
Info: PME MAXIMUM GRID SPACING    1
Info: FULL ELECTROSTATIC EVALUATION FREQUENCY      2
Info: USING VERLET I (r-RESPA) MTS SCHEME.
Info: C1 SPLITTING OF LONG RANGE ELECTROSTATICS
Info: PLACING ATOMS IN PATCHES BY HYDROGEN GROUPS
Info: RIGID BONDS TO HYDROGEN : ALL
Info:         ERROR TOLERANCE : 1e-08
Info:          MAX ITERATIONS : 100
Info: RIGID WATER USING SETTLE ALGORITHM
Info: RANDOM NUMBER SEED     1741405051
Info: USE HYDROGEN BONDS?    NO
Info: Using AMBER format force field!
Info: AMBER PARM FILE        mobley_9671033.prmtop
Info: COORDINATE PDB         mobley_9671033.pdb
Info: Exclusions will be read from PARM file!
Info: SCNB (VDW SCALING)     2
Info: USING ARITHMETIC MEAN TO COMBINE L-J SIGMA PARAMETERS
Info: SUMMARY OF PARAMETERS:
Info: 7 BONDS
Info: 9 ANGLES
Info:   9 HARMONIC
Info:   0 COSINE-BASED
Info: 5 DIHEDRAL
Info: 0 IMPROPER
Info: 0 CROSSTERM
Info: 0 VDW
Info: 28 VDW_PAIRS
Info: 0 NBTHOLE_PAIRS
Info: STRUCTURE SUMMARY:
Info: 4627 ATOMS
Info: 4626 BONDS
Info: 21 ANGLES
Info: 24 DIHEDRALS
Info: 0 IMPROPERS
Info: 0 CROSSTERMS
Info: 4671 EXCLUSIONS
Info: 4621 RIGID BONDS
Info: 9260 DEGREES OF FREEDOM
Info: 1544 HYDROGEN GROUPS
Info: 4 ATOMS IN LARGEST HYDROGEN GROUP
Info: 1544 MIGRATION GROUPS
Info: 4 ATOMS IN LARGEST MIGRATION GROUP
Info: TOTAL MASS = 27797.7 amu
Info: TOTAL CHARGE = -4.47035e-08 e
Info: MASS DENSITY = 0.727206 g/cm^3
Info: ATOM DENSITY = 0.0728935 atoms/A^3
Info: ADDED 0 IMPLICIT EXCLUSIONS
Info: NONBONDED TABLE R-SQUARED SPACING: 0.0625
Info: NONBONDED TABLE SIZE: 705 POINTS
Info: REMOVING COM VELOCITY 0.036077 0.118881 -0.103524
TCL: Minimizing for 2000 steps
ETITLE: TS BOND ANGLE DIHED IMPRP ELECT VDW BOUNDARY MISC KINETIC TOTAL TEMP POTENTIAL TOTAL3 TEMPAVG PRESSURE GPRESSURE VOLUME PRESSAVG GPRESSAVG
ENERGY: 0 1.0623 0.4948 0.0074 0.0000 -14478.9982 1646.7254 0.0000 0.0000 0.0000 -12830.7083 0.0000 -12830.7083 -12830.7083 0.0000 11164.6791 -16048.6709 63476.1507 11164.6791 -16048.6709
ENERGY: 400 2.6636 1.3620 0.0464 0.0000 -19592.6068 2908.6143 0.0000 0.0000 0.0000 -16679.9206 0.0000 -16679.9206 -16679.9206 0.0000 16255.9803 16000.5719 63476.1507 16255.9803 16000.5719
ENERGY: 800 0.4049 0.3062 0.0142 0.0000 -20595.4969 3384.8621 0.0000 0.0000 0.0000 -17209.9095 0.0000 -17209.9095 -17209.9095 0.0000 18656.6061 18357.6355 63476.1507 18656.6061 18357.6355
ENERGY: 1200 0.4007 0.6798 0.0178 0.0000 -21047.1083 3601.1167 0.0000 0.0000 0.0000 -17444.8933 0.0000 -17444.8933 -17444.8933 0.0000 19767.5303 19464.1259 63476.1507 19767.5303 19464.1259
ENERGY: 1600 0.7677 0.5439 0.0312 0.0000 -21311.8890 3732.8264 0.0000 0.0000 0.0000 -17577.7198 0.0000 -17577.7198 -17577.7198 0.0000 20457.1457 20155.5772 63476.1507 20457.1457 20155.5772
ENERGY: 2000 0.0865 0.4623 0.0192 0.0000 -21427.3086 3780.4564 0.0000 0.0000 0.0000 -17646.2842 0.0000 -17646.2842 -17646.2842 0.0000 20703.7516 20392.6503 63476.1507 20703.7516 20392.6503
TCL: Exiting due to exit command.
Info: NAMD 3.0.1 for Linux-x86_64-multicore
Info: Please visit http://www.ks.uiuc.edu/Research/namd/
Info: for updates, documentation, and support information.
Info: Please cite Phillips et al., J. Chem. Phys. 153:044130 (2020) doi:10.1063/5.0014475
Info: in all publications reporting results obtained with NAMD.
Info: Based on Charm++/Converse 80000 for multicore-linux-x86_64-gcc
Info: Built Mon Oct 14 11:11:06 CDT 2024 by dhardy on athine.ks.uiuc.edu
Info: 1 NAMD  3.0.1  Linux-x86_64-multicore  16    k008  z5358697
Info: Running on 16 processors, 1 nodes, 1 physical nodes.
Info: CPU topology information available.
Info: Charm++/Converse parallel runtime startup completed at 0.00954212 s
Info: 1043.45 MB of memory in use based on /proc/self/stat
Info: Configuration file is mobley_9671033_equil.namd
Info: Working in the current directory /srv/scratch/z5358697/prod_prep_12/9671033
TCL: Running 25000 steps at 30 kelvin.
TCL: Suspending until startup complete.
Info: SIMULATION PARAMETERS:
Info: TIMESTEP               2
Info: NUMBER OF STEPS        0
Info: STEPS PER CYCLE        10
Info: PERIODIC CELL BASIS 1  39.806 0 0
Info: PERIODIC CELL BASIS 2  0 40.343 0
Info: PERIODIC CELL BASIS 3  0 0 39.527
Info: PERIODIC CELL CENTER   0 0 0
Info: WRAPPING WATERS AROUND PERIODIC BOUNDARIES ON OUTPUT.
Info: WRAPPING ALL CLUSTERS AROUND PERIODIC BOUNDARIES ON OUTPUT.
Info: FIRST LDB TIMESTEP     50
Info: LAST LDB TIMESTEP     -1
Info: HOM BACKGROUND SCALING 1
Info: PME BACKGROUND SCALING 1
Info: MIN ATOMS PER PATCH    40
Info: EMPTY PATCH LOAD       40 ATOMS
Info: INITIAL TEMPERATURE    300
Info: CENTER OF MASS MOVING INITIALLY? NO
Info: DIELECTRIC             1
Info: EXCLUDE                SCALED ONE-FOUR
Info: 1-4 ELECTROSTATICS SCALED BY 0.833333
Info: MODIFIED 1-4 VDW PARAMETERS WILL BE USED
Info: DCD FILENAME           mobley_9671033_equil.dcd
Info: DCD FREQUENCY          5000
Info: DCD FIRST STEP         5000
Info: DCD FILE WILL CONTAIN UNIT CELL DATA
Info: XST FILENAME           mobley_9671033_equil.xst
Info: XST FREQUENCY          5000
Info: NO VELOCITY DCD OUTPUT
Info: NO FORCE DCD OUTPUT
Info: OUTPUT FILENAME        mobley_9671033_equil
Info: BINARY OUTPUT FILES WILL BE USED
Info: RESTART FILENAME       mobley_9671033_equil.restart
Info: RESTART FREQUENCY      5000
Info: BINARY RESTART FILES WILL BE USED
Info: CUTOFF                 9
Info: PAIRLIST DISTANCE      11
Info: PAIRLIST SHRINK RATE   0.01
Info: PAIRLIST GROW RATE     0.01
Info: PAIRLIST TRIGGER       0.3
Info: PAIRLISTS PER CYCLE    2
Info: PAIRLISTS ENABLED
Info: MARGIN                 8
Info: HYDROGEN GROUP CUTOFF  2.5
Info: PATCH DIMENSION        21.5
Info: ENERGY OUTPUT STEPS    5000
Info: ENERGY EVALUATION STEPS    5000
Info: OUTPUT ENERGY PRECISION 4
Info: CROSSTERM ENERGY INCLUDED IN DIHEDRAL
Info: TIMING OUTPUT STEPS    50000
Info: PRESSURE OUTPUT STEPS  5000
Info: LANGEVIN DYNAMICS ACTIVE
Info: LANGEVIN TEMPERATURE   30
Info: LANGEVIN USING BBK INTEGRATOR
Info: LANGEVIN DAMPING COEFFICIENT IS 1 INVERSE PS
Info: LANGEVIN DYNAMICS APPLIED TO HYDROGENS
Info: LANGEVIN PISTON PRESSURE CONTROL ACTIVE
Info:        TARGET PRESSURE IS 1.01325 BAR
Info:     OSCILLATION PERIOD IS 50 FS
Info:             DECAY TIME IS 25 FS
Info:     PISTON TEMPERATURE IS 300 K
Info:       PRESSURE CONTROL IS GROUP-BASED
Info:    INITIAL STRAIN RATE IS 0 0 0
Info:       CELL FLUCTUATION IS ISOTROPIC
Info: PARTICLE MESH EWALD (PME) ACTIVE
Info: PME TOLERANCE               1e-06
Info: PME EWALD COEFFICIENT       0.348832
Info: PME INTERPOLATION ORDER     4
Info: PME GRID DIMENSIONS         40 44 40
Info: PME MAXIMUM GRID SPACING    1
Info: FULL ELECTROSTATIC EVALUATION FREQUENCY      2
Info: USING VERLET I (r-RESPA) MTS SCHEME.
Info: C1 SPLITTING OF LONG RANGE ELECTROSTATICS
Info: PLACING ATOMS IN PATCHES BY HYDROGEN GROUPS
Info: RIGID BONDS TO HYDROGEN : ALL
Info:         ERROR TOLERANCE : 1e-08
Info:          MAX ITERATIONS : 100
Info: RIGID WATER USING SETTLE ALGORITHM
Info: RANDOM NUMBER SEED     1741405071
Info: USE HYDROGEN BONDS?    NO
Info: Using AMBER format force field!
Info: AMBER PARM FILE        mobley_9671033.prmtop
Info: COORDINATE PDB         mobley_9671033.pdb
Info: Exclusions will be read from PARM file!
Info: SCNB (VDW SCALING)     2
Info: USING ARITHMETIC MEAN TO COMBINE L-J SIGMA PARAMETERS
Info: BINARY COORDINATES     mobley_9671033_min.coor
Info: SUMMARY OF PARAMETERS:
Info: 7 BONDS
Info: 9 ANGLES
Info: 5 DIHEDRAL
Info: 0 IMPROPER
Info: 0 CROSSTERM
Info: 0 VDW
Info: 28 VDW_PAIRS
Info: 0 NBTHOLE_PAIRS
Info: STRUCTURE SUMMARY:
Info: 4627 ATOMS
Info: 4626 BONDS
Info: 21 ANGLES
Info: 24 DIHEDRALS
Info: 0 IMPROPERS
Info: 0 CROSSTERMS
Info: 4671 EXCLUSIONS
Info: 4621 RIGID BONDS
Info: 9260 DEGREES OF FREEDOM
Info: 1544 HYDROGEN GROUPS
Info: 4 ATOMS IN LARGEST HYDROGEN GROUP
Info: 1544 MIGRATION GROUPS
Info: 4 ATOMS IN LARGEST MIGRATION GROUP
Info: TOTAL MASS = 27797.7 amu
Info: TOTAL CHARGE = -4.47035e-08 e
Info: MASS DENSITY = 0.727206 g/cm^3
Info: ATOM DENSITY = 0.0728935 atoms/A^3
Info: ADDED 0 IMPLICIT EXCLUSIONS
Info: NONBONDED TABLE R-SQUARED SPACING: 0.0625
Info: NONBONDED TABLE SIZE: 705 POINTS
Info: REMOVING COM VELOCITY 0.0265538 -0.0636538 -0.0565753
TCL: Running for 25000 steps
ETITLE: TS BOND ANGLE DIHED IMPRP ELECT VDW BOUNDARY MISC KINETIC TOTAL TEMP POTENTIAL TOTAL3 TEMPAVG PRESSURE GPRESSURE VOLUME PRESSAVG GPRESSAVG
ENERGY: 0 0.0865 0.4623 0.0192 0.0000 -21427.3086 3780.4564 0.0000 0.0000 2784.6043 -14861.6799 302.6515 -17646.2842 -14861.1163 302.6515 475.6607 521.8049 63476.1507 475.6607 521.8049
ENERGY: 5000 0.0217 0.5483 0.0922 0.0000 -22358.8680 3962.9439 0.0000 0.0000 275.3728 -18119.8891 29.9296 -18395.2619 -18119.3511 47.1250 478.5613 531.9382 44919.7765 1.6863 1.3987
ENERGY: 10000 0.1614 0.8180 0.1226 0.0000 -22405.2219 3991.5553 0.0000 0.0000 277.3458 -18135.2187 30.1440 -18412.5645 -18134.5332 30.2065 577.0232 618.3248 44919.1680 0.8977 0.8702
ENERGY: 15000 0.1534 1.2315 0.1371 0.0000 -22376.9024 3953.4900 0.0000 0.0000 275.5409 -18146.3495 29.9478 -18421.8904 -18145.8591 29.9949 388.1322 439.7457 44822.9660 1.3703 1.4813
ENERGY: 20000 0.0184 1.3218 0.1823 0.0000 -22358.9872 3918.8510 0.0000 0.0000 285.1864 -18153.4273 30.9962 -18438.6138 -18152.5532 30.2489 178.9858 213.3623 44862.2258 0.2476 0.3545
ENERGY: 25000 0.1820 0.7720 0.0461 0.0000 -22244.8654 3793.3356 0.0000 0.0000 274.2944 -18176.2353 29.8124 -18450.5297 -18175.5898 29.9719 -585.1257 -530.3038 45185.9528 4.0788 4.0706
TCL: Running 25000 steps at 60 kelvin.
TCL: Setting parameter langevinTemp to 60
TCL: Running for 25000 steps
ETITLE: TS BOND ANGLE DIHED IMPRP ELECT VDW BOUNDARY MISC KINETIC TOTAL TEMP POTENTIAL TOTAL3 TEMPAVG PRESSURE GPRESSURE VOLUME PRESSAVG GPRESSAVG
ENERGY: 25000 0.1820 0.7720 0.0461 0.0000 -22244.8654 3793.3356 0.0000 0.0000 274.1556 -18176.3741 29.7973 -18450.5297 -18175.6704 29.7973 -573.7572 -530.3036 45185.9528 -573.7572 -530.3036
ENERGY: 30000 0.1365 1.7510 0.1188 0.0000 -21974.6244 3796.0713 0.0000 0.0000 551.6454 -17624.9014 59.9569 -18176.5468 -17623.7499 57.2761 77.7728 150.8847 45212.7974 4.0342 3.8704
ENERGY: 35000 0.6292 1.5260 0.0230 0.0000 -22172.1208 3938.8371 0.0000 0.0000 565.7559 -17665.3495 61.4906 -18231.1055 -17663.3362 60.1905 846.2469 910.3396 44830.8778 -1.3583 -1.3058
ENERGY: 40000 0.7152 0.7548 0.1367 0.0000 -22044.0255 3790.9460 0.0000 0.0000 553.0901 -17698.3828 60.1139 -18251.4729 -17697.1918 59.9082 -91.2001 -14.6973 45166.7474 5.9028 5.6901
ENERGY: 45000 0.3147 1.3761 0.1611 0.0000 -22125.4894 3869.4922 0.0000 0.0000 556.8272 -17697.3182 60.5201 -18254.1454 -17695.4815 60.2311 414.7470 488.2563 44828.2954 5.0011 5.0598
ENERGY: 50000 0.2872 0.8589 0.0281 0.0000 -22047.7682 3777.1644 0.0000 0.0000 557.9554 -17711.4741 60.6427 -18269.4295 -17710.0493 60.2055 -103.7740 -71.8428 45048.3023 4.0475 3.9479
TCL: Running 25000 steps at 90 kelvin.
TCL: Setting parameter langevinTemp to 90
TCL: Running for 25000 steps
ETITLE: TS BOND ANGLE DIHED IMPRP ELECT VDW BOUNDARY MISC KINETIC TOTAL TEMP POTENTIAL TOTAL3 TEMPAVG PRESSURE GPRESSURE VOLUME PRESSAVG GPRESSAVG
ENERGY: 50000 0.2872 0.8589 0.0281 0.0000 -22047.7682 3777.1644 0.0000 0.0000 557.6833 -17711.7463 60.6132 -18269.4295 -17710.5934 60.6132 -123.4574 -71.9607 45048.3023 -123.4574 -71.9607
ENERGY: 55000 0.4848 0.6305 0.0877 0.0000 -21666.9127 3684.7000 0.0000 0.0000 844.3117 -17136.6980 91.7661 -17981.0096 -17134.9556 87.5554 13.4508 70.5581 45383.6756 2.9324 2.6239
ENERGY: 60000 0.8734 2.2251 0.0201 0.0000 -21783.9158 3756.0655 0.0000 0.0000 831.2650 -17193.4667 90.3481 -18024.7317 -17190.9395 89.7593 366.6541 405.6205 44945.9575 2.8540 2.2576
ENERGY: 65000 0.4462 1.9443 0.2996 0.0000 -21852.8338 3800.3387 0.0000 0.0000 838.9997 -17210.8052 91.1887 -18049.8049 -17209.1254 90.1068 613.4046 644.7457 44809.0277 -0.0666 0.2132
ENERGY: 70000 0.3745 1.6762 0.0652 0.0000 -21661.3342 3608.1126 0.0000 0.0000 808.8713 -17242.2343 87.9142 -18051.1057 -17240.7032 91.3171 -420.5860 -387.1920 45036.0181 7.0481 7.1610
ENERGY: 75000 0.7270 1.8994 0.1203 0.0000 -21787.3737 3679.0092 0.0000 0.0000 822.1673 -17283.4505 89.3593 -18105.6177 -17281.3388 89.8514 -154.7082 -71.6926 44805.5328 3.7207 3.4181
TCL: Running 25000 steps at 120 kelvin.
TCL: Setting parameter langevinTemp to 120
TCL: Running for 25000 steps
ETITLE: TS BOND ANGLE DIHED IMPRP ELECT VDW BOUNDARY MISC KINETIC TOTAL TEMP POTENTIAL TOTAL3 TEMPAVG PRESSURE GPRESSURE VOLUME PRESSAVG GPRESSAVG
ENERGY: 75000 0.7270 1.8994 0.1203 0.0000 -21787.3737 3679.0092 0.0000 0.0000 821.7680 -17283.8497 89.3159 -18105.6177 -17282.1698 89.3159 -133.0287 -71.6783 44805.5328 -133.0287 -71.6783
ENERGY: 80000 1.0124 3.5971 0.5940 0.0000 -21417.3672 3635.9593 0.0000 0.0000 1111.7060 -16664.4984 120.8285 -17776.2044 -16661.4131 117.3629 361.8227 423.8554 44875.1756 1.8158 1.7961
ENERGY: 85000 0.6891 1.7039 0.1398 0.0000 -21363.6103 3521.1701 0.0000 0.0000 1100.0704 -16739.8371 119.5638 -17839.9075 -16737.0403 119.8632 -264.5810 -237.5773 44847.8015 2.3443 2.7147
ENERGY: 90000 1.9843 3.8485 0.4753 0.0000 -21467.9247 3621.0634 0.0000 0.0000 1113.5742 -16726.9790 121.0315 -17840.5532 -16724.6295 119.6917 193.0512 254.3006 44836.1405 3.1530 3.0909
ENERGY: 95000 0.6719 1.9408 0.4435 0.0000 -21376.6942 3491.8141 0.0000 0.0000 1103.0854 -16778.7386 119.8915 -17881.8240 -16775.3598 119.2302 -600.0931 -533.1649 45130.5809 7.7419 7.5944
ENERGY: 100000 0.4928 1.6384 0.1070 0.0000 -21449.1681 3577.6053 0.0000 0.0000 1110.5407 -16758.7840 120.7018 -17869.3247 -16756.7057 119.5172 -19.9073 36.2152 44705.8326 1.4165 1.7475
TCL: Running 25000 steps at 150 kelvin.
TCL: Setting parameter langevinTemp to 150
TCL: Running for 25000 steps
ETITLE: TS BOND ANGLE DIHED IMPRP ELECT VDW BOUNDARY MISC KINETIC TOTAL TEMP POTENTIAL TOTAL3 TEMPAVG PRESSURE GPRESSURE VOLUME PRESSAVG GPRESSAVG
ENERGY: 100000 0.4928 1.6384 0.1070 0.0000 -21449.1681 3577.6053 0.0000 0.0000 1109.9591 -16759.3656 120.6386 -17869.3247 -16756.9687 120.6386 -30.3536 35.6905 44705.8326 -30.3536 35.6905
ENERGY: 105000 1.5058 2.2240 0.1001 0.0000 -21102.8905 3578.7095 0.0000 0.0000 1438.6674 -16081.6836 156.3651 -17520.3510 -16078.0298 146.8811 776.3109 816.5039 44742.6431 3.5316 3.4925
ENERGY: 110000 0.4745 2.5967 0.3424 0.0000 -21071.4423 3536.4405 0.0000 0.0000 1407.6322 -16123.9560 152.9919 -17531.5882 -16119.5306 150.1322 445.8971 569.0392 44860.7581 1.3101 1.5941
ENERGY: 115000 0.2821 2.9502 0.2964 0.0000 -20837.3412 3277.5522 0.0000 0.0000 1397.5573 -16158.7030 151.8969 -17556.2603 -16155.9375 150.8249 -890.3715 -809.7042 45024.5082 5.1072 5.1470
ENERGY: 120000 0.4645 1.7985 0.3538 0.0000 -20935.1195 3360.7701 0.0000 0.0000 1372.5331 -16199.1996 149.1771 -17571.7327 -16195.9094 151.0263 -554.5532 -516.2704 45061.9269 2.5116 2.5064
ENERGY: 125000 0.4842 3.2313 0.1068 0.0000 -21141.6413 3536.2163 0.0000 0.0000 1403.7512 -16197.8515 152.5701 -17601.6027 -16196.0068 148.8611 421.0015 449.8131 44657.6153 3.9109 3.8290
TCL: Running 50000 steps at 180 kelvin.
TCL: Setting parameter langevinTemp to 180
TCL: Running for 50000 steps
ETITLE: TS BOND ANGLE DIHED IMPRP ELECT VDW BOUNDARY MISC KINETIC TOTAL TEMP POTENTIAL TOTAL3 TEMPAVG PRESSURE GPRESSURE VOLUME PRESSAVG GPRESSAVG
ENERGY: 125000 0.4842 3.2313 0.1068 0.0000 -21141.6413 3536.2163 0.0000 0.0000 1403.0490 -16198.5537 152.4938 -17601.6027 -16195.8349 152.4938 395.2396 448.9590 44657.6153 395.2396 448.9590
ENERGY: 135000 0.4570 2.2426 0.3137 0.0000 -20546.3008 3357.2749 0.0000 0.0000 1625.6501 -15560.3625 176.6878 -17186.0126 -15557.0991 179.1059 294.5326 398.5940 45089.0722 -1.0548 -1.4129
ENERGY: 145000 1.2656 1.9695 0.1310 0.0000 -20516.9642 3366.7960 0.0000 0.0000 1638.0553 -15508.7469 178.0360 -17146.8021 -15505.9201 179.1159 425.0368 461.5131 45208.6331 1.3678 1.5396
ENERGY: 155000 0.9567 3.5245 0.2379 0.0000 -20556.8512 3308.1132 0.0000 0.0000 1690.2912 -15553.7278 183.7134 -17244.0190 -15549.9222 180.1529 -154.3945 -129.0458 45645.2861 1.9760 1.8857
ENERGY: 165000 0.5055 2.7115 0.2551 0.0000 -20508.4203 3316.9693 0.0000 0.0000 1662.7752 -15525.2038 180.7228 -17187.9790 -15522.6930 180.4142 -30.4567 26.9183 45681.0967 4.4100 4.1400
ENERGY: 175000 0.7312 3.5872 0.0779 0.0000 -20685.9171 3446.3832 0.0000 0.0000 1663.0316 -15572.1059 180.7507 -17235.1375 -15568.3802 180.7987 526.1695 667.5247 45350.7991 5.1784 5.5838
TCL: Running 50000 steps at 210 kelvin.
TCL: Setting parameter langevinTemp to 210
TCL: Running for 50000 steps
ETITLE: TS BOND ANGLE DIHED IMPRP ELECT VDW BOUNDARY MISC KINETIC TOTAL TEMP POTENTIAL TOTAL3 TEMPAVG PRESSURE GPRESSURE VOLUME PRESSAVG GPRESSAVG
ENERGY: 175000 0.7312 3.5872 0.0779 0.0000 -20685.9171 3446.3832 0.0000 0.0000 1662.2084 -15572.9292 180.6612 -17235.1375 -15570.4487 180.6612 599.4246 667.7552 45350.7991 599.4246 667.7552
ENERGY: 185000 2.3011 3.8541 0.4355 0.0000 -19537.1224 2952.8706 0.0000 0.0000 1900.9857 -14676.6754 206.6133 -16577.6611 -14671.5940 209.0515 -164.5416 -93.8004 44718.6274 2.1527 2.3113
ENERGY: 195000 0.1956 2.0218 0.0373 0.0000 -19487.8663 2924.3586 0.0000 0.0000 1951.6993 -14609.5536 212.1252 -16561.2529 -14606.0860 209.1859 -15.8372 -3.0908 44367.6655 2.4485 2.7641
ENERGY: 205000 2.0523 3.7199 0.6427 0.0000 -19398.5527 2946.2349 0.0000 0.0000 1956.2914 -14489.6115 212.6243 -16445.9029 -14486.2454 210.5697 -191.2480 -129.7447 45643.6149 -0.7505 0.0837
ENERGY: 215000 1.2766 2.5966 0.1989 0.0000 -19502.6756 3036.2782 0.0000 0.0000 1869.2744 -14593.0510 203.1667 -16462.3254 -14588.3401 211.5209 337.1064 439.6834 45139.4761 5.8544 5.9178
ENERGY: 225000 0.6100 6.1129 0.4531 0.0000 -19746.1659 3187.8604 0.0000 0.0000 1936.8750 -14614.2545 210.5140 -16551.1295 -14611.0606 209.7487 1151.9580 1197.7698 44702.7438 2.4589 2.7156
TCL: Running 50000 steps at 240 kelvin.
TCL: Setting parameter langevinTemp to 240
TCL: Running for 50000 steps
ETITLE: TS BOND ANGLE DIHED IMPRP ELECT VDW BOUNDARY MISC KINETIC TOTAL TEMP POTENTIAL TOTAL3 TEMPAVG PRESSURE GPRESSURE VOLUME PRESSAVG GPRESSAVG
ENERGY: 225000 0.6100 6.1129 0.4531 0.0000 -19746.1659 3187.8604 0.0000 0.0000 1935.9116 -14615.2179 210.4093 -16551.1295 -14611.9114 210.4093 1106.3028 1197.2044 44702.7438 1106.3028 1197.2044
ENERGY: 235000 0.8238 4.2572 1.1386 0.0000 -18556.2136 2761.8917 0.0000 0.0000 2173.2545 -13614.8477 236.2055 -15788.1022 -13610.2268 240.9619 270.3913 344.5822 45869.1990 3.1188 3.5324
ENERGY: 245000 0.7591 5.6559 0.4599 0.0000 -18499.5888 2696.0337 0.0000 0.0000 2263.8291 -13532.8511 246.0498 -15796.6802 -13527.2516 242.0431 122.2295 164.0889 45470.2164 0.2266 0.1578
ENERGY: 255000 0.3412 4.3055 0.0594 0.0000 -18376.1671 2637.0555 0.0000 0.0000 2262.3053 -13472.1002 245.8842 -15734.4055 -13466.1512 240.8839 -180.5683 -44.3898 45373.8688 1.0131 1.5359
ENERGY: 265000 0.2974 5.6661 0.9591 0.0000 -18508.2039 2682.6320 0.0000 0.0000 2234.7951 -13583.8541 242.8942 -15818.6492 -13579.4935 240.9870 -148.2942 -100.8001 45948.8647 2.3368 2.5674
ENERGY: 275000 0.8796 3.6241 0.3622 0.0000 -18415.4926 2599.1422 0.0000 0.0000 2185.0132 -13626.4713 237.4835 -15811.4845 -13623.1793 239.1309 -522.8393 -447.9380 45894.1456 1.6950 1.3943
TCL: Running 50000 steps at 270 kelvin.
TCL: Setting parameter langevinTemp to 270
TCL: Running for 50000 steps
ETITLE: TS BOND ANGLE DIHED IMPRP ELECT VDW BOUNDARY MISC KINETIC TOTAL TEMP POTENTIAL TOTAL3 TEMPAVG PRESSURE GPRESSURE VOLUME PRESSAVG GPRESSAVG
ENERGY: 275000 0.8796 3.6241 0.3622 0.0000 -18415.4926 2599.1422 0.0000 0.0000 2183.9071 -13627.5774 237.3633 -15811.4845 -13623.3260 237.3633 -531.6986 -449.3545 45894.1456 -531.6986 -449.3545
ENERGY: 285000 1.3843 3.5916 0.0849 0.0000 -17669.7777 2493.0577 0.0000 0.0000 2538.2570 -12633.4022 275.8767 -15171.6592 -12627.3658 271.1708 26.8731 79.9702 46621.4622 5.1698 4.8606
ENERGY: 295000 0.6062 1.7963 0.4568 0.0000 -17527.4328 2365.7774 0.0000 0.0000 2518.6170 -12640.1791 273.7421 -15158.7961 -12635.8208 269.2358 -401.1626 -375.9780 46509.3329 5.8841 5.7340
ENERGY: 305000 2.3045 4.0405 0.6203 0.0000 -17659.7141 2455.3618 0.0000 0.0000 2425.8745 -12771.5126 263.6621 -15197.3871 -12766.7376 270.0627 -354.0306 -291.2665 47012.6955 3.2501 3.2089
ENERGY: 315000 1.7135 4.4030 0.5449 0.0000 -17558.1122 2385.7611 0.0000 0.0000 2502.8777 -12662.8119 272.0314 -15165.6897 -12657.4865 270.3455 -505.4732 -476.9830 46700.7865 5.1346 5.4408
ENERGY: 325000 0.8978 9.2413 0.0874 0.0000 -17716.5249 2516.5844 0.0000 0.0000 2454.7714 -12734.9427 266.8028 -15189.7141 -12731.9141 268.8646 216.0736 297.0825 46289.1833 -2.8275 -2.1711
TCL: Running 1000000 steps at 300 kelvin.
TCL: Setting parameter langevinTemp to 300
TCL: Running for 1000000 steps
ETITLE: TS BOND ANGLE DIHED IMPRP ELECT VDW BOUNDARY MISC KINETIC TOTAL TEMP POTENTIAL TOTAL3 TEMPAVG PRESSURE GPRESSURE VOLUME PRESSAVG GPRESSAVG
ENERGY: 325000 0.8978 9.2413 0.0874 0.0000 -17716.5250 2516.5844 0.0000 0.0000 2453.5562 -12736.1579 266.6708 -15189.7141 -12732.7794 266.6708 206.0385 296.7326 46289.1833 206.0385 296.7326
ENERGY: 525000 1.6362 7.7858 1.0395 0.0000 -16744.3007 2226.5909 0.0000 0.0000 2794.6211 -11712.6271 303.7402 -14507.2482 -11704.3151 300.7796 -238.5050 -122.7398 47872.7884 3.8545 3.4914
ENERGY: 725000 3.2994 4.6633 0.2311 0.0000 -16911.4322 2334.5747 0.0000 0.0000 2786.5260 -11782.1377 302.8604 -14568.6637 -11779.0900 300.2099 324.0326 432.8199 47439.3488 3.5139 3.7794
ENERGY: 925000 3.6732 7.2834 0.7189 0.0000 -16704.7790 2212.2664 0.0000 0.0000 2780.6150 -11700.2221 302.2180 -14480.8370 -11694.4162 301.5590 -245.6320 -183.3059 48155.5656 2.5799 2.6982
ENERGY: 1125000 3.0163 5.9037 0.4890 0.0000 -16806.2544 2231.5782 0.0000 0.0000 2784.0117 -11781.2555 302.5871 -14565.2671 -11777.1140 298.9470 -280.6069 -202.9291 47949.2870 1.7713 1.4284
ENERGY: 1325000 2.0872 6.6240 0.7851 0.0000 -16749.5833 2261.2810 0.0000 0.0000 2793.1048 -11685.7010 303.5754 -14478.8058 -11677.4033 300.3377 -52.1792 24.3479 48017.5164 -1.6150 -1.3058
TCL: Exiting due to exit command.
