Info: SIMULATION PARAMETERS:
Info: TIMESTEP               2
Info: NUMBER OF STEPS        0
Info: STEPS PER CYCLE        10
Info: PERIODIC CELL BASIS 1  36.281 0 0
Info: PERIODIC CELL BASIS 2  0 35.411 0
Info: PERIODIC CELL BASIS 3  0 0 34.471
Info: PERIODIC CELL CENTER   0 0 0
Info: WRAPPING WATERS AROUND PERIODIC BOUNDARIES ON OUTPUT.
Info: WRAPPING ALL CLUSTERS AROUND PERIODIC BOUNDARIES ON OUTPUT.
Info: FIRST LDB TIMESTEP     50
Info: LAST LDB TIMESTEP     -1
Info: HOM BACKGROUND SCALING 1
Info: PME BACKGROUND SCALING 1
Info: MIN ATOMS PER PATCH    40
Info: EMPTY PATCH LOAD       40 ATOMS
Info: INITIAL TEMPERATURE    300
Info: CENTER OF MASS MOVING INITIALLY? NO
Info: DIELECTRIC             1
Info: EXCLUDE                SCALED ONE-FOUR
Info: 1-4 ELECTROSTATICS SCALED BY 0.833333
Info: MODIFIED 1-4 VDW PARAMETERS WILL BE USED
Info: DCD FILENAME           mobley_5499659_equil.dcd
Info: DCD FREQUENCY          100000
Info: DCD FIRST STEP         100000
Info: DCD FILE WILL CONTAIN UNIT CELL DATA
Info: XST FILENAME           mobley_5499659_equil.xst
Info: XST FREQUENCY          100000
Info: NO VELOCITY DCD OUTPUT
Info: NO FORCE DCD OUTPUT
Info: OUTPUT FILENAME        mobley_5499659_equil
Info: BINARY OUTPUT FILES WILL BE USED
Info: RESTART FILENAME       mobley_5499659_equil.restart
Info: RESTART FREQUENCY      100000
Info: BINARY RESTART FILES WILL BE USED
Info: CUTOFF                 9
Info: PAIRLIST DISTANCE      11
Info: PAIRLIST SHRINK RATE   0.01
Info: PAIRLIST GROW RATE     0.01
Info: PAIRLIST TRIGGER       0.3
Info: PAIRLISTS PER CYCLE    2
Info: PAIRLISTS ENABLED
Info: MARGIN                 8
Info: HYDROGEN GROUP CUTOFF  2.5
Info: PATCH DIMENSION        21.5
Info: ENERGY OUTPUT STEPS    100000
Info: ENERGY EVALUATION STEPS    100000
Info: OUTPUT ENERGY PRECISION 4
Info: CROSSTERM ENERGY INCLUDED IN DIHEDRAL
Info: TIMING OUTPUT STEPS    1000000
Info: PRESSURE OUTPUT STEPS  100000
Info: LANGEVIN DYNAMICS ACTIVE
Info: LANGEVIN TEMPERATURE   30
Info: LANGEVIN USING BBK INTEGRATOR
Info: LANGEVIN DAMPING COEFFICIENT IS 1 INVERSE PS
Info: LANGEVIN DYNAMICS APPLIED TO HYDROGENS
Info: LANGEVIN PISTON PRESSURE CONTROL ACTIVE
Info:        TARGET PRESSURE IS 1.01325 BAR
Info:     OSCILLATION PERIOD IS 50 FS
Info:             DECAY TIME IS 25 FS
Info:     PISTON TEMPERATURE IS 300 K
Info:       PRESSURE CONTROL IS GROUP-BASED
Info:    INITIAL STRAIN RATE IS 0 0 0
Info:       CELL FLUCTUATION IS ISOTROPIC
Info: PARTICLE MESH EWALD (PME) ACTIVE
Info: PME TOLERANCE               1e-06
Info: PME EWALD COEFFICIENT       0.348832
Info: PME INTERPOLATION ORDER     4
Info: PME GRID DIMENSIONS         40 36 36
Info: PME MAXIMUM GRID SPACING    1
Info: FULL ELECTROSTATIC EVALUATION FREQUENCY      2
Info: USING VERLET I (r-RESPA) MTS SCHEME.
Info: C1 SPLITTING OF LONG RANGE ELECTROSTATICS
Info: PLACING ATOMS IN PATCHES BY HYDROGEN GROUPS
Info: RIGID BONDS TO HYDROGEN : ALL
Info:         ERROR TOLERANCE : 1e-08
Info:          MAX ITERATIONS : 100
Info: RIGID WATER USING SETTLE ALGORITHM
Info: RANDOM NUMBER SEED     1742481605
Info: USE HYDROGEN BONDS?    NO
Info: Using AMBER format force field!
Info: AMBER PARM FILE        mobley_5499659.prmtop
Info: COORDINATE PDB         mobley_5499659.pdb
Info: Exclusions will be read from PARM file!
Info: SCNB (VDW SCALING)     2
Info: USING ARITHMETIC MEAN TO COMBINE L-J SIGMA PARAMETERS
Info: BINARY COORDINATES     mobley_5499659_min.coor
Info: SUMMARY OF PARAMETERS:
Info: 11 BONDS
Info: 14 ANGLES
Info:   14 HARMONIC
Info:   0 COSINE-BASED
Info: 4 DIHEDRAL
Info: 0 IMPROPER
Info: 0 CROSSTERM
Info: 0 VDW
Info: 45 VDW_PAIRS
Info: 0 NBTHOLE_PAIRS
Info: STRUCTURE SUMMARY:
Info: 2928 ATOMS
Info: 2928 BONDS
Info: 19 ANGLES
Info: 22 DIHEDRALS
Info: 0 IMPROPERS
Info: 0 CROSSTERMS
Info: 2964 EXCLUSIONS
Info: 2922 RIGID BONDS
Info: 5862 DEGREES OF FREEDOM
Info: 978 HYDROGEN GROUPS
Info: 4 ATOMS IN LARGEST HYDROGEN GROUP
Info: 978 MIGRATION GROUPS
Info: 4 ATOMS IN LARGEST MIGRATION GROUP
Info: TOTAL MASS = 17593.7 amu
Info: TOTAL CHARGE = 0.000100017 e
Info: MASS DENSITY = 0.659696 g/cm^3
Info: ATOM DENSITY = 0.066115 atoms/A^3
Info: ADDED 0 IMPLICIT EXCLUSIONS
Info: NONBONDED TABLE R-SQUARED SPACING: 0.0625
Info: NONBONDED TABLE SIZE: 705 POINTS
Info: REMOVING COM VELOCITY -0.0569608 -0.0414206 -0.056213
TCL: Running for 100000 steps
ETITLE: TS BOND ANGLE DIHED IMPRP ELECT VDW BOUNDARY MISC KINETIC TOTAL TEMP POTENTIAL TOTAL3 TEMPAVG PRESSURE GPRESSURE VOLUME PRESSAVG GPRESSAVG
ENERGY: 0 0.0704 0.5583 0.0656 0.0000 -13581.4115 2389.0506 0.0000 0.0000 1702.1801 -9489.4865 292.2470 -11191.6665 -9489.1567 292.2470 457.3295 489.6209 44286.4963 457.3295 489.6209
ENERGY: 100000 0.2835 0.7510 0.3759 0.0000 -14008.9394 2352.5398 0.0000 0.0000 174.1788 -11480.8105 29.9047 -11654.9893 -11480.5237 30.8866 -842.2341 -799.9241 29434.8819 3.7370 3.7285
TCL: Running 100000 steps at 60 kelvin.
TCL: Setting parameter langevinTemp to 60
TCL: Running for 100000 steps
ETITLE: TS BOND ANGLE DIHED IMPRP ELECT VDW BOUNDARY MISC KINETIC TOTAL TEMP POTENTIAL TOTAL3 TEMPAVG PRESSURE GPRESSURE VOLUME PRESSAVG GPRESSAVG
ENERGY: 100000 0.2835 0.7510 0.3759 0.0000 -14008.9394 2352.5398 0.0000 0.0000 174.0935 -11480.8958 29.8901 -11654.9893 -11480.5109 29.8901 -863.2050 -800.0168 29434.8819 -863.2050 -800.0168
ENERGY: 200000 0.1521 1.1355 0.7827 0.0000 -13972.0169 2392.2285 0.0000 0.0000 359.0005 -11218.7175 61.6367 -11577.7180 -11217.4525 59.9729 -263.3534 -211.4654 29036.7769 3.1413 3.0381
TCL: Running 100000 steps at 90 kelvin.
TCL: Setting parameter langevinTemp to 90
TCL: Running for 100000 steps
ETITLE: TS BOND ANGLE DIHED IMPRP ELECT VDW BOUNDARY MISC KINETIC TOTAL TEMP POTENTIAL TOTAL3 TEMPAVG PRESSURE GPRESSURE VOLUME PRESSAVG GPRESSAVG
ENERGY: 200000 0.1521 1.1355 0.7827 0.0000 -13972.0169 2392.2285 0.0000 0.0000 358.8325 -11218.8855 61.6079 -11577.7180 -11218.0564 61.6079 -268.6422 -211.1749 29036.7769 -268.6422 -211.1749
ENERGY: 300000 0.9885 2.3046 1.1697 0.0000 -13879.0242 2394.9252 0.0000 0.0000 528.7910 -10950.8451 90.7880 -11479.6362 -10949.6581 90.0620 494.6245 561.0665 28406.2429 4.2214 4.1783
TCL: Running 100000 steps at 120 kelvin.
TCL: Setting parameter langevinTemp to 120
TCL: Running for 100000 steps
ETITLE: TS BOND ANGLE DIHED IMPRP ELECT VDW BOUNDARY MISC KINETIC TOTAL TEMP POTENTIAL TOTAL3 TEMPAVG PRESSURE GPRESSURE VOLUME PRESSAVG GPRESSAVG
ENERGY: 300000 0.9885 2.3046 1.1697 0.0000 -13879.0242 2394.9252 0.0000 0.0000 528.5307 -10951.1055 90.7433 -11479.6362 -10950.2861 90.7433 513.5018 561.2968 28406.2429 513.5018 561.2968
ENERGY: 400000 0.9271 2.1015 0.3337 0.0000 -13743.5311 2387.9741 0.0000 0.0000 714.6908 -10637.5039 122.7051 -11352.1947 -10636.2763 120.2060 546.1449 597.7722 28864.8024 5.0559 5.1048
TCL: Running 100000 steps at 150 kelvin.
TCL: Setting parameter langevinTemp to 150
TCL: Running for 100000 steps
ETITLE: TS BOND ANGLE DIHED IMPRP ELECT VDW BOUNDARY MISC KINETIC TOTAL TEMP POTENTIAL TOTAL3 TEMPAVG PRESSURE GPRESSURE VOLUME PRESSAVG GPRESSAVG
ENERGY: 400000 0.9271 2.1015 0.3337 0.0000 -13743.5311 2387.9741 0.0000 0.0000 714.3515 -10637.8432 122.6469 -11352.1947 -10636.4609 122.6469 561.6328 597.7372 28864.8024 561.6328 597.7372
ENERGY: 500000 1.2755 1.8915 0.4911 0.0000 -13389.8012 2229.4656 0.0000 0.0000 853.4201 -10303.2574 146.5235 -11156.6775 -10301.1961 149.7541 -183.8577 -167.4686 29055.9363 3.7620 3.7455
TCL: Running 100000 steps at 180 kelvin.
TCL: Setting parameter langevinTemp to 180
TCL: Running for 100000 steps
ETITLE: TS BOND ANGLE DIHED IMPRP ELECT VDW BOUNDARY MISC KINETIC TOTAL TEMP POTENTIAL TOTAL3 TEMPAVG PRESSURE GPRESSURE VOLUME PRESSAVG GPRESSAVG
ENERGY: 500000 1.2755 1.8915 0.4911 0.0000 -13389.8012 2229.4656 0.0000 0.0000 852.9946 -10303.6829 146.4505 -11156.6775 -10302.1346 146.4505 -214.0493 -166.0967 29055.9363 -214.0493 -166.0967
ENERGY: 600000 1.3039 2.8765 0.4070 0.0000 -12895.5858 2007.7829 0.0000 0.0000 1053.4600 -9829.7555 180.8684 -10883.2155 -9827.5071 180.0273 -639.6393 -627.9707 28781.6697 2.3654 2.2757
TCL: Running 100000 steps at 210 kelvin.
TCL: Setting parameter langevinTemp to 210
TCL: Running for 100000 steps
ETITLE: TS BOND ANGLE DIHED IMPRP ELECT VDW BOUNDARY MISC KINETIC TOTAL TEMP POTENTIAL TOTAL3 TEMPAVG PRESSURE GPRESSURE VOLUME PRESSAVG GPRESSAVG
ENERGY: 600000 1.3039 2.8765 0.4070 0.0000 -12895.5858 2007.7829 0.0000 0.0000 1052.9437 -9830.2717 180.7797 -10883.2155 -9827.9148 180.7797 -695.5157 -629.6112 28781.6697 -695.5157 -629.6112
ENERGY: 700000 0.3610 5.9285 2.4058 0.0000 -12438.7733 1975.7367 0.0000 0.0000 1228.9146 -9225.4268 210.9921 -10454.3414 -9223.3632 210.2132 1099.0991 1206.0600 27901.4841 3.2444 3.4215
TCL: Running 100000 steps at 240 kelvin.
TCL: Setting parameter langevinTemp to 240
TCL: Running for 100000 steps
ETITLE: TS BOND ANGLE DIHED IMPRP ELECT VDW BOUNDARY MISC KINETIC TOTAL TEMP POTENTIAL TOTAL3 TEMPAVG PRESSURE GPRESSURE VOLUME PRESSAVG GPRESSAVG
ENERGY: 700000 0.3610 5.9285 2.4058 0.0000 -12438.7733 1975.7367 0.0000 0.0000 1228.2969 -9226.0445 210.8861 -10454.3414 -9224.4252 210.8861 1131.6175 1207.1780 27901.4841 1131.6175 1207.1780
ENERGY: 800000 1.2027 1.8355 1.0514 0.0000 -11675.7371 1674.2836 0.0000 0.0000 1398.2845 -8599.0796 240.0712 -9997.3641 -8595.9468 239.9100 -384.9786 -279.1797 29032.9066 3.7575 3.7921
TCL: Running 100000 steps at 270 kelvin.
TCL: Setting parameter langevinTemp to 270
TCL: Running for 100000 steps
ETITLE: TS BOND ANGLE DIHED IMPRP ELECT VDW BOUNDARY MISC KINETIC TOTAL TEMP POTENTIAL TOTAL3 TEMPAVG PRESSURE GPRESSURE VOLUME PRESSAVG GPRESSAVG
ENERGY: 800000 1.2027 1.8355 1.0514 0.0000 -11675.7371 1674.2836 0.0000 0.0000 1397.5886 -8599.7755 239.9517 -9997.3641 -8596.8714 239.9517 -366.4940 -278.3391 29032.9066 -366.4940 -278.3391
ENERGY: 900000 4.9904 4.1952 3.0412 0.0000 -11127.0521 1491.2678 0.0000 0.0000 1588.0379 -8035.5197 272.6500 -9623.5575 -8033.0564 269.7011 -1044.1665 -931.1079 29947.7992 3.5652 3.5501
TCL: Running 1000000 steps at 300 kelvin.
TCL: Setting parameter langevinTemp to 300
TCL: Running for 1000000 steps
ETITLE: TS BOND ANGLE DIHED IMPRP ELECT VDW BOUNDARY MISC KINETIC TOTAL TEMP POTENTIAL TOTAL3 TEMPAVG PRESSURE GPRESSURE VOLUME PRESSAVG GPRESSAVG
ENERGY: 900000 4.9904 4.1952 3.0412 0.0000 -11127.0521 1491.2678 0.0000 0.0000 1587.2781 -8036.2794 272.5195 -9623.5575 -8033.6969 272.5195 -1003.8124 -932.2247 29947.7992 -1003.8124 -932.2247
ENERGY: 1100000 1.6328 3.2888 1.6466 0.0000 -10799.4239 1559.6479 0.0000 0.0000 1790.2697 -7442.9380 307.3711 -9233.2077 -7440.8251 299.6142 878.5641 969.2445 30151.8445 3.3543 3.3196
ENERGY: 1300000 1.4782 1.7484 1.1316 0.0000 -10634.6969 1400.6729 0.0000 0.0000 1771.1400 -7458.5258 304.0867 -9229.6658 -7454.1136 299.9950 -456.6867 -374.9769 30183.7554 2.7389 2.8231
ENERGY: 1500000 0.9648 5.0591 1.3776 0.0000 -10689.7339 1441.6424 0.0000 0.0000 1789.5828 -7451.1072 307.2532 -9240.6900 -7446.6926 300.6482 -48.3148 100.1672 30035.4467 4.6332 4.7436
ENERGY: 1700000 5.9202 3.8220 0.1843 0.0000 -10656.3352 1446.8129 0.0000 0.0000 1730.8401 -7468.7556 297.1676 -9199.5958 -7464.7218 300.0049 -328.1867 -289.2619 30306.5793 2.8592 2.7459
ENERGY: 1900000 2.2310 3.6248 2.6820 0.0000 -10665.0875 1454.4644 0.0000 0.0000 1756.7768 -7445.3084 301.6207 -9202.0853 -7443.6463 299.7033 113.2844 186.6921 30314.1400 3.1946 3.3089
TCL: Exiting due to exit command.
