Info: SIMULATION PARAMETERS:
Info: TIMESTEP               2
Info: NUMBER OF STEPS        0
Info: STEPS PER CYCLE        10
Info: PERIODIC CELL BASIS 1  44.147 0 0
Info: PERIODIC CELL BASIS 2  0 45.083 0
Info: PERIODIC CELL BASIS 3  0 0 39.271
Info: PERIODIC CELL CENTER   0 0 0
Info: WRAPPING WATERS AROUND PERIODIC BOUNDARIES ON OUTPUT.
Info: WRAPPING ALL CLUSTERS AROUND PERIODIC BOUNDARIES ON OUTPUT.
Info: FIRST LDB TIMESTEP     50
Info: LAST LDB TIMESTEP     -1
Info: HOM BACKGROUND SCALING 1
Info: PME BACKGROUND SCALING 1
Info: MIN ATOMS PER PATCH    40
Info: EMPTY PATCH LOAD       40 ATOMS
Info: INITIAL TEMPERATURE    300
Info: CENTER OF MASS MOVING INITIALLY? NO
Info: DIELECTRIC             1
Info: EXCLUDE                SCALED ONE-FOUR
Info: 1-4 ELECTROSTATICS SCALED BY 0.833333
Info: MODIFIED 1-4 VDW PARAMETERS WILL BE USED
Info: DCD FILENAME           mobley_8827942_min.dcd
Info: DCD FREQUENCY          5000
Info: DCD FIRST STEP         5000
Info: DCD FILE WILL CONTAIN UNIT CELL DATA
Info: XST FILENAME           mobley_8827942_min.xst
Info: XST FREQUENCY          5000
Info: NO VELOCITY DCD OUTPUT
Info: NO FORCE DCD OUTPUT
Info: OUTPUT FILENAME        mobley_8827942_min
Info: BINARY OUTPUT FILES WILL BE USED
Info: RESTART FILENAME       mobley_8827942_min.restart
Info: RESTART FREQUENCY      5000
Info: BINARY RESTART FILES WILL BE USED
Info: CUTOFF                 9
Info: PAIRLIST DISTANCE      11
Info: PAIRLIST SHRINK RATE   0.01
Info: PAIRLIST GROW RATE     0.01
Info: PAIRLIST TRIGGER       0.3
Info: PAIRLISTS PER CYCLE    2
Info: PAIRLISTS ENABLED
Info: MARGIN                 8
Info: HYDROGEN GROUP CUTOFF  2.5
Info: PATCH DIMENSION        21.5
Info: ENERGY OUTPUT STEPS    5000
Info: ENERGY EVALUATION STEPS    5000
Info: OUTPUT ENERGY PRECISION 4
Info: CROSSTERM ENERGY INCLUDED IN DIHEDRAL
Info: TIMING OUTPUT STEPS    50000
Info: PRESSURE OUTPUT STEPS  5000
Info: LANGEVIN DYNAMICS ACTIVE
Info: LANGEVIN TEMPERATURE   300
Info: LANGEVIN USING BBK INTEGRATOR
Info: LANGEVIN DAMPING COEFFICIENT IS 1 INVERSE PS
Info: LANGEVIN DYNAMICS APPLIED TO HYDROGENS
Info: LANGEVIN PISTON PRESSURE CONTROL ACTIVE
Info:        TARGET PRESSURE IS 1.01325 BAR
Info:     OSCILLATION PERIOD IS 50 FS
Info:             DECAY TIME IS 25 FS
Info:     PISTON TEMPERATURE IS 300 K
Info:       PRESSURE CONTROL IS GROUP-BASED
Info:    INITIAL STRAIN RATE IS 0 0 0
Info:       CELL FLUCTUATION IS ISOTROPIC
Info: PARTICLE MESH EWALD (PME) ACTIVE
Info: PME TOLERANCE               1e-06
Info: PME EWALD COEFFICIENT       0.348832
Info: PME INTERPOLATION ORDER     4
Info: PME GRID DIMENSIONS         48 48 40
Info: PME MAXIMUM GRID SPACING    1
Info: FULL ELECTROSTATIC EVALUATION FREQUENCY      2
Info: USING VERLET I (r-RESPA) MTS SCHEME.
Info: C1 SPLITTING OF LONG RANGE ELECTROSTATICS
Info: PLACING ATOMS IN PATCHES BY HYDROGEN GROUPS
Info: RIGID BONDS TO HYDROGEN : ALL
Info:         ERROR TOLERANCE : 1e-08
Info:          MAX ITERATIONS : 100
Info: RIGID WATER USING SETTLE ALGORITHM
Info: RANDOM NUMBER SEED     1741408985
Info: USE HYDROGEN BONDS?    NO
Info: Using AMBER format force field!
Info: AMBER PARM FILE        mobley_8827942.prmtop
Info: COORDINATE PDB         mobley_8827942.pdb
Info: Exclusions will be read from PARM file!
Info: SCNB (VDW SCALING)     2
Info: USING ARITHMETIC MEAN TO COMBINE L-J SIGMA PARAMETERS
Info: SUMMARY OF PARAMETERS:
Info: 6 BONDS
Info: 5 ANGLES
Info:   5 HARMONIC
Info:   0 COSINE-BASED
Info: 3 DIHEDRAL
Info: 0 IMPROPER
Info: 0 CROSSTERM
Info: 0 VDW
Info: 21 VDW_PAIRS
Info: 0 NBTHOLE_PAIRS
Info: STRUCTURE SUMMARY:
Info: 5599 ATOMS
Info: 5601 BONDS
Info: 38 ANGLES
Info: 64 DIHEDRALS
Info: 0 IMPROPERS
Info: 0 CROSSTERMS
Info: 5686 EXCLUSIONS
Info: 5582 RIGID BONDS
Info: 11215 DEGREES OF FREEDOM
Info: 1876 HYDROGEN GROUPS
Info: 3 ATOMS IN LARGEST HYDROGEN GROUP
Info: 1876 MIGRATION GROUPS
Info: 3 ATOMS IN LARGEST MIGRATION GROUP
Info: TOTAL MASS = 33779.3 amu
Info: TOTAL CHARGE = 0.000100013 e
Info: MASS DENSITY = 0.717668 g/cm^3
Info: ATOM DENSITY = 0.0716349 atoms/A^3
Info: ADDED 0 IMPLICIT EXCLUSIONS
Info: NONBONDED TABLE R-SQUARED SPACING: 0.0625
Info: NONBONDED TABLE SIZE: 705 POINTS
Info: REMOVING COM VELOCITY 0.0892098 0.0663141 0.0452575
TCL: Minimizing for 2000 steps
ETITLE: TS BOND ANGLE DIHED IMPRP ELECT VDW BOUNDARY MISC KINETIC TOTAL TEMP POTENTIAL TOTAL3 TEMPAVG PRESSURE GPRESSURE VOLUME PRESSAVG GPRESSAVG
ENERGY: 0 0.4821 2.4297 0.0003 0.0000 -17324.5919 1953.6588 0.0000 0.0000 0.0000 -15368.0210 0.0000 -15368.0210 -15368.0210 0.0000 10893.9480 -15720.2062 78160.2545 10893.9480 -15720.2062
ENERGY: 400 2.7393 1.1993 0.0194 0.0000 -23278.7454 3344.4919 0.0000 0.0000 0.0000 -19930.2956 0.0000 -19930.2956 -19930.2956 0.0000 15268.8590 15411.3395 78160.2545 15268.8590 15411.3395
ENERGY: 800 18.4241 9.9832 0.1037 0.0000 -24538.5798 3937.8675 0.0000 0.0000 0.0000 -20572.2012 0.0000 -20572.2012 -20572.2012 0.0000 17687.1250 17810.2775 78160.2545 17687.1250 17810.2775
ENERGY: 1200 7.5800 3.1101 0.0271 0.0000 -25106.1220 4201.2529 0.0000 0.0000 0.0000 -20894.1518 0.0000 -20894.1518 -20894.1518 0.0000 18757.9215 18882.9873 78160.2545 18757.9215 18882.9873
ENERGY: 1600 0.8730 0.3800 0.0817 0.0000 -25387.3728 4323.5588 0.0000 0.0000 0.0000 -21062.4793 0.0000 -21062.4793 -21062.4793 0.0000 19293.9656 19416.3984 78160.2545 19293.9656 19416.3984
ENERGY: 2000 0.8395 0.3685 0.1068 0.0000 -25532.3503 4383.0813 0.0000 0.0000 0.0000 -21147.9543 0.0000 -21147.9543 -21147.9543 0.0000 19562.8491 19680.7453 78160.2545 19562.8491 19680.7453
TCL: Exiting due to exit command.
Info: NAMD 3.0.1 for Linux-x86_64-multicore
Info: Please visit http://www.ks.uiuc.edu/Research/namd/
Info: for updates, documentation, and support information.
Info: Please cite Phillips et al., J. Chem. Phys. 153:044130 (2020) doi:10.1063/5.0014475
Info: in all publications reporting results obtained with NAMD.
Info: Based on Charm++/Converse 80000 for multicore-linux-x86_64-gcc
Info: Built Mon Oct 14 11:11:06 CDT 2024 by dhardy on athine.ks.uiuc.edu
Info: 1 NAMD  3.0.1  Linux-x86_64-multicore  16    k013  z5358697
Info: Running on 16 processors, 1 nodes, 1 physical nodes.
Info: CPU topology information available.
Info: Charm++/Converse parallel runtime startup completed at 0.00940754 s
Info: 1043.45 MB of memory in use based on /proc/self/stat
Info: Configuration file is mobley_8827942_equil.namd
Info: Working in the current directory /srv/scratch/z5358697/prod_prep_11/8827942
TCL: Running 25000 steps at 30 kelvin.
TCL: Suspending until startup complete.
Info: SIMULATION PARAMETERS:
Info: TIMESTEP               2
Info: NUMBER OF STEPS        0
Info: STEPS PER CYCLE        10
Info: PERIODIC CELL BASIS 1  44.147 0 0
Info: PERIODIC CELL BASIS 2  0 45.083 0
Info: PERIODIC CELL BASIS 3  0 0 39.271
Info: PERIODIC CELL CENTER   0 0 0
Info: WRAPPING WATERS AROUND PERIODIC BOUNDARIES ON OUTPUT.
Info: WRAPPING ALL CLUSTERS AROUND PERIODIC BOUNDARIES ON OUTPUT.
Info: FIRST LDB TIMESTEP     50
Info: LAST LDB TIMESTEP     -1
Info: HOM BACKGROUND SCALING 1
Info: PME BACKGROUND SCALING 1
Info: MIN ATOMS PER PATCH    40
Info: EMPTY PATCH LOAD       40 ATOMS
Info: INITIAL TEMPERATURE    300
Info: CENTER OF MASS MOVING INITIALLY? NO
Info: DIELECTRIC             1
Info: EXCLUDE                SCALED ONE-FOUR
Info: 1-4 ELECTROSTATICS SCALED BY 0.833333
Info: MODIFIED 1-4 VDW PARAMETERS WILL BE USED
Info: DCD FILENAME           mobley_8827942_equil.dcd
Info: DCD FREQUENCY          5000
Info: DCD FIRST STEP         5000
Info: DCD FILE WILL CONTAIN UNIT CELL DATA
Info: XST FILENAME           mobley_8827942_equil.xst
Info: XST FREQUENCY          5000
Info: NO VELOCITY DCD OUTPUT
Info: NO FORCE DCD OUTPUT
Info: OUTPUT FILENAME        mobley_8827942_equil
Info: BINARY OUTPUT FILES WILL BE USED
Info: RESTART FILENAME       mobley_8827942_equil.restart
Info: RESTART FREQUENCY      5000
Info: BINARY RESTART FILES WILL BE USED
Info: CUTOFF                 9
Info: PAIRLIST DISTANCE      11
Info: PAIRLIST SHRINK RATE   0.01
Info: PAIRLIST GROW RATE     0.01
Info: PAIRLIST TRIGGER       0.3
Info: PAIRLISTS PER CYCLE    2
Info: PAIRLISTS ENABLED
Info: MARGIN                 8
Info: HYDROGEN GROUP CUTOFF  2.5
Info: PATCH DIMENSION        21.5
Info: ENERGY OUTPUT STEPS    5000
Info: ENERGY EVALUATION STEPS    5000
Info: OUTPUT ENERGY PRECISION 4
Info: CROSSTERM ENERGY INCLUDED IN DIHEDRAL
Info: TIMING OUTPUT STEPS    50000
Info: PRESSURE OUTPUT STEPS  5000
Info: LANGEVIN DYNAMICS ACTIVE
Info: LANGEVIN TEMPERATURE   30
Info: LANGEVIN USING BBK INTEGRATOR
Info: LANGEVIN DAMPING COEFFICIENT IS 1 INVERSE PS
Info: LANGEVIN DYNAMICS APPLIED TO HYDROGENS
Info: LANGEVIN PISTON PRESSURE CONTROL ACTIVE
Info:        TARGET PRESSURE IS 1.01325 BAR
Info:     OSCILLATION PERIOD IS 50 FS
Info:             DECAY TIME IS 25 FS
Info:     PISTON TEMPERATURE IS 300 K
Info:       PRESSURE CONTROL IS GROUP-BASED
Info:    INITIAL STRAIN RATE IS 0 0 0
Info:       CELL FLUCTUATION IS ISOTROPIC
Info: PARTICLE MESH EWALD (PME) ACTIVE
Info: PME TOLERANCE               1e-06
Info: PME EWALD COEFFICIENT       0.348832
Info: PME INTERPOLATION ORDER     4
Info: PME GRID DIMENSIONS         48 48 40
Info: PME MAXIMUM GRID SPACING    1
Info: FULL ELECTROSTATIC EVALUATION FREQUENCY      2
Info: USING VERLET I (r-RESPA) MTS SCHEME.
Info: C1 SPLITTING OF LONG RANGE ELECTROSTATICS
Info: PLACING ATOMS IN PATCHES BY HYDROGEN GROUPS
Info: RIGID BONDS TO HYDROGEN : ALL
Info:         ERROR TOLERANCE : 1e-08
Info:          MAX ITERATIONS : 100
Info: RIGID WATER USING SETTLE ALGORITHM
Info: RANDOM NUMBER SEED     1741409008
Info: USE HYDROGEN BONDS?    NO
Info: Using AMBER format force field!
Info: AMBER PARM FILE        mobley_8827942.prmtop
Info: COORDINATE PDB         mobley_8827942.pdb
Info: Exclusions will be read from PARM file!
Info: SCNB (VDW SCALING)     2
Info: USING ARITHMETIC MEAN TO COMBINE L-J SIGMA PARAMETERS
Info: BINARY COORDINATES     mobley_8827942_min.coor
Info: SUMMARY OF PARAMETERS:
Info: 6 BONDS
Info: 5 ANGLES
Info:   5 HARMONIC
Info:   0 COSINE-BASED
Info: 3 DIHEDRAL
Info: 0 IMPROPER
Info: 0 CROSSTERM
Info: 0 VDW
Info: 21 VDW_PAIRS
Info: 0 NBTHOLE_PAIRS
Info: STRUCTURE SUMMARY:
Info: 5599 ATOMS
Info: 5601 BONDS
Info: 38 ANGLES
Info: 64 DIHEDRALS
Info: 0 IMPROPERS
Info: 0 CROSSTERMS
Info: 5686 EXCLUSIONS
Info: 5582 RIGID BONDS
Info: 11215 DEGREES OF FREEDOM
Info: 1876 HYDROGEN GROUPS
Info: 3 ATOMS IN LARGEST HYDROGEN GROUP
Info: 1876 MIGRATION GROUPS
Info: 3 ATOMS IN LARGEST MIGRATION GROUP
Info: TOTAL MASS = 33779.3 amu
Info: TOTAL CHARGE = 0.000100013 e
Info: MASS DENSITY = 0.717668 g/cm^3
Info: ATOM DENSITY = 0.0716349 atoms/A^3
Info: ADDED 0 IMPLICIT EXCLUSIONS
Info: NONBONDED TABLE R-SQUARED SPACING: 0.0625
Info: NONBONDED TABLE SIZE: 705 POINTS
Info: REMOVING COM VELOCITY 0.0359914 0.218372 -0.0428086
TCL: Running for 25000 steps
ETITLE: TS BOND ANGLE DIHED IMPRP ELECT VDW BOUNDARY MISC KINETIC TOTAL TEMP POTENTIAL TOTAL3 TEMPAVG PRESSURE GPRESSURE VOLUME PRESSAVG GPRESSAVG
ENERGY: 0 0.8395 0.3685 0.1068 0.0000 -25532.3503 4383.0813 0.0000 0.0000 3353.9837 -17793.9706 300.9900 -21147.9543 -17793.3083 300.9900 72.6837 104.4911 78160.2545 72.6837 104.4911
ENERGY: 5000 1.3225 1.1421 0.5572 0.0000 -26830.6457 4646.8899 0.0000 0.0000 335.8121 -21844.9219 30.1361 -22180.7340 -21843.9762 48.0603 52.2320 106.5869 54178.4565 1.0134 1.1001
ENERGY: 10000 0.7331 0.8285 0.6844 0.0000 -26932.8963 4721.9853 0.0000 0.0000 342.8476 -21865.8174 30.7675 -22208.6650 -21864.9345 30.1656 417.9630 481.8390 53864.8983 2.5278 2.5645
ENERGY: 15000 0.8794 1.0773 0.8046 0.0000 -27120.9674 4874.4815 0.0000 0.0000 342.7206 -21901.0039 30.7561 -22243.7245 -21900.0710 30.4138 1169.4916 1242.7256 53309.4018 1.2546 1.0154
ENERGY: 20000 0.9206 0.6059 0.7612 0.0000 -26884.4132 4628.5890 0.0000 0.0000 327.1774 -21926.3590 29.3612 -22253.5364 -21925.6384 30.0143 -28.8230 26.3905 53674.1440 2.0847 2.1252
ENERGY: 25000 1.1962 0.5870 0.4375 0.0000 -26936.0101 4652.2403 0.0000 0.0000 332.9180 -21948.6311 29.8764 -22281.5491 -21947.7170 30.1721 -10.0264 46.3937 53628.9868 1.4456 1.4592
TCL: Running 25000 steps at 60 kelvin.
TCL: Setting parameter langevinTemp to 60
TCL: Running for 25000 steps
ETITLE: TS BOND ANGLE DIHED IMPRP ELECT VDW BOUNDARY MISC KINETIC TOTAL TEMP POTENTIAL TOTAL3 TEMPAVG PRESSURE GPRESSURE VOLUME PRESSAVG GPRESSAVG
ENERGY: 25000 1.1962 0.5870 0.4375 0.0000 -26936.0101 4652.2403 0.0000 0.0000 332.7481 -21948.8010 29.8612 -22281.5491 -21948.1747 29.8612 -19.3716 46.5221 53628.9868 -19.3716 46.5221
ENERGY: 30000 2.6701 1.4701 1.7028 0.0000 -26425.5522 4433.2410 0.0000 0.0000 656.9449 -21329.5233 58.9549 -21986.4682 -21328.1199 57.1024 -475.0931 -408.1021 54076.6443 1.8885 2.2528
ENERGY: 35000 1.4696 0.5506 0.7486 0.0000 -26422.9138 4387.6563 0.0000 0.0000 675.0752 -21357.4135 60.5820 -22032.4887 -21356.4074 60.3311 -663.6972 -594.8550 53863.0057 1.3274 1.0256
ENERGY: 40000 1.7092 1.1332 1.4645 0.0000 -26716.2774 4636.1986 0.0000 0.0000 664.5534 -21411.2185 59.6377 -22075.7719 -21408.9892 60.1893 439.2762 506.2212 53311.1130 3.3966 3.7218
ENERGY: 45000 1.0629 1.0798 1.5566 0.0000 -26840.1818 4711.9498 0.0000 0.0000 674.5906 -21449.9421 60.5385 -22124.5327 -21447.8401 60.2802 712.1005 756.5247 53432.2435 7.7800 7.6382
ENERGY: 50000 0.8483 0.9921 0.8999 0.0000 -26637.0143 4507.0318 0.0000 0.0000 675.3893 -21451.8529 60.6101 -22127.2423 -21450.1547 60.0358 -343.3532 -267.0558 53818.1989 -0.1249 0.0543
TCL: Running 25000 steps at 90 kelvin.
TCL: Setting parameter langevinTemp to 90
TCL: Running for 25000 steps
ETITLE: TS BOND ANGLE DIHED IMPRP ELECT VDW BOUNDARY MISC KINETIC TOTAL TEMP POTENTIAL TOTAL3 TEMPAVG PRESSURE GPRESSURE VOLUME PRESSAVG GPRESSAVG
ENERGY: 50000 0.8483 0.9921 0.8999 0.0000 -26637.0143 4507.0318 0.0000 0.0000 675.0668 -21452.1755 60.5812 -22127.2423 -21450.7815 60.5812 -320.7137 -267.4160 53818.1989 -320.7137 -267.4160
ENERGY: 55000 2.9333 2.4717 1.3985 0.0000 -26065.1384 4275.4622 0.0000 0.0000 1013.1976 -20769.6752 90.9254 -21782.8728 -20766.4661 86.9873 -809.4937 -726.3102 54442.3322 6.0051 5.7294
ENERGY: 60000 3.0940 1.6635 2.4920 0.0000 -26401.9549 4566.8246 0.0000 0.0000 993.4843 -20834.3965 89.1563 -21827.8808 -20832.0523 90.3472 404.4467 461.0954 54114.5343 3.5215 3.8608
ENERGY: 65000 0.8893 2.7200 0.8159 0.0000 -26395.8597 4525.5021 0.0000 0.0000 1025.5773 -20840.3550 92.0364 -21865.9323 -20838.0188 90.1460 292.1603 327.8354 54051.5586 3.0859 3.1219
ENERGY: 70000 3.3144 1.7158 4.5361 0.0000 -26187.7172 4274.6914 0.0000 0.0000 991.5627 -20911.8968 88.9839 -21903.4595 -20909.6965 90.7837 -1120.3924 -1071.2281 54602.9643 6.5459 6.4825
ENERGY: 75000 2.5911 1.6387 2.7910 0.0000 -26438.9940 4507.1298 0.0000 0.0000 1007.9888 -20916.8546 90.4580 -21924.8434 -20913.9911 90.0885 31.0869 97.0592 54050.5123 4.8452 4.6656
TCL: Running 25000 steps at 120 kelvin.
TCL: Setting parameter langevinTemp to 120
TCL: Running for 25000 steps
ETITLE: TS BOND ANGLE DIHED IMPRP ELECT VDW BOUNDARY MISC KINETIC TOTAL TEMP POTENTIAL TOTAL3 TEMPAVG PRESSURE GPRESSURE VOLUME PRESSAVG GPRESSAVG
ENERGY: 75000 2.5911 1.6387 2.7910 0.0000 -26438.9940 4507.1298 0.0000 0.0000 1007.4887 -20917.3547 90.4131 -21924.8434 -20915.1539 90.4131 42.5497 97.3314 54050.5123 42.5497 97.3314
ENERGY: 80000 4.5965 3.0019 3.3323 0.0000 -25809.5420 4296.2982 0.0000 0.0000 1337.5783 -20164.7348 120.0357 -21502.3131 -20160.9863 117.2982 -153.7453 -127.2786 54683.4521 4.7960 5.2160
ENERGY: 85000 2.9912 3.9729 3.1140 0.0000 -25932.0481 4359.3235 0.0000 0.0000 1358.3872 -20204.2593 121.9031 -21562.6465 -20201.8129 119.7817 69.4318 138.9649 54466.4917 3.6002 3.8430
ENERGY: 90000 1.1730 2.3114 2.9035 0.0000 -25969.5499 4352.8107 0.0000 0.0000 1334.3136 -20276.0377 119.7427 -21610.3512 -20273.0742 120.1227 -116.1666 -82.5512 54682.1897 1.7205 1.2468
ENERGY: 95000 3.3530 1.6145 2.9031 0.0000 -25978.4144 4345.9783 0.0000 0.0000 1321.1350 -20303.4305 118.5600 -21624.5655 -20297.8930 119.6353 -199.6185 -130.1873 54680.6446 1.0061 0.5741
ENERGY: 100000 2.7998 1.4224 1.5157 0.0000 -26104.6205 4456.9881 0.0000 0.0000 1358.1038 -20283.7907 121.8777 -21641.8945 -20280.1849 119.9720 356.1512 389.1952 54468.0865 1.8176 2.0696
TCL: Running 25000 steps at 150 kelvin.
TCL: Setting parameter langevinTemp to 150
TCL: Running for 25000 steps
ETITLE: TS BOND ANGLE DIHED IMPRP ELECT VDW BOUNDARY MISC KINETIC TOTAL TEMP POTENTIAL TOTAL3 TEMPAVG PRESSURE GPRESSURE VOLUME PRESSAVG GPRESSAVG
ENERGY: 100000 2.7998 1.4224 1.5157 0.0000 -26104.6205 4456.9881 0.0000 0.0000 1357.4255 -20284.4691 121.8168 -21641.8945 -20281.8296 121.8168 339.3478 389.5527 54468.0865 339.3478 389.5527
ENERGY: 105000 3.6007 3.2377 1.6699 0.0000 -25375.5239 4125.5327 0.0000 0.0000 1671.7641 -19569.7187 150.0258 -21241.4828 -19565.0433 146.3017 -449.7752 -393.6459 55166.9454 2.3515 2.0448
ENERGY: 110000 3.0812 2.4666 2.6648 0.0000 -25306.0332 4060.6900 0.0000 0.0000 1648.4039 -19588.7267 147.9295 -21237.1306 -19582.9753 150.4048 -736.3339 -677.7928 55294.9289 5.2307 5.6873
ENERGY: 115000 2.1560 2.9750 3.6198 0.0000 -25419.8166 4189.5508 0.0000 0.0000 1654.3772 -19567.1377 148.4655 -21221.5149 -19563.4901 149.5845 -56.4125 12.8405 54792.7369 -0.7277 -0.5143
ENERGY: 120000 2.8209 3.5634 2.4526 0.0000 -25532.7224 4268.8353 0.0000 0.0000 1677.7898 -19577.2604 150.5666 -21255.0503 -19572.0914 150.2856 204.6121 272.3384 54719.1377 0.4663 0.5851
ENERGY: 125000 3.0567 2.5900 4.1723 0.0000 -25478.4483 4201.8197 0.0000 0.0000 1686.4527 -19580.3569 151.3440 -21266.8096 -19576.4163 150.8998 -47.3235 30.5594 54859.7137 0.7329 0.7125
TCL: Running 50000 steps at 180 kelvin.
TCL: Setting parameter langevinTemp to 180
TCL: Running for 50000 steps
ETITLE: TS BOND ANGLE DIHED IMPRP ELECT VDW BOUNDARY MISC KINETIC TOTAL TEMP POTENTIAL TOTAL3 TEMPAVG PRESSURE GPRESSURE VOLUME PRESSAVG GPRESSAVG
ENERGY: 125000 3.0567 2.5900 4.1723 0.0000 -25478.4483 4201.8197 0.0000 0.0000 1685.6408 -19581.1688 151.2712 -21266.8096 -19577.4363 151.2712 -32.1552 30.8108 54859.7137 -32.1552 30.8108
ENERGY: 135000 3.8731 1.4085 3.6184 0.0000 -24642.0176 3869.1543 0.0000 0.0000 1993.4415 -18770.5217 178.8935 -20763.9632 -18765.1541 181.3590 -649.8848 -572.9807 54954.7310 6.1285 5.7977
ENERGY: 145000 3.9000 3.1439 4.8972 0.0000 -24864.5289 4135.2177 0.0000 0.0000 2012.1440 -18705.2261 180.5719 -20717.3701 -18700.4620 180.2288 645.5852 689.3642 55013.2033 2.9040 2.5655
ENERGY: 155000 5.1338 3.0241 4.1731 0.0000 -24772.3375 3969.1144 0.0000 0.0000 1997.7712 -18793.1209 179.2821 -20790.8921 -18787.9524 181.3244 -204.9508 -141.5268 54970.5436 3.5417 3.2216
ENERGY: 165000 3.2322 1.8022 1.8227 0.0000 -24566.0418 3778.5882 0.0000 0.0000 1948.5543 -18832.0422 174.8653 -20780.5965 -18826.9329 180.7027 -1016.9869 -968.5637 55465.9027 4.0955 4.0135
ENERGY: 175000 2.6299 2.8849 3.4326 0.0000 -24974.8813 4096.1174 0.0000 0.0000 2014.1909 -18855.6257 180.7556 -20869.8166 -18852.3888 180.0227 131.2918 190.3934 55361.6959 5.3063 5.1513
TCL: Running 50000 steps at 210 kelvin.
TCL: Setting parameter langevinTemp to 210
TCL: Running for 50000 steps
ETITLE: TS BOND ANGLE DIHED IMPRP ELECT VDW BOUNDARY MISC KINETIC TOTAL TEMP POTENTIAL TOTAL3 TEMPAVG PRESSURE GPRESSURE VOLUME PRESSAVG GPRESSAVG
ENERGY: 175000 2.6299 2.8849 3.4326 0.0000 -24974.8813 4096.1174 0.0000 0.0000 2013.2082 -18856.6084 180.6674 -20869.8166 -18853.5145 180.6674 139.6239 189.5850 55361.6959 139.6239 189.5850
ENERGY: 185000 5.7769 2.6123 6.2236 0.0000 -23591.7038 3550.6918 0.0000 0.0000 2334.5435 -17691.8557 209.5044 -20026.3992 -17686.3786 210.8576 -280.9204 -193.7038 54539.9725 1.8001 1.8142
ENERGY: 195000 4.3625 3.4303 3.3613 0.0000 -23473.0175 3497.9645 0.0000 0.0000 2318.2105 -17645.6883 208.0386 -19963.8988 -17640.3284 209.3899 -532.3029 -458.8395 54797.1776 5.6105 5.5168
ENERGY: 205000 10.1823 3.8541 4.1286 0.0000 -23495.9155 3473.8957 0.0000 0.0000 2363.2198 -17640.6350 212.0778 -20003.8548 -17636.0276 209.5923 -647.5029 -597.2690 54885.0934 0.2414 -0.0604
ENERGY: 215000 4.3515 3.7291 3.8556 0.0000 -23520.4231 3521.5750 0.0000 0.0000 2324.0169 -17662.8949 208.5597 -19986.9118 -17660.2877 210.3477 -488.8121 -334.2650 54721.6850 0.3582 0.3956
ENERGY: 225000 5.1541 2.8485 3.8604 0.0000 -23662.7049 3645.4398 0.0000 0.0000 2303.4043 -17701.9978 206.7099 -20005.4021 -17695.7201 209.6944 77.6003 158.8323 54526.0273 2.8315 2.6303
TCL: Running 50000 steps at 240 kelvin.
TCL: Setting parameter langevinTemp to 240
TCL: Running for 50000 steps
ETITLE: TS BOND ANGLE DIHED IMPRP ELECT VDW BOUNDARY MISC KINETIC TOTAL TEMP POTENTIAL TOTAL3 TEMPAVG PRESSURE GPRESSURE VOLUME PRESSAVG GPRESSAVG
ENERGY: 225000 5.1541 2.8485 3.8604 0.0000 -23662.7049 3645.4398 0.0000 0.0000 2302.2115 -17703.1906 206.6029 -20005.4021 -17699.1953 206.6029 81.1501 159.3421 54526.0273 81.1501 159.3421
ENERGY: 235000 4.6575 7.0130 3.0190 0.0000 -22347.2537 3210.6084 0.0000 0.0000 2629.6875 -16492.2683 235.9909 -19121.9559 -16486.4701 239.0513 -194.6422 -121.3882 54961.8785 4.5319 4.6351
ENERGY: 245000 3.7271 5.9713 5.0633 0.0000 -22314.2333 3252.4907 0.0000 0.0000 2659.1564 -16387.8245 238.6355 -19046.9809 -16380.8666 239.4262 147.4191 236.7081 54975.1049 3.2727 3.1927
ENERGY: 255000 5.1686 4.2567 5.1255 0.0000 -22342.7874 3190.7044 0.0000 0.0000 2694.4861 -16443.0461 241.8060 -19137.5322 -16438.5242 240.6197 -254.0771 -146.1710 54913.4108 5.5916 5.7489
ENERGY: 265000 2.4424 3.1552 6.6797 0.0000 -22545.8930 3369.2556 0.0000 0.0000 2643.7419 -16520.6183 237.2521 -19164.3601 -16513.9283 239.6056 336.3354 456.8105 55029.7566 4.2901 3.4518
ENERGY: 275000 5.6659 4.5076 5.7350 0.0000 -22436.2661 3245.0763 0.0000 0.0000 2678.6002 -16496.6810 240.3804 -19175.2812 -16489.3654 238.5342 -168.3365 -57.8229 54886.1721 3.6157 3.4584
TCL: Running 50000 steps at 270 kelvin.
TCL: Setting parameter langevinTemp to 270
TCL: Running for 50000 steps
ETITLE: TS BOND ANGLE DIHED IMPRP ELECT VDW BOUNDARY MISC KINETIC TOTAL TEMP POTENTIAL TOTAL3 TEMPAVG PRESSURE GPRESSURE VOLUME PRESSAVG GPRESSAVG
ENERGY: 275000 5.6659 4.5076 5.7350 0.0000 -22436.2661 3245.0763 0.0000 0.0000 2677.2962 -16497.9850 240.2634 -19175.2812 -16494.0133 240.2634 -151.2924 -57.5420 54886.1721 -151.2924 -57.5420
ENERGY: 285000 6.7763 5.2213 3.4763 0.0000 -21145.9667 2848.1181 0.0000 0.0000 3012.3467 -15270.0281 270.3311 -18282.3747 -15265.6561 269.0330 -496.9050 -382.5670 56126.2423 -1.2554 -0.8028
ENERGY: 295000 5.5528 6.6046 4.9651 0.0000 -21217.7016 2930.0517 0.0000 0.0000 3013.1379 -15257.3894 270.4021 -18270.5273 -15248.9942 271.6515 -234.7099 -190.7447 56638.0651 -2.8897 -2.3045
ENERGY: 305000 5.2187 7.7852 8.5910 0.0000 -21127.0981 2832.1507 0.0000 0.0000 3013.4034 -15259.9491 270.4260 -18273.3526 -15255.6938 271.0732 -713.4915 -630.7876 56970.3595 -0.0018 -0.3084
ENERGY: 315000 3.1781 6.3742 7.0880 0.0000 -21354.4192 3004.3301 0.0000 0.0000 3021.1490 -15312.2999 271.1211 -18333.4488 -15306.8145 269.3922 361.4279 418.3043 55754.3426 -1.5994 -2.3092
ENERGY: 325000 4.7868 5.3151 5.7837 0.0000 -21209.3733 2906.2789 0.0000 0.0000 2909.9748 -15377.2339 261.1442 -18287.2087 -15371.7638 270.3349 -338.2134 -224.9988 56095.7498 2.7469 3.0643
TCL: Running 1000000 steps at 300 kelvin.
TCL: Setting parameter langevinTemp to 300
TCL: Running for 1000000 steps
ETITLE: TS BOND ANGLE DIHED IMPRP ELECT VDW BOUNDARY MISC KINETIC TOTAL TEMP POTENTIAL TOTAL3 TEMPAVG PRESSURE GPRESSURE VOLUME PRESSAVG GPRESSAVG
ENERGY: 325000 4.7868 5.3151 5.7837 0.0000 -21209.3733 2906.2789 0.0000 0.0000 2908.4876 -15378.7211 261.0107 -18287.2087 -15373.3654 261.0107 -308.5758 -224.8990 56095.7498 -308.5758 -224.8990
ENERGY: 525000 5.8399 3.5812 3.3780 0.0000 -20216.9698 2727.3135 0.0000 0.0000 3402.1578 -14074.6995 305.3132 -17476.8573 -14068.7558 302.0475 170.8655 224.9164 57327.4156 -0.1425 -0.5554
ENERGY: 725000 7.2246 11.2225 3.9393 0.0000 -20469.8819 2825.1621 0.0000 0.0000 3215.2518 -14407.0816 288.5400 -17622.3334 -14398.5213 298.9181 322.6261 425.2268 57175.9443 2.0944 1.8084
ENERGY: 925000 4.8515 5.9953 2.7403 0.0000 -20359.5216 2769.7368 0.0000 0.0000 3340.7527 -14235.4451 299.8026 -17576.1977 -14228.2298 298.9060 179.9011 271.5520 57566.6667 4.9162 4.5082
ENERGY: 1125000 7.8926 4.4694 6.2961 0.0000 -20284.2007 2641.0767 0.0000 0.0000 3287.0179 -14337.4479 294.9804 -17624.4658 -14331.3003 297.2191 -567.8988 -508.8586 57379.9871 3.7462 3.8895
ENERGY: 1325000 6.7023 8.0327 6.0082 0.0000 -20453.5322 2755.8447 0.0000 0.0000 3299.1439 -14377.8004 296.0686 -17676.9443 -14372.7570 297.6589 54.6841 142.4634 57301.5167 5.6068 5.2419
TCL: Exiting due to exit command.
