Info: SIMULATION PARAMETERS:
Info: TIMESTEP               2
Info: NUMBER OF STEPS        0
Info: STEPS PER CYCLE        10
Info: PERIODIC CELL BASIS 1  30.1084 0 0
Info: PERIODIC CELL BASIS 2  0 33.2674 0
Info: PERIODIC CELL BASIS 3  0 0 30.5248
Info: PERIODIC CELL CENTER   0 0 0
Info: WRAPPING WATERS AROUND PERIODIC BOUNDARIES ON OUTPUT.
Info: WRAPPING ALL CLUSTERS AROUND PERIODIC BOUNDARIES ON OUTPUT.
Info: FIRST LDB TIMESTEP     50
Info: LAST LDB TIMESTEP     -1
Info: HOM BACKGROUND SCALING 1
Info: PME BACKGROUND SCALING 1
Info: MIN ATOMS PER PATCH    40
Info: EMPTY PATCH LOAD       40 ATOMS
Info: VELOCITY FILE          mobley_9121449_equil.vel
Info: CENTER OF MASS MOVING INITIALLY? NO
Info: DIELECTRIC             1
Info: EXCLUDE                SCALED ONE-FOUR
Info: 1-4 ELECTROSTATICS SCALED BY 0.833333
Info: MODIFIED 1-4 VDW PARAMETERS WILL BE USED
Info: DCD FILENAME           mobley_9121449_prod.dcd
Info: DCD FREQUENCY          100000
Info: DCD FIRST STEP         100000
Info: DCD FILE WILL CONTAIN UNIT CELL DATA
Info: XST FILENAME           mobley_9121449_prod.xst
Info: XST FREQUENCY          100000
Info: NO VELOCITY DCD OUTPUT
Info: NO FORCE DCD OUTPUT
Info: OUTPUT FILENAME        mobley_9121449_prod
Info: BINARY OUTPUT FILES WILL BE USED
Info: RESTART FILENAME       mobley_9121449_prod.restart
Info: RESTART FREQUENCY      100000
Info: BINARY RESTART FILES WILL BE USED
Info: CUTOFF                 9
Info: PAIRLIST DISTANCE      11
Info: PAIRLIST SHRINK RATE   0.01
Info: PAIRLIST GROW RATE     0.01
Info: PAIRLIST TRIGGER       0.3
Info: PAIRLISTS PER CYCLE    2
Info: PAIRLISTS ENABLED
Info: MARGIN                 2
Info: HYDROGEN GROUP CUTOFF  2.5
Info: PATCH DIMENSION        15.5
Info: ENERGY OUTPUT STEPS    100000
Info: ENERGY EVALUATION STEPS    100000
Info: OUTPUT ENERGY PRECISION 4
Info: CROSSTERM ENERGY INCLUDED IN DIHEDRAL
Info: TIMING OUTPUT STEPS    1000000
Info: PRESSURE OUTPUT STEPS  100000
Info: ALCHEMICAL FEP ON
Info: FEP CURRENT LAMBDA VALUE     0
Info: FEP COMPARISON LAMBDA VALUE  0.05
Info: FEP INTRA-ALCHEMICAL NON-BONDED INTERACTIONS WILL BE RETAINED
Info: FEP INTRA-ALCHEMICAL BONDED INTERACTIONS WILL BE RETAINED
Info: FEP VDW SHIFTING COEFFICIENT 5
Info: FEP ELEC. ACTIVE FOR ANNIHILATED PARTICLES BETWEEN LAMBDA = 0 AND LAMBDA = 0.5
Info: FEP ELEC. ACTIVE FOR EXNIHILATED PARTICLES BETWEEN LAMBDA = 0.5 AND LAMBDA = 1
Info: FEP VDW ACTIVE FOR ANNIHILATED PARTICLES BETWEEN LAMBDA = 0 AND LAMBDA = 1
Info: FEP VDW ACTIVE FOR EXNIHILATED PARTICLES BETWEEN LAMBDA = 0 AND LAMBDA = 1
Info: FEP BOND ACTIVE FOR ANNIHILATED PARTICLES BETWEEN LAMBDA = 1 AND LAMBDA = 1
Info: FEP BOND ACTIVE FOR EXNIHILATED PARTICLES BETWEEN LAMBDA = 0 AND LAMBDA = 0
Info: LANGEVIN DYNAMICS ACTIVE
Info: LANGEVIN TEMPERATURE   300
Info: LANGEVIN USING BBK INTEGRATOR
Info: LANGEVIN DAMPING COEFFICIENT IS 1 INVERSE PS
Info: LANGEVIN DYNAMICS APPLIED TO HYDROGENS
Info: LANGEVIN PISTON PRESSURE CONTROL ACTIVE
Info:        TARGET PRESSURE IS 1.01325 BAR
Info:     OSCILLATION PERIOD IS 50 FS
Info:             DECAY TIME IS 25 FS
Info:     PISTON TEMPERATURE IS 300 K
Info:       PRESSURE CONTROL IS GROUP-BASED
Info:    INITIAL STRAIN RATE IS 0.00029411 0.00029411 0.00029411
Info:       CELL FLUCTUATION IS ISOTROPIC
Info: PARTICLE MESH EWALD (PME) ACTIVE
Info: PME TOLERANCE               1e-06
Info: PME EWALD COEFFICIENT       0.348832
Info: PME INTERPOLATION ORDER     4
Info: PME GRID DIMENSIONS         32 36 32
Info: PME MAXIMUM GRID SPACING    1
Info: PME CALCULATION WILL BE PERFORMED ON GPU
Info: FULL ELECTROSTATIC EVALUATION FREQUENCY      2
Info: USING VERLET I (r-RESPA) MTS SCHEME.
Info: C1 SPLITTING OF LONG RANGE ELECTROSTATICS
Info: PLACING ATOMS IN PATCHES BY HYDROGEN GROUPS
Info: RIGID BONDS TO HYDROGEN : ALL
Info:         ERROR TOLERANCE : 1e-08
Info:          MAX ITERATIONS : 100
Info: RIGID WATER USING SETTLE ALGORITHM
Info: RANDOM NUMBER SEED     1742516273
Info: USE HYDROGEN BONDS?    NO
Info: Using AMBER format force field!
Info: AMBER PARM FILE        mobley_9121449.prmtop
Info: COORDINATE PDB         mobley_9121449.pdb
Info: Exclusions will be read from PARM file!
Info: SCNB (VDW SCALING)     2
Info: USING ARITHMETIC MEAN TO COMBINE L-J SIGMA PARAMETERS
Info: BINARY COORDINATES     mobley_9121449_equil.coor
Info: SUMMARY OF PARAMETERS:
Info: 7 BONDS
Info: 6 ANGLES
Info:   6 HARMONIC
Info:   0 COSINE-BASED
Info: 3 DIHEDRAL
Info: 0 IMPROPER
Info: 0 CROSSTERM
Info: 0 VDW
Info: 21 VDW_PAIRS
Info: 0 NBTHOLE_PAIRS
Info: To read alchdata from file: mobley_9121449.pdb
Info: To read alchflag data from column: 5
Info: STRUCTURE SUMMARY:
Info: 2944 ATOMS
Info: 2943 BONDS
Info: 14 ANGLES
Info: 13 DIHEDRALS
Info: 0 IMPROPERS
Info: 0 CROSSTERMS
Info: 2970 EXCLUSIONS
Info: 2940 RIGID BONDS
Info: ALCH: 0 ATOMS TO DISAPPEAR IN FINAL STATE
Info: ALCH: 10 ATOMS TO APPEAR IN FINAL STATE
Info: 5892 DEGREES OF FREEDOM
Info: 982 HYDROGEN GROUPS
Info: 4 ATOMS IN LARGEST HYDROGEN GROUP
Info: 982 MIGRATION GROUPS
Info: 4 ATOMS IN LARGEST MIGRATION GROUP
Info: TOTAL MASS = 17673.7 amu
Info: TOTAL CHARGE = 1.16415e-08 e
Info: MASS DENSITY = 0.959904 g/cm^3
Info: ATOM DENSITY = 0.0962893 atoms/A^3
Info: ADDED 0 IMPLICIT EXCLUSIONS
Info: NONBONDED TABLE R-SQUARED SPACING: 0.0625
Info: NONBONDED TABLE SIZE: 705 POINTS
Info: REMOVING COM VELOCITY 0.0250559 -0.107286 0.075049
Info: Use 3D box decompostion in PME FFT.
Info: Updated CUDA force table with 4096 elements.
Info: Updated CUDA LJ table with 6 x 6 elements.
Info: Found 13 unique exclusion lists needing 20 bytes
TCL: Running for 1500000 steps
ETITLE: TS BOND ANGLE DIHED IMPRP ELECT VDW BOUNDARY MISC KINETIC TOTAL TEMP POTENTIAL TOTALAVG TEMPAVG PRESSURE GPRESSURE VOLUME PRESSAVG GPRESSAVG
ENERGY: 0 1.0946 4.0721 0.3899 0.0000 -10687.4695 1488.2974 0.0000 0.0000 1677.8432 -7515.7722 286.6019 -9193.6155 -7515.7722 286.6019 327.8336 409.6122 30574.5220 327.8336 409.6122
ENERGY: 300000 0.3819 3.7838 0.0633 0.0000 -10674.3355 1442.4671 0.0000 0.0000 1820.3094 -7407.3299 310.9373 -9227.6394 -7444.2767 301.9429 -40.7172 59.0921 30239.3022 -131.7921 -40.2357
ENERGY: 600000 0.6097 6.0222 0.1029 0.0000 -10727.9732 1481.6173 0.0000 0.0000 1747.4206 -7492.2004 298.4868 -9239.6210 -7443.4744 301.6054 129.5561 229.6615 30397.5994 -8.8860 84.3657
ENERGY: 900000 0.7258 1.0887 0.0123 0.0000 -10823.3185 1489.1576 0.0000 0.0000 1707.6770 -7624.6572 291.6980 -9332.3342 -7458.3182 300.4042 68.6835 180.0657 30005.8628 -29.4439 58.2418
ENERGY: 1200000 1.0933 6.0713 0.5710 0.0000 -10607.7941 1385.0544 0.0000 0.0000 1773.7059 -7441.2982 302.9767 -9215.0041 -7459.4201 300.7095 -262.2571 -189.3049 30252.5257 -15.4296 63.7101
ENERGY: 1500000 0.1348 3.4446 0.0108 0.0000 -10689.2947 1415.5662 0.0000 0.0000 1794.6626 -7475.4759 306.5564 -9270.1384 -7470.0532 300.4834 -193.7685 -112.7140 30068.0062 -10.7434 63.2370
TCL: Running FEP window   2: Lambda1 0.05   Lambda2 0.1    [dLambda 0.05  ]
TCL: Setting parameter firsttimestep to 0
TCL: Setting parameter alchLambda to 0.05
Info: NONBONDED TABLE R-SQUARED SPACING: 0.0625
Info: NONBONDED TABLE SIZE: 705 POINTS
TCL: Setting parameter alchLambda2 to 0.1
Info: NONBONDED TABLE R-SQUARED SPACING: 0.0625
Info: NONBONDED TABLE SIZE: 705 POINTS
TCL: Running for 1500000 steps
ETITLE: TS BOND ANGLE DIHED IMPRP ELECT VDW BOUNDARY MISC KINETIC TOTAL TEMP POTENTIAL TOTALAVG TEMPAVG PRESSURE GPRESSURE VOLUME PRESSAVG GPRESSAVG
ENERGY: 0 0.1348 3.4446 0.0108 0.0000 -10689.2936 1417.2782 0.0000 0.0000 1793.8143 -7474.6109 306.4116 -9268.4252 -7474.6109 306.4116 -185.8069 -107.9289 30068.0062 -185.8069 -107.9289
ENERGY: 300000 1.0815 4.8462 0.2700 0.0000 -10722.4415 1469.0109 0.0000 0.0000 1763.6695 -7483.5634 301.2624 -9247.2329 -7482.9373 303.7979 181.3419 248.6595 30270.1872 38.3651 100.6814
ENERGY: 600000 0.3926 3.6030 0.0478 0.0000 -10699.0957 1422.8535 0.0000 0.0000 1747.4744 -7524.7244 298.4960 -9272.1988 -7473.3312 304.5936 -479.0276 -407.2884 30521.6168 -249.3412 -190.7697
ENERGY: 900000 2.5627 3.5345 0.9479 0.0000 -10666.3397 1470.9631 0.0000 0.0000 1736.6755 -7451.6560 296.6513 -9188.3315 -7469.1195 303.0919 454.2361 471.5055 30188.6082 -53.0096 -3.6775
ENERGY: 1200000 1.4447 5.2317 0.0870 0.0000 -10654.8973 1410.5292 0.0000 0.0000 1731.9617 -7505.6430 295.8462 -9237.6047 -7482.6007 301.2724 -344.5767 -260.0580 30217.7089 -88.1553 -31.2771
ENERGY: 1500000 1.5073 4.5968 0.1196 0.0000 -10830.4294 1523.1485 0.0000 0.0000 1776.4392 -7524.6179 303.4436 -9301.0571 -7487.7569 300.7302 539.1769 577.6135 29962.2937 -38.0800 18.9616
TCL: Running FEP window   3: Lambda1 0.1    Lambda2 0.15000000000000002 [dLambda 0.05000000000000002]
TCL: Setting parameter firsttimestep to 0
TCL: Setting parameter alchLambda to 0.1
Info: NONBONDED TABLE R-SQUARED SPACING: 0.0625
Info: NONBONDED TABLE SIZE: 705 POINTS
TCL: Setting parameter alchLambda2 to 0.15000000000000002
Info: NONBONDED TABLE R-SQUARED SPACING: 0.0625
Info: NONBONDED TABLE SIZE: 705 POINTS
TCL: Running for 1500000 steps
ETITLE: TS BOND ANGLE DIHED IMPRP ELECT VDW BOUNDARY MISC KINETIC TOTAL TEMP POTENTIAL TOTALAVG TEMPAVG PRESSURE GPRESSURE VOLUME PRESSAVG GPRESSAVG
ENERGY: 0 1.5073 4.5968 0.1196 0.0000 -10830.4301 1526.1548 0.0000 0.0000 1775.5714 -7522.4801 303.2954 -9298.0516 -7522.4801 303.2954 506.2283 586.6170 29962.2937 506.2283 586.6170
ENERGY: 300000 0.3637 2.1025 0.5104 0.0000 -10533.5792 1356.1410 0.0000 0.0000 1764.3066 -7410.1550 301.3712 -9174.4615 -7471.8970 302.4989 -549.7996 -436.6902 30265.7178 -540.9208 -464.6856
ENERGY: 600000 2.9871 3.3227 0.5297 0.0000 -10575.6496 1419.6876 0.0000 0.0000 1756.4634 -7392.6591 300.0314 -9149.1224 -7455.4505 302.2695 -273.3318 -250.2597 30968.0651 -377.5376 -305.7800
ENERGY: 900000 1.5269 6.7035 0.3709 0.0000 -10689.9038 1446.7412 0.0000 0.0000 1696.5709 -7537.9904 289.8009 -9234.5614 -7464.0793 301.3349 20.2635 50.0773 30022.6823 -304.4202 -228.3154
ENERGY: 1200000 0.2027 4.0291 0.2504 0.0000 -10787.5739 1479.3224 0.0000 0.0000 1778.5315 -7525.2379 303.8010 -9303.7694 -7469.8545 301.5043 415.0784 432.4478 29855.6751 -177.5723 -111.4336
ENERGY: 1500000 0.7847 3.1065 0.5482 0.0000 -10825.5015 1522.8577 0.0000 0.0000 1762.8929 -7535.3115 301.1297 -9298.2044 -7483.2673 300.4233 281.3603 356.9900 30503.9473 -121.0005 -56.9885
TCL: Running FEP window   4: Lambda1 0.15000000000000002 Lambda2 0.2    [dLambda 0.04999999999999999]
TCL: Setting parameter firsttimestep to 0
TCL: Setting parameter alchLambda to 0.15000000000000002
Info: NONBONDED TABLE R-SQUARED SPACING: 0.0625
Info: NONBONDED TABLE SIZE: 705 POINTS
TCL: Setting parameter alchLambda2 to 0.2
Info: NONBONDED TABLE R-SQUARED SPACING: 0.0625
Info: NONBONDED TABLE SIZE: 705 POINTS
TCL: Running for 1500000 steps
ETITLE: TS BOND ANGLE DIHED IMPRP ELECT VDW BOUNDARY MISC KINETIC TOTAL TEMP POTENTIAL TOTALAVG TEMPAVG PRESSURE GPRESSURE VOLUME PRESSAVG GPRESSAVG
ENERGY: 0 0.7847 3.1065 0.5482 0.0000 -10825.5021 1524.3454 0.0000 0.0000 1762.0278 -7534.6895 300.9819 -9296.7173 -7534.6895 300.9819 287.9641 361.4217 30503.9473 287.9641 361.4217
ENERGY: 300000 1.9264 2.2563 0.0465 0.0000 -10579.5665 1409.4530 0.0000 0.0000 1797.3031 -7368.5813 307.0075 -9165.8844 -7472.0220 301.6786 -88.0251 36.7352 30076.6124 -244.8131 -164.4588
ENERGY: 600000 1.4942 4.4344 0.0788 0.0000 -10533.1641 1384.0612 0.0000 0.0000 1741.9918 -7401.1037 297.5595 -9143.0955 -7453.1800 300.8559 -446.4512 -424.3738 30943.2521 -122.6930 -59.6669
ENERGY: 900000 1.8222 4.3809 0.3334 0.0000 -10628.3299 1377.4995 0.0000 0.0000 1691.2895 -7553.0044 288.8987 -9244.2939 -7474.3735 299.5948 -611.4182 -530.3507 30319.1605 -241.7183 -164.4469
ENERGY: 1200000 1.8155 6.8706 0.2221 0.0000 -10875.1952 1510.1819 0.0000 0.0000 1769.3166 -7586.7884 302.2270 -9356.1050 -7493.3274 299.3659 162.2567 247.6302 30145.2947 -165.7332 -90.0310
ENERGY: 1500000 1.1805 6.2431 0.1490 0.0000 -10678.0820 1460.5023 0.0000 0.0000 1765.0698 -7444.9372 301.5015 -9210.0071 -7487.5323 300.1437 299.7817 372.6607 30085.5306 -154.3789 -78.7888
TCL: Running FEP window   5: Lambda1 0.2    Lambda2 0.25   [dLambda 0.04999999999999999]
TCL: Setting parameter firsttimestep to 0
TCL: Setting parameter alchLambda to 0.2
Info: NONBONDED TABLE R-SQUARED SPACING: 0.0625
Info: NONBONDED TABLE SIZE: 705 POINTS
TCL: Setting parameter alchLambda2 to 0.25
Info: NONBONDED TABLE R-SQUARED SPACING: 0.0625
Info: NONBONDED TABLE SIZE: 705 POINTS
TCL: Running for 1500000 steps
ETITLE: TS BOND ANGLE DIHED IMPRP ELECT VDW BOUNDARY MISC KINETIC TOTAL TEMP POTENTIAL TOTALAVG TEMPAVG PRESSURE GPRESSURE VOLUME PRESSAVG GPRESSAVG
ENERGY: 0 1.1805 6.2431 0.1490 0.0000 -10678.0820 1460.6095 0.0000 0.0000 1764.2044 -7445.6954 301.3537 -9209.8998 -7445.6954 301.3537 285.6111 375.3222 30085.5306 285.6111 375.3222
ENERGY: 300000 0.0418 2.5714 0.2452 0.0000 -10648.0681 1411.1386 0.0000 0.0000 1780.9175 -7453.1537 304.2086 -9234.0712 -7439.2993 302.0817 -304.5896 -207.0096 30261.0328 140.7057 209.7488
ENERGY: 600000 0.6009 1.8303 1.3955 0.0000 -10792.3457 1512.5674 0.0000 0.0000 1829.2206 -7446.7310 312.4595 -9275.9516 -7457.1589 301.4225 435.6072 503.6083 30265.0641 107.3425 173.3401
ENERGY: 900000 0.5259 2.4591 0.4226 0.0000 -10582.4644 1367.9586 0.0000 0.0000 1718.8030 -7492.2953 293.5984 -9211.0982 -7463.0301 300.3603 -346.4858 -298.8590 30072.2307 -91.7656 -33.1499
ENERGY: 1200000 0.8251 3.5036 0.4657 0.0000 -10707.5351 1412.8494 0.0000 0.0000 1791.9555 -7497.9359 306.0940 -9289.8913 -7459.3494 301.2546 -95.5117 -153.5766 30003.7891 -3.0413 35.2397
ENERGY: 1500000 0.9396 3.9455 0.0400 0.0000 -10740.2215 1478.7819 0.0000 0.0000 1721.7827 -7534.7318 294.1074 -9256.5145 -7473.3662 300.1308 233.4499 357.9874 30125.5644 -73.4261 -25.1969
TCL: Running FEP window   6: Lambda1 0.25   Lambda2 0.3    [dLambda 0.04999999999999999]
TCL: Setting parameter firsttimestep to 0
TCL: Setting parameter alchLambda to 0.25
Info: NONBONDED TABLE R-SQUARED SPACING: 0.0625
Info: NONBONDED TABLE SIZE: 705 POINTS
TCL: Setting parameter alchLambda2 to 0.3
Info: NONBONDED TABLE R-SQUARED SPACING: 0.0625
Info: NONBONDED TABLE SIZE: 705 POINTS
TCL: Running for 1500000 steps
ETITLE: TS BOND ANGLE DIHED IMPRP ELECT VDW BOUNDARY MISC KINETIC TOTAL TEMP POTENTIAL TOTALAVG TEMPAVG PRESSURE GPRESSURE VOLUME PRESSAVG GPRESSAVG
ENERGY: 0 0.9396 3.9455 0.0400 0.0000 -10740.2223 1479.6867 0.0000 0.0000 1720.8918 -7534.7188 293.9552 -9255.6105 -7534.7188 293.9552 286.3588 368.5342 30125.5644 286.3588 368.5342
ENERGY: 300000 2.1538 3.7709 0.0412 0.0000 -10663.9856 1408.9405 0.0000 0.0000 1798.4204 -7450.6589 307.1983 -9249.0793 -7486.0161 301.3042 -220.4705 -193.6996 30229.4028 -156.8991 -98.7841
ENERGY: 600000 0.8057 1.7582 0.0366 0.0000 -10675.1033 1445.3413 0.0000 0.0000 1748.9104 -7478.2511 298.7413 -9227.1615 -7461.3047 301.3455 193.8435 175.9847 30236.8938 99.8848 131.2869
ENERGY: 900000 1.6093 2.4180 0.1103 0.0000 -10665.7627 1444.7208 0.0000 0.0000 1756.3343 -7460.5701 300.0094 -9216.9044 -7463.0798 299.7169 179.8693 234.8854 30350.6046 205.4870 245.0971
ENERGY: 1200000 0.6949 2.1259 0.8348 0.0000 -10722.7037 1467.6943 0.0000 0.0000 1737.1450 -7514.2088 296.7315 -9251.3538 -7470.4078 299.0406 207.6582 252.7214 30116.6123 282.2118 326.7477
ENERGY: 1500000 1.7314 3.3810 0.1048 0.0000 -10589.7407 1410.2353 0.0000 0.0000 1795.8737 -7378.4145 306.7633 -9174.2882 -7463.5702 299.6169 213.2987 255.3500 30250.1286 291.4953 339.7326
TCL: Running FEP window   7: Lambda1 0.3    Lambda2 0.35   [dLambda 0.04999999999999999]
TCL: Setting parameter firsttimestep to 0
TCL: Setting parameter alchLambda to 0.3
Info: NONBONDED TABLE R-SQUARED SPACING: 0.0625
Info: NONBONDED TABLE SIZE: 705 POINTS
TCL: Setting parameter alchLambda2 to 0.35
Info: NONBONDED TABLE R-SQUARED SPACING: 0.0625
Info: NONBONDED TABLE SIZE: 705 POINTS
TCL: Running for 1500000 steps
ETITLE: TS BOND ANGLE DIHED IMPRP ELECT VDW BOUNDARY MISC KINETIC TOTAL TEMP POTENTIAL TOTALAVG TEMPAVG PRESSURE GPRESSURE VOLUME PRESSAVG GPRESSAVG
ENERGY: 0 1.7314 3.3810 0.1048 0.0000 -10589.7403 1410.5338 0.0000 0.0000 1794.9761 -7379.0133 306.6100 -9173.9894 -7379.0133 306.6100 173.0105 260.5234 30250.1286 173.0105 260.5234
ENERGY: 300000 0.4437 3.0187 0.9015 0.0000 -10627.4886 1436.6561 0.0000 0.0000 1775.3492 -7411.1193 303.2574 -9186.4685 -7445.0051 300.4198 441.0457 459.4628 29983.3217 -176.4852 -131.1578
ENERGY: 600000 0.8608 1.8367 0.0618 0.0000 -10798.5737 1499.2973 0.0000 0.0000 1743.1774 -7553.3398 297.7620 -9296.5172 -7472.7771 298.9239 212.4553 246.3899 30406.5797 -162.2994 -113.2029
ENERGY: 900000 0.8927 2.6022 0.0644 0.0000 -10660.8195 1479.9515 0.0000 0.0000 1751.9046 -7425.4041 299.2527 -9177.3086 -7461.6261 299.3639 540.1672 608.4293 30199.6722 24.3046 78.8401
ENERGY: 1200000 0.4856 6.0292 0.2878 0.0000 -10616.7477 1398.4074 0.0000 0.0000 1713.4070 -7498.1308 292.6767 -9211.5377 -7470.3370 299.3570 -271.8375 -229.5520 30313.9186 40.5832 92.8849
ENERGY: 1500000 0.5144 6.2399 0.0713 0.0000 -10653.3578 1485.6707 0.0000 0.0000 1761.4461 -7399.4156 300.8825 -9160.8617 -7469.1983 298.7447 517.5292 585.7697 30350.0141 46.4220 98.3522
TCL: Running FEP window   8: Lambda1 0.35   Lambda2 0.39999999999999997 [dLambda 0.04999999999999999]
TCL: Setting parameter firsttimestep to 0
TCL: Setting parameter alchLambda to 0.35
Info: NONBONDED TABLE R-SQUARED SPACING: 0.0625
Info: NONBONDED TABLE SIZE: 705 POINTS
TCL: Setting parameter alchLambda2 to 0.39999999999999997
Info: NONBONDED TABLE R-SQUARED SPACING: 0.0625
Info: NONBONDED TABLE SIZE: 705 POINTS
TCL: Running for 1500000 steps
ETITLE: TS BOND ANGLE DIHED IMPRP ELECT VDW BOUNDARY MISC KINETIC TOTAL TEMP POTENTIAL TOTALAVG TEMPAVG PRESSURE GPRESSURE VOLUME PRESSAVG GPRESSAVG
ENERGY: 0 0.5144 6.2399 0.0713 0.0000 -10653.3577 1485.8862 0.0000 0.0000 1760.5771 -7400.0689 300.7341 -9160.6460 -7400.0689 300.7341 512.4264 594.0500 30350.0141 512.4264 594.0500
ENERGY: 300000 1.3705 3.9913 0.1527 0.0000 -10719.3223 1429.5534 0.0000 0.0000 1702.5373 -7581.7170 290.8200 -9284.2543 -7489.5248 297.1519 -54.2299 -33.7724 29950.8381 178.4995 248.7659
ENERGY: 600000 0.0918 3.6844 0.1491 0.0000 -10709.6275 1435.6975 0.0000 0.0000 1692.5376 -7577.4672 289.1119 -9270.0048 -7485.0823 297.4994 -387.8545 -317.1960 30455.3533 -37.7865 19.1964
ENERGY: 900000 0.2951 5.9799 0.9667 0.0000 -10730.8098 1487.1326 0.0000 0.0000 1726.4915 -7509.9440 294.9118 -9236.4356 -7474.1004 298.8129 346.6383 375.1037 30321.8289 -34.4215 24.5663
ENERGY: 1200000 1.3615 4.1696 0.0592 0.0000 -10792.0024 1457.1543 0.0000 0.0000 1715.5188 -7613.7389 293.0374 -9329.2577 -7485.2035 298.6361 -262.7879 -106.6228 30365.0728 13.5266 86.0198
ENERGY: 1500000 0.5528 2.6088 0.0794 0.0000 -10635.3655 1471.6614 0.0000 0.0000 1729.1082 -7431.3549 295.3587 -9160.4631 -7480.1378 298.3090 283.1163 356.4722 30617.2652 20.1303 83.8354
TCL: Running FEP window   9: Lambda1 0.39999999999999997 Lambda2 0.44999999999999996 [dLambda 0.04999999999999999]
TCL: Setting parameter firsttimestep to 0
TCL: Setting parameter alchLambda to 0.39999999999999997
Info: NONBONDED TABLE R-SQUARED SPACING: 0.0625
Info: NONBONDED TABLE SIZE: 705 POINTS
TCL: Setting parameter alchLambda2 to 0.44999999999999996
Info: NONBONDED TABLE R-SQUARED SPACING: 0.0625
Info: NONBONDED TABLE SIZE: 705 POINTS
TCL: Running for 1500000 steps
ETITLE: TS BOND ANGLE DIHED IMPRP ELECT VDW BOUNDARY MISC KINETIC TOTAL TEMP POTENTIAL TOTALAVG TEMPAVG PRESSURE GPRESSURE VOLUME PRESSAVG GPRESSAVG
ENERGY: 0 0.5528 2.6088 0.0794 0.0000 -10635.3648 1471.8479 0.0000 0.0000 1728.2737 -7432.0023 295.2162 -9160.2760 -7432.0023 295.2162 287.3396 360.6024 30617.2652 287.3396 360.6024
ENERGY: 300000 0.5315 7.8877 0.3789 0.0000 -10666.5869 1394.6479 0.0000 0.0000 1789.5364 -7473.6046 305.6808 -9263.1409 -7423.2319 304.3452 -385.5348 -358.6633 30193.0502 229.0168 270.8581
ENERGY: 600000 0.8520 2.1727 1.2737 0.0000 -10725.0181 1436.9863 0.0000 0.0000 1736.5870 -7547.1464 296.6362 -9283.7334 -7462.4657 301.9320 -93.2735 -69.9483 30158.6105 -24.4434 28.6932
ENERGY: 900000 0.8251 2.4461 0.2307 0.0000 -10752.7024 1499.8460 0.0000 0.0000 1746.0525 -7503.3020 298.2531 -9249.3545 -7464.2128 302.2998 480.6294 493.6265 30194.8801 148.7850 192.7727
ENERGY: 1200000 1.5656 3.3662 0.0553 0.0000 -10829.5526 1478.4051 0.0000 0.0000 1728.2855 -7617.8749 295.2182 -9346.1604 -7479.6083 301.2881 161.2177 142.8861 29953.7078 56.3115 98.8666
ENERGY: 1500000 1.4372 6.8706 0.0533 0.0000 -10678.9802 1451.4439 0.0000 0.0000 1811.0983 -7408.0768 309.3639 -9219.1751 -7481.5133 301.7878 306.0815 429.4196 30050.8009 111.7986 159.1206
TCL: Running FEP window  10: Lambda1 0.44999999999999996 Lambda2 0.49999999999999994 [dLambda 0.04999999999999999]
TCL: Setting parameter firsttimestep to 0
TCL: Setting parameter alchLambda to 0.44999999999999996
Info: NONBONDED TABLE R-SQUARED SPACING: 0.0625
Info: NONBONDED TABLE SIZE: 705 POINTS
TCL: Setting parameter alchLambda2 to 0.49999999999999994
Info: NONBONDED TABLE R-SQUARED SPACING: 0.0625
Info: NONBONDED TABLE SIZE: 705 POINTS
TCL: Running for 1500000 steps
ETITLE: TS BOND ANGLE DIHED IMPRP ELECT VDW BOUNDARY MISC KINETIC TOTAL TEMP POTENTIAL TOTALAVG TEMPAVG PRESSURE GPRESSURE VOLUME PRESSAVG GPRESSAVG
ENERGY: 0 1.4372 6.8706 0.0533 0.0000 -10678.9807 1452.1556 0.0000 0.0000 1810.2250 -7408.2390 309.2147 -9218.4640 -7408.2390 309.2147 348.4313 439.1186 30050.8009 348.4313 439.1186
ENERGY: 300000 0.9662 6.1969 0.1713 0.0000 -10653.6317 1375.3496 0.0000 0.0000 1769.1671 -7501.7804 302.2014 -9270.9476 -7441.1970 306.9228 -745.5437 -690.9734 30370.0661 51.6568 99.8967
ENERGY: 600000 1.2097 6.4291 0.0801 0.0000 -10616.5895 1343.0770 0.0000 0.0000 1796.2960 -7469.4977 306.8355 -9265.7937 -7463.3092 304.5562 -1015.1896 -951.5520 30697.0040 52.6646 114.2104
ENERGY: 900000 1.0137 2.2110 0.8038 0.0000 -10698.5849 1416.2684 0.0000 0.0000 1761.2057 -7517.0823 300.8415 -9278.2880 -7477.5158 303.1547 -361.5967 -216.3060 30257.7674 2.8728 69.4102
ENERGY: 1200000 0.9363 3.3245 0.5781 0.0000 -10616.3320 1360.7456 0.0000 0.0000 1766.4398 -7484.3077 301.7356 -9250.7475 -7467.0376 303.0122 -894.6421 -789.9967 30611.8556 -25.4830 40.8080
ENERGY: 1500000 3.2996 3.0773 0.0214 0.0000 -10668.1804 1440.5541 0.0000 0.0000 1756.8177 -7464.4103 300.0920 -9221.2280 -7470.1882 302.2566 15.6968 110.2956 30111.1296 -11.0932 58.1571
TCL: Running FEP window  11: Lambda1 0.49999999999999994 Lambda2 0.5499999999999999 [dLambda 0.04999999999999999]
TCL: Setting parameter firsttimestep to 0
TCL: Setting parameter alchLambda to 0.49999999999999994
Info: NONBONDED TABLE R-SQUARED SPACING: 0.0625
Info: NONBONDED TABLE SIZE: 705 POINTS
TCL: Setting parameter alchLambda2 to 0.5499999999999999
Info: NONBONDED TABLE R-SQUARED SPACING: 0.0625
Info: NONBONDED TABLE SIZE: 705 POINTS
TCL: Running for 1500000 steps
ETITLE: TS BOND ANGLE DIHED IMPRP ELECT VDW BOUNDARY MISC KINETIC TOTAL TEMP POTENTIAL TOTALAVG TEMPAVG PRESSURE GPRESSURE VOLUME PRESSAVG GPRESSAVG
ENERGY: 0 3.2996 3.0773 0.0214 0.0000 -10668.1834 1440.2109 0.0000 0.0000 1755.9442 -7465.6301 299.9427 -9221.5742 -7465.6301 299.9427 20.4038 113.7637 30111.1296 20.4038 113.7637
ENERGY: 300000 0.4254 5.7973 0.1858 0.0000 -10687.2473 1432.4229 0.0000 0.0000 1725.9830 -7522.4329 294.8249 -9248.4159 -7494.0664 294.0963 1.1126 114.0715 30117.4523 78.1481 142.6137
ENERGY: 600000 0.6563 5.0721 0.0645 0.0000 -10704.2101 1415.2588 0.0000 0.0000 1770.8595 -7512.2989 302.4905 -9283.1584 -7509.9079 295.1319 -397.8902 -330.7536 30310.0253 -39.8785 17.7048
ENERGY: 900000 0.6964 3.6977 0.0468 0.0000 -10703.7825 1490.5669 0.0000 0.0000 1763.9730 -7444.8016 301.3142 -9208.7746 -7510.3738 296.2279 688.9165 732.5492 29879.0675 6.5392 71.1823
ENERGY: 1200000 1.7443 3.8434 0.0807 0.0000 -10566.0582 1391.4979 0.0000 0.0000 1761.3173 -7407.5746 300.8606 -9168.8920 -7491.9324 297.2525 -359.9277 -305.5178 30607.5114 -19.3125 45.1214
ENERGY: 1500000 3.1150 7.9201 0.1237 0.0000 -10589.4837 1374.7058 0.0000 0.0000 1811.0807 -7392.5384 309.3609 -9203.6192 -7489.6889 297.8753 -451.3624 -388.4890 30387.8635 -10.7907 51.9410
TCL: Running FEP window  12: Lambda1 0.5499999999999999 Lambda2 0.6    [dLambda 0.050000000000000044]
TCL: Setting parameter firsttimestep to 0
TCL: Setting parameter alchLambda to 0.5499999999999999
Info: NONBONDED TABLE R-SQUARED SPACING: 0.0625
Info: NONBONDED TABLE SIZE: 705 POINTS
TCL: Setting parameter alchLambda2 to 0.6
Info: NONBONDED TABLE R-SQUARED SPACING: 0.0625
Info: NONBONDED TABLE SIZE: 705 POINTS
TCL: Running for 1500000 steps
ETITLE: TS BOND ANGLE DIHED IMPRP ELECT VDW BOUNDARY MISC KINETIC TOTAL TEMP POTENTIAL TOTALAVG TEMPAVG PRESSURE GPRESSURE VOLUME PRESSAVG GPRESSAVG
ENERGY: 0 3.1150 7.9201 0.1237 0.0000 -10589.4879 1374.5197 0.0000 0.0000 1810.2334 -7393.5761 309.2162 -9203.8094 -7393.5761 309.2162 -470.8560 -385.9356 30387.8635 -470.8560 -385.9356
ENERGY: 300000 2.7486 4.4068 0.1883 0.0000 -10715.5560 1443.5357 0.0000 0.0000 1805.0085 -7459.6681 308.3237 -9264.6767 -7480.7351 305.0068 270.2027 320.4038 30005.0979 -109.5734 -63.2482
ENERGY: 600000 1.2504 2.2265 0.2577 0.0000 -10832.4511 1501.5501 0.0000 0.0000 1754.9875 -7572.1788 299.7793 -9327.1664 -7499.1859 303.8040 402.0317 453.1696 30014.4910 -11.5671 39.3061
ENERGY: 900000 0.7175 4.4129 0.0762 0.0000 -10546.8781 1298.5146 0.0000 0.0000 1770.6069 -7472.5500 302.4474 -9243.1570 -7487.1115 302.5849 -1142.6229 -1087.2735 30536.8103 -131.5156 -78.1383
ENERGY: 1200000 0.8272 2.5756 0.0734 0.0000 -10762.1866 1484.2004 0.0000 0.0000 1771.9750 -7502.5350 302.6811 -9274.5100 -7489.8609 301.8708 310.1803 407.2361 30060.5491 -41.7902 9.8065
ENERGY: 1500000 2.1550 2.2650 0.5676 0.0000 -10578.4277 1414.3436 0.0000 0.0000 1755.3341 -7403.7624 299.8385 -9159.0965 -7481.1762 302.2900 111.5412 172.8074 30231.5166 12.6511 67.4315
TCL: Running FEP window  13: Lambda1 0.6    Lambda2 0.65   [dLambda 0.050000000000000044]
TCL: Setting parameter firsttimestep to 0
TCL: Setting parameter alchLambda to 0.6
Info: NONBONDED TABLE R-SQUARED SPACING: 0.0625
Info: NONBONDED TABLE SIZE: 705 POINTS
TCL: Setting parameter alchLambda2 to 0.65
Info: NONBONDED TABLE R-SQUARED SPACING: 0.0625
Info: NONBONDED TABLE SIZE: 705 POINTS
TCL: Running for 1500000 steps
ETITLE: TS BOND ANGLE DIHED IMPRP ELECT VDW BOUNDARY MISC KINETIC TOTAL TEMP POTENTIAL TOTALAVG TEMPAVG PRESSURE GPRESSURE VOLUME PRESSAVG GPRESSAVG
ENERGY: 0 2.1550 2.2650 0.5676 0.0000 -10578.4606 1414.4227 0.0000 0.0000 1754.4354 -7404.6150 299.6850 -9159.0504 -7404.6150 299.6850 101.9805 178.9979 30231.5166 101.9805 178.9979
ENERGY: 300000 0.3256 2.6554 0.1615 0.0000 -10707.0075 1452.9515 0.0000 0.0000 1753.2364 -7497.6771 299.4802 -9250.9135 -7483.3129 299.6520 205.0648 233.5060 30215.6092 203.2956 264.4806
ENERGY: 600000 1.3127 3.5036 0.2835 0.0000 -10646.4647 1406.3397 0.0000 0.0000 1786.9627 -7448.0626 305.2412 -9235.0253 -7470.1525 300.1416 -195.6459 -138.1157 30565.2038 -149.0130 -85.7561
ENERGY: 900000 1.0826 1.9348 0.0104 0.0000 -10691.6491 1448.9723 0.0000 0.0000 1714.0560 -7525.5930 292.7876 -9239.6490 -7476.1268 299.6891 -28.7351 123.5860 30374.0220 -222.9795 -152.4252
ENERGY: 1200000 0.4912 2.3926 0.0316 0.0000 -10681.5053 1449.3448 0.0000 0.0000 1744.2152 -7485.0299 297.9392 -9229.2451 -7481.2590 299.5655 60.7234 159.8373 30375.4733 -261.4839 -193.9278
ENERGY: 1500000 1.3780 6.7899 0.9437 0.0000 -10541.9625 1373.0079 0.0000 0.0000 1766.8526 -7392.9904 301.8061 -9159.8430 -7475.8159 300.2592 -350.8153 -260.0314 30547.6172 -236.9386 -169.8534
TCL: Running FEP window  14: Lambda1 0.65   Lambda2 0.7000000000000001 [dLambda 0.050000000000000044]
TCL: Setting parameter firsttimestep to 0
TCL: Setting parameter alchLambda to 0.65
Info: NONBONDED TABLE R-SQUARED SPACING: 0.0625
Info: NONBONDED TABLE SIZE: 705 POINTS
TCL: Setting parameter alchLambda2 to 0.7000000000000001
Info: NONBONDED TABLE R-SQUARED SPACING: 0.0625
Info: NONBONDED TABLE SIZE: 705 POINTS
TCL: Running for 1500000 steps
ETITLE: TS BOND ANGLE DIHED IMPRP ELECT VDW BOUNDARY MISC KINETIC TOTAL TEMP POTENTIAL TOTALAVG TEMPAVG PRESSURE GPRESSURE VOLUME PRESSAVG GPRESSAVG
ENERGY: 0 1.3780 6.7899 0.9437 0.0000 -10541.9031 1373.1991 0.0000 0.0000 1765.9992 -7393.5931 301.6603 -9159.5923 -7393.5931 301.6603 -331.2706 -252.7951 30547.6172 -331.2706 -252.7951
ENERGY: 300000 2.1275 4.7323 0.0442 0.0000 -10714.9862 1522.6782 0.0000 0.0000 1729.7631 -7455.6410 295.4706 -9185.4041 -7455.7298 299.6553 1009.8472 1149.4722 29905.4457 -249.0198 -173.6870
ENERGY: 600000 1.0351 3.1040 1.3165 0.0000 -10705.8898 1480.3544 0.0000 0.0000 1770.5584 -7449.5214 302.4391 -9220.0798 -7458.0006 301.2962 500.2515 541.4256 30113.2349 -62.8753 1.3379
ENERGY: 900000 1.1962 4.7701 0.2287 0.0000 -10821.3210 1442.0056 0.0000 0.0000 1818.2327 -7554.8875 310.5826 -9373.1203 -7461.3529 302.0091 -338.3048 -276.3636 30419.5657 -185.5592 -122.9447
ENERGY: 1200000 0.2741 2.3497 0.0176 0.0000 -10720.5183 1419.2791 0.0000 0.0000 1704.2919 -7594.3059 291.1197 -9298.5978 -7476.3883 300.6091 -339.9642 -326.8968 30275.6270 -221.8702 -161.8389
ENERGY: 1500000 0.1057 3.3779 0.0107 0.0000 -10763.6884 1461.5556 0.0000 0.0000 1714.8344 -7583.8041 292.9205 -9298.6385 -7473.5049 300.2032 24.0797 67.4601 30180.8888 -200.0401 -144.1921
TCL: Running FEP window  15: Lambda1 0.7000000000000001 Lambda2 0.7500000000000001 [dLambda 0.050000000000000044]
TCL: Setting parameter firsttimestep to 0
TCL: Setting parameter alchLambda to 0.7000000000000001
Info: NONBONDED TABLE R-SQUARED SPACING: 0.0625
Info: NONBONDED TABLE SIZE: 705 POINTS
TCL: Setting parameter alchLambda2 to 0.7500000000000001
Info: NONBONDED TABLE R-SQUARED SPACING: 0.0625
Info: NONBONDED TABLE SIZE: 705 POINTS
TCL: Running for 1500000 steps
ETITLE: TS BOND ANGLE DIHED IMPRP ELECT VDW BOUNDARY MISC KINETIC TOTAL TEMP POTENTIAL TOTALAVG TEMPAVG PRESSURE GPRESSURE VOLUME PRESSAVG GPRESSAVG
ENERGY: 0 0.1057 3.3779 0.0107 0.0000 -10763.9253 1461.5398 0.0000 0.0000 1713.9673 -7584.9240 292.7724 -9298.8912 -7584.9240 292.7724 -7.8046 71.9221 30180.8888 -7.8046 71.9221
ENERGY: 300000 0.6004 3.2969 0.1945 0.0000 -10683.6311 1496.5777 0.0000 0.0000 1779.2521 -7403.7096 303.9241 -9182.9617 -7506.4354 298.9680 666.3746 712.8172 30430.9407 19.4920 88.2306
ENERGY: 600000 2.2322 2.1217 0.0200 0.0000 -10722.8499 1465.6729 0.0000 0.0000 1805.0058 -7447.7973 308.3232 -9252.8030 -7487.9421 300.7456 363.7069 424.7267 29937.5759 -31.7660 36.8636
ENERGY: 900000 0.7258 3.1530 0.0060 0.0000 -10763.0952 1560.3665 0.0000 0.0000 1764.3928 -7434.4512 301.3859 -9198.8440 -7482.6556 300.7909 982.5968 1073.3779 30541.4074 135.0159 201.6279
ENERGY: 1200000 0.5270 3.5216 0.0116 0.0000 -10586.8660 1363.3772 0.0000 0.0000 1764.9220 -7454.5066 301.4763 -9219.4286 -7483.6675 300.8620 -380.2286 -305.8192 30178.5388 40.2988 109.2386
ENERGY: 1500000 0.6989 4.0692 0.0434 0.0000 -10661.6589 1456.0500 0.0000 0.0000 1720.8274 -7479.9701 293.9442 -9200.7975 -7485.7256 300.1627 341.0690 383.9439 29983.1658 -37.0133 28.2041
TCL: Running FEP window  16: Lambda1 0.7500000000000001 Lambda2 0.8000000000000002 [dLambda 0.050000000000000044]
TCL: Setting parameter firsttimestep to 0
TCL: Setting parameter alchLambda to 0.7500000000000001
Info: NONBONDED TABLE R-SQUARED SPACING: 0.0625
Info: NONBONDED TABLE SIZE: 705 POINTS
TCL: Setting parameter alchLambda2 to 0.8000000000000002
Info: NONBONDED TABLE R-SQUARED SPACING: 0.0625
Info: NONBONDED TABLE SIZE: 705 POINTS
TCL: Running for 1500000 steps
ETITLE: TS BOND ANGLE DIHED IMPRP ELECT VDW BOUNDARY MISC KINETIC TOTAL TEMP POTENTIAL TOTALAVG TEMPAVG PRESSURE GPRESSURE VOLUME PRESSAVG GPRESSAVG
ENERGY: 0 0.6989 4.0692 0.0434 0.0000 -10662.1376 1457.1740 0.0000 0.0000 1719.9485 -7480.2037 293.7941 -9200.1522 -7480.2037 293.7941 318.7863 402.2334 29983.1658 318.7863 402.2334
ENERGY: 300000 0.5052 3.1361 0.7169 0.0000 -10782.0120 1521.5004 0.0000 0.0000 1760.6390 -7495.5144 300.7447 -9256.1535 -7483.6525 301.5784 554.9685 593.3722 30384.9634 -111.6542 -45.9758
ENERGY: 600000 1.3003 2.9006 0.0386 0.0000 -10649.3742 1397.8751 0.0000 0.0000 1738.4167 -7508.8429 296.9488 -9247.2597 -7494.1514 300.6592 -496.7290 -411.3638 30542.5611 -44.2787 25.9806
ENERGY: 900000 1.0763 3.2366 0.3680 0.0000 -10839.3263 1460.1662 0.0000 0.0000 1803.9990 -7570.4802 308.1512 -9374.4792 -7497.8195 301.4780 -132.6252 -15.5097 30223.8071 -162.3304 -97.8514
ENERGY: 1200000 1.2297 1.1490 0.7463 0.0000 -10743.1346 1498.4377 0.0000 0.0000 1808.4359 -7433.1360 308.9092 -9241.5719 -7500.1394 301.2171 754.9687 813.8041 29849.1691 -49.8827 13.0871
ENERGY: 1500000 2.3035 3.2141 0.3298 0.0000 -10550.4364 1363.1108 0.0000 0.0000 1796.6853 -7384.7930 306.9020 -9181.4782 -7484.1093 302.4383 -301.9804 -277.0910 30057.9011 -87.4067 -28.4693
TCL: Running FEP window  17: Lambda1 0.8000000000000002 Lambda2 0.8500000000000002 [dLambda 0.050000000000000044]
TCL: Setting parameter firsttimestep to 0
TCL: Setting parameter alchLambda to 0.8000000000000002
Info: NONBONDED TABLE R-SQUARED SPACING: 0.0625
Info: NONBONDED TABLE SIZE: 705 POINTS
TCL: Setting parameter alchLambda2 to 0.8500000000000002
Info: NONBONDED TABLE R-SQUARED SPACING: 0.0625
Info: NONBONDED TABLE SIZE: 705 POINTS
TCL: Running for 1500000 steps
ETITLE: TS BOND ANGLE DIHED IMPRP ELECT VDW BOUNDARY MISC KINETIC TOTAL TEMP POTENTIAL TOTALAVG TEMPAVG PRESSURE GPRESSURE VOLUME PRESSAVG GPRESSAVG
ENERGY: 0 2.3035 3.2141 0.3298 0.0000 -10550.4725 1362.9608 0.0000 0.0000 1795.7939 -7385.8705 306.7497 -9181.6644 -7385.8705 306.7497 -352.0814 -270.9994 30057.9011 -352.0814 -270.9994
ENERGY: 300000 0.9813 4.3307 0.0737 0.0000 -10642.7271 1391.0932 0.0000 0.0000 1781.4421 -7464.8061 304.2982 -9246.2483 -7442.6961 303.0098 -508.4460 -485.6486 30587.4226 -564.8707 -497.6059
ENERGY: 600000 0.7246 1.3190 0.6563 0.0000 -10591.2057 1314.8879 0.0000 0.0000 1764.0344 -7509.5835 301.3247 -9273.6180 -7442.8664 303.2267 -1020.9940 -969.3087 30315.0265 -522.3288 -456.2550
ENERGY: 900000 0.6817 3.1137 0.0896 0.0000 -10619.7202 1401.3188 0.0000 0.0000 1769.8305 -7444.6859 302.3147 -9214.5165 -7451.7969 303.9276 -241.7380 -153.9789 30631.5587 -426.3584 -351.2555
ENERGY: 1200000 2.4517 3.9117 0.3232 0.0000 -10775.0666 1450.8958 0.0000 0.0000 1734.8115 -7582.6727 296.3330 -9317.4843 -7478.5384 303.0375 -158.6576 -105.9191 30189.3907 -346.2575 -271.5985
ENERGY: 1500000 2.5201 10.2943 0.8226 0.0000 -10746.4687 1516.0687 0.0000 0.0000 1748.9174 -7467.8456 298.7425 -9216.7630 -7483.1997 302.2301 595.7233 654.9771 30546.9194 -295.1962 -221.3978
TCL: Running FEP window  18: Lambda1 0.8500000000000002 Lambda2 0.9000000000000002 [dLambda 0.050000000000000044]
TCL: Setting parameter firsttimestep to 0
TCL: Setting parameter alchLambda to 0.8500000000000002
Info: NONBONDED TABLE R-SQUARED SPACING: 0.0625
Info: NONBONDED TABLE SIZE: 705 POINTS
TCL: Setting parameter alchLambda2 to 0.9000000000000002
Info: NONBONDED TABLE R-SQUARED SPACING: 0.0625
Info: NONBONDED TABLE SIZE: 705 POINTS
TCL: Running for 1500000 steps
ETITLE: TS BOND ANGLE DIHED IMPRP ELECT VDW BOUNDARY MISC KINETIC TOTAL TEMP POTENTIAL TOTALAVG TEMPAVG PRESSURE GPRESSURE VOLUME PRESSAVG GPRESSAVG
ENERGY: 0 2.5201 10.2943 0.8226 0.0000 -10746.7368 1515.8171 0.0000 0.0000 1748.0287 -7469.2540 298.5907 -9217.2827 -7469.2540 298.5907 586.6435 657.3320 30546.9194 586.6435 657.3320
ENERGY: 300000 1.1895 4.6419 0.2414 0.0000 -10698.2792 1437.5947 0.0000 0.0000 1765.1959 -7489.4157 301.5231 -9254.6117 -7478.3206 299.8810 -191.7843 -82.4520 30553.6298 139.3043 232.5736
ENERGY: 600000 0.4171 3.3134 0.9779 0.0000 -10733.1232 1485.6507 0.0000 0.0000 1751.8513 -7490.9128 299.2436 -9242.7641 -7476.9850 300.2097 430.0674 368.1253 30416.7342 -11.7915 55.9959
ENERGY: 900000 2.7592 3.2820 2.0404 0.0000 -10711.8054 1437.3237 0.0000 0.0000 1746.5153 -7519.8848 298.3321 -9266.4000 -7470.6404 300.7370 -264.2528 -195.7382 30535.7660 54.2679 113.7897
ENERGY: 1200000 0.4199 3.4680 0.8327 0.0000 -10702.4519 1413.0109 0.0000 0.0000 1696.5046 -7588.2159 289.7895 -9284.7205 -7474.8387 300.6301 31.5417 31.8562 29666.6830 0.4350 60.7788
ENERGY: 1500000 1.5892 5.0997 0.0569 0.0000 -10678.7607 1411.0874 0.0000 0.0000 1844.3003 -7416.6272 315.0353 -9260.9275 -7477.8007 300.8426 -305.5842 -200.0034 30472.3215 -12.5166 53.5219
TCL: Running FEP window  19: Lambda1 0.9000000000000002 Lambda2 0.9500000000000003 [dLambda 0.050000000000000044]
TCL: Setting parameter firsttimestep to 0
TCL: Setting parameter alchLambda to 0.9000000000000002
Info: NONBONDED TABLE R-SQUARED SPACING: 0.0625
Info: NONBONDED TABLE SIZE: 705 POINTS
TCL: Setting parameter alchLambda2 to 0.9500000000000003
Info: NONBONDED TABLE R-SQUARED SPACING: 0.0625
Info: NONBONDED TABLE SIZE: 705 POINTS
TCL: Running for 1500000 steps
ETITLE: TS BOND ANGLE DIHED IMPRP ELECT VDW BOUNDARY MISC KINETIC TOTAL TEMP POTENTIAL TOTALAVG TEMPAVG PRESSURE GPRESSURE VOLUME PRESSAVG GPRESSAVG
ENERGY: 0 1.5892 5.0997 0.0569 0.0000 -10679.0399 1411.8737 0.0000 0.0000 1843.4402 -7416.9802 314.8884 -9260.4204 -7416.9802 314.8884 -262.0934 -181.0410 30472.3215 -262.0934 -181.0410
ENERGY: 300000 3.1789 5.6352 0.3314 0.0000 -10634.5591 1426.7522 0.0000 0.0000 1787.3845 -7411.2769 305.3132 -9198.6614 -7444.9019 304.8294 194.2909 281.4068 30138.7609 48.1606 93.8537
ENERGY: 600000 1.5713 5.2722 0.2310 0.0000 -10646.3784 1361.9638 0.0000 0.0000 1735.2951 -7542.0451 296.4156 -9277.3402 -7474.5996 301.6799 -717.8230 -650.5647 30478.2107 -15.0313 42.0417
ENERGY: 900000 0.5908 5.0148 0.0701 0.0000 -10636.9723 1414.7841 0.0000 0.0000 1756.9900 -7459.5225 300.1214 -9216.5125 -7480.6099 302.3754 -306.7863 -206.5669 30770.1072 -32.9987 24.9042
ENERGY: 1200000 0.8064 3.7900 0.2550 0.0000 -10551.8907 1372.4945 0.0000 0.0000 1748.6494 -7425.8955 298.6967 -9174.5449 -7475.2155 301.9709 -225.5492 -162.2385 30292.6409 -15.3518 44.3032
ENERGY: 1500000 3.2030 4.2544 0.1195 0.0000 -10668.8480 1462.4453 0.0000 0.0000 1861.4645 -7337.3612 317.9673 -9198.8257 -7471.0430 302.7511 565.3319 534.3869 30306.0539 76.6999 128.7816
TCL: Running FEP window  20: Lambda1 0.9500000000000003 Lambda2 1.0    [dLambda 0.04999999999999971]
TCL: Setting parameter firsttimestep to 0
TCL: Setting parameter alchLambda to 0.9500000000000003
Info: NONBONDED TABLE R-SQUARED SPACING: 0.0625
Info: NONBONDED TABLE SIZE: 705 POINTS
TCL: Setting parameter alchLambda2 to 1.0
Info: NONBONDED TABLE R-SQUARED SPACING: 0.0625
Info: NONBONDED TABLE SIZE: 705 POINTS
TCL: Running for 1500000 steps
ETITLE: TS BOND ANGLE DIHED IMPRP ELECT VDW BOUNDARY MISC KINETIC TOTAL TEMP POTENTIAL TOTALAVG TEMPAVG PRESSURE GPRESSURE VOLUME PRESSAVG GPRESSAVG
ENERGY: 0 3.2030 4.2544 0.1195 0.0000 -10668.9635 1463.7414 0.0000 0.0000 1860.6047 -7337.0403 317.8204 -9197.6451 -7337.0403 317.8204 486.3001 562.2804 30306.0539 486.3001 562.2804
ENERGY: 300000 2.9671 3.3199 0.0861 0.0000 -10694.9111 1479.0967 0.0000 0.0000 1775.2686 -7434.1727 303.2436 -9209.4412 -7403.9745 308.4656 589.1432 606.8812 30348.0696 507.5171 556.4386
ENERGY: 600000 1.4253 2.3906 0.7276 0.0000 -10783.9830 1460.7463 0.0000 0.0000 1724.9710 -7593.7222 294.6520 -9318.6933 -7485.9500 302.5726 6.9957 52.5087 30060.5490 -45.5359 4.2235
ENERGY: 900000 0.1884 3.0081 0.0389 0.0000 -10658.5840 1445.9896 0.0000 0.0000 1724.4656 -7484.8934 294.5657 -9209.3591 -7491.0224 300.9455 171.4886 204.0870 30161.0049 74.3397 130.8509
ENERGY: 1200000 3.4669 2.8405 0.2545 0.0000 -10655.8125 1338.3400 0.0000 0.0000 1742.9921 -7567.9186 297.7303 -9310.9106 -7494.0735 300.3974 -1197.0714 -1101.8101 30396.5512 -26.7676 31.3298
ENERGY: 1500000 1.0377 4.1967 0.0235 0.0000 -10746.3533 1505.3247 0.0000 0.0000 1740.7829 -7494.9877 297.3530 -9235.7706 -7499.5033 299.6164 691.9329 769.5016 30134.0599 2.4347 62.2540
TCL: Exiting due to exit command.
