Info: SIMULATION PARAMETERS:
Info: TIMESTEP               2
Info: NUMBER OF STEPS        0
Info: STEPS PER CYCLE        10
Info: PERIODIC CELL BASIS 1  30.6474 0 0
Info: PERIODIC CELL BASIS 2  0 31.3232 0
Info: PERIODIC CELL BASIS 3  0 0 31.7531
Info: PERIODIC CELL CENTER   0 0 0
Info: WRAPPING WATERS AROUND PERIODIC BOUNDARIES ON OUTPUT.
Info: WRAPPING ALL CLUSTERS AROUND PERIODIC BOUNDARIES ON OUTPUT.
Info: FIRST LDB TIMESTEP     50
Info: LAST LDB TIMESTEP     -1
Info: HOM BACKGROUND SCALING 1
Info: PME BACKGROUND SCALING 1
Info: MIN ATOMS PER PATCH    40
Info: EMPTY PATCH LOAD       40 ATOMS
Info: VELOCITY FILE          mobley_5157661_equil.vel
Info: CENTER OF MASS MOVING INITIALLY? NO
Info: DIELECTRIC             1
Info: EXCLUDE                SCALED ONE-FOUR
Info: 1-4 ELECTROSTATICS SCALED BY 0.833333
Info: MODIFIED 1-4 VDW PARAMETERS WILL BE USED
Info: DCD FILENAME           mobley_5157661_prod.dcd
Info: DCD FREQUENCY          100000
Info: DCD FIRST STEP         100000
Info: DCD FILE WILL CONTAIN UNIT CELL DATA
Info: XST FILENAME           mobley_5157661_prod.xst
Info: XST FREQUENCY          100000
Info: NO VELOCITY DCD OUTPUT
Info: NO FORCE DCD OUTPUT
Info: OUTPUT FILENAME        mobley_5157661_prod
Info: BINARY OUTPUT FILES WILL BE USED
Info: RESTART FILENAME       mobley_5157661_prod.restart
Info: RESTART FREQUENCY      100000
Info: BINARY RESTART FILES WILL BE USED
Info: CUTOFF                 9
Info: PAIRLIST DISTANCE      11
Info: PAIRLIST SHRINK RATE   0.01
Info: PAIRLIST GROW RATE     0.01
Info: PAIRLIST TRIGGER       0.3
Info: PAIRLISTS PER CYCLE    2
Info: PAIRLISTS ENABLED
Info: MARGIN                 2
Info: HYDROGEN GROUP CUTOFF  2.5
Info: PATCH DIMENSION        15.5
Info: ENERGY OUTPUT STEPS    100000
Info: ENERGY EVALUATION STEPS    100000
Info: OUTPUT ENERGY PRECISION 4
Info: CROSSTERM ENERGY INCLUDED IN DIHEDRAL
Info: TIMING OUTPUT STEPS    1000000
Info: PRESSURE OUTPUT STEPS  100000
Info: ALCHEMICAL FEP ON
Info: FEP CURRENT LAMBDA VALUE     0
Info: FEP COMPARISON LAMBDA VALUE  0.05
Info: FEP INTRA-ALCHEMICAL NON-BONDED INTERACTIONS WILL BE RETAINED
Info: FEP INTRA-ALCHEMICAL BONDED INTERACTIONS WILL BE RETAINED
Info: FEP VDW SHIFTING COEFFICIENT 5
Info: FEP ELEC. ACTIVE FOR ANNIHILATED PARTICLES BETWEEN LAMBDA = 0 AND LAMBDA = 0.5
Info: FEP ELEC. ACTIVE FOR EXNIHILATED PARTICLES BETWEEN LAMBDA = 0.5 AND LAMBDA = 1
Info: FEP VDW ACTIVE FOR ANNIHILATED PARTICLES BETWEEN LAMBDA = 0 AND LAMBDA = 1
Info: FEP VDW ACTIVE FOR EXNIHILATED PARTICLES BETWEEN LAMBDA = 0 AND LAMBDA = 1
Info: FEP BOND ACTIVE FOR ANNIHILATED PARTICLES BETWEEN LAMBDA = 1 AND LAMBDA = 1
Info: FEP BOND ACTIVE FOR EXNIHILATED PARTICLES BETWEEN LAMBDA = 0 AND LAMBDA = 0
Info: LANGEVIN DYNAMICS ACTIVE
Info: LANGEVIN TEMPERATURE   300
Info: LANGEVIN USING BBK INTEGRATOR
Info: LANGEVIN DAMPING COEFFICIENT IS 1 INVERSE PS
Info: LANGEVIN DYNAMICS APPLIED TO HYDROGENS
Info: LANGEVIN PISTON PRESSURE CONTROL ACTIVE
Info:        TARGET PRESSURE IS 1.01325 BAR
Info:     OSCILLATION PERIOD IS 50 FS
Info:             DECAY TIME IS 25 FS
Info:     PISTON TEMPERATURE IS 300 K
Info:       PRESSURE CONTROL IS GROUP-BASED
Info:    INITIAL STRAIN RATE IS 0.000237015 0.000237015 0.000237015
Info:       CELL FLUCTUATION IS ISOTROPIC
Info: PARTICLE MESH EWALD (PME) ACTIVE
Info: PME TOLERANCE               1e-06
Info: PME EWALD COEFFICIENT       0.348832
Info: PME INTERPOLATION ORDER     4
Info: PME GRID DIMENSIONS         32 32 32
Info: PME MAXIMUM GRID SPACING    1
Info: PME CALCULATION WILL BE PERFORMED ON GPU
Info: FULL ELECTROSTATIC EVALUATION FREQUENCY      2
Info: USING VERLET I (r-RESPA) MTS SCHEME.
Info: C1 SPLITTING OF LONG RANGE ELECTROSTATICS
Info: PLACING ATOMS IN PATCHES BY HYDROGEN GROUPS
Info: RIGID BONDS TO HYDROGEN : ALL
Info:         ERROR TOLERANCE : 1e-08
Info:          MAX ITERATIONS : 100
Info: RIGID WATER USING SETTLE ALGORITHM
Info: RANDOM NUMBER SEED     1742231355
Info: USE HYDROGEN BONDS?    NO
Info: Using AMBER format force field!
Info: AMBER PARM FILE        mobley_5157661.prmtop
Info: COORDINATE PDB         mobley_5157661.pdb
Info: Exclusions will be read from PARM file!
Info: SCNB (VDW SCALING)     2
Info: USING ARITHMETIC MEAN TO COMBINE L-J SIGMA PARAMETERS
Info: BINARY COORDINATES     mobley_5157661_equil.coor
Info: SUMMARY OF PARAMETERS:
Info: 4 BONDS
Info: 3 ANGLES
Info:   3 HARMONIC
Info:   0 COSINE-BASED
Info: 2 DIHEDRAL
Info: 0 IMPROPER
Info: 0 CROSSTERM
Info: 0 VDW
Info: 10 VDW_PAIRS
Info: 0 NBTHOLE_PAIRS
Info: To read alchdata from file: mobley_5157661.pdb
Info: To read alchflag data from column: 5
Info: STRUCTURE SUMMARY:
Info: 2960 ATOMS
Info: 2959 BONDS
Info: 24 ANGLES
Info: 27 DIHEDRALS
Info: 0 IMPROPERS
Info: 0 CROSSTERMS
Info: 3010 EXCLUSIONS
Info: 2956 RIGID BONDS
Info: ALCH: 0 ATOMS TO DISAPPEAR IN FINAL STATE
Info: ALCH: 14 ATOMS TO APPEAR IN FINAL STATE
Info: 5924 DEGREES OF FREEDOM
Info: 986 HYDROGEN GROUPS
Info: 4 ATOMS IN LARGEST HYDROGEN GROUP
Info: 986 MIGRATION GROUPS
Info: 4 ATOMS IN LARGEST MIGRATION GROUP
Info: TOTAL MASS = 17749.8 amu
Info: TOTAL CHARGE = 0.000200011 e
Info: MASS DENSITY = 0.966957 g/cm^3
Info: ATOM DENSITY = 0.0971058 atoms/A^3
Info: ADDED 0 IMPLICIT EXCLUSIONS
Info: NONBONDED TABLE R-SQUARED SPACING: 0.0625
Info: NONBONDED TABLE SIZE: 705 POINTS
Info: REMOVING COM VELOCITY -0.168526 -0.00436215 -0.141167
Info: Use 3D box decompostion in PME FFT.
Info: Updated CUDA force table with 4096 elements.
Info: Updated CUDA LJ table with 4 x 4 elements.
Info: Found 17 unique exclusion lists needing 36 bytes
TCL: Running for 1500000 steps
ETITLE: TS BOND ANGLE DIHED IMPRP ELECT VDW BOUNDARY MISC KINETIC TOTAL TEMP POTENTIAL TOTALAVG TEMPAVG PRESSURE GPRESSURE VOLUME PRESSAVG GPRESSAVG
ENERGY: 0 0.8957 4.9049 0.7875 0.0000 -10875.6624 1468.6804 0.0000 0.0000 1767.7108 -7632.6830 300.3216 -9400.3938 -7632.6830 300.3216 -263.8470 -196.7086 30482.2110 -263.8470 -196.7086
ENERGY: 300000 0.1314 5.9387 0.2803 0.0000 -10756.9649 1479.6204 0.0000 0.0000 1748.8250 -7522.1691 297.1130 -9270.9941 -7546.9799 299.0490 617.1803 598.1279 29968.6618 457.9599 487.1270
ENERGY: 600000 1.3469 8.1563 0.4815 0.0000 -10731.0532 1428.2469 0.0000 0.0000 1798.6779 -7494.1438 305.5827 -9292.8218 -7552.4674 302.1098 -392.7408 -337.8370 30652.4721 170.9165 224.2230
ENERGY: 900000 1.0666 7.8224 0.4265 0.0000 -10816.8124 1463.3138 0.0000 0.0000 1711.3596 -7632.8237 290.7479 -9344.1832 -7550.2254 301.4256 -169.1990 -33.7416 30263.6610 2.6316 63.7058
ENERGY: 1200000 1.5163 10.0172 2.3702 0.0000 -10645.5292 1399.8490 0.0000 0.0000 1790.9276 -7440.8488 304.2660 -9231.7764 -7533.2390 301.4303 -205.0473 -130.6227 30313.8244 -46.7334 12.7374
ENERGY: 1500000 0.1680 8.0466 1.0125 0.0000 -10677.3385 1447.0108 0.0000 0.0000 1715.7574 -7505.3431 291.4951 -9221.1005 -7525.4211 300.5312 29.5397 95.0922 30572.1728 -35.1266 25.0819
TCL: Running FEP window   2: Lambda1 0.05   Lambda2 0.1    [dLambda 0.05  ]
TCL: Setting parameter firsttimestep to 0
TCL: Setting parameter alchLambda to 0.05
Info: NONBONDED TABLE R-SQUARED SPACING: 0.0625
Info: NONBONDED TABLE SIZE: 705 POINTS
TCL: Setting parameter alchLambda2 to 0.1
Info: NONBONDED TABLE R-SQUARED SPACING: 0.0625
Info: NONBONDED TABLE SIZE: 705 POINTS
TCL: Running for 1500000 steps
ETITLE: TS BOND ANGLE DIHED IMPRP ELECT VDW BOUNDARY MISC KINETIC TOTAL TEMP POTENTIAL TOTALAVG TEMPAVG PRESSURE GPRESSURE VOLUME PRESSAVG GPRESSAVG
ENERGY: 0 0.1680 8.0466 1.0125 0.0000 -10677.3374 1447.9289 0.0000 0.0000 1714.8678 -7505.3136 291.3439 -9220.1814 -7505.3136 291.3439 33.6641 98.1861 30572.1728 33.6641 98.1861
ENERGY: 300000 0.4800 5.8603 0.6581 0.0000 -10727.9811 1495.0521 0.0000 0.0000 1720.6785 -7505.2520 292.3311 -9225.9305 -7538.1443 294.5735 601.2336 657.4410 30138.1860 323.9201 405.8168
ENERGY: 600000 0.7861 7.3418 0.4417 0.0000 -10811.1174 1485.5181 0.0000 0.0000 1743.4435 -7573.5861 296.1987 -9317.0296 -7542.8779 296.6412 -69.2915 9.6619 30804.3651 151.5401 238.4962
ENERGY: 900000 0.1100 5.5197 0.7534 0.0000 -10809.7646 1543.6104 0.0000 0.0000 1714.4868 -7545.2844 291.2792 -9259.7712 -7537.3642 296.5382 826.1516 940.0507 30088.8237 91.9847 170.0814
ENERGY: 1200000 0.0658 8.2568 0.4154 0.0000 -10771.2369 1467.1761 0.0000 0.0000 1730.3382 -7564.9845 293.9722 -9295.3227 -7522.6498 297.3756 -45.6255 30.6665 30348.2607 44.4874 127.8643
ENERGY: 1500000 0.1363 5.9886 0.1779 0.0000 -10727.5863 1467.2511 0.0000 0.0000 1778.1589 -7475.8735 302.0966 -9254.0324 -7504.9661 299.3770 196.1182 234.9067 30543.7971 104.3647 175.7110
TCL: Running FEP window   3: Lambda1 0.1    Lambda2 0.15000000000000002 [dLambda 0.05000000000000002]
TCL: Setting parameter firsttimestep to 0
TCL: Setting parameter alchLambda to 0.1
Info: NONBONDED TABLE R-SQUARED SPACING: 0.0625
Info: NONBONDED TABLE SIZE: 705 POINTS
TCL: Setting parameter alchLambda2 to 0.15000000000000002
Info: NONBONDED TABLE R-SQUARED SPACING: 0.0625
Info: NONBONDED TABLE SIZE: 705 POINTS
TCL: Running for 1500000 steps
ETITLE: TS BOND ANGLE DIHED IMPRP ELECT VDW BOUNDARY MISC KINETIC TOTAL TEMP POTENTIAL TOTALAVG TEMPAVG PRESSURE GPRESSURE VOLUME PRESSAVG GPRESSAVG
ENERGY: 0 0.1363 5.9886 0.1779 0.0000 -10727.5859 1467.1321 0.0000 0.0000 1777.2538 -7476.8971 301.9429 -9254.1509 -7476.8971 301.9429 162.2642 234.0959 30543.7971 162.2642 234.0959
ENERGY: 300000 0.8839 4.8747 0.9386 0.0000 -10839.9246 1505.1825 0.0000 0.0000 1742.5463 -7585.4987 296.0463 -9328.0449 -7480.7253 304.5923 186.6470 206.0602 30500.8808 -39.0324 30.5070
ENERGY: 600000 1.7519 6.2680 0.7408 0.0000 -10655.1846 1380.3609 0.0000 0.0000 1794.2712 -7471.7919 304.8340 -9266.0631 -7503.8804 303.7554 -757.9051 -653.1896 30668.4165 -52.4761 21.9692
ENERGY: 900000 0.4972 6.1918 0.3488 0.0000 -10653.9997 1386.1796 0.0000 0.0000 1812.7324 -7448.0498 307.9704 -9260.7823 -7486.6761 304.4348 -435.0802 -417.7081 30572.4777 -45.4914 31.2961
ENERGY: 1200000 0.5075 5.7017 1.2904 0.0000 -10722.6554 1480.1064 0.0000 0.0000 1743.1214 -7491.9281 296.1440 -9235.0494 -7486.8931 303.5325 257.9993 296.5521 30527.7185 -46.4352 32.9935
ENERGY: 1500000 0.5975 8.5515 0.4195 0.0000 -10718.6059 1441.4952 0.0000 0.0000 1740.4035 -7527.1387 295.6823 -9267.5422 -7490.1501 302.4869 -136.1305 -54.0978 30272.5507 -65.6425 13.1111
TCL: Running FEP window   4: Lambda1 0.15000000000000002 Lambda2 0.2    [dLambda 0.04999999999999999]
TCL: Setting parameter firsttimestep to 0
TCL: Setting parameter alchLambda to 0.15000000000000002
Info: NONBONDED TABLE R-SQUARED SPACING: 0.0625
Info: NONBONDED TABLE SIZE: 705 POINTS
TCL: Setting parameter alchLambda2 to 0.2
Info: NONBONDED TABLE R-SQUARED SPACING: 0.0625
Info: NONBONDED TABLE SIZE: 705 POINTS
TCL: Running for 1500000 steps
ETITLE: TS BOND ANGLE DIHED IMPRP ELECT VDW BOUNDARY MISC KINETIC TOTAL TEMP POTENTIAL TOTALAVG TEMPAVG PRESSURE GPRESSURE VOLUME PRESSAVG GPRESSAVG
ENERGY: 0 0.5975 8.5515 0.4195 0.0000 -10718.6052 1441.4560 0.0000 0.0000 1739.5044 -7528.0762 295.5295 -9267.5807 -7528.0762 295.5295 -134.5604 -52.8737 30272.5507 -134.5604 -52.8737
ENERGY: 300000 0.8760 7.7154 0.6654 0.0000 -10722.1408 1410.2939 0.0000 0.0000 1747.8986 -7554.6916 296.9556 -9302.5902 -7537.4679 296.9654 -452.4395 -375.9415 30458.0884 122.0937 188.2834
ENERGY: 600000 0.1709 5.8007 0.4647 0.0000 -10568.5417 1365.8156 0.0000 0.0000 1729.6651 -7466.6246 293.8579 -9196.2898 -7521.6172 296.9319 -451.6878 -396.2316 30451.1856 59.9829 132.7272
ENERGY: 900000 0.0331 4.6404 0.7722 0.0000 -10719.5797 1418.4660 0.0000 0.0000 1780.0671 -7515.6009 302.4208 -9295.6680 -7509.8186 298.7433 -430.6174 -371.4052 30904.1422 4.9667 70.7340
ENERGY: 1200000 1.3204 6.5540 0.5604 0.0000 -10769.2450 1420.1364 0.0000 0.0000 1711.3243 -7629.3495 290.7419 -9340.6738 -7513.8858 298.2740 -330.5518 -209.0989 30002.0812 -171.0503 -101.0634
ENERGY: 1500000 2.1796 3.3457 0.4314 0.0000 -10625.3652 1371.8203 0.0000 0.0000 1758.8820 -7488.7062 298.8216 -9247.5882 -7508.7184 297.9434 -620.7856 -585.4015 30560.0722 -216.3283 -151.1920
TCL: Running FEP window   5: Lambda1 0.2    Lambda2 0.25   [dLambda 0.04999999999999999]
TCL: Setting parameter firsttimestep to 0
TCL: Setting parameter alchLambda to 0.2
Info: NONBONDED TABLE R-SQUARED SPACING: 0.0625
Info: NONBONDED TABLE SIZE: 705 POINTS
TCL: Setting parameter alchLambda2 to 0.25
Info: NONBONDED TABLE R-SQUARED SPACING: 0.0625
Info: NONBONDED TABLE SIZE: 705 POINTS
TCL: Running for 1500000 steps
ETITLE: TS BOND ANGLE DIHED IMPRP ELECT VDW BOUNDARY MISC KINETIC TOTAL TEMP POTENTIAL TOTALAVG TEMPAVG PRESSURE GPRESSURE VOLUME PRESSAVG GPRESSAVG
ENERGY: 0 2.1796 3.3457 0.4314 0.0000 -10625.3634 1371.9872 0.0000 0.0000 1758.0030 -7489.4164 298.6723 -9247.4195 -7489.4164 298.6723 -666.4518 -582.6319 30560.0722 -666.4518 -582.6319
ENERGY: 300000 1.1629 8.8252 0.9752 0.0000 -10813.9469 1452.0676 0.0000 0.0000 1831.7194 -7519.1966 311.1962 -9350.9160 -7516.9658 302.4751 -218.2120 -189.0722 30452.1929 -363.9095 -281.7611
ENERGY: 600000 2.8078 7.7814 1.3813 0.0000 -10811.0281 1485.8576 0.0000 0.0000 1808.5236 -7504.6764 307.2554 -9313.2000 -7505.6553 303.0495 77.2210 172.7321 30371.9363 -208.8899 -121.2692
ENERGY: 900000 2.6140 9.0393 1.1354 0.0000 -10768.8373 1470.5608 0.0000 0.0000 1781.2728 -7504.2149 302.6257 -9285.4878 -7500.8192 302.8924 -114.9335 1.4241 30764.6574 -91.2167 -8.2836
ENERGY: 1200000 0.2864 8.3493 0.5202 0.0000 -10746.0625 1395.4279 0.0000 0.0000 1741.0830 -7600.3957 295.7977 -9341.4787 -7498.4456 302.2583 -364.7540 -318.6470 29883.5445 -43.0772 37.7416
ENERGY: 1500000 4.0919 4.4889 0.2717 0.0000 -10687.1801 1424.3393 0.0000 0.0000 1757.3974 -7496.5910 298.5694 -9253.9884 -7501.6014 301.7658 -185.3709 -130.8084 30233.1395 -27.4008 46.6123
TCL: Running FEP window   6: Lambda1 0.25   Lambda2 0.3    [dLambda 0.04999999999999999]
TCL: Setting parameter firsttimestep to 0
TCL: Setting parameter alchLambda to 0.25
Info: NONBONDED TABLE R-SQUARED SPACING: 0.0625
Info: NONBONDED TABLE SIZE: 705 POINTS
TCL: Setting parameter alchLambda2 to 0.3
Info: NONBONDED TABLE R-SQUARED SPACING: 0.0625
Info: NONBONDED TABLE SIZE: 705 POINTS
TCL: Running for 1500000 steps
ETITLE: TS BOND ANGLE DIHED IMPRP ELECT VDW BOUNDARY MISC KINETIC TOTAL TEMP POTENTIAL TOTALAVG TEMPAVG PRESSURE GPRESSURE VOLUME PRESSAVG GPRESSAVG
ENERGY: 0 4.0919 4.4889 0.2717 0.0000 -10687.1800 1424.3405 0.0000 0.0000 1756.5444 -7497.4427 298.4245 -9253.9871 -7497.4427 298.4245 -223.6230 -127.9059 30233.1395 -223.6230 -127.9059
ENERGY: 300000 3.1971 3.3935 0.8303 0.0000 -10736.6949 1430.2812 0.0000 0.0000 1742.9289 -7556.0638 296.1113 -9298.9927 -7524.4420 299.5344 -279.4769 -229.3201 30368.6855 28.6506 97.5715
ENERGY: 600000 0.6472 7.8376 0.3374 0.0000 -10772.7732 1498.1140 0.0000 0.0000 1784.2629 -7481.5741 303.1337 -9265.8370 -7498.9782 299.6284 407.5774 479.2437 30245.5420 -188.7831 -106.0394
ENERGY: 900000 0.5928 5.5809 1.6452 0.0000 -10679.9665 1444.1548 0.0000 0.0000 1740.8672 -7487.1257 295.7610 -9227.9929 -7497.3939 298.8976 29.0465 100.9508 30419.3563 -130.4915 -53.0446
ENERGY: 1200000 1.3341 9.9745 0.8157 0.0000 -10530.7837 1356.9474 0.0000 0.0000 1792.3392 -7369.3729 304.5058 -9161.7121 -7495.7342 298.4369 -185.5071 -132.8650 30418.8784 36.0629 109.5004
ENERGY: 1500000 1.5764 6.6089 0.2289 0.0000 -10639.5680 1432.3231 0.0000 0.0000 1793.3155 -7405.5152 304.6716 -9198.8306 -7486.4836 299.7970 66.8076 72.6293 30721.6764 71.8052 137.7085
TCL: Running FEP window   7: Lambda1 0.3    Lambda2 0.35   [dLambda 0.04999999999999999]
TCL: Setting parameter firsttimestep to 0
TCL: Setting parameter alchLambda to 0.3
Info: NONBONDED TABLE R-SQUARED SPACING: 0.0625
Info: NONBONDED TABLE SIZE: 705 POINTS
TCL: Setting parameter alchLambda2 to 0.35
Info: NONBONDED TABLE R-SQUARED SPACING: 0.0625
Info: NONBONDED TABLE SIZE: 705 POINTS
TCL: Running for 1500000 steps
ETITLE: TS BOND ANGLE DIHED IMPRP ELECT VDW BOUNDARY MISC KINETIC TOTAL TEMP POTENTIAL TOTALAVG TEMPAVG PRESSURE GPRESSURE VOLUME PRESSAVG GPRESSAVG
ENERGY: 0 1.5764 6.6089 0.2289 0.0000 -10639.5683 1432.9753 0.0000 0.0000 1792.4791 -7405.6996 304.5295 -9198.1787 -7405.6996 304.5295 -2.8115 81.3944 30721.6764 -2.8115 81.3944
ENERGY: 300000 0.1396 7.9675 0.3058 0.0000 -10812.9893 1455.0501 0.0000 0.0000 1738.1967 -7611.3295 295.3073 -9349.5262 -7489.8057 300.0329 349.6581 406.5295 29297.5357 125.4372 175.0811
ENERGY: 600000 0.9347 6.8615 1.5272 0.0000 -10665.6761 1392.5831 0.0000 0.0000 1761.1398 -7502.6299 299.2052 -9263.7697 -7485.1658 301.2358 -460.0943 -381.7004 30444.8966 -132.7744 -82.4936
ENERGY: 900000 1.9250 3.9548 0.7031 0.0000 -10661.8472 1432.0996 0.0000 0.0000 1717.4888 -7505.6759 291.7892 -9223.1647 -7493.0625 300.0955 113.5043 110.2564 30367.1696 -96.1810 -34.1286
ENERGY: 1200000 0.7732 7.7263 0.6538 0.0000 -10758.5179 1447.6180 0.0000 0.0000 1741.2999 -7560.4468 295.8346 -9301.7467 -7518.0715 298.0959 -95.4779 -62.1102 30241.6077 -134.1920 -76.1852
ENERGY: 1500000 1.6611 4.4556 0.0530 0.0000 -10912.5837 1517.5000 0.0000 0.0000 1749.4581 -7639.4557 297.2206 -9388.9138 -7526.9450 297.9617 445.2399 446.3779 30163.3660 -20.6353 27.4464
TCL: Running FEP window   8: Lambda1 0.35   Lambda2 0.39999999999999997 [dLambda 0.04999999999999999]
TCL: Setting parameter firsttimestep to 0
TCL: Setting parameter alchLambda to 0.35
Info: NONBONDED TABLE R-SQUARED SPACING: 0.0625
Info: NONBONDED TABLE SIZE: 705 POINTS
TCL: Setting parameter alchLambda2 to 0.39999999999999997
Info: NONBONDED TABLE R-SQUARED SPACING: 0.0625
Info: NONBONDED TABLE SIZE: 705 POINTS
TCL: Running for 1500000 steps
ETITLE: TS BOND ANGLE DIHED IMPRP ELECT VDW BOUNDARY MISC KINETIC TOTAL TEMP POTENTIAL TOTALAVG TEMPAVG PRESSURE GPRESSURE VOLUME PRESSAVG GPRESSAVG
ENERGY: 0 1.6611 4.4556 0.0530 0.0000 -10912.5852 1517.3558 0.0000 0.0000 1748.5758 -7640.4837 297.0707 -9389.0596 -7640.4837 297.0707 364.6223 450.3394 30163.3660 364.6223 450.3394
ENERGY: 300000 1.0912 11.5960 0.6363 0.0000 -10739.6488 1457.2787 0.0000 0.0000 1735.3961 -7533.6505 294.8315 -9269.0465 -7497.7577 299.3792 335.8702 359.6085 30027.5964 349.5805 410.3232
ENERGY: 600000 2.2818 3.9738 0.4966 0.0000 -10715.5605 1399.5788 0.0000 0.0000 1743.6040 -7565.6256 296.2260 -9309.2296 -7501.2977 302.4219 -609.9036 -534.9018 30563.4467 98.0432 171.4594
ENERGY: 900000 2.4073 5.4979 1.3046 0.0000 -10623.6200 1428.6702 0.0000 0.0000 1761.5281 -7424.2119 299.2712 -9185.7400 -7490.6439 301.5895 -4.3742 51.4630 30438.7279 51.6233 123.5925
ENERGY: 1200000 0.9611 9.3459 0.2753 0.0000 -10760.3955 1455.1527 0.0000 0.0000 1834.4586 -7460.2019 311.6616 -9294.6605 -7485.5447 301.8828 33.3482 106.9613 30189.0516 -43.3160 25.5225
ENERGY: 1500000 1.0385 6.2370 2.1718 0.0000 -10605.7919 1375.1918 0.0000 0.0000 1698.0454 -7523.1074 288.4859 -9221.1528 -7495.7212 300.3790 -657.7950 -590.4965 30798.5297 -58.9821 12.2839
TCL: Running FEP window   9: Lambda1 0.39999999999999997 Lambda2 0.44999999999999996 [dLambda 0.04999999999999999]
TCL: Setting parameter firsttimestep to 0
TCL: Setting parameter alchLambda to 0.39999999999999997
Info: NONBONDED TABLE R-SQUARED SPACING: 0.0625
Info: NONBONDED TABLE SIZE: 705 POINTS
TCL: Setting parameter alchLambda2 to 0.44999999999999996
Info: NONBONDED TABLE R-SQUARED SPACING: 0.0625
Info: NONBONDED TABLE SIZE: 705 POINTS
TCL: Running for 1500000 steps
ETITLE: TS BOND ANGLE DIHED IMPRP ELECT VDW BOUNDARY MISC KINETIC TOTAL TEMP POTENTIAL TOTALAVG TEMPAVG PRESSURE GPRESSURE VOLUME PRESSAVG GPRESSAVG
ENERGY: 0 1.0385 6.2370 2.1718 0.0000 -10605.7927 1375.1390 0.0000 0.0000 1697.1590 -7524.0475 288.3353 -9221.2064 -7524.0475 288.3353 -666.8942 -584.3180 30798.5297 -666.8942 -584.3180
ENERGY: 300000 1.5338 5.0251 1.0647 0.0000 -10787.5987 1528.9886 0.0000 0.0000 1812.7617 -7438.2248 307.9754 -9250.9865 -7482.8565 300.8292 646.3380 707.9199 30527.1476 -4.9450 30.4634
ENERGY: 600000 0.6021 4.7034 1.2054 0.0000 -10887.6207 1530.2564 0.0000 0.0000 1707.3381 -7643.5153 290.0647 -9350.8533 -7494.7217 300.4505 740.5261 823.2758 29726.8453 45.1444 99.0944
ENERGY: 900000 1.2456 3.7255 0.1548 0.0000 -10845.7545 1511.7993 0.0000 0.0000 1756.7862 -7572.0431 298.4656 -9328.8292 -7498.3709 301.7627 489.0261 517.0423 30134.4514 136.4875 183.5672
ENERGY: 1200000 1.0205 7.5712 0.2226 0.0000 -10742.9003 1463.4536 0.0000 0.0000 1808.6613 -7461.9710 307.2788 -9270.6323 -7499.0449 302.4511 -89.2352 -71.0744 30778.2260 76.5752 114.4790
ENERGY: 1500000 0.8569 6.6789 1.2723 0.0000 -10701.5488 1403.6203 0.0000 0.0000 1714.4434 -7574.6771 291.2718 -9289.1204 -7511.5679 301.1346 -550.6026 -487.3082 30333.6260 -122.2446 -84.7701
TCL: Running FEP window  10: Lambda1 0.44999999999999996 Lambda2 0.49999999999999994 [dLambda 0.04999999999999999]
TCL: Setting parameter firsttimestep to 0
TCL: Setting parameter alchLambda to 0.44999999999999996
Info: NONBONDED TABLE R-SQUARED SPACING: 0.0625
Info: NONBONDED TABLE SIZE: 705 POINTS
TCL: Setting parameter alchLambda2 to 0.49999999999999994
Info: NONBONDED TABLE R-SQUARED SPACING: 0.0625
Info: NONBONDED TABLE SIZE: 705 POINTS
TCL: Running for 1500000 steps
ETITLE: TS BOND ANGLE DIHED IMPRP ELECT VDW BOUNDARY MISC KINETIC TOTAL TEMP POTENTIAL TOTALAVG TEMPAVG PRESSURE GPRESSURE VOLUME PRESSAVG GPRESSAVG
ENERGY: 0 0.8569 6.6789 1.2723 0.0000 -10701.5488 1405.6482 0.0000 0.0000 1713.5447 -7573.5478 291.1191 -9287.0925 -7573.5478 291.1191 -544.1016 -467.6965 30333.6260 -544.1016 -467.6965
ENERGY: 300000 1.8331 6.1038 1.6545 0.0000 -10644.7672 1381.4647 0.0000 0.0000 1789.0677 -7464.6434 303.9500 -9253.7111 -7537.1030 300.6650 -673.7375 -509.6826 30738.9001 -155.9844 -64.8081
ENERGY: 600000 1.2985 6.9168 0.6640 0.0000 -10600.2535 1353.4553 0.0000 0.0000 1763.7421 -7474.1769 299.6473 -9237.9190 -7545.8191 299.4056 -494.6379 -511.6827 30493.0017 -44.0826 18.1557
ENERGY: 900000 0.7175 5.4858 0.4167 0.0000 -10741.9769 1474.4996 0.0000 0.0000 1732.3417 -7528.5156 294.3126 -9260.8573 -7538.9143 299.2603 -59.5210 17.0606 30933.4980 -71.9963 -9.4228
ENERGY: 1200000 4.8020 6.4229 0.9390 0.0000 -10672.7170 1395.1094 0.0000 0.0000 1783.3517 -7482.0922 302.9789 -9265.4438 -7526.7765 299.9118 -465.1090 -389.2103 30370.7214 39.6770 104.2999
ENERGY: 1500000 1.9492 6.0892 3.4193 0.0000 -10763.8686 1491.5197 0.0000 0.0000 1757.5996 -7503.2916 298.6038 -9260.8912 -7520.3394 300.0813 154.4142 248.9168 30684.5855 16.1088 84.7186
TCL: Running FEP window  11: Lambda1 0.49999999999999994 Lambda2 0.5499999999999999 [dLambda 0.04999999999999999]
TCL: Setting parameter firsttimestep to 0
TCL: Setting parameter alchLambda to 0.49999999999999994
Info: NONBONDED TABLE R-SQUARED SPACING: 0.0625
Info: NONBONDED TABLE SIZE: 705 POINTS
TCL: Setting parameter alchLambda2 to 0.5499999999999999
Info: NONBONDED TABLE R-SQUARED SPACING: 0.0625
Info: NONBONDED TABLE SIZE: 705 POINTS
TCL: Running for 1500000 steps
ETITLE: TS BOND ANGLE DIHED IMPRP ELECT VDW BOUNDARY MISC KINETIC TOTAL TEMP POTENTIAL TOTALAVG TEMPAVG PRESSURE GPRESSURE VOLUME PRESSAVG GPRESSAVG
ENERGY: 0 1.9492 6.0892 3.4193 0.0000 -10763.8684 1492.3013 0.0000 0.0000 1756.7445 -7503.3650 298.4585 -9260.1094 -7503.3650 298.4585 187.1480 262.8484 30684.5855 187.1480 262.8484
ENERGY: 300000 0.5474 4.4583 1.0060 0.0000 -10655.3541 1413.4959 0.0000 0.0000 1755.3762 -7480.4704 298.2260 -9235.8465 -7507.9757 299.5485 -261.0718 -169.9146 30683.3295 56.8551 111.2895
ENERGY: 600000 0.4192 4.9478 0.7356 0.0000 -10858.1032 1539.3770 0.0000 0.0000 1777.6450 -7534.9786 302.0093 -9312.6236 -7514.4591 299.2951 740.9725 753.7676 30142.3467 127.0848 166.1260
ENERGY: 900000 0.8012 6.2560 2.7326 0.0000 -10771.1183 1454.7420 0.0000 0.0000 1753.0982 -7553.4884 297.8390 -9306.5866 -7507.6500 298.8635 8.6200 117.5873 30163.3604 46.6133 105.7964
ENERGY: 1200000 0.9400 7.4436 1.4496 0.0000 -10912.1833 1523.9999 0.0000 0.0000 1779.8427 -7598.5075 302.3827 -9378.3502 -7527.8224 298.7377 424.3640 489.5384 30043.1799 8.8028 66.1693
ENERGY: 1500000 1.8424 7.5366 0.3726 0.0000 -10746.1853 1461.5467 0.0000 0.0000 1762.4723 -7512.4147 299.4316 -9274.8870 -7525.5759 299.4551 214.8969 253.5887 30170.4127 48.9798 109.3179
TCL: Running FEP window  12: Lambda1 0.5499999999999999 Lambda2 0.6    [dLambda 0.050000000000000044]
TCL: Setting parameter firsttimestep to 0
TCL: Setting parameter alchLambda to 0.5499999999999999
Info: NONBONDED TABLE R-SQUARED SPACING: 0.0625
Info: NONBONDED TABLE SIZE: 705 POINTS
TCL: Setting parameter alchLambda2 to 0.6
Info: NONBONDED TABLE R-SQUARED SPACING: 0.0625
Info: NONBONDED TABLE SIZE: 705 POINTS
TCL: Running for 1500000 steps
ETITLE: TS BOND ANGLE DIHED IMPRP ELECT VDW BOUNDARY MISC KINETIC TOTAL TEMP POTENTIAL TOTALAVG TEMPAVG PRESSURE GPRESSURE VOLUME PRESSAVG GPRESSAVG
ENERGY: 0 1.8424 7.5366 0.3726 0.0000 -10746.2765 1461.1009 0.0000 0.0000 1761.5939 -7513.8301 299.2824 -9275.4241 -7513.8301 299.2824 181.2058 254.9720 30170.4127 181.2058 254.9720
ENERGY: 300000 2.4235 5.5251 0.8250 0.0000 -10740.5242 1451.1129 0.0000 0.0000 1738.4839 -7542.1539 295.3561 -9280.6378 -7533.6393 299.4039 -42.0119 24.3447 30330.6670 38.8616 102.2671
ENERGY: 600000 1.7488 5.4243 0.1930 0.0000 -10748.7198 1453.8433 0.0000 0.0000 1783.3888 -7504.1215 302.9852 -9287.5103 -7513.6185 300.8613 -127.5708 -73.3753 30505.0289 15.3810 69.8636
ENERGY: 900000 0.6477 6.9865 0.2185 0.0000 -10628.0078 1369.0577 0.0000 0.0000 1827.9744 -7423.1230 310.5600 -9251.0974 -7499.1149 302.0755 -319.2477 -258.4986 30159.0211 65.2713 121.8080
ENERGY: 1200000 2.1955 7.5173 0.5373 0.0000 -10768.8040 1494.1169 0.0000 0.0000 1789.6282 -7474.8089 304.0452 -9264.4371 -7499.4713 302.0747 567.6277 622.0498 30301.9091 162.0112 217.2599
ENERGY: 1500000 0.3728 9.2276 1.2096 0.0000 -10665.0646 1396.9752 0.0000 0.0000 1734.2377 -7523.0418 294.6347 -9257.2795 -7510.2624 300.3641 -206.7537 -107.5286 30219.9700 145.5721 202.3766
TCL: Running FEP window  13: Lambda1 0.6    Lambda2 0.65   [dLambda 0.050000000000000044]
TCL: Setting parameter firsttimestep to 0
TCL: Setting parameter alchLambda to 0.6
Info: NONBONDED TABLE R-SQUARED SPACING: 0.0625
Info: NONBONDED TABLE SIZE: 705 POINTS
TCL: Setting parameter alchLambda2 to 0.65
Info: NONBONDED TABLE R-SQUARED SPACING: 0.0625
Info: NONBONDED TABLE SIZE: 705 POINTS
TCL: Running for 1500000 steps
ETITLE: TS BOND ANGLE DIHED IMPRP ELECT VDW BOUNDARY MISC KINETIC TOTAL TEMP POTENTIAL TOTALAVG TEMPAVG PRESSURE GPRESSURE VOLUME PRESSAVG GPRESSAVG
ENERGY: 0 0.3728 9.2276 1.2096 0.0000 -10665.0842 1396.9022 0.0000 0.0000 1733.3608 -7524.0112 294.4858 -9257.3720 -7524.0112 294.4858 -189.5922 -100.3714 30219.9700 -189.5922 -100.3714
ENERGY: 300000 0.3048 7.8599 0.2024 0.0000 -10672.3982 1449.4667 0.0000 0.0000 1770.8918 -7443.6727 300.8620 -9214.5645 -7494.1631 297.6927 122.9600 116.3138 30715.0913 138.2123 195.7858
ENERGY: 600000 0.9150 7.0258 0.9918 0.0000 -10570.5303 1362.8091 0.0000 0.0000 1830.7495 -7368.0390 311.0314 -9198.7885 -7488.4108 300.6067 -425.4403 -402.0321 30778.0756 -40.6875 17.4339
ENERGY: 900000 0.4391 7.7117 1.6779 0.0000 -10862.8231 1568.0770 0.0000 0.0000 1775.3386 -7509.5790 301.6175 -9284.9175 -7490.2519 300.7644 943.4560 968.8354 30409.6590 -0.9161 60.7028
ENERGY: 1200000 0.7166 4.5536 1.5310 0.0000 -10577.9384 1366.8961 0.0000 0.0000 1722.0304 -7482.2107 292.5608 -9204.2411 -7486.0943 300.3186 -494.0328 -407.1821 30454.8055 -115.0789 -51.2356
ENERGY: 1500000 0.5283 5.8060 0.3710 0.0000 -10819.6797 1523.9318 0.0000 0.0000 1787.0199 -7502.0228 303.6021 -9289.0427 -7486.6041 300.4642 740.2354 778.1688 30174.5892 -100.2215 -40.1240
TCL: Running FEP window  14: Lambda1 0.65   Lambda2 0.7000000000000001 [dLambda 0.050000000000000044]
TCL: Setting parameter firsttimestep to 0
TCL: Setting parameter alchLambda to 0.65
Info: NONBONDED TABLE R-SQUARED SPACING: 0.0625
Info: NONBONDED TABLE SIZE: 705 POINTS
TCL: Setting parameter alchLambda2 to 0.7000000000000001
Info: NONBONDED TABLE R-SQUARED SPACING: 0.0625
Info: NONBONDED TABLE SIZE: 705 POINTS
TCL: Running for 1500000 steps
ETITLE: TS BOND ANGLE DIHED IMPRP ELECT VDW BOUNDARY MISC KINETIC TOTAL TEMP POTENTIAL TOTALAVG TEMPAVG PRESSURE GPRESSURE VOLUME PRESSAVG GPRESSAVG
ENERGY: 0 0.5283 5.8060 0.3710 0.0000 -10819.6899 1523.7592 0.0000 0.0000 1786.1274 -7503.0979 303.4504 -9289.2254 -7503.0979 303.4504 713.2045 780.3479 30174.5892 713.2045 780.3479
ENERGY: 300000 1.2019 7.5608 1.4564 0.0000 -10660.8091 1412.5699 0.0000 0.0000 1762.2995 -7475.7206 299.4023 -9238.0201 -7491.0300 302.0546 -9.4665 43.9045 30214.9879 170.5629 225.9854
ENERGY: 600000 2.4738 4.6842 0.6777 0.0000 -10636.9559 1380.6941 0.0000 0.0000 1770.5753 -7477.8507 300.8083 -9248.4260 -7500.1127 301.4789 -492.8179 -400.3246 30501.0877 145.3505 205.6895
ENERGY: 900000 1.3758 5.8673 0.6436 0.0000 -10738.6396 1440.6298 0.0000 0.0000 1688.5586 -7601.5645 286.8742 -9290.1231 -7517.9645 299.8307 93.1897 134.1427 30238.5957 26.3721 89.3487
ENERGY: 1200000 0.6990 6.1787 3.2645 0.0000 -10731.2858 1440.0710 0.0000 0.0000 1771.1494 -7509.9231 300.9058 -9281.0725 -7515.5654 300.1497 -386.3191 -259.9571 30811.9943 -27.5038 42.2700
ENERGY: 1500000 1.7109 6.1993 0.2612 0.0000 -10659.2771 1445.8640 0.0000 0.0000 1758.9907 -7446.2511 298.8401 -9205.2418 -7510.7083 299.9154 -89.4142 28.1649 30773.0401 11.1135 82.6233
TCL: Running FEP window  15: Lambda1 0.7000000000000001 Lambda2 0.7500000000000001 [dLambda 0.050000000000000044]
TCL: Setting parameter firsttimestep to 0
TCL: Setting parameter alchLambda to 0.7000000000000001
Info: NONBONDED TABLE R-SQUARED SPACING: 0.0625
Info: NONBONDED TABLE SIZE: 705 POINTS
TCL: Setting parameter alchLambda2 to 0.7500000000000001
Info: NONBONDED TABLE R-SQUARED SPACING: 0.0625
Info: NONBONDED TABLE SIZE: 705 POINTS
TCL: Running for 1500000 steps
ETITLE: TS BOND ANGLE DIHED IMPRP ELECT VDW BOUNDARY MISC KINETIC TOTAL TEMP POTENTIAL TOTALAVG TEMPAVG PRESSURE GPRESSURE VOLUME PRESSAVG GPRESSAVG
ENERGY: 0 1.7109 6.1993 0.2612 0.0000 -10659.2928 1445.4968 0.0000 0.0000 1758.1274 -7447.4974 298.6934 -9205.6248 -7447.4974 298.6934 -58.3665 30.3340 30773.0401 -58.3665 30.3340
ENERGY: 300000 0.4070 2.5329 0.8831 0.0000 -10772.2983 1454.5835 0.0000 0.0000 1753.2718 -7560.6199 297.8685 -9313.8917 -7503.2532 300.6675 41.3890 161.5717 30425.1954 72.7507 172.4822
ENERGY: 600000 1.1900 6.3348 0.6841 0.0000 -10789.5077 1487.3981 0.0000 0.0000 1738.7274 -7555.1733 295.3975 -9293.9007 -7505.0331 299.8326 202.7274 274.6318 30389.4588 135.3941 205.8961
ENERGY: 900000 1.7254 6.6441 0.9722 0.0000 -10746.4939 1485.6376 0.0000 0.0000 1774.6301 -7476.8844 301.4971 -9251.5145 -7509.8073 300.1730 -27.8838 152.0171 30883.1676 39.7853 119.5447
ENERGY: 1200000 1.2085 8.0438 1.1816 0.0000 -10736.0082 1433.2405 0.0000 0.0000 1725.0955 -7567.2383 293.0815 -9292.3338 -7507.4208 299.8121 -425.5230 -307.9842 30466.7376 -26.5014 56.2581
ENERGY: 1500000 1.8352 7.2688 0.9050 0.0000 -10727.5629 1460.3649 0.0000 0.0000 1708.8405 -7548.3485 290.3199 -9257.1890 -7508.3251 299.2118 101.8099 160.1558 30521.5034 -39.2723 46.6025
TCL: Running FEP window  16: Lambda1 0.7500000000000001 Lambda2 0.8000000000000002 [dLambda 0.050000000000000044]
TCL: Setting parameter firsttimestep to 0
TCL: Setting parameter alchLambda to 0.7500000000000001
Info: NONBONDED TABLE R-SQUARED SPACING: 0.0625
Info: NONBONDED TABLE SIZE: 705 POINTS
TCL: Setting parameter alchLambda2 to 0.8000000000000002
Info: NONBONDED TABLE R-SQUARED SPACING: 0.0625
Info: NONBONDED TABLE SIZE: 705 POINTS
TCL: Running for 1500000 steps
ETITLE: TS BOND ANGLE DIHED IMPRP ELECT VDW BOUNDARY MISC KINETIC TOTAL TEMP POTENTIAL TOTALAVG TEMPAVG PRESSURE GPRESSURE VOLUME PRESSAVG GPRESSAVG
ENERGY: 0 1.8352 7.2688 0.9050 0.0000 -10727.5673 1460.3088 0.0000 0.0000 1707.9462 -7549.3033 290.1680 -9257.2495 -7549.3033 290.1680 76.8146 164.6931 30521.5034 76.8146 164.6931
ENERGY: 300000 1.8262 5.1753 0.3825 0.0000 -10543.2036 1318.6231 0.0000 0.0000 1780.5822 -7436.6143 302.5083 -9217.1965 -7523.4965 296.8808 -870.6273 -805.6670 30549.5421 -65.8609 5.7021
ENERGY: 600000 0.0798 6.8742 0.7051 0.0000 -10741.0670 1452.5650 0.0000 0.0000 1761.9427 -7518.9002 299.3416 -9280.8429 -7529.2183 299.7525 61.4269 118.5434 30376.6713 -50.4645 13.7515
ENERGY: 900000 1.2706 6.0146 0.4296 0.0000 -10805.6735 1432.8304 0.0000 0.0000 1770.7123 -7594.4159 300.8315 -9365.1282 -7524.4004 300.4936 -297.6381 -229.1037 30287.2268 31.0681 94.7845
ENERGY: 1200000 0.1090 5.3492 0.4452 0.0000 -10710.8753 1389.3358 0.0000 0.0000 1717.2508 -7598.3853 291.7488 -9315.6361 -7528.3810 299.1263 -521.7574 -379.1397 30363.6331 -76.0411 1.8904
ENERGY: 1500000 0.2849 7.4385 0.4868 0.0000 -10684.7452 1435.7677 0.0000 0.0000 1773.0463 -7467.7210 301.2281 -9240.7673 -7509.5099 299.8266 208.6057 191.9377 30345.1498 -52.8373 19.5489
TCL: Running FEP window  17: Lambda1 0.8000000000000002 Lambda2 0.8500000000000002 [dLambda 0.050000000000000044]
TCL: Setting parameter firsttimestep to 0
TCL: Setting parameter alchLambda to 0.8000000000000002
Info: NONBONDED TABLE R-SQUARED SPACING: 0.0625
Info: NONBONDED TABLE SIZE: 705 POINTS
TCL: Setting parameter alchLambda2 to 0.8500000000000002
Info: NONBONDED TABLE R-SQUARED SPACING: 0.0625
Info: NONBONDED TABLE SIZE: 705 POINTS
TCL: Running for 1500000 steps
ETITLE: TS BOND ANGLE DIHED IMPRP ELECT VDW BOUNDARY MISC KINETIC TOTAL TEMP POTENTIAL TOTALAVG TEMPAVG PRESSURE GPRESSURE VOLUME PRESSAVG GPRESSAVG
ENERGY: 0 0.2849 7.4385 0.4868 0.0000 -10684.7633 1435.8248 0.0000 0.0000 1772.1504 -7468.5780 301.0758 -9240.7283 -7468.5780 301.0758 119.1736 198.6045 30345.1498 119.1736 198.6045
ENERGY: 300000 0.7137 6.1589 0.2947 0.0000 -10761.5009 1501.5805 0.0000 0.0000 1776.9988 -7475.7543 301.8995 -9252.7531 -7496.5761 304.2207 585.1301 633.2257 30382.3708 242.0871 309.5267
ENERGY: 600000 0.4120 7.3655 0.5070 0.0000 -10752.6599 1458.7210 0.0000 0.0000 1733.7334 -7551.9210 294.5491 -9285.6544 -7515.8531 302.0686 -16.3572 50.8561 30428.0221 34.6706 94.2912
ENERGY: 900000 0.3037 8.0858 1.8861 0.0000 -10900.1656 1537.1961 0.0000 0.0000 1773.1048 -7579.5891 301.2380 -9352.6939 -7510.5036 302.1249 580.1882 646.1731 30396.8770 61.8697 124.2310
ENERGY: 1200000 1.0212 5.9790 0.6611 0.0000 -10847.8181 1575.5216 0.0000 0.0000 1806.6756 -7457.9596 306.9414 -9264.6352 -7518.2680 302.0511 859.9132 958.4959 30618.9954 103.9719 164.4319
ENERGY: 1500000 0.5652 4.2165 1.9153 0.0000 -10819.9340 1516.0720 0.0000 0.0000 1781.4550 -7515.7100 302.6566 -9297.1650 -7513.2531 302.2044 305.6989 395.1820 30838.6390 122.7766 185.0616
TCL: Running FEP window  18: Lambda1 0.8500000000000002 Lambda2 0.9000000000000002 [dLambda 0.050000000000000044]
TCL: Setting parameter firsttimestep to 0
TCL: Setting parameter alchLambda to 0.8500000000000002
Info: NONBONDED TABLE R-SQUARED SPACING: 0.0625
Info: NONBONDED TABLE SIZE: 705 POINTS
TCL: Setting parameter alchLambda2 to 0.9000000000000002
Info: NONBONDED TABLE R-SQUARED SPACING: 0.0625
Info: NONBONDED TABLE SIZE: 705 POINTS
TCL: Running for 1500000 steps
ETITLE: TS BOND ANGLE DIHED IMPRP ELECT VDW BOUNDARY MISC KINETIC TOTAL TEMP POTENTIAL TOTALAVG TEMPAVG PRESSURE GPRESSURE VOLUME PRESSAVG GPRESSAVG
ENERGY: 0 0.5652 4.2165 1.9153 0.0000 -10819.9444 1516.0655 0.0000 0.0000 1780.5757 -7516.6061 302.5072 -9297.1818 -7516.6061 302.5072 325.7323 399.1297 30838.6390 325.7323 399.1297
ENERGY: 300000 2.2892 6.5582 0.3449 0.0000 -10730.0273 1428.1574 0.0000 0.0000 1751.6884 -7540.9892 297.5995 -9292.6776 -7548.2150 297.9327 -412.9707 -378.2784 30842.9527 -412.4513 -343.0332
ENERGY: 600000 0.4774 8.3355 0.4992 0.0000 -10647.6518 1379.5348 0.0000 0.0000 1790.1676 -7468.6375 304.1368 -9258.8051 -7527.9166 299.2532 -588.2332 -512.3635 30859.1790 -339.8005 -276.4371
ENERGY: 900000 0.6788 6.8662 0.6077 0.0000 -10624.5215 1380.2264 0.0000 0.0000 1771.6828 -7464.4595 300.9964 -9236.1424 -7521.2996 300.3510 -481.2123 -393.1486 30736.0859 -292.4445 -226.0125
ENERGY: 1200000 0.3381 8.5898 1.0466 0.0000 -10764.5228 1425.9590 0.0000 0.0000 1782.6221 -7545.9672 302.8549 -9328.5893 -7515.3678 301.2729 -259.7704 -195.8906 30408.9885 -284.9666 -219.3144
ENERGY: 1500000 0.6177 6.1186 0.3876 0.0000 -10665.7066 1413.3257 0.0000 0.0000 1759.6343 -7485.6228 298.9494 -9245.2571 -7506.6968 301.7457 72.3586 124.9547 30304.9744 -281.3331 -216.8586
TCL: Running FEP window  19: Lambda1 0.9000000000000002 Lambda2 0.9500000000000003 [dLambda 0.050000000000000044]
TCL: Setting parameter firsttimestep to 0
TCL: Setting parameter alchLambda to 0.9000000000000002
Info: NONBONDED TABLE R-SQUARED SPACING: 0.0625
Info: NONBONDED TABLE SIZE: 705 POINTS
TCL: Setting parameter alchLambda2 to 0.9500000000000003
Info: NONBONDED TABLE R-SQUARED SPACING: 0.0625
Info: NONBONDED TABLE SIZE: 705 POINTS
TCL: Running for 1500000 steps
ETITLE: TS BOND ANGLE DIHED IMPRP ELECT VDW BOUNDARY MISC KINETIC TOTAL TEMP POTENTIAL TOTALAVG TEMPAVG PRESSURE GPRESSURE VOLUME PRESSAVG GPRESSAVG
ENERGY: 0 0.6177 6.1186 0.3876 0.0000 -10665.7219 1413.4035 0.0000 0.0000 1758.7671 -7486.4275 298.8021 -9245.1946 -7486.4275 298.8021 59.7150 136.5729 30304.9744 59.7150 136.5729
ENERGY: 300000 0.7145 6.3468 1.3448 0.0000 -10795.5040 1449.0652 0.0000 0.0000 1696.3413 -7641.6912 288.1964 -9338.0326 -7524.9727 294.6242 -104.4536 -45.5113 30152.1028 -24.2963 39.2395
ENERGY: 600000 1.2880 7.1118 0.2549 0.0000 -10780.5576 1503.6440 0.0000 0.0000 1793.8639 -7474.3950 304.7648 -9268.2588 -7524.1755 296.8893 878.9507 864.2258 29938.4294 168.1355 234.4169
ENERGY: 900000 0.5911 5.0508 1.1983 0.0000 -10776.4108 1440.3075 0.0000 0.0000 1708.3572 -7620.9059 290.2378 -9329.2631 -7532.8396 297.4134 -384.6926 -347.2060 30895.3984 -24.6555 47.0889
ENERGY: 1200000 3.7652 4.6149 1.4688 0.0000 -10684.9015 1415.0811 0.0000 0.0000 1724.0829 -7535.8885 292.9095 -9259.9714 -7523.3668 297.9825 -356.2944 -284.4777 30919.1551 -112.2333 -48.0314
ENERGY: 1500000 0.0511 5.2652 0.1461 0.0000 -10687.3517 1451.1082 0.0000 0.0000 1774.4025 -7456.3785 301.4585 -9230.7811 -7514.7545 297.7819 232.4199 264.0617 30626.4284 -11.2329 49.6232
TCL: Running FEP window  20: Lambda1 0.9500000000000003 Lambda2 1.0    [dLambda 0.04999999999999971]
TCL: Setting parameter firsttimestep to 0
TCL: Setting parameter alchLambda to 0.9500000000000003
Info: NONBONDED TABLE R-SQUARED SPACING: 0.0625
Info: NONBONDED TABLE SIZE: 705 POINTS
TCL: Setting parameter alchLambda2 to 1.0
Info: NONBONDED TABLE R-SQUARED SPACING: 0.0625
Info: NONBONDED TABLE SIZE: 705 POINTS
TCL: Running for 1500000 steps
ETITLE: TS BOND ANGLE DIHED IMPRP ELECT VDW BOUNDARY MISC KINETIC TOTAL TEMP POTENTIAL TOTALAVG TEMPAVG PRESSURE GPRESSURE VOLUME PRESSAVG GPRESSAVG
ENERGY: 0 0.0511 5.2652 0.1461 0.0000 -10687.3512 1451.6993 0.0000 0.0000 1773.5249 -7456.6645 301.3094 -9230.1894 -7456.6645 301.3094 203.0665 282.9949 30626.4284 203.0665 282.9949
ENERGY: 300000 3.2371 3.3639 0.8118 0.0000 -10592.1005 1390.5605 0.0000 0.0000 1746.3773 -7447.7498 296.6972 -9194.1272 -7474.2154 299.1126 -459.3926 -461.2525 30958.3375 -248.9686 -182.5397
ENERGY: 600000 0.3817 4.9224 1.7128 0.0000 -10814.3502 1481.8402 0.0000 0.0000 1820.7732 -7504.7198 309.3365 -9325.4930 -7502.3554 299.4170 420.1791 448.5303 30195.3824 -36.3550 33.7735
ENERGY: 900000 3.3884 9.7291 0.4621 0.0000 -10676.2253 1406.3162 0.0000 0.0000 1851.6393 -7404.6902 314.5804 -9256.3295 -7496.3915 300.0758 -208.4352 -157.0043 30508.0297 -66.7951 2.0590
ENERGY: 1200000 0.3601 9.7612 0.4600 0.0000 -10745.6422 1416.2382 0.0000 0.0000 1762.6097 -7556.2130 299.4549 -9318.8227 -7509.3816 300.3986 -208.4449 -213.1617 30473.4332 -42.7259 19.1081
ENERGY: 1500000 1.3721 5.9966 2.4739 0.0000 -10865.5799 1597.0254 0.0000 0.0000 1769.9818 -7488.7301 300.7074 -9258.7119 -7506.9800 300.4848 1126.4565 1265.1360 30296.5148 -16.6051 54.5229
TCL: Exiting due to exit command.
