Info: SIMULATION PARAMETERS:
Info: TIMESTEP               2
Info: NUMBER OF STEPS        0
Info: STEPS PER CYCLE        10
Info: PERIODIC CELL BASIS 1  40.176 0 0
Info: PERIODIC CELL BASIS 2  0 40.343 0
Info: PERIODIC CELL BASIS 3  0 0 42.247
Info: PERIODIC CELL CENTER   0 0 0
Info: WRAPPING WATERS AROUND PERIODIC BOUNDARIES ON OUTPUT.
Info: WRAPPING ALL CLUSTERS AROUND PERIODIC BOUNDARIES ON OUTPUT.
Info: FIRST LDB TIMESTEP     50
Info: LAST LDB TIMESTEP     -1
Info: HOM BACKGROUND SCALING 1
Info: PME BACKGROUND SCALING 1
Info: MIN ATOMS PER PATCH    40
Info: EMPTY PATCH LOAD       40 ATOMS
Info: INITIAL TEMPERATURE    300
Info: CENTER OF MASS MOVING INITIALLY? NO
Info: DIELECTRIC             1
Info: EXCLUDE                SCALED ONE-FOUR
Info: 1-4 ELECTROSTATICS SCALED BY 0.833333
Info: MODIFIED 1-4 VDW PARAMETERS WILL BE USED
Info: DCD FILENAME           mobley_6812653_min.dcd
Info: DCD FREQUENCY          5000
Info: DCD FIRST STEP         5000
Info: DCD FILE WILL CONTAIN UNIT CELL DATA
Info: XST FILENAME           mobley_6812653_min.xst
Info: XST FREQUENCY          5000
Info: NO VELOCITY DCD OUTPUT
Info: NO FORCE DCD OUTPUT
Info: OUTPUT FILENAME        mobley_6812653_min
Info: BINARY OUTPUT FILES WILL BE USED
Info: RESTART FILENAME       mobley_6812653_min.restart
Info: RESTART FREQUENCY      5000
Info: BINARY RESTART FILES WILL BE USED
Info: CUTOFF                 9
Info: PAIRLIST DISTANCE      11
Info: PAIRLIST SHRINK RATE   0.01
Info: PAIRLIST GROW RATE     0.01
Info: PAIRLIST TRIGGER       0.3
Info: PAIRLISTS PER CYCLE    2
Info: PAIRLISTS ENABLED
Info: MARGIN                 8
Info: HYDROGEN GROUP CUTOFF  2.5
Info: PATCH DIMENSION        21.5
Info: ENERGY OUTPUT STEPS    5000
Info: ENERGY EVALUATION STEPS    5000
Info: OUTPUT ENERGY PRECISION 4
Info: CROSSTERM ENERGY INCLUDED IN DIHEDRAL
Info: TIMING OUTPUT STEPS    50000
Info: PRESSURE OUTPUT STEPS  5000
Info: LANGEVIN DYNAMICS ACTIVE
Info: LANGEVIN TEMPERATURE   300
Info: LANGEVIN USING BBK INTEGRATOR
Info: LANGEVIN DAMPING COEFFICIENT IS 1 INVERSE PS
Info: LANGEVIN DYNAMICS APPLIED TO HYDROGENS
Info: LANGEVIN PISTON PRESSURE CONTROL ACTIVE
Info:        TARGET PRESSURE IS 1.01325 BAR
Info:     OSCILLATION PERIOD IS 50 FS
Info:             DECAY TIME IS 25 FS
Info:     PISTON TEMPERATURE IS 300 K
Info:       PRESSURE CONTROL IS GROUP-BASED
Info:    INITIAL STRAIN RATE IS 0 0 0
Info:       CELL FLUCTUATION IS ISOTROPIC
Info: PARTICLE MESH EWALD (PME) ACTIVE
Info: PME TOLERANCE               1e-06
Info: PME EWALD COEFFICIENT       0.348832
Info: PME INTERPOLATION ORDER     4
Info: PME GRID DIMENSIONS         44 44 44
Info: PME MAXIMUM GRID SPACING    1
Info: FULL ELECTROSTATIC EVALUATION FREQUENCY      2
Info: USING VERLET I (r-RESPA) MTS SCHEME.
Info: C1 SPLITTING OF LONG RANGE ELECTROSTATICS
Info: PLACING ATOMS IN PATCHES BY HYDROGEN GROUPS
Info: RIGID BONDS TO HYDROGEN : ALL
Info:         ERROR TOLERANCE : 1e-08
Info:          MAX ITERATIONS : 100
Info: RIGID WATER USING SETTLE ALGORITHM
Info: RANDOM NUMBER SEED     1741384705
Info: USE HYDROGEN BONDS?    NO
Info: Using AMBER format force field!
Info: AMBER PARM FILE        mobley_6812653.prmtop
Info: COORDINATE PDB         mobley_6812653.pdb
Info: Exclusions will be read from PARM file!
Info: SCNB (VDW SCALING)     2
Info: USING ARITHMETIC MEAN TO COMBINE L-J SIGMA PARAMETERS
Info: SUMMARY OF PARAMETERS:
Info: 4 BONDS
Info: 3 ANGLES
Info:   3 HARMONIC
Info:   0 COSINE-BASED
Info: 3 DIHEDRAL
Info: 0 IMPROPER
Info: 0 CROSSTERM
Info: 0 VDW
Info: 10 VDW_PAIRS
Info: 0 NBTHOLE_PAIRS
Info: STRUCTURE SUMMARY:
Info: 5048 ATOMS
Info: 5047 BONDS
Info: 36 ANGLES
Info: 45 DIHEDRALS
Info: 0 IMPROPERS
Info: 0 CROSSTERMS
Info: 5128 EXCLUSIONS
Info: 5042 RIGID BONDS
Info: 10102 DEGREES OF FREEDOM
Info: 1682 HYDROGEN GROUPS
Info: 4 ATOMS IN LARGEST HYDROGEN GROUP
Info: 1682 MIGRATION GROUPS
Info: 4 ATOMS IN LARGEST MIGRATION GROUP
Info: TOTAL MASS = 30281 amu
Info: TOTAL CHARGE = 0.000399999 e
Info: MASS DENSITY = 0.734342 g/cm^3
Info: ATOM DENSITY = 0.0737206 atoms/A^3
Info: ADDED 0 IMPLICIT EXCLUSIONS
Info: NONBONDED TABLE R-SQUARED SPACING: 0.0625
Info: NONBONDED TABLE SIZE: 705 POINTS
Info: REMOVING COM VELOCITY -0.0365499 0.0742987 0.110972
TCL: Minimizing for 2000 steps
ETITLE: TS BOND ANGLE DIHED IMPRP ELECT VDW BOUNDARY MISC KINETIC TOTAL TEMP POTENTIAL TOTAL3 TEMPAVG PRESSURE GPRESSURE VOLUME PRESSAVG GPRESSAVG
ENERGY: 0 0.1385 0.2588 0.0153 0.0000 -15931.5205 1802.0219 0.0000 0.0000 0.0000 -14129.0859 0.0000 -14129.0859 -14129.0859 0.0000 11458.1688 -16340.3618 68474.7981 11458.1688 -16340.3618
ENERGY: 400 44.3464 22.9645 0.3059 0.0000 -21516.7523 3276.2804 0.0000 0.0000 0.0000 -18172.8550 0.0000 -18172.8550 -18172.8550 0.0000 17026.9491 16764.2053 68474.7981 17026.9491 16764.2053
ENERGY: 800 0.8596 0.4315 0.0189 0.0000 -22280.7621 3544.2690 0.0000 0.0000 0.0000 -18735.1832 0.0000 -18735.1832 -18735.1832 0.0000 18276.2297 18048.3580 68474.7981 18276.2297 18048.3580
ENERGY: 1200 0.4389 0.4447 0.0271 0.0000 -22693.2261 3746.8386 0.0000 0.0000 0.0000 -18945.4767 0.0000 -18945.4767 -18945.4767 0.0000 19265.0927 19055.3816 68474.7981 19265.0927 19055.3816
ENERGY: 1600 0.3733 0.3584 0.0211 0.0000 -23039.3541 3928.1902 0.0000 0.0000 0.0000 -19110.4110 0.0000 -19110.4110 -19110.4110 0.0000 20168.1096 19908.3117 68474.7981 20168.1096 19908.3117
ENERGY: 2000 0.1816 0.2921 0.0319 0.0000 -23145.0591 3958.2499 0.0000 0.0000 0.0000 -19186.3037 0.0000 -19186.3037 -19186.3037 0.0000 20339.9354 20031.5349 68474.7981 20339.9354 20031.5349
TCL: Exiting due to exit command.
Info: NAMD 3.0.1 for Linux-x86_64-multicore
Info: Please visit http://www.ks.uiuc.edu/Research/namd/
Info: for updates, documentation, and support information.
Info: Please cite Phillips et al., J. Chem. Phys. 153:044130 (2020) doi:10.1063/5.0014475
Info: in all publications reporting results obtained with NAMD.
Info: Based on Charm++/Converse 80000 for multicore-linux-x86_64-gcc
Info: Built Mon Oct 14 11:11:06 CDT 2024 by dhardy on athine.ks.uiuc.edu
Info: 1 NAMD  3.0.1  Linux-x86_64-multicore  16    k012  z5358697
Info: Running on 16 processors, 1 nodes, 1 physical nodes.
Info: CPU topology information available.
Info: Charm++/Converse parallel runtime startup completed at 0.00962196 s
Info: 1043.45 MB of memory in use based on /proc/self/stat
Info: Configuration file is mobley_6812653_equil.namd
Info: Working in the current directory /srv/scratch/z5358697/prod_prep_8/6812653
TCL: Running 25000 steps at 30 kelvin.
TCL: Suspending until startup complete.
Info: SIMULATION PARAMETERS:
Info: TIMESTEP               2
Info: NUMBER OF STEPS        0
Info: STEPS PER CYCLE        10
Info: PERIODIC CELL BASIS 1  40.176 0 0
Info: PERIODIC CELL BASIS 2  0 40.343 0
Info: PERIODIC CELL BASIS 3  0 0 42.247
Info: PERIODIC CELL CENTER   0 0 0
Info: WRAPPING WATERS AROUND PERIODIC BOUNDARIES ON OUTPUT.
Info: WRAPPING ALL CLUSTERS AROUND PERIODIC BOUNDARIES ON OUTPUT.
Info: FIRST LDB TIMESTEP     50
Info: LAST LDB TIMESTEP     -1
Info: HOM BACKGROUND SCALING 1
Info: PME BACKGROUND SCALING 1
Info: MIN ATOMS PER PATCH    40
Info: EMPTY PATCH LOAD       40 ATOMS
Info: INITIAL TEMPERATURE    300
Info: CENTER OF MASS MOVING INITIALLY? NO
Info: DIELECTRIC             1
Info: EXCLUDE                SCALED ONE-FOUR
Info: 1-4 ELECTROSTATICS SCALED BY 0.833333
Info: MODIFIED 1-4 VDW PARAMETERS WILL BE USED
Info: DCD FILENAME           mobley_6812653_equil.dcd
Info: DCD FREQUENCY          5000
Info: DCD FIRST STEP         5000
Info: DCD FILE WILL CONTAIN UNIT CELL DATA
Info: XST FILENAME           mobley_6812653_equil.xst
Info: XST FREQUENCY          5000
Info: NO VELOCITY DCD OUTPUT
Info: NO FORCE DCD OUTPUT
Info: OUTPUT FILENAME        mobley_6812653_equil
Info: BINARY OUTPUT FILES WILL BE USED
Info: RESTART FILENAME       mobley_6812653_equil.restart
Info: RESTART FREQUENCY      5000
Info: BINARY RESTART FILES WILL BE USED
Info: CUTOFF                 9
Info: PAIRLIST DISTANCE      11
Info: PAIRLIST SHRINK RATE   0.01
Info: PAIRLIST GROW RATE     0.01
Info: PAIRLIST TRIGGER       0.3
Info: PAIRLISTS PER CYCLE    2
Info: PAIRLISTS ENABLED
Info: MARGIN                 8
Info: HYDROGEN GROUP CUTOFF  2.5
Info: PATCH DIMENSION        21.5
Info: ENERGY OUTPUT STEPS    5000
Info: ENERGY EVALUATION STEPS    5000
Info: OUTPUT ENERGY PRECISION 4
Info: CROSSTERM ENERGY INCLUDED IN DIHEDRAL
Info: TIMING OUTPUT STEPS    50000
Info: PRESSURE OUTPUT STEPS  5000
Info: LANGEVIN DYNAMICS ACTIVE
Info: LANGEVIN TEMPERATURE   30
Info: LANGEVIN USING BBK INTEGRATOR
Info: LANGEVIN DAMPING COEFFICIENT IS 1 INVERSE PS
Info: LANGEVIN DYNAMICS APPLIED TO HYDROGENS
Info: LANGEVIN PISTON PRESSURE CONTROL ACTIVE
Info:        TARGET PRESSURE IS 1.01325 BAR
Info:     OSCILLATION PERIOD IS 50 FS
Info:             DECAY TIME IS 25 FS
Info:     PISTON TEMPERATURE IS 300 K
Info:       PRESSURE CONTROL IS GROUP-BASED
Info:    INITIAL STRAIN RATE IS 0 0 0
Info:       CELL FLUCTUATION IS ISOTROPIC
Info: PARTICLE MESH EWALD (PME) ACTIVE
Info: PME TOLERANCE               1e-06
Info: PME EWALD COEFFICIENT       0.348832
Info: PME INTERPOLATION ORDER     4
Info: PME GRID DIMENSIONS         44 44 44
Info: PME MAXIMUM GRID SPACING    1
Info: FULL ELECTROSTATIC EVALUATION FREQUENCY      2
Info: USING VERLET I (r-RESPA) MTS SCHEME.
Info: C1 SPLITTING OF LONG RANGE ELECTROSTATICS
Info: PLACING ATOMS IN PATCHES BY HYDROGEN GROUPS
Info: RIGID BONDS TO HYDROGEN : ALL
Info:         ERROR TOLERANCE : 1e-08
Info:          MAX ITERATIONS : 100
Info: RIGID WATER USING SETTLE ALGORITHM
Info: RANDOM NUMBER SEED     1741384721
Info: USE HYDROGEN BONDS?    NO
Info: Using AMBER format force field!
Info: AMBER PARM FILE        mobley_6812653.prmtop
Info: COORDINATE PDB         mobley_6812653.pdb
Info: Exclusions will be read from PARM file!
Info: SCNB (VDW SCALING)     2
Info: USING ARITHMETIC MEAN TO COMBINE L-J SIGMA PARAMETERS
Info: BINARY COORDINATES     mobley_6812653_min.coor
Info: SUMMARY OF PARAMETERS:
Info: 4 BONDS
Info: 3 ANGLES
Info:   3 HARMONIC
Info:   0 COSINE-BASED
Info: 3 DIHEDRAL
Info: 0 IMPROPER
Info: 0 CROSSTERM
Info: 0 VDW
Info: 10 VDW_PAIRS
Info: 0 NBTHOLE_PAIRS
Info: STRUCTURE SUMMARY:
Info: 5048 ATOMS
Info: 5047 BONDS
Info: 36 ANGLES
Info: 45 DIHEDRALS
Info: 0 IMPROPERS
Info: 0 CROSSTERMS
Info: 5128 EXCLUSIONS
Info: 5042 RIGID BONDS
Info: 10102 DEGREES OF FREEDOM
Info: 1682 HYDROGEN GROUPS
Info: 4 ATOMS IN LARGEST HYDROGEN GROUP
Info: 1682 MIGRATION GROUPS
Info: 4 ATOMS IN LARGEST MIGRATION GROUP
Info: TOTAL MASS = 30281 amu
Info: TOTAL CHARGE = 0.000399999 e
Info: MASS DENSITY = 0.734342 g/cm^3
Info: ATOM DENSITY = 0.0737206 atoms/A^3
Info: ADDED 0 IMPLICIT EXCLUSIONS
Info: NONBONDED TABLE R-SQUARED SPACING: 0.0625
Info: NONBONDED TABLE SIZE: 705 POINTS
Info: REMOVING COM VELOCITY -0.113057 0.0556894 -0.0679163
TCL: Running for 25000 steps
ETITLE: TS BOND ANGLE DIHED IMPRP ELECT VDW BOUNDARY MISC KINETIC TOTAL TEMP POTENTIAL TOTAL3 TEMPAVG PRESSURE GPRESSURE VOLUME PRESSAVG GPRESSAVG
ENERGY: 0 0.1816 0.2921 0.0319 0.0000 -23145.0591 3958.2499 0.0000 0.0000 2987.8586 -16198.4451 297.6755 -19186.3037 -16197.7872 297.6755 93.9697 125.8902 68474.7981 93.9697 125.8902
ENERGY: 5000 0.1975 0.8599 0.1906 0.0000 -24234.7123 4193.2157 0.0000 0.0000 305.0272 -19735.2213 30.3894 -20040.2486 -19734.5600 47.5009 97.9266 148.1578 48681.3616 3.7314 3.5098
ENERGY: 10000 0.2281 0.9105 0.1408 0.0000 -24451.2542 4369.9309 0.0000 0.0000 297.6007 -19782.4430 29.6495 -20080.0438 -19781.7425 30.3034 821.2700 882.3436 48543.2918 1.6123 1.7110
ENERGY: 15000 0.1896 1.2583 0.0841 0.0000 -24379.9431 4261.3904 0.0000 0.0000 307.5870 -19809.4338 30.6444 -20117.0208 -19808.4981 30.4063 204.8838 261.1203 48595.5720 6.6652 6.6960
ENERGY: 20000 0.0657 1.2479 0.1316 0.0000 -24458.9566 4312.1296 0.0000 0.0000 302.3901 -19842.9917 30.1266 -20145.3819 -19842.0382 30.3330 424.2395 485.9602 48388.4015 -0.1372 0.1816
ENERGY: 25000 0.0611 0.9990 0.0677 0.0000 -24304.0126 4155.7719 0.0000 0.0000 303.1632 -19843.9498 30.2037 -20147.1130 -19842.9071 30.1107 -356.2800 -297.3091 48554.0953 2.7570 2.7578
TCL: Running 25000 steps at 60 kelvin.
TCL: Setting parameter langevinTemp to 60
TCL: Running for 25000 steps
ETITLE: TS BOND ANGLE DIHED IMPRP ELECT VDW BOUNDARY MISC KINETIC TOTAL TEMP POTENTIAL TOTAL3 TEMPAVG PRESSURE GPRESSURE VOLUME PRESSAVG GPRESSAVG
ENERGY: 25000 0.0611 0.9990 0.0677 0.0000 -24304.0126 4155.7719 0.0000 0.0000 303.0130 -19844.1000 30.1887 -20147.1130 -19843.4282 30.1887 -350.4424 -297.1564 48554.0953 -350.4424 -297.1564
ENERGY: 30000 0.5212 3.0453 0.3342 0.0000 -23933.5764 4070.2378 0.0000 0.0000 607.1098 -19252.3281 60.4854 -19859.4379 -19250.3413 56.9240 -150.6343 -92.5997 48739.3908 2.1070 1.8031
ENERGY: 35000 0.1720 2.6032 0.5681 0.0000 -24030.8875 4155.8106 0.0000 0.0000 610.8581 -19260.8755 60.8588 -19871.7336 -19258.8881 60.4776 205.6035 275.0567 48691.1242 4.0800 3.9920
ENERGY: 40000 0.1000 1.9263 0.4397 0.0000 -24131.2391 4235.8516 0.0000 0.0000 591.0410 -19301.8805 58.8844 -19892.9215 -19299.9786 60.0044 650.9756 706.1396 48366.3734 4.3079 4.1625
ENERGY: 45000 0.2250 1.5794 0.2994 0.0000 -24008.0576 4092.9721 0.0000 0.0000 611.7724 -19301.2092 60.9499 -19912.9817 -19299.6505 59.9829 -107.9091 -37.9030 48482.3393 5.0169 4.9032
ENERGY: 50000 0.5150 1.5774 0.3096 0.0000 -24123.1368 4189.0183 0.0000 0.0000 616.4411 -19315.2754 61.4150 -19931.7165 -19313.8771 60.2231 306.3063 386.8195 48365.4372 6.1028 6.0994
TCL: Running 25000 steps at 90 kelvin.
TCL: Setting parameter langevinTemp to 90
TCL: Running for 25000 steps
ETITLE: TS BOND ANGLE DIHED IMPRP ELECT VDW BOUNDARY MISC KINETIC TOTAL TEMP POTENTIAL TOTAL3 TEMPAVG PRESSURE GPRESSURE VOLUME PRESSAVG GPRESSAVG
ENERGY: 50000 0.5150 1.5774 0.3096 0.0000 -24123.1368 4189.0183 0.0000 0.0000 616.1428 -19315.5736 61.3853 -19931.7165 -19314.2978 61.3853 334.0611 386.7993 48365.4372 334.0611 386.7993
ENERGY: 55000 0.5728 1.9947 0.2057 0.0000 -23526.3291 3910.6085 0.0000 0.0000 874.7635 -18738.1839 87.1513 -19612.9474 -18735.7263 86.9333 -341.5390 -324.1550 48904.3421 -1.8041 -1.5757
ENERGY: 60000 0.1985 2.3619 0.2092 0.0000 -23692.1238 4027.9834 0.0000 0.0000 918.5597 -18742.8112 91.5146 -19661.3709 -18741.0309 90.7699 110.0362 124.5863 48747.7757 3.9288 4.0516
ENERGY: 65000 0.7946 2.8335 0.5052 0.0000 -23719.6875 4028.6803 0.0000 0.0000 893.8184 -18793.0555 89.0497 -19686.8739 -18790.4844 90.1903 47.7824 89.2560 48611.4883 -2.6075 -2.5281
ENERGY: 70000 1.1744 4.1220 0.7472 0.0000 -23719.4580 4004.6795 0.0000 0.0000 907.9852 -18800.7498 90.4611 -19708.7349 -18798.6662 89.4690 -70.6616 -42.0924 48495.2090 -0.1882 0.0177
ENERGY: 75000 0.6625 2.9525 0.7817 0.0000 -23709.3075 3989.7156 0.0000 0.0000 917.2223 -18797.9729 91.3814 -19715.1952 -18794.1753 89.3674 -177.1548 -126.0046 48649.9946 4.1843 4.2957
TCL: Running 25000 steps at 120 kelvin.
TCL: Setting parameter langevinTemp to 120
TCL: Running for 25000 steps
ETITLE: TS BOND ANGLE DIHED IMPRP ELECT VDW BOUNDARY MISC KINETIC TOTAL TEMP POTENTIAL TOTAL3 TEMPAVG PRESSURE GPRESSURE VOLUME PRESSAVG GPRESSAVG
ENERGY: 75000 0.6625 2.9525 0.7817 0.0000 -23709.3075 3989.7156 0.0000 0.0000 916.7879 -18798.4073 91.3381 -19715.1952 -18796.2494 91.3381 -181.2365 -125.5832 48649.9946 -181.2365 -125.5832
ENERGY: 80000 0.4322 4.9700 0.7236 0.0000 -23492.2776 4124.9543 0.0000 0.0000 1245.5616 -18115.6359 124.0933 -19361.1975 -18113.2903 117.9410 1298.5410 1317.3153 48557.9162 0.4292 0.1870
ENERGY: 85000 1.0782 3.3232 0.8469 0.0000 -23292.6717 3894.3689 0.0000 0.0000 1204.2465 -18188.8081 119.9771 -19393.0545 -18186.1560 120.6838 8.9329 64.8375 48974.0558 0.7695 0.8892
ENERGY: 90000 1.1003 3.9842 0.5044 0.0000 -23308.2499 3875.1026 0.0000 0.0000 1234.2508 -18193.3075 122.9664 -19427.5584 -18190.4625 119.8857 -88.6741 2.6639 48731.1076 3.3384 3.5052
ENERGY: 95000 0.5204 3.2121 0.9269 0.0000 -23257.4170 3804.1282 0.0000 0.0000 1212.8279 -18235.8015 120.8321 -19448.6294 -18234.5031 119.8250 -541.2325 -477.6540 48977.5680 0.2777 0.4560
ENERGY: 100000 1.3461 5.2231 0.7624 0.0000 -23473.4840 4008.3261 0.0000 0.0000 1188.9654 -18268.8610 118.4547 -19457.8264 -18267.3984 119.1451 475.9431 515.0989 48627.6256 1.0322 0.9005
TCL: Running 25000 steps at 150 kelvin.
TCL: Setting parameter langevinTemp to 150
TCL: Running for 25000 steps
ETITLE: TS BOND ANGLE DIHED IMPRP ELECT VDW BOUNDARY MISC KINETIC TOTAL TEMP POTENTIAL TOTAL3 TEMPAVG PRESSURE GPRESSURE VOLUME PRESSAVG GPRESSAVG
ENERGY: 100000 1.3461 5.2231 0.7624 0.0000 -23473.4840 4008.3261 0.0000 0.0000 1188.3553 -18269.4710 118.3939 -19457.8264 -18267.2026 118.3939 456.5504 514.1793 48627.6256 456.5504 514.1793
ENERGY: 105000 0.6848 4.3204 0.1865 0.0000 -22792.5112 3723.5841 0.0000 0.0000 1515.9221 -17547.8134 151.0288 -19063.7355 -17543.9496 146.0989 -134.2487 -54.7469 49214.0803 -0.4041 -0.4492
ENERGY: 110000 1.8365 3.6310 0.6756 0.0000 -22876.5162 3781.8783 0.0000 0.0000 1548.4090 -17540.0857 154.2655 -19088.4947 -17537.6633 149.6867 43.4251 150.1412 49299.9967 5.6448 5.6898
ENERGY: 115000 0.4933 5.6060 0.6375 0.0000 -22839.8489 3740.1603 0.0000 0.0000 1514.0153 -17578.9365 150.8389 -19092.9518 -17575.1397 151.0370 -146.7498 -58.6861 49397.6353 4.6768 4.7768
ENERGY: 120000 1.5261 3.9683 0.8296 0.0000 -22933.7866 3800.4446 0.0000 0.0000 1511.0754 -17615.9426 150.5460 -19127.0180 -17610.5485 150.8623 51.6839 120.7428 49311.8719 -4.9561 -4.9759
ENERGY: 125000 1.2167 4.5632 0.3974 0.0000 -22765.7791 3618.9832 0.0000 0.0000 1480.6521 -17659.9664 147.5150 -19140.6185 -17657.3535 151.1187 -839.3578 -757.1304 49182.3940 3.9515 4.2365
TCL: Running 50000 steps at 180 kelvin.
TCL: Setting parameter langevinTemp to 180
TCL: Running for 50000 steps
ETITLE: TS BOND ANGLE DIHED IMPRP ELECT VDW BOUNDARY MISC KINETIC TOTAL TEMP POTENTIAL TOTAL3 TEMPAVG PRESSURE GPRESSURE VOLUME PRESSAVG GPRESSAVG
ENERGY: 125000 1.2167 4.5632 0.3974 0.0000 -22765.7791 3618.9832 0.0000 0.0000 1479.9151 -17660.7034 147.4415 -19140.6185 -17657.4075 147.4415 -824.9504 -757.7079 49182.3940 -824.9504 -757.7079
ENERGY: 135000 0.2282 5.0511 0.4421 0.0000 -22508.0206 3746.0983 0.0000 0.0000 1830.1282 -16926.0727 182.3327 -18756.2009 -16921.4088 180.4965 602.8204 668.1757 49426.5643 0.3112 0.6258
ENERGY: 145000 0.5073 6.2690 0.6172 0.0000 -22515.6139 3734.5362 0.0000 0.0000 1800.6652 -16973.0190 179.3973 -18773.6842 -16970.1643 179.5968 513.8328 593.2698 49216.9671 5.8216 5.1610
ENERGY: 155000 0.5762 6.1512 1.9561 0.0000 -22405.5841 3646.7394 0.0000 0.0000 1840.4439 -16909.7173 183.3604 -18750.1612 -16906.0042 179.9577 144.9266 222.0684 49266.9808 2.8674 3.1712
ENERGY: 165000 1.2179 5.0595 0.4119 0.0000 -22382.8405 3661.4898 0.0000 0.0000 1863.1032 -16851.5582 185.6179 -18714.6614 -16848.1656 180.4704 450.0394 467.0865 49002.5135 8.2312 7.9699
ENERGY: 175000 1.1866 4.2483 0.4971 0.0000 -22176.1895 3397.3476 0.0000 0.0000 1775.9817 -16996.9282 176.9382 -18772.9099 -16991.8754 179.3676 -1116.3726 -1052.6345 49519.2601 5.4409 5.8664
TCL: Running 50000 steps at 210 kelvin.
TCL: Setting parameter langevinTemp to 210
TCL: Running for 50000 steps
ETITLE: TS BOND ANGLE DIHED IMPRP ELECT VDW BOUNDARY MISC KINETIC TOTAL TEMP POTENTIAL TOTAL3 TEMPAVG PRESSURE GPRESSURE VOLUME PRESSAVG GPRESSAVG
ENERGY: 175000 1.1866 4.2483 0.4971 0.0000 -22176.1895 3397.3476 0.0000 0.0000 1775.1026 -16997.8074 176.8506 -18772.9099 -16994.7938 176.8506 -1130.1051 -1052.1970 49519.2601 -1130.1051 -1052.1970
ENERGY: 185000 1.8610 8.5272 1.1199 0.0000 -21563.8076 3487.7516 0.0000 0.0000 2051.8001 -16012.7478 204.4175 -18064.5479 -16008.9768 208.9208 843.5496 912.0263 49366.5241 3.9712 4.2152
ENERGY: 195000 0.7796 7.4703 1.4294 0.0000 -20985.7739 3054.8765 0.0000 0.0000 2115.5592 -15805.6589 210.7697 -17921.2180 -15801.3539 210.0964 -736.1726 -655.0994 49083.9116 3.0504 2.7690
ENERGY: 205000 1.1701 5.9973 0.5729 0.0000 -21103.6170 3145.1888 0.0000 0.0000 2082.7802 -15867.9078 207.5040 -17950.6880 -15863.3373 210.9665 -567.9854 -486.6295 49722.7729 3.0592 3.2914
ENERGY: 215000 1.6461 7.4034 0.9170 0.0000 -21133.7481 3182.1889 0.0000 0.0000 2131.6921 -15809.9006 212.3770 -17941.5928 -15806.0580 210.5743 -250.6411 -173.8161 49502.5621 0.1997 -0.4349
ENERGY: 225000 0.8586 9.6093 0.2523 0.0000 -21207.3744 3202.0151 0.0000 0.0000 2100.9157 -15893.7235 209.3108 -17994.6392 -15888.2644 209.7868 -426.9448 -312.4631 49576.4709 -3.2510 -2.7043
TCL: Running 50000 steps at 240 kelvin.
TCL: Setting parameter langevinTemp to 240
TCL: Running for 50000 steps
ETITLE: TS BOND ANGLE DIHED IMPRP ELECT VDW BOUNDARY MISC KINETIC TOTAL TEMP POTENTIAL TOTAL3 TEMPAVG PRESSURE GPRESSURE VOLUME PRESSAVG GPRESSAVG
ENERGY: 225000 0.8586 9.6093 0.2523 0.0000 -21207.3744 3202.0151 0.0000 0.0000 2099.8518 -15894.7874 209.2048 -17994.6392 -15890.7822 209.2048 -376.6386 -312.9436 49576.4709 -376.6386 -312.9436
ENERGY: 235000 3.3673 7.4971 1.1717 0.0000 -20099.1835 2867.3277 0.0000 0.0000 2405.6157 -14814.2040 239.6676 -17219.8197 -14808.7623 241.0504 -245.1447 -142.5564 49612.9109 2.1382 2.3151
ENERGY: 245000 1.9363 8.2046 1.9962 0.0000 -19931.7897 2802.1034 0.0000 0.0000 2434.4293 -14683.1199 242.5382 -17117.5492 -14677.0966 241.2262 -692.4068 -627.8437 50439.5199 -1.5477 -0.7091
ENERGY: 255000 1.2193 8.3473 1.5601 0.0000 -20140.8481 2922.3052 0.0000 0.0000 2399.5342 -14807.8819 239.0617 -17207.4161 -14806.1348 240.3338 -54.6589 46.0086 49626.3605 1.4565 1.4244
ENERGY: 265000 1.8582 11.2147 1.1206 0.0000 -20201.3116 2940.5038 0.0000 0.0000 2446.3162 -14800.2981 243.7225 -17246.6143 -14796.8062 241.0050 -11.5092 87.8229 49497.7524 1.9635 2.3748
ENERGY: 275000 0.7512 7.8890 0.7018 0.0000 -20281.5204 3065.5792 0.0000 0.0000 2457.4765 -14749.1227 244.8344 -17206.5992 -14744.7202 240.6936 588.6226 673.2592 49771.0570 0.8602 0.4122
TCL: Running 50000 steps at 270 kelvin.
TCL: Setting parameter langevinTemp to 270
TCL: Running for 50000 steps
ETITLE: TS BOND ANGLE DIHED IMPRP ELECT VDW BOUNDARY MISC KINETIC TOTAL TEMP POTENTIAL TOTAL3 TEMPAVG PRESSURE GPRESSURE VOLUME PRESSAVG GPRESSAVG
ENERGY: 275000 0.7512 7.8890 0.7018 0.0000 -20281.5204 3065.5792 0.0000 0.0000 2456.2903 -14750.3089 244.7162 -17206.5992 -14746.4186 244.7162 593.9377 672.1206 49771.0570 593.9377 672.1206
ENERGY: 285000 2.0255 10.0130 2.8578 0.0000 -19390.9544 2836.5307 0.0000 0.0000 2679.4535 -13860.0739 266.9496 -16539.5275 -13854.5199 268.9940 529.6115 614.1401 50746.3088 5.2453 5.1106
ENERGY: 295000 1.5832 11.4738 2.0418 0.0000 -19241.5841 2666.7410 0.0000 0.0000 2660.2408 -13899.5036 265.0354 -16559.7444 -13897.7205 269.2417 -228.5783 -144.9698 50440.3742 -0.4390 -0.6651
ENERGY: 305000 1.9362 12.1108 1.7990 0.0000 -19222.7341 2611.6124 0.0000 0.0000 2689.1746 -13906.1011 267.9181 -16595.2757 -13899.7452 270.6893 -586.1296 -455.6371 50582.6806 2.5250 2.9327
ENERGY: 315000 1.7445 10.9212 1.0959 0.0000 -19226.0745 2672.8778 0.0000 0.0000 2729.9695 -13809.4657 271.9824 -16539.4352 -13805.5671 269.8817 -175.8503 -73.9765 50682.9533 -1.4425 -2.2617
ENERGY: 325000 1.0039 6.7511 2.0673 0.0000 -19044.3888 2539.0638 0.0000 0.0000 2706.1824 -13789.3202 269.6125 -16495.5026 -13782.9179 270.1630 -580.2520 -484.5654 50535.6867 -0.1655 -0.6375
TCL: Running 1000000 steps at 300 kelvin.
TCL: Setting parameter langevinTemp to 300
TCL: Running for 1000000 steps
ETITLE: TS BOND ANGLE DIHED IMPRP ELECT VDW BOUNDARY MISC KINETIC TOTAL TEMP POTENTIAL TOTAL3 TEMPAVG PRESSURE GPRESSURE VOLUME PRESSAVG GPRESSAVG
ENERGY: 325000 1.0039 6.7511 2.0673 0.0000 -19044.3888 2539.0638 0.0000 0.0000 2704.8571 -13790.6455 269.4805 -16495.5026 -13786.3266 269.4805 -570.3779 -484.3374 50535.6867 -570.3779 -484.3374
ENERGY: 525000 1.8329 14.0096 1.2788 0.0000 -18251.8643 2380.1036 0.0000 0.0000 3072.2251 -12782.4142 306.0808 -15854.6394 -12777.6511 301.9553 -490.7781 -371.8155 51735.2404 0.6231 0.6116
ENERGY: 725000 2.4340 8.8555 1.3669 0.0000 -18349.8669 2418.0268 0.0000 0.0000 2959.8693 -12959.3144 294.8870 -15919.1837 -12951.4829 300.1987 -426.1142 -370.7135 52087.6802 9.8114 9.3810
ENERGY: 925000 1.9944 8.5014 1.5051 0.0000 -18247.5969 2351.9135 0.0000 0.0000 3087.5246 -12796.1579 307.6050 -15883.6825 -12788.1006 299.4102 -483.5665 -447.3681 51977.3113 -0.0095 -0.0538
ENERGY: 1125000 3.3276 7.4855 0.6305 0.0000 -18190.4238 2299.7393 0.0000 0.0000 3019.4392 -12859.8017 300.8218 -15879.2409 -12850.4244 300.3088 -828.3032 -770.3407 51899.5881 0.7800 0.5258
ENERGY: 1325000 3.5442 9.1007 2.1735 0.0000 -18261.3335 2468.5606 0.0000 0.0000 3084.9314 -12693.0231 307.3467 -15777.9545 -12685.8280 299.4839 83.3054 165.0919 51974.1713 6.5449 6.2860
TCL: Exiting due to exit command.
