Info: SIMULATION PARAMETERS:
Info: TIMESTEP               2
Info: NUMBER OF STEPS        0
Info: STEPS PER CYCLE        10
Info: PERIODIC CELL BASIS 1  41.545 0 0
Info: PERIODIC CELL BASIS 2  0 39.757 0
Info: PERIODIC CELL BASIS 3  0 0 40.136
Info: PERIODIC CELL CENTER   0 0 0
Info: WRAPPING WATERS AROUND PERIODIC BOUNDARIES ON OUTPUT.
Info: WRAPPING ALL CLUSTERS AROUND PERIODIC BOUNDARIES ON OUTPUT.
Info: FIRST LDB TIMESTEP     50
Info: LAST LDB TIMESTEP     -1
Info: HOM BACKGROUND SCALING 1
Info: PME BACKGROUND SCALING 1
Info: MIN ATOMS PER PATCH    40
Info: EMPTY PATCH LOAD       40 ATOMS
Info: INITIAL TEMPERATURE    300
Info: CENTER OF MASS MOVING INITIALLY? NO
Info: DIELECTRIC             1
Info: EXCLUDE                SCALED ONE-FOUR
Info: 1-4 ELECTROSTATICS SCALED BY 0.833333
Info: MODIFIED 1-4 VDW PARAMETERS WILL BE USED
Info: DCD FILENAME           mobley_8785107_min.dcd
Info: DCD FREQUENCY          5000
Info: DCD FIRST STEP         5000
Info: DCD FILE WILL CONTAIN UNIT CELL DATA
Info: XST FILENAME           mobley_8785107_min.xst
Info: XST FREQUENCY          5000
Info: NO VELOCITY DCD OUTPUT
Info: NO FORCE DCD OUTPUT
Info: OUTPUT FILENAME        mobley_8785107_min
Info: BINARY OUTPUT FILES WILL BE USED
Info: RESTART FILENAME       mobley_8785107_min.restart
Info: RESTART FREQUENCY      5000
Info: BINARY RESTART FILES WILL BE USED
Info: CUTOFF                 9
Info: PAIRLIST DISTANCE      11
Info: PAIRLIST SHRINK RATE   0.01
Info: PAIRLIST GROW RATE     0.01
Info: PAIRLIST TRIGGER       0.3
Info: PAIRLISTS PER CYCLE    2
Info: PAIRLISTS ENABLED
Info: MARGIN                 8
Info: HYDROGEN GROUP CUTOFF  2.5
Info: PATCH DIMENSION        21.5
Info: ENERGY OUTPUT STEPS    5000
Info: ENERGY EVALUATION STEPS    5000
Info: OUTPUT ENERGY PRECISION 4
Info: CROSSTERM ENERGY INCLUDED IN DIHEDRAL
Info: TIMING OUTPUT STEPS    50000
Info: PRESSURE OUTPUT STEPS  5000
Info: LANGEVIN DYNAMICS ACTIVE
Info: LANGEVIN TEMPERATURE   300
Info: LANGEVIN USING BBK INTEGRATOR
Info: LANGEVIN DAMPING COEFFICIENT IS 1 INVERSE PS
Info: LANGEVIN DYNAMICS APPLIED TO HYDROGENS
Info: LANGEVIN PISTON PRESSURE CONTROL ACTIVE
Info:        TARGET PRESSURE IS 1.01325 BAR
Info:     OSCILLATION PERIOD IS 50 FS
Info:             DECAY TIME IS 25 FS
Info:     PISTON TEMPERATURE IS 300 K
Info:       PRESSURE CONTROL IS GROUP-BASED
Info:    INITIAL STRAIN RATE IS 0 0 0
Info:       CELL FLUCTUATION IS ISOTROPIC
Info: PARTICLE MESH EWALD (PME) ACTIVE
Info: PME TOLERANCE               1e-06
Info: PME EWALD COEFFICIENT       0.348832
Info: PME INTERPOLATION ORDER     4
Info: PME GRID DIMENSIONS         44 40 44
Info: PME MAXIMUM GRID SPACING    1
Info: FULL ELECTROSTATIC EVALUATION FREQUENCY      2
Info: USING VERLET I (r-RESPA) MTS SCHEME.
Info: C1 SPLITTING OF LONG RANGE ELECTROSTATICS
Info: PLACING ATOMS IN PATCHES BY HYDROGEN GROUPS
Info: RIGID BONDS TO HYDROGEN : ALL
Info:         ERROR TOLERANCE : 1e-08
Info:          MAX ITERATIONS : 100
Info: RIGID WATER USING SETTLE ALGORITHM
Info: RANDOM NUMBER SEED     1741399580
Info: USE HYDROGEN BONDS?    NO
Info: Using AMBER format force field!
Info: AMBER PARM FILE        mobley_8785107.prmtop
Info: COORDINATE PDB         mobley_8785107.pdb
Info: Exclusions will be read from PARM file!
Info: SCNB (VDW SCALING)     2
Info: USING ARITHMETIC MEAN TO COMBINE L-J SIGMA PARAMETERS
Info: SUMMARY OF PARAMETERS:
Info: 6 BONDS
Info: 7 ANGLES
Info:   7 HARMONIC
Info:   0 COSINE-BASED
Info: 10 DIHEDRAL
Info: 0 IMPROPER
Info: 0 CROSSTERM
Info: 0 VDW
Info: 21 VDW_PAIRS
Info: 0 NBTHOLE_PAIRS
Info: STRUCTURE SUMMARY:
Info: 4837 ATOMS
Info: 4837 BONDS
Info: 37 ANGLES
Info: 69 DIHEDRALS
Info: 0 IMPROPERS
Info: 0 CROSSTERMS
Info: 4920 EXCLUSIONS
Info: 4830 RIGID BONDS
Info: 9681 DEGREES OF FREEDOM
Info: 1613 HYDROGEN GROUPS
Info: 4 ATOMS IN LARGEST HYDROGEN GROUP
Info: 1613 MIGRATION GROUPS
Info: 4 ATOMS IN LARGEST MIGRATION GROUP
Info: TOTAL MASS = 29033.9 amu
Info: TOTAL CHARGE = -0.000500023 e
Info: MASS DENSITY = 0.727273 g/cm^3
Info: ATOM DENSITY = 0.0729642 atoms/A^3
Info: ADDED 0 IMPLICIT EXCLUSIONS
Info: NONBONDED TABLE R-SQUARED SPACING: 0.0625
Info: NONBONDED TABLE SIZE: 705 POINTS
Info: REMOVING COM VELOCITY 0.0584374 -0.0301446 0.00179619
TCL: Minimizing for 2000 steps
ETITLE: TS BOND ANGLE DIHED IMPRP ELECT VDW BOUNDARY MISC KINETIC TOTAL TEMP POTENTIAL TOTAL3 TEMPAVG PRESSURE GPRESSURE VOLUME PRESSAVG GPRESSAVG
ENERGY: 0 0.5159 6.6988 14.7376 0.0000 -15177.9189 1723.5483 0.0000 0.0000 0.0000 -13432.4184 0.0000 -13432.4184 -13432.4184 0.0000 11253.4257 -16111.1358 66292.8144 11253.4257 -16111.1358
ENERGY: 400 3.3066 9.1776 15.1720 0.0000 -20648.5943 3121.8886 0.0000 0.0000 0.0000 -17499.0496 0.0000 -17499.0496 -17499.0496 0.0000 16736.2930 16493.4786 66292.8144 16736.2930 16493.4786
ENERGY: 800 4.8921 6.8929 14.8034 0.0000 -21616.4265 3613.2332 0.0000 0.0000 0.0000 -17976.6048 0.0000 -17976.6048 -17976.6048 0.0000 19044.9732 18858.9651 66292.8144 19044.9732 18858.9651
ENERGY: 1200 0.3190 4.7248 14.1249 0.0000 -21865.0099 3698.3491 0.0000 0.0000 0.0000 -18147.4922 0.0000 -18147.4922 -18147.4922 0.0000 19435.2645 19221.3587 66292.8144 19435.2645 19221.3587
ENERGY: 1600 0.2044 4.8785 14.1575 0.0000 -22128.6499 3843.3996 0.0000 0.0000 0.0000 -18266.0099 0.0000 -18266.0099 -18266.0099 0.0000 20202.5740 19995.1252 66292.8144 20202.5740 19995.1252
ENERGY: 2000 0.1309 4.5972 14.3182 0.0000 -22249.6266 3889.4791 0.0000 0.0000 0.0000 -18341.1013 0.0000 -18341.1013 -18341.1013 0.0000 20461.2299 20209.7506 66292.8144 20461.2299 20209.7506
TCL: Exiting due to exit command.
Info: NAMD 3.0.1 for Linux-x86_64-multicore
Info: Please visit http://www.ks.uiuc.edu/Research/namd/
Info: for updates, documentation, and support information.
Info: Please cite Phillips et al., J. Chem. Phys. 153:044130 (2020) doi:10.1063/5.0014475
Info: in all publications reporting results obtained with NAMD.
Info: Based on Charm++/Converse 80000 for multicore-linux-x86_64-gcc
Info: Built Mon Oct 14 11:11:06 CDT 2024 by dhardy on athine.ks.uiuc.edu
Info: 1 NAMD  3.0.1  Linux-x86_64-multicore  16    k018  z5358697
Info: Running on 16 processors, 1 nodes, 1 physical nodes.
Info: CPU topology information available.
Info: Charm++/Converse parallel runtime startup completed at 0.00554449 s
Info: 1043.45 MB of memory in use based on /proc/self/stat
Info: Configuration file is mobley_8785107_equil.namd
Info: Working in the current directory /srv/scratch/z5358697/prod_prep_11/8785107
TCL: Running 25000 steps at 30 kelvin.
TCL: Suspending until startup complete.
Info: SIMULATION PARAMETERS:
Info: TIMESTEP               2
Info: NUMBER OF STEPS        0
Info: STEPS PER CYCLE        10
Info: PERIODIC CELL BASIS 1  41.545 0 0
Info: PERIODIC CELL BASIS 2  0 39.757 0
Info: PERIODIC CELL BASIS 3  0 0 40.136
Info: PERIODIC CELL CENTER   0 0 0
Info: WRAPPING WATERS AROUND PERIODIC BOUNDARIES ON OUTPUT.
Info: WRAPPING ALL CLUSTERS AROUND PERIODIC BOUNDARIES ON OUTPUT.
Info: FIRST LDB TIMESTEP     50
Info: LAST LDB TIMESTEP     -1
Info: HOM BACKGROUND SCALING 1
Info: PME BACKGROUND SCALING 1
Info: MIN ATOMS PER PATCH    40
Info: EMPTY PATCH LOAD       40 ATOMS
Info: INITIAL TEMPERATURE    300
Info: CENTER OF MASS MOVING INITIALLY? NO
Info: DIELECTRIC             1
Info: EXCLUDE                SCALED ONE-FOUR
Info: 1-4 ELECTROSTATICS SCALED BY 0.833333
Info: MODIFIED 1-4 VDW PARAMETERS WILL BE USED
Info: DCD FILENAME           mobley_8785107_equil.dcd
Info: DCD FREQUENCY          5000
Info: DCD FIRST STEP         5000
Info: DCD FILE WILL CONTAIN UNIT CELL DATA
Info: XST FILENAME           mobley_8785107_equil.xst
Info: XST FREQUENCY          5000
Info: NO VELOCITY DCD OUTPUT
Info: NO FORCE DCD OUTPUT
Info: OUTPUT FILENAME        mobley_8785107_equil
Info: BINARY OUTPUT FILES WILL BE USED
Info: RESTART FILENAME       mobley_8785107_equil.restart
Info: RESTART FREQUENCY      5000
Info: BINARY RESTART FILES WILL BE USED
Info: CUTOFF                 9
Info: PAIRLIST DISTANCE      11
Info: PAIRLIST SHRINK RATE   0.01
Info: PAIRLIST GROW RATE     0.01
Info: PAIRLIST TRIGGER       0.3
Info: PAIRLISTS PER CYCLE    2
Info: PAIRLISTS ENABLED
Info: MARGIN                 8
Info: HYDROGEN GROUP CUTOFF  2.5
Info: PATCH DIMENSION        21.5
Info: ENERGY OUTPUT STEPS    5000
Info: ENERGY EVALUATION STEPS    5000
Info: OUTPUT ENERGY PRECISION 4
Info: CROSSTERM ENERGY INCLUDED IN DIHEDRAL
Info: TIMING OUTPUT STEPS    50000
Info: PRESSURE OUTPUT STEPS  5000
Info: LANGEVIN DYNAMICS ACTIVE
Info: LANGEVIN TEMPERATURE   30
Info: LANGEVIN USING BBK INTEGRATOR
Info: LANGEVIN DAMPING COEFFICIENT IS 1 INVERSE PS
Info: LANGEVIN DYNAMICS APPLIED TO HYDROGENS
Info: LANGEVIN PISTON PRESSURE CONTROL ACTIVE
Info:        TARGET PRESSURE IS 1.01325 BAR
Info:     OSCILLATION PERIOD IS 50 FS
Info:             DECAY TIME IS 25 FS
Info:     PISTON TEMPERATURE IS 300 K
Info:       PRESSURE CONTROL IS GROUP-BASED
Info:    INITIAL STRAIN RATE IS 0 0 0
Info:       CELL FLUCTUATION IS ISOTROPIC
Info: PARTICLE MESH EWALD (PME) ACTIVE
Info: PME TOLERANCE               1e-06
Info: PME EWALD COEFFICIENT       0.348832
Info: PME INTERPOLATION ORDER     4
Info: PME GRID DIMENSIONS         44 40 44
Info: PME MAXIMUM GRID SPACING    1
Info: FULL ELECTROSTATIC EVALUATION FREQUENCY      2
Info: USING VERLET I (r-RESPA) MTS SCHEME.
Info: C1 SPLITTING OF LONG RANGE ELECTROSTATICS
Info: PLACING ATOMS IN PATCHES BY HYDROGEN GROUPS
Info: RIGID BONDS TO HYDROGEN : ALL
Info:         ERROR TOLERANCE : 1e-08
Info:          MAX ITERATIONS : 100
Info: RIGID WATER USING SETTLE ALGORITHM
Info: RANDOM NUMBER SEED     1741399596
Info: USE HYDROGEN BONDS?    NO
Info: Using AMBER format force field!
Info: AMBER PARM FILE        mobley_8785107.prmtop
Info: COORDINATE PDB         mobley_8785107.pdb
Info: Exclusions will be read from PARM file!
Info: SCNB (VDW SCALING)     2
Info: USING ARITHMETIC MEAN TO COMBINE L-J SIGMA PARAMETERS
Info: BINARY COORDINATES     mobley_8785107_min.coor
Info: SUMMARY OF PARAMETERS:
Info: 6 BONDS
Info: 7 ANGLES
Info:   7 HARMONIC
Info:   0 COSINE-BASED
Info: 10 DIHEDRAL
Info: 0 IMPROPER
Info: 0 CROSSTERM
Info: 0 VDW
Info: 21 VDW_PAIRS
Info: 0 NBTHOLE_PAIRS
Info: STRUCTURE SUMMARY:
Info: 4837 ATOMS
Info: 4837 BONDS
Info: 37 ANGLES
Info: 69 DIHEDRALS
Info: 0 IMPROPERS
Info: 0 CROSSTERMS
Info: 4920 EXCLUSIONS
Info: 4830 RIGID BONDS
Info: 9681 DEGREES OF FREEDOM
Info: 1613 HYDROGEN GROUPS
Info: 4 ATOMS IN LARGEST HYDROGEN GROUP
Info: 1613 MIGRATION GROUPS
Info: 4 ATOMS IN LARGEST MIGRATION GROUP
Info: TOTAL MASS = 29033.9 amu
Info: TOTAL CHARGE = -0.000500023 e
Info: MASS DENSITY = 0.727273 g/cm^3
Info: ATOM DENSITY = 0.0729642 atoms/A^3
Info: ADDED 0 IMPLICIT EXCLUSIONS
Info: NONBONDED TABLE R-SQUARED SPACING: 0.0625
Info: NONBONDED TABLE SIZE: 705 POINTS
Info: REMOVING COM VELOCITY -0.0759926 -0.0630846 -0.0616729
TCL: Running for 25000 steps
ETITLE: TS BOND ANGLE DIHED IMPRP ELECT VDW BOUNDARY MISC KINETIC TOTAL TEMP POTENTIAL TOTAL3 TEMPAVG PRESSURE GPRESSURE VOLUME PRESSAVG GPRESSAVG
ENERGY: 0 0.1309 4.5972 14.3182 0.0000 -22249.6266 3889.4791 0.0000 0.0000 2987.8653 -15353.2359 310.6213 -18341.1013 -15352.6309 310.6213 429.5654 464.5277 66292.8144 429.5654 464.5277
ENERGY: 5000 0.1849 5.2060 14.5347 0.0000 -23306.0422 4070.8028 0.0000 0.0000 291.0912 -18924.2224 30.2621 -19215.3137 -18923.0074 48.3601 262.5132 325.5844 46420.4788 -3.1237 -3.0818
ENERGY: 10000 0.4310 4.1028 15.2420 0.0000 -23254.5021 3988.2805 0.0000 0.0000 291.6164 -18954.8294 30.3167 -19246.4458 -18953.9159 30.0831 -321.4031 -241.6693 46603.9371 5.7359 5.8212
ENERGY: 15000 0.4254 4.6010 14.7545 0.0000 -23199.4363 3930.7613 0.0000 0.0000 289.4582 -18959.4359 30.0923 -19248.8941 -18958.6456 30.0462 -549.4009 -492.3813 46568.9851 2.7361 2.6253
ENERGY: 20000 0.2867 4.2754 15.1893 0.0000 -23414.6193 4141.0802 0.0000 0.0000 291.2733 -18962.5144 30.2810 -19253.7877 -18961.9541 30.0239 594.4525 644.2131 46236.3131 9.4716 9.4885
ENERGY: 25000 0.7357 4.3489 15.1834 0.0000 -23354.7779 4067.9543 0.0000 0.0000 291.2028 -18975.3527 30.2737 -19266.5555 -18974.6077 30.2056 75.6589 136.5745 46434.5852 4.7766 4.8172
TCL: Running 25000 steps at 60 kelvin.
TCL: Setting parameter langevinTemp to 60
TCL: Running for 25000 steps
ETITLE: TS BOND ANGLE DIHED IMPRP ELECT VDW BOUNDARY MISC KINETIC TOTAL TEMP POTENTIAL TOTAL3 TEMPAVG PRESSURE GPRESSURE VOLUME PRESSAVG GPRESSAVG
ENERGY: 25000 0.7357 4.3489 15.1834 0.0000 -23354.7779 4067.9543 0.0000 0.0000 291.0627 -18975.4928 30.2591 -19266.5555 -18974.8414 30.2591 82.5260 136.5922 46434.5852 82.5260 136.5922
ENERGY: 30000 0.4553 5.5747 14.7465 0.0000 -22805.3164 3790.7361 0.0000 0.0000 584.4757 -18409.3280 60.7626 -18993.8037 -18407.9553 57.2892 -731.7471 -669.9779 47040.7869 8.1079 7.8626
ENERGY: 35000 0.1553 5.3467 15.3174 0.0000 -23181.1585 4114.1987 0.0000 0.0000 564.9964 -18481.1441 58.7375 -19046.1405 -18480.0173 60.4600 894.3040 969.3030 46279.6691 3.2067 3.1794
ENERGY: 40000 0.3393 5.1877 14.4425 0.0000 -23113.0671 4005.9328 0.0000 0.0000 571.1100 -18516.0549 59.3731 -19087.1649 -18514.2553 60.5243 295.9405 348.6545 46482.0950 2.5130 2.9192
ENERGY: 45000 0.5315 5.3789 15.0452 0.0000 -22953.0612 3861.6057 0.0000 0.0000 583.9237 -18486.5761 60.7053 -19070.4998 -18484.8774 60.3811 -518.8698 -470.9432 46751.7283 -0.7099 -0.7088
ENERGY: 50000 0.3043 5.2899 14.8166 0.0000 -23363.0117 4252.0133 0.0000 0.0000 585.8138 -18504.7738 60.9017 -19090.5876 -18503.8724 60.3995 1572.3965 1626.4817 46170.5266 4.9148 5.0215
TCL: Running 25000 steps at 90 kelvin.
TCL: Setting parameter langevinTemp to 90
TCL: Running for 25000 steps
ETITLE: TS BOND ANGLE DIHED IMPRP ELECT VDW BOUNDARY MISC KINETIC TOTAL TEMP POTENTIAL TOTAL3 TEMPAVG PRESSURE GPRESSURE VOLUME PRESSAVG GPRESSAVG
ENERGY: 50000 0.3043 5.2899 14.8166 0.0000 -23363.0117 4252.0133 0.0000 0.0000 585.5325 -18505.0551 60.8725 -19090.5876 -18503.8018 60.8725 1573.7748 1626.0605 46170.5266 1573.7748 1626.0605
ENERGY: 55000 1.1712 7.3177 14.8148 0.0000 -22719.8578 3902.2683 0.0000 0.0000 875.1847 -17919.1011 90.9850 -18794.2859 -17917.5790 87.2088 402.3136 483.8717 46622.5433 -1.9268 -1.7853
ENERGY: 60000 0.5340 7.6817 13.3889 0.0000 -22648.1788 3796.8351 0.0000 0.0000 893.0963 -17936.6429 92.8471 -18829.7391 -17934.5984 90.4999 -212.5434 -151.5664 46846.8355 1.3869 1.3958
ENERGY: 65000 0.8147 8.0748 13.3254 0.0000 -22769.2625 3906.0817 0.0000 0.0000 859.7354 -17981.2306 89.3789 -18840.9660 -17978.9620 90.3547 358.0567 425.8402 46601.2447 -0.8804 -0.8705
ENERGY: 70000 1.2940 6.3373 14.6135 0.0000 -22962.2953 4061.5230 0.0000 0.0000 871.5605 -18006.9669 90.6082 -18878.5274 -18005.0069 90.0818 1157.8578 1186.7092 46316.0157 10.1440 10.3211
ENERGY: 75000 0.5986 5.6383 15.1503 0.0000 -22738.9007 3810.5509 0.0000 0.0000 881.6481 -18025.3144 91.6570 -18906.9626 -18022.4060 89.9743 -231.5019 -187.5901 46681.3910 3.4608 3.3732
TCL: Running 25000 steps at 120 kelvin.
TCL: Setting parameter langevinTemp to 120
TCL: Running for 25000 steps
ETITLE: TS BOND ANGLE DIHED IMPRP ELECT VDW BOUNDARY MISC KINETIC TOTAL TEMP POTENTIAL TOTAL3 TEMPAVG PRESSURE GPRESSURE VOLUME PRESSAVG GPRESSAVG
ENERGY: 75000 0.5986 5.6383 15.1503 0.0000 -22738.9007 3810.5509 0.0000 0.0000 881.2293 -18025.7332 91.6134 -18906.9626 -18024.1880 91.6134 -238.3467 -186.8654 46681.3910 -238.3467 -186.8654
ENERGY: 80000 1.1224 6.9198 14.5897 0.0000 -22513.4020 3886.8906 0.0000 0.0000 1131.5234 -17472.3561 117.6342 -18603.8795 -17469.2598 115.9750 831.7746 906.6346 46685.5008 1.3671 1.6030
ENERGY: 85000 1.8614 7.5414 15.1478 0.0000 -22283.0344 3589.2228 0.0000 0.0000 1173.0484 -17496.2128 121.9512 -18669.2611 -17492.9269 120.0527 -767.2813 -735.2583 46821.2214 1.7834 2.3641
ENERGY: 90000 0.5077 7.1394 16.1654 0.0000 -22476.1948 3791.0407 0.0000 0.0000 1150.6713 -17510.6704 119.6249 -18661.3417 -17507.1784 119.3226 125.5203 187.3115 47069.2458 1.1928 1.0510
ENERGY: 95000 0.3359 7.8688 14.6608 0.0000 -22503.4900 3765.9903 0.0000 0.0000 1141.7345 -17572.8997 118.6958 -18714.6342 -17570.6968 119.0212 -223.8603 -138.5886 47219.3206 8.5396 8.5802
ENERGY: 100000 1.0424 8.0226 14.7096 0.0000 -22574.4273 3819.4601 0.0000 0.0000 1178.8918 -17552.3007 122.5587 -18731.1926 -17549.3731 120.1475 102.1542 188.1977 46991.2360 1.6292 1.5526
TCL: Running 25000 steps at 150 kelvin.
TCL: Setting parameter langevinTemp to 150
TCL: Running for 25000 steps
ETITLE: TS BOND ANGLE DIHED IMPRP ELECT VDW BOUNDARY MISC KINETIC TOTAL TEMP POTENTIAL TOTAL3 TEMPAVG PRESSURE GPRESSURE VOLUME PRESSAVG GPRESSAVG
ENERGY: 100000 1.0424 8.0226 14.7096 0.0000 -22574.4273 3819.4601 0.0000 0.0000 1178.3141 -17552.8784 122.4986 -18731.1926 -17550.3400 122.4986 136.6444 188.2460 46991.2360 136.6444 188.2460
ENERGY: 105000 1.6676 8.9538 14.4187 0.0000 -21996.4556 3658.8303 0.0000 0.0000 1421.4734 -16891.1119 147.7777 -18312.5853 -16887.5430 146.0605 166.8631 242.9574 47236.5678 3.4956 3.2584
ENERGY: 110000 1.4965 8.4981 15.1675 0.0000 -22006.0498 3660.3921 0.0000 0.0000 1430.1433 -16890.3523 148.6790 -18320.4956 -16886.2827 150.1110 132.3784 180.9391 47519.8486 -0.5041 -0.8622
ENERGY: 115000 0.6477 9.5909 13.8944 0.0000 -22062.0903 3641.3753 0.0000 0.0000 1452.9446 -16943.6373 151.0495 -18396.5819 -16941.7490 150.5483 -278.7290 -197.9845 47712.5318 4.7038 4.8291
ENERGY: 120000 1.7062 8.5385 14.6913 0.0000 -22031.5753 3655.2904 0.0000 0.0000 1425.6685 -16925.6804 148.2138 -18351.3489 -16923.1991 150.4877 41.3213 75.1926 47484.0174 0.2775 0.1940
ENERGY: 125000 2.4138 8.0889 14.2147 0.0000 -22114.3032 3703.9520 0.0000 0.0000 1414.3939 -16971.2399 147.0417 -18385.6338 -16966.6299 150.3139 70.5169 154.9111 47686.1240 0.3882 0.6583
TCL: Running 50000 steps at 180 kelvin.
TCL: Setting parameter langevinTemp to 180
TCL: Running for 50000 steps
ETITLE: TS BOND ANGLE DIHED IMPRP ELECT VDW BOUNDARY MISC KINETIC TOTAL TEMP POTENTIAL TOTAL3 TEMPAVG PRESSURE GPRESSURE VOLUME PRESSAVG GPRESSAVG
ENERGY: 125000 2.4138 8.0889 14.2147 0.0000 -22114.3032 3703.9520 0.0000 0.0000 1413.6956 -16971.9382 146.9691 -18385.6338 -16968.8044 146.9691 106.3956 154.4232 47686.1240 106.3956 154.4232
ENERGY: 135000 1.1860 8.9994 15.7367 0.0000 -21467.7951 3531.1882 0.0000 0.0000 1748.6237 -16162.0611 181.7885 -17910.6848 -16158.4624 180.3695 314.2141 375.7364 47668.9538 3.6730 4.0050
ENERGY: 145000 1.8223 6.9409 15.6750 0.0000 -21335.1504 3378.8326 0.0000 0.0000 1751.4880 -16180.3916 182.0863 -17931.8796 -16177.0969 181.3538 -461.3004 -365.0402 47805.8422 3.1995 3.3508
ENERGY: 155000 1.5953 10.1764 14.1728 0.0000 -21223.7058 3297.0032 0.0000 0.0000 1741.7628 -16158.9953 181.0753 -17900.7581 -16157.1468 181.3733 -674.9619 -631.9087 47450.8807 0.9050 0.9373
ENERGY: 165000 1.8643 10.8470 14.8284 0.0000 -21483.1362 3474.4028 0.0000 0.0000 1736.7439 -16244.4497 180.5535 -17981.1936 -16240.8786 180.6059 -164.0678 -87.2922 47652.2225 1.3472 1.9638
ENERGY: 175000 2.3631 11.0215 13.6209 0.0000 -21478.1198 3496.0156 0.0000 0.0000 1731.9497 -16223.1489 180.0551 -17955.0986 -16219.6951 179.9582 81.8598 153.0433 47593.2216 2.7005 2.7613
TCL: Running 50000 steps at 210 kelvin.
TCL: Setting parameter langevinTemp to 210
TCL: Running for 50000 steps
ETITLE: TS BOND ANGLE DIHED IMPRP ELECT VDW BOUNDARY MISC KINETIC TOTAL TEMP POTENTIAL TOTAL3 TEMPAVG PRESSURE GPRESSURE VOLUME PRESSAVG GPRESSAVG
ENERGY: 175000 2.3631 11.0215 13.6209 0.0000 -21478.1198 3496.0156 0.0000 0.0000 1731.1011 -16223.9975 179.9669 -17955.0986 -16220.9473 179.9669 91.6905 152.9737 47593.2216 91.6905 152.9737
ENERGY: 185000 1.8365 10.3474 15.8883 0.0000 -20374.2916 3079.1245 0.0000 0.0000 2070.0304 -15197.0644 215.2023 -17267.0949 -15192.4975 208.1901 -450.4235 -380.3244 47711.7675 5.6574 5.6637
ENERGY: 195000 0.5995 11.0799 14.5548 0.0000 -20529.7557 3184.5573 0.0000 0.0000 2009.1092 -15309.8551 208.8689 -17318.9643 -15305.9218 209.5664 395.2788 489.0428 46628.4265 0.9256 0.2666
ENERGY: 205000 1.4682 8.4896 15.6249 0.0000 -20364.6990 3046.2092 0.0000 0.0000 1994.8423 -15298.0648 207.3857 -17292.9071 -15292.9609 210.0055 -684.1560 -616.3776 47742.8715 1.7489 1.3527
ENERGY: 215000 2.1123 14.0967 15.1574 0.0000 -20290.5015 3009.5589 0.0000 0.0000 2000.4314 -15249.1448 207.9667 -17249.5761 -15244.5612 209.9314 -670.5097 -596.9219 47415.7870 6.6806 6.3622
ENERGY: 225000 0.8554 11.2426 15.1086 0.0000 -20513.9350 3183.7160 0.0000 0.0000 2035.3056 -15267.7069 211.5923 -17303.0125 -15264.1685 208.2303 78.7939 175.6677 47463.6584 1.4693 1.1866
TCL: Running 50000 steps at 240 kelvin.
TCL: Setting parameter langevinTemp to 240
TCL: Running for 50000 steps
ETITLE: TS BOND ANGLE DIHED IMPRP ELECT VDW BOUNDARY MISC KINETIC TOTAL TEMP POTENTIAL TOTAL3 TEMPAVG PRESSURE GPRESSURE VOLUME PRESSAVG GPRESSAVG
ENERGY: 225000 0.8554 11.2426 15.1086 0.0000 -20513.9350 3183.7160 0.0000 0.0000 2034.3001 -15268.7124 211.4877 -17303.0125 -15265.2983 211.4877 102.0264 175.3251 47463.6584 102.0264 175.3251
ENERGY: 235000 2.7174 12.0182 14.6125 0.0000 -19349.4046 2754.6206 0.0000 0.0000 2341.8488 -14223.5871 243.4608 -16565.4360 -14220.6401 238.8014 -455.9157 -365.8603 47747.1047 -1.8344 -2.0948
ENERGY: 245000 1.6214 14.3569 14.2745 0.0000 -19522.2944 2926.2279 0.0000 0.0000 2294.1504 -14271.6633 238.5020 -16565.8137 -14266.1870 239.6331 612.2050 686.6959 47028.0103 2.2442 2.2689
ENERGY: 255000 0.8749 10.4135 13.9388 0.0000 -19486.5827 2852.0555 0.0000 0.0000 2339.2664 -14270.0336 243.1923 -16609.2999 -14264.1850 239.9361 55.2968 160.7405 47365.7693 4.7433 4.3808
ENERGY: 265000 1.5936 10.4220 13.5082 0.0000 -19388.7702 2905.8141 0.0000 0.0000 2275.8408 -14181.5913 236.5985 -16457.4322 -14176.7978 240.7881 478.5389 494.1762 47970.6729 -1.4730 -0.7949
ENERGY: 275000 0.7407 9.5501 15.4041 0.0000 -19456.9455 2873.2119 0.0000 0.0000 2313.3096 -14244.7291 240.4938 -16558.0387 -14238.5368 240.8738 469.1387 552.3912 46838.5174 -0.2283 -0.1177
TCL: Running 50000 steps at 270 kelvin.
TCL: Setting parameter langevinTemp to 270
TCL: Running for 50000 steps
ETITLE: TS BOND ANGLE DIHED IMPRP ELECT VDW BOUNDARY MISC KINETIC TOTAL TEMP POTENTIAL TOTAL3 TEMPAVG PRESSURE GPRESSURE VOLUME PRESSAVG GPRESSAVG
ENERGY: 275000 0.7407 9.5501 15.4041 0.0000 -19456.9455 2873.2119 0.0000 0.0000 2312.1431 -14245.8955 240.3726 -16558.0387 -14242.6123 240.3726 464.5127 553.3347 46838.5174 464.5127 553.3347
ENERGY: 285000 2.2094 10.5758 15.0105 0.0000 -18384.7779 2565.0876 0.0000 0.0000 2582.8957 -13208.9988 268.5202 -15791.8946 -13204.2138 271.6790 -183.8787 -69.4004 49055.9946 4.0642 3.7053
ENERGY: 295000 0.6169 11.0854 15.2308 0.0000 -18459.2878 2567.1467 0.0000 0.0000 2647.0013 -13218.2067 275.1847 -15865.2080 -13212.3748 271.5887 4.9125 95.9804 48389.0199 3.0649 2.8318
ENERGY: 305000 1.8655 12.5484 14.8066 0.0000 -18404.7635 2521.6363 0.0000 0.0000 2600.1692 -13253.7375 270.3160 -15853.9067 -13247.8862 269.4449 -271.2721 -236.9416 48591.6646 0.0200 0.8746
ENERGY: 315000 0.5838 7.7097 16.2794 0.0000 -18545.2573 2613.5799 0.0000 0.0000 2611.6506 -13295.4539 271.5096 -15907.1045 -13287.1596 268.1527 58.2347 147.8576 48525.8105 5.1728 5.1564
ENERGY: 325000 2.4667 16.2345 14.5369 0.0000 -18357.5736 2538.3506 0.0000 0.0000 2654.8281 -13131.1567 275.9984 -15785.9848 -13127.3080 270.4028 -209.4787 -107.4860 48881.6237 5.6671 6.3475
TCL: Running 1000000 steps at 300 kelvin.
TCL: Setting parameter langevinTemp to 300
TCL: Running for 1000000 steps
ETITLE: TS BOND ANGLE DIHED IMPRP ELECT VDW BOUNDARY MISC KINETIC TOTAL TEMP POTENTIAL TOTAL3 TEMPAVG PRESSURE GPRESSURE VOLUME PRESSAVG GPRESSAVG
ENERGY: 325000 2.4667 16.2345 14.5369 0.0000 -18357.5736 2538.3506 0.0000 0.0000 2653.5011 -13132.4837 275.8604 -15785.9848 -13128.0003 275.8604 -200.7049 -109.7237 48881.6237 -200.7049 -109.7237
ENERGY: 525000 0.2575 13.3201 14.6069 0.0000 -17653.6971 2418.0003 0.0000 0.0000 2800.2769 -12407.2354 291.1194 -15207.5123 -12403.6113 300.1622 199.2142 271.8523 49700.3718 -1.0970 -1.1124
ENERGY: 725000 2.7959 12.9383 15.7433 0.0000 -17850.1688 2578.4624 0.0000 0.0000 2912.1307 -12328.0982 302.7478 -15240.2289 -12322.6157 298.8924 1054.1875 1114.7867 49302.2251 -0.5731 -1.0778
ENERGY: 925000 1.2757 8.9241 14.7565 0.0000 -17517.5880 2283.0449 0.0000 0.0000 2860.7505 -12348.8363 297.4063 -15209.5869 -12346.5301 299.4077 -304.5133 -273.6996 49910.4140 4.0162 4.3846
ENERGY: 1125000 0.8775 12.7131 14.9866 0.0000 -17530.3966 2315.3309 0.0000 0.0000 2890.2795 -12296.2091 300.4761 -15186.4886 -12292.4080 301.9972 -118.8094 -2.7551 49384.5830 2.2899 2.5252
ENERGY: 1325000 3.0173 12.9503 15.9102 0.0000 -17719.3868 2425.5681 0.0000 0.0000 2882.4598 -12379.4812 299.6632 -15261.9409 -12375.1387 297.5003 272.6402 352.6674 49086.7149 1.4620 1.6025
TCL: Exiting due to exit command.
