Info: SIMULATION PARAMETERS:
Info: TIMESTEP               2
Info: NUMBER OF STEPS        0
Info: STEPS PER CYCLE        10
Info: PERIODIC CELL BASIS 1  34.986 0 0
Info: PERIODIC CELL BASIS 2  0 34.696 0
Info: PERIODIC CELL BASIS 3  0 0 36.199
Info: PERIODIC CELL CENTER   0 0 0
Info: WRAPPING WATERS AROUND PERIODIC BOUNDARIES ON OUTPUT.
Info: WRAPPING ALL CLUSTERS AROUND PERIODIC BOUNDARIES ON OUTPUT.
Info: FIRST LDB TIMESTEP     50
Info: LAST LDB TIMESTEP     -1
Info: HOM BACKGROUND SCALING 1
Info: PME BACKGROUND SCALING 1
Info: MIN ATOMS PER PATCH    40
Info: EMPTY PATCH LOAD       40 ATOMS
Info: INITIAL TEMPERATURE    300
Info: CENTER OF MASS MOVING INITIALLY? NO
Info: DIELECTRIC             1
Info: EXCLUDE                SCALED ONE-FOUR
Info: 1-4 ELECTROSTATICS SCALED BY 0.833333
Info: MODIFIED 1-4 VDW PARAMETERS WILL BE USED
Info: DCD FILENAME           mobley_1893815_equil.dcd
Info: DCD FREQUENCY          100000
Info: DCD FIRST STEP         100000
Info: DCD FILE WILL CONTAIN UNIT CELL DATA
Info: XST FILENAME           mobley_1893815_equil.xst
Info: XST FREQUENCY          100000
Info: NO VELOCITY DCD OUTPUT
Info: NO FORCE DCD OUTPUT
Info: OUTPUT FILENAME        mobley_1893815_equil
Info: BINARY OUTPUT FILES WILL BE USED
Info: RESTART FILENAME       mobley_1893815_equil.restart
Info: RESTART FREQUENCY      100000
Info: BINARY RESTART FILES WILL BE USED
Info: CUTOFF                 9
Info: PAIRLIST DISTANCE      11
Info: PAIRLIST SHRINK RATE   0.01
Info: PAIRLIST GROW RATE     0.01
Info: PAIRLIST TRIGGER       0.3
Info: PAIRLISTS PER CYCLE    2
Info: PAIRLISTS ENABLED
Info: MARGIN                 8
Info: HYDROGEN GROUP CUTOFF  2.5
Info: PATCH DIMENSION        21.5
Info: ENERGY OUTPUT STEPS    100000
Info: ENERGY EVALUATION STEPS    100000
Info: OUTPUT ENERGY PRECISION 4
Info: CROSSTERM ENERGY INCLUDED IN DIHEDRAL
Info: TIMING OUTPUT STEPS    1000000
Info: PRESSURE OUTPUT STEPS  100000
Info: FIXED ATOMS ACTIVE
Info: LANGEVIN DYNAMICS ACTIVE
Info: LANGEVIN TEMPERATURE   30
Info: LANGEVIN USING BBK INTEGRATOR
Info: LANGEVIN DAMPING COEFFICIENT IS 1 INVERSE PS
Info: LANGEVIN DYNAMICS APPLIED TO HYDROGENS
Info: LANGEVIN PISTON PRESSURE CONTROL ACTIVE
Info:        TARGET PRESSURE IS 1.01325 BAR
Info:     OSCILLATION PERIOD IS 50 FS
Info:             DECAY TIME IS 25 FS
Info:     PISTON TEMPERATURE IS 300 K
Info:       PRESSURE CONTROL IS GROUP-BASED
Info:    INITIAL STRAIN RATE IS 0 0 0
Info:       CELL FLUCTUATION IS ISOTROPIC
Info: PARTICLE MESH EWALD (PME) ACTIVE
Info: PME TOLERANCE               1e-06
Info: PME EWALD COEFFICIENT       0.348832
Info: PME INTERPOLATION ORDER     4
Info: PME GRID DIMENSIONS         36 36 40
Info: PME MAXIMUM GRID SPACING    1
Info: FULL ELECTROSTATIC EVALUATION FREQUENCY      2
Info: USING VERLET I (r-RESPA) MTS SCHEME.
Info: C1 SPLITTING OF LONG RANGE ELECTROSTATICS
Info: PLACING ATOMS IN PATCHES BY HYDROGEN GROUPS
Info: RIGID BONDS TO HYDROGEN : ALL
Info:         ERROR TOLERANCE : 1e-08
Info:          MAX ITERATIONS : 100
Info: RIGID WATER USING SETTLE ALGORITHM
Info: RANDOM NUMBER SEED     1741933501
Info: USE HYDROGEN BONDS?    NO
Info: Using AMBER format force field!
Info: AMBER PARM FILE        mobley_1893815.prmtop
Info: COORDINATE PDB         mobley_1893815.pdb
Info: Exclusions will be read from PARM file!
Info: SCNB (VDW SCALING)     2
Info: USING ARITHMETIC MEAN TO COMBINE L-J SIGMA PARAMETERS
Info: BINARY COORDINATES     mobley_1893815_min.coor
Info: SUMMARY OF PARAMETERS:
Info: 5 BONDS
Info: 5 ANGLES
Info:   5 HARMONIC
Info:   0 COSINE-BASED
Info: 3 DIHEDRAL
Info: 0 IMPROPER
Info: 0 CROSSTERM
Info: 0 VDW
Info: 15 VDW_PAIRS
Info: 0 NBTHOLE_PAIRS
Info: STRUCTURE SUMMARY:
Info: 2948 ATOMS
Info: 2947 BONDS
Info: 12 ANGLES
Info: 15 DIHEDRALS
Info: 0 IMPROPERS
Info: 0 CROSSTERMS
Info: 2968 EXCLUSIONS
Info: 8 FIXED ATOMS
Info: 2942 RIGID BONDS
Info: 2 RIGID BONDS BETWEEN FIXED ATOMS
Info: 5880 DEGREES OF FREEDOM
Info: 986 HYDROGEN GROUPS
Info: 3 ATOMS IN LARGEST HYDROGEN GROUP
Info: 986 MIGRATION GROUPS
Info: 3 ATOMS IN LARGEST MIGRATION GROUP
Info: 6 HYDROGEN GROUPS WITH ALL ATOMS FIXED
Info: TOTAL MASS = 17823.5 amu
Info: TOTAL CHARGE = -0.00010001 e
Info: MASS DENSITY = 0.673569 g/cm^3
Info: ATOM DENSITY = 0.0670899 atoms/A^3
Info: ADDED 0 IMPLICIT EXCLUSIONS
Info: NONBONDED TABLE R-SQUARED SPACING: 0.0625
Info: NONBONDED TABLE SIZE: 705 POINTS
Info: REMOVING COM VELOCITY -0.344867 0.111806 -0.0367945
TCL: Running for 100000 steps
ETITLE: TS BOND ANGLE DIHED IMPRP ELECT VDW BOUNDARY MISC KINETIC TOTAL TEMP POTENTIAL TOTAL3 TEMPAVG PRESSURE GPRESSURE VOLUME PRESSAVG GPRESSAVG
ENERGY: 0 0.0000 0.0000 0.0000 0.0000 -13713.4025 2436.7311 0.0000 0.0000 1733.1805 -9543.4909 296.6585 -11276.6714 -9543.1547 296.6585 591.7248 632.9972 43941.0342 591.7248 632.9972
ENERGY: 100000 0.0000 0.0000 0.0000 0.0000 -14178.8089 2401.9202 0.0000 0.0000 175.2104 -11601.6784 29.9897 -11776.8887 -11601.4104 30.8901 -705.9829 -618.0179 28773.3956 2.4566 2.4874
TCL: Running 100000 steps at 60 kelvin.
TCL: Setting parameter langevinTemp to 60
TCL: Running for 100000 steps
ETITLE: TS BOND ANGLE DIHED IMPRP ELECT VDW BOUNDARY MISC KINETIC TOTAL TEMP POTENTIAL TOTAL3 TEMPAVG PRESSURE GPRESSURE VOLUME PRESSAVG GPRESSAVG
ENERGY: 100000 0.0000 0.0000 0.0000 0.0000 -14178.8089 2401.9202 0.0000 0.0000 175.1251 -11601.7636 29.9752 -11776.8887 -11601.4022 29.9752 -696.4548 -617.9709 28773.3956 -696.4548 -617.9709
ENERGY: 200000 0.0000 0.0000 0.0000 0.0000 -14038.9429 2331.5227 0.0000 0.0000 351.2572 -11356.1629 60.1227 -11707.4202 -11354.5379 59.8494 -954.4377 -878.1117 28831.6072 3.9074 3.8598
TCL: Running 100000 steps at 90 kelvin.
TCL: Setting parameter langevinTemp to 90
TCL: Running for 100000 steps
ETITLE: TS BOND ANGLE DIHED IMPRP ELECT VDW BOUNDARY MISC KINETIC TOTAL TEMP POTENTIAL TOTAL3 TEMPAVG PRESSURE GPRESSURE VOLUME PRESSAVG GPRESSAVG
ENERGY: 200000 0.0000 0.0000 0.0000 0.0000 -14038.9429 2331.5227 0.0000 0.0000 351.0837 -11356.3364 60.0930 -11707.4202 -11355.4956 60.0930 -948.1581 -877.3156 28831.6072 -948.1581 -877.3156
ENERGY: 300000 0.0000 0.0000 0.0000 0.0000 -13856.4587 2261.0536 0.0000 0.0000 537.9873 -11057.4179 92.0842 -11595.4051 -11056.0404 90.0660 -973.5301 -926.5702 28701.0525 4.2842 4.2121
TCL: Running 100000 steps at 120 kelvin.
TCL: Setting parameter langevinTemp to 120
TCL: Running for 100000 steps
ETITLE: TS BOND ANGLE DIHED IMPRP ELECT VDW BOUNDARY MISC KINETIC TOTAL TEMP POTENTIAL TOTAL3 TEMPAVG PRESSURE GPRESSURE VOLUME PRESSAVG GPRESSAVG
ENERGY: 300000 0.0000 0.0000 0.0000 0.0000 -13856.4587 2261.0536 0.0000 0.0000 537.7190 -11057.6861 92.0383 -11595.4051 -11056.5703 92.0383 -983.4240 -926.6691 28701.0525 -983.4240 -926.6691
ENERGY: 400000 0.0000 0.0000 0.0000 0.0000 -13734.3371 2262.2024 0.0000 0.0000 686.3336 -10785.8011 117.4758 -11472.1347 -10784.0689 119.8108 -584.4598 -495.8048 28762.7648 1.8898 2.0264
TCL: Running 100000 steps at 150 kelvin.
TCL: Setting parameter langevinTemp to 150
TCL: Running for 100000 steps
ETITLE: TS BOND ANGLE DIHED IMPRP ELECT VDW BOUNDARY MISC KINETIC TOTAL TEMP POTENTIAL TOTAL3 TEMPAVG PRESSURE GPRESSURE VOLUME PRESSAVG GPRESSAVG
ENERGY: 400000 0.0000 0.0000 0.0000 0.0000 -13734.3371 2262.2024 0.0000 0.0000 685.9821 -10786.1526 117.4156 -11472.1347 -10784.7380 117.4156 -571.3311 -496.0040 28762.7648 -571.3311 -496.0040
ENERGY: 500000 0.0000 0.0000 0.0000 0.0000 -13610.9047 2265.8221 0.0000 0.0000 878.8567 -10466.2260 150.4289 -11345.0827 -10463.6329 149.6825 115.5557 172.4258 28539.6849 1.9521 1.9721
TCL: Running 100000 steps at 180 kelvin.
TCL: Setting parameter langevinTemp to 180
TCL: Running for 100000 steps
ETITLE: TS BOND ANGLE DIHED IMPRP ELECT VDW BOUNDARY MISC KINETIC TOTAL TEMP POTENTIAL TOTAL3 TEMPAVG PRESSURE GPRESSURE VOLUME PRESSAVG GPRESSAVG
ENERGY: 500000 0.0000 0.0000 0.0000 0.0000 -13610.9047 2265.8221 0.0000 0.0000 878.4300 -10466.6527 150.3558 -11345.0827 -10464.9734 150.3558 124.9159 172.9110 28539.6849 124.9159 172.9110
ENERGY: 600000 0.0000 0.0000 0.0000 0.0000 -13141.3296 2096.4947 0.0000 0.0000 1022.2846 -10022.5503 174.9786 -11044.8349 -10020.2647 180.0660 -281.5375 -234.8139 28826.1708 4.2800 4.2817
TCL: Running 100000 steps at 210 kelvin.
TCL: Setting parameter langevinTemp to 210
TCL: Running for 100000 steps
ETITLE: TS BOND ANGLE DIHED IMPRP ELECT VDW BOUNDARY MISC KINETIC TOTAL TEMP POTENTIAL TOTAL3 TEMPAVG PRESSURE GPRESSURE VOLUME PRESSAVG GPRESSAVG
ENERGY: 600000 0.0000 0.0000 0.0000 0.0000 -13141.3296 2096.4947 0.0000 0.0000 1021.7608 -10023.0741 174.8889 -11044.8349 -10021.1233 174.8889 -309.3071 -234.7355 28826.1708 -309.3071 -234.7355
ENERGY: 700000 0.0000 0.0000 0.0000 0.0000 -12376.0473 1834.0553 0.0000 0.0000 1279.4273 -9262.5647 218.9922 -10541.9920 -9259.9625 209.9640 -425.6236 -361.3788 28869.9518 4.1520 4.1986
TCL: Running 100000 steps at 240 kelvin.
TCL: Setting parameter langevinTemp to 240
TCL: Running for 100000 steps
ETITLE: TS BOND ANGLE DIHED IMPRP ELECT VDW BOUNDARY MISC KINETIC TOTAL TEMP POTENTIAL TOTAL3 TEMPAVG PRESSURE GPRESSURE VOLUME PRESSAVG GPRESSAVG
ENERGY: 700000 0.0000 0.0000 0.0000 0.0000 -12376.0473 1834.0553 0.0000 0.0000 1278.8194 -9263.1726 218.8882 -10541.9920 -9260.6834 218.8882 -447.9877 -361.8188 28869.9518 -447.9877 -361.8188
ENERGY: 800000 0.0000 0.0000 0.0000 0.0000 -11800.5338 1719.0101 0.0000 0.0000 1450.9803 -8630.5434 248.3560 -10081.5237 -8628.1151 240.2846 196.7296 335.4795 28897.0540 4.3270 4.2006
TCL: Running 100000 steps at 270 kelvin.
TCL: Setting parameter langevinTemp to 270
TCL: Running for 100000 steps
ETITLE: TS BOND ANGLE DIHED IMPRP ELECT VDW BOUNDARY MISC KINETIC TOTAL TEMP POTENTIAL TOTAL3 TEMPAVG PRESSURE GPRESSURE VOLUME PRESSAVG GPRESSAVG
ENERGY: 800000 0.0000 0.0000 0.0000 0.0000 -11800.5338 1719.0101 0.0000 0.0000 1450.2880 -8631.2356 248.2375 -10081.5237 -8629.0547 248.2375 247.1075 335.8926 28897.0540 247.1075 335.8926
ENERGY: 900000 0.0000 0.0000 0.0000 0.0000 -11264.8526 1617.1520 0.0000 0.0000 1558.2651 -8089.4355 266.7193 -9647.7006 -8086.6769 269.3137 531.8455 642.1528 29410.7696 2.9351 3.0289
TCL: Running 1000000 steps at 300 kelvin.
TCL: Setting parameter langevinTemp to 300
TCL: Running for 1000000 steps
ETITLE: TS BOND ANGLE DIHED IMPRP ELECT VDW BOUNDARY MISC KINETIC TOTAL TEMP POTENTIAL TOTAL3 TEMPAVG PRESSURE GPRESSURE VOLUME PRESSAVG GPRESSAVG
ENERGY: 900000 0.0000 0.0000 0.0000 0.0000 -11264.8526 1617.1520 0.0000 0.0000 1557.4850 -8090.2155 266.5858 -9647.7006 -8088.7042 266.5858 553.9582 641.3363 29410.7696 553.9582 641.3363
ENERGY: 1100000 0.0000 0.0000 0.0000 0.0000 -10748.7160 1484.6150 0.0000 0.0000 1736.9800 -7527.1210 297.3089 -9264.1010 -7524.3852 299.8767 412.9410 483.1033 30269.5899 4.7453 4.7227
ENERGY: 1300000 0.0000 0.0000 0.0000 0.0000 -10694.6467 1448.8477 0.0000 0.0000 1775.8950 -7469.9040 303.9697 -9245.7990 -7465.6576 299.8147 310.9996 442.1697 30085.8207 4.8616 4.9091
ENERGY: 1500000 0.0000 0.0000 0.0000 0.0000 -10705.9010 1397.2575 0.0000 0.0000 1749.0292 -7559.6143 299.3713 -9308.6435 -7555.1656 300.0897 -460.2518 -398.5319 30464.0126 2.1088 2.1090
ENERGY: 1700000 0.0000 0.0000 0.0000 0.0000 -10721.4671 1500.5877 0.0000 0.0000 1770.1935 -7450.6859 302.9938 -9220.8793 -7445.6978 300.5475 502.8970 655.1088 30448.2074 2.7600 2.6472
ENERGY: 1900000 0.0000 0.0000 0.0000 0.0000 -10703.0359 1408.0193 0.0000 0.0000 1722.6132 -7572.4034 294.8498 -9295.0166 -7568.5670 299.9469 -403.4963 -321.8971 30698.1434 4.3080 4.3015
TCL: Exiting due to exit command.
