Info: SIMULATION PARAMETERS:
Info: TIMESTEP               2
Info: NUMBER OF STEPS        0
Info: STEPS PER CYCLE        10
Info: PERIODIC CELL BASIS 1  34.986 0 0
Info: PERIODIC CELL BASIS 2  0 36.762 0
Info: PERIODIC CELL BASIS 3  0 0 34.68
Info: PERIODIC CELL CENTER   0 0 0
Info: WRAPPING WATERS AROUND PERIODIC BOUNDARIES ON OUTPUT.
Info: WRAPPING ALL CLUSTERS AROUND PERIODIC BOUNDARIES ON OUTPUT.
Info: FIRST LDB TIMESTEP     50
Info: LAST LDB TIMESTEP     -1
Info: HOM BACKGROUND SCALING 1
Info: PME BACKGROUND SCALING 1
Info: MIN ATOMS PER PATCH    40
Info: EMPTY PATCH LOAD       40 ATOMS
Info: INITIAL TEMPERATURE    300
Info: CENTER OF MASS MOVING INITIALLY? NO
Info: DIELECTRIC             1
Info: EXCLUDE                SCALED ONE-FOUR
Info: 1-4 ELECTROSTATICS SCALED BY 0.833333
Info: MODIFIED 1-4 VDW PARAMETERS WILL BE USED
Info: DCD FILENAME           mobley_8260524_equil.dcd
Info: DCD FREQUENCY          100000
Info: DCD FIRST STEP         100000
Info: DCD FILE WILL CONTAIN UNIT CELL DATA
Info: XST FILENAME           mobley_8260524_equil.xst
Info: XST FREQUENCY          100000
Info: NO VELOCITY DCD OUTPUT
Info: NO FORCE DCD OUTPUT
Info: OUTPUT FILENAME        mobley_8260524_equil
Info: BINARY OUTPUT FILES WILL BE USED
Info: RESTART FILENAME       mobley_8260524_equil.restart
Info: RESTART FREQUENCY      100000
Info: BINARY RESTART FILES WILL BE USED
Info: CUTOFF                 9
Info: PAIRLIST DISTANCE      11
Info: PAIRLIST SHRINK RATE   0.01
Info: PAIRLIST GROW RATE     0.01
Info: PAIRLIST TRIGGER       0.3
Info: PAIRLISTS PER CYCLE    2
Info: PAIRLISTS ENABLED
Info: MARGIN                 8
Info: HYDROGEN GROUP CUTOFF  2.5
Info: PATCH DIMENSION        21.5
Info: ENERGY OUTPUT STEPS    100000
Info: ENERGY EVALUATION STEPS    100000
Info: OUTPUT ENERGY PRECISION 4
Info: CROSSTERM ENERGY INCLUDED IN DIHEDRAL
Info: TIMING OUTPUT STEPS    1000000
Info: PRESSURE OUTPUT STEPS  100000
Info: FIXED ATOMS ACTIVE
Info: LANGEVIN DYNAMICS ACTIVE
Info: LANGEVIN TEMPERATURE   30
Info: LANGEVIN USING BBK INTEGRATOR
Info: LANGEVIN DAMPING COEFFICIENT IS 1 INVERSE PS
Info: LANGEVIN DYNAMICS APPLIED TO HYDROGENS
Info: LANGEVIN PISTON PRESSURE CONTROL ACTIVE
Info:        TARGET PRESSURE IS 1.01325 BAR
Info:     OSCILLATION PERIOD IS 50 FS
Info:             DECAY TIME IS 25 FS
Info:     PISTON TEMPERATURE IS 300 K
Info:       PRESSURE CONTROL IS GROUP-BASED
Info:    INITIAL STRAIN RATE IS 0 0 0
Info:       CELL FLUCTUATION IS ISOTROPIC
Info: PARTICLE MESH EWALD (PME) ACTIVE
Info: PME TOLERANCE               1e-06
Info: PME EWALD COEFFICIENT       0.348832
Info: PME INTERPOLATION ORDER     4
Info: PME GRID DIMENSIONS         36 40 36
Info: PME MAXIMUM GRID SPACING    1
Info: FULL ELECTROSTATIC EVALUATION FREQUENCY      2
Info: USING VERLET I (r-RESPA) MTS SCHEME.
Info: C1 SPLITTING OF LONG RANGE ELECTROSTATICS
Info: PLACING ATOMS IN PATCHES BY HYDROGEN GROUPS
Info: RIGID BONDS TO HYDROGEN : ALL
Info:         ERROR TOLERANCE : 1e-08
Info:          MAX ITERATIONS : 100
Info: RIGID WATER USING SETTLE ALGORITHM
Info: RANDOM NUMBER SEED     1742449769
Info: USE HYDROGEN BONDS?    NO
Info: Using AMBER format force field!
Info: AMBER PARM FILE        mobley_8260524.prmtop
Info: COORDINATE PDB         mobley_8260524.pdb
Info: Exclusions will be read from PARM file!
Info: SCNB (VDW SCALING)     2
Info: USING ARITHMETIC MEAN TO COMBINE L-J SIGMA PARAMETERS
Info: BINARY COORDINATES     mobley_8260524_min.coor
Info: SUMMARY OF PARAMETERS:
Info: 6 BONDS
Info: 4 ANGLES
Info:   4 HARMONIC
Info:   0 COSINE-BASED
Info: 1 DIHEDRAL
Info: 0 IMPROPER
Info: 0 CROSSTERM
Info: 0 VDW
Info: 21 VDW_PAIRS
Info: 0 NBTHOLE_PAIRS
Info: STRUCTURE SUMMARY:
Info: 2914 ATOMS
Info: 2913 BONDS
Info: 8 ANGLES
Info: 4 DIHEDRALS
Info: 0 IMPROPERS
Info: 0 CROSSTERMS
Info: 2925 EXCLUSIONS
Info: 7 FIXED ATOMS
Info: 2911 RIGID BONDS
Info: 4 RIGID BONDS BETWEEN FIXED ATOMS
Info: 5814 DEGREES OF FREEDOM
Info: 972 HYDROGEN GROUPS
Info: 4 ATOMS IN LARGEST HYDROGEN GROUP
Info: 972 MIGRATION GROUPS
Info: 4 ATOMS IN LARGEST MIGRATION GROUP
Info: 3 HYDROGEN GROUPS WITH ALL ATOMS FIXED
Info: TOTAL MASS = 17497.6 amu
Info: TOTAL CHARGE = 0.000100007 e
Info: MASS DENSITY = 0.651425 g/cm^3
Info: ATOM DENSITY = 0.0653307 atoms/A^3
Info: ADDED 0 IMPLICIT EXCLUSIONS
Info: NONBONDED TABLE R-SQUARED SPACING: 0.0625
Info: NONBONDED TABLE SIZE: 705 POINTS
Info: REMOVING COM VELOCITY 0.0693163 0.165944 0.112877
TCL: Running for 100000 steps
ETITLE: TS BOND ANGLE DIHED IMPRP ELECT VDW BOUNDARY MISC KINETIC TOTAL TEMP POTENTIAL TOTAL3 TEMPAVG PRESSURE GPRESSURE VOLUME PRESSAVG GPRESSAVG
ENERGY: 0 0.0000 0.0000 0.0000 0.0000 -13519.2095 2401.0806 0.0000 0.0000 1683.7485 -9434.3804 291.4691 -11118.1289 -9434.0623 291.4691 475.4622 506.1940 44603.8669 475.4622 506.1940
ENERGY: 100000 0.0000 0.0000 0.0000 0.0000 -13915.5100 2302.2060 0.0000 0.0000 170.9127 -11442.3913 29.5862 -11613.3040 -11442.0022 30.9079 -981.0275 -901.5252 28179.1177 4.0460 4.1061
TCL: Running 100000 steps at 60 kelvin.
TCL: Setting parameter langevinTemp to 60
TCL: Running for 100000 steps
ETITLE: TS BOND ANGLE DIHED IMPRP ELECT VDW BOUNDARY MISC KINETIC TOTAL TEMP POTENTIAL TOTAL3 TEMPAVG PRESSURE GPRESSURE VOLUME PRESSAVG GPRESSAVG
ENERGY: 100000 0.0000 0.0000 0.0000 0.0000 -13915.5100 2302.2060 0.0000 0.0000 170.8267 -11442.4773 29.5714 -11613.3040 -11442.0286 29.5714 -971.5733 -901.5948 28179.1177 -971.5733 -901.5948
ENERGY: 200000 0.0000 0.0000 0.0000 0.0000 -13957.8958 2383.5433 0.0000 0.0000 339.7184 -11234.6341 58.8077 -11574.3526 -11234.1108 60.0200 0.4850 67.0768 27843.5040 2.9791 2.9556
TCL: Running 100000 steps at 90 kelvin.
TCL: Setting parameter langevinTemp to 90
TCL: Running for 100000 steps
ETITLE: TS BOND ANGLE DIHED IMPRP ELECT VDW BOUNDARY MISC KINETIC TOTAL TEMP POTENTIAL TOTAL3 TEMPAVG PRESSURE GPRESSURE VOLUME PRESSAVG GPRESSAVG
ENERGY: 200000 0.0000 0.0000 0.0000 0.0000 -13957.8958 2383.5433 0.0000 0.0000 339.5446 -11234.8080 58.7776 -11574.3526 -11234.0195 58.7776 9.8887 66.6506 27843.5040 9.8887 66.6506
ENERGY: 300000 0.0000 0.0000 0.0000 0.0000 -13850.4386 2346.0189 0.0000 0.0000 516.6750 -10987.7447 89.4402 -11504.4197 -10985.9166 90.0585 -84.9139 1.3854 27912.2722 3.7311 3.6462
TCL: Running 100000 steps at 120 kelvin.
TCL: Setting parameter langevinTemp to 120
TCL: Running for 100000 steps
ETITLE: TS BOND ANGLE DIHED IMPRP ELECT VDW BOUNDARY MISC KINETIC TOTAL TEMP POTENTIAL TOTAL3 TEMPAVG PRESSURE GPRESSURE VOLUME PRESSAVG GPRESSAVG
ENERGY: 300000 0.0000 0.0000 0.0000 0.0000 -13850.4386 2346.0189 0.0000 0.0000 516.4055 -10988.0142 89.3936 -11504.4197 -10986.9814 89.3936 -53.8012 1.9936 27912.2722 -53.8012 1.9936
ENERGY: 400000 0.0000 0.0000 0.0000 0.0000 -13659.5228 2301.3124 0.0000 0.0000 693.5972 -10664.6132 120.0667 -11358.2104 -10661.7713 119.8880 104.8110 177.0729 27927.5933 2.8053 2.8068
TCL: Running 100000 steps at 150 kelvin.
TCL: Setting parameter langevinTemp to 150
TCL: Running for 100000 steps
ETITLE: TS BOND ANGLE DIHED IMPRP ELECT VDW BOUNDARY MISC KINETIC TOTAL TEMP POTENTIAL TOTAL3 TEMPAVG PRESSURE GPRESSURE VOLUME PRESSAVG GPRESSAVG
ENERGY: 400000 0.0000 0.0000 0.0000 0.0000 -13659.5228 2301.3124 0.0000 0.0000 693.2624 -10664.9481 120.0088 -11358.2104 -10663.0685 120.0088 131.5236 178.0071 27927.5933 131.5236 178.0071
ENERGY: 500000 0.0000 0.0000 0.0000 0.0000 -13318.7870 2154.2740 0.0000 0.0000 833.8245 -10330.6885 144.3411 -11164.5130 -10327.9766 149.9531 -594.7490 -518.2150 28399.8655 3.7880 3.7482
TCL: Running 100000 steps at 180 kelvin.
TCL: Setting parameter langevinTemp to 180
TCL: Running for 100000 steps
ETITLE: TS BOND ANGLE DIHED IMPRP ELECT VDW BOUNDARY MISC KINETIC TOTAL TEMP POTENTIAL TOTAL3 TEMPAVG PRESSURE GPRESSURE VOLUME PRESSAVG GPRESSAVG
ENERGY: 500000 0.0000 0.0000 0.0000 0.0000 -13318.7870 2154.2740 0.0000 0.0000 833.3807 -10331.1323 144.2643 -11164.5130 -10329.1503 144.2643 -582.4121 -518.5270 28399.8655 -582.4121 -518.5270
ENERGY: 600000 0.0000 0.0000 0.0000 0.0000 -13085.0946 2188.1838 0.0000 0.0000 1028.4540 -9868.4568 178.0329 -10896.9108 -9866.3885 179.7829 593.8054 689.8555 28516.4396 3.1436 2.9694
TCL: Running 100000 steps at 210 kelvin.
TCL: Setting parameter langevinTemp to 210
TCL: Running for 100000 steps
ETITLE: TS BOND ANGLE DIHED IMPRP ELECT VDW BOUNDARY MISC KINETIC TOTAL TEMP POTENTIAL TOTAL3 TEMPAVG PRESSURE GPRESSURE VOLUME PRESSAVG GPRESSAVG
ENERGY: 600000 0.0000 0.0000 0.0000 0.0000 -13085.0946 2188.1838 0.0000 0.0000 1027.9526 -9868.9582 177.9461 -10896.9108 -9867.4239 177.9461 627.8222 689.6120 28516.4396 627.8222 689.6120
ENERGY: 700000 0.0000 0.0000 0.0000 0.0000 -12238.5704 1831.1029 0.0000 0.0000 1247.2130 -9160.2545 215.9017 -10407.4675 -9158.0158 209.9401 -440.1079 -309.7794 28438.7315 3.4241 3.4282
TCL: Running 100000 steps at 240 kelvin.
TCL: Setting parameter langevinTemp to 240
TCL: Running for 100000 steps
ETITLE: TS BOND ANGLE DIHED IMPRP ELECT VDW BOUNDARY MISC KINETIC TOTAL TEMP POTENTIAL TOTAL3 TEMPAVG PRESSURE GPRESSURE VOLUME PRESSAVG GPRESSAVG
ENERGY: 700000 0.0000 0.0000 0.0000 0.0000 -12238.5704 1831.1029 0.0000 0.0000 1246.5939 -9160.8736 215.7945 -10407.4675 -9158.0690 215.7945 -387.2377 -309.5465 28438.7315 -387.2377 -309.5465
ENERGY: 800000 0.0000 0.0000 0.0000 0.0000 -11479.1892 1577.7914 0.0000 0.0000 1378.7286 -8522.6692 238.6680 -9901.3978 -8520.5865 240.0077 -993.7658 -907.3170 29005.4691 4.0755 4.0160
TCL: Running 100000 steps at 270 kelvin.
TCL: Setting parameter langevinTemp to 270
TCL: Running for 100000 steps
ETITLE: TS BOND ANGLE DIHED IMPRP ELECT VDW BOUNDARY MISC KINETIC TOTAL TEMP POTENTIAL TOTAL3 TEMPAVG PRESSURE GPRESSURE VOLUME PRESSAVG GPRESSAVG
ENERGY: 800000 0.0000 0.0000 0.0000 0.0000 -11479.1892 1577.7914 0.0000 0.0000 1378.0601 -8523.3378 238.5522 -9901.3978 -8521.1046 238.5522 -988.2259 -907.0845 29005.4691 -988.2259 -907.0845
ENERGY: 900000 0.0000 0.0000 0.0000 0.0000 -11183.1378 1548.5844 0.0000 0.0000 1522.8293 -8111.7242 263.6129 -9634.5534 -8108.0849 269.0954 -168.2706 -39.9675 28982.1307 3.8699 3.8080
TCL: Running 1000000 steps at 300 kelvin.
TCL: Setting parameter langevinTemp to 300
TCL: Running for 1000000 steps
ETITLE: TS BOND ANGLE DIHED IMPRP ELECT VDW BOUNDARY MISC KINETIC TOTAL TEMP POTENTIAL TOTAL3 TEMPAVG PRESSURE GPRESSURE VOLUME PRESSAVG GPRESSAVG
ENERGY: 900000 0.0000 0.0000 0.0000 0.0000 -11183.1378 1548.5844 0.0000 0.0000 1522.0822 -8112.4712 263.4835 -9634.5534 -8110.8505 263.4835 -120.3939 -39.8894 28982.1307 -120.3939 -39.8894
ENERGY: 1100000 0.0000 0.0000 0.0000 0.0000 -10420.7232 1331.6858 0.0000 0.0000 1719.6789 -7369.3585 297.6890 -9089.0374 -7365.2494 300.3130 -498.9501 -438.2122 30151.3755 3.5014 3.5669
ENERGY: 1300000 0.0000 0.0000 0.0000 0.0000 -10518.5145 1412.5243 0.0000 0.0000 1723.6893 -7382.3010 298.3832 -9105.9903 -7378.5082 300.2343 -45.4655 59.6227 30419.8156 3.3934 3.0758
ENERGY: 1500000 0.0000 0.0000 0.0000 0.0000 -10481.0847 1337.3914 0.0000 0.0000 1692.1497 -7451.5435 292.9235 -9143.6932 -7447.4549 299.2856 -1018.1744 -883.4195 30626.7499 2.6186 2.4254
ENERGY: 1700000 0.0000 0.0000 0.0000 0.0000 -10549.3892 1387.0335 0.0000 0.0000 1759.5608 -7402.7948 304.5928 -9162.3557 -7398.0491 299.9293 -297.9092 -225.8045 30019.1609 3.4180 3.2755
ENERGY: 1900000 0.0000 0.0000 0.0000 0.0000 -10642.0737 1460.1183 0.0000 0.0000 1759.6710 -7422.2844 304.6119 -9181.9555 -7417.2726 300.5521 -67.7249 2.8327 30618.0094 3.3950 3.1340
TCL: Exiting due to exit command.
