Info: SIMULATION PARAMETERS:
Info: TIMESTEP               2
Info: NUMBER OF STEPS        0
Info: STEPS PER CYCLE        10
Info: PERIODIC CELL BASIS 1  39.806 0 0
Info: PERIODIC CELL BASIS 2  0 39.303 0
Info: PERIODIC CELL BASIS 3  0 0 42.851
Info: PERIODIC CELL CENTER   0 0 0
Info: WRAPPING WATERS AROUND PERIODIC BOUNDARIES ON OUTPUT.
Info: WRAPPING ALL CLUSTERS AROUND PERIODIC BOUNDARIES ON OUTPUT.
Info: FIRST LDB TIMESTEP     50
Info: LAST LDB TIMESTEP     -1
Info: HOM BACKGROUND SCALING 1
Info: PME BACKGROUND SCALING 1
Info: MIN ATOMS PER PATCH    40
Info: EMPTY PATCH LOAD       40 ATOMS
Info: INITIAL TEMPERATURE    300
Info: CENTER OF MASS MOVING INITIALLY? NO
Info: DIELECTRIC             1
Info: EXCLUDE                SCALED ONE-FOUR
Info: 1-4 ELECTROSTATICS SCALED BY 0.833333
Info: MODIFIED 1-4 VDW PARAMETERS WILL BE USED
Info: DCD FILENAME           mobley_7943327_min.dcd
Info: DCD FREQUENCY          5000
Info: DCD FIRST STEP         5000
Info: DCD FILE WILL CONTAIN UNIT CELL DATA
Info: XST FILENAME           mobley_7943327_min.xst
Info: XST FREQUENCY          5000
Info: NO VELOCITY DCD OUTPUT
Info: NO FORCE DCD OUTPUT
Info: OUTPUT FILENAME        mobley_7943327_min
Info: BINARY OUTPUT FILES WILL BE USED
Info: RESTART FILENAME       mobley_7943327_min.restart
Info: RESTART FREQUENCY      5000
Info: BINARY RESTART FILES WILL BE USED
Info: CUTOFF                 9
Info: PAIRLIST DISTANCE      11
Info: PAIRLIST SHRINK RATE   0.01
Info: PAIRLIST GROW RATE     0.01
Info: PAIRLIST TRIGGER       0.3
Info: PAIRLISTS PER CYCLE    2
Info: PAIRLISTS ENABLED
Info: MARGIN                 8
Info: HYDROGEN GROUP CUTOFF  2.5
Info: PATCH DIMENSION        21.5
Info: ENERGY OUTPUT STEPS    5000
Info: ENERGY EVALUATION STEPS    5000
Info: OUTPUT ENERGY PRECISION 4
Info: CROSSTERM ENERGY INCLUDED IN DIHEDRAL
Info: TIMING OUTPUT STEPS    50000
Info: PRESSURE OUTPUT STEPS  5000
Info: LANGEVIN DYNAMICS ACTIVE
Info: LANGEVIN TEMPERATURE   300
Info: LANGEVIN USING BBK INTEGRATOR
Info: LANGEVIN DAMPING COEFFICIENT IS 1 INVERSE PS
Info: LANGEVIN DYNAMICS APPLIED TO HYDROGENS
Info: LANGEVIN PISTON PRESSURE CONTROL ACTIVE
Info:        TARGET PRESSURE IS 1.01325 BAR
Info:     OSCILLATION PERIOD IS 50 FS
Info:             DECAY TIME IS 25 FS
Info:     PISTON TEMPERATURE IS 300 K
Info:       PRESSURE CONTROL IS GROUP-BASED
Info:    INITIAL STRAIN RATE IS 0 0 0
Info:       CELL FLUCTUATION IS ISOTROPIC
Info: PARTICLE MESH EWALD (PME) ACTIVE
Info: PME TOLERANCE               1e-06
Info: PME EWALD COEFFICIENT       0.348832
Info: PME INTERPOLATION ORDER     4
Info: PME GRID DIMENSIONS         40 40 44
Info: PME MAXIMUM GRID SPACING    1
Info: FULL ELECTROSTATIC EVALUATION FREQUENCY      2
Info: USING VERLET I (r-RESPA) MTS SCHEME.
Info: C1 SPLITTING OF LONG RANGE ELECTROSTATICS
Info: PLACING ATOMS IN PATCHES BY HYDROGEN GROUPS
Info: RIGID BONDS TO HYDROGEN : ALL
Info:         ERROR TOLERANCE : 1e-08
Info:          MAX ITERATIONS : 100
Info: RIGID WATER USING SETTLE ALGORITHM
Info: RANDOM NUMBER SEED     1741393171
Info: USE HYDROGEN BONDS?    NO
Info: Using AMBER format force field!
Info: AMBER PARM FILE        mobley_7943327.prmtop
Info: COORDINATE PDB         mobley_7943327.pdb
Info: Exclusions will be read from PARM file!
Info: SCNB (VDW SCALING)     2
Info: USING ARITHMETIC MEAN TO COMBINE L-J SIGMA PARAMETERS
Info: SUMMARY OF PARAMETERS:
Info: 9 BONDS
Info: 12 ANGLES
Info:   12 HARMONIC
Info:   0 COSINE-BASED
Info: 19 DIHEDRAL
Info: 0 IMPROPER
Info: 0 CROSSTERM
Info: 0 VDW
Info: 36 VDW_PAIRS
Info: 0 NBTHOLE_PAIRS
Info: STRUCTURE SUMMARY:
Info: 4874 ATOMS
Info: 4873 BONDS
Info: 28 ANGLES
Info: 41 DIHEDRALS
Info: 0 IMPROPERS
Info: 0 CROSSTERMS
Info: 4930 EXCLUSIONS
Info: 4867 RIGID BONDS
Info: 9755 DEGREES OF FREEDOM
Info: 1626 HYDROGEN GROUPS
Info: 4 ATOMS IN LARGEST HYDROGEN GROUP
Info: 1626 MIGRATION GROUPS
Info: 4 ATOMS IN LARGEST MIGRATION GROUP
Info: TOTAL MASS = 29270 amu
Info: TOTAL CHARGE = 4.84288e-08 e
Info: MASS DENSITY = 0.725015 g/cm^3
Info: ATOM DENSITY = 0.0727027 atoms/A^3
Info: ADDED 0 IMPLICIT EXCLUSIONS
Info: NONBONDED TABLE R-SQUARED SPACING: 0.0625
Info: NONBONDED TABLE SIZE: 705 POINTS
Info: REMOVING COM VELOCITY -0.0786602 0.132132 -0.0365541
TCL: Minimizing for 2000 steps
ETITLE: TS BOND ANGLE DIHED IMPRP ELECT VDW BOUNDARY MISC KINETIC TOTAL TEMP POTENTIAL TOTAL3 TEMPAVG PRESSURE GPRESSURE VOLUME PRESSAVG GPRESSAVG
ENERGY: 0 0.3043 0.8695 22.2333 0.0000 -15257.7235 1751.5576 0.0000 0.0000 0.0000 -13482.7587 0.0000 -13482.7587 -13482.7587 0.0000 11295.3322 -15825.3803 67040.1846 11295.3322 -15825.3803
ENERGY: 400 4.7861 1.3742 20.9939 0.0000 -20407.5513 2970.1443 0.0000 0.0000 0.0000 -17410.2526 0.0000 -17410.2526 -17410.2526 0.0000 15877.8969 16006.2081 67040.1846 15877.8969 16006.2081
ENERGY: 800 1.1409 1.0513 19.5877 0.0000 -21558.5492 3490.6694 0.0000 0.0000 0.0000 -18046.0998 0.0000 -18046.0998 -18046.0998 0.0000 18262.2133 18372.4244 67040.1846 18262.2133 18372.4244
ENERGY: 1200 0.8269 0.9331 19.0161 0.0000 -21979.6659 3681.8077 0.0000 0.0000 0.0000 -18277.0821 0.0000 -18277.0821 -18277.0821 0.0000 19228.6893 19321.1533 67040.1846 19228.6893 19321.1533
ENERGY: 1600 7.9428 1.7461 19.5157 0.0000 -22207.2623 3792.4033 0.0000 0.0000 0.0000 -18385.6544 0.0000 -18385.6544 -18385.6544 0.0000 19800.4156 19888.5538 67040.1846 19800.4156 19888.5538
ENERGY: 2000 0.2010 0.6521 19.1461 0.0000 -22352.0403 3848.6073 0.0000 0.0000 0.0000 -18483.4339 0.0000 -18483.4339 -18483.4339 0.0000 20076.6253 20156.4101 67040.1846 20076.6253 20156.4101
TCL: Exiting due to exit command.
Info: NAMD 3.0.1 for Linux-x86_64-multicore
Info: Please visit http://www.ks.uiuc.edu/Research/namd/
Info: for updates, documentation, and support information.
Info: Please cite Phillips et al., J. Chem. Phys. 153:044130 (2020) doi:10.1063/5.0014475
Info: in all publications reporting results obtained with NAMD.
Info: Based on Charm++/Converse 80000 for multicore-linux-x86_64-gcc
Info: Built Mon Oct 14 11:11:06 CDT 2024 by dhardy on athine.ks.uiuc.edu
Info: 1 NAMD  3.0.1  Linux-x86_64-multicore  16    k012  z5358697
Info: Running on 16 processors, 1 nodes, 1 physical nodes.
Info: CPU topology information available.
Info: Charm++/Converse parallel runtime startup completed at 0.00957994 s
Info: 1043.45 MB of memory in use based on /proc/self/stat
Info: Configuration file is mobley_7943327_equil.namd
Info: Working in the current directory /srv/scratch/z5358697/prod_prep_10/7943327
TCL: Running 25000 steps at 30 kelvin.
TCL: Suspending until startup complete.
Info: SIMULATION PARAMETERS:
Info: TIMESTEP               2
Info: NUMBER OF STEPS        0
Info: STEPS PER CYCLE        10
Info: PERIODIC CELL BASIS 1  39.806 0 0
Info: PERIODIC CELL BASIS 2  0 39.303 0
Info: PERIODIC CELL BASIS 3  0 0 42.851
Info: PERIODIC CELL CENTER   0 0 0
Info: WRAPPING WATERS AROUND PERIODIC BOUNDARIES ON OUTPUT.
Info: WRAPPING ALL CLUSTERS AROUND PERIODIC BOUNDARIES ON OUTPUT.
Info: FIRST LDB TIMESTEP     50
Info: LAST LDB TIMESTEP     -1
Info: HOM BACKGROUND SCALING 1
Info: PME BACKGROUND SCALING 1
Info: MIN ATOMS PER PATCH    40
Info: EMPTY PATCH LOAD       40 ATOMS
Info: INITIAL TEMPERATURE    300
Info: CENTER OF MASS MOVING INITIALLY? NO
Info: DIELECTRIC             1
Info: EXCLUDE                SCALED ONE-FOUR
Info: 1-4 ELECTROSTATICS SCALED BY 0.833333
Info: MODIFIED 1-4 VDW PARAMETERS WILL BE USED
Info: DCD FILENAME           mobley_7943327_equil.dcd
Info: DCD FREQUENCY          5000
Info: DCD FIRST STEP         5000
Info: DCD FILE WILL CONTAIN UNIT CELL DATA
Info: XST FILENAME           mobley_7943327_equil.xst
Info: XST FREQUENCY          5000
Info: NO VELOCITY DCD OUTPUT
Info: NO FORCE DCD OUTPUT
Info: OUTPUT FILENAME        mobley_7943327_equil
Info: BINARY OUTPUT FILES WILL BE USED
Info: RESTART FILENAME       mobley_7943327_equil.restart
Info: RESTART FREQUENCY      5000
Info: BINARY RESTART FILES WILL BE USED
Info: CUTOFF                 9
Info: PAIRLIST DISTANCE      11
Info: PAIRLIST SHRINK RATE   0.01
Info: PAIRLIST GROW RATE     0.01
Info: PAIRLIST TRIGGER       0.3
Info: PAIRLISTS PER CYCLE    2
Info: PAIRLISTS ENABLED
Info: MARGIN                 8
Info: HYDROGEN GROUP CUTOFF  2.5
Info: PATCH DIMENSION        21.5
Info: ENERGY OUTPUT STEPS    5000
Info: ENERGY EVALUATION STEPS    5000
Info: OUTPUT ENERGY PRECISION 4
Info: CROSSTERM ENERGY INCLUDED IN DIHEDRAL
Info: TIMING OUTPUT STEPS    50000
Info: PRESSURE OUTPUT STEPS  5000
Info: LANGEVIN DYNAMICS ACTIVE
Info: LANGEVIN TEMPERATURE   30
Info: LANGEVIN USING BBK INTEGRATOR
Info: LANGEVIN DAMPING COEFFICIENT IS 1 INVERSE PS
Info: LANGEVIN DYNAMICS APPLIED TO HYDROGENS
Info: LANGEVIN PISTON PRESSURE CONTROL ACTIVE
Info:        TARGET PRESSURE IS 1.01325 BAR
Info:     OSCILLATION PERIOD IS 50 FS
Info:             DECAY TIME IS 25 FS
Info:     PISTON TEMPERATURE IS 300 K
Info:       PRESSURE CONTROL IS GROUP-BASED
Info:    INITIAL STRAIN RATE IS 0 0 0
Info:       CELL FLUCTUATION IS ISOTROPIC
Info: PARTICLE MESH EWALD (PME) ACTIVE
Info: PME TOLERANCE               1e-06
Info: PME EWALD COEFFICIENT       0.348832
Info: PME INTERPOLATION ORDER     4
Info: PME GRID DIMENSIONS         40 40 44
Info: PME MAXIMUM GRID SPACING    1
Info: FULL ELECTROSTATIC EVALUATION FREQUENCY      2
Info: USING VERLET I (r-RESPA) MTS SCHEME.
Info: C1 SPLITTING OF LONG RANGE ELECTROSTATICS
Info: PLACING ATOMS IN PATCHES BY HYDROGEN GROUPS
Info: RIGID BONDS TO HYDROGEN : ALL
Info:         ERROR TOLERANCE : 1e-08
Info:          MAX ITERATIONS : 100
Info: RIGID WATER USING SETTLE ALGORITHM
Info: RANDOM NUMBER SEED     1741393185
Info: USE HYDROGEN BONDS?    NO
Info: Using AMBER format force field!
Info: AMBER PARM FILE        mobley_7943327.prmtop
Info: COORDINATE PDB         mobley_7943327.pdb
Info: Exclusions will be read from PARM file!
Info: SCNB (VDW SCALING)     2
Info: USING ARITHMETIC MEAN TO COMBINE L-J SIGMA PARAMETERS
Info: BINARY COORDINATES     mobley_7943327_min.coor
Info: SUMMARY OF PARAMETERS:
Info: 9 BONDS
Info: 12 ANGLES
Info:   12 HARMONIC
Info:   0 COSINE-BASED
Info: 19 DIHEDRAL
Info: 0 IMPROPER
Info: 0 CROSSTERM
Info: 0 VDW
Info: 36 VDW_PAIRS
Info: 0 NBTHOLE_PAIRS
Info: STRUCTURE SUMMARY:
Info: 4874 ATOMS
Info: 4873 BONDS
Info: 28 ANGLES
Info: 41 DIHEDRALS
Info: 0 IMPROPERS
Info: 0 CROSSTERMS
Info: 4930 EXCLUSIONS
Info: 4867 RIGID BONDS
Info: 9755 DEGREES OF FREEDOM
Info: 1626 HYDROGEN GROUPS
Info: 4 ATOMS IN LARGEST HYDROGEN GROUP
Info: 1626 MIGRATION GROUPS
Info: 4 ATOMS IN LARGEST MIGRATION GROUP
Info: TOTAL MASS = 29270 amu
Info: TOTAL CHARGE = 4.84288e-08 e
Info: MASS DENSITY = 0.725015 g/cm^3
Info: ATOM DENSITY = 0.0727027 atoms/A^3
Info: ADDED 0 IMPLICIT EXCLUSIONS
Info: NONBONDED TABLE R-SQUARED SPACING: 0.0625
Info: NONBONDED TABLE SIZE: 705 POINTS
Info: REMOVING COM VELOCITY -0.0983788 0.1019 0.0736049
TCL: Running for 25000 steps
ETITLE: TS BOND ANGLE DIHED IMPRP ELECT VDW BOUNDARY MISC KINETIC TOTAL TEMP POTENTIAL TOTAL3 TEMPAVG PRESSURE GPRESSURE VOLUME PRESSAVG GPRESSAVG
ENERGY: 0 0.2010 0.6521 19.1461 0.0000 -22352.0403 3848.6073 0.0000 0.0000 2889.0124 -15594.4214 298.0661 -18483.4339 -15593.8340 298.0661 169.4609 201.3379 67040.1846 169.4609 201.3379
ENERGY: 5000 0.4482 1.4167 19.5337 0.0000 -23402.0760 4021.9376 0.0000 0.0000 287.7495 -19070.9904 29.6878 -19358.7399 -19070.3941 47.7405 -250.6460 -199.2661 47800.4308 5.8209 5.9617
ENERGY: 10000 0.2236 0.9576 19.8229 0.0000 -23523.6836 4125.4456 0.0000 0.0000 294.1129 -19083.1210 30.3443 -19377.2340 -19082.5921 30.2474 224.0503 280.9576 47815.7402 3.1936 3.2494
ENERGY: 15000 0.2495 1.1220 19.9182 0.0000 -23584.2625 4174.8550 0.0000 0.0000 291.3966 -19096.7212 30.0641 -19388.1179 -19096.0502 30.2220 464.6183 515.3493 47695.7684 4.6813 4.8043
ENERGY: 20000 0.4993 1.2483 19.2203 0.0000 -23344.9975 3927.6804 0.0000 0.0000 286.2541 -19110.0952 29.5335 -19396.3493 -19109.4078 29.7793 -881.5259 -836.8404 48111.6122 4.1237 4.0435
ENERGY: 25000 0.3812 1.3711 19.6135 0.0000 -23692.2955 4259.1931 0.0000 0.0000 291.8793 -19119.8572 30.1139 -19411.7365 -19119.3533 29.9817 799.3096 854.5058 47536.6248 6.7683 6.8536
TCL: Running 25000 steps at 60 kelvin.
TCL: Setting parameter langevinTemp to 60
TCL: Running for 25000 steps
ETITLE: TS BOND ANGLE DIHED IMPRP ELECT VDW BOUNDARY MISC KINETIC TOTAL TEMP POTENTIAL TOTAL3 TEMPAVG PRESSURE GPRESSURE VOLUME PRESSAVG GPRESSAVG
ENERGY: 25000 0.3812 1.3711 19.6135 0.0000 -23692.2955 4259.1931 0.0000 0.0000 291.7339 -19120.0026 30.0989 -19411.7365 -19119.3894 30.0989 797.9436 854.2733 47536.6248 797.9436 854.2733
ENERGY: 30000 0.2583 2.7494 18.7084 0.0000 -23093.6821 3928.3798 0.0000 0.0000 582.5873 -18560.9988 60.1069 -19143.5862 -18559.1785 57.1574 -216.8211 -150.1851 47962.8209 4.6555 4.6308
ENERGY: 35000 0.2700 1.7190 19.3506 0.0000 -23255.4302 4062.8474 0.0000 0.0000 587.3312 -18583.9121 60.5963 -19171.2432 -18582.9843 60.6271 452.2143 506.4649 47810.2497 -1.8217 -1.7324
ENERGY: 40000 0.2012 1.2970 19.3180 0.0000 -23238.3315 4008.0170 0.0000 0.0000 593.6901 -18615.8082 61.2524 -19209.4983 -18614.4443 60.1012 130.1566 173.3977 47642.5164 4.2025 4.4161
ENERGY: 45000 0.3837 2.5128 19.4000 0.0000 -23204.6323 3954.4955 0.0000 0.0000 576.5349 -18651.3054 59.4824 -19227.8403 -18649.4354 60.3003 -297.5403 -235.3816 47709.0146 0.3593 0.7082
ENERGY: 50000 0.1708 2.9818 19.4371 0.0000 -23434.8884 4168.9801 0.0000 0.0000 590.0129 -18653.3056 60.8730 -19243.3185 -18651.9597 60.5430 859.2583 915.6873 47292.9559 10.0210 10.1574
TCL: Running 25000 steps at 90 kelvin.
TCL: Setting parameter langevinTemp to 90
TCL: Running for 25000 steps
ETITLE: TS BOND ANGLE DIHED IMPRP ELECT VDW BOUNDARY MISC KINETIC TOTAL TEMP POTENTIAL TOTAL3 TEMPAVG PRESSURE GPRESSURE VOLUME PRESSAVG GPRESSAVG
ENERGY: 50000 0.1708 2.9818 19.4371 0.0000 -23434.8884 4168.9801 0.0000 0.0000 589.7312 -18653.5873 60.8439 -19243.3185 -18652.3423 60.8439 861.1439 915.6783 47292.9559 861.1439 915.6783
ENERGY: 55000 0.8959 2.8474 19.1188 0.0000 -22949.8378 3971.1250 0.0000 0.0000 865.9562 -18089.8944 89.3427 -18955.8506 -18087.8018 86.3640 437.9411 502.2483 47618.8505 -0.6310 -0.6032
ENERGY: 60000 0.5341 1.8932 19.0592 0.0000 -23115.7104 4129.4533 0.0000 0.0000 873.5940 -18091.1765 90.1307 -18964.7705 -18088.9388 90.2069 1299.9699 1383.4634 47298.3241 4.7174 4.3707
ENERGY: 65000 1.1770 1.8331 20.6407 0.0000 -22986.6477 3954.6931 0.0000 0.0000 907.3959 -18100.9080 93.6181 -19008.3039 -18098.3728 90.1968 340.8727 402.2086 47443.4528 0.9413 0.9823
ENERGY: 70000 0.4806 1.9479 21.0782 0.0000 -23052.3091 4023.9196 0.0000 0.0000 898.6983 -18106.1846 92.7208 -19004.8829 -18103.9064 90.1133 703.8071 736.6713 47444.7441 2.2940 2.6105
ENERGY: 75000 0.8031 1.6088 20.1493 0.0000 -23060.4025 3999.1714 0.0000 0.0000 861.4436 -18177.2263 88.8771 -19038.6699 -18174.1041 90.1371 438.9172 477.8776 47391.9138 3.2269 3.3484
TCL: Running 25000 steps at 120 kelvin.
TCL: Setting parameter langevinTemp to 120
TCL: Running for 25000 steps
ETITLE: TS BOND ANGLE DIHED IMPRP ELECT VDW BOUNDARY MISC KINETIC TOTAL TEMP POTENTIAL TOTAL3 TEMPAVG PRESSURE GPRESSURE VOLUME PRESSAVG GPRESSAVG
ENERGY: 75000 0.8031 1.6088 20.1493 0.0000 -23060.4025 3999.1714 0.0000 0.0000 861.0100 -18177.6599 88.8324 -19038.6699 -18176.0673 88.8324 430.2152 478.7127 47391.9138 430.2152 478.7127
ENERGY: 80000 0.6995 3.4473 20.1495 0.0000 -22474.5886 3782.6992 0.0000 0.0000 1143.6122 -17523.9808 117.9891 -18667.5931 -17521.6658 117.1563 144.8794 224.0455 47798.5594 1.4293 1.7734
ENERGY: 85000 0.8912 2.8991 20.6563 0.0000 -22596.9217 3865.2493 0.0000 0.0000 1151.6405 -17555.5852 118.8174 -18707.2257 -17552.7523 120.6918 404.4400 458.5640 47992.5986 -0.7551 -0.5974
ENERGY: 90000 0.5726 5.5076 20.7520 0.0000 -22538.6682 3764.0863 0.0000 0.0000 1174.7759 -17572.9738 121.2043 -18747.7498 -17570.7322 120.1273 -148.7471 -108.4582 48006.6810 2.1975 2.4788
ENERGY: 95000 0.5960 2.0832 20.6424 0.0000 -22621.8201 3830.5894 0.0000 0.0000 1147.3499 -17620.5593 118.3747 -18767.9091 -17616.8614 120.1880 175.3387 197.4230 48048.4335 2.0444 2.0380
ENERGY: 100000 0.9119 3.6612 21.9297 0.0000 -22830.8394 3964.5703 0.0000 0.0000 1158.5844 -17681.1818 119.5338 -18839.7662 -17677.5820 119.4900 438.7896 494.0603 48133.3764 2.7127 2.8915
TCL: Running 25000 steps at 150 kelvin.
TCL: Setting parameter langevinTemp to 150
TCL: Running for 25000 steps
ETITLE: TS BOND ANGLE DIHED IMPRP ELECT VDW BOUNDARY MISC KINETIC TOTAL TEMP POTENTIAL TOTAL3 TEMPAVG PRESSURE GPRESSURE VOLUME PRESSAVG GPRESSAVG
ENERGY: 100000 0.9119 3.6612 21.9297 0.0000 -22830.8394 3964.5703 0.0000 0.0000 1158.0045 -17681.7617 119.4740 -18839.7662 -17679.7340 119.4740 448.8603 495.0816 48133.3764 448.8603 495.0816
ENERGY: 105000 1.1044 3.9514 19.9487 0.0000 -22034.5288 3560.3712 0.0000 0.0000 1460.1980 -16988.9551 150.6520 -18449.1531 -16985.4671 146.0232 -583.7931 -566.8204 48543.5625 10.5035 10.7844
ENERGY: 110000 0.5463 4.7764 19.7723 0.0000 -22230.7332 3738.9690 0.0000 0.0000 1455.3197 -17011.3495 150.1487 -18466.6692 -17007.3243 150.0092 306.7452 369.2738 48012.5347 2.1226 2.4793
ENERGY: 115000 0.9774 2.6373 19.6277 0.0000 -22204.3227 3668.2446 0.0000 0.0000 1471.7057 -17041.1300 151.8393 -18512.8357 -17036.0410 150.8108 -200.6311 -119.8971 48096.1932 5.4153 5.6719
ENERGY: 120000 1.2944 3.6038 19.4823 0.0000 -22165.3114 3633.7975 0.0000 0.0000 1473.1559 -17033.9775 151.9889 -18507.1333 -17030.3970 151.6674 -381.3477 -295.6578 48033.4820 -0.1179 -0.1675
ENERGY: 125000 0.9938 4.0093 20.0203 0.0000 -22282.0873 3751.5665 0.0000 0.0000 1447.2486 -17058.2488 149.3160 -18505.4974 -17054.0917 151.2169 206.1261 273.4417 47909.9324 5.4436 5.2864
TCL: Running 50000 steps at 180 kelvin.
TCL: Setting parameter langevinTemp to 180
TCL: Running for 50000 steps
ETITLE: TS BOND ANGLE DIHED IMPRP ELECT VDW BOUNDARY MISC KINETIC TOTAL TEMP POTENTIAL TOTAL3 TEMPAVG PRESSURE GPRESSURE VOLUME PRESSAVG GPRESSAVG
ENERGY: 125000 0.9938 4.0093 20.0203 0.0000 -22282.0873 3751.5665 0.0000 0.0000 1446.5131 -17058.9843 149.2401 -18505.4974 -17055.6589 149.2401 218.0937 273.5726 47909.9324 218.0937 273.5726
ENERGY: 135000 0.3465 4.9697 19.8856 0.0000 -21728.3750 3612.2613 0.0000 0.0000 1739.5349 -16351.3770 179.4718 -18090.9119 -16348.0239 179.6433 567.8759 602.8967 47817.9486 3.3678 3.8006
ENERGY: 145000 0.7620 5.5737 20.7061 0.0000 -21584.6608 3489.5036 0.0000 0.0000 1752.4355 -16315.6799 180.8028 -18068.1154 -16313.4852 179.8495 20.3312 84.3700 47887.7236 3.8838 3.8665
ENERGY: 155000 1.1549 4.4764 19.8540 0.0000 -21689.2263 3488.8245 0.0000 0.0000 1742.9674 -16431.9490 179.8260 -18174.9164 -16427.1754 180.7828 -362.5204 -323.6850 48133.1619 4.5809 4.5143
ENERGY: 165000 1.8211 5.5561 21.1067 0.0000 -21841.2665 3577.4602 0.0000 0.0000 1753.3892 -16481.9332 180.9012 -18235.3225 -16479.4706 180.0729 102.0672 183.0456 48012.9652 1.6499 2.4280
ENERGY: 175000 0.5660 5.1660 20.7260 0.0000 -21823.1016 3610.3112 0.0000 0.0000 1750.9516 -16435.3808 180.6497 -18186.3324 -16431.7028 179.9225 214.2667 269.9273 48139.8130 3.5298 3.5385
TCL: Running 50000 steps at 210 kelvin.
TCL: Setting parameter langevinTemp to 210
TCL: Running for 50000 steps
ETITLE: TS BOND ANGLE DIHED IMPRP ELECT VDW BOUNDARY MISC KINETIC TOTAL TEMP POTENTIAL TOTAL3 TEMPAVG PRESSURE GPRESSURE VOLUME PRESSAVG GPRESSAVG
ENERGY: 175000 0.5660 5.1660 20.7260 0.0000 -21823.1016 3610.3112 0.0000 0.0000 1750.0820 -16436.2504 180.5600 -18186.3324 -16432.5209 180.5600 216.9330 269.8378 48139.8130 216.9330 269.8378
ENERGY: 185000 2.2428 4.4753 20.4424 0.0000 -20852.7791 3302.1721 0.0000 0.0000 2015.6531 -15507.7934 207.9596 -17523.4465 -15502.4875 210.3061 448.3090 529.5634 47733.0691 6.6387 6.3656
ENERGY: 195000 0.8692 6.9086 19.9990 0.0000 -20544.9858 3119.6196 0.0000 0.0000 2084.7266 -15312.8628 215.0860 -17397.5894 -15309.2173 210.8138 -255.4544 -171.7801 47784.0026 2.9683 2.8828
ENERGY: 205000 1.8789 6.3842 18.8785 0.0000 -20557.4908 3145.3064 0.0000 0.0000 2047.0952 -15337.9476 211.2035 -17385.0428 -15331.0714 209.9098 -207.8027 -103.6125 47863.5221 1.8211 2.1947
ENERGY: 215000 0.4547 5.0373 20.1348 0.0000 -20560.7988 3088.4324 0.0000 0.0000 2054.8969 -15391.8428 212.0084 -17446.7397 -15388.3387 210.6854 -458.8201 -406.3428 47870.2214 1.5806 1.8140
ENERGY: 225000 2.1023 7.2642 20.1394 0.0000 -20445.3469 3091.0561 0.0000 0.0000 2022.2194 -15302.5656 208.6370 -17324.7849 -15298.7718 210.6630 -262.6878 -227.6820 47804.9255 5.1592 4.9088
TCL: Running 50000 steps at 240 kelvin.
TCL: Setting parameter langevinTemp to 240
TCL: Running for 50000 steps
ETITLE: TS BOND ANGLE DIHED IMPRP ELECT VDW BOUNDARY MISC KINETIC TOTAL TEMP POTENTIAL TOTAL3 TEMPAVG PRESSURE GPRESSURE VOLUME PRESSAVG GPRESSAVG
ENERGY: 225000 2.1023 7.2642 20.1394 0.0000 -20445.3469 3091.0561 0.0000 0.0000 2021.2387 -15303.5463 208.5358 -17324.7849 -15299.9842 208.5358 -303.1882 -228.0158 47804.9255 -303.1882 -228.0158
ENERGY: 235000 1.2643 3.8644 19.0120 0.0000 -19480.0806 2846.5476 0.0000 0.0000 2345.8176 -14263.5747 242.0234 -16609.3923 -14259.5309 238.8690 112.1326 190.3861 47803.5414 0.0963 0.2092
ENERGY: 245000 1.4876 2.8868 20.4656 0.0000 -19676.2241 2929.3150 0.0000 0.0000 2346.5186 -14375.5505 242.0957 -16722.0691 -14370.2721 239.6692 381.4326 457.4458 47761.8570 2.6066 2.6795
ENERGY: 255000 1.0279 6.7288 20.2642 0.0000 -19524.6792 2852.5852 0.0000 0.0000 2295.3569 -14348.7163 236.8172 -16644.0731 -14344.0161 241.2362 48.4855 130.6952 48132.8801 3.0171 3.0737
ENERGY: 265000 1.5100 5.6427 19.6279 0.0000 -19655.0750 2939.0503 0.0000 0.0000 2275.8570 -14413.3872 234.8054 -16689.2442 -14407.7428 239.3701 364.3342 444.3156 47726.4817 1.6696 2.2064
ENERGY: 275000 1.1454 5.8095 21.0651 0.0000 -19384.7116 2772.1653 0.0000 0.0000 2315.4188 -14269.1076 238.8871 -16584.5264 -14265.9876 242.1849 -190.4770 -146.9436 48073.2345 5.7518 5.9853
TCL: Running 50000 steps at 270 kelvin.
TCL: Setting parameter langevinTemp to 270
TCL: Running for 50000 steps
ETITLE: TS BOND ANGLE DIHED IMPRP ELECT VDW BOUNDARY MISC KINETIC TOTAL TEMP POTENTIAL TOTAL3 TEMPAVG PRESSURE GPRESSURE VOLUME PRESSAVG GPRESSAVG
ENERGY: 275000 1.1454 5.8095 21.0651 0.0000 -19384.7116 2772.1653 0.0000 0.0000 2314.2351 -14270.2913 238.7650 -16584.5264 -14266.3326 238.7650 -225.1969 -146.9251 48073.2345 -225.1969 -146.9251
ENERGY: 285000 1.5382 5.9693 20.6718 0.0000 -18666.2722 2593.5669 0.0000 0.0000 2693.7891 -13350.7369 277.9244 -16044.5260 -13348.1668 269.5402 -158.8373 -75.5281 49211.4257 3.5423 3.2561
ENERGY: 295000 1.1237 9.8306 21.2617 0.0000 -18569.1859 2599.2112 0.0000 0.0000 2549.2910 -13388.4677 263.0162 -15937.7588 -13382.8759 270.5338 80.4253 126.0112 48848.3229 2.0540 2.4411
ENERGY: 305000 1.1452 6.0443 21.1204 0.0000 -18449.4548 2485.9460 0.0000 0.0000 2697.1668 -13238.0322 278.2729 -15935.1990 -13233.4761 269.5268 -657.5629 -552.5166 49628.7234 3.9735 3.8565
ENERGY: 315000 2.4791 6.9391 19.5787 0.0000 -18498.9244 2618.6853 0.0000 0.0000 2620.1145 -13231.1276 270.3232 -15851.2422 -13226.8553 270.7931 341.3506 439.4579 48614.1843 0.2281 -0.2981
ENERGY: 325000 1.6374 7.6213 21.0734 0.0000 -18714.9279 2687.9312 0.0000 0.0000 2608.8098 -13387.8548 269.1569 -15996.6646 -13380.8630 270.0869 303.9176 321.1928 48968.7273 5.9528 6.4985
TCL: Running 1000000 steps at 300 kelvin.
TCL: Setting parameter langevinTemp to 300
TCL: Running for 1000000 steps
ETITLE: TS BOND ANGLE DIHED IMPRP ELECT VDW BOUNDARY MISC KINETIC TOTAL TEMP POTENTIAL TOTAL3 TEMPAVG PRESSURE GPRESSURE VOLUME PRESSAVG GPRESSAVG
ENERGY: 325000 1.6374 7.6213 21.0734 0.0000 -18714.9279 2687.9312 0.0000 0.0000 2607.5162 -13389.1484 269.0234 -15996.6646 -13384.8868 269.0234 250.7654 321.3857 48968.7273 250.7654 321.3857
ENERGY: 525000 1.1901 4.1270 21.1228 0.0000 -17649.9231 2377.6971 0.0000 0.0000 2923.1531 -12322.6330 301.5884 -15245.7861 -12316.2879 301.2511 117.6244 174.5853 50017.3626 -2.6854 -2.0057
ENERGY: 725000 3.2370 4.7166 21.7484 0.0000 -17590.9646 2337.8064 0.0000 0.0000 2984.7801 -12238.6760 307.9466 -15223.4561 -12235.1834 303.1694 -352.8296 -246.7426 50864.4327 1.2560 1.3340
ENERGY: 925000 0.8673 5.2513 20.9029 0.0000 -17603.6944 2315.1225 0.0000 0.0000 2859.6611 -12401.8893 295.0378 -15261.5504 -12396.2689 300.1750 -524.3213 -451.5085 51061.6549 0.0880 0.5248
ENERGY: 1125000 1.1644 6.3076 21.0448 0.0000 -17585.7250 2340.1824 0.0000 0.0000 2849.9986 -12367.0271 294.0409 -15217.0257 -12362.5976 300.2894 -245.6982 -175.7573 50695.4359 0.2115 0.3910
ENERGY: 1325000 1.6906 6.0768 21.8188 0.0000 -17472.6645 2252.5511 0.0000 0.0000 2881.5589 -12308.9683 297.2971 -15190.5272 -12304.4060 299.5738 -589.9251 -489.8235 50554.1556 4.1333 3.8225
TCL: Exiting due to exit command.
