Info: SIMULATION PARAMETERS:
Info: TIMESTEP               2
Info: NUMBER OF STEPS        0
Info: STEPS PER CYCLE        10
Info: PERIODIC CELL BASIS 1  41.123 0 0
Info: PERIODIC CELL BASIS 2  0 41.086 0
Info: PERIODIC CELL BASIS 3  0 0 39.527
Info: PERIODIC CELL CENTER   0 0 0
Info: WRAPPING WATERS AROUND PERIODIC BOUNDARIES ON OUTPUT.
Info: WRAPPING ALL CLUSTERS AROUND PERIODIC BOUNDARIES ON OUTPUT.
Info: FIRST LDB TIMESTEP     50
Info: LAST LDB TIMESTEP     -1
Info: HOM BACKGROUND SCALING 1
Info: PME BACKGROUND SCALING 1
Info: MIN ATOMS PER PATCH    40
Info: EMPTY PATCH LOAD       40 ATOMS
Info: INITIAL TEMPERATURE    300
Info: CENTER OF MASS MOVING INITIALLY? NO
Info: DIELECTRIC             1
Info: EXCLUDE                SCALED ONE-FOUR
Info: 1-4 ELECTROSTATICS SCALED BY 0.833333
Info: MODIFIED 1-4 VDW PARAMETERS WILL BE USED
Info: DCD FILENAME           mobley_8558116_min.dcd
Info: DCD FREQUENCY          5000
Info: DCD FIRST STEP         5000
Info: DCD FILE WILL CONTAIN UNIT CELL DATA
Info: XST FILENAME           mobley_8558116_min.xst
Info: XST FREQUENCY          5000
Info: NO VELOCITY DCD OUTPUT
Info: NO FORCE DCD OUTPUT
Info: OUTPUT FILENAME        mobley_8558116_min
Info: BINARY OUTPUT FILES WILL BE USED
Info: RESTART FILENAME       mobley_8558116_min.restart
Info: RESTART FREQUENCY      5000
Info: BINARY RESTART FILES WILL BE USED
Info: CUTOFF                 9
Info: PAIRLIST DISTANCE      11
Info: PAIRLIST SHRINK RATE   0.01
Info: PAIRLIST GROW RATE     0.01
Info: PAIRLIST TRIGGER       0.3
Info: PAIRLISTS PER CYCLE    2
Info: PAIRLISTS ENABLED
Info: MARGIN                 8
Info: HYDROGEN GROUP CUTOFF  2.5
Info: PATCH DIMENSION        21.5
Info: ENERGY OUTPUT STEPS    5000
Info: ENERGY EVALUATION STEPS    5000
Info: OUTPUT ENERGY PRECISION 4
Info: CROSSTERM ENERGY INCLUDED IN DIHEDRAL
Info: TIMING OUTPUT STEPS    50000
Info: PRESSURE OUTPUT STEPS  5000
Info: LANGEVIN DYNAMICS ACTIVE
Info: LANGEVIN TEMPERATURE   300
Info: LANGEVIN USING BBK INTEGRATOR
Info: LANGEVIN DAMPING COEFFICIENT IS 1 INVERSE PS
Info: LANGEVIN DYNAMICS APPLIED TO HYDROGENS
Info: LANGEVIN PISTON PRESSURE CONTROL ACTIVE
Info:        TARGET PRESSURE IS 1.01325 BAR
Info:     OSCILLATION PERIOD IS 50 FS
Info:             DECAY TIME IS 25 FS
Info:     PISTON TEMPERATURE IS 300 K
Info:       PRESSURE CONTROL IS GROUP-BASED
Info:    INITIAL STRAIN RATE IS 0 0 0
Info:       CELL FLUCTUATION IS ISOTROPIC
Info: PARTICLE MESH EWALD (PME) ACTIVE
Info: PME TOLERANCE               1e-06
Info: PME EWALD COEFFICIENT       0.348832
Info: PME INTERPOLATION ORDER     4
Info: PME GRID DIMENSIONS         44 44 40
Info: PME MAXIMUM GRID SPACING    1
Info: FULL ELECTROSTATIC EVALUATION FREQUENCY      2
Info: USING VERLET I (r-RESPA) MTS SCHEME.
Info: C1 SPLITTING OF LONG RANGE ELECTROSTATICS
Info: PLACING ATOMS IN PATCHES BY HYDROGEN GROUPS
Info: RIGID BONDS TO HYDROGEN : ALL
Info:         ERROR TOLERANCE : 1e-08
Info:          MAX ITERATIONS : 100
Info: RIGID WATER USING SETTLE ALGORITHM
Info: RANDOM NUMBER SEED     1741408253
Info: USE HYDROGEN BONDS?    NO
Info: Using AMBER format force field!
Info: AMBER PARM FILE        mobley_8558116.prmtop
Info: COORDINATE PDB         mobley_8558116.pdb
Info: Exclusions will be read from PARM file!
Info: SCNB (VDW SCALING)     2
Info: USING ARITHMETIC MEAN TO COMBINE L-J SIGMA PARAMETERS
Info: SUMMARY OF PARAMETERS:
Info: 6 BONDS
Info: 8 ANGLES
Info:   8 HARMONIC
Info:   0 COSINE-BASED
Info: 9 DIHEDRAL
Info: 0 IMPROPER
Info: 0 CROSSTERM
Info: 0 VDW
Info: 21 VDW_PAIRS
Info: 0 NBTHOLE_PAIRS
Info: STRUCTURE SUMMARY:
Info: 4749 ATOMS
Info: 4749 BONDS
Info: 34 ANGLES
Info: 50 DIHEDRALS
Info: 0 IMPROPERS
Info: 0 CROSSTERMS
Info: 4822 EXCLUSIONS
Info: 4742 RIGID BONDS
Info: 9505 DEGREES OF FREEDOM
Info: 1584 HYDROGEN GROUPS
Info: 4 ATOMS IN LARGEST HYDROGEN GROUP
Info: 1584 MIGRATION GROUPS
Info: 4 ATOMS IN LARGEST MIGRATION GROUP
Info: TOTAL MASS = 28512.4 amu
Info: TOTAL CHARGE = 0.000400033 e
Info: MASS DENSITY = 0.708958 g/cm^3
Info: ATOM DENSITY = 0.0711098 atoms/A^3
Info: ADDED 0 IMPLICIT EXCLUSIONS
Info: NONBONDED TABLE R-SQUARED SPACING: 0.0625
Info: NONBONDED TABLE SIZE: 705 POINTS
Info: REMOVING COM VELOCITY -0.000771874 0.0932833 0.0877736
TCL: Minimizing for 2000 steps
ETITLE: TS BOND ANGLE DIHED IMPRP ELECT VDW BOUNDARY MISC KINETIC TOTAL TEMP POTENTIAL TOTAL3 TEMPAVG PRESSURE GPRESSURE VOLUME PRESSAVG GPRESSAVG
ENERGY: 0 0.0618 1.6542 1.7791 0.0000 -14613.0049 1627.3200 0.0000 0.0000 0.0000 -12982.1898 0.0000 -12982.1898 -12982.1898 0.0000 10668.6439 -15557.5549 66784.0120 10668.6439 -15557.5549
ENERGY: 400 32.3834 19.3499 2.5267 0.0000 -19951.4805 2957.0381 0.0000 0.0000 0.0000 -16940.1823 0.0000 -16940.1823 -16940.1823 0.0000 15835.4998 15844.1285 66784.0120 15835.4998 15844.1285
ENERGY: 800 1.4773 0.8428 1.8911 0.0000 -20973.4578 3454.1118 0.0000 0.0000 0.0000 -17515.1349 0.0000 -17515.1349 -17515.1349 0.0000 18152.5228 18277.8998 66784.0120 18152.5228 18277.8998
ENERGY: 1200 1.2164 0.5567 2.0683 0.0000 -21302.6656 3587.0953 0.0000 0.0000 0.0000 -17711.7289 0.0000 -17711.7289 -17711.7289 0.0000 18802.4090 18923.8148 66784.0120 18802.4090 18923.8148
ENERGY: 1600 1.1175 0.4828 2.1054 0.0000 -21568.2895 3722.0271 0.0000 0.0000 0.0000 -17842.5566 0.0000 -17842.5566 -17842.5566 0.0000 19498.6613 19611.4925 66784.0120 19498.6613 19611.4925
ENERGY: 2000 0.8551 0.4699 2.0248 0.0000 -21744.1828 3805.5906 0.0000 0.0000 0.0000 -17935.2425 0.0000 -17935.2425 -17935.2425 0.0000 19905.5144 20004.0286 66784.0120 19905.5144 20004.0286
TCL: Exiting due to exit command.
Info: NAMD 3.0.1 for Linux-x86_64-multicore
Info: Please visit http://www.ks.uiuc.edu/Research/namd/
Info: for updates, documentation, and support information.
Info: Please cite Phillips et al., J. Chem. Phys. 153:044130 (2020) doi:10.1063/5.0014475
Info: in all publications reporting results obtained with NAMD.
Info: Based on Charm++/Converse 80000 for multicore-linux-x86_64-gcc
Info: Built Mon Oct 14 11:11:06 CDT 2024 by dhardy on athine.ks.uiuc.edu
Info: 1 NAMD  3.0.1  Linux-x86_64-multicore  16    k005  z5358697
Info: Running on 16 processors, 1 nodes, 1 physical nodes.
Info: CPU topology information available.
Info: Charm++/Converse parallel runtime startup completed at 0.00933668 s
Info: 1043.45 MB of memory in use based on /proc/self/stat
Info: Configuration file is mobley_8558116_equil.namd
Info: Working in the current directory /srv/scratch/z5358697/prod_prep_11/8558116
TCL: Running 25000 steps at 30 kelvin.
TCL: Suspending until startup complete.
Info: SIMULATION PARAMETERS:
Info: TIMESTEP               2
Info: NUMBER OF STEPS        0
Info: STEPS PER CYCLE        10
Info: PERIODIC CELL BASIS 1  41.123 0 0
Info: PERIODIC CELL BASIS 2  0 41.086 0
Info: PERIODIC CELL BASIS 3  0 0 39.527
Info: PERIODIC CELL CENTER   0 0 0
Info: WRAPPING WATERS AROUND PERIODIC BOUNDARIES ON OUTPUT.
Info: WRAPPING ALL CLUSTERS AROUND PERIODIC BOUNDARIES ON OUTPUT.
Info: FIRST LDB TIMESTEP     50
Info: LAST LDB TIMESTEP     -1
Info: HOM BACKGROUND SCALING 1
Info: PME BACKGROUND SCALING 1
Info: MIN ATOMS PER PATCH    40
Info: EMPTY PATCH LOAD       40 ATOMS
Info: INITIAL TEMPERATURE    300
Info: CENTER OF MASS MOVING INITIALLY? NO
Info: DIELECTRIC             1
Info: EXCLUDE                SCALED ONE-FOUR
Info: 1-4 ELECTROSTATICS SCALED BY 0.833333
Info: MODIFIED 1-4 VDW PARAMETERS WILL BE USED
Info: DCD FILENAME           mobley_8558116_equil.dcd
Info: DCD FREQUENCY          5000
Info: DCD FIRST STEP         5000
Info: DCD FILE WILL CONTAIN UNIT CELL DATA
Info: XST FILENAME           mobley_8558116_equil.xst
Info: XST FREQUENCY          5000
Info: NO VELOCITY DCD OUTPUT
Info: NO FORCE DCD OUTPUT
Info: OUTPUT FILENAME        mobley_8558116_equil
Info: BINARY OUTPUT FILES WILL BE USED
Info: RESTART FILENAME       mobley_8558116_equil.restart
Info: RESTART FREQUENCY      5000
Info: BINARY RESTART FILES WILL BE USED
Info: CUTOFF                 9
Info: PAIRLIST DISTANCE      11
Info: PAIRLIST SHRINK RATE   0.01
Info: PAIRLIST GROW RATE     0.01
Info: PAIRLIST TRIGGER       0.3
Info: PAIRLISTS PER CYCLE    2
Info: PAIRLISTS ENABLED
Info: MARGIN                 8
Info: HYDROGEN GROUP CUTOFF  2.5
Info: PATCH DIMENSION        21.5
Info: ENERGY OUTPUT STEPS    5000
Info: ENERGY EVALUATION STEPS    5000
Info: OUTPUT ENERGY PRECISION 4
Info: CROSSTERM ENERGY INCLUDED IN DIHEDRAL
Info: TIMING OUTPUT STEPS    50000
Info: PRESSURE OUTPUT STEPS  5000
Info: LANGEVIN DYNAMICS ACTIVE
Info: LANGEVIN TEMPERATURE   30
Info: LANGEVIN USING BBK INTEGRATOR
Info: LANGEVIN DAMPING COEFFICIENT IS 1 INVERSE PS
Info: LANGEVIN DYNAMICS APPLIED TO HYDROGENS
Info: LANGEVIN PISTON PRESSURE CONTROL ACTIVE
Info:        TARGET PRESSURE IS 1.01325 BAR
Info:     OSCILLATION PERIOD IS 50 FS
Info:             DECAY TIME IS 25 FS
Info:     PISTON TEMPERATURE IS 300 K
Info:       PRESSURE CONTROL IS GROUP-BASED
Info:    INITIAL STRAIN RATE IS 0 0 0
Info:       CELL FLUCTUATION IS ISOTROPIC
Info: PARTICLE MESH EWALD (PME) ACTIVE
Info: PME TOLERANCE               1e-06
Info: PME EWALD COEFFICIENT       0.348832
Info: PME INTERPOLATION ORDER     4
Info: PME GRID DIMENSIONS         44 44 40
Info: PME MAXIMUM GRID SPACING    1
Info: FULL ELECTROSTATIC EVALUATION FREQUENCY      2
Info: USING VERLET I (r-RESPA) MTS SCHEME.
Info: C1 SPLITTING OF LONG RANGE ELECTROSTATICS
Info: PLACING ATOMS IN PATCHES BY HYDROGEN GROUPS
Info: RIGID BONDS TO HYDROGEN : ALL
Info:         ERROR TOLERANCE : 1e-08
Info:          MAX ITERATIONS : 100
Info: RIGID WATER USING SETTLE ALGORITHM
Info: RANDOM NUMBER SEED     1741408271
Info: USE HYDROGEN BONDS?    NO
Info: Using AMBER format force field!
Info: AMBER PARM FILE        mobley_8558116.prmtop
Info: COORDINATE PDB         mobley_8558116.pdb
Info: Exclusions will be read from PARM file!
Info: SCNB (VDW SCALING)     2
Info: USING ARITHMETIC MEAN TO COMBINE L-J SIGMA PARAMETERS
Info: BINARY COORDINATES     mobley_8558116_min.coor
Info: SUMMARY OF PARAMETERS:
Info: 6 BONDS
Info: 8 ANGLES
Info:   8 HARMONIC
Info:   0 COSINE-BASED
Info: 9 DIHEDRAL
Info: 0 IMPROPER
Info: 0 CROSSTERM
Info: 0 VDW
Info: 21 VDW_PAIRS
Info: 0 NBTHOLE_PAIRS
Info: STRUCTURE SUMMARY:
Info: 4749 ATOMS
Info: 4749 BONDS
Info: 34 ANGLES
Info: 50 DIHEDRALS
Info: 0 IMPROPERS
Info: 0 CROSSTERMS
Info: 4822 EXCLUSIONS
Info: 4742 RIGID BONDS
Info: 9505 DEGREES OF FREEDOM
Info: 1584 HYDROGEN GROUPS
Info: 4 ATOMS IN LARGEST HYDROGEN GROUP
Info: 1584 MIGRATION GROUPS
Info: 4 ATOMS IN LARGEST MIGRATION GROUP
Info: TOTAL MASS = 28512.4 amu
Info: TOTAL CHARGE = 0.000400033 e
Info: MASS DENSITY = 0.708958 g/cm^3
Info: ATOM DENSITY = 0.0711098 atoms/A^3
Info: ADDED 0 IMPLICIT EXCLUSIONS
Info: NONBONDED TABLE R-SQUARED SPACING: 0.0625
Info: NONBONDED TABLE SIZE: 705 POINTS
Info: REMOVING COM VELOCITY 0.11637 -0.137205 0.0280617
TCL: Running for 25000 steps
ETITLE: TS BOND ANGLE DIHED IMPRP ELECT VDW BOUNDARY MISC KINETIC TOTAL TEMP POTENTIAL TOTAL3 TEMPAVG PRESSURE GPRESSURE VOLUME PRESSAVG GPRESSAVG
ENERGY: 0 0.8551 0.4699 2.0248 0.0000 -21744.1828 3805.5906 0.0000 0.0000 2892.8162 -15042.4263 306.3085 -17935.2425 -15041.8321 306.3085 457.4440 501.3649 66784.0120 457.4440 501.3649
ENERGY: 5000 0.5164 1.1023 2.3750 0.0000 -22634.3422 3880.4486 0.0000 0.0000 294.2243 -18455.6757 31.1542 -18749.8999 -18455.1496 48.0796 -137.4389 -86.9952 45991.2438 3.6183 3.3862
ENERGY: 10000 0.3829 1.1845 2.0034 0.0000 -22783.6943 3994.2163 0.0000 0.0000 288.0590 -18497.8484 30.5014 -18785.9073 -18496.9656 30.5871 336.8565 407.2585 45794.0269 -0.3107 -0.2428
ENERGY: 15000 0.6044 1.2557 2.3041 0.0000 -22687.9158 3871.5561 0.0000 0.0000 278.1820 -18534.0135 29.4556 -18812.1955 -18532.9298 30.2464 -325.3452 -279.7305 45856.3438 2.3841 2.5936
ENERGY: 20000 1.6903 1.5848 2.0719 0.0000 -22699.8071 3841.8172 0.0000 0.0000 286.8075 -18565.8355 30.3689 -18852.6430 -18564.9806 30.1808 -623.8756 -578.2752 45949.9030 4.9100 4.9481
ENERGY: 25000 1.4253 1.1453 1.9938 0.0000 -22877.7889 4017.3923 0.0000 0.0000 278.7463 -18577.0859 29.5153 -18855.8323 -18576.4151 29.8011 397.1262 454.6442 45446.9599 2.5953 2.8208
TCL: Running 25000 steps at 60 kelvin.
TCL: Setting parameter langevinTemp to 60
TCL: Running for 25000 steps
ETITLE: TS BOND ANGLE DIHED IMPRP ELECT VDW BOUNDARY MISC KINETIC TOTAL TEMP POTENTIAL TOTAL3 TEMPAVG PRESSURE GPRESSURE VOLUME PRESSAVG GPRESSAVG
ENERGY: 25000 1.4253 1.1453 1.9938 0.0000 -22877.7889 4017.3923 0.0000 0.0000 278.6051 -18577.2272 29.5004 -18855.8323 -18576.6416 29.5004 406.3518 454.6109 45446.9599 406.3518 454.6109
ENERGY: 30000 0.8429 2.5108 2.3884 0.0000 -22269.8364 3678.8761 0.0000 0.0000 578.0914 -18007.1268 61.2117 -18585.2182 -18005.0230 57.2670 -744.1876 -679.9549 45758.3895 2.9192 2.9801
ENERGY: 35000 0.8365 1.8887 2.2441 0.0000 -22480.1387 3820.9812 0.0000 0.0000 585.8832 -18068.3050 62.0368 -18654.1882 -18066.9164 60.6497 -95.7843 -40.7550 45638.6129 1.5239 1.7032
ENERGY: 40000 1.3580 2.0761 2.0924 0.0000 -22448.4602 3749.0562 0.0000 0.0000 571.9667 -18121.9109 60.5632 -18693.8776 -18119.1159 60.4026 -547.9585 -477.1588 45597.9351 -3.4159 -3.1235
ENERGY: 45000 0.6607 1.6126 2.2789 0.0000 -22627.1090 3903.7357 0.0000 0.0000 577.9127 -18140.9085 61.1928 -18718.8212 -18139.3522 60.1947 249.0892 306.5629 45368.4181 2.6260 2.5029
ENERGY: 50000 1.2271 1.6266 2.1584 0.0000 -22723.8778 3999.1932 0.0000 0.0000 562.5035 -18157.1690 59.5612 -18719.6725 -18155.7801 60.1014 819.4869 888.8935 45095.5324 3.2761 3.4300
TCL: Running 25000 steps at 90 kelvin.
TCL: Setting parameter langevinTemp to 90
TCL: Running for 25000 steps
ETITLE: TS BOND ANGLE DIHED IMPRP ELECT VDW BOUNDARY MISC KINETIC TOTAL TEMP POTENTIAL TOTAL3 TEMPAVG PRESSURE GPRESSURE VOLUME PRESSAVG GPRESSAVG
ENERGY: 50000 1.2271 1.6266 2.1584 0.0000 -22723.8779 3999.1932 0.0000 0.0000 562.2199 -18157.4526 59.5312 -18719.6725 -18156.5865 59.5312 825.8133 888.9382 45095.5324 825.8133 888.9382
ENERGY: 55000 1.5412 2.3750 2.1210 0.0000 -22047.3595 3595.2831 0.0000 0.0000 861.5810 -17584.4582 91.2293 -18446.0392 -17581.2058 87.4101 -799.1267 -701.9765 45832.2885 3.3474 3.6019
ENERGY: 60000 0.6986 3.3135 2.3854 0.0000 -22220.6411 3769.1607 0.0000 0.0000 836.9880 -17608.0949 88.6253 -18445.0829 -17606.1689 90.4335 76.8773 172.3085 45684.8258 -1.3835 -1.5694
ENERGY: 65000 0.9834 2.7266 2.0106 0.0000 -22158.4339 3684.4429 0.0000 0.0000 863.3907 -17604.8797 91.4209 -18468.2704 -17602.6940 89.9863 -327.0683 -283.6569 45740.6974 4.4092 4.4984
ENERGY: 70000 1.2272 2.1695 1.9235 0.0000 -22348.0031 3854.8531 0.0000 0.0000 864.8839 -17622.9459 91.5790 -18487.8299 -17620.2135 89.8986 568.5758 639.8821 45311.2514 -0.7566 -0.4388
ENERGY: 75000 0.7679 2.5821 2.4195 0.0000 -22203.9798 3690.2939 0.0000 0.0000 867.5524 -17640.3639 91.8616 -18507.9164 -17637.8834 90.1241 -407.7178 -332.9782 45757.0476 2.9264 3.0295
TCL: Running 25000 steps at 120 kelvin.
TCL: Setting parameter langevinTemp to 120
TCL: Running for 25000 steps
ETITLE: TS BOND ANGLE DIHED IMPRP ELECT VDW BOUNDARY MISC KINETIC TOTAL TEMP POTENTIAL TOTAL3 TEMPAVG PRESSURE GPRESSURE VOLUME PRESSAVG GPRESSAVG
ENERGY: 75000 0.7679 2.5821 2.4195 0.0000 -22203.9798 3690.2939 0.0000 0.0000 867.1102 -17640.8062 91.8148 -18507.9164 -17638.8871 91.8148 -400.1305 -332.5873 45757.0476 -400.1305 -332.5873
ENERGY: 80000 2.1512 2.3950 2.5155 0.0000 -21793.3668 3596.1189 0.0000 0.0000 1125.5724 -17064.6138 119.1823 -18190.1861 -17061.3167 117.2227 -141.1713 -71.3047 45761.7475 8.7600 8.5504
ENERGY: 85000 1.5445 4.7563 2.1967 0.0000 -21905.2964 3660.0859 0.0000 0.0000 1158.5334 -17078.1796 122.6724 -18236.7130 -17075.8564 119.8344 122.7882 179.2191 45641.2862 2.7421 2.6814
ENERGY: 90000 2.1233 3.0788 2.1927 0.0000 -21808.6591 3499.3556 0.0000 0.0000 1109.9481 -17191.9606 117.5279 -18301.9086 -17189.9864 119.1555 -968.9183 -928.2429 45960.2790 2.5798 3.0206
ENERGY: 95000 0.9576 4.8468 1.9930 0.0000 -21970.7312 3679.2702 0.0000 0.0000 1131.4278 -17152.2357 119.8023 -18283.6635 -17148.7828 120.1109 14.9953 75.6377 45788.6295 7.6179 7.6221
ENERGY: 100000 1.3166 5.6458 2.3924 0.0000 -21956.8424 3640.5604 0.0000 0.0000 1135.0443 -17171.8829 120.1852 -18306.9272 -17169.2129 120.1556 -235.4196 -180.3522 45823.0365 -3.0087 -2.9338
TCL: Running 25000 steps at 150 kelvin.
TCL: Setting parameter langevinTemp to 150
TCL: Running for 25000 steps
ETITLE: TS BOND ANGLE DIHED IMPRP ELECT VDW BOUNDARY MISC KINETIC TOTAL TEMP POTENTIAL TOTAL3 TEMPAVG PRESSURE GPRESSURE VOLUME PRESSAVG GPRESSAVG
ENERGY: 100000 1.3166 5.6458 2.3924 0.0000 -21956.8424 3640.5604 0.0000 0.0000 1134.4790 -17172.4482 120.1254 -18306.9272 -17170.1291 120.1254 -229.7383 -180.9325 45823.0365 -229.7383 -180.9325
ENERGY: 105000 1.7724 3.5832 2.9519 0.0000 -21440.9739 3491.5084 0.0000 0.0000 1391.0220 -16550.1361 147.2897 -17941.1580 -16547.0273 145.8122 -101.7571 -66.2569 46068.8127 4.9214 5.3308
ENERGY: 110000 1.5222 3.6765 1.9895 0.0000 -21452.8376 3522.7541 0.0000 0.0000 1403.5375 -16519.3579 148.6149 -17922.8953 -16515.8135 149.6298 -23.3977 57.8456 46112.3727 3.0342 2.7517
ENERGY: 115000 1.1508 3.3645 2.3889 0.0000 -21738.2503 3697.9439 0.0000 0.0000 1400.2170 -16633.1852 148.2633 -18033.4021 -16631.4576 150.8733 713.3368 773.4033 45888.3436 -2.6472 -2.3382
ENERGY: 120000 0.9293 5.7333 2.4761 0.0000 -21568.4700 3542.8384 0.0000 0.0000 1413.6674 -16602.8255 149.6875 -18016.4929 -16598.3337 148.6966 -98.0047 -35.7701 46080.8903 1.7849 1.9052
ENERGY: 125000 0.8514 3.6223 2.4780 0.0000 -21495.0555 3462.0603 0.0000 0.0000 1380.4694 -16645.5740 146.1723 -18026.0434 -16640.7854 150.1593 -425.2563 -393.9863 45983.5731 0.6174 0.3031
TCL: Running 50000 steps at 180 kelvin.
TCL: Setting parameter langevinTemp to 180
TCL: Running for 50000 steps
ETITLE: TS BOND ANGLE DIHED IMPRP ELECT VDW BOUNDARY MISC KINETIC TOTAL TEMP POTENTIAL TOTAL3 TEMPAVG PRESSURE GPRESSURE VOLUME PRESSAVG GPRESSAVG
ENERGY: 125000 0.8514 3.6223 2.4780 0.0000 -21495.0555 3462.0603 0.0000 0.0000 1379.7505 -16646.2929 146.0962 -18026.0434 -16643.9225 146.0962 -445.2415 -392.9193 45983.5731 -445.2415 -392.9193
ENERGY: 135000 0.7119 3.3113 2.5943 0.0000 -20944.2709 3337.2641 0.0000 0.0000 1690.3385 -15910.0510 178.9831 -17600.3895 -15904.8660 179.1667 -326.2556 -315.4148 46755.3018 4.6035 4.4528
ENERGY: 145000 2.7678 5.8206 2.5730 0.0000 -21040.6406 3418.7591 0.0000 0.0000 1692.9146 -15917.8055 179.2558 -17610.7201 -15911.9962 180.7018 140.5330 165.7528 46286.8049 -0.2949 0.2953
ENERGY: 155000 1.1804 9.7842 2.9575 0.0000 -20891.3838 3354.1873 0.0000 0.0000 1688.5723 -15834.7021 178.7961 -17523.2745 -15831.2924 180.1912 183.9729 245.8962 45935.7754 1.5793 1.7081
ENERGY: 165000 0.3084 5.5803 3.0862 0.0000 -21063.4872 3434.2313 0.0000 0.0000 1682.7702 -15937.5108 178.1817 -17620.2810 -15934.3600 179.8329 286.7314 377.6658 46162.6507 4.4901 4.1875
ENERGY: 175000 2.5435 6.2715 2.3511 0.0000 -21007.6425 3361.1564 0.0000 0.0000 1706.1638 -15929.1562 180.6587 -17635.3200 -15925.3718 180.7797 -97.3902 -21.4345 46121.9507 3.0605 3.2188
TCL: Running 50000 steps at 210 kelvin.
TCL: Setting parameter langevinTemp to 210
TCL: Running for 50000 steps
ETITLE: TS BOND ANGLE DIHED IMPRP ELECT VDW BOUNDARY MISC KINETIC TOTAL TEMP POTENTIAL TOTAL3 TEMPAVG PRESSURE GPRESSURE VOLUME PRESSAVG GPRESSAVG
ENERGY: 175000 2.5435 6.2715 2.3511 0.0000 -21007.6425 3361.1564 0.0000 0.0000 1705.3132 -15930.0067 180.5687 -17635.3200 -15926.5587 180.5687 -94.4873 -21.9398 46121.9507 -94.4873 -21.9398
ENERGY: 185000 3.1175 3.8653 2.3146 0.0000 -19974.1165 3020.6941 0.0000 0.0000 1994.9623 -14949.1628 211.2384 -16944.1250 -14943.8781 208.8086 -563.4908 -458.7257 46803.9554 3.0906 3.0194
ENERGY: 195000 1.8917 7.8437 3.3857 0.0000 -19949.1063 3031.2311 0.0000 0.0000 1956.7715 -14947.9825 207.1946 -16904.7540 -14944.0195 209.7624 -187.5093 -142.7590 46378.2174 2.9820 2.1374
ENERGY: 205000 1.9830 7.2316 2.3106 0.0000 -19918.6601 3045.5995 0.0000 0.0000 1984.3365 -14877.1989 210.1133 -16861.5354 -14875.1952 210.1280 -21.0730 72.9802 46306.3827 -1.9845 -2.4328
ENERGY: 215000 2.3085 4.9421 2.8346 0.0000 -20014.6127 3105.4726 0.0000 0.0000 1980.5837 -14918.4711 209.7160 -16899.0548 -14914.8260 210.2040 251.6372 335.3411 46135.8813 -0.0360 0.2991
ENERGY: 225000 0.8206 3.9791 1.9415 0.0000 -20019.0398 3078.4527 0.0000 0.0000 1991.5451 -14942.3007 210.8766 -16933.8458 -14937.4115 210.6946 -237.4025 -132.5260 46886.8004 5.2869 5.5265
TCL: Running 50000 steps at 240 kelvin.
TCL: Setting parameter langevinTemp to 240
TCL: Running for 50000 steps
ETITLE: TS BOND ANGLE DIHED IMPRP ELECT VDW BOUNDARY MISC KINETIC TOTAL TEMP POTENTIAL TOTAL3 TEMPAVG PRESSURE GPRESSURE VOLUME PRESSAVG GPRESSAVG
ENERGY: 225000 0.8206 3.9791 1.9415 0.0000 -20019.0398 3078.4527 0.0000 0.0000 1990.5592 -14943.2865 210.7722 -16933.8458 -14939.5816 210.7722 -200.9583 -133.3336 46886.8004 -200.9583 -133.3336
ENERGY: 235000 1.2653 7.2353 3.0500 0.0000 -19008.9252 2839.4364 0.0000 0.0000 2262.0837 -13895.8544 239.5228 -16157.9381 -13890.2065 241.7670 309.8062 410.6295 46772.6788 0.8160 1.0309
ENERGY: 245000 2.0209 3.8858 2.9095 0.0000 -18981.7063 2804.6507 0.0000 0.0000 2214.7528 -13953.4865 234.5112 -16168.2393 -13949.8850 241.2343 240.9140 362.6308 46399.7585 2.6828 2.9675
ENERGY: 255000 2.5905 6.8134 3.0348 0.0000 -19032.9623 2876.1672 0.0000 0.0000 2282.8105 -13861.5459 241.7175 -16144.3564 -13858.8107 239.6963 775.0374 832.4238 46250.8250 1.8919 2.7769
ENERGY: 265000 1.2176 6.1513 2.3209 0.0000 -18855.7733 2709.9026 0.0000 0.0000 2321.9737 -13814.2072 245.8644 -16136.1810 -13810.5678 240.3784 -85.1677 -22.2324 46596.7197 3.8048 3.3918
ENERGY: 275000 1.9602 5.9687 2.8440 0.0000 -18877.5753 2728.5845 0.0000 0.0000 2257.8685 -13880.3493 239.0765 -16138.2178 -13874.0344 240.6635 -161.2289 -91.9379 46957.1302 10.6898 10.8125
TCL: Running 50000 steps at 270 kelvin.
TCL: Setting parameter langevinTemp to 270
TCL: Running for 50000 steps
ETITLE: TS BOND ANGLE DIHED IMPRP ELECT VDW BOUNDARY MISC KINETIC TOTAL TEMP POTENTIAL TOTAL3 TEMPAVG PRESSURE GPRESSURE VOLUME PRESSAVG GPRESSAVG
ENERGY: 275000 1.9602 5.9687 2.8440 0.0000 -18877.5753 2728.5845 0.0000 0.0000 2256.7429 -13881.4749 238.9573 -16138.2178 -13877.6903 238.9573 -183.6660 -89.6423 46957.1302 -183.6660 -89.6423
ENERGY: 285000 2.9201 5.7001 2.1467 0.0000 -17953.0548 2478.9753 0.0000 0.0000 2552.8631 -12910.4495 270.3123 -15463.3126 -12906.6184 269.7710 -176.5140 -125.4327 47624.2552 -1.5026 -1.4410
ENERGY: 295000 3.7299 7.2908 2.4059 0.0000 -17965.9270 2443.9279 0.0000 0.0000 2529.7259 -12978.8467 267.8624 -15508.5725 -12973.9292 268.7935 -768.2908 -702.2009 48477.4158 3.3753 3.1822
ENERGY: 305000 3.2688 5.7129 3.0719 0.0000 -18001.2428 2514.5516 0.0000 0.0000 2597.6586 -12876.9790 275.0555 -15474.6376 -12872.7419 271.0395 -104.0396 16.4136 47654.0227 0.7872 1.2584
ENERGY: 315000 2.7954 6.4751 2.4191 0.0000 -18107.5684 2507.8135 0.0000 0.0000 2528.5257 -13059.5396 267.7353 -15588.0653 -13054.7153 270.0887 -145.9391 -53.9864 47162.3785 5.0308 5.3450
ENERGY: 325000 1.8112 6.2319 2.4317 0.0000 -17983.1361 2494.4529 0.0000 0.0000 2577.2395 -12900.9691 272.8934 -15478.2085 -12895.2622 270.7171 -137.0755 -48.8516 48045.0674 2.9168 2.6318
TCL: Running 1000000 steps at 300 kelvin.
TCL: Setting parameter langevinTemp to 300
TCL: Running for 1000000 steps
ETITLE: TS BOND ANGLE DIHED IMPRP ELECT VDW BOUNDARY MISC KINETIC TOTAL TEMP POTENTIAL TOTAL3 TEMPAVG PRESSURE GPRESSURE VOLUME PRESSAVG GPRESSAVG
ENERGY: 325000 1.8112 6.2319 2.4317 0.0000 -17983.1361 2494.4529 0.0000 0.0000 2575.9567 -12902.2518 272.7576 -15478.2085 -12898.3819 272.7576 -136.1106 -47.2818 48045.0674 -136.1106 -47.2818
ENERGY: 525000 2.1796 9.8046 2.9683 0.0000 -17286.2401 2415.9343 0.0000 0.0000 2834.9517 -12020.4015 300.1815 -14855.3532 -12014.0964 300.5033 659.4635 745.8657 48402.3133 2.5426 2.7293
ENERGY: 725000 0.5512 10.3031 2.8069 0.0000 -17269.3735 2342.1306 0.0000 0.0000 2774.2835 -12139.2981 293.7576 -14913.5816 -12136.5207 298.2099 36.5106 85.7882 48778.7458 2.7406 3.0192
ENERGY: 925000 0.8560 7.1598 2.6994 0.0000 -17165.3337 2285.7318 0.0000 0.0000 2866.2257 -12002.6611 303.4930 -14868.8868 -11999.9966 302.7386 -71.7282 11.3869 48589.1895 1.8987 1.6949
ENERGY: 1125000 2.8242 12.4307 2.7197 0.0000 -17129.4966 2293.5175 0.0000 0.0000 2825.7255 -11992.2790 299.2046 -14818.0045 -11989.5433 300.8597 -174.4288 -73.9437 49139.7968 4.2353 3.3860
ENERGY: 1325000 1.5415 8.6679 3.2679 0.0000 -17287.0617 2323.3085 0.0000 0.0000 2742.3352 -12207.9408 290.3747 -14950.2760 -12203.5509 297.7782 -236.6101 -132.5875 48737.6407 4.4324 4.2103
TCL: Exiting due to exit command.
