Info: SIMULATION PARAMETERS:
Info: TIMESTEP               2
Info: NUMBER OF STEPS        0
Info: STEPS PER CYCLE        10
Info: PERIODIC CELL BASIS 1  39.456 0 0
Info: PERIODIC CELL BASIS 2  0 41.891 0
Info: PERIODIC CELL BASIS 3  0 0 44.171
Info: PERIODIC CELL CENTER   0 0 0
Info: WRAPPING WATERS AROUND PERIODIC BOUNDARIES ON OUTPUT.
Info: WRAPPING ALL CLUSTERS AROUND PERIODIC BOUNDARIES ON OUTPUT.
Info: FIRST LDB TIMESTEP     50
Info: LAST LDB TIMESTEP     -1
Info: HOM BACKGROUND SCALING 1
Info: PME BACKGROUND SCALING 1
Info: MIN ATOMS PER PATCH    40
Info: EMPTY PATCH LOAD       40 ATOMS
Info: INITIAL TEMPERATURE    300
Info: CENTER OF MASS MOVING INITIALLY? NO
Info: DIELECTRIC             1
Info: EXCLUDE                SCALED ONE-FOUR
Info: 1-4 ELECTROSTATICS SCALED BY 0.833333
Info: MODIFIED 1-4 VDW PARAMETERS WILL BE USED
Info: DCD FILENAME           mobley_6250025_min.dcd
Info: DCD FREQUENCY          5000
Info: DCD FIRST STEP         5000
Info: DCD FILE WILL CONTAIN UNIT CELL DATA
Info: XST FILENAME           mobley_6250025_min.xst
Info: XST FREQUENCY          5000
Info: NO VELOCITY DCD OUTPUT
Info: NO FORCE DCD OUTPUT
Info: OUTPUT FILENAME        mobley_6250025_min
Info: BINARY OUTPUT FILES WILL BE USED
Info: RESTART FILENAME       mobley_6250025_min.restart
Info: RESTART FREQUENCY      5000
Info: BINARY RESTART FILES WILL BE USED
Info: CUTOFF                 9
Info: PAIRLIST DISTANCE      11
Info: PAIRLIST SHRINK RATE   0.01
Info: PAIRLIST GROW RATE     0.01
Info: PAIRLIST TRIGGER       0.3
Info: PAIRLISTS PER CYCLE    2
Info: PAIRLISTS ENABLED
Info: MARGIN                 8
Info: HYDROGEN GROUP CUTOFF  2.5
Info: PATCH DIMENSION        21.5
Info: ENERGY OUTPUT STEPS    5000
Info: ENERGY EVALUATION STEPS    5000
Info: OUTPUT ENERGY PRECISION 4
Info: CROSSTERM ENERGY INCLUDED IN DIHEDRAL
Info: TIMING OUTPUT STEPS    50000
Info: PRESSURE OUTPUT STEPS  5000
Info: LANGEVIN DYNAMICS ACTIVE
Info: LANGEVIN TEMPERATURE   300
Info: LANGEVIN USING BBK INTEGRATOR
Info: LANGEVIN DAMPING COEFFICIENT IS 1 INVERSE PS
Info: LANGEVIN DYNAMICS APPLIED TO HYDROGENS
Info: LANGEVIN PISTON PRESSURE CONTROL ACTIVE
Info:        TARGET PRESSURE IS 1.01325 BAR
Info:     OSCILLATION PERIOD IS 50 FS
Info:             DECAY TIME IS 25 FS
Info:     PISTON TEMPERATURE IS 300 K
Info:       PRESSURE CONTROL IS GROUP-BASED
Info:    INITIAL STRAIN RATE IS 0 0 0
Info:       CELL FLUCTUATION IS ISOTROPIC
Info: PARTICLE MESH EWALD (PME) ACTIVE
Info: PME TOLERANCE               1e-06
Info: PME EWALD COEFFICIENT       0.348832
Info: PME INTERPOLATION ORDER     4
Info: PME GRID DIMENSIONS         40 44 48
Info: PME MAXIMUM GRID SPACING    1
Info: FULL ELECTROSTATIC EVALUATION FREQUENCY      2
Info: USING VERLET I (r-RESPA) MTS SCHEME.
Info: C1 SPLITTING OF LONG RANGE ELECTROSTATICS
Info: PLACING ATOMS IN PATCHES BY HYDROGEN GROUPS
Info: RIGID BONDS TO HYDROGEN : ALL
Info:         ERROR TOLERANCE : 1e-08
Info:          MAX ITERATIONS : 100
Info: RIGID WATER USING SETTLE ALGORITHM
Info: RANDOM NUMBER SEED     1741382344
Info: USE HYDROGEN BONDS?    NO
Info: Using AMBER format force field!
Info: AMBER PARM FILE        mobley_6250025.prmtop
Info: COORDINATE PDB         mobley_6250025.pdb
Info: Exclusions will be read from PARM file!
Info: SCNB (VDW SCALING)     2
Info: USING ARITHMETIC MEAN TO COMBINE L-J SIGMA PARAMETERS
Info: SUMMARY OF PARAMETERS:
Info: 6 BONDS
Info: 7 ANGLES
Info: 5 DIHEDRAL
Info: 0 IMPROPER
Info: 0 CROSSTERM
Info: 0 VDW
Info: 21 VDW_PAIRS
Info: 0 NBTHOLE_PAIRS
Info: STRUCTURE SUMMARY:
Info: 5234 ATOMS
Info: 5233 BONDS
Info: 36 ANGLES
Info: 45 DIHEDRALS
Info: 0 IMPROPERS
Info: 0 CROSSTERMS
Info: 5314 EXCLUSIONS
Info: 5227 RIGID BONDS
Info: 10475 DEGREES OF FREEDOM
Info: 1745 HYDROGEN GROUPS
Info: 4 ATOMS IN LARGEST HYDROGEN GROUP
Info: 1745 MIGRATION GROUPS
Info: 4 ATOMS IN LARGEST MIGRATION GROUP
Info: TOTAL MASS = 31523.9 amu
Info: TOTAL CHARGE = -2.6077e-08 e
Info: MASS DENSITY = 0.717014 g/cm^3
Info: ATOM DENSITY = 0.0716907 atoms/A^3
Info: ADDED 0 IMPLICIT EXCLUSIONS
Info: NONBONDED TABLE R-SQUARED SPACING: 0.0625
Info: NONBONDED TABLE SIZE: 705 POINTS
Info: REMOVING COM VELOCITY -0.0206405 0.0372978 0.123845
TCL: Minimizing for 2000 steps
ETITLE: TS BOND ANGLE DIHED IMPRP ELECT VDW BOUNDARY MISC KINETIC TOTAL TEMP POTENTIAL TOTAL3 TEMPAVG PRESSURE GPRESSURE VOLUME PRESSAVG GPRESSAVG
ENERGY: 0 0.8032 0.8971 0.0509 0.0000 -16345.3465 1827.2346 0.0000 0.0000 0.0000 -14516.3607 0.0000 -14516.3607 -14516.3607 0.0000 11011.1668 -15429.4180 73008.0946 11011.1668 -15429.4180
ENERGY: 400 3.7548 3.0387 0.2372 0.0000 -21771.9544 3086.1741 0.0000 0.0000 0.0000 -18678.7496 0.0000 -18678.7496 -18678.7496 0.0000 15232.4257 9406.3542 73008.0946 15232.4257 9406.3542
ENERGY: 800 0.8521 1.0299 0.0521 0.0000 -23122.8091 3733.9803 0.0000 0.0000 0.0000 -19386.8947 0.0000 -19386.8947 -19386.8947 0.0000 18030.1560 11521.1660 73008.0946 18030.1560 11521.1660
ENERGY: 1200 0.3016 0.9942 0.0831 0.0000 -23657.5004 3993.7570 0.0000 0.0000 0.0000 -19662.3645 0.0000 -19662.3645 -19662.3645 0.0000 19245.2862 12659.4667 73008.0946 19245.2862 12659.4667
ENERGY: 1600 2.8696 1.8770 0.0523 0.0000 -23878.7473 4081.0795 0.0000 0.0000 0.0000 -19792.8690 0.0000 -19792.8690 -19792.8690 0.0000 19642.6225 12864.3446 73008.0946 19642.6225 12864.3446
ENERGY: 2000 0.2345 0.3798 0.0273 0.0000 -24048.6866 4174.8522 0.0000 0.0000 0.0000 -19873.1929 0.0000 -19873.1929 -19873.1929 0.0000 20054.0801 13305.3726 73008.0946 20054.0801 13305.3726
TCL: Exiting due to exit command.
Info: NAMD 3.0.1 for Linux-x86_64-multicore
Info: Please visit http://www.ks.uiuc.edu/Research/namd/
Info: for updates, documentation, and support information.
Info: Please cite Phillips et al., J. Chem. Phys. 153:044130 (2020) doi:10.1063/5.0014475
Info: in all publications reporting results obtained with NAMD.
Info: Based on Charm++/Converse 80000 for multicore-linux-x86_64-gcc
Info: Built Mon Oct 14 11:11:06 CDT 2024 by dhardy on athine.ks.uiuc.edu
Info: 1 NAMD  3.0.1  Linux-x86_64-multicore  16    k011  z5358697
Info: Running on 16 processors, 1 nodes, 1 physical nodes.
Info: CPU topology information available.
Info: Charm++/Converse parallel runtime startup completed at 0.00943047 s
Info: 1043.45 MB of memory in use based on /proc/self/stat
Info: Configuration file is mobley_6250025_equil.namd
Info: Working in the current directory /srv/scratch/z5358697/prod_prep_8/6250025
TCL: Running 25000 steps at 30 kelvin.
TCL: Suspending until startup complete.
Info: SIMULATION PARAMETERS:
Info: TIMESTEP               2
Info: NUMBER OF STEPS        0
Info: STEPS PER CYCLE        10
Info: PERIODIC CELL BASIS 1  39.456 0 0
Info: PERIODIC CELL BASIS 2  0 41.891 0
Info: PERIODIC CELL BASIS 3  0 0 44.171
Info: PERIODIC CELL CENTER   0 0 0
Info: WRAPPING WATERS AROUND PERIODIC BOUNDARIES ON OUTPUT.
Info: WRAPPING ALL CLUSTERS AROUND PERIODIC BOUNDARIES ON OUTPUT.
Info: FIRST LDB TIMESTEP     50
Info: LAST LDB TIMESTEP     -1
Info: HOM BACKGROUND SCALING 1
Info: PME BACKGROUND SCALING 1
Info: MIN ATOMS PER PATCH    40
Info: EMPTY PATCH LOAD       40 ATOMS
Info: INITIAL TEMPERATURE    300
Info: CENTER OF MASS MOVING INITIALLY? NO
Info: DIELECTRIC             1
Info: EXCLUDE                SCALED ONE-FOUR
Info: 1-4 ELECTROSTATICS SCALED BY 0.833333
Info: MODIFIED 1-4 VDW PARAMETERS WILL BE USED
Info: DCD FILENAME           mobley_6250025_equil.dcd
Info: DCD FREQUENCY          5000
Info: DCD FIRST STEP         5000
Info: DCD FILE WILL CONTAIN UNIT CELL DATA
Info: XST FILENAME           mobley_6250025_equil.xst
Info: XST FREQUENCY          5000
Info: NO VELOCITY DCD OUTPUT
Info: NO FORCE DCD OUTPUT
Info: OUTPUT FILENAME        mobley_6250025_equil
Info: BINARY OUTPUT FILES WILL BE USED
Info: RESTART FILENAME       mobley_6250025_equil.restart
Info: RESTART FREQUENCY      5000
Info: BINARY RESTART FILES WILL BE USED
Info: CUTOFF                 9
Info: PAIRLIST DISTANCE      11
Info: PAIRLIST SHRINK RATE   0.01
Info: PAIRLIST GROW RATE     0.01
Info: PAIRLIST TRIGGER       0.3
Info: PAIRLISTS PER CYCLE    2
Info: PAIRLISTS ENABLED
Info: MARGIN                 8
Info: HYDROGEN GROUP CUTOFF  2.5
Info: PATCH DIMENSION        21.5
Info: ENERGY OUTPUT STEPS    5000
Info: ENERGY EVALUATION STEPS    5000
Info: OUTPUT ENERGY PRECISION 4
Info: CROSSTERM ENERGY INCLUDED IN DIHEDRAL
Info: TIMING OUTPUT STEPS    50000
Info: PRESSURE OUTPUT STEPS  5000
Info: LANGEVIN DYNAMICS ACTIVE
Info: LANGEVIN TEMPERATURE   30
Info: LANGEVIN USING BBK INTEGRATOR
Info: LANGEVIN DAMPING COEFFICIENT IS 1 INVERSE PS
Info: LANGEVIN DYNAMICS APPLIED TO HYDROGENS
Info: LANGEVIN PISTON PRESSURE CONTROL ACTIVE
Info:        TARGET PRESSURE IS 1.01325 BAR
Info:     OSCILLATION PERIOD IS 50 FS
Info:             DECAY TIME IS 25 FS
Info:     PISTON TEMPERATURE IS 300 K
Info:       PRESSURE CONTROL IS GROUP-BASED
Info:    INITIAL STRAIN RATE IS 0 0 0
Info:       CELL FLUCTUATION IS ISOTROPIC
Info: PARTICLE MESH EWALD (PME) ACTIVE
Info: PME TOLERANCE               1e-06
Info: PME EWALD COEFFICIENT       0.348832
Info: PME INTERPOLATION ORDER     4
Info: PME GRID DIMENSIONS         40 44 48
Info: PME MAXIMUM GRID SPACING    1
Info: FULL ELECTROSTATIC EVALUATION FREQUENCY      2
Info: USING VERLET I (r-RESPA) MTS SCHEME.
Info: C1 SPLITTING OF LONG RANGE ELECTROSTATICS
Info: PLACING ATOMS IN PATCHES BY HYDROGEN GROUPS
Info: RIGID BONDS TO HYDROGEN : ALL
Info:         ERROR TOLERANCE : 1e-08
Info:          MAX ITERATIONS : 100
Info: RIGID WATER USING SETTLE ALGORITHM
Info: RANDOM NUMBER SEED     1741382367
Info: USE HYDROGEN BONDS?    NO
Info: Using AMBER format force field!
Info: AMBER PARM FILE        mobley_6250025.prmtop
Info: COORDINATE PDB         mobley_6250025.pdb
Info: Exclusions will be read from PARM file!
Info: SCNB (VDW SCALING)     2
Info: USING ARITHMETIC MEAN TO COMBINE L-J SIGMA PARAMETERS
Info: BINARY COORDINATES     mobley_6250025_min.coor
Info: SUMMARY OF PARAMETERS:
Info: 6 BONDS
Info: 7 ANGLES
Info: 5 DIHEDRAL
Info: 0 IMPROPER
Info: 0 CROSSTERM
Info: 0 VDW
Info: 21 VDW_PAIRS
Info: 0 NBTHOLE_PAIRS
Info: STRUCTURE SUMMARY:
Info: 5234 ATOMS
Info: 5233 BONDS
Info: 36 ANGLES
Info: 45 DIHEDRALS
Info: 0 IMPROPERS
Info: 0 CROSSTERMS
Info: 5314 EXCLUSIONS
Info: 5227 RIGID BONDS
Info: 10475 DEGREES OF FREEDOM
Info: 1745 HYDROGEN GROUPS
Info: 4 ATOMS IN LARGEST HYDROGEN GROUP
Info: 1745 MIGRATION GROUPS
Info: 4 ATOMS IN LARGEST MIGRATION GROUP
Info: TOTAL MASS = 31523.9 amu
Info: TOTAL CHARGE = -2.6077e-08 e
Info: MASS DENSITY = 0.717014 g/cm^3
Info: ATOM DENSITY = 0.0716907 atoms/A^3
Info: ADDED 0 IMPLICIT EXCLUSIONS
Info: NONBONDED TABLE R-SQUARED SPACING: 0.0625
Info: NONBONDED TABLE SIZE: 705 POINTS
Info: REMOVING COM VELOCITY -0.0560574 -0.0568785 0.0781358
TCL: Running for 25000 steps
ETITLE: TS BOND ANGLE DIHED IMPRP ELECT VDW BOUNDARY MISC KINETIC TOTAL TEMP POTENTIAL TOTAL3 TEMPAVG PRESSURE GPRESSURE VOLUME PRESSAVG GPRESSAVG
ENERGY: 0 0.2345 0.3798 0.0273 0.0000 -24048.6866 4174.8522 0.0000 0.0000 3113.5026 -16759.6903 299.1476 -19873.1929 -16759.0757 299.1476 368.3666 407.8674 73008.0946 368.3666 407.8674
ENERGY: 5000 0.2935 0.7428 0.2780 0.0000 -24911.3611 4179.5430 0.0000 0.0000 315.6846 -20414.8193 30.3312 -20730.5039 -20414.0189 47.4801 -754.6996 -685.8522 51410.8124 2.6480 2.5943
ENERGY: 10000 0.3203 1.5609 0.4081 0.0000 -25182.5434 4422.6686 0.0000 0.0000 314.1506 -20443.4350 30.1838 -20757.5856 -20442.7122 30.0822 345.1067 414.7373 51014.7368 4.8803 4.8790
ENERGY: 15000 0.1193 1.1227 0.1585 0.0000 -25171.7856 4409.1171 0.0000 0.0000 308.9188 -20452.3492 29.6811 -20761.2680 -20451.4893 30.2465 308.6284 373.6442 51019.4832 0.4736 0.4162
ENERGY: 20000 0.4540 1.8475 0.4006 0.0000 -25074.1227 4288.0438 0.0000 0.0000 310.7789 -20472.5979 29.8599 -20783.3768 -20471.9091 30.1394 -292.3910 -232.5069 51021.8902 4.1327 4.0904
ENERGY: 25000 0.1788 1.7336 0.1738 0.0000 -25082.8796 4293.3366 0.0000 0.0000 307.3571 -20480.0996 29.5311 -20787.4568 -20478.9212 30.1566 -320.1025 -266.8258 51130.8708 7.4351 7.3731
TCL: Running 25000 steps at 60 kelvin.
TCL: Setting parameter langevinTemp to 60
TCL: Running for 25000 steps
ETITLE: TS BOND ANGLE DIHED IMPRP ELECT VDW BOUNDARY MISC KINETIC TOTAL TEMP POTENTIAL TOTAL3 TEMPAVG PRESSURE GPRESSURE VOLUME PRESSAVG GPRESSAVG
ENERGY: 25000 0.1788 1.7336 0.1738 0.0000 -25082.8796 4293.3366 0.0000 0.0000 307.2051 -20480.2517 29.5165 -20787.4568 -20479.7141 29.5165 -321.4487 -266.5363 51130.8708 -321.4487 -266.5363
ENERGY: 30000 0.6281 2.3057 0.2809 0.0000 -24724.8067 4232.5292 0.0000 0.0000 623.8372 -19865.2256 59.9387 -20489.0628 -19863.5408 57.1586 103.0428 159.8997 51045.4185 5.8839 5.7376
ENERGY: 35000 0.3387 2.2807 0.2323 0.0000 -24860.7238 4338.2159 0.0000 0.0000 628.9473 -19890.7089 60.4297 -20519.6563 -19889.2678 60.8495 530.7201 580.0343 50906.7290 5.1946 5.1158
ENERGY: 40000 0.5512 1.4060 0.1527 0.0000 -24831.5840 4268.5313 0.0000 0.0000 630.5765 -19930.3664 60.5863 -20560.9428 -19928.6438 60.0006 144.4996 202.8251 50893.0171 8.2484 8.1144
ENERGY: 45000 0.3001 1.8789 0.4712 0.0000 -25089.8641 4513.1111 0.0000 0.0000 633.3627 -19940.7402 60.8540 -20574.1029 -19938.9473 60.1761 1345.5190 1407.7060 50579.8867 1.9664 1.8997
ENERGY: 50000 0.2110 1.8012 0.5791 0.0000 -25031.0203 4425.5423 0.0000 0.0000 621.3612 -19981.5256 59.7009 -20602.8868 -19980.3835 59.9280 827.9878 884.1854 50678.4113 -1.0029 -1.1065
TCL: Running 25000 steps at 90 kelvin.
TCL: Setting parameter langevinTemp to 90
TCL: Running for 25000 steps
ETITLE: TS BOND ANGLE DIHED IMPRP ELECT VDW BOUNDARY MISC KINETIC TOTAL TEMP POTENTIAL TOTAL3 TEMPAVG PRESSURE GPRESSURE VOLUME PRESSAVG GPRESSAVG
ENERGY: 50000 0.2110 1.8012 0.5791 0.0000 -25031.0203 4425.5423 0.0000 0.0000 621.0530 -19981.8339 59.6712 -20602.8868 -19980.4323 59.6712 830.7722 884.0126 50678.4113 830.7722 884.0126
ENERGY: 55000 0.4284 2.8262 1.1299 0.0000 -24605.6275 4307.6723 0.0000 0.0000 941.7270 -19351.8436 90.4818 -20293.5706 -19349.5796 87.1306 1031.7813 1074.3909 50894.5941 3.2341 3.0166
ENERGY: 60000 1.3302 3.3270 0.9975 0.0000 -24379.8627 4075.9501 0.0000 0.0000 957.9886 -19340.2693 92.0443 -20298.2579 -19337.7255 90.0413 -390.1196 -305.4232 51475.9918 5.8223 5.5869
ENERGY: 65000 0.3035 2.7850 0.1290 0.0000 -24332.1978 3987.5901 0.0000 0.0000 922.7088 -19418.6815 88.6545 -20341.3902 -19415.8116 90.2448 -853.1614 -782.2919 51605.2714 2.3083 2.4269
ENERGY: 70000 0.5380 3.2221 0.6189 0.0000 -24389.5216 4025.9594 0.0000 0.0000 952.5599 -19406.6233 91.5227 -20359.1832 -19404.9727 90.2887 -616.5156 -572.7433 51380.5275 3.9252 3.8994
ENERGY: 75000 1.6597 2.9377 0.6627 0.0000 -24633.5093 4252.7288 0.0000 0.0000 938.6286 -19436.8918 90.1841 -20375.5204 -19434.4538 90.2551 346.8772 442.6213 50956.7629 4.7451 4.7983
TCL: Running 25000 steps at 120 kelvin.
TCL: Setting parameter langevinTemp to 120
TCL: Running for 25000 steps
ETITLE: TS BOND ANGLE DIHED IMPRP ELECT VDW BOUNDARY MISC KINETIC TOTAL TEMP POTENTIAL TOTAL3 TEMPAVG PRESSURE GPRESSURE VOLUME PRESSAVG GPRESSAVG
ENERGY: 75000 1.6597 2.9377 0.6627 0.0000 -24633.5093 4252.7288 0.0000 0.0000 938.1659 -19437.3545 90.1397 -20375.5204 -19435.5597 90.1397 376.9387 442.0427 50956.7629 376.9387 442.0427
ENERGY: 80000 0.6044 4.7076 0.6426 0.0000 -24104.0262 4019.2070 0.0000 0.0000 1243.2103 -18835.6543 119.4486 -20078.8646 -18833.0468 117.1957 -98.8740 -4.4477 51428.5565 4.7782 5.1984
ENERGY: 85000 0.7927 4.9851 0.9348 0.0000 -23924.6519 3865.0454 0.0000 0.0000 1244.6386 -18808.2553 119.5858 -20052.8939 -18805.2044 120.4454 -730.8645 -685.0323 51200.2803 2.8941 3.3526
ENERGY: 90000 0.5346 3.1191 0.4779 0.0000 -24133.0232 4000.2449 0.0000 0.0000 1251.7720 -18876.8747 120.2712 -20128.6466 -18875.1312 120.8159 -187.3055 -120.8144 51017.6956 2.7417 2.9298
ENERGY: 95000 0.9059 4.2821 0.7947 0.0000 -24348.9712 4157.6837 0.0000 0.0000 1223.3292 -18961.9755 117.5384 -20185.3048 -18960.1622 120.0637 509.6815 557.2144 50811.7566 -1.5492 -1.5910
ENERGY: 100000 0.3020 3.7716 0.4216 0.0000 -24473.2877 4251.2218 0.0000 0.0000 1254.8074 -18962.7633 120.5628 -20217.5707 -18961.3128 119.9309 856.2099 890.5418 50796.0634 1.8828 1.6705
TCL: Running 25000 steps at 150 kelvin.
TCL: Setting parameter langevinTemp to 150
TCL: Running for 25000 steps
ETITLE: TS BOND ANGLE DIHED IMPRP ELECT VDW BOUNDARY MISC KINETIC TOTAL TEMP POTENTIAL TOTAL3 TEMPAVG PRESSURE GPRESSURE VOLUME PRESSAVG GPRESSAVG
ENERGY: 100000 0.3020 3.7716 0.4216 0.0000 -24473.2877 4251.2218 0.0000 0.0000 1254.1835 -18963.3872 120.5029 -20217.5707 -18960.9151 120.5029 841.8248 889.2782 50796.0634 841.8248 889.2782
ENERGY: 105000 0.3754 3.5679 0.2460 0.0000 -23671.9411 3859.7034 0.0000 0.0000 1586.0396 -18222.0088 152.3879 -19808.0484 -18216.0698 146.8601 -175.0843 -141.0161 51478.5413 4.4188 4.7222
ENERGY: 110000 1.4692 4.5810 0.6330 0.0000 -23656.6621 3827.9855 0.0000 0.0000 1565.7296 -18256.2638 150.4365 -19821.9934 -18252.1469 149.1411 -409.8082 -377.3484 51387.2042 6.0858 6.3661
ENERGY: 115000 1.1351 7.8411 1.2233 0.0000 -23722.7538 3874.6478 0.0000 0.0000 1557.7064 -18280.2001 149.6656 -19837.9064 -18275.6926 150.9657 -217.3592 -144.9276 51266.3810 1.1703 0.8466
ENERGY: 120000 0.7338 4.9759 0.4342 0.0000 -23873.8559 4011.4669 0.0000 0.0000 1556.3049 -18299.9402 149.5309 -19856.2451 -18294.7998 150.0359 374.5462 420.8022 51243.9644 -1.4379 -1.4752
ENERGY: 125000 0.5349 3.4110 0.5082 0.0000 -23773.2819 3932.9951 0.0000 0.0000 1579.9554 -18255.8773 151.8033 -19835.8327 -18251.9643 149.0856 106.6537 213.3009 51217.8886 0.0313 0.1143
TCL: Running 50000 steps at 180 kelvin.
TCL: Setting parameter langevinTemp to 180
TCL: Running for 50000 steps
ETITLE: TS BOND ANGLE DIHED IMPRP ELECT VDW BOUNDARY MISC KINETIC TOTAL TEMP POTENTIAL TOTAL3 TEMPAVG PRESSURE GPRESSURE VOLUME PRESSAVG GPRESSAVG
ENERGY: 125000 0.5349 3.4110 0.5082 0.0000 -23773.2819 3932.9951 0.0000 0.0000 1579.1588 -18256.6739 151.7267 -19835.8327 -18253.9703 151.7267 154.1432 213.9977 51217.8886 154.1432 213.9977
ENERGY: 135000 1.5848 10.6216 1.0707 0.0000 -23068.5251 3696.3960 0.0000 0.0000 1894.0714 -17464.7807 181.9838 -19358.8520 -17461.7818 180.9875 -167.2512 -130.1052 51487.1302 -2.9009 -2.2793
ENERGY: 145000 1.2158 7.8891 0.8449 0.0000 -23376.2575 3904.0052 0.0000 0.0000 1878.5730 -17583.7295 180.4947 -19462.3025 -17580.0009 180.2810 631.3985 658.2557 51300.3382 -1.0875 -1.0278
ENERGY: 155000 0.8384 4.1630 0.8807 0.0000 -23260.1134 3737.2370 0.0000 0.0000 1883.8789 -17633.1154 181.0045 -19516.9943 -17629.8702 179.8700 -8.0083 47.0885 50763.1064 3.8492 3.5961
ENERGY: 165000 1.2146 4.0461 0.8138 0.0000 -23410.6303 3917.7692 0.0000 0.0000 1866.7286 -17620.0580 179.3567 -19486.7866 -17615.1848 179.4155 555.3751 590.6938 51401.5610 7.3714 7.1679
ENERGY: 175000 0.8098 7.2367 1.1751 0.0000 -23123.6671 3651.4856 0.0000 0.0000 1890.8026 -17572.1574 181.6697 -19462.9599 -17566.7742 180.9421 -633.8786 -583.8196 51830.2060 3.8946 4.1894
TCL: Running 50000 steps at 210 kelvin.
TCL: Setting parameter langevinTemp to 210
TCL: Running for 50000 steps
ETITLE: TS BOND ANGLE DIHED IMPRP ELECT VDW BOUNDARY MISC KINETIC TOTAL TEMP POTENTIAL TOTAL3 TEMPAVG PRESSURE GPRESSURE VOLUME PRESSAVG GPRESSAVG
ENERGY: 175000 0.8098 7.2367 1.1751 0.0000 -23123.6671 3651.4856 0.0000 0.0000 1889.8549 -17573.1050 181.5787 -19462.9599 -17568.8751 181.5787 -656.7659 -584.0986 51830.2060 -656.7659 -584.0986
ENERGY: 185000 0.4077 7.5275 1.6299 0.0000 -22162.0037 3419.9132 0.0000 0.0000 2196.3988 -16536.1266 211.0316 -18732.5254 -16533.7211 208.6849 -47.1917 65.1721 51225.8094 9.4491 8.8840
ENERGY: 195000 1.0249 3.6980 0.9715 0.0000 -21931.8744 3344.0573 0.0000 0.0000 2159.9315 -16422.1912 207.5278 -18582.1227 -16418.8483 210.8676 -46.6128 59.8663 51072.2267 4.2159 4.4190
ENERGY: 205000 1.2873 5.4595 1.2422 0.0000 -21867.6963 3233.8527 0.0000 0.0000 2161.5472 -16464.3076 207.6831 -18625.8547 -16458.8677 210.9072 -735.0756 -613.6096 51315.2792 -4.3378 -4.2951
ENERGY: 215000 2.0323 5.8362 1.0150 0.0000 -22041.9103 3362.8936 0.0000 0.0000 2189.7928 -16480.3405 210.3969 -18670.1333 -16475.8641 210.8920 65.3342 182.2743 50709.5563 0.3937 0.7501
ENERGY: 225000 1.5883 6.3853 0.4106 0.0000 -21881.1457 3259.6554 0.0000 0.0000 2149.8434 -16463.2627 206.5585 -18613.1061 -16459.0519 211.5639 -641.7937 -576.7768 51588.5955 1.2172 1.0651
TCL: Running 50000 steps at 240 kelvin.
TCL: Setting parameter langevinTemp to 240
TCL: Running for 50000 steps
ETITLE: TS BOND ANGLE DIHED IMPRP ELECT VDW BOUNDARY MISC KINETIC TOTAL TEMP POTENTIAL TOTAL3 TEMPAVG PRESSURE GPRESSURE VOLUME PRESSAVG GPRESSAVG
ENERGY: 225000 1.5883 6.3853 0.4106 0.0000 -21881.1457 3259.6554 0.0000 0.0000 2148.7314 -16464.3746 206.4517 -18613.1061 -16460.2567 206.4517 -656.1041 -576.5123 51588.5955 -656.1041 -576.5123
ENERGY: 235000 1.3295 7.0246 0.7721 0.0000 -21077.7769 3227.0010 0.0000 0.0000 2463.2686 -15378.3811 236.6727 -17841.6497 -15374.5399 240.2386 781.3201 896.4197 51601.8827 -0.3736 -0.2165
ENERGY: 245000 2.1597 6.4772 0.7344 0.0000 -21056.8616 3083.1925 0.0000 0.0000 2475.1800 -15489.1179 237.8171 -17964.2978 -15483.0935 238.4282 -58.1077 59.6219 51251.3752 -1.2614 -1.2291
ENERGY: 255000 1.3778 8.5990 2.0598 0.0000 -20876.5637 2945.0836 0.0000 0.0000 2467.0823 -15452.3612 237.0391 -17919.4435 -15444.5348 240.2938 -662.1491 -600.7705 51738.4416 -4.6437 -4.9249
ENERGY: 265000 0.9152 8.7037 0.9052 0.0000 -21000.4200 3104.8857 0.0000 0.0000 2494.8656 -15390.1446 239.7085 -17885.0102 -15384.6861 240.7897 303.1932 402.4706 51337.8086 0.8529 0.3847
ENERGY: 275000 0.4214 7.2744 1.2068 0.0000 -20795.8595 2967.8566 0.0000 0.0000 2470.9390 -15348.1613 237.4097 -17819.1003 -15343.3769 240.9636 -213.5048 -144.5983 51621.6183 -2.4370 -2.0217
TCL: Running 50000 steps at 270 kelvin.
TCL: Setting parameter langevinTemp to 270
TCL: Running for 50000 steps
ETITLE: TS BOND ANGLE DIHED IMPRP ELECT VDW BOUNDARY MISC KINETIC TOTAL TEMP POTENTIAL TOTAL3 TEMPAVG PRESSURE GPRESSURE VOLUME PRESSAVG GPRESSAVG
ENERGY: 275000 0.4214 7.2744 1.2068 0.0000 -20795.8595 2967.8566 0.0000 0.0000 2469.7015 -15349.3988 237.2908 -17819.1003 -15345.3794 237.2908 -229.1914 -145.3108 51621.6183 -229.1914 -145.3108
ENERGY: 285000 1.4762 10.8191 1.9729 0.0000 -19945.7388 2833.4727 0.0000 0.0000 2886.2430 -14211.7548 277.3124 -17097.9978 -14205.6181 268.7615 229.4085 313.8632 52546.0796 4.0568 4.1146
ENERGY: 295000 0.8178 4.9479 1.4044 0.0000 -20048.9828 2845.9495 0.0000 0.0000 2757.8948 -14437.9684 264.9806 -17195.8632 -14433.8703 270.4764 201.2867 251.0470 52374.9913 10.7979 10.6901
ENERGY: 305000 0.4316 8.3306 1.6551 0.0000 -19902.6131 2807.1990 0.0000 0.0000 2815.9930 -14269.0038 270.5627 -17084.9968 -14264.4199 271.6420 331.7618 417.7691 52067.0388 4.4165 4.4357
ENERGY: 315000 1.5027 8.4785 2.0390 0.0000 -19961.0120 2766.2116 0.0000 0.0000 2878.1563 -14304.6239 276.5354 -17182.7802 -14299.8652 269.6419 -156.4323 -68.8535 52731.4869 -2.1020 -2.7186
ENERGY: 325000 0.7265 5.3805 0.5398 0.0000 -19805.2061 2703.3096 0.0000 0.0000 2843.0222 -14252.2275 273.1597 -17095.2497 -14249.1233 271.2013 -529.0409 -456.7462 53552.9570 5.8667 5.5412
TCL: Running 1000000 steps at 300 kelvin.
TCL: Setting parameter langevinTemp to 300
TCL: Running for 1000000 steps
ETITLE: TS BOND ANGLE DIHED IMPRP ELECT VDW BOUNDARY MISC KINETIC TOTAL TEMP POTENTIAL TOTAL3 TEMPAVG PRESSURE GPRESSURE VOLUME PRESSAVG GPRESSAVG
ENERGY: 325000 0.7265 5.3805 0.5398 0.0000 -19805.2061 2703.3096 0.0000 0.0000 2841.6420 -14253.6077 273.0271 -17095.2497 -14248.3032 273.0271 -548.7718 -458.0258 53552.9570 -548.7718 -458.0258
ENERGY: 525000 1.3835 9.3276 2.0455 0.0000 -18901.2537 2444.4313 0.0000 0.0000 3066.7488 -13377.3169 294.6555 -16444.0657 -13373.2455 298.9919 -304.1702 -203.6828 53361.3838 2.3532 1.9464
ENERGY: 725000 0.7049 8.8939 1.9792 0.0000 -19017.1365 2642.5737 0.0000 0.0000 3159.6895 -13203.2952 303.5853 -16362.9847 -13196.0521 300.0602 533.7738 582.0923 53738.0442 -0.5062 -0.1133
ENERGY: 925000 1.3675 7.6656 0.3980 0.0000 -18968.6735 2510.0835 0.0000 0.0000 3051.2383 -13397.9206 293.1652 -16449.1589 -13393.1625 300.9578 -419.9373 -306.2308 54348.5235 -2.3864 -1.8326
ENERGY: 1125000 1.7612 11.0796 1.2122 0.0000 -18817.1377 2442.1485 0.0000 0.0000 3032.2929 -13328.6434 291.3450 -16360.9363 -13324.3050 299.5556 -550.8401 -474.6418 54213.4060 3.4733 4.0011
ENERGY: 1325000 0.6601 9.5298 1.6986 0.0000 -19011.8198 2532.5037 0.0000 0.0000 3158.1715 -13309.2560 303.4395 -16467.4276 -13301.3797 297.8101 -195.3755 -158.0917 53855.2511 4.0727 4.2774
TCL: Exiting due to exit command.
