Info: SIMULATION PARAMETERS:
Info: TIMESTEP               2
Info: NUMBER OF STEPS        0
Info: STEPS PER CYCLE        10
Info: PERIODIC CELL BASIS 1  81.795 0 0
Info: PERIODIC CELL BASIS 2  0 81.795 0
Info: PERIODIC CELL BASIS 3  0 0 81.795
Info: PERIODIC CELL CENTER   38.829 38.829 38.829
Info: WRAPPING ALL CLUSTERS AROUND PERIODIC BOUNDARIES ON OUTPUT.
Info: FIRST LDB TIMESTEP     50
Info: LAST LDB TIMESTEP     -1
Info: HOM BACKGROUND SCALING 1
Info: PME BACKGROUND SCALING 1
Info: MIN ATOMS PER PATCH    40
Info: EMPTY PATCH LOAD       40 ATOMS
Info: VELOCITY FILE          mobley_4690963_equilibrated.vel
Info: CENTER OF MASS MOVING INITIALLY? NO
Info: DIELECTRIC             1
Info: EXCLUDE                SCALED ONE-FOUR
Info: 1-4 ELECTROSTATICS SCALED BY 1
Info: MODIFIED 1-4 VDW PARAMETERS WILL BE USED
Info: DCD FILENAME           mobley_4690963_forwards.dcd
Info: DCD FREQUENCY          500
Info: DCD FIRST STEP         500
Info: DCD FILE WILL CONTAIN UNIT CELL DATA
Info: NO EXTENDED SYSTEM TRAJECTORY OUTPUT
Info: NO VELOCITY DCD OUTPUT
Info: NO FORCE DCD OUTPUT
Info: OUTPUT FILENAME        mobley_4690963_forwards
Info: BINARY OUTPUT FILES WILL BE USED
Info: NO RESTART FILE
Info: SWITCHING ACTIVE
Info: SWITCHING ON           10
Info: SWITCHING OFF          12
Info: PAIRLIST DISTANCE      14
Info: PAIRLIST SHRINK RATE   0.01
Info: PAIRLIST GROW RATE     0.01
Info: PAIRLIST TRIGGER       0.3
Info: PAIRLISTS PER CYCLE    2
Info: PAIRLISTS ENABLED
Info: MARGIN                 8
Info: HYDROGEN GROUP CUTOFF  2.5
Info: PATCH DIMENSION        24.5
Info: ENERGY OUTPUT STEPS    500
Info: ENERGY EVALUATION STEPS    500
Info: OUTPUT ENERGY PRECISION 4
Info: CROSSTERM ENERGY INCLUDED IN DIHEDRAL
Info: TIMING OUTPUT STEPS    500
Info: PRESSURE OUTPUT STEPS  500
Info: ALCHEMICAL FEP ON
Info: FEP CURRENT LAMBDA VALUE     0
Info: FEP COMPARISON LAMBDA VALUE  0.0625
Info: FEP INTRA-ALCHEMICAL NON-BONDED INTERACTIONS WILL BE DECOUPLED
Info: FEP INTRA-ALCHEMICAL BONDED INTERACTIONS WILL BE RETAINED
Info: FEP VDW SHIFTING COEFFICIENT 6
Info: FEP ELEC. ACTIVE FOR ANNIHILATED PARTICLES BETWEEN LAMBDA = 0 AND LAMBDA = 0.5
Info: FEP ELEC. ACTIVE FOR EXNIHILATED PARTICLES BETWEEN LAMBDA = 0.5 AND LAMBDA = 1
Info: FEP VDW ACTIVE FOR ANNIHILATED PARTICLES BETWEEN LAMBDA = 0 AND LAMBDA = 1
Info: FEP VDW ACTIVE FOR EXNIHILATED PARTICLES BETWEEN LAMBDA = 0 AND LAMBDA = 1
Info: FEP BOND ACTIVE FOR ANNIHILATED PARTICLES BETWEEN LAMBDA = 1 AND LAMBDA = 1
Info: FEP BOND ACTIVE FOR EXNIHILATED PARTICLES BETWEEN LAMBDA = 0 AND LAMBDA = 0
Info: LANGEVIN DYNAMICS ACTIVE
Info: LANGEVIN TEMPERATURE   298
Info: LANGEVIN USING BBK INTEGRATOR
Info: LANGEVIN DAMPING COEFFICIENT IS 1 INVERSE PS
Info: LANGEVIN DYNAMICS NOT APPLIED TO HYDROGENS
Info: LANGEVIN PISTON PRESSURE CONTROL ACTIVE
Info:        TARGET PRESSURE IS 1.01325 BAR
Info:     OSCILLATION PERIOD IS 100 FS
Info:             DECAY TIME IS 50 FS
Info:     PISTON TEMPERATURE IS 298 K
Info:       PRESSURE CONTROL IS GROUP-BASED
Info:    INITIAL STRAIN RATE IS -0.000488088 -0.000488088 -0.000488088
Info:       CELL FLUCTUATION IS ISOTROPIC
Info: PARTICLE MESH EWALD (PME) ACTIVE
Info: PME TOLERANCE               1e-05
Info: PME EWALD COEFFICIENT       0.226635
Info: PME INTERPOLATION ORDER     4
Info: PME GRID DIMENSIONS         84 84 84
Info: PME MAXIMUM GRID SPACING    1
Info: FULL ELECTROSTATIC EVALUATION FREQUENCY      1
Info: USING VERLET I (r-RESPA) MTS SCHEME.
Info: C1 SPLITTING OF LONG RANGE ELECTROSTATICS
Info: PLACING ATOMS IN PATCHES BY HYDROGEN GROUPS
Info: RIGID BONDS TO HYDROGEN : ALL
Info:         ERROR TOLERANCE : 1e-08
Info:          MAX ITERATIONS : 100
Info: RIGID WATER USING SETTLE ALGORITHM
Info: RANDOM NUMBER SEED     1740643298
Info: USE HYDROGEN BONDS?    NO
Info: COORDINATE PDB         mobley_4690963.pdb
Info: STRUCTURE FILE         mobley_4690963.psf
Info: PARAMETER file: CHARMM format!
Info: PARAMETERS             ../common/par_all27_prot_lipid.inp
Info: PARAMETERS             mobley_4690963.prm
Info: USING ARITHMETIC MEAN TO COMBINE L-J SIGMA PARAMETERS
Info: BINARY COORDINATES     mobley_4690963_equilibrated.coor
Info: SUMMARY OF PARAMETERS:
Info: 184 BONDS
Info: 454 ANGLES
Info: 577 DIHEDRAL
Info: 46 IMPROPER
Info: 6 CROSSTERM
Info: 123 VDW
Info: 0 VDW_PAIRS
Info: 0 NBTHOLE_PAIRS
Info: To read alchdata from file: mobley_4690963.pdb
Info: To read alchflag data from column: 5
Info: STRUCTURE SUMMARY:
Info: 5152 ATOMS
Info: 3441 BONDS
Info: 1748 ANGLES
Info: 39 DIHEDRALS
Info: 0 IMPROPERS
Info: 0 CROSSTERMS
Info: 0 EXCLUSIONS
Info: 5144 RIGID BONDS
Info: ALCH: 0 ATOMS TO DISAPPEAR IN FINAL STATE
Info: ALCH: 22 ATOMS TO APPEAR IN FINAL STATE
Info: 10312 DEGREES OF FREEDOM
Info: 1718 HYDROGEN GROUPS
Info: 4 ATOMS IN LARGEST HYDROGEN GROUP
Info: 1718 MIGRATION GROUPS
Info: 4 ATOMS IN LARGEST MIGRATION GROUP
Info: TOTAL MASS = 30924.5 amu
Info: TOTAL CHARGE = 0 e
Info: MASS DENSITY = 0.0938386 g/cm^3
Info: ATOM DENSITY = 0.00941446 atoms/A^3
Info: ADDED 5228 IMPLICIT EXCLUSIONS
Info: NONBONDED TABLE R-SQUARED SPACING: 0.0625
Info: NONBONDED TABLE SIZE: 769 POINTS
Info: REMOVING COM VELOCITY 0.0683152 -0.176674 -0.149178
TCL: Running for 5000 steps
ETITLE: TS BOND ANGLE DIHED IMPRP ELECT VDW BOUNDARY MISC KINETIC TOTAL TEMP POTENTIAL TOTAL3 TEMPAVG PRESSURE GPRESSURE VOLUME PRESSAVG GPRESSAVG
ENERGY: 0 1.1149 8.6096 5.2068 0.0000 -17818.9918 1910.8694 0.0000 0.0000 3013.0238 -12880.1674 294.0695 -15893.1911 -12874.1284 294.0695 14.8523 15.0442 547243.4303 14.8523 15.0442
ENERGY: 1000 2.3279 10.6166 4.7823 0.0000 -17706.6590 1835.7374 0.0000 0.0000 3093.9402 -12759.2545 301.9669 -15853.1947 -12752.6040 299.3065 -19.7032 -19.2829 539452.8321 1.4764 1.4676
ENERGY: 2000 2.0506 9.6647 6.8890 0.0000 -17630.6600 1748.9191 0.0000 0.0000 3103.1917 -12759.9450 302.8699 -15863.1367 -12753.8223 298.2740 -53.5330 -54.1874 526002.8698 2.4383 2.4100
ENERGY: 3000 4.4339 9.8764 6.3280 0.0000 -17548.4779 1784.7669 0.0000 0.0000 2998.7368 -12744.3360 292.6751 -15743.0728 -12738.1215 299.8125 -41.6378 -40.9603 516301.0920 0.4339 0.4172
ENERGY: 4000 0.5570 12.0110 4.2704 0.0000 -17788.0111 1870.5504 0.0000 0.0000 3080.9507 -12819.6716 300.6992 -15900.6223 -12814.4719 299.3605 -18.4349 -17.9204 496677.5498 1.6388 1.6638
ENERGY: 5000 1.6336 8.1172 7.8653 0.0000 -17606.6799 1795.5488 0.0000 0.0000 3070.3941 -12723.1208 299.6689 -15793.5150 -12715.3868 300.8443 -24.5028 -25.2717 488043.5318 1.5130 1.5055
TCL: Running FEP window   2: Lambda1 0.0625 Lambda2 0.125  [dLambda 0.0625]
TCL: Setting parameter firsttimestep to 0
TCL: Setting parameter alchLambda to 0.0625
Info: NONBONDED TABLE R-SQUARED SPACING: 0.0625
Info: NONBONDED TABLE SIZE: 769 POINTS
TCL: Setting parameter alchLambda2 to 0.125
Info: NONBONDED TABLE R-SQUARED SPACING: 0.0625
Info: NONBONDED TABLE SIZE: 769 POINTS
TCL: Running for 5000 steps
ETITLE: TS BOND ANGLE DIHED IMPRP ELECT VDW BOUNDARY MISC KINETIC TOTAL TEMP POTENTIAL TOTAL3 TEMPAVG PRESSURE GPRESSURE VOLUME PRESSAVG GPRESSAVG
ENERGY: 0 1.6336 8.1172 7.8653 0.0000 -17606.6799 1795.8063 0.0000 0.0000 3070.3027 -12722.9547 299.6599 -15793.2575 -12716.9294 299.6599 -25.1592 -25.0221 488043.5318 -25.1592 -25.0221
ENERGY: 1000 1.7161 15.1226 6.8244 0.0000 -17684.8022 1835.3331 0.0000 0.0000 2968.1310 -12857.6750 289.6880 -15825.8060 -12852.7382 295.4817 -20.9797 -21.4446 493578.0681 0.9304 0.9270
ENERGY: 2000 2.1068 8.9975 6.9996 0.0000 -17781.1821 1832.9142 0.0000 0.0000 3089.7747 -12840.3894 301.5604 -15930.1640 -12834.6719 297.3800 -22.2809 -21.8678 483694.3172 0.1263 0.1313
ENERGY: 3000 2.1320 8.6290 4.6310 0.0000 -17752.1594 1841.9773 0.0000 0.0000 3070.3127 -12824.4775 299.6609 -15894.7902 -12817.4974 298.9104 -29.0618 -29.2042 488667.9229 0.8304 0.8392
ENERGY: 4000 1.7475 10.1688 4.8694 0.0000 -17722.6427 1842.7234 0.0000 0.0000 3003.6931 -12859.4405 293.1589 -15863.1336 -12853.1787 295.9668 -15.3466 -15.2026 489056.8465 1.3973 1.4149
ENERGY: 5000 1.5491 10.0160 6.5927 0.0000 -17717.2786 1812.0622 0.0000 0.0000 2970.3171 -12916.7414 289.9014 -15887.0585 -12909.1818 293.2975 -32.7366 -32.6417 483566.6588 0.5806 0.5870
TCL: Running FEP window   3: Lambda1 0.125  Lambda2 0.1875 [dLambda 0.0625]
TCL: Setting parameter firsttimestep to 0
TCL: Setting parameter alchLambda to 0.125
Info: NONBONDED TABLE R-SQUARED SPACING: 0.0625
Info: NONBONDED TABLE SIZE: 769 POINTS
TCL: Setting parameter alchLambda2 to 0.1875
Info: NONBONDED TABLE R-SQUARED SPACING: 0.0625
Info: NONBONDED TABLE SIZE: 769 POINTS
TCL: Running for 5000 steps
ETITLE: TS BOND ANGLE DIHED IMPRP ELECT VDW BOUNDARY MISC KINETIC TOTAL TEMP POTENTIAL TOTAL3 TEMPAVG PRESSURE GPRESSURE VOLUME PRESSAVG GPRESSAVG
ENERGY: 0 1.5491 10.0160 6.5927 0.0000 -17717.2786 1813.1964 0.0000 0.0000 2970.2215 -12915.7029 289.8921 -15885.9244 -12910.2246 289.8921 -32.1727 -32.1413 483566.6588 -32.1727 -32.1413
ENERGY: 1000 1.6428 11.1822 6.8803 0.0000 -17784.6736 1831.6683 0.0000 0.0000 3036.0394 -12897.2606 296.3158 -15933.2999 -12892.5649 298.6327 -15.1655 -15.3575 497491.5951 2.6190 2.5824
ENERGY: 2000 1.7202 8.6059 6.5296 0.0000 -17846.0242 1950.9426 0.0000 0.0000 3058.0623 -12820.1636 298.4653 -15878.2258 -12814.1793 297.5013 10.0673 9.5719 517362.4257 0.8812 0.8909
ENERGY: 3000 2.1526 7.4589 6.5084 0.0000 -17548.9003 1711.5198 0.0000 0.0000 3013.5757 -12807.6849 294.1234 -15821.2606 -12800.9816 297.5629 -66.9977 -66.5756 516437.5051 1.4552 1.4639
ENERGY: 4000 1.0403 10.3507 3.7327 0.0000 -17789.3993 1944.6768 0.0000 0.0000 3092.1270 -12737.4718 301.7900 -15829.5988 -12730.9801 299.6628 58.1145 57.8019 518021.9445 -1.0817 -1.0634
ENERGY: 5000 2.1055 13.6980 5.7133 0.0000 -17897.6334 1972.0325 0.0000 0.0000 3052.7183 -12851.3658 297.9437 -15904.0840 -12845.0385 298.1463 58.2746 57.5255 538120.8555 1.4041 1.4211
TCL: Running FEP window   4: Lambda1 0.1875 Lambda2 0.25   [dLambda 0.0625]
TCL: Setting parameter firsttimestep to 0
TCL: Setting parameter alchLambda to 0.1875
Info: NONBONDED TABLE R-SQUARED SPACING: 0.0625
Info: NONBONDED TABLE SIZE: 769 POINTS
TCL: Setting parameter alchLambda2 to 0.25
Info: NONBONDED TABLE R-SQUARED SPACING: 0.0625
Info: NONBONDED TABLE SIZE: 769 POINTS
TCL: Running for 5000 steps
ETITLE: TS BOND ANGLE DIHED IMPRP ELECT VDW BOUNDARY MISC KINETIC TOTAL TEMP POTENTIAL TOTAL3 TEMPAVG PRESSURE GPRESSURE VOLUME PRESSAVG GPRESSAVG
ENERGY: 0 2.1055 13.6980 5.7133 0.0000 -17897.6334 1973.7038 0.0000 0.0000 3052.6247 -12849.7881 297.9346 -15902.4128 -12844.0399 297.9346 57.9783 57.9335 538120.8555 57.9783 57.9335
ENERGY: 1000 1.3770 13.3859 6.1988 0.0000 -17749.6411 1821.9691 0.0000 0.0000 3083.9975 -12822.7129 300.9965 -15906.7104 -12818.0660 297.2234 -15.2665 -16.2838 571533.7020 0.7470 0.7168
ENERGY: 2000 1.3531 11.4659 7.1610 0.0000 -17656.2346 1829.2384 0.0000 0.0000 3035.1422 -12771.8739 296.2283 -15807.0162 -12766.8599 299.7216 -14.3173 -15.1821 555835.1082 1.5454 1.5824
ENERGY: 3000 0.7790 9.0947 7.3587 0.0000 -17805.9131 1898.1596 0.0000 0.0000 3064.7774 -12825.7437 299.1207 -15890.5211 -12819.0941 297.5799 0.3629 0.1571 533411.7785 -0.5517 -0.5609
ENERGY: 4000 2.0154 8.5812 4.5019 0.0000 -17686.4881 1821.6343 0.0000 0.0000 3006.3472 -12843.4080 293.4179 -15849.7552 -12837.8884 297.6943 -21.2969 -20.7363 526130.7988 1.1867 1.2182
ENERGY: 5000 2.9226 13.2796 6.4122 0.0000 -17959.0878 1922.0207 0.0000 0.0000 3098.1426 -12916.3100 302.3771 -16014.4527 -12908.6105 297.5070 -0.7012 0.1734 518134.6439 1.3532 1.3879
TCL: Running FEP window   5: Lambda1 0.25   Lambda2 0.3125 [dLambda 0.0625]
TCL: Setting parameter firsttimestep to 0
TCL: Setting parameter alchLambda to 0.25
Info: NONBONDED TABLE R-SQUARED SPACING: 0.0625
Info: NONBONDED TABLE SIZE: 769 POINTS
TCL: Setting parameter alchLambda2 to 0.3125
Info: NONBONDED TABLE R-SQUARED SPACING: 0.0625
Info: NONBONDED TABLE SIZE: 769 POINTS
TCL: Running for 5000 steps
ETITLE: TS BOND ANGLE DIHED IMPRP ELECT VDW BOUNDARY MISC KINETIC TOTAL TEMP POTENTIAL TOTAL3 TEMPAVG PRESSURE GPRESSURE VOLUME PRESSAVG GPRESSAVG
ENERGY: 0 2.9226 13.2796 6.4122 0.0000 -17959.0878 1922.3103 0.0000 0.0000 3098.0494 -12916.1137 302.3680 -16014.1631 -12909.8240 302.3680 0.6876 0.8075 518134.6439 0.6876 0.8075
ENERGY: 1000 1.0761 11.2995 5.3909 0.0000 -17712.5010 1814.6109 0.0000 0.0000 3003.8292 -12876.2945 293.1721 -15880.1237 -12871.7353 294.5821 -27.4741 -26.0744 503326.8113 0.4620 0.4521
ENERGY: 2000 1.5110 10.3360 4.9911 0.0000 -17802.8806 1876.8738 0.0000 0.0000 3081.2079 -12827.9608 300.7243 -15909.1687 -12819.7367 296.5023 4.8132 5.3958 500764.9058 -0.2242 -0.2078
ENERGY: 3000 3.9845 11.1021 6.3768 0.0000 -17721.0489 1832.4335 0.0000 0.0000 3063.5618 -12803.5901 299.0020 -15867.1520 -12796.4196 297.7857 -23.4348 -23.9053 527717.7473 1.2557 1.2673
ENERGY: 4000 2.8773 13.4878 7.1457 0.0000 -17685.2257 1856.1175 0.0000 0.0000 2991.4676 -12814.1298 291.9657 -15805.5974 -12810.7418 296.9386 0.7520 0.6943 525575.1197 0.6588 0.6609
ENERGY: 5000 0.3349 8.0664 6.8887 0.0000 -17777.3555 1892.9171 0.0000 0.0000 3087.5540 -12781.5944 301.3437 -15869.1484 -12774.8596 299.8657 9.5580 10.2524 518084.6992 1.3249 1.2915
TCL: Running FEP window   6: Lambda1 0.3125 Lambda2 0.375  [dLambda 0.0625]
TCL: Setting parameter firsttimestep to 0
TCL: Setting parameter alchLambda to 0.3125
Info: NONBONDED TABLE R-SQUARED SPACING: 0.0625
Info: NONBONDED TABLE SIZE: 769 POINTS
TCL: Setting parameter alchLambda2 to 0.375
Info: NONBONDED TABLE R-SQUARED SPACING: 0.0625
Info: NONBONDED TABLE SIZE: 769 POINTS
TCL: Running for 5000 steps
ETITLE: TS BOND ANGLE DIHED IMPRP ELECT VDW BOUNDARY MISC KINETIC TOTAL TEMP POTENTIAL TOTAL3 TEMPAVG PRESSURE GPRESSURE VOLUME PRESSAVG GPRESSAVG
ENERGY: 0 0.3349 8.0664 6.8887 0.0000 -17777.3555 1893.7933 0.0000 0.0000 3087.4607 -12780.8116 301.3345 -15868.2722 -12774.7914 301.3345 10.8949 10.9918 518084.6992 10.8949 10.9918
ENERGY: 1000 1.5720 15.9147 4.5256 0.0000 -17821.3600 1867.4351 0.0000 0.0000 3044.8290 -12887.0835 297.1737 -15931.9126 -12879.0275 298.4198 -19.5077 -18.9175 506709.2946 2.6743 2.6541
ENERGY: 2000 2.7006 9.4892 6.1985 0.0000 -17723.4879 1844.0794 0.0000 0.0000 2984.0307 -12876.9895 291.2398 -15861.0202 -12872.2882 296.5895 -10.0571 -9.6916 488185.4676 1.7096 1.6957
ENERGY: 3000 1.6705 11.3320 8.1198 0.0000 -17713.4345 1803.7515 0.0000 0.0000 3019.7230 -12868.8377 294.7234 -15888.5607 -12866.0099 295.9599 -31.7301 -33.3614 474888.2270 3.6986 3.7700
ENERGY: 4000 2.6560 8.9849 5.9660 0.0000 -17726.8309 1837.9271 0.0000 0.0000 3029.6418 -12841.6550 295.6915 -15871.2968 -12836.7412 295.5629 -19.3108 -19.6334 460024.0363 -0.4690 -0.4484
ENERGY: 5000 2.9017 9.1202 4.2841 0.0000 -17738.5720 1777.1808 0.0000 0.0000 3022.1472 -12922.9380 294.9600 -15945.0852 -12915.1869 294.8878 -57.0457 -57.4121 453037.6377 2.8439 2.8176
TCL: Running FEP window   7: Lambda1 0.375  Lambda2 0.4375 [dLambda 0.0625]
TCL: Setting parameter firsttimestep to 0
TCL: Setting parameter alchLambda to 0.375
Info: NONBONDED TABLE R-SQUARED SPACING: 0.0625
Info: NONBONDED TABLE SIZE: 769 POINTS
TCL: Setting parameter alchLambda2 to 0.4375
Info: NONBONDED TABLE R-SQUARED SPACING: 0.0625
Info: NONBONDED TABLE SIZE: 769 POINTS
TCL: Running for 5000 steps
ETITLE: TS BOND ANGLE DIHED IMPRP ELECT VDW BOUNDARY MISC KINETIC TOTAL TEMP POTENTIAL TOTAL3 TEMPAVG PRESSURE GPRESSURE VOLUME PRESSAVG GPRESSAVG
ENERGY: 0 2.9017 9.1202 4.2841 0.0000 -17738.5720 1779.8130 0.0000 0.0000 3022.0514 -12920.4016 294.9506 -15942.4530 -12914.0604 294.9506 -55.5910 -55.7440 453037.6377 -55.5910 -55.7440
ENERGY: 1000 2.2117 6.2121 5.8265 0.0000 -17759.2400 1836.4082 0.0000 0.0000 3064.5351 -12844.0465 299.0970 -15908.5815 -12836.0988 296.8755 -26.7955 -26.3710 459809.9370 -0.6009 -0.5833
ENERGY: 2000 1.0389 11.1959 6.1531 0.0000 -17725.3064 1865.6207 0.0000 0.0000 2973.1207 -12868.1771 290.1750 -15841.2977 -12862.7243 294.1791 10.0890 10.3870 463759.7289 1.7177 1.7054
ENERGY: 3000 0.8772 13.3638 4.9449 0.0000 -17733.6794 1771.2336 0.0000 0.0000 3078.5913 -12864.6686 300.4689 -15943.2599 -12859.1217 294.5797 -61.9033 -61.9272 465139.1367 -0.4325 -0.4358
ENERGY: 4000 2.1323 10.1640 4.2450 0.0000 -17932.2576 1976.7706 0.0000 0.0000 3043.7601 -12895.1856 297.0694 -15938.9457 -12889.6844 299.1118 89.7286 89.2958 452109.7738 2.0577 2.0616
ENERGY: 5000 1.1197 15.3374 5.4819 0.0000 -17854.2429 1958.9138 0.0000 0.0000 3114.0970 -12759.2931 303.9342 -15873.3902 -12752.5341 299.8852 56.0349 54.8124 439163.6937 -1.9736 -1.9548
TCL: Running FEP window   8: Lambda1 0.4375 Lambda2 0.5    [dLambda 0.0625]
TCL: Setting parameter firsttimestep to 0
TCL: Setting parameter alchLambda to 0.4375
Info: NONBONDED TABLE R-SQUARED SPACING: 0.0625
Info: NONBONDED TABLE SIZE: 769 POINTS
TCL: Setting parameter alchLambda2 to 0.5
Info: NONBONDED TABLE R-SQUARED SPACING: 0.0625
Info: NONBONDED TABLE SIZE: 769 POINTS
TCL: Running for 5000 steps
ETITLE: TS BOND ANGLE DIHED IMPRP ELECT VDW BOUNDARY MISC KINETIC TOTAL TEMP POTENTIAL TOTAL3 TEMPAVG PRESSURE GPRESSURE VOLUME PRESSAVG GPRESSAVG
ENERGY: 0 1.1197 15.3374 5.4819 0.0000 -17854.2429 1958.5150 0.0000 0.0000 3113.9998 -12759.7892 303.9247 -15873.7889 -12754.6725 303.9247 55.0903 55.0382 439163.6937 55.0903 55.0382
ENERGY: 1000 1.6029 12.7416 5.3664 0.0000 -17843.6093 1952.1269 0.0000 0.0000 3007.6240 -12864.1474 293.5425 -15871.7714 -12859.6577 297.1162 34.5128 34.6177 424169.5636 1.3494 1.3775
ENERGY: 2000 1.6355 7.5490 5.3779 0.0000 -17869.7459 1935.6328 0.0000 0.0000 3042.3031 -12877.2476 296.9272 -15919.5508 -12870.2367 295.5346 35.0375 35.0085 413178.6550 0.4836 0.4853
ENERGY: 3000 3.0442 10.4899 4.4464 0.0000 -17685.3571 1812.4416 0.0000 0.0000 3051.3216 -12803.6134 297.8074 -15854.9350 -12797.9042 297.5948 -41.1302 -40.3858 408798.5022 -0.2907 -0.2830
ENERGY: 4000 0.8127 7.5462 6.7789 0.0000 -17721.8141 1840.9121 0.0000 0.0000 3125.7994 -12739.9649 305.0764 -15865.7643 -12733.8071 298.9561 -18.6315 -18.6427 399878.4925 2.6628 2.6412
ENERGY: 5000 0.9646 11.1450 5.6443 0.0000 -17676.8333 1852.7340 0.0000 0.0000 3027.2872 -12779.0582 295.4616 -15806.3454 -12773.7788 299.9677 8.0275 8.5725 403533.7735 0.2348 0.2584
TCL: Running FEP window   9: Lambda1 0.5    Lambda2 0.5625 [dLambda 0.0625]
TCL: Setting parameter firsttimestep to 0
TCL: Setting parameter alchLambda to 0.5
Info: NONBONDED TABLE R-SQUARED SPACING: 0.0625
Info: NONBONDED TABLE SIZE: 769 POINTS
TCL: Setting parameter alchLambda2 to 0.5625
Info: NONBONDED TABLE R-SQUARED SPACING: 0.0625
Info: NONBONDED TABLE SIZE: 769 POINTS
TCL: Running for 5000 steps
ETITLE: TS BOND ANGLE DIHED IMPRP ELECT VDW BOUNDARY MISC KINETIC TOTAL TEMP POTENTIAL TOTAL3 TEMPAVG PRESSURE GPRESSURE VOLUME PRESSAVG GPRESSAVG
ENERGY: 0 0.9646 11.1450 5.6443 0.0000 -17676.8333 1852.9691 0.0000 0.0000 3027.1943 -12778.9160 295.4526 -15806.1103 -12773.3595 295.4526 8.8943 9.1505 403533.7735 8.8943 9.1505
ENERGY: 1000 3.7878 5.1339 5.7185 0.0000 -17674.3342 1829.3352 0.0000 0.0000 3028.9332 -12801.4256 295.6223 -15830.3587 -12795.3464 298.5462 -35.0812 -35.6500 401088.4971 0.1483 0.2036
ENERGY: 2000 3.6789 8.0324 4.6520 0.0000 -17595.8756 1785.6258 0.0000 0.0000 3044.7329 -12749.1537 297.1643 -15793.8866 -12741.8137 300.0619 -52.1171 -51.7471 402025.4496 2.7365 2.7311
ENERGY: 3000 1.9190 7.2964 5.6583 0.0000 -17839.4869 1898.2026 0.0000 0.0000 3073.0007 -12853.4099 299.9233 -15926.4106 -12846.3374 298.2702 31.6628 31.3002 392992.3167 0.3703 0.3561
ENERGY: 4000 1.2240 7.8206 4.0027 0.0000 -17686.5273 1822.1675 0.0000 0.0000 3054.0972 -12797.2154 298.0783 -15851.3126 -12792.9735 298.3504 -17.0882 -15.8217 419924.1777 2.5758 2.5820
ENERGY: 5000 1.1287 5.4025 5.8294 0.0000 -17631.0893 1837.1911 0.0000 0.0000 3058.4596 -12723.0779 298.5041 -15781.5375 -12718.3835 300.5460 -0.5533 -0.9108 401181.1412 1.8526 1.8679
TCL: Running FEP window  10: Lambda1 0.5625 Lambda2 0.625  [dLambda 0.0625]
TCL: Setting parameter firsttimestep to 0
TCL: Setting parameter alchLambda to 0.5625
Info: NONBONDED TABLE R-SQUARED SPACING: 0.0625
Info: NONBONDED TABLE SIZE: 769 POINTS
TCL: Setting parameter alchLambda2 to 0.625
Info: NONBONDED TABLE R-SQUARED SPACING: 0.0625
Info: NONBONDED TABLE SIZE: 769 POINTS
TCL: Running for 5000 steps
ETITLE: TS BOND ANGLE DIHED IMPRP ELECT VDW BOUNDARY MISC KINETIC TOTAL TEMP POTENTIAL TOTAL3 TEMPAVG PRESSURE GPRESSURE VOLUME PRESSAVG GPRESSAVG
ENERGY: 0 1.1287 5.4025 5.8294 0.0000 -17630.4636 1837.1351 0.0000 0.0000 3058.3646 -12722.6033 298.4948 -15780.9678 -12717.1156 298.4948 -0.3630 -0.4587 401181.1412 -0.3630 -0.4587
ENERGY: 1000 2.1778 7.2185 5.3761 0.0000 -17518.3550 1823.1557 0.0000 0.0000 3033.9734 -12646.4535 296.1142 -15680.4269 -12641.2086 300.7297 27.9356 28.7022 381246.2259 0.1006 0.1330
ENERGY: 2000 2.7768 6.0373 5.8631 0.0000 -17746.8269 1919.0747 0.0000 0.0000 3092.5353 -12720.5396 301.8298 -15813.0749 -12712.2280 301.7085 27.5638 27.1424 385539.7943 1.8280 1.8643
ENERGY: 3000 2.1888 9.7483 3.5831 0.0000 -17690.3746 1831.2165 0.0000 0.0000 3101.4873 -12742.1505 302.7035 -15843.6378 -12735.1790 300.9778 -29.5019 -30.3252 397942.6597 2.1870 2.2522
ENERGY: 4000 1.0275 10.4451 5.7222 0.0000 -17526.7712 1809.2761 0.0000 0.0000 3074.1821 -12626.1182 300.0386 -15700.3003 -12619.7547 298.9886 -26.2835 -26.9665 408008.5458 2.2085 2.2006
ENERGY: 5000 2.4226 10.6196 4.9904 0.0000 -17776.8868 1899.8336 0.0000 0.0000 3137.6599 -12721.3607 306.2340 -15859.0206 -12718.1991 299.7232 19.4199 20.1395 403146.6138 0.7332 0.7229
TCL: Running FEP window  11: Lambda1 0.625  Lambda2 0.6875 [dLambda 0.0625]
TCL: Setting parameter firsttimestep to 0
TCL: Setting parameter alchLambda to 0.625
Info: NONBONDED TABLE R-SQUARED SPACING: 0.0625
Info: NONBONDED TABLE SIZE: 769 POINTS
TCL: Setting parameter alchLambda2 to 0.6875
Info: NONBONDED TABLE R-SQUARED SPACING: 0.0625
Info: NONBONDED TABLE SIZE: 769 POINTS
TCL: Running for 5000 steps
ETITLE: TS BOND ANGLE DIHED IMPRP ELECT VDW BOUNDARY MISC KINETIC TOTAL TEMP POTENTIAL TOTAL3 TEMPAVG PRESSURE GPRESSURE VOLUME PRESSAVG GPRESSAVG
ENERGY: 0 2.4226 10.6196 4.9904 0.0000 -17776.8389 1899.7090 0.0000 0.0000 3137.5706 -12721.5267 306.2252 -15859.0973 -12715.0159 306.2252 20.0703 20.1041 403146.6138 20.0703 20.1041
ENERGY: 1000 3.1180 8.4133 5.2301 0.0000 -17588.8981 1851.5993 0.0000 0.0000 2999.2615 -12721.2760 292.7263 -15720.5375 -12715.8810 300.4869 -1.7585 -1.7218 410932.9448 2.4852 2.5216
ENERGY: 2000 3.4538 9.1407 6.2763 0.0000 -17690.9773 1805.9726 0.0000 0.0000 3109.4370 -12756.6969 303.4794 -15866.1339 -12749.2141 300.2564 -22.9730 -23.4029 402598.6811 -0.9915 -1.0172
ENERGY: 3000 4.9439 8.5657 4.5314 0.0000 -17702.2072 1884.0707 0.0000 0.0000 3060.4213 -12739.6742 298.6955 -15800.0955 -12733.7844 298.8997 10.2109 10.9252 403817.5692 3.5573 3.5605
ENERGY: 4000 3.4843 14.5930 4.7400 0.0000 -17747.3088 1877.1587 0.0000 0.0000 3052.9444 -12794.3885 297.9658 -15847.3328 -12789.3410 296.5578 13.2087 12.3755 393753.2198 -0.8297 -0.7824
ENERGY: 5000 1.7562 8.5869 3.7170 0.0000 -17871.5822 1928.7550 0.0000 0.0000 3067.0370 -12861.7301 299.3412 -15928.7671 -12857.3503 296.8858 17.0754 16.1760 385174.4849 0.8154 0.7710
TCL: Running FEP window  12: Lambda1 0.6875 Lambda2 0.75   [dLambda 0.0625]
TCL: Setting parameter firsttimestep to 0
TCL: Setting parameter alchLambda to 0.6875
Info: NONBONDED TABLE R-SQUARED SPACING: 0.0625
Info: NONBONDED TABLE SIZE: 769 POINTS
TCL: Setting parameter alchLambda2 to 0.75
Info: NONBONDED TABLE R-SQUARED SPACING: 0.0625
Info: NONBONDED TABLE SIZE: 769 POINTS
TCL: Running for 5000 steps
ETITLE: TS BOND ANGLE DIHED IMPRP ELECT VDW BOUNDARY MISC KINETIC TOTAL TEMP POTENTIAL TOTAL3 TEMPAVG PRESSURE GPRESSURE VOLUME PRESSAVG GPRESSAVG
ENERGY: 0 1.7562 8.5869 3.7170 0.0000 -17871.9120 1928.6911 0.0000 0.0000 3066.9468 -12862.2141 299.3324 -15929.1609 -12855.6041 299.3324 16.1190 16.3376 385174.4849 16.1190 16.3376
ENERGY: 1000 2.0158 9.9188 4.3861 0.0000 -17671.0349 1841.1899 0.0000 0.0000 3014.7706 -12798.7537 294.2400 -15813.5243 -12792.6515 297.9465 5.2625 4.4403 391377.3562 -0.9023 -0.8885
ENERGY: 2000 4.1798 13.0767 4.5365 0.0000 -17667.8816 1852.0632 0.0000 0.0000 3021.8157 -12772.2097 294.9276 -15794.0254 -12765.8956 298.2448 6.3927 6.0655 415657.4826 4.4989 4.4372
ENERGY: 3000 2.2873 9.6046 6.9913 0.0000 -17672.2837 1851.8284 0.0000 0.0000 3103.1937 -12698.3783 302.8701 -15801.5720 -12693.1219 298.3446 1.2800 0.8338 414680.5687 0.1146 0.1063
ENERGY: 4000 2.2782 10.5827 4.7720 0.0000 -17709.5064 1892.5961 0.0000 0.0000 3048.2037 -12751.0738 297.5031 -15799.2775 -12746.7248 300.5031 28.2073 26.6448 411450.1199 1.8119 1.7710
ENERGY: 5000 0.7117 9.4015 6.5228 0.0000 -17684.7576 1827.4137 0.0000 0.0000 3114.3288 -12726.3791 303.9569 -15840.7079 -12717.6104 301.6725 -24.6643 -24.0857 415481.1362 0.6013 0.6229
TCL: Running FEP window  13: Lambda1 0.75   Lambda2 0.8125 [dLambda 0.0625]
TCL: Setting parameter firsttimestep to 0
TCL: Setting parameter alchLambda to 0.75
Info: NONBONDED TABLE R-SQUARED SPACING: 0.0625
Info: NONBONDED TABLE SIZE: 769 POINTS
TCL: Setting parameter alchLambda2 to 0.8125
Info: NONBONDED TABLE R-SQUARED SPACING: 0.0625
Info: NONBONDED TABLE SIZE: 769 POINTS
TCL: Running for 5000 steps
ETITLE: TS BOND ANGLE DIHED IMPRP ELECT VDW BOUNDARY MISC KINETIC TOTAL TEMP POTENTIAL TOTAL3 TEMPAVG PRESSURE GPRESSURE VOLUME PRESSAVG GPRESSAVG
ENERGY: 0 0.7117 9.4015 6.5228 0.0000 -17685.4904 1829.2146 0.0000 0.0000 3114.2362 -12725.4036 303.9478 -15839.6399 -12719.1923 303.9478 -21.9014 -21.9368 415481.1362 -21.9014 -21.9368
ENERGY: 1000 1.2825 11.7709 5.4048 0.0000 -17512.7642 1697.5597 0.0000 0.0000 2981.3581 -12815.3882 290.9790 -15796.7464 -12811.1176 297.0122 -96.8785 -96.7425 405001.3142 0.5664 0.5412
ENERGY: 2000 1.2320 9.9888 7.8451 0.0000 -17664.4476 1758.6666 0.0000 0.0000 3088.1954 -12798.5198 301.4062 -15886.7151 -12792.6980 299.4776 -52.4663 -52.5357 395179.6943 4.1783 4.1506
ENERGY: 3000 2.0582 10.4577 6.8842 0.0000 -17806.0860 1905.8849 0.0000 0.0000 3051.3344 -12829.4665 297.8086 -15880.8009 -12822.5273 297.2857 21.7891 21.8693 387533.9957 1.3326 1.2943
ENERGY: 4000 3.3144 14.1694 4.9276 0.0000 -17840.2489 1867.6239 0.0000 0.0000 3116.0383 -12834.1753 304.1237 -15950.2136 -12828.5047 296.0338 -35.8938 -34.5134 384248.1677 -1.2552 -1.3389
ENERGY: 5000 2.6993 8.1612 7.8027 0.0000 -17756.8129 1868.7009 0.0000 0.0000 3064.9691 -12804.4797 299.1394 -15869.4488 -12797.4438 296.1959 -11.8045 -11.2457 375982.1141 -2.0567 -2.0543
TCL: Running FEP window  14: Lambda1 0.8125 Lambda2 0.875  [dLambda 0.0625]
TCL: Setting parameter firsttimestep to 0
TCL: Setting parameter alchLambda to 0.8125
Info: NONBONDED TABLE R-SQUARED SPACING: 0.0625
Info: NONBONDED TABLE SIZE: 769 POINTS
TCL: Setting parameter alchLambda2 to 0.875
Info: NONBONDED TABLE R-SQUARED SPACING: 0.0625
Info: NONBONDED TABLE SIZE: 769 POINTS
TCL: Running for 5000 steps
ETITLE: TS BOND ANGLE DIHED IMPRP ELECT VDW BOUNDARY MISC KINETIC TOTAL TEMP POTENTIAL TOTAL3 TEMPAVG PRESSURE GPRESSURE VOLUME PRESSAVG GPRESSAVG
ENERGY: 0 2.6993 8.1612 7.8027 0.0000 -17757.2196 1869.0556 0.0000 0.0000 3064.8767 -12804.6240 299.1304 -15869.5007 -12798.8414 299.1304 -10.7344 -10.5656 375982.1141 -10.7344 -10.5656
ENERGY: 1000 1.2996 9.3673 7.5434 0.0000 -17883.8012 1940.6172 0.0000 0.0000 3049.3630 -12875.6108 297.6162 -15924.9738 -12868.4676 300.3686 40.3488 40.1556 368181.9260 1.8394 1.9239
ENERGY: 2000 1.6197 11.5767 6.4931 0.0000 -17764.0642 1834.6793 0.0000 0.0000 3048.4184 -12861.2770 297.5240 -15909.6954 -12855.0149 296.6991 -20.7306 -19.5656 369563.9741 -0.4662 -0.4985
ENERGY: 3000 2.1797 7.1341 6.7841 0.0000 -17820.6835 1844.1879 0.0000 0.0000 3007.3630 -12953.0347 293.5170 -15960.3977 -12944.8123 294.5514 -21.5401 -22.0970 376406.3195 4.6549 4.6196
ENERGY: 4000 1.1749 13.8540 3.8119 0.0000 -17896.5014 1879.3779 0.0000 0.0000 3025.7780 -12972.5047 295.3143 -15998.2827 -12965.3202 292.6528 -13.3435 -12.4737 368843.2990 2.1217 2.0998
ENERGY: 5000 1.5749 12.6136 3.8161 0.0000 -17805.6865 1926.2326 0.0000 0.0000 2965.4427 -12896.0067 289.4256 -15861.4494 -12888.8509 297.5921 30.9121 31.5335 368517.4226 4.7861 4.7912
TCL: Running FEP window  15: Lambda1 0.875  Lambda2 0.9375 [dLambda 0.0625]
TCL: Setting parameter firsttimestep to 0
TCL: Setting parameter alchLambda to 0.875
Info: NONBONDED TABLE R-SQUARED SPACING: 0.0625
Info: NONBONDED TABLE SIZE: 769 POINTS
TCL: Setting parameter alchLambda2 to 0.9375
Info: NONBONDED TABLE R-SQUARED SPACING: 0.0625
Info: NONBONDED TABLE SIZE: 769 POINTS
TCL: Running for 5000 steps
ETITLE: TS BOND ANGLE DIHED IMPRP ELECT VDW BOUNDARY MISC KINETIC TOTAL TEMP POTENTIAL TOTAL3 TEMPAVG PRESSURE GPRESSURE VOLUME PRESSAVG GPRESSAVG
ENERGY: 0 1.5749 12.6136 3.8161 0.0000 -17807.1964 1927.9983 0.0000 0.0000 2965.3473 -12895.8462 289.4163 -15861.1935 -12890.1806 289.4163 34.1418 34.0263 368517.4226 34.1418 34.0263
ENERGY: 1000 1.8765 19.3389 4.4040 0.0000 -17764.1463 1856.7698 0.0000 0.0000 2982.3273 -12899.4298 291.0736 -15881.7571 -12891.7779 296.4914 -3.6031 -4.5983 380376.3367 4.0112 3.9803
ENERGY: 2000 2.5819 11.3865 4.1347 0.0000 -17715.2076 1846.7031 0.0000 0.0000 3005.4102 -12844.9912 293.3265 -15850.4014 -12840.9491 295.3021 -18.4019 -17.4829 395466.7518 1.3145 1.3663
ENERGY: 3000 5.2117 17.7994 6.9098 0.0000 -17866.8415 1920.4076 0.0000 0.0000 3044.6728 -12871.8402 297.1585 -15916.5130 -12867.3801 295.9612 40.9772 41.5002 403288.3090 2.6531 2.7022
ENERGY: 4000 1.4870 10.2920 5.4740 0.0000 -17801.0173 1858.4552 0.0000 0.0000 3053.5215 -12871.7876 298.0221 -15925.3091 -12864.4194 297.8380 1.4472 2.1997 398177.2413 0.9843 0.9893
ENERGY: 5000 2.6761 10.7771 6.7387 0.0000 -17878.9706 1943.1565 0.0000 0.0000 3074.2779 -12841.3442 300.0479 -15915.6221 -12836.2989 299.1641 43.3110 43.8417 397991.6256 -0.5490 -0.5864
TCL: Running FEP window  16: Lambda1 0.9375 Lambda2 1.0    [dLambda 0.0625]
TCL: Setting parameter firsttimestep to 0
TCL: Setting parameter alchLambda to 0.9375
Info: NONBONDED TABLE R-SQUARED SPACING: 0.0625
Info: NONBONDED TABLE SIZE: 769 POINTS
TCL: Setting parameter alchLambda2 to 1.0
Info: NONBONDED TABLE R-SQUARED SPACING: 0.0625
Info: NONBONDED TABLE SIZE: 769 POINTS
TCL: Running for 5000 steps
ETITLE: TS BOND ANGLE DIHED IMPRP ELECT VDW BOUNDARY MISC KINETIC TOTAL TEMP POTENTIAL TOTAL3 TEMPAVG PRESSURE GPRESSURE VOLUME PRESSAVG GPRESSAVG
ENERGY: 0 2.6761 10.7771 6.7387 0.0000 -17880.3272 1946.8068 0.0000 0.0000 3074.1850 -12839.1434 300.0388 -15913.3284 -12833.0092 300.0388 47.8246 47.9405 397991.6256 47.8246 47.9405
ENERGY: 1000 1.3535 13.2316 6.7240 0.0000 -17927.0996 1975.8485 0.0000 0.0000 3062.4912 -12867.4507 298.8975 -15929.9419 -12861.4811 296.3021 35.5318 36.8096 399293.2611 0.9158 0.8952
ENERGY: 2000 2.5248 8.8096 4.7982 0.0000 -17801.9270 1899.6291 0.0000 0.0000 3034.8227 -12851.3426 296.1971 -15886.1654 -12843.1708 297.2204 -5.8147 -5.5825 385007.4905 2.5257 2.5060
ENERGY: 3000 1.9813 12.6053 3.6906 0.0000 -18010.5367 2038.3603 0.0000 0.0000 3044.8981 -12909.0011 297.1805 -15953.8991 -12902.6495 294.5511 97.8818 97.3413 377193.5587 1.1008 1.0309
ENERGY: 4000 0.8740 11.6597 4.2093 0.0000 -17870.2427 1996.1746 0.0000 0.0000 3066.9643 -12790.3608 299.3341 -15857.3251 -12783.5773 298.2781 88.0016 87.7343 370939.8363 0.4969 0.5126
ENERGY: 5000 0.9340 16.5880 7.0876 0.0000 -17695.3742 1871.1973 0.0000 0.0000 3011.3090 -12788.2584 293.9022 -15799.5673 -12782.0352 297.2999 20.7421 20.4876 354664.2936 -0.4705 -0.5077
