Info: SIMULATION PARAMETERS:
Info: TIMESTEP               2
Info: NUMBER OF STEPS        0
Info: STEPS PER CYCLE        10
Info: PERIODIC CELL BASIS 1  38.861 0 0
Info: PERIODIC CELL BASIS 2  0 40.343 0
Info: PERIODIC CELL BASIS 3  0 0 42.04
Info: PERIODIC CELL CENTER   0 0 0
Info: WRAPPING WATERS AROUND PERIODIC BOUNDARIES ON OUTPUT.
Info: WRAPPING ALL CLUSTERS AROUND PERIODIC BOUNDARIES ON OUTPUT.
Info: FIRST LDB TIMESTEP     50
Info: LAST LDB TIMESTEP     -1
Info: HOM BACKGROUND SCALING 1
Info: PME BACKGROUND SCALING 1
Info: MIN ATOMS PER PATCH    40
Info: EMPTY PATCH LOAD       40 ATOMS
Info: INITIAL TEMPERATURE    300
Info: CENTER OF MASS MOVING INITIALLY? NO
Info: DIELECTRIC             1
Info: EXCLUDE                SCALED ONE-FOUR
Info: 1-4 ELECTROSTATICS SCALED BY 0.833333
Info: MODIFIED 1-4 VDW PARAMETERS WILL BE USED
Info: DCD FILENAME           mobley_6973347_min.dcd
Info: DCD FREQUENCY          5000
Info: DCD FIRST STEP         5000
Info: DCD FILE WILL CONTAIN UNIT CELL DATA
Info: XST FILENAME           mobley_6973347_min.xst
Info: XST FREQUENCY          5000
Info: NO VELOCITY DCD OUTPUT
Info: NO FORCE DCD OUTPUT
Info: OUTPUT FILENAME        mobley_6973347_min
Info: BINARY OUTPUT FILES WILL BE USED
Info: RESTART FILENAME       mobley_6973347_min.restart
Info: RESTART FREQUENCY      5000
Info: BINARY RESTART FILES WILL BE USED
Info: CUTOFF                 9
Info: PAIRLIST DISTANCE      11
Info: PAIRLIST SHRINK RATE   0.01
Info: PAIRLIST GROW RATE     0.01
Info: PAIRLIST TRIGGER       0.3
Info: PAIRLISTS PER CYCLE    2
Info: PAIRLISTS ENABLED
Info: MARGIN                 8
Info: HYDROGEN GROUP CUTOFF  2.5
Info: PATCH DIMENSION        21.5
Info: ENERGY OUTPUT STEPS    5000
Info: ENERGY EVALUATION STEPS    5000
Info: OUTPUT ENERGY PRECISION 4
Info: CROSSTERM ENERGY INCLUDED IN DIHEDRAL
Info: TIMING OUTPUT STEPS    50000
Info: PRESSURE OUTPUT STEPS  5000
Info: LANGEVIN DYNAMICS ACTIVE
Info: LANGEVIN TEMPERATURE   300
Info: LANGEVIN USING BBK INTEGRATOR
Info: LANGEVIN DAMPING COEFFICIENT IS 1 INVERSE PS
Info: LANGEVIN DYNAMICS APPLIED TO HYDROGENS
Info: LANGEVIN PISTON PRESSURE CONTROL ACTIVE
Info:        TARGET PRESSURE IS 1.01325 BAR
Info:     OSCILLATION PERIOD IS 50 FS
Info:             DECAY TIME IS 25 FS
Info:     PISTON TEMPERATURE IS 300 K
Info:       PRESSURE CONTROL IS GROUP-BASED
Info:    INITIAL STRAIN RATE IS 0 0 0
Info:       CELL FLUCTUATION IS ISOTROPIC
Info: PARTICLE MESH EWALD (PME) ACTIVE
Info: PME TOLERANCE               1e-06
Info: PME EWALD COEFFICIENT       0.348832
Info: PME INTERPOLATION ORDER     4
Info: PME GRID DIMENSIONS         40 44 44
Info: PME MAXIMUM GRID SPACING    1
Info: FULL ELECTROSTATIC EVALUATION FREQUENCY      2
Info: USING VERLET I (r-RESPA) MTS SCHEME.
Info: C1 SPLITTING OF LONG RANGE ELECTROSTATICS
Info: PLACING ATOMS IN PATCHES BY HYDROGEN GROUPS
Info: RIGID BONDS TO HYDROGEN : ALL
Info:         ERROR TOLERANCE : 1e-08
Info:          MAX ITERATIONS : 100
Info: RIGID WATER USING SETTLE ALGORITHM
Info: RANDOM NUMBER SEED     1741405771
Info: USE HYDROGEN BONDS?    NO
Info: Using AMBER format force field!
Info: AMBER PARM FILE        mobley_6973347.prmtop
Info: COORDINATE PDB         mobley_6973347.pdb
Info: Exclusions will be read from PARM file!
Info: SCNB (VDW SCALING)     2
Info: USING ARITHMETIC MEAN TO COMBINE L-J SIGMA PARAMETERS
Info: SUMMARY OF PARAMETERS:
Info: 9 BONDS
Info: 11 ANGLES
Info:   11 HARMONIC
Info:   0 COSINE-BASED
Info: 15 DIHEDRAL
Info: 0 IMPROPER
Info: 0 CROSSTERM
Info: 0 VDW
Info: 36 VDW_PAIRS
Info: 0 NBTHOLE_PAIRS
Info: STRUCTURE SUMMARY:
Info: 4790 ATOMS
Info: 4789 BONDS
Info: 22 ANGLES
Info: 31 DIHEDRALS
Info: 0 IMPROPERS
Info: 0 CROSSTERMS
Info: 4831 EXCLUSIONS
Info: 4784 RIGID BONDS
Info: 9586 DEGREES OF FREEDOM
Info: 1598 HYDROGEN GROUPS
Info: 4 ATOMS IN LARGEST HYDROGEN GROUP
Info: 1598 MIGRATION GROUPS
Info: 4 ATOMS IN LARGEST MIGRATION GROUP
Info: TOTAL MASS = 28769.6 amu
Info: TOTAL CHARGE = 0.000100005 e
Info: MASS DENSITY = 0.724849 g/cm^3
Info: ATOM DENSITY = 0.0726759 atoms/A^3
Info: ADDED 0 IMPLICIT EXCLUSIONS
Info: NONBONDED TABLE R-SQUARED SPACING: 0.0625
Info: NONBONDED TABLE SIZE: 705 POINTS
Info: REMOVING COM VELOCITY 0.134168 -0.0176994 0.0809551
TCL: Minimizing for 2000 steps
ETITLE: TS BOND ANGLE DIHED IMPRP ELECT VDW BOUNDARY MISC KINETIC TOTAL TEMP POTENTIAL TOTAL3 TEMPAVG PRESSURE GPRESSURE VOLUME PRESSAVG GPRESSAVG
ENERGY: 0 0.3111 0.7493 29.4198 0.0000 -15084.4143 1716.8267 0.0000 0.0000 0.0000 -13337.1073 0.0000 -13337.1073 -13337.1073 0.0000 11298.5312 -15962.9052 65909.0223 11298.5312 -15962.9052
ENERGY: 400 3.3971 1.7370 27.6277 0.0000 -20105.4893 2885.3715 0.0000 0.0000 0.0000 -17187.3560 0.0000 -17187.3560 -17187.3560 0.0000 15743.1256 15857.9403 65909.0223 15743.1256 15857.9403
ENERGY: 800 0.7069 1.5377 27.4963 0.0000 -21000.9621 3285.3952 0.0000 0.0000 0.0000 -17685.8260 0.0000 -17685.8260 -17685.8260 0.0000 17637.1494 17754.5660 65909.0223 17637.1494 17754.5660
ENERGY: 1200 0.2984 1.4520 27.6240 0.0000 -21438.8655 3496.2852 0.0000 0.0000 0.0000 -17913.2060 0.0000 -17913.2060 -17913.2060 0.0000 18678.6327 18776.1139 65909.0223 18678.6327 18776.1139
ENERGY: 1600 0.2296 1.2571 27.6594 0.0000 -21708.3155 3625.8314 0.0000 0.0000 0.0000 -18053.3380 0.0000 -18053.3380 -18053.3380 0.0000 19336.8556 19430.5318 65909.0223 19336.8556 19430.5318
ENERGY: 2000 0.2525 1.2347 27.7391 0.0000 -21854.0001 3691.0983 0.0000 0.0000 0.0000 -18133.6755 0.0000 -18133.6755 -18133.6755 0.0000 19691.5015 19780.6249 65909.0223 19691.5015 19780.6249
TCL: Exiting due to exit command.
Info: NAMD 3.0.1 for Linux-x86_64-multicore
Info: Please visit http://www.ks.uiuc.edu/Research/namd/
Info: for updates, documentation, and support information.
Info: Please cite Phillips et al., J. Chem. Phys. 153:044130 (2020) doi:10.1063/5.0014475
Info: in all publications reporting results obtained with NAMD.
Info: Based on Charm++/Converse 80000 for multicore-linux-x86_64-gcc
Info: Built Mon Oct 14 11:11:06 CDT 2024 by dhardy on athine.ks.uiuc.edu
Info: 1 NAMD  3.0.1  Linux-x86_64-multicore  16    k078  z5358697
Info: Running on 16 processors, 1 nodes, 1 physical nodes.
Info: CPU topology information available.
Info: Charm++/Converse parallel runtime startup completed at 0.00516584 s
Info: 1043.48 MB of memory in use based on /proc/self/stat
Info: Configuration file is mobley_6973347_equil.namd
Info: Working in the current directory /srv/scratch/z5358697/prod_prep_8/6973347
TCL: Running 25000 steps at 30 kelvin.
TCL: Suspending until startup complete.
Info: SIMULATION PARAMETERS:
Info: TIMESTEP               2
Info: NUMBER OF STEPS        0
Info: STEPS PER CYCLE        10
Info: PERIODIC CELL BASIS 1  38.861 0 0
Info: PERIODIC CELL BASIS 2  0 40.343 0
Info: PERIODIC CELL BASIS 3  0 0 42.04
Info: PERIODIC CELL CENTER   0 0 0
Info: WRAPPING WATERS AROUND PERIODIC BOUNDARIES ON OUTPUT.
Info: WRAPPING ALL CLUSTERS AROUND PERIODIC BOUNDARIES ON OUTPUT.
Info: FIRST LDB TIMESTEP     50
Info: LAST LDB TIMESTEP     -1
Info: HOM BACKGROUND SCALING 1
Info: PME BACKGROUND SCALING 1
Info: MIN ATOMS PER PATCH    40
Info: EMPTY PATCH LOAD       40 ATOMS
Info: INITIAL TEMPERATURE    300
Info: CENTER OF MASS MOVING INITIALLY? NO
Info: DIELECTRIC             1
Info: EXCLUDE                SCALED ONE-FOUR
Info: 1-4 ELECTROSTATICS SCALED BY 0.833333
Info: MODIFIED 1-4 VDW PARAMETERS WILL BE USED
Info: DCD FILENAME           mobley_6973347_equil.dcd
Info: DCD FREQUENCY          5000
Info: DCD FIRST STEP         5000
Info: DCD FILE WILL CONTAIN UNIT CELL DATA
Info: XST FILENAME           mobley_6973347_equil.xst
Info: XST FREQUENCY          5000
Info: NO VELOCITY DCD OUTPUT
Info: NO FORCE DCD OUTPUT
Info: OUTPUT FILENAME        mobley_6973347_equil
Info: BINARY OUTPUT FILES WILL BE USED
Info: RESTART FILENAME       mobley_6973347_equil.restart
Info: RESTART FREQUENCY      5000
Info: BINARY RESTART FILES WILL BE USED
Info: CUTOFF                 9
Info: PAIRLIST DISTANCE      11
Info: PAIRLIST SHRINK RATE   0.01
Info: PAIRLIST GROW RATE     0.01
Info: PAIRLIST TRIGGER       0.3
Info: PAIRLISTS PER CYCLE    2
Info: PAIRLISTS ENABLED
Info: MARGIN                 8
Info: HYDROGEN GROUP CUTOFF  2.5
Info: PATCH DIMENSION        21.5
Info: ENERGY OUTPUT STEPS    5000
Info: ENERGY EVALUATION STEPS    5000
Info: OUTPUT ENERGY PRECISION 4
Info: CROSSTERM ENERGY INCLUDED IN DIHEDRAL
Info: TIMING OUTPUT STEPS    50000
Info: PRESSURE OUTPUT STEPS  5000
Info: LANGEVIN DYNAMICS ACTIVE
Info: LANGEVIN TEMPERATURE   30
Info: LANGEVIN USING BBK INTEGRATOR
Info: LANGEVIN DAMPING COEFFICIENT IS 1 INVERSE PS
Info: LANGEVIN DYNAMICS APPLIED TO HYDROGENS
Info: LANGEVIN PISTON PRESSURE CONTROL ACTIVE
Info:        TARGET PRESSURE IS 1.01325 BAR
Info:     OSCILLATION PERIOD IS 50 FS
Info:             DECAY TIME IS 25 FS
Info:     PISTON TEMPERATURE IS 300 K
Info:       PRESSURE CONTROL IS GROUP-BASED
Info:    INITIAL STRAIN RATE IS 0 0 0
Info:       CELL FLUCTUATION IS ISOTROPIC
Info: PARTICLE MESH EWALD (PME) ACTIVE
Info: PME TOLERANCE               1e-06
Info: PME EWALD COEFFICIENT       0.348832
Info: PME INTERPOLATION ORDER     4
Info: PME GRID DIMENSIONS         40 44 44
Info: PME MAXIMUM GRID SPACING    1
Info: FULL ELECTROSTATIC EVALUATION FREQUENCY      2
Info: USING VERLET I (r-RESPA) MTS SCHEME.
Info: C1 SPLITTING OF LONG RANGE ELECTROSTATICS
Info: PLACING ATOMS IN PATCHES BY HYDROGEN GROUPS
Info: RIGID BONDS TO HYDROGEN : ALL
Info:         ERROR TOLERANCE : 1e-08
Info:          MAX ITERATIONS : 100
Info: RIGID WATER USING SETTLE ALGORITHM
Info: RANDOM NUMBER SEED     1741405788
Info: USE HYDROGEN BONDS?    NO
Info: Using AMBER format force field!
Info: AMBER PARM FILE        mobley_6973347.prmtop
Info: COORDINATE PDB         mobley_6973347.pdb
Info: Exclusions will be read from PARM file!
Info: SCNB (VDW SCALING)     2
Info: USING ARITHMETIC MEAN TO COMBINE L-J SIGMA PARAMETERS
Info: BINARY COORDINATES     mobley_6973347_min.coor
Info: SUMMARY OF PARAMETERS:
Info: 9 BONDS
Info: 11 ANGLES
Info:   11 HARMONIC
Info:   0 COSINE-BASED
Info: 15 DIHEDRAL
Info: 0 IMPROPER
Info: 0 CROSSTERM
Info: 0 VDW
Info: 36 VDW_PAIRS
Info: 0 NBTHOLE_PAIRS
Info: STRUCTURE SUMMARY:
Info: 4790 ATOMS
Info: 4789 BONDS
Info: 22 ANGLES
Info: 31 DIHEDRALS
Info: 0 IMPROPERS
Info: 0 CROSSTERMS
Info: 4831 EXCLUSIONS
Info: 4784 RIGID BONDS
Info: 9586 DEGREES OF FREEDOM
Info: 1598 HYDROGEN GROUPS
Info: 4 ATOMS IN LARGEST HYDROGEN GROUP
Info: 1598 MIGRATION GROUPS
Info: 4 ATOMS IN LARGEST MIGRATION GROUP
Info: TOTAL MASS = 28769.6 amu
Info: TOTAL CHARGE = 0.000100005 e
Info: MASS DENSITY = 0.724849 g/cm^3
Info: ATOM DENSITY = 0.0726759 atoms/A^3
Info: ADDED 0 IMPLICIT EXCLUSIONS
Info: NONBONDED TABLE R-SQUARED SPACING: 0.0625
Info: NONBONDED TABLE SIZE: 705 POINTS
Info: REMOVING COM VELOCITY 0.115969 -0.0553579 -0.0749428
TCL: Running for 25000 steps
ETITLE: TS BOND ANGLE DIHED IMPRP ELECT VDW BOUNDARY MISC KINETIC TOTAL TEMP POTENTIAL TOTAL3 TEMPAVG PRESSURE GPRESSURE VOLUME PRESSAVG GPRESSAVG
ENERGY: 0 0.2525 1.2347 27.7391 0.0000 -21854.0001 3691.0983 0.0000 0.0000 2888.4241 -15245.2514 303.2592 -18133.6755 -15244.6255 303.2592 -116.1198 -86.1417 65909.0223 -116.1198 -86.1417
ENERGY: 5000 0.1026 2.2146 27.3220 0.0000 -22940.8208 3928.2666 0.0000 0.0000 291.0223 -18691.8927 30.5548 -18982.9150 -18690.8541 47.6042 -259.7987 -216.2317 46722.2733 -4.0554 -4.0419
ENERGY: 10000 0.1730 1.9833 27.5115 0.0000 -23042.1919 3987.4404 0.0000 0.0000 283.6253 -18741.4584 29.7782 -19025.0837 -18740.8322 30.3166 -50.4361 5.1052 46512.5567 0.8365 0.5162
ENERGY: 15000 0.1074 1.9802 27.9149 0.0000 -22880.1387 3821.1129 0.0000 0.0000 290.1820 -18738.8412 30.4666 -19029.0232 -18737.9867 30.2852 -940.2334 -900.2897 46840.7873 3.2203 3.3379
ENERGY: 20000 0.4320 1.7482 27.7469 0.0000 -23082.8687 3994.2599 0.0000 0.0000 281.3109 -18777.3707 29.5352 -19058.6816 -18776.6258 30.0020 -43.5284 -2.4357 46494.9394 0.3748 0.3175
ENERGY: 25000 0.0947 1.3140 27.8891 0.0000 -23159.1040 4074.7824 0.0000 0.0000 282.9398 -18772.0841 29.7062 -19055.0238 -18771.3428 30.1413 422.1637 456.8283 46306.0053 2.6583 2.7025
TCL: Running 25000 steps at 60 kelvin.
TCL: Setting parameter langevinTemp to 60
TCL: Running for 25000 steps
ETITLE: TS BOND ANGLE DIHED IMPRP ELECT VDW BOUNDARY MISC KINETIC TOTAL TEMP POTENTIAL TOTAL3 TEMPAVG PRESSURE GPRESSURE VOLUME PRESSAVG GPRESSAVG
ENERGY: 25000 0.0947 1.3140 27.8891 0.0000 -23159.1040 4074.7824 0.0000 0.0000 282.7915 -18772.2323 29.6906 -19055.0238 -18771.6932 29.6906 407.2731 456.8728 46306.0053 407.2731 456.8728
ENERGY: 30000 0.4357 2.2329 28.5618 0.0000 -22609.0267 3764.4118 0.0000 0.0000 576.4437 -18236.9408 60.5215 -18813.3845 -18235.1560 57.5237 -580.2224 -528.7202 46481.0744 1.4200 1.2880
ENERGY: 35000 0.4594 1.2118 27.9418 0.0000 -22763.8308 3848.6560 0.0000 0.0000 574.4999 -18311.0619 60.3174 -18885.5618 -18309.7052 59.8824 -386.4175 -329.0942 46647.1110 3.7011 3.7884
ENERGY: 40000 0.2948 2.1589 28.1454 0.0000 -22899.9130 3958.9782 0.0000 0.0000 579.0128 -18331.3229 60.7913 -18910.3357 -18330.0143 60.3058 164.7949 208.0728 46370.4497 -0.9275 -0.8852
ENERGY: 45000 0.2526 2.1658 27.4834 0.0000 -23000.2706 4049.4545 0.0000 0.0000 564.3405 -18356.5737 59.2508 -18920.9142 -18355.5799 60.1493 522.4583 571.6822 46359.5912 4.7799 4.6690
ENERGY: 50000 0.3477 3.6239 27.1039 0.0000 -23001.7742 4017.7327 0.0000 0.0000 579.1767 -18373.7893 60.8085 -18952.9660 -18372.4533 60.0204 319.8419 407.7886 46254.6858 3.9084 3.7958
TCL: Running 25000 steps at 90 kelvin.
TCL: Setting parameter langevinTemp to 90
TCL: Running for 25000 steps
ETITLE: TS BOND ANGLE DIHED IMPRP ELECT VDW BOUNDARY MISC KINETIC TOTAL TEMP POTENTIAL TOTAL3 TEMPAVG PRESSURE GPRESSURE VOLUME PRESSAVG GPRESSAVG
ENERGY: 50000 0.3477 3.6239 27.1039 0.0000 -23001.7742 4017.7327 0.0000 0.0000 578.8941 -18374.0719 60.7788 -18952.9660 -18372.9582 60.7788 350.4836 407.6411 46254.6858 350.4836 407.6411
ENERGY: 55000 0.4360 2.6939 28.5599 0.0000 -22560.4702 3868.7232 0.0000 0.0000 878.3288 -17781.7284 92.2168 -18660.0572 -17779.2535 87.4903 202.6074 260.0458 46748.6473 4.8613 4.4780
ENERGY: 60000 0.5334 4.7656 26.9609 0.0000 -22571.9889 3825.3840 0.0000 0.0000 869.6256 -17844.7193 91.3031 -18714.3450 -17843.5885 90.3790 -153.2210 -138.1384 46812.5264 5.0526 5.2665
ENERGY: 65000 0.0384 3.2612 27.8459 0.0000 -22605.6122 3869.9544 0.0000 0.0000 843.6240 -17860.8883 88.5731 -18704.5124 -17859.5114 89.7556 154.2761 210.0380 46440.8713 -3.9387 -4.0411
ENERGY: 70000 0.7905 3.5244 28.6893 0.0000 -22793.8938 4004.2325 0.0000 0.0000 869.0175 -17887.6394 91.2392 -18756.6570 -17884.6486 89.3118 723.4091 777.0446 46410.0085 4.6513 4.0613
ENERGY: 75000 0.7136 2.1778 28.7617 0.0000 -22520.0482 3739.6876 0.0000 0.0000 865.0575 -17883.6500 90.8234 -18748.7075 -17882.3686 90.1198 -701.9745 -634.5972 46808.5847 5.7480 5.8733
TCL: Running 25000 steps at 120 kelvin.
TCL: Setting parameter langevinTemp to 120
TCL: Running for 25000 steps
ETITLE: TS BOND ANGLE DIHED IMPRP ELECT VDW BOUNDARY MISC KINETIC TOTAL TEMP POTENTIAL TOTAL3 TEMPAVG PRESSURE GPRESSURE VOLUME PRESSAVG GPRESSAVG
ENERGY: 75000 0.7136 2.1778 28.7617 0.0000 -22520.0482 3739.6876 0.0000 0.0000 864.6308 -17884.0767 90.7786 -18748.7075 -17882.0058 90.7786 -684.6767 -635.1267 46808.5847 -684.6767 -635.1267
ENERGY: 80000 0.4195 5.0511 27.8406 0.0000 -22154.4924 3687.5390 0.0000 0.0000 1138.1233 -17295.5189 119.4929 -18433.6422 -17291.8597 117.0628 -169.1959 -102.8677 46827.7178 7.4368 7.3738
ENERGY: 85000 0.4615 4.2402 27.8842 0.0000 -22285.3599 3799.7196 0.0000 0.0000 1117.3517 -17335.7027 117.3121 -18453.0544 -17333.5084 119.7997 418.9586 458.2443 46728.8996 -2.2424 -2.1313
ENERGY: 90000 1.1290 4.3867 28.3927 0.0000 -22248.5270 3735.9068 0.0000 0.0000 1095.7208 -17382.9911 115.0411 -18478.7118 -17381.2041 119.8326 -171.0016 -131.9092 46923.8141 5.0618 5.4165
ENERGY: 95000 0.7382 2.6128 28.7179 0.0000 -22252.2679 3720.3989 0.0000 0.0000 1150.9537 -17348.8464 120.8400 -18499.8001 -17344.5917 119.9929 -143.7520 -111.3921 46715.8254 1.1723 1.3641
ENERGY: 100000 0.0442 3.1022 28.5218 0.0000 -22235.4547 3709.6614 0.0000 0.0000 1173.9478 -17320.1771 123.2542 -18494.1250 -17317.1995 121.0226 -64.4174 -18.9024 46530.4223 3.1351 3.0981
TCL: Running 25000 steps at 150 kelvin.
TCL: Setting parameter langevinTemp to 150
TCL: Running for 25000 steps
ETITLE: TS BOND ANGLE DIHED IMPRP ELECT VDW BOUNDARY MISC KINETIC TOTAL TEMP POTENTIAL TOTAL3 TEMPAVG PRESSURE GPRESSURE VOLUME PRESSAVG GPRESSAVG
ENERGY: 100000 0.0442 3.1022 28.5218 0.0000 -22235.4547 3709.6614 0.0000 0.0000 1173.3923 -17320.7326 123.1959 -18494.1250 -17318.5007 123.1959 -73.8595 -18.8095 46530.4223 -73.8595 -18.8095
ENERGY: 105000 0.3934 2.5960 29.0081 0.0000 -21841.8929 3626.2191 0.0000 0.0000 1405.4030 -16778.2733 147.5550 -18183.6763 -16772.8359 147.5764 165.0251 226.0267 46688.5744 3.2531 3.3451
ENERGY: 110000 1.0093 2.6445 29.3295 0.0000 -21722.4995 3531.6197 0.0000 0.0000 1454.0178 -16703.8787 152.6591 -18157.8965 -16698.8443 149.9588 -303.1277 -254.1731 46889.1284 7.2771 6.6097
ENERGY: 115000 0.4750 4.5121 28.9888 0.0000 -21916.5872 3682.7659 0.0000 0.0000 1435.1918 -16764.6537 150.6825 -18199.8454 -16759.6850 150.7652 387.7986 442.5958 46838.2179 1.9725 2.3808
ENERGY: 120000 0.5795 1.9283 28.7044 0.0000 -21773.8637 3571.6526 0.0000 0.0000 1435.9178 -16735.0811 150.7588 -18170.9989 -16731.2377 149.6563 -216.2767 -199.5793 47102.1001 3.7060 3.7208
ENERGY: 125000 0.5227 4.3407 27.8547 0.0000 -21846.2309 3593.8088 0.0000 0.0000 1455.0397 -16764.6642 152.7664 -18219.7039 -16759.8732 151.1030 -178.9872 -145.7750 47016.8396 -0.7714 -0.2008
TCL: Running 50000 steps at 180 kelvin.
TCL: Setting parameter langevinTemp to 180
TCL: Running for 50000 steps
ETITLE: TS BOND ANGLE DIHED IMPRP ELECT VDW BOUNDARY MISC KINETIC TOTAL TEMP POTENTIAL TOTAL3 TEMPAVG PRESSURE GPRESSURE VOLUME PRESSAVG GPRESSAVG
ENERGY: 125000 0.5227 4.3407 27.8547 0.0000 -21846.2309 3593.8088 0.0000 0.0000 1454.3266 -16765.3773 152.6915 -18219.7039 -16762.2809 152.6915 -212.1160 -144.7382 47016.8396 -212.1160 -144.7382
ENERGY: 135000 1.0080 3.7781 27.6330 0.0000 -21192.6976 3373.8796 0.0000 0.0000 1738.2196 -16048.1794 182.4978 -17786.3989 -16042.1464 178.9114 -136.1152 -85.1519 46480.3790 4.4978 4.8046
ENERGY: 145000 0.7335 5.1449 28.5870 0.0000 -21354.1099 3504.0348 0.0000 0.0000 1749.3675 -16066.2421 183.6682 -17815.6096 -16062.5076 180.6487 553.3463 659.3458 46299.0580 2.5702 2.5668
ENERGY: 155000 0.7642 3.2227 31.3444 0.0000 -21181.9914 3335.0850 0.0000 0.0000 1730.1557 -16081.4194 181.6511 -17811.5751 -16075.3482 178.7979 -318.4826 -220.4664 46312.8270 2.6990 3.2374
ENERGY: 165000 0.5839 2.8290 29.4503 0.0000 -21168.3632 3323.8501 0.0000 0.0000 1702.7406 -16108.9092 178.7728 -17811.6498 -16102.9270 179.1956 -519.3004 -444.9164 46713.9214 5.7839 5.8317
ENERGY: 175000 1.0706 3.1018 28.0051 0.0000 -21311.2791 3409.0784 0.0000 0.0000 1718.2195 -16151.8037 180.3980 -17870.0232 -16147.8096 180.6320 -112.7052 -80.8760 46632.4083 0.5617 1.5135
TCL: Running 50000 steps at 210 kelvin.
TCL: Setting parameter langevinTemp to 210
TCL: Running for 50000 steps
ETITLE: TS BOND ANGLE DIHED IMPRP ELECT VDW BOUNDARY MISC KINETIC TOTAL TEMP POTENTIAL TOTAL3 TEMPAVG PRESSURE GPRESSURE VOLUME PRESSAVG GPRESSAVG
ENERGY: 175000 1.0706 3.1018 28.0051 0.0000 -21311.2791 3409.0784 0.0000 0.0000 1717.3774 -16152.6458 180.3095 -17870.0232 -16149.0892 180.3095 -146.2607 -80.7021 46632.4083 -146.2607 -80.7021
ENERGY: 185000 1.8138 5.5325 29.0124 0.0000 -20216.4976 3068.8409 0.0000 0.0000 1945.4204 -15165.8777 204.2520 -17111.2980 -15161.5528 207.5779 -305.5081 -224.5772 46930.8623 3.5667 3.2644
ENERGY: 195000 0.1949 4.1930 29.2340 0.0000 -20159.5872 3071.9973 0.0000 0.0000 1994.3034 -15059.6646 209.3843 -17053.9681 -15055.3476 210.0747 15.1394 76.6862 46915.1788 3.4800 3.2557
ENERGY: 205000 1.0855 4.7624 27.6588 0.0000 -20090.0768 3000.1676 0.0000 0.0000 2016.2136 -15040.1890 211.6847 -17056.4026 -15036.3608 211.0390 -337.8330 -296.7770 47027.9574 4.6880 4.1199
ENERGY: 215000 2.4439 7.9337 27.8628 0.0000 -20203.1316 3050.6523 0.0000 0.0000 2020.5652 -15093.6737 212.1416 -17114.2389 -15088.9639 209.6724 -273.2106 -231.1550 46953.5150 4.3972 4.7528
ENERGY: 225000 1.8311 3.0212 29.8890 0.0000 -20190.2952 3075.6183 0.0000 0.0000 2043.8963 -15036.0393 214.5912 -17079.9356 -15032.0481 211.0109 -137.2430 -74.3875 46869.6153 0.4835 0.7099
TCL: Running 50000 steps at 240 kelvin.
TCL: Setting parameter langevinTemp to 240
TCL: Running for 50000 steps
ETITLE: TS BOND ANGLE DIHED IMPRP ELECT VDW BOUNDARY MISC KINETIC TOTAL TEMP POTENTIAL TOTAL3 TEMPAVG PRESSURE GPRESSURE VOLUME PRESSAVG GPRESSAVG
ENERGY: 225000 1.8311 3.0212 29.8890 0.0000 -20190.2952 3075.6183 0.0000 0.0000 2042.9008 -15037.0349 214.4866 -17079.9356 -15033.3057 214.4866 -161.2080 -74.3591 46869.6153 -161.2080 -74.3591
ENERGY: 235000 2.6806 2.2077 29.7104 0.0000 -19269.6349 2864.3618 0.0000 0.0000 2396.4697 -13974.2046 251.6083 -16370.6743 -13968.8453 241.3497 597.9576 665.8140 46751.3448 6.6767 6.3830
ENERGY: 245000 2.1027 7.8439 27.0751 0.0000 -19065.2104 2708.9776 0.0000 0.0000 2265.5961 -14053.6151 237.8677 -16319.2112 -14050.5188 239.4773 -257.2937 -156.1746 46951.2380 2.4167 1.7364
ENERGY: 255000 1.0379 5.4131 29.5912 0.0000 -19262.9012 2790.7766 0.0000 0.0000 2338.7864 -14097.2960 245.5520 -16436.0824 -14091.7426 239.5374 46.4704 85.5247 46977.4882 0.4281 1.0834
ENERGY: 265000 1.0005 7.2650 26.7576 0.0000 -19339.8140 2904.6010 0.0000 0.0000 2281.1843 -14119.0057 239.5043 -16400.1899 -14114.7963 238.9170 646.7788 740.6886 46805.7603 2.5378 3.4002
ENERGY: 275000 1.3631 6.2046 28.1930 0.0000 -19063.7298 2683.5025 0.0000 0.0000 2330.7097 -14013.7569 244.7040 -16344.4666 -14008.6459 240.8056 -508.3903 -393.7674 47202.1229 3.4294 3.2876
TCL: Running 50000 steps at 270 kelvin.
TCL: Setting parameter langevinTemp to 270
TCL: Running for 50000 steps
ETITLE: TS BOND ANGLE DIHED IMPRP ELECT VDW BOUNDARY MISC KINETIC TOTAL TEMP POTENTIAL TOTAL3 TEMPAVG PRESSURE GPRESSURE VOLUME PRESSAVG GPRESSAVG
ENERGY: 275000 1.3631 6.2046 28.1930 0.0000 -19063.7298 2683.5025 0.0000 0.0000 2329.5382 -14014.9284 244.5810 -16344.4666 -14010.5505 244.5810 -470.1990 -394.2037 47202.1229 -470.1990 -394.2037
ENERGY: 285000 1.9670 4.6043 28.1478 0.0000 -18275.7195 2558.9168 0.0000 0.0000 2536.4846 -13145.5990 266.3086 -15682.0835 -13138.3106 269.8354 -177.0922 -119.2627 48471.2261 2.3742 2.5362
ENERGY: 295000 0.2557 5.6390 28.1771 0.0000 -18220.4388 2534.6926 0.0000 0.0000 2575.1236 -13076.5508 270.3653 -15651.6744 -13067.8116 270.2398 -91.5741 6.7856 48214.7449 5.4996 5.6266
ENERGY: 305000 1.4646 7.5063 29.9116 0.0000 -18230.9543 2513.2043 0.0000 0.0000 2609.0400 -13069.8276 273.9263 -15678.8676 -13064.9280 270.0934 -100.5186 19.5533 47768.3246 6.7099 6.2560
ENERGY: 315000 0.9965 3.7063 28.8045 0.0000 -18274.8321 2573.7678 0.0000 0.0000 2532.5926 -13134.9645 265.9000 -15667.5571 -13132.4310 270.2473 7.2988 47.8750 48672.7056 5.2552 5.3692
ENERGY: 325000 0.9115 5.9232 29.2308 0.0000 -18361.7135 2561.0834 0.0000 0.0000 2584.1513 -13180.4134 271.3132 -15764.5647 -13173.8800 269.6638 35.4436 159.1415 47737.5326 0.8268 1.7862
TCL: Running 1000000 steps at 300 kelvin.
TCL: Setting parameter langevinTemp to 300
TCL: Running for 1000000 steps
ETITLE: TS BOND ANGLE DIHED IMPRP ELECT VDW BOUNDARY MISC KINETIC TOTAL TEMP POTENTIAL TOTAL3 TEMPAVG PRESSURE GPRESSURE VOLUME PRESSAVG GPRESSAVG
ENERGY: 325000 0.9115 5.9232 29.2308 0.0000 -18361.7135 2561.0834 0.0000 0.0000 2582.9058 -13181.6589 271.1824 -15764.5647 -13177.4635 271.1824 73.3979 160.8576 47737.5326 73.3979 160.8576
ENERGY: 525000 0.2469 3.2779 29.6952 0.0000 -17495.6914 2286.2885 0.0000 0.0000 2847.6705 -12328.5123 298.9804 -15176.1829 -12325.0427 297.8022 -410.0557 -365.0175 48956.8933 0.6762 1.4945
ENERGY: 725000 0.8006 5.6164 30.7306 0.0000 -17416.0522 2309.2582 0.0000 0.0000 2867.8811 -12201.7652 301.1023 -15069.6464 -12197.1670 299.1421 -252.1247 -206.4501 49643.5359 1.7567 2.0274
ENERGY: 925000 1.8348 7.0752 31.3008 0.0000 -17414.2425 2337.6942 0.0000 0.0000 2774.7483 -12261.5893 291.3242 -15036.3376 -12258.0411 302.1803 -54.0988 43.9017 49574.6863 4.6854 5.2223
ENERGY: 1125000 1.0322 6.2241 28.3717 0.0000 -17513.1796 2306.8202 0.0000 0.0000 2826.2095 -12344.5219 296.7272 -15170.7314 -12337.9644 298.2538 -413.4224 -323.5202 49230.8945 3.9323 3.9162
ENERGY: 1325000 0.7507 5.2929 29.8732 0.0000 -17451.8896 2372.5684 0.0000 0.0000 2844.6234 -12198.7810 298.6605 -15043.4044 -12193.6536 300.7310 166.0403 240.0046 49427.8471 0.0951 0.3042
TCL: Exiting due to exit command.
