Info: SIMULATION PARAMETERS:
Info: TIMESTEP               2
Info: NUMBER OF STEPS        0
Info: STEPS PER CYCLE        10
Info: PERIODIC CELL BASIS 1  31.9782 0 0
Info: PERIODIC CELL BASIS 2  0 30.8156 0
Info: PERIODIC CELL BASIS 3  0 0 31.7277
Info: PERIODIC CELL CENTER   0 0 0
Info: WRAPPING WATERS AROUND PERIODIC BOUNDARIES ON OUTPUT.
Info: WRAPPING ALL CLUSTERS AROUND PERIODIC BOUNDARIES ON OUTPUT.
Info: FIRST LDB TIMESTEP     50
Info: LAST LDB TIMESTEP     -1
Info: HOM BACKGROUND SCALING 1
Info: PME BACKGROUND SCALING 1
Info: MIN ATOMS PER PATCH    40
Info: EMPTY PATCH LOAD       40 ATOMS
Info: VELOCITY FILE          mobley_6714389_equil.vel
Info: CENTER OF MASS MOVING INITIALLY? NO
Info: DIELECTRIC             1
Info: EXCLUDE                SCALED ONE-FOUR
Info: 1-4 ELECTROSTATICS SCALED BY 0.833333
Info: MODIFIED 1-4 VDW PARAMETERS WILL BE USED
Info: DCD FILENAME           mobley_6714389_prod.dcd
Info: DCD FREQUENCY          100000
Info: DCD FIRST STEP         100000
Info: DCD FILE WILL CONTAIN UNIT CELL DATA
Info: XST FILENAME           mobley_6714389_prod.xst
Info: XST FREQUENCY          100000
Info: NO VELOCITY DCD OUTPUT
Info: NO FORCE DCD OUTPUT
Info: OUTPUT FILENAME        mobley_6714389_prod
Info: BINARY OUTPUT FILES WILL BE USED
Info: RESTART FILENAME       mobley_6714389_prod.restart
Info: RESTART FREQUENCY      100000
Info: BINARY RESTART FILES WILL BE USED
Info: CUTOFF                 9
Info: PAIRLIST DISTANCE      11
Info: PAIRLIST SHRINK RATE   0.01
Info: PAIRLIST GROW RATE     0.01
Info: PAIRLIST TRIGGER       0.3
Info: PAIRLISTS PER CYCLE    2
Info: PAIRLISTS ENABLED
Info: MARGIN                 2
Info: HYDROGEN GROUP CUTOFF  2.5
Info: PATCH DIMENSION        15.5
Info: ENERGY OUTPUT STEPS    100000
Info: ENERGY EVALUATION STEPS    100000
Info: OUTPUT ENERGY PRECISION 4
Info: CROSSTERM ENERGY INCLUDED IN DIHEDRAL
Info: TIMING OUTPUT STEPS    1000000
Info: PRESSURE OUTPUT STEPS  100000
Info: ALCHEMICAL FEP ON
Info: FEP CURRENT LAMBDA VALUE     0
Info: FEP COMPARISON LAMBDA VALUE  0.05
Info: FEP INTRA-ALCHEMICAL NON-BONDED INTERACTIONS WILL BE RETAINED
Info: FEP INTRA-ALCHEMICAL BONDED INTERACTIONS WILL BE RETAINED
Info: FEP VDW SHIFTING COEFFICIENT 5
Info: FEP ELEC. ACTIVE FOR ANNIHILATED PARTICLES BETWEEN LAMBDA = 0 AND LAMBDA = 0.5
Info: FEP ELEC. ACTIVE FOR EXNIHILATED PARTICLES BETWEEN LAMBDA = 0.5 AND LAMBDA = 1
Info: FEP VDW ACTIVE FOR ANNIHILATED PARTICLES BETWEEN LAMBDA = 0 AND LAMBDA = 1
Info: FEP VDW ACTIVE FOR EXNIHILATED PARTICLES BETWEEN LAMBDA = 0 AND LAMBDA = 1
Info: FEP BOND ACTIVE FOR ANNIHILATED PARTICLES BETWEEN LAMBDA = 1 AND LAMBDA = 1
Info: FEP BOND ACTIVE FOR EXNIHILATED PARTICLES BETWEEN LAMBDA = 0 AND LAMBDA = 0
Info: LANGEVIN DYNAMICS ACTIVE
Info: LANGEVIN TEMPERATURE   300
Info: LANGEVIN USING BBK INTEGRATOR
Info: LANGEVIN DAMPING COEFFICIENT IS 1 INVERSE PS
Info: LANGEVIN DYNAMICS APPLIED TO HYDROGENS
Info: LANGEVIN PISTON PRESSURE CONTROL ACTIVE
Info:        TARGET PRESSURE IS 1.01325 BAR
Info:     OSCILLATION PERIOD IS 50 FS
Info:             DECAY TIME IS 25 FS
Info:     PISTON TEMPERATURE IS 300 K
Info:       PRESSURE CONTROL IS GROUP-BASED
Info:    INITIAL STRAIN RATE IS -0.000394661 -0.000394661 -0.000394661
Info:       CELL FLUCTUATION IS ISOTROPIC
Info: PARTICLE MESH EWALD (PME) ACTIVE
Info: PME TOLERANCE               1e-06
Info: PME EWALD COEFFICIENT       0.348832
Info: PME INTERPOLATION ORDER     4
Info: PME GRID DIMENSIONS         32 32 32
Info: PME MAXIMUM GRID SPACING    1
Info: PME CALCULATION WILL BE PERFORMED ON GPU
Info: FULL ELECTROSTATIC EVALUATION FREQUENCY      2
Info: USING VERLET I (r-RESPA) MTS SCHEME.
Info: C1 SPLITTING OF LONG RANGE ELECTROSTATICS
Info: PLACING ATOMS IN PATCHES BY HYDROGEN GROUPS
Info: RIGID BONDS TO HYDROGEN : ALL
Info:         ERROR TOLERANCE : 1e-08
Info:          MAX ITERATIONS : 100
Info: RIGID WATER USING SETTLE ALGORITHM
Info: RANDOM NUMBER SEED     1742471896
Info: USE HYDROGEN BONDS?    NO
Info: Using AMBER format force field!
Info: AMBER PARM FILE        mobley_6714389.prmtop
Info: COORDINATE PDB         mobley_6714389.pdb
Info: Exclusions will be read from PARM file!
Info: SCNB (VDW SCALING)     2
Info: USING ARITHMETIC MEAN TO COMBINE L-J SIGMA PARAMETERS
Info: BINARY COORDINATES     mobley_6714389_equil.coor
Info: SUMMARY OF PARAMETERS:
Info: 5 BONDS
Info: 4 ANGLES
Info:   4 HARMONIC
Info:   0 COSINE-BASED
Info: 1 DIHEDRAL
Info: 0 IMPROPER
Info: 0 CROSSTERM
Info: 0 VDW
Info: 21 VDW_PAIRS
Info: 0 NBTHOLE_PAIRS
Info: To read alchdata from file: mobley_6714389.pdb
Info: To read alchflag data from column: 5
Info: STRUCTURE SUMMARY:
Info: 2995 ATOMS
Info: 2994 BONDS
Info: 9 ANGLES
Info: 6 DIHEDRALS
Info: 0 IMPROPERS
Info: 0 CROSSTERMS
Info: 3009 EXCLUSIONS
Info: 2993 RIGID BONDS
Info: ALCH: 0 ATOMS TO DISAPPEAR IN FINAL STATE
Info: ALCH: 7 ATOMS TO APPEAR IN FINAL STATE
Info: 5992 DEGREES OF FREEDOM
Info: 998 HYDROGEN GROUPS
Info: 4 ATOMS IN LARGEST HYDROGEN GROUP
Info: 998 MIGRATION GROUPS
Info: 4 ATOMS IN LARGEST MIGRATION GROUP
Info: TOTAL MASS = 17975 amu
Info: TOTAL CHARGE = 0.000100093 e
Info: MASS DENSITY = 0.954694 g/cm^3
Info: ATOM DENSITY = 0.0957928 atoms/A^3
Info: ADDED 0 IMPLICIT EXCLUSIONS
Info: NONBONDED TABLE R-SQUARED SPACING: 0.0625
Info: NONBONDED TABLE SIZE: 705 POINTS
Info: REMOVING COM VELOCITY -0.0396627 -0.283698 0.108557
Info: Use 3D box decompostion in PME FFT.
Info: Updated CUDA force table with 4096 elements.
Info: Updated CUDA LJ table with 6 x 6 elements.
Info: Found 10 unique exclusion lists needing 12 bytes
TCL: Running for 1500000 steps
ETITLE: TS BOND ANGLE DIHED IMPRP ELECT VDW BOUNDARY MISC KINETIC TOTAL TEMP POTENTIAL TOTALAVG TEMPAVG PRESSURE GPRESSURE VOLUME PRESSAVG GPRESSAVG
ENERGY: 0 0.5885 2.3508 0.1882 0.0000 -10735.1110 1488.5397 0.0000 0.0000 1752.3197 -7491.1241 294.3282 -9243.4438 -7491.1241 294.3282 260.1996 349.4313 31265.3941 260.1996 349.4313
ENERGY: 300000 0.0003 2.0102 0.7358 0.0000 -10804.6720 1411.4849 0.0000 0.0000 1776.9096 -7613.5312 298.4585 -9390.4407 -7603.1610 295.0917 -318.1233 -287.2605 30662.4483 -127.3230 -84.3520
ENERGY: 600000 0.3944 0.5366 0.0230 0.0000 -10874.4100 1463.2951 0.0000 0.0000 1760.6042 -7649.5567 295.7197 -9410.1609 -7619.7758 296.3720 -41.6887 21.9734 30746.1060 15.2606 66.0657
ENERGY: 900000 0.0099 3.0257 0.1756 0.0000 -10881.9535 1487.5310 0.0000 0.0000 1788.0202 -7603.1910 300.3247 -9391.2112 -7634.5599 297.4977 124.2298 184.0142 31277.1116 -70.0617 -20.5839
ENERGY: 1200000 0.6264 2.5407 0.2456 0.0000 -10857.0124 1412.9200 0.0000 0.0000 1806.2101 -7634.4696 303.3799 -9440.6797 -7630.8077 298.5705 -751.9648 -677.5052 31361.8410 -59.5089 -11.0316
ENERGY: 1500000 0.0000 3.0005 0.3425 0.0000 -11010.8358 1548.4628 0.0000 0.0000 1771.5434 -7687.4866 297.5571 -9459.0300 -7625.9344 298.9007 560.4526 705.5704 30219.0067 5.8340 64.5722
TCL: Running FEP window   2: Lambda1 0.05   Lambda2 0.1    [dLambda 0.05  ]
TCL: Setting parameter firsttimestep to 0
TCL: Setting parameter alchLambda to 0.05
Info: NONBONDED TABLE R-SQUARED SPACING: 0.0625
Info: NONBONDED TABLE SIZE: 705 POINTS
TCL: Setting parameter alchLambda2 to 0.1
Info: NONBONDED TABLE R-SQUARED SPACING: 0.0625
Info: NONBONDED TABLE SIZE: 705 POINTS
TCL: Running for 1500000 steps
ETITLE: TS BOND ANGLE DIHED IMPRP ELECT VDW BOUNDARY MISC KINETIC TOTAL TEMP POTENTIAL TOTALAVG TEMPAVG PRESSURE GPRESSURE VOLUME PRESSAVG GPRESSAVG
ENERGY: 0 0.0000 3.0005 0.3425 0.0000 -11010.8346 1550.2526 0.0000 0.0000 1770.6587 -7686.5801 297.4085 -9457.2389 -7686.5801 297.4085 608.7346 708.9191 30219.0067 608.7346 708.9191
ENERGY: 300000 0.2952 0.6373 0.7050 0.0000 -10851.4328 1471.5061 0.0000 0.0000 1787.5613 -7590.7278 300.2476 -9378.2892 -7622.9756 302.1628 153.6067 173.0154 30868.7006 137.2628 207.0983
ENERGY: 600000 0.0010 2.5760 0.5968 0.0000 -10781.2707 1408.4092 0.0000 0.0000 1810.4868 -7559.2010 304.0983 -9369.6878 -7609.9367 300.2119 -467.9938 -319.1645 30959.1696 34.2701 106.3958
ENERGY: 900000 0.0115 2.0189 0.0822 0.0000 -10991.1241 1512.4559 0.0000 0.0000 1736.9952 -7739.5603 291.7543 -9476.5555 -7618.0658 299.4237 179.6607 227.5385 30545.1273 83.0015 144.4539
ENERGY: 1200000 0.0397 5.2822 0.1724 0.0000 -10795.9614 1423.0578 0.0000 0.0000 1792.6279 -7574.7813 301.0986 -9367.4092 -7614.5419 299.3067 -251.0053 -199.7438 30828.6893 50.0284 113.6819
ENERGY: 1500000 0.2723 1.0567 0.4159 0.0000 -10957.1047 1533.8107 0.0000 0.0000 1745.7634 -7675.7857 293.2270 -9421.5491 -7611.9107 299.6036 435.9831 484.4628 30705.1556 -36.9121 23.6534
TCL: Running FEP window   3: Lambda1 0.1    Lambda2 0.15000000000000002 [dLambda 0.05000000000000002]
TCL: Setting parameter firsttimestep to 0
TCL: Setting parameter alchLambda to 0.1
Info: NONBONDED TABLE R-SQUARED SPACING: 0.0625
Info: NONBONDED TABLE SIZE: 705 POINTS
TCL: Setting parameter alchLambda2 to 0.15000000000000002
Info: NONBONDED TABLE R-SQUARED SPACING: 0.0625
Info: NONBONDED TABLE SIZE: 705 POINTS
TCL: Running for 1500000 steps
ETITLE: TS BOND ANGLE DIHED IMPRP ELECT VDW BOUNDARY MISC KINETIC TOTAL TEMP POTENTIAL TOTALAVG TEMPAVG PRESSURE GPRESSURE VOLUME PRESSAVG GPRESSAVG
ENERGY: 0 0.2723 1.0567 0.4159 0.0000 -10957.1053 1534.4028 0.0000 0.0000 1744.8610 -7676.0965 293.0754 -9420.9575 -7676.0965 293.0754 412.1294 483.6207 30705.1556 412.1294 483.6207
ENERGY: 300000 0.2444 0.7904 0.0633 0.0000 -10801.2505 1439.8404 0.0000 0.0000 1818.6568 -7541.6553 305.4705 -9360.3121 -7607.4196 300.5927 -191.9272 -118.1876 31102.1319 59.1198 164.0739
ENERGY: 600000 0.5490 3.8746 0.1136 0.0000 -10939.3539 1396.3194 0.0000 0.0000 1793.8576 -7744.6397 301.3051 -9538.4973 -7641.7575 299.9974 -819.0297 -770.7702 30552.2073 -235.2244 -153.3459
ENERGY: 900000 0.4060 3.3619 0.8447 0.0000 -10724.4386 1347.5095 0.0000 0.0000 1788.1332 -7584.1833 300.3436 -9372.3165 -7625.1058 299.9805 -844.6401 -759.4833 30768.3559 -316.1853 -234.0555
ENERGY: 1200000 0.0011 2.1492 0.0542 0.0000 -10791.0068 1424.2343 0.0000 0.0000 1811.4465 -7553.1216 304.2595 -9364.5681 -7617.3550 301.0899 -343.5420 -352.9974 31259.2433 -206.0254 -137.7932
ENERGY: 1500000 0.2560 2.9238 0.3755 0.0000 -10814.7298 1408.2937 0.0000 0.0000 1799.1706 -7603.7102 302.1975 -9402.8808 -7621.8929 300.7306 -665.8682 -620.6492 31391.5619 -124.8910 -63.6831
TCL: Running FEP window   4: Lambda1 0.15000000000000002 Lambda2 0.2    [dLambda 0.04999999999999999]
TCL: Setting parameter firsttimestep to 0
TCL: Setting parameter alchLambda to 0.15000000000000002
Info: NONBONDED TABLE R-SQUARED SPACING: 0.0625
Info: NONBONDED TABLE SIZE: 705 POINTS
TCL: Setting parameter alchLambda2 to 0.2
Info: NONBONDED TABLE R-SQUARED SPACING: 0.0625
Info: NONBONDED TABLE SIZE: 705 POINTS
TCL: Running for 1500000 steps
ETITLE: TS BOND ANGLE DIHED IMPRP ELECT VDW BOUNDARY MISC KINETIC TOTAL TEMP POTENTIAL TOTALAVG TEMPAVG PRESSURE GPRESSURE VOLUME PRESSAVG GPRESSAVG
ENERGY: 0 0.2560 2.9238 0.3755 0.0000 -10814.7295 1408.3742 0.0000 0.0000 1798.2929 -7604.5071 302.0501 -9402.8000 -7604.5071 302.0501 -693.4618 -619.5267 31391.5619 -693.4618 -619.5267
ENERGY: 300000 0.9139 2.1780 0.0497 0.0000 -10864.8699 1477.1071 0.0000 0.0000 1753.2724 -7631.3487 294.4883 -9384.6212 -7656.2612 297.0812 -170.8425 -130.7793 31162.0576 72.5721 118.7104
ENERGY: 600000 0.0726 3.6560 0.0875 0.0000 -10932.5641 1517.7967 0.0000 0.0000 1779.1345 -7631.8168 298.8322 -9410.9512 -7640.3150 298.0286 498.2065 523.4732 30587.8827 102.7654 144.1089
ENERGY: 900000 0.0488 1.1251 0.1332 0.0000 -10961.3024 1507.0122 0.0000 0.0000 1806.7885 -7646.1947 303.4771 -9452.9832 -7645.9890 298.7530 381.2364 380.1591 30416.4608 133.8867 177.9028
ENERGY: 1200000 0.0878 1.1761 0.6110 0.0000 -10794.5366 1436.5974 0.0000 0.0000 1758.2834 -7597.7810 295.3299 -9356.0645 -7638.4460 299.1739 -95.7669 -84.5860 31076.3732 113.3003 161.1386
ENERGY: 1500000 0.0032 1.0907 0.1889 0.0000 -10869.4966 1414.1811 0.0000 0.0000 1807.2110 -7646.8217 303.5480 -9454.0327 -7642.0549 299.4629 -762.3157 -701.1657 31183.0196 50.3543 103.9848
TCL: Running FEP window   5: Lambda1 0.2    Lambda2 0.25   [dLambda 0.04999999999999999]
TCL: Setting parameter firsttimestep to 0
TCL: Setting parameter alchLambda to 0.2
Info: NONBONDED TABLE R-SQUARED SPACING: 0.0625
Info: NONBONDED TABLE SIZE: 705 POINTS
TCL: Setting parameter alchLambda2 to 0.25
Info: NONBONDED TABLE R-SQUARED SPACING: 0.0625
Info: NONBONDED TABLE SIZE: 705 POINTS
TCL: Running for 1500000 steps
ETITLE: TS BOND ANGLE DIHED IMPRP ELECT VDW BOUNDARY MISC KINETIC TOTAL TEMP POTENTIAL TOTALAVG TEMPAVG PRESSURE GPRESSURE VOLUME PRESSAVG GPRESSAVG
ENERGY: 0 0.0032 1.0907 0.1889 0.0000 -10869.4945 1414.1129 0.0000 0.0000 1806.3492 -7647.7496 303.4033 -9454.0987 -7647.7496 303.4033 -783.2385 -699.8683 31183.0196 -783.2385 -699.8683
ENERGY: 300000 0.1907 1.8149 0.1431 0.0000 -10749.6693 1404.6512 0.0000 0.0000 1811.4717 -7531.3977 304.2637 -9342.8694 -7587.1842 302.6266 -680.5584 -640.6234 31580.9396 -630.3035 -591.6853
ENERGY: 600000 0.2927 2.0106 0.2954 0.0000 -10913.6524 1460.0658 0.0000 0.0000 1793.0699 -7657.9180 301.1728 -9450.9879 -7609.8715 302.3764 125.9634 183.1437 30226.4213 -476.9317 -436.6673
ENERGY: 900000 0.1535 3.6067 0.1656 0.0000 -10893.5037 1502.5083 0.0000 0.0000 1785.7300 -7601.3395 299.9400 -9387.0696 -7617.7453 300.9060 373.8777 395.1955 30741.9075 -329.9703 -285.4339
ENERGY: 1200000 0.0220 3.5189 0.3795 0.0000 -10861.6403 1441.5065 0.0000 0.0000 1753.9381 -7662.2755 294.6001 -9416.2135 -7612.1838 301.0338 -516.8490 -378.9331 31003.2675 -389.1619 -336.2720
ENERGY: 1500000 0.0306 1.9697 0.1302 0.0000 -10924.0790 1457.9950 0.0000 0.0000 1799.5438 -7664.4097 302.2602 -9463.9534 -7610.1173 300.8866 -62.1026 6.2281 30294.4386 -293.4884 -242.7386
TCL: Running FEP window   6: Lambda1 0.25   Lambda2 0.3    [dLambda 0.04999999999999999]
TCL: Setting parameter firsttimestep to 0
TCL: Setting parameter alchLambda to 0.25
Info: NONBONDED TABLE R-SQUARED SPACING: 0.0625
Info: NONBONDED TABLE SIZE: 705 POINTS
TCL: Setting parameter alchLambda2 to 0.3
Info: NONBONDED TABLE R-SQUARED SPACING: 0.0625
Info: NONBONDED TABLE SIZE: 705 POINTS
TCL: Running for 1500000 steps
ETITLE: TS BOND ANGLE DIHED IMPRP ELECT VDW BOUNDARY MISC KINETIC TOTAL TEMP POTENTIAL TOTALAVG TEMPAVG PRESSURE GPRESSURE VOLUME PRESSAVG GPRESSAVG
ENERGY: 0 0.0306 1.9697 0.1302 0.0000 -10924.0790 1458.7828 0.0000 0.0000 1798.6752 -7664.4905 302.1143 -9463.1656 -7664.4905 302.1143 -70.9106 11.7884 30294.4386 -70.9106 11.7884
ENERGY: 300000 1.5604 3.0160 0.1748 0.0000 -10875.3509 1448.4398 0.0000 0.0000 1752.0013 -7670.1586 294.2748 -9422.1599 -7653.9503 299.7696 -217.4929 -178.6665 30686.4966 59.9888 131.6430
ENERGY: 600000 0.1606 3.1354 1.7015 0.0000 -10892.5875 1466.1320 0.0000 0.0000 1831.7861 -7589.6719 307.6758 -9421.4580 -7616.4537 303.3014 -45.2406 32.9793 30552.3877 61.5848 134.3035
ENERGY: 900000 0.5627 4.9445 0.0605 0.0000 -10839.9198 1405.8353 0.0000 0.0000 1758.5419 -7669.9749 295.3733 -9428.5167 -7621.1618 301.5814 -579.5997 -488.9091 30806.6341 -120.1323 -36.6541
ENERGY: 1200000 0.4046 1.8652 1.0072 0.0000 -10969.1521 1484.5203 0.0000 0.0000 1790.4595 -7690.8954 300.7344 -9481.3548 -7613.2933 302.0039 -87.7005 -13.7496 30536.0053 -149.7475 -65.0531
ENERGY: 1500000 0.0000 2.7497 0.9578 0.0000 -11058.6275 1522.8845 0.0000 0.0000 1777.8344 -7754.2011 298.6138 -9532.0355 -7626.4820 300.9397 164.9419 251.3819 30481.2263 -167.1995 -88.2385
TCL: Running FEP window   7: Lambda1 0.3    Lambda2 0.35   [dLambda 0.04999999999999999]
TCL: Setting parameter firsttimestep to 0
TCL: Setting parameter alchLambda to 0.3
Info: NONBONDED TABLE R-SQUARED SPACING: 0.0625
Info: NONBONDED TABLE SIZE: 705 POINTS
TCL: Setting parameter alchLambda2 to 0.35
Info: NONBONDED TABLE R-SQUARED SPACING: 0.0625
Info: NONBONDED TABLE SIZE: 705 POINTS
TCL: Running for 1500000 steps
ETITLE: TS BOND ANGLE DIHED IMPRP ELECT VDW BOUNDARY MISC KINETIC TOTAL TEMP POTENTIAL TOTALAVG TEMPAVG PRESSURE GPRESSURE VOLUME PRESSAVG GPRESSAVG
ENERGY: 0 0.0000 2.7496 0.9578 0.0000 -11058.6282 1523.4391 0.0000 0.0000 1776.9846 -7754.4971 298.4711 -9531.4816 -7754.4971 298.4711 178.3440 255.8715 30481.2263 178.3440 255.8715
ENERGY: 300000 0.0060 1.2865 0.1000 0.0000 -10871.8776 1455.0522 0.0000 0.0000 1815.2626 -7600.1703 304.9004 -9415.4329 -7622.1877 301.3720 -204.3801 -174.5355 31029.2100 171.7428 221.3621
ENERGY: 600000 0.9322 0.9009 3.4704 0.0000 -10921.4487 1494.3829 0.0000 0.0000 1741.4302 -7680.3320 292.4992 -9421.7622 -7617.3319 299.9769 223.1179 244.8716 30566.3766 345.6881 391.0296
ENERGY: 900000 0.2246 1.8678 1.0552 0.0000 -11027.0101 1583.6235 0.0000 0.0000 1792.6550 -7647.5839 301.1032 -9440.2390 -7612.0122 298.8730 914.7430 988.4421 30385.6955 223.1498 281.2018
ENERGY: 1200000 0.2857 2.6926 0.1253 0.0000 -10854.0915 1455.8640 0.0000 0.0000 1778.1166 -7617.0073 298.6612 -9395.1239 -7609.3127 299.2659 95.9506 135.9241 30437.5087 159.1410 219.1107
ENERGY: 1500000 0.6978 0.9118 0.0799 0.0000 -10865.0933 1508.4727 0.0000 0.0000 1787.0673 -7567.8638 300.1646 -9354.9311 -7608.8332 299.2874 410.9093 459.7057 30861.8349 132.6604 188.5895
TCL: Running FEP window   8: Lambda1 0.35   Lambda2 0.39999999999999997 [dLambda 0.04999999999999999]
TCL: Setting parameter firsttimestep to 0
TCL: Setting parameter alchLambda to 0.35
Info: NONBONDED TABLE R-SQUARED SPACING: 0.0625
Info: NONBONDED TABLE SIZE: 705 POINTS
TCL: Setting parameter alchLambda2 to 0.39999999999999997
Info: NONBONDED TABLE R-SQUARED SPACING: 0.0625
Info: NONBONDED TABLE SIZE: 705 POINTS
TCL: Running for 1500000 steps
ETITLE: TS BOND ANGLE DIHED IMPRP ELECT VDW BOUNDARY MISC KINETIC TOTAL TEMP POTENTIAL TOTALAVG TEMPAVG PRESSURE GPRESSURE VOLUME PRESSAVG GPRESSAVG
ENERGY: 0 0.6978 0.9118 0.0799 0.0000 -10865.0947 1508.4633 0.0000 0.0000 1786.1659 -7568.7761 300.0132 -9354.9420 -7568.7761 300.0132 389.9973 462.1524 30861.8349 389.9973 462.1524
ENERGY: 300000 0.0677 1.8950 0.0711 0.0000 -10898.5877 1509.4419 0.0000 0.0000 1831.7844 -7555.3275 307.6755 -9387.1120 -7591.1784 301.8068 436.0814 493.6807 30729.7470 328.7488 361.1901
ENERGY: 600000 0.2946 4.6190 0.2044 0.0000 -10929.8730 1526.4728 0.0000 0.0000 1818.6342 -7579.6481 305.4667 -9398.2823 -7600.0391 300.7832 588.0488 566.6790 30705.6439 203.0955 229.0136
ENERGY: 900000 0.1881 2.6354 0.0108 0.0000 -10956.5304 1484.4174 0.0000 0.0000 1719.1870 -7750.0918 288.7631 -9469.2787 -7615.2677 298.6514 367.7031 462.2492 29847.4191 247.5136 280.5055
ENERGY: 1200000 0.2523 2.0602 0.5100 0.0000 -10852.6834 1424.2460 0.0000 0.0000 1748.4724 -7677.1426 293.6820 -9425.6150 -7617.9051 298.9738 -508.7766 -465.1095 30972.4314 156.9056 194.0891
ENERGY: 1500000 0.0689 1.3619 1.1001 0.0000 -10910.5887 1477.3404 0.0000 0.0000 1861.7749 -7568.9425 312.7129 -9430.7174 -7619.2566 299.6759 -17.4977 57.4342 30847.0473 89.9846 135.9259
TCL: Running FEP window   9: Lambda1 0.39999999999999997 Lambda2 0.44999999999999996 [dLambda 0.04999999999999999]
TCL: Setting parameter firsttimestep to 0
TCL: Setting parameter alchLambda to 0.39999999999999997
Info: NONBONDED TABLE R-SQUARED SPACING: 0.0625
Info: NONBONDED TABLE SIZE: 705 POINTS
TCL: Setting parameter alchLambda2 to 0.44999999999999996
Info: NONBONDED TABLE R-SQUARED SPACING: 0.0625
Info: NONBONDED TABLE SIZE: 705 POINTS
TCL: Running for 1500000 steps
ETITLE: TS BOND ANGLE DIHED IMPRP ELECT VDW BOUNDARY MISC KINETIC TOTAL TEMP POTENTIAL TOTALAVG TEMPAVG PRESSURE GPRESSURE VOLUME PRESSAVG GPRESSAVG
ENERGY: 0 0.0689 1.3619 1.1001 0.0000 -10910.5872 1477.7330 0.0000 0.0000 1860.9202 -7569.4030 312.5693 -9430.3233 -7569.4030 312.5693 -7.6169 65.0474 30847.0473 -7.6169 65.0474
ENERGY: 300000 0.0531 1.1363 0.0369 0.0000 -10992.1495 1552.5391 0.0000 0.0000 1781.8482 -7656.5359 299.2880 -9438.3842 -7612.0198 301.5451 574.7140 625.9319 30693.8161 348.4432 411.4063
ENERGY: 600000 0.1278 1.6780 0.7875 0.0000 -10821.2703 1504.8526 0.0000 0.0000 1809.1428 -7504.6816 303.8725 -9313.8245 -7586.1700 302.8575 615.6008 708.7504 30460.2755 281.0315 358.6720
ENERGY: 900000 0.0070 1.3091 0.0143 0.0000 -10791.5082 1404.2894 0.0000 0.0000 1788.4003 -7597.4882 300.3885 -9385.8885 -7588.5180 301.5759 -245.5593 -262.5897 30773.4361 262.0712 321.7448
ENERGY: 1200000 0.3861 0.3530 0.9885 0.0000 -10866.5232 1493.9176 0.0000 0.0000 1741.1402 -7629.7377 292.4505 -9370.8780 -7595.3725 300.1776 -64.5106 15.7826 31450.7257 154.3826 216.2660
ENERGY: 1500000 0.2685 3.5621 0.0498 0.0000 -10911.1628 1487.0486 0.0000 0.0000 1800.5684 -7619.6653 302.4323 -9420.2337 -7592.1620 300.7486 193.5163 330.8352 30538.1302 173.7794 240.1053
TCL: Running FEP window  10: Lambda1 0.44999999999999996 Lambda2 0.49999999999999994 [dLambda 0.04999999999999999]
TCL: Setting parameter firsttimestep to 0
TCL: Setting parameter alchLambda to 0.44999999999999996
Info: NONBONDED TABLE R-SQUARED SPACING: 0.0625
Info: NONBONDED TABLE SIZE: 705 POINTS
TCL: Setting parameter alchLambda2 to 0.49999999999999994
Info: NONBONDED TABLE R-SQUARED SPACING: 0.0625
Info: NONBONDED TABLE SIZE: 705 POINTS
TCL: Running for 1500000 steps
ETITLE: TS BOND ANGLE DIHED IMPRP ELECT VDW BOUNDARY MISC KINETIC TOTAL TEMP POTENTIAL TOTALAVG TEMPAVG PRESSURE GPRESSURE VOLUME PRESSAVG GPRESSAVG
ENERGY: 0 0.2685 3.5621 0.0498 0.0000 -10911.1636 1487.2801 0.0000 0.0000 1799.6937 -7620.3094 302.2854 -9420.0031 -7620.3094 302.2854 255.1293 333.6513 30538.1302 255.1293 333.6513
ENERGY: 300000 0.0336 1.9924 0.0594 0.0000 -10966.3764 1467.2057 0.0000 0.0000 1720.6907 -7776.3946 289.0157 -9497.0853 -7643.2058 299.2756 -393.3824 -317.2783 31059.3073 87.1989 153.9944
ENERGY: 600000 0.1001 3.1973 0.3107 0.0000 -10893.6205 1540.0209 0.0000 0.0000 1772.1870 -7577.8045 297.6653 -9349.9915 -7626.6127 298.8403 916.5434 956.9527 30503.7753 114.9274 157.8806
ENERGY: 900000 0.0479 1.9910 0.1019 0.0000 -10886.7509 1532.8992 0.0000 0.0000 1782.0710 -7569.6398 299.3254 -9351.7109 -7607.5553 299.9218 573.4018 653.7058 30673.3248 193.9624 242.0994
ENERGY: 1200000 0.2084 1.8713 0.2138 0.0000 -10956.6251 1528.8738 0.0000 0.0000 1775.4631 -7649.9946 298.2155 -9425.4577 -7618.6206 299.0142 425.5139 509.1090 30693.4840 214.6774 264.0036
ENERGY: 1500000 0.1146 1.0816 0.0264 0.0000 -10921.7367 1479.3640 0.0000 0.0000 1774.5436 -7666.6065 298.0611 -9441.1502 -7619.2083 298.8355 56.7591 132.5455 30725.5398 167.5471 214.4497
TCL: Running FEP window  11: Lambda1 0.49999999999999994 Lambda2 0.5499999999999999 [dLambda 0.04999999999999999]
TCL: Setting parameter firsttimestep to 0
TCL: Setting parameter alchLambda to 0.49999999999999994
Info: NONBONDED TABLE R-SQUARED SPACING: 0.0625
Info: NONBONDED TABLE SIZE: 705 POINTS
TCL: Setting parameter alchLambda2 to 0.5499999999999999
Info: NONBONDED TABLE R-SQUARED SPACING: 0.0625
Info: NONBONDED TABLE SIZE: 705 POINTS
TCL: Running for 1500000 steps
ETITLE: TS BOND ANGLE DIHED IMPRP ELECT VDW BOUNDARY MISC KINETIC TOTAL TEMP POTENTIAL TOTALAVG TEMPAVG PRESSURE GPRESSURE VOLUME PRESSAVG GPRESSAVG
ENERGY: 0 0.1146 1.0816 0.0264 0.0000 -10921.7375 1479.5606 0.0000 0.0000 1773.6321 -7667.3222 297.9080 -9440.9543 -7667.3222 297.9080 40.4865 137.2904 30725.5398 40.4865 137.2904
ENERGY: 300000 0.0296 3.6627 0.3683 0.0000 -10808.0427 1423.3160 0.0000 0.0000 1745.7154 -7634.9506 293.2189 -9380.6660 -7605.6333 296.3599 -388.3198 -340.3058 31090.1845 257.0460 330.9531
ENERGY: 600000 0.0327 3.1089 0.1272 0.0000 -10908.0120 1478.7260 0.0000 0.0000 1786.3588 -7639.6583 300.0456 -9426.0171 -7615.9209 298.3107 -50.8446 8.1414 30793.8062 125.9459 187.8345
ENERGY: 900000 0.0670 4.5201 0.2104 0.0000 -10897.4323 1467.7912 0.0000 0.0000 1740.4509 -7684.3927 292.3347 -9424.8436 -7619.6786 298.2924 139.8955 264.9775 30490.1234 32.7558 106.4125
ENERGY: 1200000 0.0127 1.2810 0.5840 0.0000 -10849.7743 1449.9935 0.0000 0.0000 1850.4736 -7547.4294 310.8146 -9397.9030 -7608.3622 299.4271 -398.4499 -377.3213 31430.1076 0.4074 71.8758
ENERGY: 1500000 0.8308 4.3226 0.3467 0.0000 -10830.8802 1496.3662 0.0000 0.0000 1813.9634 -7515.0505 304.6822 -9329.0139 -7597.9745 300.2126 340.7672 393.7745 30752.1718 -38.4968 34.7825
TCL: Running FEP window  12: Lambda1 0.5499999999999999 Lambda2 0.6    [dLambda 0.050000000000000044]
TCL: Setting parameter firsttimestep to 0
TCL: Setting parameter alchLambda to 0.5499999999999999
Info: NONBONDED TABLE R-SQUARED SPACING: 0.0625
Info: NONBONDED TABLE SIZE: 705 POINTS
TCL: Setting parameter alchLambda2 to 0.6
Info: NONBONDED TABLE R-SQUARED SPACING: 0.0625
Info: NONBONDED TABLE SIZE: 705 POINTS
TCL: Running for 1500000 steps
ETITLE: TS BOND ANGLE DIHED IMPRP ELECT VDW BOUNDARY MISC KINETIC TOTAL TEMP POTENTIAL TOTALAVG TEMPAVG PRESSURE GPRESSURE VOLUME PRESSAVG GPRESSAVG
ENERGY: 0 0.8308 4.3226 0.3467 0.0000 -10830.9780 1496.3861 0.0000 0.0000 1813.0566 -7516.0351 304.5299 -9329.0917 -7516.0351 304.5299 322.8228 393.3328 30752.1718 322.8228 393.3328
ENERGY: 300000 0.5418 5.2737 0.0789 0.0000 -10838.7481 1420.8978 0.0000 0.0000 1789.7885 -7622.1675 300.6217 -9411.9560 -7600.6901 302.9335 -424.3938 -354.5839 31080.7429 -156.1817 -95.7461
ENERGY: 600000 0.0329 1.6192 0.2204 0.0000 -10935.7345 1500.4500 0.0000 0.0000 1857.6498 -7575.7622 312.0200 -9433.4120 -7600.9650 303.4359 268.0914 302.1650 30528.1717 7.9101 56.9904
ENERGY: 900000 0.2668 3.0794 0.3067 0.0000 -10833.2128 1426.7151 0.0000 0.0000 1846.2259 -7556.6189 310.1012 -9402.8449 -7611.1485 302.9862 -96.1682 -48.3293 30582.6012 66.3321 109.7204
ENERGY: 1200000 0.0224 5.3122 0.5043 0.0000 -10770.3308 1381.4531 0.0000 0.0000 1773.1430 -7609.8958 297.8258 -9383.0388 -7610.5821 302.2321 -697.8811 -570.4072 31099.7041 -97.5315 -45.1459
ENERGY: 1500000 0.0023 3.3315 0.8646 0.0000 -10889.2032 1458.2012 0.0000 0.0000 1832.7604 -7594.0432 307.8395 -9426.8036 -7606.9967 302.3716 -228.6707 -142.8723 30978.3087 -140.7381 -86.4249
TCL: Running FEP window  13: Lambda1 0.6    Lambda2 0.65   [dLambda 0.050000000000000044]
TCL: Setting parameter firsttimestep to 0
TCL: Setting parameter alchLambda to 0.6
Info: NONBONDED TABLE R-SQUARED SPACING: 0.0625
Info: NONBONDED TABLE SIZE: 705 POINTS
TCL: Setting parameter alchLambda2 to 0.65
Info: NONBONDED TABLE R-SQUARED SPACING: 0.0625
Info: NONBONDED TABLE SIZE: 705 POINTS
TCL: Running for 1500000 steps
ETITLE: TS BOND ANGLE DIHED IMPRP ELECT VDW BOUNDARY MISC KINETIC TOTAL TEMP POTENTIAL TOTALAVG TEMPAVG PRESSURE GPRESSURE VOLUME PRESSAVG GPRESSAVG
ENERGY: 0 0.0023 3.3315 0.8646 0.0000 -10889.7057 1458.5812 0.0000 0.0000 1831.8439 -7595.0823 307.6855 -9426.9261 -7595.0823 307.6855 -207.7032 -136.4729 30978.3087 -207.7032 -136.4729
ENERGY: 300000 0.2517 2.5034 0.1048 0.0000 -10778.9864 1370.3197 0.0000 0.0000 1806.4117 -7599.3950 303.4138 -9405.8067 -7622.8082 303.2514 -727.5042 -718.4143 30958.4555 -311.8853 -248.7452
ENERGY: 600000 2.2403 3.6118 0.4265 0.0000 -10856.7640 1434.0589 0.0000 0.0000 1820.8729 -7595.5535 305.8428 -9416.4264 -7604.8478 303.1623 -396.3414 -346.8937 31038.6378 -255.1558 -191.2346
ENERGY: 900000 0.0906 3.2818 0.6033 0.0000 -10873.8689 1539.7965 0.0000 0.0000 1753.9548 -7576.1419 294.6029 -9330.0967 -7610.8828 302.0089 912.0973 977.4450 30442.6177 -55.9740 9.5964
ENERGY: 1200000 0.5362 3.5760 0.2293 0.0000 -10938.7372 1521.2685 0.0000 0.0000 1749.8622 -7663.2650 293.9155 -9413.1272 -7613.5759 300.6548 382.1862 438.7080 30838.1992 -22.1792 34.1790
ENERGY: 1500000 0.6171 2.3159 0.1389 0.0000 -10881.9491 1476.8989 0.0000 0.0000 1732.9827 -7668.9956 291.0803 -9401.9783 -7613.3883 299.9278 98.3492 168.8299 30678.1433 -17.8240 36.3792
TCL: Running FEP window  14: Lambda1 0.65   Lambda2 0.7000000000000001 [dLambda 0.050000000000000044]
TCL: Setting parameter firsttimestep to 0
TCL: Setting parameter alchLambda to 0.65
Info: NONBONDED TABLE R-SQUARED SPACING: 0.0625
Info: NONBONDED TABLE SIZE: 705 POINTS
TCL: Setting parameter alchLambda2 to 0.7000000000000001
Info: NONBONDED TABLE R-SQUARED SPACING: 0.0625
Info: NONBONDED TABLE SIZE: 705 POINTS
TCL: Running for 1500000 steps
ETITLE: TS BOND ANGLE DIHED IMPRP ELECT VDW BOUNDARY MISC KINETIC TOTAL TEMP POTENTIAL TOTALAVG TEMPAVG PRESSURE GPRESSURE VOLUME PRESSAVG GPRESSAVG
ENERGY: 0 0.6171 2.3159 0.1389 0.0000 -10881.0542 1476.8035 0.0000 0.0000 1732.0812 -7669.0976 290.9289 -9401.1789 -7669.0976 290.9289 92.8937 172.9425 30678.1433 92.8937 172.9425
ENERGY: 300000 0.0003 0.7383 0.1914 0.0000 -10820.5834 1428.7138 0.0000 0.0000 1753.6956 -7637.2440 294.5593 -9390.9396 -7621.5866 296.8661 -245.7805 -212.3684 30802.6596 -139.5305 -90.7837
ENERGY: 600000 0.0279 3.1645 0.8319 0.0000 -10835.5633 1424.0130 0.0000 0.0000 1749.7013 -7657.8247 293.8884 -9407.5260 -7637.1942 297.3087 -235.5886 -195.2012 30719.6349 -125.4230 -65.6129
ENERGY: 900000 0.5052 1.8731 1.3260 0.0000 -10940.6046 1510.0423 0.0000 0.0000 1771.2606 -7655.5974 297.5096 -9426.8580 -7634.8554 296.5806 360.4305 445.6485 30508.9716 -95.3118 -31.5054
ENERGY: 1200000 0.2442 0.9600 0.7608 0.0000 -10935.8011 1415.0218 0.0000 0.0000 1822.7841 -7696.0301 306.1638 -9518.8143 -7633.9358 298.3516 -747.1299 -652.5599 30877.7692 -149.8005 -84.7744
ENERGY: 1500000 1.4557 2.5235 0.6987 0.0000 -10969.5207 1486.6498 0.0000 0.0000 1787.5312 -7690.6617 300.2425 -9478.1929 -7625.9479 299.7746 -293.3285 -188.2826 31005.0336 -59.4110 8.9720
TCL: Running FEP window  15: Lambda1 0.7000000000000001 Lambda2 0.7500000000000001 [dLambda 0.050000000000000044]
TCL: Setting parameter firsttimestep to 0
TCL: Setting parameter alchLambda to 0.7000000000000001
Info: NONBONDED TABLE R-SQUARED SPACING: 0.0625
Info: NONBONDED TABLE SIZE: 705 POINTS
TCL: Setting parameter alchLambda2 to 0.7500000000000001
Info: NONBONDED TABLE R-SQUARED SPACING: 0.0625
Info: NONBONDED TABLE SIZE: 705 POINTS
TCL: Running for 1500000 steps
ETITLE: TS BOND ANGLE DIHED IMPRP ELECT VDW BOUNDARY MISC KINETIC TOTAL TEMP POTENTIAL TOTALAVG TEMPAVG PRESSURE GPRESSURE VOLUME PRESSAVG GPRESSAVG
ENERGY: 0 1.4557 2.5235 0.6987 0.0000 -10970.0846 1486.7664 0.0000 0.0000 1786.6550 -7691.9852 300.0954 -9478.6402 -7691.9852 300.0954 -262.5391 -186.0173 31005.0336 -262.5391 -186.0173
ENERGY: 300000 0.2973 3.3863 0.4430 0.0000 -10860.4988 1489.1361 0.0000 0.0000 1795.3833 -7571.8528 301.5614 -9367.2361 -7628.0131 300.6818 195.5910 306.9479 30923.0639 55.2452 125.8093
ENERGY: 600000 0.0414 3.7889 0.1353 0.0000 -10857.1196 1473.8174 0.0000 0.0000 1837.6902 -7541.6464 308.6675 -9379.3366 -7618.9050 301.3717 137.9471 195.8305 31012.3893 -24.9331 40.2878
ENERGY: 900000 0.1439 3.5507 0.3621 0.0000 -10831.8158 1453.9118 0.0000 0.0000 1787.8902 -7585.9569 300.3028 -9373.8472 -7612.2022 301.0953 365.3058 367.0245 30291.4862 20.8682 78.1080
ENERGY: 1200000 0.0284 2.5928 0.0446 0.0000 -10868.6267 1525.9006 0.0000 0.0000 1811.1216 -7528.9387 304.2049 -9340.0604 -7604.7314 301.9264 604.7047 695.9031 30780.5101 40.8885 102.5696
ENERGY: 1500000 0.0395 0.8616 0.1316 0.0000 -10947.8035 1514.5724 0.0000 0.0000 1830.9737 -7601.2247 307.5393 -9432.1984 -7605.9720 302.5840 296.8218 350.2127 30707.6030 56.8566 122.3317
TCL: Running FEP window  16: Lambda1 0.7500000000000001 Lambda2 0.8000000000000002 [dLambda 0.050000000000000044]
TCL: Setting parameter firsttimestep to 0
TCL: Setting parameter alchLambda to 0.7500000000000001
Info: NONBONDED TABLE R-SQUARED SPACING: 0.0625
Info: NONBONDED TABLE SIZE: 705 POINTS
TCL: Setting parameter alchLambda2 to 0.8000000000000002
Info: NONBONDED TABLE R-SQUARED SPACING: 0.0625
Info: NONBONDED TABLE SIZE: 705 POINTS
TCL: Running for 1500000 steps
ETITLE: TS BOND ANGLE DIHED IMPRP ELECT VDW BOUNDARY MISC KINETIC TOTAL TEMP POTENTIAL TOTALAVG TEMPAVG PRESSURE GPRESSURE VOLUME PRESSAVG GPRESSAVG
ENERGY: 0 0.0395 0.8616 0.1316 0.0000 -10948.5159 1514.8093 0.0000 0.0000 1830.0558 -7602.6180 307.3852 -9432.6738 -7602.6180 307.3852 275.4481 355.1173 30707.6030 275.4481 355.1173
ENERGY: 300000 0.5712 2.7080 0.8601 0.0000 -10872.1293 1417.1710 0.0000 0.0000 1719.9452 -7730.8737 288.8905 -9450.8190 -7669.0679 298.5742 -611.2876 -503.0570 30664.5272 109.2309 180.7070
ENERGY: 600000 0.0088 1.4205 0.0418 0.0000 -10783.2738 1402.1855 0.0000 0.0000 1788.6870 -7590.9302 300.4367 -9379.6172 -7630.8058 300.0718 -472.6244 -463.5919 31102.4648 -79.0851 -19.4235
ENERGY: 900000 0.2255 3.0446 0.3687 0.0000 -10922.6464 1490.3180 0.0000 0.0000 1785.8179 -7642.8717 299.9548 -9428.6896 -7629.8471 301.1611 189.0139 246.9130 30769.0865 44.2552 101.9798
ENERGY: 1200000 0.0156 1.0845 0.0811 0.0000 -10832.2372 1424.6935 0.0000 0.0000 1800.1210 -7606.2416 302.3572 -9406.3626 -7625.9375 301.5937 -99.1573 -69.1529 30562.6001 -5.9531 51.9929
ENERGY: 1500000 0.0017 1.1076 0.2079 0.0000 -10878.1569 1420.0910 0.0000 0.0000 1796.7779 -7659.9709 301.7956 -9456.7487 -7624.5243 301.9162 -570.5106 -527.4874 31141.5345 67.2416 115.6709
TCL: Running FEP window  17: Lambda1 0.8000000000000002 Lambda2 0.8500000000000002 [dLambda 0.050000000000000044]
TCL: Setting parameter firsttimestep to 0
TCL: Setting parameter alchLambda to 0.8000000000000002
Info: NONBONDED TABLE R-SQUARED SPACING: 0.0625
Info: NONBONDED TABLE SIZE: 705 POINTS
TCL: Setting parameter alchLambda2 to 0.8500000000000002
Info: NONBONDED TABLE R-SQUARED SPACING: 0.0625
Info: NONBONDED TABLE SIZE: 705 POINTS
TCL: Running for 1500000 steps
ETITLE: TS BOND ANGLE DIHED IMPRP ELECT VDW BOUNDARY MISC KINETIC TOTAL TEMP POTENTIAL TOTALAVG TEMPAVG PRESSURE GPRESSURE VOLUME PRESSAVG GPRESSAVG
ENERGY: 0 0.0017 1.1076 0.2079 0.0000 -10879.6996 1421.0934 0.0000 0.0000 1795.8691 -7661.4199 301.6430 -9457.2890 -7661.4199 301.6430 -594.9958 -519.9139 31141.5345 -594.9958 -519.9139
ENERGY: 300000 0.0000 1.1916 2.8543 0.0000 -10933.7821 1505.8765 0.0000 0.0000 1793.7619 -7630.0977 301.2891 -9423.8597 -7660.9945 298.9105 284.7496 365.4277 30807.9848 115.9633 210.8002
ENERGY: 600000 0.0010 2.6472 0.2651 0.0000 -10917.3798 1450.7323 0.0000 0.0000 1813.5749 -7650.1592 304.6170 -9463.7341 -7665.7591 299.1411 -286.8570 -187.8764 30670.8823 38.7333 119.5976
ENERGY: 900000 0.0428 1.0697 0.3188 0.0000 -10767.3424 1394.5032 0.0000 0.0000 1748.8934 -7622.5145 293.7527 -9371.4079 -7644.5800 299.3581 -717.5788 -653.0031 31263.5755 -52.0786 15.3766
ENERGY: 1200000 0.2256 1.8443 0.8310 0.0000 -10763.5935 1388.1983 0.0000 0.0000 1781.6736 -7590.8207 299.2587 -9372.4942 -7623.7091 299.8988 -494.3396 -400.5642 30707.2021 -12.5460 58.3173
ENERGY: 1500000 0.2036 1.8850 2.0216 0.0000 -10868.2933 1469.3775 0.0000 0.0000 1764.1062 -7630.6994 296.3080 -9394.8057 -7623.1915 300.1537 30.5999 25.9863 31049.8881 13.2742 76.6593
TCL: Running FEP window  18: Lambda1 0.8500000000000002 Lambda2 0.9000000000000002 [dLambda 0.050000000000000044]
TCL: Setting parameter firsttimestep to 0
TCL: Setting parameter alchLambda to 0.8500000000000002
Info: NONBONDED TABLE R-SQUARED SPACING: 0.0625
Info: NONBONDED TABLE SIZE: 705 POINTS
TCL: Setting parameter alchLambda2 to 0.9000000000000002
Info: NONBONDED TABLE R-SQUARED SPACING: 0.0625
Info: NONBONDED TABLE SIZE: 705 POINTS
TCL: Running for 1500000 steps
ETITLE: TS BOND ANGLE DIHED IMPRP ELECT VDW BOUNDARY MISC KINETIC TOTAL TEMP POTENTIAL TOTALAVG TEMPAVG PRESSURE GPRESSURE VOLUME PRESSAVG GPRESSAVG
ENERGY: 0 0.2036 1.8850 2.0216 0.0000 -10869.9215 1469.8957 0.0000 0.0000 1763.2100 -7632.7056 296.1574 -9395.9156 -7632.7056 296.1574 -61.0631 29.0966 31049.8881 -61.0631 29.0966
ENERGY: 300000 0.0855 6.5961 0.5213 0.0000 -10900.8167 1449.1482 0.0000 0.0000 1775.6527 -7668.8129 298.2474 -9444.4656 -7636.6766 295.8152 -492.5150 -399.9121 31459.3939 -488.4278 -416.1357
ENERGY: 600000 0.5431 1.4607 1.0736 0.0000 -10896.3829 1424.1240 0.0000 0.0000 1778.2938 -7690.8877 298.6910 -9469.1815 -7636.1358 296.6798 -429.9033 -319.0780 30751.7108 -265.0317 -198.3074
ENERGY: 900000 0.3229 2.8247 0.1823 0.0000 -11009.3593 1535.1050 0.0000 0.0000 1855.1175 -7615.8070 311.5947 -9470.9245 -7630.3814 299.4431 567.1310 622.3725 30458.4225 -159.5564 -100.0577
ENERGY: 1200000 0.0963 2.1775 0.0369 0.0000 -10785.9687 1385.1412 0.0000 0.0000 1815.5250 -7582.9919 304.9445 -9398.5168 -7627.9190 300.5506 -417.3270 -325.1958 30465.5245 -181.1836 -117.4409
ENERGY: 1500000 0.1407 1.5005 0.1645 0.0000 -10908.5671 1518.1115 0.0000 0.0000 1841.2367 -7547.4132 309.2632 -9388.6499 -7617.1938 301.5435 302.4890 395.8365 31117.1886 -190.1737 -124.3237
TCL: Running FEP window  19: Lambda1 0.9000000000000002 Lambda2 0.9500000000000003 [dLambda 0.050000000000000044]
TCL: Setting parameter firsttimestep to 0
TCL: Setting parameter alchLambda to 0.9000000000000002
Info: NONBONDED TABLE R-SQUARED SPACING: 0.0625
Info: NONBONDED TABLE SIZE: 705 POINTS
TCL: Setting parameter alchLambda2 to 0.9500000000000003
Info: NONBONDED TABLE R-SQUARED SPACING: 0.0625
Info: NONBONDED TABLE SIZE: 705 POINTS
TCL: Running for 1500000 steps
ETITLE: TS BOND ANGLE DIHED IMPRP ELECT VDW BOUNDARY MISC KINETIC TOTAL TEMP POTENTIAL TOTALAVG TEMPAVG PRESSURE GPRESSURE VOLUME PRESSAVG GPRESSAVG
ENERGY: 0 0.1407 1.5005 0.1645 0.0000 -10910.1762 1518.9458 0.0000 0.0000 1840.3723 -7549.0525 309.1180 -9389.4247 -7549.0525 309.1180 320.0686 404.6389 31117.1886 320.0686 404.6389
ENERGY: 300000 0.0245 3.4474 0.4485 0.0000 -10895.7627 1498.9350 0.0000 0.0000 1813.8326 -7579.0747 304.6602 -9392.9073 -7592.8862 306.2805 440.0471 528.4002 30792.8857 390.4116 468.8880
ENERGY: 600000 0.8051 4.6627 0.1725 0.0000 -10789.2853 1419.7330 0.0000 0.0000 1763.5471 -7600.3650 296.2140 -9363.9121 -7593.1473 303.4743 -107.9145 -20.9045 30513.3729 285.8850 360.0025
ENERGY: 900000 0.2373 1.6890 0.6026 0.0000 -10951.7041 1532.0630 0.0000 0.0000 1819.5347 -7597.5775 305.6180 -9417.1121 -7602.2171 302.0591 414.0349 500.9515 30925.6475 247.8172 327.7222
ENERGY: 1200000 0.8073 3.7168 0.4606 0.0000 -10737.1944 1386.4757 0.0000 0.0000 1813.8739 -7531.8601 304.6672 -9345.7340 -7598.7505 302.2301 -213.7660 -138.3242 30683.9176 92.3109 162.1359
ENERGY: 1500000 0.1282 2.7452 0.8195 0.0000 -11016.0268 1480.7784 0.0000 0.0000 1827.5825 -7703.9730 306.9697 -9531.5555 -7609.3052 302.2370 -155.8691 -123.7689 30706.7856 76.6724 144.2541
TCL: Running FEP window  20: Lambda1 0.9500000000000003 Lambda2 1.0    [dLambda 0.04999999999999971]
TCL: Setting parameter firsttimestep to 0
TCL: Setting parameter alchLambda to 0.9500000000000003
Info: NONBONDED TABLE R-SQUARED SPACING: 0.0625
Info: NONBONDED TABLE SIZE: 705 POINTS
TCL: Setting parameter alchLambda2 to 1.0
Info: NONBONDED TABLE R-SQUARED SPACING: 0.0625
Info: NONBONDED TABLE SIZE: 705 POINTS
TCL: Running for 1500000 steps
ETITLE: TS BOND ANGLE DIHED IMPRP ELECT VDW BOUNDARY MISC KINETIC TOTAL TEMP POTENTIAL TOTALAVG TEMPAVG PRESSURE GPRESSURE VOLUME PRESSAVG GPRESSAVG
ENERGY: 0 0.1282 2.7452 0.8195 0.0000 -11017.5746 1482.1645 0.0000 0.0000 1826.7064 -7705.0107 306.8226 -9531.7171 -7705.0107 306.8226 -172.4905 -102.2792 30706.7856 -172.4905 -102.2792
ENERGY: 300000 0.6655 4.8235 0.7829 0.0000 -10804.1740 1421.9739 0.0000 0.0000 1818.6129 -7557.3153 305.4632 -9375.9282 -7646.8459 301.0736 -66.7623 -57.4451 30564.6873 91.3564 150.5660
ENERGY: 600000 0.1649 4.4005 0.1543 0.0000 -10908.4549 1491.1677 0.0000 0.0000 1796.8849 -7615.6825 301.8136 -9412.5674 -7649.9232 300.8821 283.2806 303.0389 30963.9243 119.6555 183.6931
ENERGY: 900000 0.2712 2.6647 0.4427 0.0000 -10926.9690 1492.7353 0.0000 0.0000 1772.8645 -7657.9907 297.7790 -9430.8552 -7643.6560 301.0498 275.3848 338.4363 30425.0288 119.1828 182.2764
ENERGY: 1200000 0.8111 5.2922 0.4004 0.0000 -11013.0162 1526.4122 0.0000 0.0000 1756.6286 -7723.4717 295.0520 -9480.1003 -7651.8606 300.6880 412.8476 529.0303 30194.6037 96.3262 169.5216
ENERGY: 1500000 0.3888 1.7751 1.6690 0.0000 -10960.2817 1563.0258 0.0000 0.0000 1745.3150 -7648.1080 293.1517 -9393.4230 -7662.5739 298.9589 812.5295 820.4370 30910.2261 172.2250 235.9276
TCL: Exiting due to exit command.
