Info: SIMULATION PARAMETERS:
Info: TIMESTEP               2
Info: NUMBER OF STEPS        0
Info: STEPS PER CYCLE        10
Info: PERIODIC CELL BASIS 1  80.7627 0 0
Info: PERIODIC CELL BASIS 2  0 80.7627 0
Info: PERIODIC CELL BASIS 3  0 0 80.7627
Info: PERIODIC CELL CENTER   41.843 41.843 41.843
Info: WRAPPING ALL CLUSTERS AROUND PERIODIC BOUNDARIES ON OUTPUT.
Info: FIRST LDB TIMESTEP     50
Info: LAST LDB TIMESTEP     -1
Info: HOM BACKGROUND SCALING 1
Info: PME BACKGROUND SCALING 1
Info: MIN ATOMS PER PATCH    40
Info: EMPTY PATCH LOAD       40 ATOMS
Info: VELOCITY FILE          mobley_1502181_equilibrated.vel
Info: CENTER OF MASS MOVING INITIALLY? NO
Info: DIELECTRIC             1
Info: EXCLUDE                SCALED ONE-FOUR
Info: 1-4 ELECTROSTATICS SCALED BY 1
Info: MODIFIED 1-4 VDW PARAMETERS WILL BE USED
Info: DCD FILENAME           mobley_1502181_backwards.dcd
Info: DCD FREQUENCY          500
Info: DCD FIRST STEP         500
Info: DCD FILE WILL CONTAIN UNIT CELL DATA
Info: NO EXTENDED SYSTEM TRAJECTORY OUTPUT
Info: NO VELOCITY DCD OUTPUT
Info: NO FORCE DCD OUTPUT
Info: OUTPUT FILENAME        mobley_1502181_backwards
Info: BINARY OUTPUT FILES WILL BE USED
Info: NO RESTART FILE
Info: SWITCHING ACTIVE
Info: SWITCHING ON           10
Info: SWITCHING OFF          12
Info: PAIRLIST DISTANCE      14
Info: PAIRLIST SHRINK RATE   0.01
Info: PAIRLIST GROW RATE     0.01
Info: PAIRLIST TRIGGER       0.3
Info: PAIRLISTS PER CYCLE    2
Info: PAIRLISTS ENABLED
Info: MARGIN                 8
Info: HYDROGEN GROUP CUTOFF  2.5
Info: PATCH DIMENSION        24.5
Info: ENERGY OUTPUT STEPS    500
Info: ENERGY EVALUATION STEPS    500
Info: OUTPUT ENERGY PRECISION 4
Info: CROSSTERM ENERGY INCLUDED IN DIHEDRAL
Info: TIMING OUTPUT STEPS    500
Info: PRESSURE OUTPUT STEPS  500
Info: ALCHEMICAL FEP ON
Info: FEP CURRENT LAMBDA VALUE     1
Info: FEP COMPARISON LAMBDA VALUE  0.9375
Info: FEP INTRA-ALCHEMICAL NON-BONDED INTERACTIONS WILL BE DECOUPLED
Info: FEP INTRA-ALCHEMICAL BONDED INTERACTIONS WILL BE RETAINED
Info: FEP VDW SHIFTING COEFFICIENT 6
Info: FEP ELEC. ACTIVE FOR ANNIHILATED PARTICLES BETWEEN LAMBDA = 0 AND LAMBDA = 0.5
Info: FEP ELEC. ACTIVE FOR EXNIHILATED PARTICLES BETWEEN LAMBDA = 0.5 AND LAMBDA = 1
Info: FEP VDW ACTIVE FOR ANNIHILATED PARTICLES BETWEEN LAMBDA = 0 AND LAMBDA = 1
Info: FEP VDW ACTIVE FOR EXNIHILATED PARTICLES BETWEEN LAMBDA = 0 AND LAMBDA = 1
Info: FEP BOND ACTIVE FOR ANNIHILATED PARTICLES BETWEEN LAMBDA = 1 AND LAMBDA = 1
Info: FEP BOND ACTIVE FOR EXNIHILATED PARTICLES BETWEEN LAMBDA = 0 AND LAMBDA = 0
Info: LANGEVIN DYNAMICS ACTIVE
Info: LANGEVIN TEMPERATURE   298
Info: LANGEVIN USING BBK INTEGRATOR
Info: LANGEVIN DAMPING COEFFICIENT IS 1 INVERSE PS
Info: LANGEVIN DYNAMICS NOT APPLIED TO HYDROGENS
Info: LANGEVIN PISTON PRESSURE CONTROL ACTIVE
Info:        TARGET PRESSURE IS 1.01325 BAR
Info:     OSCILLATION PERIOD IS 100 FS
Info:             DECAY TIME IS 50 FS
Info:     PISTON TEMPERATURE IS 298 K
Info:       PRESSURE CONTROL IS GROUP-BASED
Info:    INITIAL STRAIN RATE IS 1.4401e-05 1.4401e-05 1.4401e-05
Info:       CELL FLUCTUATION IS ISOTROPIC
Info: PARTICLE MESH EWALD (PME) ACTIVE
Info: PME TOLERANCE               1e-05
Info: PME EWALD COEFFICIENT       0.226635
Info: PME INTERPOLATION ORDER     4
Info: PME GRID DIMENSIONS         84 84 84
Info: PME MAXIMUM GRID SPACING    1
Info: FULL ELECTROSTATIC EVALUATION FREQUENCY      1
Info: USING VERLET I (r-RESPA) MTS SCHEME.
Info: C1 SPLITTING OF LONG RANGE ELECTROSTATICS
Info: PLACING ATOMS IN PATCHES BY HYDROGEN GROUPS
Info: RIGID BONDS TO HYDROGEN : ALL
Info:         ERROR TOLERANCE : 1e-08
Info:          MAX ITERATIONS : 100
Info: RIGID WATER USING SETTLE ALGORITHM
Info: RANDOM NUMBER SEED     1740634533
Info: USE HYDROGEN BONDS?    NO
Info: COORDINATE PDB         mobley_1502181.pdb
Info: STRUCTURE FILE         mobley_1502181.psf
Info: PARAMETER file: CHARMM format!
Info: PARAMETERS             ../common/par_all27_prot_lipid.inp
Info: PARAMETERS             mobley_1502181.prm
Info: USING ARITHMETIC MEAN TO COMBINE L-J SIGMA PARAMETERS
Info: BINARY COORDINATES     mobley_1502181_equilibrated.coor
Info: SUMMARY OF PARAMETERS:
Info: 184 BONDS
Info: 454 ANGLES
Info: 578 DIHEDRAL
Info: 47 IMPROPER
Info: 6 CROSSTERM
Info: 123 VDW
Info: 0 VDW_PAIRS
Info: 0 NBTHOLE_PAIRS
Info: To read alchdata from file: mobley_1502181.pdb
Info: To read alchflag data from column: 5
Info: STRUCTURE SUMMARY:
Info: 7222 ATOMS
Info: 4823 BONDS
Info: 2449 ANGLES
Info: 66 DIHEDRALS
Info: 1 IMPROPERS
Info: 0 CROSSTERMS
Info: 0 EXCLUSIONS
Info: 7212 RIGID BONDS
Info: ALCH: 0 ATOMS TO DISAPPEAR IN FINAL STATE
Info: ALCH: 28 ATOMS TO APPEAR IN FINAL STATE
Info: 14454 DEGREES OF FREEDOM
Info: 2408 HYDROGEN GROUPS
Info: 4 ATOMS IN LARGEST HYDROGEN GROUP
Info: 2408 MIGRATION GROUPS
Info: 4 ATOMS IN LARGEST MIGRATION GROUP
Info: TOTAL MASS = 43343.2 amu
Info: TOTAL CHARGE = 7.45058e-09 e
Info: MASS DENSITY = 0.136631 g/cm^3
Info: ATOM DENSITY = 0.0137096 atoms/A^3
Info: ADDED 7338 IMPLICIT EXCLUSIONS
Info: NONBONDED TABLE R-SQUARED SPACING: 0.0625
Info: NONBONDED TABLE SIZE: 769 POINTS
Info: REMOVING COM VELOCITY 0.106708 -0.0426321 -0.0644563
TCL: Running for 5000 steps
ETITLE: TS BOND ANGLE DIHED IMPRP ELECT VDW BOUNDARY MISC KINETIC TOTAL TEMP POTENTIAL TOTAL3 TEMPAVG PRESSURE GPRESSURE VOLUME PRESSAVG GPRESSAVG
ENERGY: 0 3.0614 13.7956 7.2375 0.2106 -25203.8996 2557.6022 0.0000 0.0000 4268.6498 -18353.3425 297.2301 -22621.9923 -18345.0867 297.2301 -51.9899 -51.8645 526783.0647 -51.9899 -51.8645
ENERGY: 1000 4.4081 11.7239 5.6753 0.0047 -25019.1005 2595.3806 0.0000 0.0000 4217.3782 -18184.5298 293.6601 -22401.9079 -18175.2319 295.3487 -19.7884 -18.6288 552530.0920 1.2898 1.2762
ENERGY: 2000 1.9800 8.7431 6.0758 0.1664 -25210.2290 2719.9260 0.0000 0.0000 4301.4463 -18171.8914 299.5138 -22473.3377 -18165.2745 296.4059 69.8369 70.5375 554912.2768 0.9325 0.9211
ENERGY: 3000 4.7177 8.7770 6.6090 0.0769 -25082.8429 2650.5157 0.0000 0.0000 4206.4078 -18205.7389 292.8962 -22412.1467 -18195.5122 294.7610 4.9704 4.2399 567536.1032 0.2187 0.2595
ENERGY: 4000 2.7558 12.4603 7.3569 0.0035 -25037.1977 2580.1279 0.0000 0.0000 4301.5368 -18132.9564 299.5201 -22434.4932 -18125.3672 295.1146 -41.2209 -40.7567 573195.2647 0.5914 0.6334
ENERGY: 5000 2.1879 11.5704 7.5138 0.0000 -24996.0248 2644.5271 0.0000 0.0000 4308.3730 -18021.8526 299.9961 -22330.2256 -18012.7087 300.0784 45.6122 45.7437 536734.9781 1.6873 1.7349
TCL: Running FEP window   2: Lambda1 0.9375 Lambda2 0.875  [dLambda -0.0625]
TCL: Setting parameter firsttimestep to 0
TCL: Setting parameter alchLambda to 0.9375
Info: NONBONDED TABLE R-SQUARED SPACING: 0.0625
Info: NONBONDED TABLE SIZE: 769 POINTS
TCL: Setting parameter alchLambda2 to 0.875
Info: NONBONDED TABLE R-SQUARED SPACING: 0.0625
Info: NONBONDED TABLE SIZE: 769 POINTS
TCL: Running for 5000 steps
ETITLE: TS BOND ANGLE DIHED IMPRP ELECT VDW BOUNDARY MISC KINETIC TOTAL TEMP POTENTIAL TOTAL3 TEMPAVG PRESSURE GPRESSURE VOLUME PRESSAVG GPRESSAVG
ENERGY: 0 2.1879 11.5704 7.5138 0.0000 -24992.1855 2641.2872 0.0000 0.0000 4308.2422 -18021.3840 299.9870 -22329.6262 -18013.4112 299.9870 42.0413 41.9175 536734.9781 42.0413 41.9175
ENERGY: 1000 3.2591 13.6385 5.7685 0.0529 -24907.2429 2502.3811 0.0000 0.0000 4261.1048 -18121.0380 296.7048 -22382.1428 -18112.6837 296.4438 -37.6038 -37.1112 519494.2999 0.3027 0.3204
ENERGY: 2000 5.8005 12.8811 7.0817 0.0092 -25151.6720 2727.8050 0.0000 0.0000 4251.6072 -18146.4874 296.0435 -22398.0946 -18139.1630 296.8340 57.3859 57.8764 504706.2808 -0.3932 -0.3920
ENERGY: 3000 4.1793 14.8593 6.9864 0.1711 -25068.2260 2651.9889 0.0000 0.0000 4298.4611 -18091.5799 299.3059 -22390.0411 -18083.2475 297.7458 20.0409 19.6707 492465.5825 0.2348 0.2006
ENERGY: 4000 4.4142 10.8066 7.7697 0.3343 -25057.6120 2651.6131 0.0000 0.0000 4253.9945 -18128.6796 296.2097 -22382.6741 -18121.1093 297.3295 19.3326 19.3874 501968.4882 1.1760 1.1561
ENERGY: 5000 2.6457 13.5700 8.8774 0.0234 -25152.1097 2615.5128 0.0000 0.0000 4210.9675 -18300.5129 293.2137 -22511.4803 -18291.1330 295.4617 0.7372 0.2793 496497.9400 2.3791 2.3655
TCL: Running FEP window   3: Lambda1 0.875  Lambda2 0.8125 [dLambda -0.0625]
TCL: Setting parameter firsttimestep to 0
TCL: Setting parameter alchLambda to 0.875
Info: NONBONDED TABLE R-SQUARED SPACING: 0.0625
Info: NONBONDED TABLE SIZE: 769 POINTS
TCL: Setting parameter alchLambda2 to 0.8125
Info: NONBONDED TABLE R-SQUARED SPACING: 0.0625
Info: NONBONDED TABLE SIZE: 769 POINTS
TCL: Running for 5000 steps
ETITLE: TS BOND ANGLE DIHED IMPRP ELECT VDW BOUNDARY MISC KINETIC TOTAL TEMP POTENTIAL TOTAL3 TEMPAVG PRESSURE GPRESSURE VOLUME PRESSAVG GPRESSAVG
ENERGY: 0 2.6457 13.5700 8.8774 0.0234 -25148.6346 2614.2439 0.0000 0.0000 4210.8405 -18298.4338 293.2048 -22509.2742 -18290.6469 293.2048 -1.8277 -1.8177 496497.9400 -1.8277 -1.8177
ENERGY: 1000 1.5208 11.7999 7.0275 0.2196 -25053.9369 2537.1260 0.0000 0.0000 4218.5871 -18277.6560 293.7442 -22496.2431 -18267.2866 293.9578 -51.4621 -50.6045 492280.6791 1.5643 1.5828
ENERGY: 2000 2.8744 20.6345 7.2667 0.6474 -25028.4819 2533.7761 0.0000 0.0000 4221.7893 -18241.4936 293.9672 -22463.2829 -18233.5203 291.7549 -48.4239 -48.1883 482840.1340 3.0419 3.0692
ENERGY: 3000 5.6975 14.4040 6.0005 0.1330 -24962.4227 2505.0626 0.0000 0.0000 4236.4314 -18194.6937 294.9868 -22431.1251 -18184.8350 297.2791 -50.6162 -50.6206 487294.5922 2.7622 2.7218
ENERGY: 4000 2.8435 16.4033 6.0508 0.1058 -25151.8759 2674.5192 0.0000 0.0000 4279.9574 -18171.9959 298.0175 -22451.9533 -18165.2443 297.3718 46.7608 47.2989 491300.1411 1.9994 2.0107
ENERGY: 5000 2.9002 11.1930 7.9443 0.0001 -25078.2399 2581.8006 0.0000 0.0000 4280.7237 -18193.6780 298.0709 -22474.4017 -18183.5321 299.1108 -25.0062 -25.2797 495144.4484 3.0018 3.0332
TCL: Running FEP window   4: Lambda1 0.8125 Lambda2 0.75   [dLambda -0.0625]
TCL: Setting parameter firsttimestep to 0
TCL: Setting parameter alchLambda to 0.8125
Info: NONBONDED TABLE R-SQUARED SPACING: 0.0625
Info: NONBONDED TABLE SIZE: 769 POINTS
TCL: Setting parameter alchLambda2 to 0.75
Info: NONBONDED TABLE R-SQUARED SPACING: 0.0625
Info: NONBONDED TABLE SIZE: 769 POINTS
TCL: Running for 5000 steps
ETITLE: TS BOND ANGLE DIHED IMPRP ELECT VDW BOUNDARY MISC KINETIC TOTAL TEMP POTENTIAL TOTAL3 TEMPAVG PRESSURE GPRESSURE VOLUME PRESSAVG GPRESSAVG
ENERGY: 0 2.9002 11.1930 7.9443 0.0001 -25074.8570 2580.5748 0.0000 0.0000 4280.5863 -18191.6583 298.0613 -22472.2446 -18183.6768 298.0613 -27.6541 -27.5866 495144.4484 -27.6541 -27.5866
ENERGY: 1000 2.6396 8.8231 8.2520 0.0169 -24882.1341 2489.8881 0.0000 0.0000 4268.7578 -18103.7567 297.2377 -22372.5146 -18093.7378 298.4438 -43.9921 -43.7269 497342.9285 1.5465 1.5697
ENERGY: 2000 2.3846 13.3069 6.3938 0.0234 -24946.9962 2504.1611 0.0000 0.0000 4270.5831 -18150.1432 297.3648 -22420.7263 -18143.0783 298.1265 -59.3023 -59.9700 494252.6284 1.7645 1.7436
ENERGY: 3000 2.7431 9.6360 6.8135 0.0002 -24886.8762 2523.8644 0.0000 0.0000 4238.3417 -18105.4772 295.1198 -22343.8190 -18097.6014 297.3402 -18.5801 -18.4702 489512.8109 0.8022 0.8253
ENERGY: 4000 1.1355 13.5402 7.6178 0.0557 -24900.3470 2539.8111 0.0000 0.0000 4239.4480 -18098.7387 295.1968 -22338.1866 -18090.8088 299.6960 -14.6822 -14.5856 491186.1902 -0.0277 -0.0048
ENERGY: 5000 7.3607 9.6978 7.2457 0.1776 -24911.1803 2474.5830 0.0000 0.0000 4228.6047 -18183.5107 294.4418 -22412.1154 -18175.6241 297.5875 -69.3174 -68.8452 491093.9330 0.6442 0.6606
TCL: Running FEP window   5: Lambda1 0.75   Lambda2 0.6875 [dLambda -0.0625]
TCL: Setting parameter firsttimestep to 0
TCL: Setting parameter alchLambda to 0.75
Info: NONBONDED TABLE R-SQUARED SPACING: 0.0625
Info: NONBONDED TABLE SIZE: 769 POINTS
TCL: Setting parameter alchLambda2 to 0.6875
Info: NONBONDED TABLE R-SQUARED SPACING: 0.0625
Info: NONBONDED TABLE SIZE: 769 POINTS
TCL: Running for 5000 steps
ETITLE: TS BOND ANGLE DIHED IMPRP ELECT VDW BOUNDARY MISC KINETIC TOTAL TEMP POTENTIAL TOTAL3 TEMPAVG PRESSURE GPRESSURE VOLUME PRESSAVG GPRESSAVG
ENERGY: 0 7.3607 9.6978 7.2457 0.1776 -24906.5097 2474.2766 0.0000 0.0000 4228.4754 -18179.2758 294.4328 -22407.7512 -18171.2247 294.4328 -70.0104 -70.0617 491093.9330 -70.0104 -70.0617
ENERGY: 1000 1.0081 7.0033 8.3575 0.1830 -25134.9610 2634.8988 0.0000 0.0000 4239.2007 -18244.3096 295.1796 -22483.5103 -18235.1460 294.2570 -5.9910 -7.1588 487661.7548 0.7793 0.7716
ENERGY: 2000 4.1433 11.2582 5.9203 0.0003 -25097.5351 2682.0973 0.0000 0.0000 4208.2682 -18185.8475 293.0257 -22394.1157 -18179.5466 296.6345 27.8411 27.2765 487462.2423 3.1472 3.2225
ENERGY: 3000 1.9837 13.7617 6.7953 0.4241 -25037.6040 2668.5811 0.0000 0.0000 4247.0327 -18099.0254 295.7249 -22346.0581 -18090.4689 299.0676 79.9925 80.1563 471696.9111 1.9481 1.9335
ENERGY: 4000 6.3293 10.9373 8.4638 0.0145 -25125.0638 2687.7058 0.0000 0.0000 4227.7678 -18183.8453 294.3835 -22411.6131 -18175.7334 297.3009 49.2104 49.0932 483175.0881 2.4859 2.4433
ENERGY: 5000 1.5402 12.0794 7.6037 0.1043 -25260.1028 2686.4269 0.0000 0.0000 4324.7315 -18227.6168 301.1352 -22552.3484 -18216.8136 295.5070 31.0847 31.9545 486702.3347 0.3259 0.2868
TCL: Running FEP window   6: Lambda1 0.6875 Lambda2 0.625  [dLambda -0.0625]
TCL: Setting parameter firsttimestep to 0
TCL: Setting parameter alchLambda to 0.6875
Info: NONBONDED TABLE R-SQUARED SPACING: 0.0625
Info: NONBONDED TABLE SIZE: 769 POINTS
TCL: Setting parameter alchLambda2 to 0.625
Info: NONBONDED TABLE R-SQUARED SPACING: 0.0625
Info: NONBONDED TABLE SIZE: 769 POINTS
TCL: Running for 5000 steps
ETITLE: TS BOND ANGLE DIHED IMPRP ELECT VDW BOUNDARY MISC KINETIC TOTAL TEMP POTENTIAL TOTAL3 TEMPAVG PRESSURE GPRESSURE VOLUME PRESSAVG GPRESSAVG
ENERGY: 0 1.5402 12.0794 7.6037 0.1043 -25257.0310 2686.1314 0.0000 0.0000 4324.5982 -18224.9738 301.1259 -22549.5720 -18217.2031 301.1259 31.0676 30.8595 486702.3347 31.0676 30.8595
ENERGY: 1000 2.0015 9.2070 6.4667 0.1771 -24985.0275 2540.5221 0.0000 0.0000 4215.7459 -18210.9072 293.5464 -22426.6531 -18203.3674 295.9498 -50.2522 -51.0782 484797.6146 3.2835 3.2458
ENERGY: 2000 1.9125 13.8100 8.5411 0.4231 -25095.9573 2671.9899 0.0000 0.0000 4260.5778 -18138.7029 296.6681 -22399.2807 -18129.6572 295.5177 58.3685 57.4912 469158.5075 0.7609 0.7683
ENERGY: 3000 0.9066 12.2116 6.8632 0.3393 -24948.1612 2558.5221 0.0000 0.0000 4270.0456 -18099.2728 297.3273 -22369.3184 -18090.2069 297.5595 -10.4670 -9.4485 472023.2942 3.6169 3.5924
ENERGY: 4000 2.9684 9.7104 9.5418 0.0001 -25058.5864 2585.9008 0.0000 0.0000 4390.2404 -18060.2245 305.6966 -22450.4649 -18052.2729 300.0810 2.3025 0.5150 463506.8823 1.4313 1.4417
ENERGY: 5000 4.8239 18.0220 7.4154 0.1618 -24897.4201 2527.8751 0.0000 0.0000 4186.1443 -18152.9777 291.4852 -22339.1220 -18144.6336 296.4088 -58.8538 -59.7408 473608.7101 3.5885 3.5968
TCL: Running FEP window   7: Lambda1 0.625  Lambda2 0.5625 [dLambda -0.0625]
TCL: Setting parameter firsttimestep to 0
TCL: Setting parameter alchLambda to 0.625
Info: NONBONDED TABLE R-SQUARED SPACING: 0.0625
Info: NONBONDED TABLE SIZE: 769 POINTS
TCL: Setting parameter alchLambda2 to 0.5625
Info: NONBONDED TABLE R-SQUARED SPACING: 0.0625
Info: NONBONDED TABLE SIZE: 769 POINTS
TCL: Running for 5000 steps
ETITLE: TS BOND ANGLE DIHED IMPRP ELECT VDW BOUNDARY MISC KINETIC TOTAL TEMP POTENTIAL TOTAL3 TEMPAVG PRESSURE GPRESSURE VOLUME PRESSAVG GPRESSAVG
ENERGY: 0 4.8239 18.0220 7.4154 0.1618 -24894.5268 2527.5775 0.0000 0.0000 4186.0082 -18150.5180 291.4757 -22336.5262 -18141.9097 291.4757 -60.6326 -61.1133 473608.7101 -60.6326 -61.1133
ENERGY: 1000 2.4112 15.7288 10.0990 0.0637 -24980.4939 2595.4339 0.0000 0.0000 4223.0593 -18133.6981 294.0556 -22356.7574 -18121.2159 297.1139 -4.4072 -4.1668 471893.5766 -1.7424 -1.6851
ENERGY: 2000 5.7442 18.1968 5.9783 0.3212 -25110.7603 2574.7771 0.0000 0.0000 4335.8586 -18169.8841 301.9100 -22505.7427 -18161.7388 297.8131 -33.7797 -34.5491 473741.9391 1.4195 1.4100
ENERGY: 3000 1.4534 16.9121 7.6042 0.1952 -25112.2565 2580.5567 0.0000 0.0000 4307.2381 -18198.2967 299.9171 -22505.5348 -18190.0436 296.4525 -10.0579 -11.2711 462788.0475 0.4787 0.4514
ENERGY: 4000 5.3453 16.8633 8.8751 0.0557 -24979.9285 2558.9559 0.0000 0.0000 4241.0989 -18148.7342 295.3118 -22389.8331 -18143.3485 297.4252 -40.1592 -39.4737 469494.5669 0.4405 0.4935
ENERGY: 5000 2.0168 12.9838 7.4198 0.0347 -24845.4520 2472.8579 0.0000 0.0000 4243.5411 -18106.5979 295.4818 -22350.1391 -18098.1781 296.8461 -90.0830 -89.6570 474780.1190 -0.0612 -0.0727
TCL: Running FEP window   8: Lambda1 0.5625 Lambda2 0.5    [dLambda -0.0625]
TCL: Setting parameter firsttimestep to 0
TCL: Setting parameter alchLambda to 0.5625
Info: NONBONDED TABLE R-SQUARED SPACING: 0.0625
Info: NONBONDED TABLE SIZE: 769 POINTS
TCL: Setting parameter alchLambda2 to 0.5
Info: NONBONDED TABLE R-SQUARED SPACING: 0.0625
Info: NONBONDED TABLE SIZE: 769 POINTS
TCL: Running for 5000 steps
ETITLE: TS BOND ANGLE DIHED IMPRP ELECT VDW BOUNDARY MISC KINETIC TOTAL TEMP POTENTIAL TOTAL3 TEMPAVG PRESSURE GPRESSURE VOLUME PRESSAVG GPRESSAVG
ENERGY: 0 2.0168 12.9838 7.4198 0.0347 -24842.6159 2473.0082 0.0000 0.0000 4243.4126 -18103.7401 295.4729 -22347.1527 -18095.4781 295.4729 -90.5842 -90.4876 474780.1190 -90.5842 -90.4876
ENERGY: 1000 0.9950 11.8679 9.7883 0.0370 -24938.8162 2520.1363 0.0000 0.0000 4265.8154 -18130.1762 297.0328 -22395.9917 -18122.3221 296.8344 -46.2119 -46.2497 465488.7745 0.8258 0.8223
ENERGY: 2000 2.5462 9.4391 9.3430 0.0284 -25118.1108 2704.9759 0.0000 0.0000 4190.3553 -18201.4228 291.7784 -22391.7781 -18192.7892 297.5038 64.8081 65.8574 472257.3071 -0.2151 -0.1952
ENERGY: 3000 3.0149 10.9791 6.1917 0.0144 -25051.0516 2593.4931 0.0000 0.0000 4258.1612 -18179.1973 296.4998 -22437.3584 -18172.1806 297.2449 -13.7630 -13.0105 483443.2081 2.7685 2.7788
ENERGY: 4000 2.5363 15.9864 5.5779 0.5126 -25063.4379 2619.6410 0.0000 0.0000 4269.3687 -18149.8150 297.2802 -22419.1837 -18140.5597 295.0958 15.5451 16.7054 480268.0099 -3.0270 -3.0609
ENERGY: 5000 1.8050 11.2565 6.9281 0.0352 -25293.4212 2743.9778 0.0000 0.0000 4209.7895 -18319.6290 293.1316 -22529.4185 -18310.7985 294.0959 58.4060 57.7403 478562.8011 -0.8702 -0.8987
TCL: Running FEP window   9: Lambda1 0.5    Lambda2 0.4375 [dLambda -0.0625]
TCL: Setting parameter firsttimestep to 0
TCL: Setting parameter alchLambda to 0.5
Info: NONBONDED TABLE R-SQUARED SPACING: 0.0625
Info: NONBONDED TABLE SIZE: 769 POINTS
TCL: Setting parameter alchLambda2 to 0.4375
Info: NONBONDED TABLE R-SQUARED SPACING: 0.0625
Info: NONBONDED TABLE SIZE: 769 POINTS
TCL: Running for 5000 steps
ETITLE: TS BOND ANGLE DIHED IMPRP ELECT VDW BOUNDARY MISC KINETIC TOTAL TEMP POTENTIAL TOTAL3 TEMPAVG PRESSURE GPRESSURE VOLUME PRESSAVG GPRESSAVG
ENERGY: 0 1.8050 11.2565 6.9281 0.0352 -25290.7579 2744.5178 0.0000 0.0000 4209.6614 -18316.5538 293.1227 -22526.2152 -18308.9022 293.1227 57.0935 57.0822 478562.8011 57.0935 57.0822
ENERGY: 1000 2.8849 11.6756 8.6526 0.0263 -25205.7348 2683.5985 0.0000 0.0000 4261.9208 -18236.9761 296.7616 -22498.8969 -18230.8607 297.3591 46.3152 45.3913 484400.7206 1.0351 1.0796
ENERGY: 2000 3.8517 9.0717 6.5615 0.3609 -25046.4665 2553.5026 0.0000 0.0000 4254.4504 -18218.6678 296.2414 -22473.1182 -18210.4954 294.6390 -39.5394 -40.7444 499418.6375 0.7500 0.7541
ENERGY: 3000 2.7152 9.0106 9.1005 0.3052 -25068.3880 2643.3114 0.0000 0.0000 4224.2270 -18179.7180 294.1370 -22403.9451 -18173.5566 294.9019 13.7560 14.3314 497594.5531 0.0678 0.0743
ENERGY: 4000 1.6212 11.4597 7.3109 0.3691 -25195.1210 2679.0986 0.0000 0.0000 4339.6832 -18155.5783 302.1763 -22495.2615 -18147.7875 297.1097 40.9449 41.2929 496110.6728 1.9634 1.9145
ENERGY: 5000 3.3788 14.8913 8.2219 0.6356 -25041.3720 2555.1280 0.0000 0.0000 4283.8414 -18175.2751 298.2880 -22459.1165 -18164.0214 295.4613 -42.1554 -43.1871 501964.4154 3.8799 3.8722
TCL: Running FEP window  10: Lambda1 0.4375 Lambda2 0.375  [dLambda -0.0625]
TCL: Setting parameter firsttimestep to 0
TCL: Setting parameter alchLambda to 0.4375
Info: NONBONDED TABLE R-SQUARED SPACING: 0.0625
Info: NONBONDED TABLE SIZE: 769 POINTS
TCL: Setting parameter alchLambda2 to 0.375
Info: NONBONDED TABLE R-SQUARED SPACING: 0.0625
Info: NONBONDED TABLE SIZE: 769 POINTS
TCL: Running for 5000 steps
ETITLE: TS BOND ANGLE DIHED IMPRP ELECT VDW BOUNDARY MISC KINETIC TOTAL TEMP POTENTIAL TOTAL3 TEMPAVG PRESSURE GPRESSURE VOLUME PRESSAVG GPRESSAVG
ENERGY: 0 3.3788 14.8913 8.2219 0.6356 -25041.3720 2556.0352 0.0000 0.0000 4283.7035 -18174.5058 298.2784 -22458.2092 -18166.8536 298.2784 -42.8498 -43.3362 501964.4154 -42.8498 -43.3362
ENERGY: 1000 2.6676 9.7767 10.1985 0.0615 -25094.8893 2656.6741 0.0000 0.0000 4226.1953 -18189.3157 294.2740 -22415.5110 -18182.0106 296.0615 30.2778 29.9943 507678.9573 2.0308 2.0225
ENERGY: 2000 1.9668 12.6887 7.8906 0.0544 -25080.1572 2654.3942 0.0000 0.0000 4177.2844 -18225.8781 290.8683 -22403.1625 -18217.3967 295.5358 40.7007 41.1741 503931.8532 1.1148 1.1265
ENERGY: 3000 3.3684 12.8077 8.9820 0.1988 -25133.9742 2610.9866 0.0000 0.0000 4270.6007 -18227.0299 297.3660 -22497.6306 -18217.1085 295.5902 -7.7733 -8.3823 486971.0858 0.8502 0.8878
ENERGY: 4000 3.4066 15.8756 7.1790 0.0999 -25040.0795 2645.7076 0.0000 0.0000 4264.3969 -18103.4139 296.9340 -22367.8108 -18094.3585 295.7247 33.3452 34.7088 483773.2307 3.4611 3.4463
ENERGY: 5000 5.3564 17.9126 6.3652 0.0107 -25015.4844 2563.4246 0.0000 0.0000 4325.5553 -18096.8596 301.1925 -22422.4149 -18091.0829 300.6478 -26.8559 -26.8777 478262.0935 1.2434 1.2102
TCL: Running FEP window  11: Lambda1 0.375  Lambda2 0.3125 [dLambda -0.0625]
TCL: Setting parameter firsttimestep to 0
TCL: Setting parameter alchLambda to 0.375
Info: NONBONDED TABLE R-SQUARED SPACING: 0.0625
Info: NONBONDED TABLE SIZE: 769 POINTS
TCL: Setting parameter alchLambda2 to 0.3125
Info: NONBONDED TABLE R-SQUARED SPACING: 0.0625
Info: NONBONDED TABLE SIZE: 769 POINTS
TCL: Running for 5000 steps
ETITLE: TS BOND ANGLE DIHED IMPRP ELECT VDW BOUNDARY MISC KINETIC TOTAL TEMP POTENTIAL TOTAL3 TEMPAVG PRESSURE GPRESSURE VOLUME PRESSAVG GPRESSAVG
ENERGY: 0 5.3564 17.9126 6.3652 0.0107 -25015.4844 2564.1422 0.0000 0.0000 4325.4271 -18096.2702 301.1836 -22421.6973 -18087.3535 301.1836 -27.7345 -27.5942 478262.0935 -27.7345 -27.5942
ENERGY: 1000 2.3218 11.7864 6.5180 0.0053 -25001.4796 2608.0507 0.0000 0.0000 4317.1229 -18055.6744 300.6054 -22372.7974 -18045.1071 299.4713 -20.6160 -20.6215 487524.5614 3.0233 2.9660
ENERGY: 2000 7.2266 11.2978 7.2825 0.1281 -24913.5713 2538.9086 0.0000 0.0000 4256.2942 -18092.4335 296.3698 -22348.7277 -18082.5514 297.9758 -22.6704 -24.5670 486705.9396 0.2861 0.2907
ENERGY: 3000 2.4616 8.5122 10.0817 0.0018 -25004.4206 2586.9373 0.0000 0.0000 4250.6853 -18145.7407 295.9793 -22396.4260 -18137.2396 298.5614 -15.9814 -15.0948 478668.5812 3.3429 3.3438
ENERGY: 4000 3.2494 13.2463 9.6290 0.0944 -25128.5688 2665.0238 0.0000 0.0000 4294.0536 -18143.2723 298.9990 -22437.3259 -18135.7554 294.8727 24.6907 24.7939 480487.0659 5.8599 5.8884
ENERGY: 5000 2.1112 12.8824 7.6196 0.1729 -24983.2104 2581.2871 0.0000 0.0000 4288.1317 -18091.0056 298.5867 -22379.1373 -18082.8631 299.2136 0.0513 0.7702 488087.0851 3.1078 3.1248
TCL: Running FEP window  12: Lambda1 0.3125 Lambda2 0.25   [dLambda -0.0625]
TCL: Setting parameter firsttimestep to 0
TCL: Setting parameter alchLambda to 0.3125
Info: NONBONDED TABLE R-SQUARED SPACING: 0.0625
Info: NONBONDED TABLE SIZE: 769 POINTS
TCL: Setting parameter alchLambda2 to 0.25
Info: NONBONDED TABLE R-SQUARED SPACING: 0.0625
Info: NONBONDED TABLE SIZE: 769 POINTS
TCL: Running for 5000 steps
ETITLE: TS BOND ANGLE DIHED IMPRP ELECT VDW BOUNDARY MISC KINETIC TOTAL TEMP POTENTIAL TOTAL3 TEMPAVG PRESSURE GPRESSURE VOLUME PRESSAVG GPRESSAVG
ENERGY: 0 2.1112 12.8824 7.6196 0.1729 -24983.2104 2579.5823 0.0000 0.0000 4288.0015 -18092.8405 298.5776 -22380.8421 -18084.6736 298.5776 -0.3715 -0.4680 488087.0851 -0.3715 -0.4680
ENERGY: 1000 4.3960 12.6088 10.8214 0.0348 -24945.9163 2534.8076 0.0000 0.0000 4303.3170 -18079.9307 299.6441 -22383.2477 -18073.9317 297.4162 -65.7059 -66.2807 502209.0720 0.7865 0.7361
ENERGY: 2000 5.5600 13.9422 9.1373 0.4740 -25129.5183 2713.9837 0.0000 0.0000 4317.2134 -18069.2077 300.6117 -22386.4211 -18062.5767 297.3594 48.4867 47.3552 502198.9551 1.8272 1.8833
ENERGY: 3000 4.6017 14.8583 7.3560 0.0020 -25297.2933 2827.9057 0.0000 0.0000 4261.0505 -18181.5192 296.7010 -22442.5696 -18173.5450 296.2301 123.5325 122.6788 482542.6754 1.0801 1.0830
ENERGY: 4000 2.3889 10.9960 9.7473 0.2574 -25014.5390 2633.1426 0.0000 0.0000 4274.6400 -18083.3668 297.6473 -22358.0068 -18072.2454 297.7970 21.8439 20.4251 493184.7110 -0.0061 0.0253
ENERGY: 5000 4.0755 9.0933 7.5860 0.4038 -24917.4984 2654.9236 0.0000 0.0000 4244.6734 -17996.7429 295.5606 -22241.4162 -17988.6330 299.5332 49.2448 49.0657 489150.4081 0.0149 0.0260
TCL: Running FEP window  13: Lambda1 0.25   Lambda2 0.1875 [dLambda -0.0625]
TCL: Setting parameter firsttimestep to 0
TCL: Setting parameter alchLambda to 0.25
Info: NONBONDED TABLE R-SQUARED SPACING: 0.0625
Info: NONBONDED TABLE SIZE: 769 POINTS
TCL: Setting parameter alchLambda2 to 0.1875
Info: NONBONDED TABLE R-SQUARED SPACING: 0.0625
Info: NONBONDED TABLE SIZE: 769 POINTS
TCL: Running for 5000 steps
ETITLE: TS BOND ANGLE DIHED IMPRP ELECT VDW BOUNDARY MISC KINETIC TOTAL TEMP POTENTIAL TOTAL3 TEMPAVG PRESSURE GPRESSURE VOLUME PRESSAVG GPRESSAVG
ENERGY: 0 4.0755 9.0933 7.5860 0.4038 -24917.4984 2655.2430 0.0000 0.0000 4244.5406 -17996.5562 295.5514 -22241.0968 -17988.0424 295.5514 48.3651 48.5731 489150.4081 48.3651 48.5731
ENERGY: 1000 2.2218 11.7176 5.8575 0.0000 -24834.9823 2546.3396 0.0000 0.0000 4266.9939 -18001.8520 297.1148 -22268.8458 -17995.0042 300.5983 -27.1613 -26.7374 483324.5493 2.3157 2.2906
ENERGY: 2000 6.7307 13.7218 9.0795 0.0050 -25029.3805 2623.4661 0.0000 0.0000 4301.7083 -18074.6691 299.5320 -22376.3774 -18066.4172 296.6555 1.3749 0.5974 479147.6486 1.3778 1.4124
ENERGY: 3000 2.9162 14.5355 7.9526 0.0737 -24964.0324 2643.9556 0.0000 0.0000 4200.6803 -18093.9186 292.4974 -22294.5989 -18087.4446 298.0900 29.5970 29.5905 474649.9057 0.9508 0.9594
ENERGY: 4000 1.9384 7.5630 8.2376 0.1412 -25117.1068 2630.9219 0.0000 0.0000 4237.1849 -18231.1199 295.0392 -22468.3047 -18222.7090 294.9057 9.4073 8.7903 480247.1777 -0.0082 0.0423
ENERGY: 5000 1.2418 11.9055 6.2693 0.0546 -25110.9265 2633.0695 0.0000 0.0000 4220.4021 -18237.9837 293.8706 -22458.3857 -18231.3358 294.8479 -13.8030 -13.7104 482005.0657 1.8415 1.9272
TCL: Running FEP window  14: Lambda1 0.1875 Lambda2 0.125  [dLambda -0.0625]
TCL: Setting parameter firsttimestep to 0
TCL: Setting parameter alchLambda to 0.1875
Info: NONBONDED TABLE R-SQUARED SPACING: 0.0625
Info: NONBONDED TABLE SIZE: 769 POINTS
TCL: Setting parameter alchLambda2 to 0.125
Info: NONBONDED TABLE R-SQUARED SPACING: 0.0625
Info: NONBONDED TABLE SIZE: 769 POINTS
TCL: Running for 5000 steps
ETITLE: TS BOND ANGLE DIHED IMPRP ELECT VDW BOUNDARY MISC KINETIC TOTAL TEMP POTENTIAL TOTAL3 TEMPAVG PRESSURE GPRESSURE VOLUME PRESSAVG GPRESSAVG
ENERGY: 0 1.2418 11.9055 6.2693 0.0546 -25110.9265 2632.6834 0.0000 0.0000 4220.2677 -18238.5041 293.8613 -22458.7718 -18230.3267 293.8613 -13.9967 -14.3712 482005.0657 -13.9967 -14.3712
ENERGY: 1000 2.5653 9.8717 8.2024 0.1821 -25010.2320 2570.2066 0.0000 0.0000 4260.4193 -18158.7846 296.6571 -22419.2040 -18152.6988 296.5316 -14.1880 -12.4045 473861.8068 2.1812 2.1881
ENERGY: 2000 1.6754 14.3677 8.0315 0.3041 -24912.1244 2592.4539 0.0000 0.0000 4218.3408 -18076.9510 293.7271 -22295.2918 -18069.7475 297.7918 -7.3416 -8.1425 482757.5537 0.2971 0.3129
ENERGY: 3000 4.0319 18.7497 9.0495 0.0994 -24904.7961 2477.3910 0.0000 0.0000 4303.8263 -18091.6482 299.6795 -22395.4745 -18081.4378 299.1258 -74.5562 -75.0945 489665.3939 2.3176 2.3480
ENERGY: 4000 3.1332 15.5713 7.9273 0.1068 -24957.2893 2660.4619 0.0000 0.0000 4224.1983 -18045.8906 294.1349 -22270.0889 -18038.3585 297.4300 93.1925 93.1055 469838.7047 1.3573 1.3913
ENERGY: 5000 3.6101 10.2753 6.0336 0.0370 -25113.8835 2636.0397 0.0000 0.0000 4389.6176 -18068.2702 305.6533 -22457.8879 -18059.2225 299.0808 27.4783 25.3932 457310.0702 -0.1536 -0.2335
TCL: Running FEP window  15: Lambda1 0.125  Lambda2 0.0625 [dLambda -0.0625]
TCL: Setting parameter firsttimestep to 0
TCL: Setting parameter alchLambda to 0.125
Info: NONBONDED TABLE R-SQUARED SPACING: 0.0625
Info: NONBONDED TABLE SIZE: 769 POINTS
TCL: Setting parameter alchLambda2 to 0.0625
Info: NONBONDED TABLE R-SQUARED SPACING: 0.0625
Info: NONBONDED TABLE SIZE: 769 POINTS
TCL: Running for 5000 steps
ETITLE: TS BOND ANGLE DIHED IMPRP ELECT VDW BOUNDARY MISC KINETIC TOTAL TEMP POTENTIAL TOTAL3 TEMPAVG PRESSURE GPRESSURE VOLUME PRESSAVG GPRESSAVG
ENERGY: 0 3.6101 10.2753 6.0336 0.0370 -25113.8835 2635.6286 0.0000 0.0000 4389.4906 -18068.8084 305.6444 -22458.2989 -18060.5147 305.6444 25.2240 25.0528 457310.0702 25.2240 25.0528
ENERGY: 1000 1.6329 14.6453 8.9645 0.3530 -25088.2451 2622.1591 0.0000 0.0000 4254.4493 -18186.0410 296.2414 -22440.4903 -18175.9816 297.7185 -0.7175 0.3659 451286.7761 2.9343 2.9440
ENERGY: 2000 6.1800 16.9341 7.3555 0.0540 -25036.9698 2587.9063 0.0000 0.0000 4292.4495 -18126.0904 298.8873 -22418.5399 -18116.0071 297.1821 -25.6341 -25.8951 432483.8806 2.9929 2.9917
ENERGY: 3000 2.6896 14.6530 7.6520 0.0426 -25199.4717 2695.0336 0.0000 0.0000 4257.2897 -18222.1112 296.4391 -22479.4009 -18217.0918 293.7730 38.1437 36.3063 430190.4873 1.4739 1.4967
ENERGY: 4000 2.1655 15.3269 7.1352 0.0773 -25065.1746 2679.6270 0.0000 0.0000 4252.5297 -18108.3130 296.1077 -22360.8427 -18100.4667 296.4569 40.7767 40.8105 427973.6791 1.7338 1.7351
ENERGY: 5000 2.1026 9.4815 7.2016 0.0406 -25124.5319 2629.5492 0.0000 0.0000 4274.3363 -18201.8203 297.6261 -22476.1565 -18192.3880 294.3952 13.0178 11.4750 405784.4147 -1.1550 -1.1562
TCL: Running FEP window  16: Lambda1 0.0625 Lambda2 0.0    [dLambda -0.0625]
TCL: Setting parameter firsttimestep to 0
TCL: Setting parameter alchLambda to 0.0625
Info: NONBONDED TABLE R-SQUARED SPACING: 0.0625
Info: NONBONDED TABLE SIZE: 769 POINTS
TCL: Setting parameter alchLambda2 to 0.0
Info: NONBONDED TABLE R-SQUARED SPACING: 0.0625
Info: NONBONDED TABLE SIZE: 769 POINTS
TCL: Running for 5000 steps
ETITLE: TS BOND ANGLE DIHED IMPRP ELECT VDW BOUNDARY MISC KINETIC TOTAL TEMP POTENTIAL TOTAL3 TEMPAVG PRESSURE GPRESSURE VOLUME PRESSAVG GPRESSAVG
ENERGY: 0 2.1026 9.4815 7.2016 0.0406 -25124.5319 2629.5385 0.0000 0.0000 4274.2042 -18201.9630 297.6169 -22476.1672 -18192.8990 297.6169 11.0839 11.1499 405784.4147 11.0839 11.1499
ENERGY: 1000 2.3931 14.4281 8.2733 0.0084 -25108.6201 2761.8493 0.0000 0.0000 4230.8935 -18090.7745 294.6011 -22321.6680 -18082.4480 298.5075 90.5043 89.8084 397167.6974 -0.5118 -0.5803
ENERGY: 2000 5.9945 11.4186 7.6820 0.0996 -25174.8257 2745.1324 0.0000 0.0000 4295.4842 -18109.0145 299.0987 -22404.4988 -18099.9013 299.2315 86.9947 86.6899 379623.7959 3.2680 3.2293
ENERGY: 3000 2.6044 17.9168 7.1306 0.0072 -24940.7374 2552.3940 0.0000 0.0000 4366.2741 -17994.4102 304.0278 -22360.6843 -17987.0962 300.6138 -37.9490 -35.6528 376292.1840 -1.0146 -0.9669
ENERGY: 4000 2.5741 9.8342 7.4139 0.0918 -25196.8180 2717.7773 0.0000 0.0000 4363.9962 -18095.1304 303.8692 -22459.1266 -18086.0588 297.9057 30.7146 31.1378 385283.3943 6.3023 6.2587
ENERGY: 5000 4.0246 10.5266 6.5799 0.0477 -25003.6439 2608.2213 0.0000 0.0000 4226.1022 -18148.1415 294.2675 -22374.2437 -18140.9536 296.7493 -11.7569 -11.8171 384323.9542 1.3635 1.4214
