Info: SIMULATION PARAMETERS:
Info: TIMESTEP               2
Info: NUMBER OF STEPS        0
Info: STEPS PER CYCLE        10
Info: PERIODIC CELL BASIS 1  80.7627 0 0
Info: PERIODIC CELL BASIS 2  0 80.7627 0
Info: PERIODIC CELL BASIS 3  0 0 80.7627
Info: PERIODIC CELL CENTER   41.843 41.843 41.843
Info: WRAPPING ALL CLUSTERS AROUND PERIODIC BOUNDARIES ON OUTPUT.
Info: FIRST LDB TIMESTEP     50
Info: LAST LDB TIMESTEP     -1
Info: HOM BACKGROUND SCALING 1
Info: PME BACKGROUND SCALING 1
Info: MIN ATOMS PER PATCH    40
Info: EMPTY PATCH LOAD       40 ATOMS
Info: VELOCITY FILE          mobley_1502181_equilibrated.vel
Info: CENTER OF MASS MOVING INITIALLY? NO
Info: DIELECTRIC             1
Info: EXCLUDE                SCALED ONE-FOUR
Info: 1-4 ELECTROSTATICS SCALED BY 1
Info: MODIFIED 1-4 VDW PARAMETERS WILL BE USED
Info: DCD FILENAME           mobley_1502181_forwards.dcd
Info: DCD FREQUENCY          500
Info: DCD FIRST STEP         500
Info: DCD FILE WILL CONTAIN UNIT CELL DATA
Info: NO EXTENDED SYSTEM TRAJECTORY OUTPUT
Info: NO VELOCITY DCD OUTPUT
Info: NO FORCE DCD OUTPUT
Info: OUTPUT FILENAME        mobley_1502181_forwards
Info: BINARY OUTPUT FILES WILL BE USED
Info: NO RESTART FILE
Info: SWITCHING ACTIVE
Info: SWITCHING ON           10
Info: SWITCHING OFF          12
Info: PAIRLIST DISTANCE      14
Info: PAIRLIST SHRINK RATE   0.01
Info: PAIRLIST GROW RATE     0.01
Info: PAIRLIST TRIGGER       0.3
Info: PAIRLISTS PER CYCLE    2
Info: PAIRLISTS ENABLED
Info: MARGIN                 8
Info: HYDROGEN GROUP CUTOFF  2.5
Info: PATCH DIMENSION        24.5
Info: ENERGY OUTPUT STEPS    500
Info: ENERGY EVALUATION STEPS    500
Info: OUTPUT ENERGY PRECISION 4
Info: CROSSTERM ENERGY INCLUDED IN DIHEDRAL
Info: TIMING OUTPUT STEPS    500
Info: PRESSURE OUTPUT STEPS  500
Info: ALCHEMICAL FEP ON
Info: FEP CURRENT LAMBDA VALUE     0
Info: FEP COMPARISON LAMBDA VALUE  0.0625
Info: FEP INTRA-ALCHEMICAL NON-BONDED INTERACTIONS WILL BE DECOUPLED
Info: FEP INTRA-ALCHEMICAL BONDED INTERACTIONS WILL BE RETAINED
Info: FEP VDW SHIFTING COEFFICIENT 6
Info: FEP ELEC. ACTIVE FOR ANNIHILATED PARTICLES BETWEEN LAMBDA = 0 AND LAMBDA = 0.5
Info: FEP ELEC. ACTIVE FOR EXNIHILATED PARTICLES BETWEEN LAMBDA = 0.5 AND LAMBDA = 1
Info: FEP VDW ACTIVE FOR ANNIHILATED PARTICLES BETWEEN LAMBDA = 0 AND LAMBDA = 1
Info: FEP VDW ACTIVE FOR EXNIHILATED PARTICLES BETWEEN LAMBDA = 0 AND LAMBDA = 1
Info: FEP BOND ACTIVE FOR ANNIHILATED PARTICLES BETWEEN LAMBDA = 1 AND LAMBDA = 1
Info: FEP BOND ACTIVE FOR EXNIHILATED PARTICLES BETWEEN LAMBDA = 0 AND LAMBDA = 0
Info: LANGEVIN DYNAMICS ACTIVE
Info: LANGEVIN TEMPERATURE   298
Info: LANGEVIN USING BBK INTEGRATOR
Info: LANGEVIN DAMPING COEFFICIENT IS 1 INVERSE PS
Info: LANGEVIN DYNAMICS NOT APPLIED TO HYDROGENS
Info: LANGEVIN PISTON PRESSURE CONTROL ACTIVE
Info:        TARGET PRESSURE IS 1.01325 BAR
Info:     OSCILLATION PERIOD IS 100 FS
Info:             DECAY TIME IS 50 FS
Info:     PISTON TEMPERATURE IS 298 K
Info:       PRESSURE CONTROL IS GROUP-BASED
Info:    INITIAL STRAIN RATE IS 1.4401e-05 1.4401e-05 1.4401e-05
Info:       CELL FLUCTUATION IS ISOTROPIC
Info: PARTICLE MESH EWALD (PME) ACTIVE
Info: PME TOLERANCE               1e-05
Info: PME EWALD COEFFICIENT       0.226635
Info: PME INTERPOLATION ORDER     4
Info: PME GRID DIMENSIONS         84 84 84
Info: PME MAXIMUM GRID SPACING    1
Info: FULL ELECTROSTATIC EVALUATION FREQUENCY      1
Info: USING VERLET I (r-RESPA) MTS SCHEME.
Info: C1 SPLITTING OF LONG RANGE ELECTROSTATICS
Info: PLACING ATOMS IN PATCHES BY HYDROGEN GROUPS
Info: RIGID BONDS TO HYDROGEN : ALL
Info:         ERROR TOLERANCE : 1e-08
Info:          MAX ITERATIONS : 100
Info: RIGID WATER USING SETTLE ALGORITHM
Info: RANDOM NUMBER SEED     1740634486
Info: USE HYDROGEN BONDS?    NO
Info: COORDINATE PDB         mobley_1502181.pdb
Info: STRUCTURE FILE         mobley_1502181.psf
Info: PARAMETER file: CHARMM format!
Info: PARAMETERS             ../common/par_all27_prot_lipid.inp
Info: PARAMETERS             mobley_1502181.prm
Info: USING ARITHMETIC MEAN TO COMBINE L-J SIGMA PARAMETERS
Info: BINARY COORDINATES     mobley_1502181_equilibrated.coor
Info: SUMMARY OF PARAMETERS:
Info: 184 BONDS
Info: 454 ANGLES
Info: 578 DIHEDRAL
Info: 47 IMPROPER
Info: 6 CROSSTERM
Info: 123 VDW
Info: 0 VDW_PAIRS
Info: 0 NBTHOLE_PAIRS
Info: To read alchdata from file: mobley_1502181.pdb
Info: To read alchflag data from column: 5
Info: STRUCTURE SUMMARY:
Info: 7222 ATOMS
Info: 4823 BONDS
Info: 2449 ANGLES
Info: 66 DIHEDRALS
Info: 1 IMPROPERS
Info: 0 CROSSTERMS
Info: 0 EXCLUSIONS
Info: 7212 RIGID BONDS
Info: ALCH: 0 ATOMS TO DISAPPEAR IN FINAL STATE
Info: ALCH: 28 ATOMS TO APPEAR IN FINAL STATE
Info: 14454 DEGREES OF FREEDOM
Info: 2408 HYDROGEN GROUPS
Info: 4 ATOMS IN LARGEST HYDROGEN GROUP
Info: 2408 MIGRATION GROUPS
Info: 4 ATOMS IN LARGEST MIGRATION GROUP
Info: TOTAL MASS = 43343.2 amu
Info: TOTAL CHARGE = 7.45058e-09 e
Info: MASS DENSITY = 0.136631 g/cm^3
Info: ATOM DENSITY = 0.0137096 atoms/A^3
Info: ADDED 7338 IMPLICIT EXCLUSIONS
Info: NONBONDED TABLE R-SQUARED SPACING: 0.0625
Info: NONBONDED TABLE SIZE: 769 POINTS
Info: REMOVING COM VELOCITY 0.106708 -0.0426321 -0.0644563
TCL: Running for 5000 steps
ETITLE: TS BOND ANGLE DIHED IMPRP ELECT VDW BOUNDARY MISC KINETIC TOTAL TEMP POTENTIAL TOTAL3 TEMPAVG PRESSURE GPRESSURE VOLUME PRESSAVG GPRESSAVG
ENERGY: 0 3.0614 13.7956 7.2375 0.2106 -25173.8612 2574.9069 0.0000 0.0000 4268.6497 -18305.9995 297.2301 -22574.6492 -18297.7709 297.2301 -53.2891 -53.1871 526783.0647 -53.2891 -53.1871
ENERGY: 1000 2.6805 12.2894 7.6994 0.0907 -25247.8993 2751.2500 0.0000 0.0000 4300.1303 -18173.7590 299.4222 -22473.8893 -18165.4617 295.7096 46.5351 46.6755 527073.2806 0.3301 0.3330
ENERGY: 2000 3.9317 8.7483 9.5249 0.0738 -25237.4158 2739.3618 0.0000 0.0000 4276.3864 -18199.3888 297.7689 -22475.7752 -18189.1356 297.6046 72.7805 73.2661 517816.8962 -1.1529 -1.1488
ENERGY: 3000 1.4955 9.2036 8.6076 0.1714 -24889.4229 2545.6012 0.0000 0.0000 4189.6292 -18134.7142 291.7279 -22324.3434 -18124.0796 297.9519 -38.1158 -38.0390 526325.8618 2.8270 2.8707
ENERGY: 4000 0.9603 13.4348 6.6802 0.0733 -25025.9564 2568.4839 0.0000 0.0000 4262.4091 -18173.9148 296.7956 -22436.3239 -18166.1193 296.5370 -45.0439 -45.9266 528561.9066 2.6262 2.6060
ENERGY: 5000 1.4725 10.9882 9.9061 0.0228 -24950.8200 2700.9927 0.0000 0.0000 4214.5515 -18012.8861 293.4632 -22227.4376 -18004.6207 298.7318 38.1682 36.5893 538349.4310 0.0736 0.0721
TCL: Running FEP window   2: Lambda1 0.0625 Lambda2 0.125  [dLambda 0.0625]
TCL: Setting parameter firsttimestep to 0
TCL: Setting parameter alchLambda to 0.0625
Info: NONBONDED TABLE R-SQUARED SPACING: 0.0625
Info: NONBONDED TABLE SIZE: 769 POINTS
TCL: Setting parameter alchLambda2 to 0.125
Info: NONBONDED TABLE R-SQUARED SPACING: 0.0625
Info: NONBONDED TABLE SIZE: 769 POINTS
TCL: Running for 5000 steps
ETITLE: TS BOND ANGLE DIHED IMPRP ELECT VDW BOUNDARY MISC KINETIC TOTAL TEMP POTENTIAL TOTAL3 TEMPAVG PRESSURE GPRESSURE VOLUME PRESSAVG GPRESSAVG
ENERGY: 0 1.4725 10.9882 9.9061 0.0228 -24950.8200 2702.2070 0.0000 0.0000 4214.4189 -18011.8045 293.4540 -22226.2233 -18003.1150 293.4540 36.6193 36.6011 538349.4310 36.6193 36.6011
ENERGY: 1000 1.6145 10.0642 8.2069 0.1470 -25063.2267 2670.5676 0.0000 0.0000 4190.8942 -18181.7323 291.8160 -22372.6265 -18172.1894 298.6894 29.3572 28.7083 542859.6899 3.1659 3.2265
ENERGY: 2000 3.5652 14.4269 8.4407 0.2006 -25214.1961 2690.3735 0.0000 0.0000 4303.5342 -18193.6549 299.6592 -22497.1891 -18184.4512 297.1014 38.9839 38.6793 539913.1378 2.1707 2.1719
ENERGY: 3000 2.7070 15.3644 6.6662 0.0177 -25015.6256 2591.5735 0.0000 0.0000 4247.5291 -18151.7677 295.7595 -22399.2968 -18145.4259 295.7192 -16.3093 -16.5943 537868.0234 -0.4601 -0.4347
ENERGY: 4000 2.7077 15.2247 9.0296 0.0652 -25072.7372 2664.3316 0.0000 0.0000 4292.5590 -18088.8193 298.8950 -22381.3783 -18080.2723 299.3623 30.8316 31.4859 531695.3561 2.9710 2.9500
ENERGY: 5000 3.9258 15.9042 8.6895 0.0239 -25031.1523 2657.9048 0.0000 0.0000 4203.3438 -18141.3603 292.6828 -22344.7041 -18131.2448 296.5063 29.4230 28.7762 538362.3009 -0.4580 -0.4672
TCL: Running FEP window   3: Lambda1 0.125  Lambda2 0.1875 [dLambda 0.0625]
TCL: Setting parameter firsttimestep to 0
TCL: Setting parameter alchLambda to 0.125
Info: NONBONDED TABLE R-SQUARED SPACING: 0.0625
Info: NONBONDED TABLE SIZE: 769 POINTS
TCL: Setting parameter alchLambda2 to 0.1875
Info: NONBONDED TABLE R-SQUARED SPACING: 0.0625
Info: NONBONDED TABLE SIZE: 769 POINTS
TCL: Running for 5000 steps
ETITLE: TS BOND ANGLE DIHED IMPRP ELECT VDW BOUNDARY MISC KINETIC TOTAL TEMP POTENTIAL TOTAL3 TEMPAVG PRESSURE GPRESSURE VOLUME PRESSAVG GPRESSAVG
ENERGY: 0 3.9258 15.9042 8.6895 0.0239 -25031.1523 2657.6199 0.0000 0.0000 4203.2130 -18141.7760 292.6737 -22344.9890 -18133.8810 292.6737 28.7935 28.9416 538362.3009 28.7935 28.9416
ENERGY: 1000 3.0598 12.0962 7.8310 0.0031 -24948.2617 2607.1383 0.0000 0.0000 4272.0430 -18046.0903 297.4664 -22318.1332 -18037.1650 298.6073 1.8552 1.2201 552752.9720 0.1303 0.1139
ENERGY: 2000 4.7414 18.8284 9.6488 0.0527 -24916.3012 2529.8614 0.0000 0.0000 4218.6270 -18134.5415 293.7470 -22353.1685 -18125.5217 298.4692 -36.3287 -36.4337 545525.3320 1.7802 1.8112
ENERGY: 3000 1.2800 15.5335 9.2456 0.1523 -25095.8107 2611.3574 0.0000 0.0000 4253.9240 -18204.3179 296.2048 -22458.2419 -18196.4256 297.3612 1.0712 1.0703 546605.9622 1.6772 1.6447
ENERGY: 4000 4.5177 20.9697 7.0121 0.0073 -25218.0539 2700.6301 0.0000 0.0000 4270.3505 -18214.5666 297.3486 -22484.9171 -18206.9765 296.7154 60.8222 60.2099 542669.8368 3.0717 3.0749
ENERGY: 5000 1.0373 19.2874 8.8474 0.0794 -25062.8744 2600.1325 0.0000 0.0000 4312.7169 -18120.7734 300.2986 -22433.4903 -18112.6277 297.9134 -4.0411 -4.5382 544122.6032 -1.3109 -1.2938
TCL: Running FEP window   4: Lambda1 0.1875 Lambda2 0.25   [dLambda 0.0625]
TCL: Setting parameter firsttimestep to 0
TCL: Setting parameter alchLambda to 0.1875
Info: NONBONDED TABLE R-SQUARED SPACING: 0.0625
Info: NONBONDED TABLE SIZE: 769 POINTS
TCL: Setting parameter alchLambda2 to 0.25
Info: NONBONDED TABLE R-SQUARED SPACING: 0.0625
Info: NONBONDED TABLE SIZE: 769 POINTS
TCL: Running for 5000 steps
ETITLE: TS BOND ANGLE DIHED IMPRP ELECT VDW BOUNDARY MISC KINETIC TOTAL TEMP POTENTIAL TOTAL3 TEMPAVG PRESSURE GPRESSURE VOLUME PRESSAVG GPRESSAVG
ENERGY: 0 1.0373 19.2874 8.8474 0.0794 -25062.8744 2600.0519 0.0000 0.0000 4312.5867 -18120.9843 300.2895 -22433.5710 -18112.9498 300.2895 -4.7121 -4.5274 544122.6032 -4.7121 -4.5274
ENERGY: 1000 1.8816 13.8616 10.4483 0.0860 -25012.0098 2600.1557 0.0000 0.0000 4317.9307 -18067.6460 300.6616 -22385.5767 -18060.1045 298.5501 10.4761 9.8319 538104.3395 3.0882 3.1420
ENERGY: 2000 2.1191 13.2373 8.5613 0.0039 -25155.0663 2746.8010 0.0000 0.0000 4296.5431 -18087.8007 299.1724 -22384.3438 -18078.4079 298.9869 70.3694 70.5053 542980.3778 -1.2694 -1.2440
ENERGY: 3000 1.0723 13.6536 10.1799 0.2296 -24936.7719 2522.9715 0.0000 0.0000 4226.9278 -18161.7372 294.3250 -22388.6650 -18152.5024 298.6553 -51.9841 -51.2559 552710.2570 0.6099 0.6175
ENERGY: 4000 2.1305 11.6823 10.3952 0.2106 -25131.0393 2693.9222 0.0000 0.0000 4285.9916 -18126.7069 298.4377 -22412.6985 -18113.3273 296.7221 36.9640 36.1927 549403.5989 2.6145 2.6442
ENERGY: 5000 3.9292 10.9805 5.7040 0.0394 -25017.9716 2588.5019 0.0000 0.0000 4218.0951 -18190.7214 293.7100 -22408.8165 -18183.6958 297.5233 0.6942 0.0146 535147.4748 0.5162 0.5455
TCL: Running FEP window   5: Lambda1 0.25   Lambda2 0.3125 [dLambda 0.0625]
TCL: Setting parameter firsttimestep to 0
TCL: Setting parameter alchLambda to 0.25
Info: NONBONDED TABLE R-SQUARED SPACING: 0.0625
Info: NONBONDED TABLE SIZE: 769 POINTS
TCL: Setting parameter alchLambda2 to 0.3125
Info: NONBONDED TABLE R-SQUARED SPACING: 0.0625
Info: NONBONDED TABLE SIZE: 769 POINTS
TCL: Running for 5000 steps
ETITLE: TS BOND ANGLE DIHED IMPRP ELECT VDW BOUNDARY MISC KINETIC TOTAL TEMP POTENTIAL TOTAL3 TEMPAVG PRESSURE GPRESSURE VOLUME PRESSAVG GPRESSAVG
ENERGY: 0 3.9292 10.9805 5.7040 0.0394 -25017.9716 2588.0345 0.0000 0.0000 4217.9601 -18191.3238 293.7006 -22409.2839 -18182.9813 293.7006 -0.1869 -0.1659 535147.4748 -0.1869 -0.1659
ENERGY: 1000 3.5150 18.1243 6.3744 0.1858 -25035.6703 2590.6167 0.0000 0.0000 4278.7790 -18138.0752 297.9355 -22416.8541 -18131.2922 297.6685 -29.3001 -29.8801 536405.1397 2.0500 2.0719
ENERGY: 2000 2.3765 15.0213 7.4769 0.0390 -24906.8968 2621.7198 0.0000 0.0000 4265.9723 -17994.2910 297.0437 -22260.2633 -17985.7104 297.7471 -8.0422 -8.1886 545764.6351 0.6143 0.5742
ENERGY: 3000 1.4609 9.5499 7.5866 0.0677 -24879.8969 2581.4130 0.0000 0.0000 4307.8673 -17971.9515 299.9609 -22279.8188 -17964.6599 300.7778 -11.3201 -11.2842 542817.8947 -1.2772 -1.2529
ENERGY: 4000 3.8695 15.5120 10.4468 0.5842 -24885.5352 2538.7023 0.0000 0.0000 4269.8726 -18046.5477 297.3153 -22316.4203 -18038.4435 300.1177 -28.7006 -27.6623 544211.1855 2.0765 2.1013
ENERGY: 5000 1.9032 10.6336 9.0588 0.0447 -25004.7854 2681.4737 0.0000 0.0000 4261.3052 -18040.3662 296.7187 -22301.6713 -18029.5429 299.7023 35.5331 36.2973 534088.2059 2.9192 2.9317
TCL: Running FEP window   6: Lambda1 0.3125 Lambda2 0.375  [dLambda 0.0625]
TCL: Setting parameter firsttimestep to 0
TCL: Setting parameter alchLambda to 0.3125
Info: NONBONDED TABLE R-SQUARED SPACING: 0.0625
Info: NONBONDED TABLE SIZE: 769 POINTS
TCL: Setting parameter alchLambda2 to 0.375
Info: NONBONDED TABLE R-SQUARED SPACING: 0.0625
Info: NONBONDED TABLE SIZE: 769 POINTS
TCL: Running for 5000 steps
ETITLE: TS BOND ANGLE DIHED IMPRP ELECT VDW BOUNDARY MISC KINETIC TOTAL TEMP POTENTIAL TOTAL3 TEMPAVG PRESSURE GPRESSURE VOLUME PRESSAVG GPRESSAVG
ENERGY: 0 1.9032 10.6336 9.0588 0.0447 -25004.7854 2681.1767 0.0000 0.0000 4261.1741 -18040.7942 296.7096 -22301.9684 -18032.3745 296.7096 36.4543 36.4514 534088.2059 36.4543 36.4514
ENERGY: 1000 2.4115 12.5122 7.4667 0.4346 -25004.3536 2668.4340 0.0000 0.0000 4277.3706 -18035.7239 297.8374 -22313.0945 -18026.9414 299.3077 15.3463 15.2700 534287.7858 3.9360 3.9367
ENERGY: 2000 1.8583 9.5254 7.3760 0.0095 -24969.8522 2593.5640 0.0000 0.0000 4235.9838 -18121.5352 294.9556 -22357.5190 -18111.3498 297.0809 -1.4705 -1.4695 536645.2295 1.4426 1.4525
ENERGY: 3000 1.6914 11.8884 7.1696 0.0203 -25059.0443 2582.2097 0.0000 0.0000 4357.5431 -18098.5219 303.4199 -22456.0650 -18091.9607 297.1748 -19.0021 -20.2556 538754.7221 -1.7355 -1.7548
ENERGY: 4000 1.9182 10.4300 6.7826 0.0054 -25120.9115 2653.9521 0.0000 0.0000 4284.5620 -18163.2610 298.3381 -22447.8231 -18152.7931 297.9554 21.8000 21.1254 545324.4614 2.0922 2.0964
ENERGY: 5000 2.0721 18.8936 7.3409 0.0341 -25005.4135 2573.9706 0.0000 0.0000 4315.2100 -18087.8922 300.4722 -22403.1022 -18081.2714 299.0276 -10.4762 -10.5704 528670.0443 0.6830 0.7219
TCL: Running FEP window   7: Lambda1 0.375  Lambda2 0.4375 [dLambda 0.0625]
TCL: Setting parameter firsttimestep to 0
TCL: Setting parameter alchLambda to 0.375
Info: NONBONDED TABLE R-SQUARED SPACING: 0.0625
Info: NONBONDED TABLE SIZE: 769 POINTS
TCL: Setting parameter alchLambda2 to 0.4375
Info: NONBONDED TABLE R-SQUARED SPACING: 0.0625
Info: NONBONDED TABLE SIZE: 769 POINTS
TCL: Running for 5000 steps
ETITLE: TS BOND ANGLE DIHED IMPRP ELECT VDW BOUNDARY MISC KINETIC TOTAL TEMP POTENTIAL TOTAL3 TEMPAVG PRESSURE GPRESSURE VOLUME PRESSAVG GPRESSAVG
ENERGY: 0 2.0721 18.8936 7.3409 0.0341 -25005.4135 2574.0535 0.0000 0.0000 4315.0740 -18087.9453 300.4627 -22403.0193 -18079.5204 300.4627 -10.5696 -10.5646 528670.0443 -10.5696 -10.5646
ENERGY: 1000 3.2625 15.2564 8.4808 0.0382 -25004.7907 2570.3593 0.0000 0.0000 4326.1004 -18081.2932 301.2305 -22407.3936 -18072.0152 297.5643 -38.3709 -39.1095 543345.3658 0.0120 0.0731
ENERGY: 2000 4.8236 14.4572 9.1332 0.2235 -24913.5084 2471.9448 0.0000 0.0000 4297.5324 -18115.3936 299.2413 -22412.9261 -18109.9236 296.7307 -56.4191 -57.2130 543592.6275 0.5584 0.5209
ENERGY: 3000 2.6366 17.5101 8.5110 0.0890 -25148.9888 2646.0437 0.0000 0.0000 4241.0299 -18233.1684 295.3069 -22474.1983 -18225.6259 296.2704 2.1748 1.0531 552990.0296 -0.2613 -0.2438
ENERGY: 4000 1.2959 18.9553 9.2884 0.0005 -25161.5971 2671.8706 0.0000 0.0000 4202.3265 -18257.8599 292.6120 -22460.1864 -18251.4945 296.3070 23.8787 23.7927 555625.1504 1.0714 1.0706
ENERGY: 5000 2.7360 14.1287 8.9699 0.6622 -25190.5048 2616.2541 0.0000 0.0000 4212.6737 -18335.0802 293.3325 -22547.7539 -18326.0779 295.5538 -7.8140 -7.5540 544767.2642 1.2485 1.2827
TCL: Running FEP window   8: Lambda1 0.4375 Lambda2 0.5    [dLambda 0.0625]
TCL: Setting parameter firsttimestep to 0
TCL: Setting parameter alchLambda to 0.4375
Info: NONBONDED TABLE R-SQUARED SPACING: 0.0625
Info: NONBONDED TABLE SIZE: 769 POINTS
TCL: Setting parameter alchLambda2 to 0.5
Info: NONBONDED TABLE R-SQUARED SPACING: 0.0625
Info: NONBONDED TABLE SIZE: 769 POINTS
TCL: Running for 5000 steps
ETITLE: TS BOND ANGLE DIHED IMPRP ELECT VDW BOUNDARY MISC KINETIC TOTAL TEMP POTENTIAL TOTAL3 TEMPAVG PRESSURE GPRESSURE VOLUME PRESSAVG GPRESSAVG
ENERGY: 0 2.7360 14.1287 8.9699 0.6622 -25190.5048 2616.2512 0.0000 0.0000 4212.5403 -18335.2166 293.3232 -22547.7569 -18327.3549 293.3232 -7.0707 -7.3723 544767.2642 -7.0707 -7.3723
ENERGY: 1000 1.2869 11.3370 7.5133 0.0038 -25173.8296 2651.9538 0.0000 0.0000 4267.6430 -18234.0918 297.1600 -22501.7348 -18223.4071 295.9335 -3.3549 -4.1890 530352.6113 1.9488 1.9476
ENERGY: 2000 3.9784 12.1237 9.4078 0.3739 -25130.6051 2678.5577 0.0000 0.0000 4304.1465 -18122.0172 299.7018 -22426.1636 -18113.9216 296.9292 44.2734 44.1763 515205.8105 1.7593 1.7800
ENERGY: 3000 1.7967 10.5334 6.0803 0.3476 -25007.9170 2590.8031 0.0000 0.0000 4214.2253 -18184.1306 293.4405 -22398.3559 -18178.3766 298.1250 -23.9298 -23.5273 525513.3977 1.4225 1.4285
ENERGY: 4000 1.7765 10.4705 7.0946 0.0393 -25107.8151 2582.8870 0.0000 0.0000 4286.7619 -18218.7852 298.4913 -22505.5471 -18209.4328 294.3813 -11.0648 -10.6895 512765.5443 2.2080 2.2103
ENERGY: 5000 0.3620 13.0988 7.7952 0.0145 -25211.8502 2607.1493 0.0000 0.0000 4305.2543 -18278.1763 299.7790 -22583.4306 -18269.5917 296.8719 -21.2153 -21.7984 526660.4601 2.6604 2.6573
TCL: Running FEP window   9: Lambda1 0.5    Lambda2 0.5625 [dLambda 0.0625]
TCL: Setting parameter firsttimestep to 0
TCL: Setting parameter alchLambda to 0.5
Info: NONBONDED TABLE R-SQUARED SPACING: 0.0625
Info: NONBONDED TABLE SIZE: 769 POINTS
TCL: Setting parameter alchLambda2 to 0.5625
Info: NONBONDED TABLE R-SQUARED SPACING: 0.0625
Info: NONBONDED TABLE SIZE: 769 POINTS
TCL: Running for 5000 steps
ETITLE: TS BOND ANGLE DIHED IMPRP ELECT VDW BOUNDARY MISC KINETIC TOTAL TEMP POTENTIAL TOTAL3 TEMPAVG PRESSURE GPRESSURE VOLUME PRESSAVG GPRESSAVG
ENERGY: 0 0.3620 13.0988 7.7952 0.0145 -25211.8502 2606.9938 0.0000 0.0000 4305.1223 -18278.4638 299.7698 -22583.5861 -18270.0490 299.7698 -21.9063 -21.8184 526660.4601 -21.9063 -21.8184
ENERGY: 1000 1.6079 6.9924 6.3886 0.4922 -25255.6849 2732.9905 0.0000 0.0000 4154.8734 -18352.3398 289.3078 -22507.2132 -18347.6778 293.0126 55.9324 55.7012 539943.6677 1.0957 1.1125
ENERGY: 2000 1.4098 14.2615 7.1457 0.1628 -25070.5061 2619.7202 0.0000 0.0000 4305.9960 -18121.8099 299.8306 -22427.8059 -18112.6715 297.1101 -2.6896 -3.0926 537358.0074 0.9930 0.9638
ENERGY: 3000 2.5410 12.4015 8.7632 0.4424 -25146.2115 2690.3384 0.0000 0.0000 4231.5063 -18200.2186 294.6438 -22431.7250 -18193.0147 294.7116 27.1288 27.0915 536305.2812 0.3559 0.4088
ENERGY: 4000 1.7349 16.5868 7.5285 0.0657 -25124.9178 2672.4442 0.0000 0.0000 4358.1332 -18068.4246 303.4610 -22426.5578 -18059.4866 298.2198 31.7538 31.2864 530212.7035 1.6190 1.6181
ENERGY: 5000 2.9003 10.1623 9.1820 0.5020 -25005.6628 2582.5575 0.0000 0.0000 4243.7120 -18156.6467 295.4937 -22400.3588 -18146.5419 296.6673 -31.0602 -30.8439 543715.1020 1.6931 1.6815
TCL: Running FEP window  10: Lambda1 0.5625 Lambda2 0.625  [dLambda 0.0625]
TCL: Setting parameter firsttimestep to 0
TCL: Setting parameter alchLambda to 0.5625
Info: NONBONDED TABLE R-SQUARED SPACING: 0.0625
Info: NONBONDED TABLE SIZE: 769 POINTS
TCL: Setting parameter alchLambda2 to 0.625
Info: NONBONDED TABLE R-SQUARED SPACING: 0.0625
Info: NONBONDED TABLE SIZE: 769 POINTS
TCL: Running for 5000 steps
ETITLE: TS BOND ANGLE DIHED IMPRP ELECT VDW BOUNDARY MISC KINETIC TOTAL TEMP POTENTIAL TOTAL3 TEMPAVG PRESSURE GPRESSURE VOLUME PRESSAVG GPRESSAVG
ENERGY: 0 2.9003 10.1623 9.1820 0.5020 -25007.7982 2583.0782 0.0000 0.0000 4243.5804 -18158.3931 295.4845 -22401.9735 -18150.3517 295.4845 -30.3837 -30.3671 543715.1020 -30.3837 -30.3671
ENERGY: 1000 2.9217 14.4046 8.5084 0.0003 -25088.0629 2686.1973 0.0000 0.0000 4308.2177 -18067.8129 299.9853 -22376.0306 -18059.7677 297.7780 43.6015 43.0895 551040.8615 3.1814 3.1861
ENERGY: 2000 4.3427 12.1922 9.7877 0.0073 -24951.7715 2547.0333 0.0000 0.0000 4323.5725 -18054.8358 301.0545 -22378.4083 -18046.6724 301.3424 -36.7972 -37.1233 553155.1496 2.9021 2.9148
ENERGY: 3000 2.0866 18.1072 8.9121 0.0448 -25016.1530 2571.0318 0.0000 0.0000 4305.7228 -18110.2476 299.8116 -22415.9704 -18101.5157 298.9830 -19.0216 -18.6402 533870.7324 -2.4419 -2.4338
ENERGY: 4000 4.5159 11.2318 7.7942 0.0035 -25175.8287 2660.5969 0.0000 0.0000 4247.2458 -18244.4406 295.7398 -22491.6863 -18238.2183 295.7639 -2.8201 -3.3077 529422.8111 0.7872 0.7797
ENERGY: 5000 3.1240 15.5040 9.2065 0.0208 -25185.1257 2738.7687 0.0000 0.0000 4272.5869 -18145.9148 297.5043 -22418.5017 -18136.8360 295.6977 38.0290 37.6982 523642.2176 1.0926 1.0598
TCL: Running FEP window  11: Lambda1 0.625  Lambda2 0.6875 [dLambda 0.0625]
TCL: Setting parameter firsttimestep to 0
TCL: Setting parameter alchLambda to 0.625
Info: NONBONDED TABLE R-SQUARED SPACING: 0.0625
Info: NONBONDED TABLE SIZE: 769 POINTS
TCL: Setting parameter alchLambda2 to 0.6875
Info: NONBONDED TABLE R-SQUARED SPACING: 0.0625
Info: NONBONDED TABLE SIZE: 769 POINTS
TCL: Running for 5000 steps
ETITLE: TS BOND ANGLE DIHED IMPRP ELECT VDW BOUNDARY MISC KINETIC TOTAL TEMP POTENTIAL TOTAL3 TEMPAVG PRESSURE GPRESSURE VOLUME PRESSAVG GPRESSAVG
ENERGY: 0 3.1240 15.5040 9.2065 0.0208 -25187.1910 2739.1908 0.0000 0.0000 4272.4569 -18147.6881 297.4952 -22420.1449 -18139.8785 297.4952 37.9849 38.1295 523642.2176 37.9849 38.1295
ENERGY: 1000 1.4999 11.7577 7.9861 0.0077 -24967.0278 2611.1457 0.0000 0.0000 4269.9268 -18064.7039 297.3191 -22334.6307 -18055.8941 296.8484 6.8711 7.3275 507006.0264 -0.0279 -0.0156
ENERGY: 2000 1.3978 15.9090 7.3431 0.4736 -25038.2639 2620.8565 0.0000 0.0000 4359.6013 -18032.6826 303.5632 -22392.2839 -18022.4413 300.0294 22.7452 21.7979 507907.6363 2.4491 2.4178
ENERGY: 3000 3.6300 13.1139 6.5486 0.1812 -24864.0784 2505.2397 0.0000 0.0000 4301.1254 -18034.2397 299.4915 -22335.3650 -18027.4939 301.5896 -63.1056 -62.9711 522626.1625 1.9031 1.8804
ENERGY: 4000 2.2544 13.8702 8.0651 0.5006 -25163.6158 2739.6964 0.0000 0.0000 4261.0762 -18138.1529 296.7028 -22399.2291 -18129.4264 298.0984 58.5737 57.7910 508593.3624 2.7200 2.7021
ENERGY: 5000 2.8031 15.2640 8.7121 0.0984 -24996.5319 2607.2462 0.0000 0.0000 4230.4640 -18131.9442 294.5712 -22362.4082 -18123.8329 298.7053 -31.1184 -30.3061 515428.4856 2.6134 2.5991
TCL: Running FEP window  12: Lambda1 0.6875 Lambda2 0.75   [dLambda 0.0625]
TCL: Setting parameter firsttimestep to 0
TCL: Setting parameter alchLambda to 0.6875
Info: NONBONDED TABLE R-SQUARED SPACING: 0.0625
Info: NONBONDED TABLE SIZE: 769 POINTS
TCL: Setting parameter alchLambda2 to 0.75
Info: NONBONDED TABLE R-SQUARED SPACING: 0.0625
Info: NONBONDED TABLE SIZE: 769 POINTS
TCL: Running for 5000 steps
ETITLE: TS BOND ANGLE DIHED IMPRP ELECT VDW BOUNDARY MISC KINETIC TOTAL TEMP POTENTIAL TOTAL3 TEMPAVG PRESSURE GPRESSURE VOLUME PRESSAVG GPRESSAVG
ENERGY: 0 2.8031 15.2640 8.7121 0.0984 -24998.7238 2607.2585 0.0000 0.0000 4230.3290 -18134.2586 294.5618 -22364.5877 -18125.9055 294.5618 -30.4354 -30.2788 515428.4856 -30.4354 -30.2788
ENERGY: 1000 3.6149 9.1994 6.2823 0.0485 -25001.9383 2543.0427 0.0000 0.0000 4347.3872 -18092.3631 302.7127 -22439.7504 -18085.0034 301.2386 -31.8796 -31.1453 516489.4593 2.1950 2.1987
ENERGY: 2000 2.5320 10.8664 6.0414 0.0169 -25109.3609 2722.6682 0.0000 0.0000 4198.3724 -18168.8634 292.3367 -22367.2359 -18161.2383 294.7315 64.8106 64.7349 513527.9900 0.7148 0.7502
ENERGY: 3000 4.3848 11.6962 7.2501 0.0007 -25097.1977 2607.7632 0.0000 0.0000 4256.3709 -18209.7319 296.3752 -22466.1028 -18201.0020 296.6596 -18.9544 -19.3395 512468.4914 1.3925 1.4280
ENERGY: 4000 1.3226 14.6290 7.4922 0.2649 -24937.9161 2593.0697 0.0000 0.0000 4279.1431 -18041.9946 297.9608 -22321.1377 -18033.1464 299.3223 -0.5243 -1.8826 496134.9683 0.6666 0.6380
ENERGY: 5000 2.0921 16.9218 9.2323 0.2652 -24928.9860 2548.0148 0.0000 0.0000 4311.6593 -18040.8004 300.2249 -22352.4598 -18033.7434 300.5005 -27.9040 -26.7964 485415.7105 -1.9503 -1.9816
TCL: Running FEP window  13: Lambda1 0.75   Lambda2 0.8125 [dLambda 0.0625]
TCL: Setting parameter firsttimestep to 0
TCL: Setting parameter alchLambda to 0.75
Info: NONBONDED TABLE R-SQUARED SPACING: 0.0625
Info: NONBONDED TABLE SIZE: 769 POINTS
TCL: Setting parameter alchLambda2 to 0.8125
Info: NONBONDED TABLE R-SQUARED SPACING: 0.0625
Info: NONBONDED TABLE SIZE: 769 POINTS
TCL: Running for 5000 steps
ETITLE: TS BOND ANGLE DIHED IMPRP ELECT VDW BOUNDARY MISC KINETIC TOTAL TEMP POTENTIAL TOTAL3 TEMPAVG PRESSURE GPRESSURE VOLUME PRESSAVG GPRESSAVG
ENERGY: 0 2.0921 16.9218 9.2323 0.2652 -24931.1320 2548.7343 0.0000 0.0000 4311.5302 -18042.3561 300.2160 -22353.8863 -18034.3383 300.2160 -26.4674 -26.4320 485415.7105 -26.4674 -26.4320
ENERGY: 1000 2.1248 6.7618 7.5181 0.1400 -24938.0593 2450.7893 0.0000 0.0000 4286.5536 -18184.1718 298.4768 -22470.7254 -18175.8979 297.0328 -117.8985 -117.2802 477070.1726 1.8480 1.8206
ENERGY: 2000 0.8463 10.8818 8.4781 0.1049 -25005.5289 2566.1286 0.0000 0.0000 4259.3760 -18159.7133 296.5844 -22419.0893 -18151.5184 297.7170 -23.3179 -25.5437 466082.5613 0.0521 0.0782
ENERGY: 3000 3.1255 6.6444 7.2209 0.1089 -25072.4053 2654.3123 0.0000 0.0000 4332.2139 -18068.7794 301.6562 -22400.9933 -18061.9422 299.3745 19.5349 19.0001 464023.6151 2.6721 2.6862
ENERGY: 4000 1.8769 10.0505 6.9393 0.0803 -24973.0161 2601.6030 0.0000 0.0000 4305.2472 -18047.2189 299.7785 -22352.4661 -18037.6793 299.9261 -3.2341 -3.8880 476716.4566 1.8099 1.8092
ENERGY: 5000 4.8362 10.3748 8.9871 0.0026 -24850.6179 2499.4700 0.0000 0.0000 4194.0794 -18132.8679 292.0377 -22326.9472 -18124.5502 297.6388 -51.1440 -50.8766 489203.3976 -2.3235 -2.2808
TCL: Running FEP window  14: Lambda1 0.8125 Lambda2 0.875  [dLambda 0.0625]
TCL: Setting parameter firsttimestep to 0
TCL: Setting parameter alchLambda to 0.8125
Info: NONBONDED TABLE R-SQUARED SPACING: 0.0625
Info: NONBONDED TABLE SIZE: 769 POINTS
TCL: Setting parameter alchLambda2 to 0.875
Info: NONBONDED TABLE R-SQUARED SPACING: 0.0625
Info: NONBONDED TABLE SIZE: 769 POINTS
TCL: Running for 5000 steps
ETITLE: TS BOND ANGLE DIHED IMPRP ELECT VDW BOUNDARY MISC KINETIC TOTAL TEMP POTENTIAL TOTAL3 TEMPAVG PRESSURE GPRESSURE VOLUME PRESSAVG GPRESSAVG
ENERGY: 0 4.8362 10.3748 8.9871 0.0026 -24852.7695 2500.3591 0.0000 0.0000 4193.9514 -18134.2583 292.0288 -22328.2097 -18127.1848 292.0288 -49.7703 -50.0426 489203.3976 -49.7703 -50.0426
ENERGY: 1000 1.8400 12.2690 10.4424 0.3618 -24985.8451 2629.7904 0.0000 0.0000 4200.1387 -18131.0027 292.4597 -22331.1414 -18122.5932 298.1430 11.4721 12.3067 489202.6307 2.1378 2.1504
ENERGY: 2000 2.6771 11.9117 7.9178 0.6402 -25046.6438 2602.0641 0.0000 0.0000 4234.7429 -18186.6900 294.8692 -22421.4329 -18179.0807 296.8300 -15.4843 -15.2528 465010.4355 -0.2073 -0.2366
ENERGY: 3000 2.2997 11.1962 7.7327 0.3304 -25223.0099 2704.5966 0.0000 0.0000 4373.0523 -18123.8020 304.4998 -22496.8543 -18114.3808 297.9802 45.2917 43.9832 458339.8436 0.0677 0.0876
ENERGY: 4000 1.9400 12.7109 6.2683 0.0121 -24916.0495 2524.2530 0.0000 0.0000 4238.0773 -18132.7879 295.1014 -22370.8652 -18121.9992 297.9192 -50.6248 -50.5249 442438.4454 1.4341 1.4091
ENERGY: 5000 4.3849 14.4850 7.5746 0.1322 -25198.5554 2772.9897 0.0000 0.0000 4300.4457 -18098.5433 299.4441 -22398.9891 -18088.1167 297.9543 117.9543 118.3494 423093.7061 0.7769 0.8124
TCL: Running FEP window  15: Lambda1 0.875  Lambda2 0.9375 [dLambda 0.0625]
TCL: Setting parameter firsttimestep to 0
TCL: Setting parameter alchLambda to 0.875
Info: NONBONDED TABLE R-SQUARED SPACING: 0.0625
Info: NONBONDED TABLE SIZE: 769 POINTS
TCL: Setting parameter alchLambda2 to 0.9375
Info: NONBONDED TABLE R-SQUARED SPACING: 0.0625
Info: NONBONDED TABLE SIZE: 769 POINTS
TCL: Running for 5000 steps
ETITLE: TS BOND ANGLE DIHED IMPRP ELECT VDW BOUNDARY MISC KINETIC TOTAL TEMP POTENTIAL TOTAL3 TEMPAVG PRESSURE GPRESSURE VOLUME PRESSAVG GPRESSAVG
ENERGY: 0 4.3849 14.4850 7.5746 0.1322 -25200.7403 2773.7199 0.0000 0.0000 4300.3147 -18100.1290 299.4350 -22400.4437 -18091.8140 299.4350 119.3578 119.3334 423093.7061 119.3578 119.3334
ENERGY: 1000 4.3091 15.0254 7.3038 0.4335 -24987.9165 2555.5584 0.0000 0.0000 4236.7102 -18168.5761 295.0062 -22405.2863 -18160.3056 297.7916 -47.3078 -47.9982 427195.6340 0.1944 0.2269
ENERGY: 2000 2.4055 11.9925 9.1720 0.1625 -25086.2310 2608.6542 0.0000 0.0000 4334.5201 -18119.3242 301.8168 -22453.8443 -18110.4455 299.1946 -10.9676 -10.5483 415939.1903 3.6822 3.6557
ENERGY: 3000 3.3902 11.8737 7.4743 0.0142 -24996.3364 2564.5095 0.0000 0.0000 4259.8152 -18149.2593 296.6150 -22409.0745 -18141.9515 297.4555 -41.5209 -40.0584 414627.0867 1.2751 1.2632
ENERGY: 4000 2.2178 15.3764 8.1327 0.0427 -25020.4546 2581.4125 0.0000 0.0000 4328.2787 -18084.9937 301.3822 -22413.2725 -18077.7193 297.0201 -26.5324 -26.7944 412752.5575 0.9467 0.9760
ENERGY: 5000 2.9243 12.2712 6.9493 0.1594 -24972.2312 2599.8303 0.0000 0.0000 4272.7720 -18077.3247 297.5172 -22350.0967 -18069.7746 298.9433 25.5266 26.4202 410406.0364 -1.1681 -1.1758
TCL: Running FEP window  16: Lambda1 0.9375 Lambda2 1.0    [dLambda 0.0625]
TCL: Setting parameter firsttimestep to 0
TCL: Setting parameter alchLambda to 0.9375
Info: NONBONDED TABLE R-SQUARED SPACING: 0.0625
Info: NONBONDED TABLE SIZE: 769 POINTS
TCL: Setting parameter alchLambda2 to 1.0
Info: NONBONDED TABLE R-SQUARED SPACING: 0.0625
Info: NONBONDED TABLE SIZE: 769 POINTS
TCL: Running for 5000 steps
ETITLE: TS BOND ANGLE DIHED IMPRP ELECT VDW BOUNDARY MISC KINETIC TOTAL TEMP POTENTIAL TOTAL3 TEMPAVG PRESSURE GPRESSURE VOLUME PRESSAVG GPRESSAVG
ENERGY: 0 2.9243 12.2712 6.9493 0.1594 -24974.3893 2602.0271 0.0000 0.0000 4272.6370 -18077.4211 297.5078 -22350.0581 -18069.2887 297.5078 28.4126 28.4983 410406.0364 28.4126 28.4983
ENERGY: 1000 2.1534 24.0850 8.4814 0.1813 -24979.7178 2562.5955 0.0000 0.0000 4365.5258 -18016.6953 303.9757 -22382.2212 -18008.9883 301.4391 -14.2622 -15.2273 411869.8082 0.4974 0.4903
ENERGY: 2000 3.4780 13.4810 8.6594 0.0006 -25030.2737 2592.8399 0.0000 0.0000 4284.7520 -18127.0629 298.3514 -22411.8149 -18117.8817 297.1276 -41.4553 -42.3650 415746.4452 2.0415 2.0142
ENERGY: 3000 1.1290 17.7818 7.8437 0.0062 -25103.1169 2674.4562 0.0000 0.0000 4236.7324 -18165.1676 295.0077 -22401.9001 -18155.2624 297.8601 29.8821 31.0995 405966.9699 1.2447 1.2672
ENERGY: 4000 1.4274 11.7160 8.3693 0.0073 -24892.2145 2514.6636 0.0000 0.0000 4266.6746 -18089.3563 297.0926 -22356.0309 -18084.1022 298.7460 -65.3991 -65.8812 415545.2759 4.7427 4.7854
ENERGY: 5000 2.4743 18.5711 8.3159 0.0986 -24993.4839 2622.4844 0.0000 0.0000 4224.3395 -18117.2000 294.1448 -22341.5395 -18111.1173 296.5532 -0.1621 -1.5778 410510.3434 1.3298 1.3374
