Info: SIMULATION PARAMETERS:
Info: TIMESTEP               2
Info: NUMBER OF STEPS        0
Info: STEPS PER CYCLE        10
Info: PERIODIC CELL BASIS 1  43.508 0 0
Info: PERIODIC CELL BASIS 2  0 38.729 0
Info: PERIODIC CELL BASIS 3  0 0 38.617
Info: PERIODIC CELL CENTER   0 0 0
Info: WRAPPING WATERS AROUND PERIODIC BOUNDARIES ON OUTPUT.
Info: WRAPPING ALL CLUSTERS AROUND PERIODIC BOUNDARIES ON OUTPUT.
Info: FIRST LDB TIMESTEP     50
Info: LAST LDB TIMESTEP     -1
Info: HOM BACKGROUND SCALING 1
Info: PME BACKGROUND SCALING 1
Info: MIN ATOMS PER PATCH    40
Info: EMPTY PATCH LOAD       40 ATOMS
Info: INITIAL TEMPERATURE    300
Info: CENTER OF MASS MOVING INITIALLY? NO
Info: DIELECTRIC             1
Info: EXCLUDE                SCALED ONE-FOUR
Info: 1-4 ELECTROSTATICS SCALED BY 0.833333
Info: MODIFIED 1-4 VDW PARAMETERS WILL BE USED
Info: DCD FILENAME           mobley_7142697_min.dcd
Info: DCD FREQUENCY          5000
Info: DCD FIRST STEP         5000
Info: DCD FILE WILL CONTAIN UNIT CELL DATA
Info: XST FILENAME           mobley_7142697_min.xst
Info: XST FREQUENCY          5000
Info: NO VELOCITY DCD OUTPUT
Info: NO FORCE DCD OUTPUT
Info: OUTPUT FILENAME        mobley_7142697_min
Info: BINARY OUTPUT FILES WILL BE USED
Info: RESTART FILENAME       mobley_7142697_min.restart
Info: RESTART FREQUENCY      5000
Info: BINARY RESTART FILES WILL BE USED
Info: CUTOFF                 9
Info: PAIRLIST DISTANCE      11
Info: PAIRLIST SHRINK RATE   0.01
Info: PAIRLIST GROW RATE     0.01
Info: PAIRLIST TRIGGER       0.3
Info: PAIRLISTS PER CYCLE    2
Info: PAIRLISTS ENABLED
Info: MARGIN                 8
Info: HYDROGEN GROUP CUTOFF  2.5
Info: PATCH DIMENSION        21.5
Info: ENERGY OUTPUT STEPS    5000
Info: ENERGY EVALUATION STEPS    5000
Info: OUTPUT ENERGY PRECISION 4
Info: CROSSTERM ENERGY INCLUDED IN DIHEDRAL
Info: TIMING OUTPUT STEPS    50000
Info: PRESSURE OUTPUT STEPS  5000
Info: LANGEVIN DYNAMICS ACTIVE
Info: LANGEVIN TEMPERATURE   300
Info: LANGEVIN USING BBK INTEGRATOR
Info: LANGEVIN DAMPING COEFFICIENT IS 1 INVERSE PS
Info: LANGEVIN DYNAMICS APPLIED TO HYDROGENS
Info: LANGEVIN PISTON PRESSURE CONTROL ACTIVE
Info:        TARGET PRESSURE IS 1.01325 BAR
Info:     OSCILLATION PERIOD IS 50 FS
Info:             DECAY TIME IS 25 FS
Info:     PISTON TEMPERATURE IS 300 K
Info:       PRESSURE CONTROL IS GROUP-BASED
Info:    INITIAL STRAIN RATE IS 0 0 0
Info:       CELL FLUCTUATION IS ISOTROPIC
Info: PARTICLE MESH EWALD (PME) ACTIVE
Info: PME TOLERANCE               1e-06
Info: PME EWALD COEFFICIENT       0.348832
Info: PME INTERPOLATION ORDER     4
Info: PME GRID DIMENSIONS         44 40 40
Info: PME MAXIMUM GRID SPACING    1
Info: FULL ELECTROSTATIC EVALUATION FREQUENCY      2
Info: USING VERLET I (r-RESPA) MTS SCHEME.
Info: C1 SPLITTING OF LONG RANGE ELECTROSTATICS
Info: PLACING ATOMS IN PATCHES BY HYDROGEN GROUPS
Info: RIGID BONDS TO HYDROGEN : ALL
Info:         ERROR TOLERANCE : 1e-08
Info:          MAX ITERATIONS : 100
Info: RIGID WATER USING SETTLE ALGORITHM
Info: RANDOM NUMBER SEED     1741387128
Info: USE HYDROGEN BONDS?    NO
Info: Using AMBER format force field!
Info: AMBER PARM FILE        mobley_7142697.prmtop
Info: COORDINATE PDB         mobley_7142697.pdb
Info: Exclusions will be read from PARM file!
Info: SCNB (VDW SCALING)     2
Info: USING ARITHMETIC MEAN TO COMBINE L-J SIGMA PARAMETERS
Info: SUMMARY OF PARAMETERS:
Info: 7 BONDS
Info: 9 ANGLES
Info:   9 HARMONIC
Info:   0 COSINE-BASED
Info: 8 DIHEDRAL
Info: 0 IMPROPER
Info: 0 CROSSTERM
Info: 0 VDW
Info: 28 VDW_PAIRS
Info: 0 NBTHOLE_PAIRS
Info: STRUCTURE SUMMARY:
Info: 4534 ATOMS
Info: 4533 BONDS
Info: 33 ANGLES
Info: 42 DIHEDRALS
Info: 0 IMPROPERS
Info: 0 CROSSTERMS
Info: 4608 EXCLUSIONS
Info: 4528 RIGID BONDS
Info: 9074 DEGREES OF FREEDOM
Info: 1511 HYDROGEN GROUPS
Info: 4 ATOMS IN LARGEST HYDROGEN GROUP
Info: 1511 MIGRATION GROUPS
Info: 4 ATOMS IN LARGEST MIGRATION GROUP
Info: TOTAL MASS = 27201.2 amu
Info: TOTAL CHARGE = -0.000300042 e
Info: MASS DENSITY = 0.694167 g/cm^3
Info: ATOM DENSITY = 0.0696783 atoms/A^3
Info: ADDED 0 IMPLICIT EXCLUSIONS
Info: NONBONDED TABLE R-SQUARED SPACING: 0.0625
Info: NONBONDED TABLE SIZE: 705 POINTS
Info: REMOVING COM VELOCITY -0.102979 0.0853057 0.162411
TCL: Minimizing for 2000 steps
ETITLE: TS BOND ANGLE DIHED IMPRP ELECT VDW BOUNDARY MISC KINETIC TOTAL TEMP POTENTIAL TOTAL3 TEMPAVG PRESSURE GPRESSURE VOLUME PRESSAVG GPRESSAVG
ENERGY: 0 0.2809 5.7174 1.0888 0.0000 -13997.5175 1592.2852 0.0000 0.0000 0.0000 -12398.1452 0.0000 -12398.1452 -12398.1452 0.0000 10600.7179 -14871.4170 65070.4688 10600.7179 -14871.4170
ENERGY: 400 1.2884 3.1472 0.1744 0.0000 -18881.3524 2750.3559 0.0000 0.0000 0.0000 -16126.3864 0.0000 -16126.3864 -16126.3864 0.0000 15045.4621 14198.2590 65070.4688 15045.4621 14198.2590
ENERGY: 800 0.9641 0.9097 0.2940 0.0000 -20100.8657 3372.8185 0.0000 0.0000 0.0000 -16725.8794 0.0000 -16725.8794 -16725.8794 0.0000 18050.2469 17065.9891 65070.4688 18050.2469 17065.9891
ENERGY: 1200 0.2755 0.7043 0.1846 0.0000 -20443.2887 3503.2743 0.0000 0.0000 0.0000 -16938.8500 0.0000 -16938.8500 -16938.8500 0.0000 18738.8500 17731.4546 65070.4688 18738.8500 17731.4546
ENERGY: 1600 6.6959 3.3574 0.2522 0.0000 -20660.1060 3571.0806 0.0000 0.0000 0.0000 -17078.7198 0.0000 -17078.7198 -17078.7198 0.0000 19131.0800 18137.7735 65070.4688 19131.0800 18137.7735
ENERGY: 2000 0.0718 0.4032 0.1198 0.0000 -20749.9375 3593.1583 0.0000 0.0000 0.0000 -17156.1844 0.0000 -17156.1844 -17156.1844 0.0000 19271.3412 18218.5853 65070.4688 19271.3412 18218.5853
TCL: Exiting due to exit command.
Info: NAMD 3.0.1 for Linux-x86_64-multicore
Info: Please visit http://www.ks.uiuc.edu/Research/namd/
Info: for updates, documentation, and support information.
Info: Please cite Phillips et al., J. Chem. Phys. 153:044130 (2020) doi:10.1063/5.0014475
Info: in all publications reporting results obtained with NAMD.
Info: Based on Charm++/Converse 80000 for multicore-linux-x86_64-gcc
Info: Built Mon Oct 14 11:11:06 CDT 2024 by dhardy on athine.ks.uiuc.edu
Info: 1 NAMD  3.0.1  Linux-x86_64-multicore  16    k014  z5358697
Info: Running on 16 processors, 1 nodes, 1 physical nodes.
Info: CPU topology information available.
Info: Charm++/Converse parallel runtime startup completed at 0.00981034 s
Info: 1043.45 MB of memory in use based on /proc/self/stat
Info: Configuration file is mobley_7142697_equil.namd
Info: Working in the current directory /srv/scratch/z5358697/prod_prep_9/7142697
TCL: Running 25000 steps at 30 kelvin.
TCL: Suspending until startup complete.
Info: SIMULATION PARAMETERS:
Info: TIMESTEP               2
Info: NUMBER OF STEPS        0
Info: STEPS PER CYCLE        10
Info: PERIODIC CELL BASIS 1  43.508 0 0
Info: PERIODIC CELL BASIS 2  0 38.729 0
Info: PERIODIC CELL BASIS 3  0 0 38.617
Info: PERIODIC CELL CENTER   0 0 0
Info: WRAPPING WATERS AROUND PERIODIC BOUNDARIES ON OUTPUT.
Info: WRAPPING ALL CLUSTERS AROUND PERIODIC BOUNDARIES ON OUTPUT.
Info: FIRST LDB TIMESTEP     50
Info: LAST LDB TIMESTEP     -1
Info: HOM BACKGROUND SCALING 1
Info: PME BACKGROUND SCALING 1
Info: MIN ATOMS PER PATCH    40
Info: EMPTY PATCH LOAD       40 ATOMS
Info: INITIAL TEMPERATURE    300
Info: CENTER OF MASS MOVING INITIALLY? NO
Info: DIELECTRIC             1
Info: EXCLUDE                SCALED ONE-FOUR
Info: 1-4 ELECTROSTATICS SCALED BY 0.833333
Info: MODIFIED 1-4 VDW PARAMETERS WILL BE USED
Info: DCD FILENAME           mobley_7142697_equil.dcd
Info: DCD FREQUENCY          5000
Info: DCD FIRST STEP         5000
Info: DCD FILE WILL CONTAIN UNIT CELL DATA
Info: XST FILENAME           mobley_7142697_equil.xst
Info: XST FREQUENCY          5000
Info: NO VELOCITY DCD OUTPUT
Info: NO FORCE DCD OUTPUT
Info: OUTPUT FILENAME        mobley_7142697_equil
Info: BINARY OUTPUT FILES WILL BE USED
Info: RESTART FILENAME       mobley_7142697_equil.restart
Info: RESTART FREQUENCY      5000
Info: BINARY RESTART FILES WILL BE USED
Info: CUTOFF                 9
Info: PAIRLIST DISTANCE      11
Info: PAIRLIST SHRINK RATE   0.01
Info: PAIRLIST GROW RATE     0.01
Info: PAIRLIST TRIGGER       0.3
Info: PAIRLISTS PER CYCLE    2
Info: PAIRLISTS ENABLED
Info: MARGIN                 8
Info: HYDROGEN GROUP CUTOFF  2.5
Info: PATCH DIMENSION        21.5
Info: ENERGY OUTPUT STEPS    5000
Info: ENERGY EVALUATION STEPS    5000
Info: OUTPUT ENERGY PRECISION 4
Info: CROSSTERM ENERGY INCLUDED IN DIHEDRAL
Info: TIMING OUTPUT STEPS    50000
Info: PRESSURE OUTPUT STEPS  5000
Info: LANGEVIN DYNAMICS ACTIVE
Info: LANGEVIN TEMPERATURE   30
Info: LANGEVIN USING BBK INTEGRATOR
Info: LANGEVIN DAMPING COEFFICIENT IS 1 INVERSE PS
Info: LANGEVIN DYNAMICS APPLIED TO HYDROGENS
Info: LANGEVIN PISTON PRESSURE CONTROL ACTIVE
Info:        TARGET PRESSURE IS 1.01325 BAR
Info:     OSCILLATION PERIOD IS 50 FS
Info:             DECAY TIME IS 25 FS
Info:     PISTON TEMPERATURE IS 300 K
Info:       PRESSURE CONTROL IS GROUP-BASED
Info:    INITIAL STRAIN RATE IS 0 0 0
Info:       CELL FLUCTUATION IS ISOTROPIC
Info: PARTICLE MESH EWALD (PME) ACTIVE
Info: PME TOLERANCE               1e-06
Info: PME EWALD COEFFICIENT       0.348832
Info: PME INTERPOLATION ORDER     4
Info: PME GRID DIMENSIONS         44 40 40
Info: PME MAXIMUM GRID SPACING    1
Info: FULL ELECTROSTATIC EVALUATION FREQUENCY      2
Info: USING VERLET I (r-RESPA) MTS SCHEME.
Info: C1 SPLITTING OF LONG RANGE ELECTROSTATICS
Info: PLACING ATOMS IN PATCHES BY HYDROGEN GROUPS
Info: RIGID BONDS TO HYDROGEN : ALL
Info:         ERROR TOLERANCE : 1e-08
Info:          MAX ITERATIONS : 100
Info: RIGID WATER USING SETTLE ALGORITHM
Info: RANDOM NUMBER SEED     1741387147
Info: USE HYDROGEN BONDS?    NO
Info: Using AMBER format force field!
Info: AMBER PARM FILE        mobley_7142697.prmtop
Info: COORDINATE PDB         mobley_7142697.pdb
Info: Exclusions will be read from PARM file!
Info: SCNB (VDW SCALING)     2
Info: USING ARITHMETIC MEAN TO COMBINE L-J SIGMA PARAMETERS
Info: BINARY COORDINATES     mobley_7142697_min.coor
Info: SUMMARY OF PARAMETERS:
Info: 7 BONDS
Info: 9 ANGLES
Info: 8 DIHEDRAL
Info: 0 IMPROPER
Info: 0 CROSSTERM
Info: 0 VDW
Info: 28 VDW_PAIRS
Info: 0 NBTHOLE_PAIRS
Info: STRUCTURE SUMMARY:
Info: 4534 ATOMS
Info: 4533 BONDS
Info: 33 ANGLES
Info: 42 DIHEDRALS
Info: 0 IMPROPERS
Info: 0 CROSSTERMS
Info: 4608 EXCLUSIONS
Info: 4528 RIGID BONDS
Info: 9074 DEGREES OF FREEDOM
Info: 1511 HYDROGEN GROUPS
Info: 4 ATOMS IN LARGEST HYDROGEN GROUP
Info: 1511 MIGRATION GROUPS
Info: 4 ATOMS IN LARGEST MIGRATION GROUP
Info: TOTAL MASS = 27201.2 amu
Info: TOTAL CHARGE = -0.000300042 e
Info: MASS DENSITY = 0.694167 g/cm^3
Info: ATOM DENSITY = 0.0696783 atoms/A^3
Info: ADDED 0 IMPLICIT EXCLUSIONS
Info: NONBONDED TABLE R-SQUARED SPACING: 0.0625
Info: NONBONDED TABLE SIZE: 705 POINTS
Info: REMOVING COM VELOCITY 0.0406692 0.216118 -0.0613343
TCL: Running for 25000 steps
ETITLE: TS BOND ANGLE DIHED IMPRP ELECT VDW BOUNDARY MISC KINETIC TOTAL TEMP POTENTIAL TOTAL3 TEMPAVG PRESSURE GPRESSURE VOLUME PRESSAVG GPRESSAVG
ENERGY: 0 0.0718 0.4032 0.1198 0.0000 -20749.9375 3593.1583 0.0000 0.0000 2677.2672 -14478.9172 296.9500 -17156.1844 -14478.3819 296.9500 209.3542 244.8049 65070.4688 209.3542 244.8049
ENERGY: 5000 0.0742 1.4122 0.2862 0.0000 -21766.3551 3820.9000 0.0000 0.0000 272.2683 -17671.4142 30.1987 -17943.6824 -17670.6853 47.3878 183.3559 250.0889 44664.4686 3.5834 3.6237
ENERGY: 10000 0.2139 0.9275 0.3747 0.0000 -21740.4252 3766.9703 0.0000 0.0000 278.0734 -17693.8654 30.8426 -17971.9389 -17693.1006 30.4488 -92.6348 -32.2718 44546.8484 3.2945 3.2731
ENERGY: 15000 0.1602 1.2529 0.1455 0.0000 -21718.4305 3749.1069 0.0000 0.0000 268.3884 -17699.3767 29.7684 -17967.7651 -17699.0447 30.2159 -243.0373 -196.3766 44758.0858 -1.4427 -1.4407
ENERGY: 20000 0.2376 1.6103 0.2942 0.0000 -21760.9829 3778.7711 0.0000 0.0000 277.2008 -17702.8689 30.7458 -17980.0697 -17702.2928 30.1513 -123.3497 -60.0195 44709.6772 3.0807 3.0680
ENERGY: 25000 0.2358 0.8969 0.1664 0.0000 -21909.8510 3912.2222 0.0000 0.0000 274.9430 -17721.3866 30.4954 -17996.3296 -17720.7705 30.3536 671.4410 712.2060 44344.3062 4.8153 4.9396
TCL: Running 25000 steps at 60 kelvin.
TCL: Setting parameter langevinTemp to 60
TCL: Running for 25000 steps
ETITLE: TS BOND ANGLE DIHED IMPRP ELECT VDW BOUNDARY MISC KINETIC TOTAL TEMP POTENTIAL TOTAL3 TEMPAVG PRESSURE GPRESSURE VOLUME PRESSAVG GPRESSAVG
ENERGY: 25000 0.2358 0.8969 0.1664 0.0000 -21909.8510 3912.2222 0.0000 0.0000 274.8025 -17721.5272 30.4798 -17996.3296 -17721.0054 30.4798 659.3311 712.1957 44344.3062 659.3311 712.1957
ENERGY: 30000 0.7761 2.0944 0.2747 0.0000 -21294.5230 3549.4646 0.0000 0.0000 539.7497 -17202.1635 59.8665 -17741.9132 -17200.5933 57.0996 -747.6525 -705.8227 44862.6974 -2.0913 -1.8955
ENERGY: 35000 0.3599 1.5820 0.4012 0.0000 -21589.3075 3801.7001 0.0000 0.0000 524.6400 -17260.6242 58.1906 -17785.2642 -17258.9988 60.4033 545.3620 604.3541 44578.9708 -1.4559 -1.1137
ENERGY: 40000 0.5297 1.7620 0.2979 0.0000 -21466.9437 3668.1663 0.0000 0.0000 538.4495 -17257.7383 59.7223 -17796.1878 -17257.1284 59.7397 -176.3254 -94.2268 44406.9509 2.2136 2.3096
ENERGY: 45000 0.3651 1.7130 0.2131 0.0000 -21482.7535 3640.8562 0.0000 0.0000 532.8751 -17306.7310 59.1040 -17839.6061 -17305.0155 59.9659 -377.4562 -320.2841 44375.5474 6.6539 6.4836
ENERGY: 50000 0.1452 1.4587 0.1847 0.0000 -21650.8750 3770.8336 0.0000 0.0000 542.3813 -17335.8715 60.1584 -17878.2528 -17334.3882 59.8365 393.1772 434.9500 43764.6501 3.3633 3.4805
TCL: Running 25000 steps at 90 kelvin.
TCL: Setting parameter langevinTemp to 90
TCL: Running for 25000 steps
ETITLE: TS BOND ANGLE DIHED IMPRP ELECT VDW BOUNDARY MISC KINETIC TOTAL TEMP POTENTIAL TOTAL3 TEMPAVG PRESSURE GPRESSURE VOLUME PRESSAVG GPRESSAVG
ENERGY: 50000 0.1452 1.4587 0.1847 0.0000 -21650.8750 3770.8336 0.0000 0.0000 542.1107 -17336.1421 60.1284 -17878.2528 -17335.1447 60.1284 384.6747 434.8659 43764.6501 384.6747 434.8659
ENERGY: 55000 0.3295 3.4580 0.5741 0.0000 -21190.8525 3579.0142 0.0000 0.0000 801.0897 -16806.3869 88.8531 -17607.4766 -16803.6765 87.2986 -74.3541 -39.6246 44133.3919 9.7295 9.5832
ENERGY: 60000 0.3736 2.8028 0.7583 0.0000 -21195.3295 3538.2988 0.0000 0.0000 827.7693 -16825.3268 91.8123 -17653.0961 -16823.6692 89.6813 -239.3078 -215.1212 44001.1437 0.8428 0.7820
ENERGY: 65000 0.4345 3.8184 0.3278 0.0000 -21384.2849 3744.2064 0.0000 0.0000 821.6019 -16813.8959 91.1283 -17635.4978 -16812.0604 90.0208 839.1452 885.6030 43774.2620 4.5178 4.4311
ENERGY: 70000 0.4661 2.8383 0.9026 0.0000 -21242.4449 3581.8020 0.0000 0.0000 802.2727 -16854.1631 88.9844 -17656.4358 -16851.4154 90.6113 -248.7043 -188.9767 44139.4477 7.4389 7.7854
ENERGY: 75000 0.3846 1.5968 0.1341 0.0000 -21176.4491 3494.4692 0.0000 0.0000 832.7124 -16847.1521 92.3606 -17679.8645 -16845.5265 89.9896 -612.4203 -574.3913 44020.5655 3.1802 3.1100
TCL: Running 25000 steps at 120 kelvin.
TCL: Setting parameter langevinTemp to 120
TCL: Running for 25000 steps
ETITLE: TS BOND ANGLE DIHED IMPRP ELECT VDW BOUNDARY MISC KINETIC TOTAL TEMP POTENTIAL TOTAL3 TEMPAVG PRESSURE GPRESSURE VOLUME PRESSAVG GPRESSAVG
ENERGY: 75000 0.3846 1.5968 0.1341 0.0000 -21176.4491 3494.4692 0.0000 0.0000 832.3051 -16847.5594 92.3154 -17679.8645 -16845.6961 92.3154 -619.4727 -574.8285 44020.5655 -619.4727 -574.8285
ENERGY: 80000 0.4339 3.4228 0.5088 0.0000 -20950.0430 3589.4520 0.0000 0.0000 1113.6094 -16242.6160 123.5164 -17356.2254 -16241.3138 117.4264 666.3729 726.1840 44040.1425 4.8908 4.7183
ENERGY: 85000 1.4048 6.5958 0.7330 0.0000 -20886.8984 3466.4616 0.0000 0.0000 1063.8973 -16347.8058 118.0025 -17411.7032 -16344.1556 121.1614 -262.1712 -184.0588 44076.1332 3.7030 3.5168
ENERGY: 90000 1.2772 4.7692 1.5816 0.0000 -20745.9129 3323.0908 0.0000 0.0000 1070.5435 -16344.6507 118.7397 -17415.1942 -16342.5282 119.6597 -1014.8651 -951.1278 44276.1763 4.7029 4.7887
ENERGY: 95000 0.7607 5.5468 0.7929 0.0000 -20958.6192 3494.9222 0.0000 0.0000 1091.3671 -16365.2295 121.0494 -17456.5967 -16361.9542 120.2514 -131.9975 -35.2870 43915.6800 0.0294 0.2042
ENERGY: 100000 0.7293 1.8941 0.5447 0.0000 -21104.9452 3627.2007 0.0000 0.0000 1093.7660 -16380.8103 121.3154 -17474.5763 -16378.0464 119.4217 616.1825 685.0111 43724.2479 6.4320 6.7947
TCL: Running 25000 steps at 150 kelvin.
TCL: Setting parameter langevinTemp to 150
TCL: Running for 25000 steps
ETITLE: TS BOND ANGLE DIHED IMPRP ELECT VDW BOUNDARY MISC KINETIC TOTAL TEMP POTENTIAL TOTAL3 TEMPAVG PRESSURE GPRESSURE VOLUME PRESSAVG GPRESSAVG
ENERGY: 100000 0.7293 1.8941 0.5447 0.0000 -21104.9452 3627.2007 0.0000 0.0000 1093.2255 -16381.3509 121.2555 -17474.5763 -16379.5353 121.2555 624.2037 685.3153 43724.2479 624.2037 685.3153
ENERGY: 105000 0.6482 4.9665 0.7151 0.0000 -20666.9231 3500.3677 0.0000 0.0000 1358.4841 -15801.7414 150.6767 -17160.2256 -15798.9506 147.9682 666.9579 755.9698 43792.0290 3.2630 3.0705
ENERGY: 110000 0.2784 5.5031 1.0181 0.0000 -20543.7352 3345.3375 0.0000 0.0000 1365.1116 -15826.4865 151.4118 -17191.5980 -15822.1178 150.4178 -299.4706 -226.0713 44152.2492 4.9066 5.0179
ENERGY: 115000 0.2730 5.7141 0.5256 0.0000 -20566.8257 3370.3878 0.0000 0.0000 1355.0141 -15834.9112 150.2918 -17189.9253 -15832.0431 150.9089 -109.6500 -44.5459 43972.8450 -0.1093 -0.1973
ENERGY: 120000 0.7988 4.2029 0.2299 0.0000 -20613.6071 3393.7022 0.0000 0.0000 1347.8672 -15866.8061 149.4991 -17214.6733 -15864.0867 149.8189 -25.1504 5.2507 44035.3987 4.3076 3.8926
ENERGY: 125000 0.3923 3.7803 1.0107 0.0000 -20650.7740 3427.4297 0.0000 0.0000 1345.3121 -15872.8490 149.2157 -17218.1610 -15869.3193 150.4482 176.9630 230.8526 43916.5777 9.5417 9.2610
TCL: Running 50000 steps at 180 kelvin.
TCL: Setting parameter langevinTemp to 180
TCL: Running for 50000 steps
ETITLE: TS BOND ANGLE DIHED IMPRP ELECT VDW BOUNDARY MISC KINETIC TOTAL TEMP POTENTIAL TOTAL3 TEMPAVG PRESSURE GPRESSURE VOLUME PRESSAVG GPRESSAVG
ENERGY: 125000 0.3923 3.7803 1.0107 0.0000 -20650.7740 3427.4297 0.0000 0.0000 1344.6329 -15873.5282 149.1404 -17218.1610 -15870.6961 149.1404 166.2906 231.0151 43916.5777 166.2906 231.0151
ENERGY: 135000 0.6772 3.4533 1.5492 0.0000 -20023.5211 3200.2293 0.0000 0.0000 1616.8595 -15200.7526 179.3345 -16817.6121 -15197.2866 179.7414 -93.2296 27.4527 43860.2844 2.0310 2.0408
ENERGY: 145000 0.1759 5.1116 0.8623 0.0000 -19915.8288 3085.1175 0.0000 0.0000 1597.9187 -15226.6428 177.2337 -16824.5615 -15223.5356 180.0466 -766.1450 -664.4149 44175.5795 -2.4695 -1.9262
ENERGY: 155000 1.2388 4.5827 0.5758 0.0000 -19937.0844 3091.7409 0.0000 0.0000 1629.0250 -15209.9212 180.6839 -16838.9462 -15204.2631 180.0143 -697.8454 -669.7981 44139.6698 7.7037 7.3853
ENERGY: 165000 0.4094 8.2203 0.7948 0.0000 -20103.8962 3253.1630 0.0000 0.0000 1610.9165 -15230.3923 178.6754 -16841.3088 -15227.1592 180.6869 425.3843 463.3197 43472.7502 2.0557 1.9662
ENERGY: 175000 1.1435 7.4002 0.6862 0.0000 -19833.9360 3000.4614 0.0000 0.0000 1637.8661 -15186.3786 181.6645 -16824.2446 -15181.4536 179.2510 -1181.7703 -1124.9717 44080.3209 0.5472 0.9108
TCL: Running 50000 steps at 210 kelvin.
TCL: Setting parameter langevinTemp to 210
TCL: Running for 50000 steps
ETITLE: TS BOND ANGLE DIHED IMPRP ELECT VDW BOUNDARY MISC KINETIC TOTAL TEMP POTENTIAL TOTAL3 TEMPAVG PRESSURE GPRESSURE VOLUME PRESSAVG GPRESSAVG
ENERGY: 175000 1.1435 7.4002 0.6862 0.0000 -19833.9360 3000.4614 0.0000 0.0000 1637.0425 -15187.2021 181.5731 -16824.2446 -15183.7630 181.5731 -1185.6054 -1125.3443 44080.3209 -1185.6054 -1125.3443
ENERGY: 185000 2.2814 6.2052 0.4828 0.0000 -19224.9944 2996.5436 0.0000 0.0000 1890.5787 -14328.9027 209.6942 -16219.4813 -14324.6627 209.3010 91.9921 152.3582 44335.6499 -0.0145 0.0626
ENERGY: 195000 1.1462 8.8675 1.4481 0.0000 -19089.4093 2901.9267 0.0000 0.0000 1885.4735 -14290.5473 209.1279 -16176.0208 -14286.9944 210.3617 -120.7075 -25.5355 43929.7770 5.0131 4.6744
ENERGY: 205000 0.9319 5.9510 1.9422 0.0000 -19199.0651 2998.8757 0.0000 0.0000 1906.5294 -14284.8350 211.4634 -16191.3643 -14278.5075 211.4337 482.1729 492.9655 44067.2049 2.8415 2.6932
ENERGY: 215000 1.9845 6.4478 1.3510 0.0000 -19022.4277 2832.4867 0.0000 0.0000 1815.1151 -14365.0426 201.3241 -16180.1577 -14363.0830 210.4823 -513.2006 -440.1103 44429.6449 1.1828 1.2185
ENERGY: 225000 1.3241 6.4006 0.6738 0.0000 -19068.1955 2948.4039 0.0000 0.0000 1880.1988 -14231.1943 208.5429 -16111.3931 -14226.2669 210.0566 -9.6001 92.4489 44521.0886 4.0605 4.8048
TCL: Running 50000 steps at 240 kelvin.
TCL: Setting parameter langevinTemp to 240
TCL: Running for 50000 steps
ETITLE: TS BOND ANGLE DIHED IMPRP ELECT VDW BOUNDARY MISC KINETIC TOTAL TEMP POTENTIAL TOTAL3 TEMPAVG PRESSURE GPRESSURE VOLUME PRESSAVG GPRESSAVG
ENERGY: 225000 1.3241 6.4006 0.6738 0.0000 -19068.1955 2948.4039 0.0000 0.0000 1879.2843 -14232.1088 208.4415 -16111.3931 -14229.0602 208.4415 12.0712 93.1121 44521.0886 12.0712 93.1121
ENERGY: 235000 0.4536 8.8231 0.5523 0.0000 -18232.8266 2702.5343 0.0000 0.0000 2145.8479 -13374.6154 238.0074 -15520.4633 -13368.5037 240.5739 192.8888 279.8755 44712.8177 -0.9159 -0.9573
ENERGY: 245000 1.4132 6.9486 2.2652 0.0000 -18070.7643 2581.9206 0.0000 0.0000 2163.1179 -13315.0988 239.9230 -15478.2166 -13309.8245 240.4058 -559.5657 -468.5007 45214.4194 3.7469 4.0124
ENERGY: 255000 0.9150 6.0610 0.5665 0.0000 -18156.4832 2648.6015 0.0000 0.0000 2168.7873 -13331.5518 240.5518 -15500.3391 -13327.7883 241.2197 61.2994 156.4209 44548.3022 3.0703 3.4829
ENERGY: 265000 0.9330 7.2684 0.8782 0.0000 -18303.9820 2754.7160 0.0000 0.0000 2189.0931 -13351.0933 242.8040 -15540.1863 -13348.0065 239.9417 504.6395 635.8869 44398.3177 7.4755 7.2445
ENERGY: 275000 1.4542 7.3202 2.0272 0.0000 -17993.4197 2564.5514 0.0000 0.0000 2118.2304 -13299.8362 234.9442 -15418.0666 -13293.7742 241.1619 -431.1869 -354.6952 44962.7284 1.3885 1.0523
TCL: Running 50000 steps at 270 kelvin.
TCL: Setting parameter langevinTemp to 270
TCL: Running for 50000 steps
ETITLE: TS BOND ANGLE DIHED IMPRP ELECT VDW BOUNDARY MISC KINETIC TOTAL TEMP POTENTIAL TOTAL3 TEMPAVG PRESSURE GPRESSURE VOLUME PRESSAVG GPRESSAVG
ENERGY: 275000 1.4542 7.3202 2.0272 0.0000 -17993.4197 2564.5514 0.0000 0.0000 2117.1215 -13300.9451 234.8213 -15418.0666 -13297.7484 234.8213 -431.5093 -354.1591 44962.7284 -431.5093 -354.1591
ENERGY: 285000 1.3136 10.1342 1.5781 0.0000 -17390.1433 2425.1653 0.0000 0.0000 2413.7496 -12538.2026 267.7219 -14951.9522 -12532.8538 269.9256 -207.1427 -132.9195 45646.4869 1.9194 1.9674
ENERGY: 295000 0.5341 7.4573 1.4535 0.0000 -17217.9550 2386.0239 0.0000 0.0000 2403.0043 -12419.4819 266.5300 -14822.4862 -12413.4885 269.5869 -138.8728 -12.2576 45242.3450 -2.5640 -2.3509
ENERGY: 305000 1.3806 8.4536 0.7070 0.0000 -17132.7655 2335.5021 0.0000 0.0000 2450.5981 -12336.1241 271.8089 -14786.7222 -12329.7354 269.9399 -316.3879 -130.7879 45132.1529 2.7941 2.4446
ENERGY: 315000 1.5762 7.2799 1.2455 0.0000 -17118.2632 2341.5190 0.0000 0.0000 2437.7611 -12328.8814 270.3851 -14766.6425 -12325.4190 271.6816 -381.8357 -312.5652 46137.4958 -1.0686 -1.1452
ENERGY: 325000 0.6296 9.7499 0.7764 0.0000 -17298.3788 2447.9928 0.0000 0.0000 2440.1753 -12399.0547 270.6529 -14839.2301 -12393.3198 272.5139 157.4277 289.7481 45332.8693 1.9039 2.3482
TCL: Running 1000000 steps at 300 kelvin.
TCL: Setting parameter langevinTemp to 300
TCL: Running for 1000000 steps
ETITLE: TS BOND ANGLE DIHED IMPRP ELECT VDW BOUNDARY MISC KINETIC TOTAL TEMP POTENTIAL TOTAL3 TEMPAVG PRESSURE GPRESSURE VOLUME PRESSAVG GPRESSAVG
ENERGY: 325000 0.6296 9.7499 0.7764 0.0000 -17298.3788 2447.9928 0.0000 0.0000 2438.9352 -12400.2948 270.5153 -14839.2301 -12396.5498 270.5153 201.2359 289.7218 45332.8693 201.2359 289.7218
ENERGY: 525000 1.5305 9.1446 4.0679 0.0000 -16392.0733 2189.2228 0.0000 0.0000 2678.4543 -11509.6533 297.0817 -14188.1076 -11504.7213 300.6631 -56.6003 33.4261 46666.7761 4.1505 4.5208
ENERGY: 725000 2.2342 9.6680 0.9638 0.0000 -16536.6080 2307.2982 0.0000 0.0000 2691.8150 -11524.6288 298.5636 -14216.4438 -11517.0043 299.1418 227.5017 328.2538 47182.6698 1.8246 2.1402
ENERGY: 925000 0.6144 7.7643 1.3235 0.0000 -16318.2375 2097.6193 0.0000 0.0000 2737.0454 -11473.8706 303.5803 -14210.9160 -11468.4667 300.8546 -472.8375 -402.4491 46575.5431 1.9879 2.2002
ENERGY: 1125000 0.4999 9.2456 1.9287 0.0000 -16194.6705 2036.7553 0.0000 0.0000 2735.3192 -11410.9218 303.3889 -14146.2410 -11406.3373 300.2866 -928.2284 -863.2260 47332.7550 0.2303 0.4108
ENERGY: 1325000 0.7291 9.7710 1.1882 0.0000 -16393.8793 2209.8759 0.0000 0.0000 2696.9930 -11475.3220 299.1379 -14172.3150 -11467.6876 300.7774 -22.3997 35.4895 46960.3652 6.6422 6.7134
TCL: Exiting due to exit command.
