Info: SIMULATION PARAMETERS:
Info: TIMESTEP               2
Info: NUMBER OF STEPS        0
Info: STEPS PER CYCLE        10
Info: PERIODIC CELL BASIS 1  41.123 0 0
Info: PERIODIC CELL BASIS 2  0 39.757 0
Info: PERIODIC CELL BASIS 3  0 0 42.009
Info: PERIODIC CELL CENTER   0 0 0
Info: WRAPPING WATERS AROUND PERIODIC BOUNDARIES ON OUTPUT.
Info: WRAPPING ALL CLUSTERS AROUND PERIODIC BOUNDARIES ON OUTPUT.
Info: FIRST LDB TIMESTEP     50
Info: LAST LDB TIMESTEP     -1
Info: HOM BACKGROUND SCALING 1
Info: PME BACKGROUND SCALING 1
Info: MIN ATOMS PER PATCH    40
Info: EMPTY PATCH LOAD       40 ATOMS
Info: INITIAL TEMPERATURE    300
Info: CENTER OF MASS MOVING INITIALLY? NO
Info: DIELECTRIC             1
Info: EXCLUDE                SCALED ONE-FOUR
Info: 1-4 ELECTROSTATICS SCALED BY 0.833333
Info: MODIFIED 1-4 VDW PARAMETERS WILL BE USED
Info: DCD FILENAME           mobley_5747188_min.dcd
Info: DCD FREQUENCY          5000
Info: DCD FIRST STEP         5000
Info: DCD FILE WILL CONTAIN UNIT CELL DATA
Info: XST FILENAME           mobley_5747188_min.xst
Info: XST FREQUENCY          5000
Info: NO VELOCITY DCD OUTPUT
Info: NO FORCE DCD OUTPUT
Info: OUTPUT FILENAME        mobley_5747188_min
Info: BINARY OUTPUT FILES WILL BE USED
Info: RESTART FILENAME       mobley_5747188_min.restart
Info: RESTART FREQUENCY      5000
Info: BINARY RESTART FILES WILL BE USED
Info: CUTOFF                 9
Info: PAIRLIST DISTANCE      11
Info: PAIRLIST SHRINK RATE   0.01
Info: PAIRLIST GROW RATE     0.01
Info: PAIRLIST TRIGGER       0.3
Info: PAIRLISTS PER CYCLE    2
Info: PAIRLISTS ENABLED
Info: MARGIN                 8
Info: HYDROGEN GROUP CUTOFF  2.5
Info: PATCH DIMENSION        21.5
Info: ENERGY OUTPUT STEPS    5000
Info: ENERGY EVALUATION STEPS    5000
Info: OUTPUT ENERGY PRECISION 4
Info: CROSSTERM ENERGY INCLUDED IN DIHEDRAL
Info: TIMING OUTPUT STEPS    50000
Info: PRESSURE OUTPUT STEPS  5000
Info: LANGEVIN DYNAMICS ACTIVE
Info: LANGEVIN TEMPERATURE   300
Info: LANGEVIN USING BBK INTEGRATOR
Info: LANGEVIN DAMPING COEFFICIENT IS 1 INVERSE PS
Info: LANGEVIN DYNAMICS APPLIED TO HYDROGENS
Info: LANGEVIN PISTON PRESSURE CONTROL ACTIVE
Info:        TARGET PRESSURE IS 1.01325 BAR
Info:     OSCILLATION PERIOD IS 50 FS
Info:             DECAY TIME IS 25 FS
Info:     PISTON TEMPERATURE IS 300 K
Info:       PRESSURE CONTROL IS GROUP-BASED
Info:    INITIAL STRAIN RATE IS 0 0 0
Info:       CELL FLUCTUATION IS ISOTROPIC
Info: PARTICLE MESH EWALD (PME) ACTIVE
Info: PME TOLERANCE               1e-06
Info: PME EWALD COEFFICIENT       0.348832
Info: PME INTERPOLATION ORDER     4
Info: PME GRID DIMENSIONS         44 40 44
Info: PME MAXIMUM GRID SPACING    1
Info: FULL ELECTROSTATIC EVALUATION FREQUENCY      2
Info: USING VERLET I (r-RESPA) MTS SCHEME.
Info: C1 SPLITTING OF LONG RANGE ELECTROSTATICS
Info: PLACING ATOMS IN PATCHES BY HYDROGEN GROUPS
Info: RIGID BONDS TO HYDROGEN : ALL
Info:         ERROR TOLERANCE : 1e-08
Info:          MAX ITERATIONS : 100
Info: RIGID WATER USING SETTLE ALGORITHM
Info: RANDOM NUMBER SEED     1741351812
Info: USE HYDROGEN BONDS?    NO
Info: Using AMBER format force field!
Info: AMBER PARM FILE        mobley_5747188.prmtop
Info: COORDINATE PDB         mobley_5747188.pdb
Info: Exclusions will be read from PARM file!
Info: SCNB (VDW SCALING)     2
Info: USING ARITHMETIC MEAN TO COMBINE L-J SIGMA PARAMETERS
Info: SUMMARY OF PARAMETERS:
Info: 8 BONDS
Info: 8 ANGLES
Info:   8 HARMONIC
Info:   0 COSINE-BASED
Info: 4 DIHEDRAL
Info: 0 IMPROPER
Info: 0 CROSSTERM
Info: 0 VDW
Info: 36 VDW_PAIRS
Info: 0 NBTHOLE_PAIRS
Info: STRUCTURE SUMMARY:
Info: 4979 ATOMS
Info: 4979 BONDS
Info: 27 ANGLES
Info: 39 DIHEDRALS
Info: 0 IMPROPERS
Info: 0 CROSSTERMS
Info: 5037 EXCLUSIONS
Info: 4969 RIGID BONDS
Info: 9968 DEGREES OF FREEDOM
Info: 1664 HYDROGEN GROUPS
Info: 4 ATOMS IN LARGEST HYDROGEN GROUP
Info: 1664 MIGRATION GROUPS
Info: 4 ATOMS IN LARGEST MIGRATION GROUP
Info: TOTAL MASS = 29935.6 amu
Info: TOTAL CHARGE = 0.000100022 e
Info: MASS DENSITY = 0.72378 g/cm^3
Info: ATOM DENSITY = 0.0724939 atoms/A^3
Info: ADDED 0 IMPLICIT EXCLUSIONS
Info: NONBONDED TABLE R-SQUARED SPACING: 0.0625
Info: NONBONDED TABLE SIZE: 705 POINTS
Info: REMOVING COM VELOCITY -0.0299747 -0.0426135 0.0114407
TCL: Minimizing for 2000 steps
ETITLE: TS BOND ANGLE DIHED IMPRP ELECT VDW BOUNDARY MISC KINETIC TOTAL TEMP POTENTIAL TOTAL3 TEMPAVG PRESSURE GPRESSURE VOLUME PRESSAVG GPRESSAVG
ENERGY: 0 1.0412 0.6400 5.7605 0.0000 -15561.9018 1791.7510 0.0000 0.0000 0.0000 -13762.7091 0.0000 -13762.7091 -13762.7091 0.0000 11314.1569 -15769.4313 68681.6530 11314.1569 -15769.4313
ENERGY: 400 40.9577 24.9349 4.5458 0.0000 -20846.8417 3005.7686 0.0000 0.0000 0.0000 -17770.6348 0.0000 -17770.6348 -17770.6348 0.0000 15716.7095 15850.9982 68681.6530 15716.7095 15850.9982
ENERGY: 800 0.9189 0.8006 3.9761 0.0000 -21823.7447 3448.3601 0.0000 0.0000 0.0000 -18369.6890 0.0000 -18369.6890 -18369.6890 0.0000 17692.3592 17821.9754 68681.6530 17692.3592 17821.9754
ENERGY: 1200 0.6053 0.6971 3.2366 0.0000 -22280.4423 3673.1784 0.0000 0.0000 0.0000 -18602.7249 0.0000 -18602.7249 -18602.7249 0.0000 18700.8822 18822.5501 68681.6530 18700.8822 18822.5501
ENERGY: 1600 3.2911 1.0387 3.3474 0.0000 -22514.4549 3772.0707 0.0000 0.0000 0.0000 -18734.7070 0.0000 -18734.7070 -18734.7070 0.0000 19218.4838 19329.6531 68681.6530 19218.4838 19329.6531
ENERGY: 2000 0.5229 0.3725 4.0448 0.0000 -22638.2695 3819.7941 0.0000 0.0000 0.0000 -18813.5352 0.0000 -18813.5352 -18813.5352 0.0000 19483.8716 19596.0209 68681.6530 19483.8716 19596.0209
TCL: Exiting due to exit command.
Info: NAMD 3.0.1 for Linux-x86_64-multicore
Info: Please visit http://www.ks.uiuc.edu/Research/namd/
Info: for updates, documentation, and support information.
Info: Please cite Phillips et al., J. Chem. Phys. 153:044130 (2020) doi:10.1063/5.0014475
Info: in all publications reporting results obtained with NAMD.
Info: Based on Charm++/Converse 80000 for multicore-linux-x86_64-gcc
Info: Built Mon Oct 14 11:11:06 CDT 2024 by dhardy on athine.ks.uiuc.edu
Info: 1 NAMD  3.0.1  Linux-x86_64-multicore  16    k063  z5358697
Info: Running on 16 processors, 1 nodes, 1 physical nodes.
Info: CPU topology information available.
Info: Charm++/Converse parallel runtime startup completed at 0.03361 s
Info: 1043.46 MB of memory in use based on /proc/self/stat
Info: Configuration file is mobley_5747188_equil.namd
Info: Working in the current directory /srv/scratch/z5358697/prod_prep_7/5747188
TCL: Running 25000 steps at 30 kelvin.
TCL: Suspending until startup complete.
Info: SIMULATION PARAMETERS:
Info: TIMESTEP               2
Info: NUMBER OF STEPS        0
Info: STEPS PER CYCLE        10
Info: PERIODIC CELL BASIS 1  41.123 0 0
Info: PERIODIC CELL BASIS 2  0 39.757 0
Info: PERIODIC CELL BASIS 3  0 0 42.009
Info: PERIODIC CELL CENTER   0 0 0
Info: WRAPPING WATERS AROUND PERIODIC BOUNDARIES ON OUTPUT.
Info: WRAPPING ALL CLUSTERS AROUND PERIODIC BOUNDARIES ON OUTPUT.
Info: FIRST LDB TIMESTEP     50
Info: LAST LDB TIMESTEP     -1
Info: HOM BACKGROUND SCALING 1
Info: PME BACKGROUND SCALING 1
Info: MIN ATOMS PER PATCH    40
Info: EMPTY PATCH LOAD       40 ATOMS
Info: INITIAL TEMPERATURE    300
Info: CENTER OF MASS MOVING INITIALLY? NO
Info: DIELECTRIC             1
Info: EXCLUDE                SCALED ONE-FOUR
Info: 1-4 ELECTROSTATICS SCALED BY 0.833333
Info: MODIFIED 1-4 VDW PARAMETERS WILL BE USED
Info: DCD FILENAME           mobley_5747188_equil.dcd
Info: DCD FREQUENCY          5000
Info: DCD FIRST STEP         5000
Info: DCD FILE WILL CONTAIN UNIT CELL DATA
Info: XST FILENAME           mobley_5747188_equil.xst
Info: XST FREQUENCY          5000
Info: NO VELOCITY DCD OUTPUT
Info: NO FORCE DCD OUTPUT
Info: OUTPUT FILENAME        mobley_5747188_equil
Info: BINARY OUTPUT FILES WILL BE USED
Info: RESTART FILENAME       mobley_5747188_equil.restart
Info: RESTART FREQUENCY      5000
Info: BINARY RESTART FILES WILL BE USED
Info: CUTOFF                 9
Info: PAIRLIST DISTANCE      11
Info: PAIRLIST SHRINK RATE   0.01
Info: PAIRLIST GROW RATE     0.01
Info: PAIRLIST TRIGGER       0.3
Info: PAIRLISTS PER CYCLE    2
Info: PAIRLISTS ENABLED
Info: MARGIN                 8
Info: HYDROGEN GROUP CUTOFF  2.5
Info: PATCH DIMENSION        21.5
Info: ENERGY OUTPUT STEPS    5000
Info: ENERGY EVALUATION STEPS    5000
Info: OUTPUT ENERGY PRECISION 4
Info: CROSSTERM ENERGY INCLUDED IN DIHEDRAL
Info: TIMING OUTPUT STEPS    50000
Info: PRESSURE OUTPUT STEPS  5000
Info: LANGEVIN DYNAMICS ACTIVE
Info: LANGEVIN TEMPERATURE   30
Info: LANGEVIN USING BBK INTEGRATOR
Info: LANGEVIN DAMPING COEFFICIENT IS 1 INVERSE PS
Info: LANGEVIN DYNAMICS APPLIED TO HYDROGENS
Info: LANGEVIN PISTON PRESSURE CONTROL ACTIVE
Info:        TARGET PRESSURE IS 1.01325 BAR
Info:     OSCILLATION PERIOD IS 50 FS
Info:             DECAY TIME IS 25 FS
Info:     PISTON TEMPERATURE IS 300 K
Info:       PRESSURE CONTROL IS GROUP-BASED
Info:    INITIAL STRAIN RATE IS 0 0 0
Info:       CELL FLUCTUATION IS ISOTROPIC
Info: PARTICLE MESH EWALD (PME) ACTIVE
Info: PME TOLERANCE               1e-06
Info: PME EWALD COEFFICIENT       0.348832
Info: PME INTERPOLATION ORDER     4
Info: PME GRID DIMENSIONS         44 40 44
Info: PME MAXIMUM GRID SPACING    1
Info: FULL ELECTROSTATIC EVALUATION FREQUENCY      2
Info: USING VERLET I (r-RESPA) MTS SCHEME.
Info: C1 SPLITTING OF LONG RANGE ELECTROSTATICS
Info: PLACING ATOMS IN PATCHES BY HYDROGEN GROUPS
Info: RIGID BONDS TO HYDROGEN : ALL
Info:         ERROR TOLERANCE : 1e-08
Info:          MAX ITERATIONS : 100
Info: RIGID WATER USING SETTLE ALGORITHM
Info: RANDOM NUMBER SEED     1741351828
Info: USE HYDROGEN BONDS?    NO
Info: Using AMBER format force field!
Info: AMBER PARM FILE        mobley_5747188.prmtop
Info: COORDINATE PDB         mobley_5747188.pdb
Info: Exclusions will be read from PARM file!
Info: SCNB (VDW SCALING)     2
Info: USING ARITHMETIC MEAN TO COMBINE L-J SIGMA PARAMETERS
Info: BINARY COORDINATES     mobley_5747188_min.coor
Info: SUMMARY OF PARAMETERS:
Info: 8 BONDS
Info: 8 ANGLES
Info:   8 HARMONIC
Info:   0 COSINE-BASED
Info: 4 DIHEDRAL
Info: 0 IMPROPER
Info: 0 CROSSTERM
Info: 0 VDW
Info: 36 VDW_PAIRS
Info: 0 NBTHOLE_PAIRS
Info: STRUCTURE SUMMARY:
Info: 4979 ATOMS
Info: 4979 BONDS
Info: 27 ANGLES
Info: 39 DIHEDRALS
Info: 0 IMPROPERS
Info: 0 CROSSTERMS
Info: 5037 EXCLUSIONS
Info: 4969 RIGID BONDS
Info: 9968 DEGREES OF FREEDOM
Info: 1664 HYDROGEN GROUPS
Info: 4 ATOMS IN LARGEST HYDROGEN GROUP
Info: 1664 MIGRATION GROUPS
Info: 4 ATOMS IN LARGEST MIGRATION GROUP
Info: TOTAL MASS = 29935.6 amu
Info: TOTAL CHARGE = 0.000100022 e
Info: MASS DENSITY = 0.72378 g/cm^3
Info: ATOM DENSITY = 0.0724939 atoms/A^3
Info: ADDED 0 IMPLICIT EXCLUSIONS
Info: NONBONDED TABLE R-SQUARED SPACING: 0.0625
Info: NONBONDED TABLE SIZE: 705 POINTS
Info: REMOVING COM VELOCITY 0.0510381 0.0190391 0.00398108
TCL: Running for 25000 steps
ETITLE: TS BOND ANGLE DIHED IMPRP ELECT VDW BOUNDARY MISC KINETIC TOTAL TEMP POTENTIAL TOTAL3 TEMPAVG PRESSURE GPRESSURE VOLUME PRESSAVG GPRESSAVG
ENERGY: 0 0.5229 0.3725 4.0448 0.0000 -22638.2695 3819.7941 0.0000 0.0000 2961.5574 -15851.9779 299.0216 -18813.5352 -15851.3836 299.0216 -193.4994 -158.5593 68681.6530 -193.4994 -158.5593
ENERGY: 5000 0.6166 0.7503 3.6512 0.0000 -23814.8369 4123.4534 0.0000 0.0000 300.8907 -19385.4747 30.3802 -19686.3654 -19384.3605 47.8727 -65.9236 -16.2646 49087.0101 -0.4675 -0.2868
ENERGY: 10000 1.0145 0.8316 3.7707 0.0000 -23795.4441 4060.4658 0.0000 0.0000 295.9609 -19433.4006 29.8825 -19729.3615 -19432.2335 30.0816 -378.9209 -318.6521 49021.9326 0.8728 1.1647
ENERGY: 15000 0.6662 0.8520 3.0425 0.0000 -23893.3506 4140.7787 0.0000 0.0000 299.5629 -19448.4482 30.2462 -19748.0111 -19447.6481 29.9909 -32.1071 23.8488 48922.6758 3.1479 3.2027
ENERGY: 20000 0.3728 0.5824 4.2956 0.0000 -24176.3033 4419.0386 0.0000 0.0000 289.7732 -19462.2407 29.2577 -19752.0139 -19461.5368 29.8331 1442.2608 1485.3812 48411.8739 4.7155 4.7831
ENERGY: 25000 0.7134 1.2240 3.3547 0.0000 -23811.4450 4036.1980 0.0000 0.0000 295.3036 -19474.6512 29.8161 -19769.9548 -19473.8284 30.3074 -578.4017 -533.4980 49016.6583 4.9362 4.9449
TCL: Running 25000 steps at 60 kelvin.
TCL: Setting parameter langevinTemp to 60
TCL: Running for 25000 steps
ETITLE: TS BOND ANGLE DIHED IMPRP ELECT VDW BOUNDARY MISC KINETIC TOTAL TEMP POTENTIAL TOTAL3 TEMPAVG PRESSURE GPRESSURE VOLUME PRESSAVG GPRESSAVG
ENERGY: 25000 0.7134 1.2240 3.3547 0.0000 -23811.4450 4036.1980 0.0000 0.0000 295.1584 -19474.7964 29.8015 -19769.9548 -19474.1465 29.8015 -586.6895 -533.3640 49016.6583 -586.6895 -533.3640
ENERGY: 30000 0.9727 0.8433 3.6942 0.0000 -23423.8064 3921.3255 0.0000 0.0000 590.1086 -18906.8620 59.5819 -19496.9706 -18905.5060 57.1698 -481.4059 -421.1494 48946.9404 4.4142 4.4600
ENERGY: 35000 0.6429 0.9908 3.8644 0.0000 -23491.1993 3942.3780 0.0000 0.0000 586.3279 -18956.9952 59.2002 -19543.3232 -18955.4944 60.6552 -456.1305 -418.9281 48999.0543 -0.4585 -0.1955
ENERGY: 40000 0.5868 1.4645 5.2702 0.0000 -23661.2223 4079.0644 0.0000 0.0000 590.5244 -18984.3122 59.6239 -19574.8366 -18982.8459 60.3055 174.2034 230.0128 48620.6618 5.1034 4.9748
ENERGY: 45000 1.0155 1.5378 3.4331 0.0000 -23756.5832 4157.8133 0.0000 0.0000 605.9225 -18986.8610 61.1786 -19592.7835 -18985.6602 59.6820 593.7374 650.0598 48431.5294 8.8613 9.1441
ENERGY: 50000 1.0260 2.0477 5.1099 0.0000 -23693.4445 4065.5471 0.0000 0.0000 593.5222 -19026.1916 59.9266 -19619.7138 -19025.1076 59.8451 -8.0499 51.8701 48593.0817 0.9941 1.3002
TCL: Running 25000 steps at 90 kelvin.
TCL: Setting parameter langevinTemp to 90
TCL: Running for 25000 steps
ETITLE: TS BOND ANGLE DIHED IMPRP ELECT VDW BOUNDARY MISC KINETIC TOTAL TEMP POTENTIAL TOTAL3 TEMPAVG PRESSURE GPRESSURE VOLUME PRESSAVG GPRESSAVG
ENERGY: 50000 1.0260 2.0477 5.1099 0.0000 -23693.4445 4065.5471 0.0000 0.0000 593.2277 -19026.4861 59.8968 -19619.7138 -19025.1884 59.8968 -2.2385 51.7268 48593.0817 -2.2385 51.7268
ENERGY: 55000 0.7376 1.6490 5.0439 0.0000 -23187.4210 3860.8346 0.0000 0.0000 883.5672 -18435.5886 89.2117 -19319.1558 -18433.8726 86.8518 -254.9002 -172.4020 48721.7787 0.7279 0.3482
ENERGY: 60000 0.5367 1.6946 5.4524 0.0000 -23352.2266 3989.9015 0.0000 0.0000 914.9533 -18439.6881 92.3807 -19354.6414 -18436.7731 90.0911 329.9975 379.3821 48330.2653 6.5470 6.5750
ENERGY: 65000 2.0651 1.7382 4.9343 0.0000 -23200.8201 3824.7079 0.0000 0.0000 870.0490 -18497.3256 87.8468 -19367.3746 -18495.0892 89.3664 -646.7270 -571.9582 48607.2484 6.5086 6.3840
ENERGY: 70000 1.2134 2.0325 4.9837 0.0000 -23247.7530 3882.6948 0.0000 0.0000 903.0266 -18453.8022 91.1765 -19356.8287 -18451.6762 90.8089 -265.4943 -186.4790 48403.5450 1.4206 1.4404
ENERGY: 75000 1.5234 2.0234 3.3256 0.0000 -23365.5493 3964.3230 0.0000 0.0000 889.0987 -18505.2553 89.7702 -19394.3540 -18502.6393 90.8215 35.1609 109.5492 48385.0003 -0.4378 -0.5492
TCL: Running 25000 steps at 120 kelvin.
TCL: Setting parameter langevinTemp to 120
TCL: Running for 25000 steps
ETITLE: TS BOND ANGLE DIHED IMPRP ELECT VDW BOUNDARY MISC KINETIC TOTAL TEMP POTENTIAL TOTAL3 TEMPAVG PRESSURE GPRESSURE VOLUME PRESSAVG GPRESSAVG
ENERGY: 75000 1.5234 2.0234 3.3256 0.0000 -23365.5493 3964.3230 0.0000 0.0000 888.6779 -18505.6761 89.7277 -19394.3540 -18504.3527 89.7277 42.2840 109.8664 48385.0003 42.2840 109.8664
ENERGY: 80000 1.7196 2.3182 4.9565 0.0000 -22982.9411 3838.6479 0.0000 0.0000 1177.0207 -17958.2783 118.8410 -19135.2989 -17955.0704 117.4985 -127.9037 -71.5924 48782.6897 2.0959 1.4289
ENERGY: 85000 1.1476 2.6600 5.1757 0.0000 -22972.4222 3790.5476 0.0000 0.0000 1219.2724 -17953.6190 123.1071 -19172.8914 -17952.5514 121.2991 -412.8757 -323.2265 48629.3523 2.5994 2.8092
ENERGY: 90000 1.2609 0.8374 5.3622 0.0000 -23148.3527 3952.1251 0.0000 0.0000 1182.3989 -18006.3682 119.3841 -19188.7671 -18003.5415 120.1170 432.9924 493.8170 48254.8089 -0.1955 -0.1535
ENERGY: 95000 0.7648 2.6421 4.5897 0.0000 -23201.7728 3949.6954 0.0000 0.0000 1205.4523 -18038.6283 121.7117 -19244.0806 -18035.5346 119.1096 336.1327 426.8361 48179.6003 6.7351 6.5089
ENERGY: 100000 0.8813 2.3108 5.1568 0.0000 -23048.4694 3845.4862 0.0000 0.0000 1183.7469 -18010.8873 119.5202 -19194.6342 -18007.9434 120.4387 -117.3948 -47.4077 48568.0929 4.2504 4.1527
TCL: Running 25000 steps at 150 kelvin.
TCL: Setting parameter langevinTemp to 150
TCL: Running for 25000 steps
ETITLE: TS BOND ANGLE DIHED IMPRP ELECT VDW BOUNDARY MISC KINETIC TOTAL TEMP POTENTIAL TOTAL3 TEMPAVG PRESSURE GPRESSURE VOLUME PRESSAVG GPRESSAVG
ENERGY: 100000 0.8813 2.3108 5.1568 0.0000 -23048.4694 3845.4862 0.0000 0.0000 1183.1764 -18011.4578 119.4626 -19194.6342 -18009.1446 119.4626 -100.0631 -47.4289 48568.0929 -100.0631 -47.4289
ENERGY: 105000 2.4037 3.2998 7.2859 0.0000 -22565.6844 3702.8258 0.0000 0.0000 1463.4166 -17386.4526 147.7578 -18849.8692 -17383.4260 146.7706 -150.7816 -77.2375 48839.5543 4.0678 3.6054
ENERGY: 110000 2.0300 2.3702 3.3948 0.0000 -22614.0578 3776.9992 0.0000 0.0000 1485.6113 -17343.6522 149.9987 -18829.2636 -17338.3218 149.8440 445.7524 495.7892 48350.2852 3.1604 3.0738
ENERGY: 115000 2.0940 3.4611 6.0015 0.0000 -22729.2032 3845.6003 0.0000 0.0000 1489.3475 -17382.6988 150.3760 -18872.0463 -17379.3977 150.4603 649.4279 724.5563 48536.3887 0.9061 0.9687
ENERGY: 120000 2.3195 2.0506 7.0238 0.0000 -22542.5044 3663.8407 0.0000 0.0000 1442.8592 -17424.4105 145.6821 -18867.2697 -17420.7814 149.2741 -400.2641 -322.0541 48780.1397 4.3389 4.4845
ENERGY: 125000 1.8130 2.5967 6.6621 0.0000 -22745.5161 3794.4605 0.0000 0.0000 1486.0376 -17453.9462 150.0418 -18939.9838 -17449.8690 149.6308 407.2598 454.4700 48123.6110 -1.0356 -0.7997
TCL: Running 50000 steps at 180 kelvin.
TCL: Setting parameter langevinTemp to 180
TCL: Running for 50000 steps
ETITLE: TS BOND ANGLE DIHED IMPRP ELECT VDW BOUNDARY MISC KINETIC TOTAL TEMP POTENTIAL TOTAL3 TEMPAVG PRESSURE GPRESSURE VOLUME PRESSAVG GPRESSAVG
ENERGY: 125000 1.8130 2.5967 6.6621 0.0000 -22745.5161 3794.4605 0.0000 0.0000 1485.2801 -17454.7037 149.9653 -18939.9838 -17451.8599 149.9653 397.5488 454.3019 48123.6110 397.5488 454.3019
ENERGY: 135000 2.5498 2.3747 3.8461 0.0000 -21965.3241 3459.9170 0.0000 0.0000 1718.9416 -16777.6951 173.5575 -18496.6366 -16773.8721 178.9979 -498.4369 -413.0080 48615.5741 -0.3282 -0.0112
ENERGY: 145000 1.4312 3.4392 4.6748 0.0000 -21928.1067 3483.1105 0.0000 0.0000 1791.2131 -16644.2378 180.8546 -18435.4509 -16641.2317 180.7728 -197.8939 -130.6155 48580.1271 1.6607 1.5572
ENERGY: 155000 2.7425 5.6045 5.6071 0.0000 -22008.0738 3488.5439 0.0000 0.0000 1804.6059 -16700.9699 182.2069 -18505.5758 -16696.2267 180.6441 -475.0571 -396.5473 49059.3242 4.1138 4.2063
ENERGY: 165000 3.2393 6.5167 4.0567 0.0000 -22063.0539 3530.5263 0.0000 0.0000 1820.8209 -16697.8940 183.8441 -18518.7149 -16692.5620 180.8100 -84.1023 9.3903 48502.9761 3.5321 3.2094
ENERGY: 175000 2.2070 4.6713 1.3241 0.0000 -21928.9977 3438.5187 0.0000 0.0000 1832.7857 -16649.4909 185.0521 -18482.2766 -16646.7985 181.3018 -475.2581 -358.4854 48631.8327 4.0229 4.5185
TCL: Running 50000 steps at 210 kelvin.
TCL: Setting parameter langevinTemp to 210
TCL: Running for 50000 steps
ETITLE: TS BOND ANGLE DIHED IMPRP ELECT VDW BOUNDARY MISC KINETIC TOTAL TEMP POTENTIAL TOTAL3 TEMPAVG PRESSURE GPRESSURE VOLUME PRESSAVG GPRESSAVG
ENERGY: 175000 2.2070 4.6713 1.3241 0.0000 -21928.9977 3438.5187 0.0000 0.0000 1831.8720 -16650.4046 184.9599 -18482.2766 -16646.7273 184.9599 -425.7227 -359.6626 48631.8327 -425.7227 -359.6626
ENERGY: 185000 2.4610 3.3642 3.7036 0.0000 -20921.6372 3156.3667 0.0000 0.0000 2110.0130 -15645.7286 213.0431 -17755.7416 -15642.6162 210.5951 -262.5947 -167.8332 48328.3354 1.3435 1.1715
ENERGY: 195000 1.1079 3.9236 5.1162 0.0000 -20805.0219 3147.3000 0.0000 0.0000 2057.5176 -15590.0566 207.7428 -17647.5742 -15584.8769 211.1758 -195.1831 -141.7419 49025.4461 4.3478 3.9522
ENERGY: 205000 1.5645 7.3775 3.3627 0.0000 -20943.5675 3184.4335 0.0000 0.0000 2068.3327 -15678.4967 208.8347 -17746.8294 -15674.6228 210.1621 -167.8659 -119.8497 48676.6544 2.0915 3.0925
ENERGY: 215000 1.6848 2.4445 7.2364 0.0000 -21114.1926 3346.6680 0.0000 0.0000 2094.3481 -15661.8109 211.4615 -17756.1590 -15659.2024 209.9109 733.5567 834.2566 48308.2798 4.9107 4.5212
ENERGY: 225000 2.6697 6.2429 6.5676 0.0000 -21038.3558 3236.0003 0.0000 0.0000 2074.6409 -15712.2344 209.4717 -17786.8753 -15707.3236 209.4881 44.7244 89.2657 48666.7395 10.0638 10.4198
TCL: Running 50000 steps at 240 kelvin.
TCL: Setting parameter langevinTemp to 240
TCL: Running for 50000 steps
ETITLE: TS BOND ANGLE DIHED IMPRP ELECT VDW BOUNDARY MISC KINETIC TOTAL TEMP POTENTIAL TOTAL3 TEMPAVG PRESSURE GPRESSURE VOLUME PRESSAVG GPRESSAVG
ENERGY: 225000 2.6697 6.2429 6.5676 0.0000 -21038.3558 3236.0003 0.0000 0.0000 2073.6027 -15713.2726 209.3668 -17786.8753 -15709.3367 209.3668 12.3798 88.4128 48666.7395 12.3798 88.4128
ENERGY: 235000 4.2235 4.7598 6.4202 0.0000 -20156.1579 3119.1932 0.0000 0.0000 2400.2100 -14621.3512 242.3436 -17021.5612 -14616.3507 239.2581 1152.7004 1222.5584 48532.6044 3.8165 4.4880
ENERGY: 245000 3.7530 4.6512 5.7503 0.0000 -19867.3256 2869.1642 0.0000 0.0000 2379.1683 -14604.8386 240.2191 -16984.0068 -14597.9142 240.1790 -72.2773 16.9310 49167.8464 5.6284 5.7167
ENERGY: 255000 3.0712 4.3789 6.4004 0.0000 -19928.9411 2873.1964 0.0000 0.0000 2403.4062 -14638.4880 242.6663 -17041.8942 -14636.5816 239.5086 -255.0521 -199.3921 49318.0492 4.6947 5.1345
ENERGY: 265000 1.6758 4.2100 7.1217 0.0000 -20122.2381 3043.6172 0.0000 0.0000 2366.6390 -14698.9744 238.9540 -17065.6134 -14693.6473 240.9828 434.5205 540.6814 49256.4260 6.5301 6.6456
ENERGY: 275000 2.0864 4.4467 5.5276 0.0000 -19830.1529 2821.0343 0.0000 0.0000 2383.1976 -14613.8603 240.6259 -16997.0579 -14606.5728 236.6164 -408.0630 -384.1567 49327.4782 -3.6261 -3.8076
TCL: Running 50000 steps at 270 kelvin.
TCL: Setting parameter langevinTemp to 270
TCL: Running for 50000 steps
ETITLE: TS BOND ANGLE DIHED IMPRP ELECT VDW BOUNDARY MISC KINETIC TOTAL TEMP POTENTIAL TOTAL3 TEMPAVG PRESSURE GPRESSURE VOLUME PRESSAVG GPRESSAVG
ENERGY: 275000 2.0864 4.4467 5.5276 0.0000 -19830.1529 2821.0343 0.0000 0.0000 2382.0313 -14615.0266 240.5082 -16997.0579 -14611.2120 240.5082 -471.0837 -382.8265 49327.4782 -471.0837 -382.8265
ENERGY: 285000 3.6972 5.1348 4.6941 0.0000 -18949.5099 2707.0829 0.0000 0.0000 2685.6796 -13543.2213 271.1668 -16228.9010 -13539.0380 271.9563 527.8403 563.5715 49481.8327 0.8040 1.0116
ENERGY: 295000 4.7111 5.3636 7.4897 0.0000 -18829.8878 2539.0505 0.0000 0.0000 2669.2998 -13603.9731 269.5130 -16273.2728 -13597.7522 271.1531 -702.7175 -603.7161 50248.4844 6.5595 6.3288
ENERGY: 305000 1.8641 6.2673 7.4780 0.0000 -18794.2615 2519.0709 0.0000 0.0000 2672.8101 -13586.7710 269.8674 -16259.5811 -13579.5558 269.0473 -705.6067 -652.5429 50778.8045 1.2597 1.0888
ENERGY: 315000 1.3763 4.3314 6.8385 0.0000 -18974.2243 2630.3089 0.0000 0.0000 2646.8357 -13684.5336 267.2448 -16331.3693 -13680.9858 268.7738 -62.9324 49.2732 49735.3788 1.3165 0.5610
ENERGY: 325000 3.6737 4.4376 8.0263 0.0000 -18835.2464 2559.0289 0.0000 0.0000 2653.0477 -13607.0323 267.8721 -16260.0800 -13603.0487 269.5719 -409.9228 -361.7527 50380.3469 0.6975 0.5898
TCL: Running 1000000 steps at 300 kelvin.
TCL: Setting parameter langevinTemp to 300
TCL: Running for 1000000 steps
ETITLE: TS BOND ANGLE DIHED IMPRP ELECT VDW BOUNDARY MISC KINETIC TOTAL TEMP POTENTIAL TOTAL3 TEMPAVG PRESSURE GPRESSURE VOLUME PRESSAVG GPRESSAVG
ENERGY: 325000 3.6737 4.4376 8.0263 0.0000 -18835.2464 2559.0289 0.0000 0.0000 2651.7008 -13608.3792 267.7361 -16260.0800 -13603.7423 267.7361 -439.7326 -361.9537 50380.3469 -439.7326 -361.9537
ENERGY: 525000 3.0619 5.9938 6.3824 0.0000 -17921.3090 2295.8015 0.0000 0.0000 2908.3386 -12701.7307 293.6482 -15610.0693 -12694.0744 300.9592 -820.4965 -690.9453 51538.7274 5.8073 5.2668
ENERGY: 725000 1.0657 6.5534 9.1885 0.0000 -18108.7606 2525.8729 0.0000 0.0000 3012.9473 -12553.1327 304.2103 -15566.0801 -12551.3549 301.5008 524.6751 579.2758 51308.8512 0.4780 0.5238
ENERGY: 925000 2.1068 11.1485 5.6909 0.0000 -18043.9324 2486.3836 0.0000 0.0000 2996.8471 -12541.7555 302.5847 -15538.6026 -12535.4464 299.6609 276.4847 369.3230 51860.6843 -5.7419 -5.0271
ENERGY: 1125000 4.8545 5.8395 4.0032 0.0000 -18141.6032 2476.3381 0.0000 0.0000 2983.6084 -12666.9596 301.2480 -15650.5680 -12661.0199 297.8418 35.8846 130.0761 51494.6981 6.2922 5.8755
ENERGY: 1325000 3.7536 3.5135 6.9882 0.0000 -18029.4621 2317.9928 0.0000 0.0000 3007.5173 -12689.6968 303.6620 -15697.2141 -12682.6848 299.5576 -745.1426 -634.3409 51542.7605 1.8698 1.8673
TCL: Exiting due to exit command.
