Info: SIMULATION PARAMETERS:
Info: TIMESTEP               2
Info: NUMBER OF STEPS        0
Info: STEPS PER CYCLE        10
Info: PERIODIC CELL BASIS 1  38.861 0 0
Info: PERIODIC CELL BASIS 2  0 37.796 0
Info: PERIODIC CELL BASIS 3  0 0 39.527
Info: PERIODIC CELL CENTER   0 0 0
Info: WRAPPING WATERS AROUND PERIODIC BOUNDARIES ON OUTPUT.
Info: WRAPPING ALL CLUSTERS AROUND PERIODIC BOUNDARIES ON OUTPUT.
Info: FIRST LDB TIMESTEP     50
Info: LAST LDB TIMESTEP     -1
Info: HOM BACKGROUND SCALING 1
Info: PME BACKGROUND SCALING 1
Info: MIN ATOMS PER PATCH    40
Info: EMPTY PATCH LOAD       40 ATOMS
Info: INITIAL TEMPERATURE    300
Info: CENTER OF MASS MOVING INITIALLY? NO
Info: DIELECTRIC             1
Info: EXCLUDE                SCALED ONE-FOUR
Info: 1-4 ELECTROSTATICS SCALED BY 0.833333
Info: MODIFIED 1-4 VDW PARAMETERS WILL BE USED
Info: DCD FILENAME           mobley_5692472_min.dcd
Info: DCD FREQUENCY          5000
Info: DCD FIRST STEP         5000
Info: DCD FILE WILL CONTAIN UNIT CELL DATA
Info: XST FILENAME           mobley_5692472_min.xst
Info: XST FREQUENCY          5000
Info: NO VELOCITY DCD OUTPUT
Info: NO FORCE DCD OUTPUT
Info: OUTPUT FILENAME        mobley_5692472_min
Info: BINARY OUTPUT FILES WILL BE USED
Info: RESTART FILENAME       mobley_5692472_min.restart
Info: RESTART FREQUENCY      5000
Info: BINARY RESTART FILES WILL BE USED
Info: CUTOFF                 9
Info: PAIRLIST DISTANCE      11
Info: PAIRLIST SHRINK RATE   0.01
Info: PAIRLIST GROW RATE     0.01
Info: PAIRLIST TRIGGER       0.3
Info: PAIRLISTS PER CYCLE    2
Info: PAIRLISTS ENABLED
Info: MARGIN                 8
Info: HYDROGEN GROUP CUTOFF  2.5
Info: PATCH DIMENSION        21.5
Info: ENERGY OUTPUT STEPS    5000
Info: ENERGY EVALUATION STEPS    5000
Info: OUTPUT ENERGY PRECISION 4
Info: CROSSTERM ENERGY INCLUDED IN DIHEDRAL
Info: TIMING OUTPUT STEPS    50000
Info: PRESSURE OUTPUT STEPS  5000
Info: LANGEVIN DYNAMICS ACTIVE
Info: LANGEVIN TEMPERATURE   300
Info: LANGEVIN USING BBK INTEGRATOR
Info: LANGEVIN DAMPING COEFFICIENT IS 1 INVERSE PS
Info: LANGEVIN DYNAMICS APPLIED TO HYDROGENS
Info: LANGEVIN PISTON PRESSURE CONTROL ACTIVE
Info:        TARGET PRESSURE IS 1.01325 BAR
Info:     OSCILLATION PERIOD IS 50 FS
Info:             DECAY TIME IS 25 FS
Info:     PISTON TEMPERATURE IS 300 K
Info:       PRESSURE CONTROL IS GROUP-BASED
Info:    INITIAL STRAIN RATE IS 0 0 0
Info:       CELL FLUCTUATION IS ISOTROPIC
Info: PARTICLE MESH EWALD (PME) ACTIVE
Info: PME TOLERANCE               1e-06
Info: PME EWALD COEFFICIENT       0.348832
Info: PME INTERPOLATION ORDER     4
Info: PME GRID DIMENSIONS         40 40 40
Info: PME MAXIMUM GRID SPACING    1
Info: FULL ELECTROSTATIC EVALUATION FREQUENCY      2
Info: USING VERLET I (r-RESPA) MTS SCHEME.
Info: C1 SPLITTING OF LONG RANGE ELECTROSTATICS
Info: PLACING ATOMS IN PATCHES BY HYDROGEN GROUPS
Info: RIGID BONDS TO HYDROGEN : ALL
Info:         ERROR TOLERANCE : 1e-08
Info:          MAX ITERATIONS : 100
Info: RIGID WATER USING SETTLE ALGORITHM
Info: RANDOM NUMBER SEED     1741350608
Info: USE HYDROGEN BONDS?    NO
Info: Using AMBER format force field!
Info: AMBER PARM FILE        mobley_5692472.prmtop
Info: COORDINATE PDB         mobley_5692472.pdb
Info: Exclusions will be read from PARM file!
Info: SCNB (VDW SCALING)     2
Info: USING ARITHMETIC MEAN TO COMBINE L-J SIGMA PARAMETERS
Info: SUMMARY OF PARAMETERS:
Info: 5 BONDS
Info: 4 ANGLES
Info:   4 HARMONIC
Info:   0 COSINE-BASED
Info: 2 DIHEDRAL
Info: 0 IMPROPER
Info: 0 CROSSTERM
Info: 0 VDW
Info: 21 VDW_PAIRS
Info: 0 NBTHOLE_PAIRS
Info: STRUCTURE SUMMARY:
Info: 4012 ATOMS
Info: 4011 BONDS
Info: 15 ANGLES
Info: 12 DIHEDRALS
Info: 0 IMPROPERS
Info: 0 CROSSTERMS
Info: 4038 EXCLUSIONS
Info: 4009 RIGID BONDS
Info: 8027 DEGREES OF FREEDOM
Info: 1337 HYDROGEN GROUPS
Info: 4 ATOMS IN LARGEST HYDROGEN GROUP
Info: 1337 MIGRATION GROUPS
Info: 4 ATOMS IN LARGEST MIGRATION GROUP
Info: TOTAL MASS = 24078.4 amu
Info: TOTAL CHARGE = 7.45058e-09 e
Info: MASS DENSITY = 0.688706 g/cm^3
Info: ATOM DENSITY = 0.0691046 atoms/A^3
Info: ADDED 0 IMPLICIT EXCLUSIONS
Info: NONBONDED TABLE R-SQUARED SPACING: 0.0625
Info: NONBONDED TABLE SIZE: 705 POINTS
Info: REMOVING COM VELOCITY -0.108808 0.131912 0.0864597
TCL: Minimizing for 2000 steps
ETITLE: TS BOND ANGLE DIHED IMPRP ELECT VDW BOUNDARY MISC KINETIC TOTAL TEMP POTENTIAL TOTAL3 TEMPAVG PRESSURE GPRESSURE VOLUME PRESSAVG GPRESSAVG
ENERGY: 0 0.0211 0.1300 0.0005 0.0000 -12279.7230 1416.7054 0.0000 0.0000 0.0000 -10862.8660 0.0000 -10862.8660 -10862.8660 0.0000 10494.0445 -14769.5260 58056.8764 10494.0445 -14769.5260
ENERGY: 400 1.2945 1.1995 0.0535 0.0000 -17060.1782 2652.5007 0.0000 0.0000 0.0000 -14405.1300 0.0000 -14405.1300 -14405.1300 0.0000 16113.3530 16222.7610 58056.8764 16113.3530 16222.7610
ENERGY: 800 0.4623 0.4535 0.0257 0.0000 -17855.1551 2985.5487 0.0000 0.0000 0.0000 -14868.6648 0.0000 -14868.6648 -14868.6648 0.0000 17916.9098 18007.6781 58056.8764 17916.9098 18007.6781
ENERGY: 1200 0.6940 0.5232 0.0125 0.0000 -18264.6401 3178.2528 0.0000 0.0000 0.0000 -15085.1577 0.0000 -15085.1577 -15085.1577 0.0000 19014.4392 19109.5119 58056.8764 19014.4392 19109.5119
ENERGY: 1600 0.2362 0.2526 0.0067 0.0000 -18399.9755 3228.9320 0.0000 0.0000 0.0000 -15170.5480 0.0000 -15170.5480 -15170.5480 0.0000 19377.6660 19459.1506 58056.8764 19377.6660 19459.1506
ENERGY: 2000 0.3624 0.2899 0.0120 0.0000 -18514.4085 3271.7308 0.0000 0.0000 0.0000 -15242.0135 0.0000 -15242.0135 -15242.0135 0.0000 19618.6160 19689.9331 58056.8764 19618.6160 19689.9331
TCL: Exiting due to exit command.
Info: NAMD 3.0.1 for Linux-x86_64-multicore
Info: Please visit http://www.ks.uiuc.edu/Research/namd/
Info: for updates, documentation, and support information.
Info: Please cite Phillips et al., J. Chem. Phys. 153:044130 (2020) doi:10.1063/5.0014475
Info: in all publications reporting results obtained with NAMD.
Info: Based on Charm++/Converse 80000 for multicore-linux-x86_64-gcc
Info: Built Mon Oct 14 11:11:06 CDT 2024 by dhardy on athine.ks.uiuc.edu
Info: 1 NAMD  3.0.1  Linux-x86_64-multicore  16    k011  z5358697
Info: Running on 16 processors, 1 nodes, 1 physical nodes.
Info: CPU topology information available.
Info: Charm++/Converse parallel runtime startup completed at 0.00944575 s
Info: 1043.45 MB of memory in use based on /proc/self/stat
Info: Configuration file is mobley_5692472_equil.namd
Info: Working in the current directory /srv/scratch/z5358697/prod_prep_7/5692472
TCL: Running 25000 steps at 30 kelvin.
TCL: Suspending until startup complete.
Info: SIMULATION PARAMETERS:
Info: TIMESTEP               2
Info: NUMBER OF STEPS        0
Info: STEPS PER CYCLE        10
Info: PERIODIC CELL BASIS 1  38.861 0 0
Info: PERIODIC CELL BASIS 2  0 37.796 0
Info: PERIODIC CELL BASIS 3  0 0 39.527
Info: PERIODIC CELL CENTER   0 0 0
Info: WRAPPING WATERS AROUND PERIODIC BOUNDARIES ON OUTPUT.
Info: WRAPPING ALL CLUSTERS AROUND PERIODIC BOUNDARIES ON OUTPUT.
Info: FIRST LDB TIMESTEP     50
Info: LAST LDB TIMESTEP     -1
Info: HOM BACKGROUND SCALING 1
Info: PME BACKGROUND SCALING 1
Info: MIN ATOMS PER PATCH    40
Info: EMPTY PATCH LOAD       40 ATOMS
Info: INITIAL TEMPERATURE    300
Info: CENTER OF MASS MOVING INITIALLY? NO
Info: DIELECTRIC             1
Info: EXCLUDE                SCALED ONE-FOUR
Info: 1-4 ELECTROSTATICS SCALED BY 0.833333
Info: MODIFIED 1-4 VDW PARAMETERS WILL BE USED
Info: DCD FILENAME           mobley_5692472_equil.dcd
Info: DCD FREQUENCY          5000
Info: DCD FIRST STEP         5000
Info: DCD FILE WILL CONTAIN UNIT CELL DATA
Info: XST FILENAME           mobley_5692472_equil.xst
Info: XST FREQUENCY          5000
Info: NO VELOCITY DCD OUTPUT
Info: NO FORCE DCD OUTPUT
Info: OUTPUT FILENAME        mobley_5692472_equil
Info: BINARY OUTPUT FILES WILL BE USED
Info: RESTART FILENAME       mobley_5692472_equil.restart
Info: RESTART FREQUENCY      5000
Info: BINARY RESTART FILES WILL BE USED
Info: CUTOFF                 9
Info: PAIRLIST DISTANCE      11
Info: PAIRLIST SHRINK RATE   0.01
Info: PAIRLIST GROW RATE     0.01
Info: PAIRLIST TRIGGER       0.3
Info: PAIRLISTS PER CYCLE    2
Info: PAIRLISTS ENABLED
Info: MARGIN                 8
Info: HYDROGEN GROUP CUTOFF  2.5
Info: PATCH DIMENSION        21.5
Info: ENERGY OUTPUT STEPS    5000
Info: ENERGY EVALUATION STEPS    5000
Info: OUTPUT ENERGY PRECISION 4
Info: CROSSTERM ENERGY INCLUDED IN DIHEDRAL
Info: TIMING OUTPUT STEPS    50000
Info: PRESSURE OUTPUT STEPS  5000
Info: LANGEVIN DYNAMICS ACTIVE
Info: LANGEVIN TEMPERATURE   30
Info: LANGEVIN USING BBK INTEGRATOR
Info: LANGEVIN DAMPING COEFFICIENT IS 1 INVERSE PS
Info: LANGEVIN DYNAMICS APPLIED TO HYDROGENS
Info: LANGEVIN PISTON PRESSURE CONTROL ACTIVE
Info:        TARGET PRESSURE IS 1.01325 BAR
Info:     OSCILLATION PERIOD IS 50 FS
Info:             DECAY TIME IS 25 FS
Info:     PISTON TEMPERATURE IS 300 K
Info:       PRESSURE CONTROL IS GROUP-BASED
Info:    INITIAL STRAIN RATE IS 0 0 0
Info:       CELL FLUCTUATION IS ISOTROPIC
Info: PARTICLE MESH EWALD (PME) ACTIVE
Info: PME TOLERANCE               1e-06
Info: PME EWALD COEFFICIENT       0.348832
Info: PME INTERPOLATION ORDER     4
Info: PME GRID DIMENSIONS         40 40 40
Info: PME MAXIMUM GRID SPACING    1
Info: FULL ELECTROSTATIC EVALUATION FREQUENCY      2
Info: USING VERLET I (r-RESPA) MTS SCHEME.
Info: C1 SPLITTING OF LONG RANGE ELECTROSTATICS
Info: PLACING ATOMS IN PATCHES BY HYDROGEN GROUPS
Info: RIGID BONDS TO HYDROGEN : ALL
Info:         ERROR TOLERANCE : 1e-08
Info:          MAX ITERATIONS : 100
Info: RIGID WATER USING SETTLE ALGORITHM
Info: RANDOM NUMBER SEED     1741350624
Info: USE HYDROGEN BONDS?    NO
Info: Using AMBER format force field!
Info: AMBER PARM FILE        mobley_5692472.prmtop
Info: COORDINATE PDB         mobley_5692472.pdb
Info: Exclusions will be read from PARM file!
Info: SCNB (VDW SCALING)     2
Info: USING ARITHMETIC MEAN TO COMBINE L-J SIGMA PARAMETERS
Info: BINARY COORDINATES     mobley_5692472_min.coor
Info: SUMMARY OF PARAMETERS:
Info: 5 BONDS
Info: 4 ANGLES
Info:   4 HARMONIC
Info:   0 COSINE-BASED
Info: 2 DIHEDRAL
Info: 0 IMPROPER
Info: 0 CROSSTERM
Info: 0 VDW
Info: 21 VDW_PAIRS
Info: 0 NBTHOLE_PAIRS
Info: STRUCTURE SUMMARY:
Info: 4012 ATOMS
Info: 4011 BONDS
Info: 15 ANGLES
Info: 12 DIHEDRALS
Info: 0 IMPROPERS
Info: 0 CROSSTERMS
Info: 4038 EXCLUSIONS
Info: 4009 RIGID BONDS
Info: 8027 DEGREES OF FREEDOM
Info: 1337 HYDROGEN GROUPS
Info: 4 ATOMS IN LARGEST HYDROGEN GROUP
Info: 1337 MIGRATION GROUPS
Info: 4 ATOMS IN LARGEST MIGRATION GROUP
Info: TOTAL MASS = 24078.4 amu
Info: TOTAL CHARGE = 7.45058e-09 e
Info: MASS DENSITY = 0.688706 g/cm^3
Info: ATOM DENSITY = 0.0691046 atoms/A^3
Info: ADDED 0 IMPLICIT EXCLUSIONS
Info: NONBONDED TABLE R-SQUARED SPACING: 0.0625
Info: NONBONDED TABLE SIZE: 705 POINTS
Info: REMOVING COM VELOCITY 0.0646026 -0.0302325 -0.00668539
TCL: Running for 25000 steps
ETITLE: TS BOND ANGLE DIHED IMPRP ELECT VDW BOUNDARY MISC KINETIC TOTAL TEMP POTENTIAL TOTAL3 TEMPAVG PRESSURE GPRESSURE VOLUME PRESSAVG GPRESSAVG
ENERGY: 0 0.3624 0.2899 0.0120 0.0000 -18514.4085 3271.7308 0.0000 0.0000 2408.0358 -12833.9777 301.9257 -15242.0135 -12833.4805 301.9257 506.8287 539.9659 58056.8764 506.8287 539.9659
ENERGY: 5000 0.0888 0.3923 0.0180 0.0000 -19256.8293 3411.6018 0.0000 0.0000 242.5483 -15602.1800 30.4113 -15844.7283 -15601.7142 47.2558 416.1965 472.5468 39988.7299 3.2507 3.2404
ENERGY: 10000 0.0755 0.7815 0.1180 0.0000 -19359.9126 3464.6539 0.0000 0.0000 234.7236 -15659.5600 29.4302 -15894.2837 -15658.9913 30.2589 550.4377 605.4759 40032.3479 0.3637 0.4947
ENERGY: 15000 0.0261 0.1883 0.1234 0.0000 -19339.6954 3426.5190 0.0000 0.0000 242.4649 -15670.3736 30.4009 -15912.8385 -15669.4406 30.3163 285.4820 342.0153 40043.6884 3.8250 3.5597
ENERGY: 20000 0.0186 0.3198 0.0152 0.0000 -19480.7655 3550.5390 0.0000 0.0000 239.3506 -15690.5221 30.0104 -15929.8728 -15689.7730 30.0867 1027.3612 1082.2697 39900.8554 4.8599 4.7777
ENERGY: 25000 0.1676 0.7176 0.0787 0.0000 -19372.4092 3442.6816 0.0000 0.0000 234.0582 -15694.7054 29.3468 -15928.7636 -15694.1500 29.9214 336.5780 399.6810 40099.5191 1.8010 1.9299
TCL: Running 25000 steps at 60 kelvin.
TCL: Setting parameter langevinTemp to 60
TCL: Running for 25000 steps
ETITLE: TS BOND ANGLE DIHED IMPRP ELECT VDW BOUNDARY MISC KINETIC TOTAL TEMP POTENTIAL TOTAL3 TEMPAVG PRESSURE GPRESSURE VOLUME PRESSAVG GPRESSAVG
ENERGY: 25000 0.1676 0.7176 0.0787 0.0000 -19372.4092 3442.6816 0.0000 0.0000 233.9433 -15694.8204 29.3324 -15928.7636 -15694.3501 29.3324 350.7744 399.7662 40099.5191 350.7744 399.7662
ENERGY: 30000 0.4152 0.5296 0.0638 0.0000 -18852.6638 3155.5435 0.0000 0.0000 491.3275 -15204.7841 61.6039 -15696.1116 -15203.6299 56.8790 -736.7383 -703.1385 40239.2678 4.0183 4.4573
ENERGY: 35000 0.0932 0.8693 0.0220 0.0000 -19134.2145 3399.2592 0.0000 0.0000 484.1194 -15249.8514 60.7001 -15733.9709 -15248.6279 60.8243 754.3783 794.2051 39605.5229 -0.4909 -0.4690
ENERGY: 40000 0.3015 0.8949 0.0879 0.0000 -19050.1202 3310.7654 0.0000 0.0000 490.0227 -15248.0479 61.4403 -15738.0705 -15246.7881 60.1582 132.8886 180.2238 39703.9552 3.3780 3.5312
ENERGY: 45000 0.2177 0.8285 0.1773 0.0000 -18999.7970 3234.8757 0.0000 0.0000 484.1346 -15279.5630 60.7020 -15763.6977 -15277.8814 60.5162 -412.8347 -378.0643 39706.6749 5.6734 5.5709
ENERGY: 50000 0.3238 0.7883 0.1799 0.0000 -18939.2867 3150.4529 0.0000 0.0000 482.9782 -15304.5635 60.5570 -15787.5417 -15302.5778 60.1461 -1065.2652 -996.9454 39821.6268 10.8286 10.9245
TCL: Running 25000 steps at 90 kelvin.
TCL: Setting parameter langevinTemp to 90
TCL: Running for 25000 steps
ETITLE: TS BOND ANGLE DIHED IMPRP ELECT VDW BOUNDARY MISC KINETIC TOTAL TEMP POTENTIAL TOTAL3 TEMPAVG PRESSURE GPRESSURE VOLUME PRESSAVG GPRESSAVG
ENERGY: 50000 0.3238 0.7883 0.1799 0.0000 -18939.2867 3150.4529 0.0000 0.0000 482.7271 -15304.8146 60.5256 -15787.5417 -15303.8367 60.5256 -1048.7235 -996.3616 39821.6268 -1048.7235 -996.3616
ENERGY: 55000 0.0248 1.6261 0.5149 0.0000 -18745.8906 3202.3488 0.0000 0.0000 725.4162 -14815.9598 90.9545 -15541.3760 -14814.9217 87.3103 -112.7481 -46.7829 39932.0228 -1.2706 -1.2332
ENERGY: 60000 0.4711 1.1793 0.1784 0.0000 -18832.1303 3243.1408 0.0000 0.0000 716.5138 -14870.6469 89.8383 -15587.1607 -14868.5020 90.3281 -19.6060 21.3600 39839.9377 1.4952 1.3047
ENERGY: 65000 0.5563 1.8298 0.2178 0.0000 -18826.6774 3207.9035 0.0000 0.0000 722.7185 -14893.4514 90.6163 -15616.1700 -14890.7315 90.4160 -339.4532 -272.2755 40032.3228 -3.7793 -3.8187
ENERGY: 70000 0.2237 1.3905 0.0872 0.0000 -18847.2453 3226.2812 0.0000 0.0000 711.6836 -14907.5790 89.2327 -15619.2627 -14905.8742 90.4321 -210.3148 -168.5895 39935.3453 8.4130 8.1874
ENERGY: 75000 0.0767 1.2533 0.1740 0.0000 -19021.2573 3380.3076 0.0000 0.0000 719.1811 -14920.2647 90.1728 -15639.4458 -14917.4369 89.8300 752.4325 801.4482 39524.0124 -1.2706 -1.0459
TCL: Running 25000 steps at 120 kelvin.
TCL: Setting parameter langevinTemp to 120
TCL: Running for 25000 steps
ETITLE: TS BOND ANGLE DIHED IMPRP ELECT VDW BOUNDARY MISC KINETIC TOTAL TEMP POTENTIAL TOTAL3 TEMPAVG PRESSURE GPRESSURE VOLUME PRESSAVG GPRESSAVG
ENERGY: 75000 0.0767 1.2533 0.1740 0.0000 -19021.2573 3380.3076 0.0000 0.0000 718.8310 -14920.6148 90.1289 -15639.4458 -14919.6538 90.1289 749.5002 802.3778 39524.0124 749.5002 802.3778
ENERGY: 80000 0.1984 0.9509 0.2302 0.0000 -18467.3866 3065.6721 0.0000 0.0000 941.4360 -14458.8990 118.0397 -15400.3350 -14456.4789 117.2805 -431.3299 -428.0109 40142.5788 3.1263 2.8700
ENERGY: 85000 1.2049 1.7778 0.2122 0.0000 -18440.0749 3044.3678 0.0000 0.0000 953.9192 -14438.5930 119.6048 -15392.5123 -14436.9954 119.7731 -623.9848 -569.6708 39952.1610 2.3506 2.6142
ENERGY: 90000 0.0482 2.6525 0.3246 0.0000 -18631.4364 3179.7916 0.0000 0.0000 963.8016 -14484.8178 120.8439 -15448.6195 -14482.0227 119.1150 187.3542 252.5854 39677.5929 3.0456 3.3582
ENERGY: 95000 0.2607 1.5461 0.2476 0.0000 -18610.0444 3160.1693 0.0000 0.0000 945.9490 -14501.8718 118.6055 -15447.8208 -14499.1565 120.1889 49.0651 117.0904 39689.2004 4.4083 4.6001
ENERGY: 100000 0.1480 2.3453 0.1387 0.0000 -18748.1913 3260.1237 0.0000 0.0000 964.9061 -14520.5295 120.9824 -15485.4356 -14518.9628 120.5773 694.9082 748.3271 39370.7699 5.0324 4.8305
TCL: Running 25000 steps at 150 kelvin.
TCL: Setting parameter langevinTemp to 150
TCL: Running for 25000 steps
ETITLE: TS BOND ANGLE DIHED IMPRP ELECT VDW BOUNDARY MISC KINETIC TOTAL TEMP POTENTIAL TOTAL3 TEMPAVG PRESSURE GPRESSURE VOLUME PRESSAVG GPRESSAVG
ENERGY: 100000 0.1480 2.3453 0.1387 0.0000 -18748.1913 3260.1237 0.0000 0.0000 964.4310 -14521.0046 120.9228 -15485.4356 -14518.9829 120.9228 706.7553 746.7684 39370.7699 706.7553 746.7684
ENERGY: 105000 0.7746 1.3576 0.0883 0.0000 -18243.6443 3034.4016 0.0000 0.0000 1165.8494 -14041.1729 146.1772 -15207.0222 -14038.2505 147.0716 -113.2594 -57.8874 39814.4199 9.1110 8.7695
ENERGY: 110000 0.3098 3.0936 0.8274 0.0000 -18277.0501 3064.7001 0.0000 0.0000 1212.9595 -13995.1599 152.0840 -15208.1193 -13991.3183 148.8457 192.5980 219.5847 39608.6327 -1.8660 -1.7179
ENERGY: 115000 0.1715 1.3314 0.2584 0.0000 -18419.9046 3127.1487 0.0000 0.0000 1227.8340 -14063.1607 153.9490 -15290.9947 -14059.6844 150.8373 469.1367 497.6424 39364.6243 3.4304 3.3895
ENERGY: 120000 0.2251 1.6505 0.0828 0.0000 -18248.0162 2994.5350 0.0000 0.0000 1171.6728 -14079.8501 146.9073 -15251.5228 -14075.7290 149.3817 -300.5924 -287.3341 39475.9162 4.1655 4.2051
ENERGY: 125000 0.4108 1.2244 0.2112 0.0000 -18325.0316 3038.5158 0.0000 0.0000 1191.7180 -14092.9516 149.4206 -15284.6695 -14090.8138 148.9172 -136.9125 -79.3711 39405.4276 7.4713 7.1474
TCL: Running 50000 steps at 180 kelvin.
TCL: Setting parameter langevinTemp to 180
TCL: Running for 50000 steps
ETITLE: TS BOND ANGLE DIHED IMPRP ELECT VDW BOUNDARY MISC KINETIC TOTAL TEMP POTENTIAL TOTAL3 TEMPAVG PRESSURE GPRESSURE VOLUME PRESSAVG GPRESSAVG
ENERGY: 125000 0.4108 1.2244 0.2112 0.0000 -18325.0316 3038.5158 0.0000 0.0000 1191.1204 -14093.5491 149.3457 -15284.6695 -14091.2170 149.3457 -137.5375 -79.1725 39405.4276 -137.5375 -79.1725
ENERGY: 135000 1.8735 1.9931 0.5099 0.0000 -17826.6509 2927.1421 0.0000 0.0000 1445.3540 -13449.7784 181.2222 -14895.1324 -13445.4289 179.7764 192.0200 221.6175 39510.4428 8.5318 7.6095
ENERGY: 145000 0.2149 2.6779 0.2405 0.0000 -17856.9005 2933.3451 0.0000 0.0000 1423.1903 -13497.2318 178.4432 -14920.4222 -13493.7550 179.5335 368.6370 430.0854 39082.8428 3.7036 3.9840
ENERGY: 155000 0.2717 0.8994 1.0893 0.0000 -17618.3011 2732.5921 0.0000 0.0000 1429.6895 -13453.7591 179.2581 -14883.4486 -13450.1089 181.5117 -933.7309 -831.7792 39564.3879 3.0698 2.8030
ENERGY: 165000 0.6051 1.9054 0.2499 0.0000 -17818.2592 2884.4468 0.0000 0.0000 1466.6773 -13464.3747 183.8958 -14931.0520 -13460.0276 179.2032 -283.9962 -244.0433 39761.9470 3.5327 3.7112
ENERGY: 175000 0.0747 2.8380 0.2401 0.0000 -17733.2230 2780.5271 0.0000 0.0000 1461.2725 -13488.2706 183.2181 -14949.5431 -13482.4272 179.6243 -743.8245 -752.8518 39746.3550 -1.5882 -1.4140
TCL: Running 50000 steps at 210 kelvin.
TCL: Setting parameter langevinTemp to 210
TCL: Running for 50000 steps
ETITLE: TS BOND ANGLE DIHED IMPRP ELECT VDW BOUNDARY MISC KINETIC TOTAL TEMP POTENTIAL TOTAL3 TEMPAVG PRESSURE GPRESSURE VOLUME PRESSAVG GPRESSAVG
ENERGY: 175000 0.0747 2.8380 0.2401 0.0000 -17733.2230 2780.5271 0.0000 0.0000 1460.5499 -13488.9932 183.1275 -14949.5431 -13486.3324 183.1275 -802.0834 -751.4066 39746.3550 -802.0834 -751.4066
ENERGY: 185000 0.3712 3.9208 1.0128 0.0000 -16889.2376 2521.6414 0.0000 0.0000 1661.4178 -12700.8738 208.3128 -14362.2916 -12697.3952 209.0088 -679.4630 -618.5430 39466.6076 0.3330 0.1273
ENERGY: 195000 0.0660 4.4014 1.5666 0.0000 -16996.2309 2649.1969 0.0000 0.0000 1721.9233 -12619.0767 215.8992 -14341.0000 -12615.8354 208.9696 213.4061 308.4600 39083.0594 6.4847 6.9644
ENERGY: 205000 1.3208 2.4412 0.3709 0.0000 -16894.6040 2505.3247 0.0000 0.0000 1664.2277 -12720.9187 208.6651 -14385.1464 -12718.0808 209.5752 -595.1879 -538.4087 39037.2910 -0.7677 -0.5710
ENERGY: 215000 0.3421 3.1826 0.5751 0.0000 -16908.5227 2603.4522 0.0000 0.0000 1654.6729 -12646.2977 207.4671 -14300.9706 -12642.7349 208.8642 253.8981 358.5827 38551.9882 3.3174 2.6204
ENERGY: 225000 0.4215 1.4459 0.1040 0.0000 -16598.4243 2382.2055 0.0000 0.0000 1681.5033 -12532.7441 210.8312 -14214.2474 -12528.5230 210.1922 -1166.4131 -1072.9451 39709.6168 6.5988 6.4949
TCL: Running 50000 steps at 240 kelvin.
TCL: Setting parameter langevinTemp to 240
TCL: Running for 50000 steps
ETITLE: TS BOND ANGLE DIHED IMPRP ELECT VDW BOUNDARY MISC KINETIC TOTAL TEMP POTENTIAL TOTAL3 TEMPAVG PRESSURE GPRESSURE VOLUME PRESSAVG GPRESSAVG
ENERGY: 225000 0.4215 1.4459 0.1040 0.0000 -16598.4243 2382.2055 0.0000 0.0000 1680.6832 -12533.5643 210.7284 -14214.2474 -12531.0136 210.7284 -1147.0233 -1074.1470 39709.6168 -1147.0233 -1074.1470
ENERGY: 235000 0.5649 3.3281 0.3315 0.0000 -16052.3592 2336.8413 0.0000 0.0000 1923.2962 -11787.9971 241.1478 -13711.2934 -11785.0833 239.5956 -48.9855 23.2044 39464.9160 1.9912 2.0683
ENERGY: 245000 0.2748 3.9384 0.1431 0.0000 -16045.9253 2269.1836 0.0000 0.0000 1910.0212 -11862.3641 239.4833 -13772.3853 -11858.8267 239.4317 -658.4647 -532.0942 39396.3475 1.7535 1.7971
ENERGY: 255000 1.1733 6.0348 1.8380 0.0000 -16094.2262 2362.3641 0.0000 0.0000 1946.5065 -11776.3095 244.0580 -13722.8160 -11772.2443 239.3722 114.7984 250.7344 39318.0984 2.3155 2.3163
ENERGY: 265000 0.0170 5.1229 0.2164 0.0000 -16107.7630 2352.0195 0.0000 0.0000 1962.9340 -11787.4532 246.1177 -13750.3872 -11783.6161 239.4406 57.3179 155.1618 39290.5722 4.3444 3.9605
ENERGY: 275000 0.8042 2.3479 0.8006 0.0000 -15958.6037 2257.5329 0.0000 0.0000 1880.2032 -11816.9149 235.7447 -13697.1181 -11814.5112 241.2353 -607.9598 -493.5963 39779.0942 3.6317 4.1772
TCL: Running 50000 steps at 270 kelvin.
TCL: Setting parameter langevinTemp to 270
TCL: Running for 50000 steps
ETITLE: TS BOND ANGLE DIHED IMPRP ELECT VDW BOUNDARY MISC KINETIC TOTAL TEMP POTENTIAL TOTAL3 TEMPAVG PRESSURE GPRESSURE VOLUME PRESSAVG GPRESSAVG
ENERGY: 275000 0.8042 2.3479 0.8006 0.0000 -15958.6037 2257.5329 0.0000 0.0000 1879.2394 -11817.8787 235.6238 -13697.1181 -11814.4489 235.6238 -577.0663 -493.2186 39779.0942 -577.0663 -493.2186
ENERGY: 285000 0.2944 3.4538 0.5303 0.0000 -15182.2793 2066.4933 0.0000 0.0000 2209.1490 -10902.3585 276.9887 -13111.5075 -10897.1773 270.3778 -196.0769 -137.1983 40192.7895 3.9255 4.4019
ENERGY: 295000 1.9585 3.0842 0.0910 0.0000 -15328.4089 2097.6214 0.0000 0.0000 2109.3749 -11116.2790 264.4788 -13225.6539 -11112.1214 270.3581 -450.0195 -444.5637 40493.0003 3.9802 4.2378
ENERGY: 305000 0.5295 1.4230 1.1718 0.0000 -15304.9753 2160.2150 0.0000 0.0000 2155.3102 -10986.3259 270.2383 -13141.6361 -10984.2186 270.9479 12.6003 135.5383 40556.8585 6.7022 6.8695
ENERGY: 315000 0.1040 4.8736 0.7814 0.0000 -15312.5042 2172.8260 0.0000 0.0000 2118.4263 -11015.4930 265.6137 -13133.9193 -11010.7370 270.2020 307.9915 429.9372 40048.2762 3.3294 2.7149
ENERGY: 325000 0.4282 3.8565 1.0825 0.0000 -15229.0004 2081.6781 0.0000 0.0000 2150.5443 -10991.4107 269.6407 -13141.9551 -10990.1889 270.2513 -408.9293 -338.0703 40409.6645 3.9421 4.1790
TCL: Running 1000000 steps at 300 kelvin.
TCL: Setting parameter langevinTemp to 300
TCL: Running for 1000000 steps
ETITLE: TS BOND ANGLE DIHED IMPRP ELECT VDW BOUNDARY MISC KINETIC TOTAL TEMP POTENTIAL TOTAL3 TEMPAVG PRESSURE GPRESSURE VOLUME PRESSAVG GPRESSAVG
ENERGY: 325000 0.4282 3.8565 1.0825 0.0000 -15229.0004 2081.6781 0.0000 0.0000 2149.4788 -10992.4763 269.5071 -13141.9551 -10989.1635 269.5071 -419.3838 -339.9388 40409.6645 -419.3838 -339.9388
ENERGY: 525000 2.2851 2.1773 0.9638 0.0000 -14618.3891 1992.3691 0.0000 0.0000 2365.7382 -10254.8556 296.6223 -12620.5938 -10248.8259 297.8972 227.3909 283.0749 40825.8420 3.8002 3.3706
ENERGY: 725000 2.1198 7.7020 1.5605 0.0000 -14504.4907 1874.7606 0.0000 0.0000 2346.4985 -10271.8494 294.2100 -12618.3479 -10266.2997 299.1053 -568.4966 -484.4165 41374.2282 1.1986 1.5816
ENERGY: 925000 1.4486 5.0057 0.0426 0.0000 -14542.9642 1893.5896 0.0000 0.0000 2426.2775 -10216.6001 304.2129 -12642.8776 -10210.8365 301.8246 -724.0043 -594.8613 41487.7752 6.0801 6.1358
ENERGY: 1125000 0.0854 6.2374 0.5214 0.0000 -14538.3444 1968.8547 0.0000 0.0000 2426.8876 -10135.7578 304.2894 -12562.6453 -10129.5696 299.8051 169.7204 233.9224 41396.3583 5.9102 5.7117
ENERGY: 1325000 0.0336 5.0693 1.7067 0.0000 -14777.4300 2076.3288 0.0000 0.0000 2393.5457 -10300.7459 300.1089 -12694.2916 -10296.6365 298.1278 814.8231 860.6953 40411.9173 6.1272 6.4516
TCL: Exiting due to exit command.
