Info: SIMULATION PARAMETERS:
Info: TIMESTEP               2
Info: NUMBER OF STEPS        0
Info: STEPS PER CYCLE        10
Info: PERIODIC CELL BASIS 1  82.0904 0 0
Info: PERIODIC CELL BASIS 2  0 82.0904 0
Info: PERIODIC CELL BASIS 3  0 0 82.0904
Info: PERIODIC CELL CENTER   36.464 36.464 36.464
Info: WRAPPING ALL CLUSTERS AROUND PERIODIC BOUNDARIES ON OUTPUT.
Info: FIRST LDB TIMESTEP     50
Info: LAST LDB TIMESTEP     -1
Info: HOM BACKGROUND SCALING 1
Info: PME BACKGROUND SCALING 1
Info: MIN ATOMS PER PATCH    40
Info: EMPTY PATCH LOAD       40 ATOMS
Info: VELOCITY FILE          mobley_9740891_equilibrated.vel
Info: CENTER OF MASS MOVING INITIALLY? NO
Info: DIELECTRIC             1
Info: EXCLUDE                SCALED ONE-FOUR
Info: 1-4 ELECTROSTATICS SCALED BY 1
Info: MODIFIED 1-4 VDW PARAMETERS WILL BE USED
Info: DCD FILENAME           mobley_9740891_backwards.dcd
Info: DCD FREQUENCY          500
Info: DCD FIRST STEP         500
Info: DCD FILE WILL CONTAIN UNIT CELL DATA
Info: NO EXTENDED SYSTEM TRAJECTORY OUTPUT
Info: NO VELOCITY DCD OUTPUT
Info: NO FORCE DCD OUTPUT
Info: OUTPUT FILENAME        mobley_9740891_backwards
Info: BINARY OUTPUT FILES WILL BE USED
Info: NO RESTART FILE
Info: SWITCHING ACTIVE
Info: SWITCHING ON           10
Info: SWITCHING OFF          12
Info: PAIRLIST DISTANCE      14
Info: PAIRLIST SHRINK RATE   0.01
Info: PAIRLIST GROW RATE     0.01
Info: PAIRLIST TRIGGER       0.3
Info: PAIRLISTS PER CYCLE    2
Info: PAIRLISTS ENABLED
Info: MARGIN                 8
Info: HYDROGEN GROUP CUTOFF  2.5
Info: PATCH DIMENSION        24.5
Info: ENERGY OUTPUT STEPS    500
Info: ENERGY EVALUATION STEPS    500
Info: OUTPUT ENERGY PRECISION 4
Info: CROSSTERM ENERGY INCLUDED IN DIHEDRAL
Info: TIMING OUTPUT STEPS    500
Info: PRESSURE OUTPUT STEPS  500
Info: ALCHEMICAL FEP ON
Info: FEP CURRENT LAMBDA VALUE     1
Info: FEP COMPARISON LAMBDA VALUE  0.9375
Info: FEP INTRA-ALCHEMICAL NON-BONDED INTERACTIONS WILL BE DECOUPLED
Info: FEP INTRA-ALCHEMICAL BONDED INTERACTIONS WILL BE RETAINED
Info: FEP VDW SHIFTING COEFFICIENT 6
Info: FEP ELEC. ACTIVE FOR ANNIHILATED PARTICLES BETWEEN LAMBDA = 0 AND LAMBDA = 0.5
Info: FEP ELEC. ACTIVE FOR EXNIHILATED PARTICLES BETWEEN LAMBDA = 0.5 AND LAMBDA = 1
Info: FEP VDW ACTIVE FOR ANNIHILATED PARTICLES BETWEEN LAMBDA = 0 AND LAMBDA = 1
Info: FEP VDW ACTIVE FOR EXNIHILATED PARTICLES BETWEEN LAMBDA = 0 AND LAMBDA = 1
Info: FEP BOND ACTIVE FOR ANNIHILATED PARTICLES BETWEEN LAMBDA = 1 AND LAMBDA = 1
Info: FEP BOND ACTIVE FOR EXNIHILATED PARTICLES BETWEEN LAMBDA = 0 AND LAMBDA = 0
Info: LANGEVIN DYNAMICS ACTIVE
Info: LANGEVIN TEMPERATURE   298
Info: LANGEVIN USING BBK INTEGRATOR
Info: LANGEVIN DAMPING COEFFICIENT IS 1 INVERSE PS
Info: LANGEVIN DYNAMICS NOT APPLIED TO HYDROGENS
Info: LANGEVIN PISTON PRESSURE CONTROL ACTIVE
Info:        TARGET PRESSURE IS 1.01325 BAR
Info:     OSCILLATION PERIOD IS 100 FS
Info:             DECAY TIME IS 50 FS
Info:     PISTON TEMPERATURE IS 298 K
Info:       PRESSURE CONTROL IS GROUP-BASED
Info:    INITIAL STRAIN RATE IS 0.00013512 0.00013512 0.00013512
Info:       CELL FLUCTUATION IS ISOTROPIC
Info: PARTICLE MESH EWALD (PME) ACTIVE
Info: PME TOLERANCE               1e-05
Info: PME EWALD COEFFICIENT       0.226635
Info: PME INTERPOLATION ORDER     4
Info: PME GRID DIMENSIONS         84 84 84
Info: PME MAXIMUM GRID SPACING    1
Info: FULL ELECTROSTATIC EVALUATION FREQUENCY      1
Info: USING VERLET I (r-RESPA) MTS SCHEME.
Info: C1 SPLITTING OF LONG RANGE ELECTROSTATICS
Info: PLACING ATOMS IN PATCHES BY HYDROGEN GROUPS
Info: RIGID BONDS TO HYDROGEN : ALL
Info:         ERROR TOLERANCE : 1e-08
Info:          MAX ITERATIONS : 100
Info: RIGID WATER USING SETTLE ALGORITHM
Info: RANDOM NUMBER SEED     1740654660
Info: USE HYDROGEN BONDS?    NO
Info: COORDINATE PDB         mobley_9740891.pdb
Info: STRUCTURE FILE         mobley_9740891.psf
Info: PARAMETER file: CHARMM format!
Info: PARAMETERS             ../common/par_all27_prot_lipid.inp
Info: PARAMETERS             mobley_9740891.prm
Info: USING ARITHMETIC MEAN TO COMBINE L-J SIGMA PARAMETERS
Info: BINARY COORDINATES     mobley_9740891_equilibrated.coor
Info: SUMMARY OF PARAMETERS:
Info: 185 BONDS
Info: 452 ANGLES
Info: 574 DIHEDRAL
Info: 49 IMPROPER
Info: 6 CROSSTERM
Info: 124 VDW
Info: 0 VDW_PAIRS
Info: 0 NBTHOLE_PAIRS
Info: To read alchdata from file: mobley_9740891.pdb
Info: To read alchflag data from column: 5
Info: STRUCTURE SUMMARY:
Info: 4615 ATOMS
Info: 3081 BONDS
Info: 1553 ANGLES
Info: 26 DIHEDRALS
Info: 6 IMPROPERS
Info: 0 CROSSTERMS
Info: 0 EXCLUSIONS
Info: 4605 RIGID BONDS
Info: ALCH: 0 ATOMS TO DISAPPEAR IN FINAL STATE
Info: ALCH: 13 ATOMS TO APPEAR IN FINAL STATE
Info: 9240 DEGREES OF FREEDOM
Info: 1544 HYDROGEN GROUPS
Info: 3 ATOMS IN LARGEST HYDROGEN GROUP
Info: 1544 MIGRATION GROUPS
Info: 3 ATOMS IN LARGEST MIGRATION GROUP
Info: TOTAL MASS = 27807.6 amu
Info: TOTAL CHARGE = 0 e
Info: MASS DENSITY = 0.083473 g/cm^3
Info: ATOM DENSITY = 0.00834247 atoms/A^3
Info: ADDED 4657 IMPLICIT EXCLUSIONS
Info: NONBONDED TABLE R-SQUARED SPACING: 0.0625
Info: NONBONDED TABLE SIZE: 769 POINTS
Info: REMOVING COM VELOCITY 0.11637 0.0665693 0.139333
TCL: Running for 5000 steps
ETITLE: TS BOND ANGLE DIHED IMPRP ELECT VDW BOUNDARY MISC KINETIC TOTAL TEMP POTENTIAL TOTAL3 TEMPAVG PRESSURE GPRESSURE VOLUME PRESSAVG GPRESSAVG
ENERGY: 0 2.3211 7.6452 4.5749 0.3748 -15857.6603 1624.5664 0.0000 0.0000 2730.6108 -11487.5671 297.4255 -14218.1779 -11482.1984 297.4255 -22.4347 -22.4347 553193.3964 -22.4347 -22.4347
ENERGY: 1000 1.4647 6.9720 3.6748 0.1152 -16006.8596 1726.5989 0.0000 0.0000 2644.6011 -11623.4328 288.0571 -14268.0339 -11620.7585 294.2096 16.9346 16.5201 565971.0827 3.7428 3.7845
ENERGY: 2000 3.8151 3.8589 2.4474 0.1498 -15985.3921 1681.0857 0.0000 0.0000 2792.1698 -11501.8654 304.1307 -14294.0352 -11496.0229 297.5381 2.1707 2.5145 578797.9691 0.7933 0.8143
ENERGY: 3000 1.3746 3.6205 2.3990 0.3245 -15959.0933 1726.8659 0.0000 0.0000 2788.0041 -11436.5047 303.6769 -14224.5088 -11429.8031 300.1361 19.6475 20.3081 585281.3184 -0.9909 -0.9740
ENERGY: 4000 4.1728 2.6947 2.9133 0.3417 -15875.5794 1667.8939 0.0000 0.0000 2743.4427 -11454.1204 298.8232 -14197.5631 -11449.0829 299.4823 2.5073 2.5528 607729.9262 0.6170 0.6175
ENERGY: 5000 4.8845 6.1187 2.4059 0.1299 -16000.7858 1710.2442 0.0000 0.0000 2730.8570 -11546.1455 297.4523 -14277.0025 -11541.2124 294.7096 7.5931 7.9131 602299.4444 2.7133 2.7320
TCL: Running FEP window   2: Lambda1 0.9375 Lambda2 0.875  [dLambda -0.0625]
TCL: Setting parameter firsttimestep to 0
TCL: Setting parameter alchLambda to 0.9375
Info: NONBONDED TABLE R-SQUARED SPACING: 0.0625
Info: NONBONDED TABLE SIZE: 769 POINTS
TCL: Setting parameter alchLambda2 to 0.875
Info: NONBONDED TABLE R-SQUARED SPACING: 0.0625
Info: NONBONDED TABLE SIZE: 769 POINTS
TCL: Running for 5000 steps
ETITLE: TS BOND ANGLE DIHED IMPRP ELECT VDW BOUNDARY MISC KINETIC TOTAL TEMP POTENTIAL TOTAL3 TEMPAVG PRESSURE GPRESSURE VOLUME PRESSAVG GPRESSAVG
ENERGY: 0 4.8845 6.1187 2.4059 0.1299 -15999.3976 1709.2641 0.0000 0.0000 2730.7703 -11545.8241 297.4429 -14276.5944 -11540.0391 297.4429 6.2892 6.2892 602299.4444 6.2892 6.2892
ENERGY: 1000 7.0343 5.4504 3.5704 0.4791 -15954.1644 1669.3190 0.0000 0.0000 2759.4150 -11508.8962 300.5629 -14268.3111 -11503.6528 296.9138 -3.0189 -2.3211 597574.7626 0.9177 0.9349
ENERGY: 2000 4.4018 6.6572 1.3611 0.1474 -15968.1998 1691.1407 0.0000 0.0000 2736.4757 -11528.0158 298.0643 -14264.4915 -11522.3480 295.6998 1.3860 1.0829 622615.4040 0.9657 0.9899
ENERGY: 3000 6.1054 5.7224 1.5660 0.0991 -15905.5090 1707.6694 0.0000 0.0000 2662.9227 -11521.4240 290.0527 -14184.3467 -11516.3332 297.0026 13.3992 13.7264 613775.0538 2.0207 2.0707
ENERGY: 4000 2.1986 2.3841 4.4603 0.2387 -16203.6919 1802.8426 0.0000 0.0000 2760.9497 -11630.6179 300.7301 -14391.5676 -11627.4100 295.8672 58.9085 58.9743 584698.7658 0.0379 0.0509
ENERGY: 5000 4.3568 3.9470 1.1684 0.0498 -16020.3098 1710.7914 0.0000 0.0000 2718.2775 -11581.7189 296.0821 -14299.9964 -11578.4995 294.2035 11.3734 11.6924 581340.1971 0.0861 0.0979
TCL: Running FEP window   3: Lambda1 0.875  Lambda2 0.8125 [dLambda -0.0625]
TCL: Setting parameter firsttimestep to 0
TCL: Setting parameter alchLambda to 0.875
Info: NONBONDED TABLE R-SQUARED SPACING: 0.0625
Info: NONBONDED TABLE SIZE: 769 POINTS
TCL: Setting parameter alchLambda2 to 0.8125
Info: NONBONDED TABLE R-SQUARED SPACING: 0.0625
Info: NONBONDED TABLE SIZE: 769 POINTS
TCL: Running for 5000 steps
ETITLE: TS BOND ANGLE DIHED IMPRP ELECT VDW BOUNDARY MISC KINETIC TOTAL TEMP POTENTIAL TOTAL3 TEMPAVG PRESSURE GPRESSURE VOLUME PRESSAVG GPRESSAVG
ENERGY: 0 4.3568 3.9470 1.1684 0.0498 -16019.0328 1710.0562 0.0000 0.0000 2718.1935 -11581.2611 296.0730 -14299.4546 -11576.2771 296.0730 10.0791 10.0791 581340.1971 10.0791 10.0791
ENERGY: 1000 3.6392 1.8693 4.2839 0.3947 -15991.9603 1695.7916 0.0000 0.0000 2773.3419 -11512.6396 302.0799 -14285.9816 -11507.6256 299.1548 18.1196 18.0851 577614.0412 1.4312 1.4562
ENERGY: 2000 2.2749 2.1013 2.0054 0.2434 -15888.9964 1678.6835 0.0000 0.0000 2710.8615 -11492.8264 295.2744 -14203.6879 -11487.1104 297.7093 2.8361 3.6069 607118.8686 1.3031 1.3020
ENERGY: 3000 4.7701 3.9508 1.5240 0.1910 -15902.5536 1695.2981 0.0000 0.0000 2686.5478 -11510.2718 292.6261 -14196.8197 -11505.3197 297.9412 17.6392 17.2663 609253.8140 0.3778 0.3772
ENERGY: 4000 3.5964 5.6164 2.0509 0.1246 -15945.7779 1644.4621 0.0000 0.0000 2814.8693 -11475.0582 306.6032 -14289.9275 -11468.2719 299.3988 -15.3015 -14.4998 626733.0104 0.8466 0.8295
ENERGY: 5000 2.6034 2.2132 3.4674 0.1633 -15864.4759 1686.9471 0.0000 0.0000 2782.8068 -11386.2748 303.1108 -14169.0815 -11380.7358 302.4062 16.0447 15.9106 629374.6353 0.2873 0.3029
TCL: Running FEP window   4: Lambda1 0.8125 Lambda2 0.75   [dLambda -0.0625]
TCL: Setting parameter firsttimestep to 0
TCL: Setting parameter alchLambda to 0.8125
Info: NONBONDED TABLE R-SQUARED SPACING: 0.0625
Info: NONBONDED TABLE SIZE: 769 POINTS
TCL: Setting parameter alchLambda2 to 0.75
Info: NONBONDED TABLE R-SQUARED SPACING: 0.0625
Info: NONBONDED TABLE SIZE: 769 POINTS
TCL: Running for 5000 steps
ETITLE: TS BOND ANGLE DIHED IMPRP ELECT VDW BOUNDARY MISC KINETIC TOTAL TEMP POTENTIAL TOTAL3 TEMPAVG PRESSURE GPRESSURE VOLUME PRESSAVG GPRESSAVG
ENERGY: 0 2.6034 2.2132 3.4674 0.1633 -15862.9590 1686.8529 0.0000 0.0000 2782.7169 -11384.9419 303.1011 -14167.6588 -11379.4328 303.1011 15.0875 15.0875 629374.6353 15.0875 15.0875
ENERGY: 1000 3.7933 6.0667 1.9796 0.2211 -15693.5434 1534.7004 0.0000 0.0000 2793.1416 -11353.6408 304.2365 -14146.7823 -11347.4984 301.8533 -33.5226 -33.2177 634976.0753 -0.3222 -0.3297
ENERGY: 2000 2.0680 3.5669 1.2596 0.0955 -15760.3826 1678.7647 0.0000 0.0000 2693.4558 -11381.1721 293.3785 -14074.6279 -11375.4583 298.8812 7.6030 6.9073 674769.5062 1.0848 1.0768
ENERGY: 3000 4.8792 2.9211 5.0681 0.4573 -16009.1331 1751.5289 0.0000 0.0000 2695.3388 -11548.9396 293.5836 -14244.2785 -11544.7177 296.2442 26.4722 26.3870 672347.4024 2.1634 2.1642
ENERGY: 4000 3.2580 4.1021 4.8739 0.6033 -15913.2494 1735.9295 0.0000 0.0000 2648.0475 -11516.4350 288.4325 -14164.4825 -11511.0450 294.5577 18.9103 18.4379 698752.2263 1.1954 1.1803
ENERGY: 5000 2.2654 2.0850 0.6115 0.0631 -15945.1995 1685.3790 0.0000 0.0000 2772.5794 -11482.2161 301.9968 -14254.7955 -11477.7366 298.1959 -3.4726 -3.6233 722303.3704 0.5850 0.5353
TCL: Running FEP window   5: Lambda1 0.75   Lambda2 0.6875 [dLambda -0.0625]
TCL: Setting parameter firsttimestep to 0
TCL: Setting parameter alchLambda to 0.75
Info: NONBONDED TABLE R-SQUARED SPACING: 0.0625
Info: NONBONDED TABLE SIZE: 769 POINTS
TCL: Setting parameter alchLambda2 to 0.6875
Info: NONBONDED TABLE R-SQUARED SPACING: 0.0625
Info: NONBONDED TABLE SIZE: 769 POINTS
TCL: Running for 5000 steps
ETITLE: TS BOND ANGLE DIHED IMPRP ELECT VDW BOUNDARY MISC KINETIC TOTAL TEMP POTENTIAL TOTAL3 TEMPAVG PRESSURE GPRESSURE VOLUME PRESSAVG GPRESSAVG
ENERGY: 0 2.2654 2.0850 0.6115 0.0631 -15944.4930 1685.1529 0.0000 0.0000 2772.4968 -11481.8184 301.9878 -14254.3151 -11476.7481 301.9878 -4.5498 -4.5498 722303.3704 -4.5498 -4.5498
ENERGY: 1000 2.2650 3.7432 2.0452 0.1639 -15875.8445 1724.8876 0.0000 0.0000 2760.2615 -11382.4779 300.6551 -14142.7394 -11376.0419 302.7940 35.6438 35.9553 716322.5436 1.7865 1.7796
ENERGY: 2000 1.5134 1.4819 3.6668 0.2299 -15814.2560 1660.0012 0.0000 0.0000 2736.0305 -11411.3322 298.0158 -14147.3627 -11406.8565 298.3523 -4.3518 -4.9733 704457.0115 0.7540 0.7349
ENERGY: 3000 4.9249 2.5110 3.8963 0.2878 -15828.6370 1702.3382 0.0000 0.0000 2681.4408 -11433.2381 292.0698 -14114.6788 -11427.3924 299.6916 17.4023 16.8296 663212.0320 0.7678 0.7503
ENERGY: 4000 3.0126 1.3808 1.6864 0.0520 -16072.2736 1746.0234 0.0000 0.0000 2696.0569 -11624.0615 293.6618 -14320.1184 -11617.4171 295.8405 30.5596 30.9034 638497.5821 0.1950 0.2240
ENERGY: 5000 2.6832 3.8036 0.4571 0.0480 -16040.3875 1707.7668 0.0000 0.0000 2734.5783 -11591.0505 297.8577 -14325.6288 -11586.2922 295.8984 14.9724 14.7815 617789.8266 0.7789 0.8018
TCL: Running FEP window   6: Lambda1 0.6875 Lambda2 0.625  [dLambda -0.0625]
TCL: Setting parameter firsttimestep to 0
TCL: Setting parameter alchLambda to 0.6875
Info: NONBONDED TABLE R-SQUARED SPACING: 0.0625
Info: NONBONDED TABLE SIZE: 769 POINTS
TCL: Setting parameter alchLambda2 to 0.625
Info: NONBONDED TABLE R-SQUARED SPACING: 0.0625
Info: NONBONDED TABLE SIZE: 769 POINTS
TCL: Running for 5000 steps
ETITLE: TS BOND ANGLE DIHED IMPRP ELECT VDW BOUNDARY MISC KINETIC TOTAL TEMP POTENTIAL TOTAL3 TEMPAVG PRESSURE GPRESSURE VOLUME PRESSAVG GPRESSAVG
ENERGY: 0 2.6832 3.8036 0.4571 0.0480 -16039.4151 1708.2653 0.0000 0.0000 2734.4924 -11589.6653 297.8483 -14324.1578 -11583.8853 297.8483 14.0077 14.0077 617789.8266 14.0077 14.0077
ENERGY: 1000 1.7486 6.7165 2.1311 0.1840 -15777.4314 1582.1262 0.0000 0.0000 2729.8713 -11454.6537 297.3450 -14184.5250 -11448.9866 296.5924 -40.2110 -40.9062 607022.6758 1.0948 1.1131
ENERGY: 2000 1.7247 3.8272 2.2705 0.1913 -15832.0049 1661.5699 0.0000 0.0000 2733.2806 -11429.1407 297.7163 -14162.4213 -11426.0379 300.0171 -4.5130 -3.9583 589337.7224 1.0136 0.9898
ENERGY: 3000 1.7848 1.8936 0.4677 0.0533 -15881.0360 1656.6327 0.0000 0.0000 2775.4186 -11444.7854 302.3061 -14220.2040 -11439.9221 298.6955 -16.9661 -15.6883 558335.2026 1.2912 1.2803
ENERGY: 4000 4.5752 2.8800 1.8188 0.1507 -15842.7048 1611.9196 0.0000 0.0000 2775.4261 -11445.9344 302.3069 -14221.3605 -11440.3781 300.4373 -29.9963 -30.0182 576798.9757 0.6145 0.5907
ENERGY: 5000 2.1117 2.9344 2.6831 0.2882 -16006.5400 1790.3393 0.0000 0.0000 2740.0829 -11468.1004 298.4572 -14208.1833 -11463.1025 297.1209 57.9961 58.0384 559908.3811 2.0246 2.0261
TCL: Running FEP window   7: Lambda1 0.625  Lambda2 0.5625 [dLambda -0.0625]
TCL: Setting parameter firsttimestep to 0
TCL: Setting parameter alchLambda to 0.625
Info: NONBONDED TABLE R-SQUARED SPACING: 0.0625
Info: NONBONDED TABLE SIZE: 769 POINTS
TCL: Setting parameter alchLambda2 to 0.5625
Info: NONBONDED TABLE R-SQUARED SPACING: 0.0625
Info: NONBONDED TABLE SIZE: 769 POINTS
TCL: Running for 5000 steps
ETITLE: TS BOND ANGLE DIHED IMPRP ELECT VDW BOUNDARY MISC KINETIC TOTAL TEMP POTENTIAL TOTAL3 TEMPAVG PRESSURE GPRESSURE VOLUME PRESSAVG GPRESSAVG
ENERGY: 0 2.1117 2.9344 2.6831 0.2882 -16005.4623 1790.3823 0.0000 0.0000 2739.9977 -11467.0650 298.4480 -14207.0627 -11462.2395 298.4480 57.2248 57.2248 559908.3811 57.2248 57.2248
ENERGY: 1000 5.1207 4.0087 3.0793 0.1660 -15823.2425 1660.4011 0.0000 0.0000 2682.1333 -11468.3334 292.1452 -14150.4666 -11464.4728 297.8522 -7.9012 -7.2780 549162.9695 0.3213 0.3289
ENERGY: 2000 2.0153 6.3743 1.4777 0.1318 -15946.1443 1679.7082 0.0000 0.0000 2747.6361 -11508.8008 299.2800 -14256.4369 -11503.0458 296.8503 -6.2571 -5.6137 559348.4429 1.9778 2.0148
ENERGY: 3000 3.6225 2.6262 3.9302 0.3878 -15942.1922 1683.2781 0.0000 0.0000 2674.1640 -11574.1835 291.2772 -14248.3475 -11569.1986 294.8025 6.2635 6.6797 553117.4148 1.9308 1.9185
ENERGY: 4000 6.7351 3.3828 2.7784 0.2276 -16021.7005 1751.7364 0.0000 0.0000 2730.0821 -11526.7581 297.3679 -14256.8402 -11522.5943 294.6595 50.6032 50.7689 559891.7996 1.0001 0.9984
ENERGY: 5000 6.6779 2.6884 3.7056 0.3984 -15876.6971 1646.4882 0.0000 0.0000 2801.6884 -11415.0503 305.1675 -14216.7387 -11408.8759 296.1548 -22.6196 -22.6874 566025.6611 0.0840 0.1400
TCL: Running FEP window   8: Lambda1 0.5625 Lambda2 0.5    [dLambda -0.0625]
TCL: Setting parameter firsttimestep to 0
TCL: Setting parameter alchLambda to 0.5625
Info: NONBONDED TABLE R-SQUARED SPACING: 0.0625
Info: NONBONDED TABLE SIZE: 769 POINTS
TCL: Setting parameter alchLambda2 to 0.5
Info: NONBONDED TABLE R-SQUARED SPACING: 0.0625
Info: NONBONDED TABLE SIZE: 769 POINTS
TCL: Running for 5000 steps
ETITLE: TS BOND ANGLE DIHED IMPRP ELECT VDW BOUNDARY MISC KINETIC TOTAL TEMP POTENTIAL TOTAL3 TEMPAVG PRESSURE GPRESSURE VOLUME PRESSAVG GPRESSAVG
ENERGY: 0 6.6779 2.6884 3.7056 0.3984 -15876.8482 1646.8509 0.0000 0.0000 2801.6069 -11414.9202 305.1586 -14216.5271 -11409.3405 305.1586 -23.1776 -23.1776 566025.6611 -23.1776 -23.1776
ENERGY: 1000 2.5550 2.2202 2.0949 0.1492 -15868.6068 1639.4905 0.0000 0.0000 2689.7187 -11532.3783 292.9714 -14222.0970 -11524.8340 296.7840 -12.1007 -12.9642 529310.8401 0.4501 0.4654
ENERGY: 2000 4.5533 4.1087 1.7191 0.0702 -15786.1756 1600.8791 0.0000 0.0000 2627.2627 -11547.5824 286.1686 -14174.8451 -11541.0919 294.5628 -53.3201 -53.5503 510029.3218 -0.0940 -0.0880
ENERGY: 3000 5.7723 3.5385 1.1312 0.0953 -15959.0708 1707.5538 0.0000 0.0000 2706.5895 -11534.3902 294.8090 -14240.9797 -11528.9539 295.8563 22.1384 22.5846 488364.1976 1.0501 1.0721
ENERGY: 4000 3.6397 4.7869 1.7830 0.1839 -16016.5350 1692.9359 0.0000 0.0000 2721.6397 -11591.5660 296.4484 -14313.2057 -11585.7965 295.0420 12.5349 13.4942 450015.9912 0.6905 0.7082
ENERGY: 5000 2.9769 2.7865 1.0241 0.0561 -15902.9441 1630.1016 0.0000 0.0000 2705.6169 -11560.3821 294.7031 -14265.9990 -11554.5879 293.7797 -27.1680 -28.2091 440575.3111 3.1097 3.1052
TCL: Running FEP window   9: Lambda1 0.5    Lambda2 0.4375 [dLambda -0.0625]
TCL: Setting parameter firsttimestep to 0
TCL: Setting parameter alchLambda to 0.5
Info: NONBONDED TABLE R-SQUARED SPACING: 0.0625
Info: NONBONDED TABLE SIZE: 769 POINTS
TCL: Setting parameter alchLambda2 to 0.4375
Info: NONBONDED TABLE R-SQUARED SPACING: 0.0625
Info: NONBONDED TABLE SIZE: 769 POINTS
TCL: Running for 5000 steps
ETITLE: TS BOND ANGLE DIHED IMPRP ELECT VDW BOUNDARY MISC KINETIC TOTAL TEMP POTENTIAL TOTAL3 TEMPAVG PRESSURE GPRESSURE VOLUME PRESSAVG GPRESSAVG
ENERGY: 0 2.9769 2.7865 1.0241 0.0561 -15903.2700 1630.3711 0.0000 0.0000 2705.5337 -11560.5216 294.6940 -14266.0553 -11554.5976 294.6940 -29.0869 -29.0869 440575.3111 -29.0869 -29.0869
ENERGY: 1000 4.3888 5.7727 4.3289 0.4485 -16031.9534 1694.7089 0.0000 0.0000 2689.6279 -11632.6778 292.9615 -14322.3056 -11627.6131 293.3718 -5.0619 -6.4252 438045.4124 3.1263 3.1373
ENERGY: 2000 3.0705 1.7979 2.7874 0.2204 -15889.0659 1632.4678 0.0000 0.0000 2708.9659 -11539.7561 295.0679 -14248.7220 -11535.7342 294.0515 -23.6316 -23.9554 426918.5164 1.6408 1.6417
ENERGY: 3000 3.2247 4.2387 3.2261 0.1195 -15963.1184 1663.2022 0.0000 0.0000 2725.2776 -11563.8297 296.8446 -14289.1073 -11555.9799 294.7314 -27.8059 -28.1889 423561.1136 1.2150 1.2264
ENERGY: 4000 3.6246 2.6361 2.4534 0.1882 -15867.3751 1634.1885 0.0000 0.0000 2695.3075 -11528.9768 293.5802 -14224.2843 -11523.1991 298.1995 -21.1863 -21.5434 420896.6971 -0.6991 -0.7558
ENERGY: 5000 5.0180 3.2522 2.0125 0.1513 -15968.3680 1634.9701 0.0000 0.0000 2700.2578 -11622.7061 294.1194 -14322.9640 -11616.6806 293.3131 -36.9685 -37.3176 416774.6848 -1.2207 -1.2184
TCL: Running FEP window  10: Lambda1 0.4375 Lambda2 0.375  [dLambda -0.0625]
TCL: Setting parameter firsttimestep to 0
TCL: Setting parameter alchLambda to 0.4375
Info: NONBONDED TABLE R-SQUARED SPACING: 0.0625
Info: NONBONDED TABLE SIZE: 769 POINTS
TCL: Setting parameter alchLambda2 to 0.375
Info: NONBONDED TABLE R-SQUARED SPACING: 0.0625
Info: NONBONDED TABLE SIZE: 769 POINTS
TCL: Running for 5000 steps
ETITLE: TS BOND ANGLE DIHED IMPRP ELECT VDW BOUNDARY MISC KINETIC TOTAL TEMP POTENTIAL TOTAL3 TEMPAVG PRESSURE GPRESSURE VOLUME PRESSAVG GPRESSAVG
ENERGY: 0 5.0180 3.2522 2.0125 0.1513 -15968.3680 1635.9002 0.0000 0.0000 2700.1674 -11621.8664 294.1095 -14322.0339 -11616.0842 294.1095 -37.5590 -37.5590 416774.6848 -37.5590 -37.5590
ENERGY: 1000 4.3174 6.8196 2.2518 0.1798 -15956.5836 1723.6858 0.0000 0.0000 2601.4197 -11617.9094 283.3537 -14219.3291 -11610.8594 293.9997 18.4731 18.4220 417248.6221 -0.5371 -0.5169
ENERGY: 2000 5.0080 2.0520 1.1667 0.0783 -16052.8265 1744.1712 0.0000 0.0000 2739.5526 -11560.7978 298.3995 -14300.3504 -11557.8399 293.9652 7.6082 7.1493 417373.1728 1.6319 1.6285
ENERGY: 3000 8.8218 3.3115 3.3060 0.1393 -15955.4905 1716.4140 0.0000 0.0000 2706.2909 -11517.2070 294.7765 -14223.4979 -11514.4773 296.3532 7.8481 8.2628 409551.8014 0.0069 -0.0813
ENERGY: 4000 0.7665 7.0220 3.1843 0.2868 -15891.2462 1679.9822 0.0000 0.0000 2713.1662 -11486.8382 295.5254 -14200.0045 -11482.5181 297.6063 7.8813 7.7213 417754.9631 -2.3797 -2.3759
ENERGY: 5000 3.0031 2.0107 3.4110 0.1419 -15762.0326 1653.1785 0.0000 0.0000 2699.3544 -11400.9330 294.0210 -14100.2874 -11394.4064 299.1876 -16.7337 -15.6637 439610.0933 1.5585 1.5508
TCL: Running FEP window  11: Lambda1 0.375  Lambda2 0.3125 [dLambda -0.0625]
TCL: Setting parameter firsttimestep to 0
TCL: Setting parameter alchLambda to 0.375
Info: NONBONDED TABLE R-SQUARED SPACING: 0.0625
Info: NONBONDED TABLE SIZE: 769 POINTS
TCL: Setting parameter alchLambda2 to 0.3125
Info: NONBONDED TABLE R-SQUARED SPACING: 0.0625
Info: NONBONDED TABLE SIZE: 769 POINTS
TCL: Running for 5000 steps
ETITLE: TS BOND ANGLE DIHED IMPRP ELECT VDW BOUNDARY MISC KINETIC TOTAL TEMP POTENTIAL TOTAL3 TEMPAVG PRESSURE GPRESSURE VOLUME PRESSAVG GPRESSAVG
ENERGY: 0 3.0031 2.0107 3.4110 0.1419 -15762.0326 1653.4619 0.0000 0.0000 2699.2669 -11400.7370 294.0115 -14100.0039 -11396.2050 294.0115 -16.0703 -16.0703 439610.0933 -16.0703 -16.0703
ENERGY: 1000 3.7019 3.9444 1.0440 0.0571 -16067.2524 1804.0011 0.0000 0.0000 2803.2168 -11451.2872 305.3339 -14254.5040 -11445.1942 300.2958 59.1537 59.4515 426191.6118 -1.4329 -1.4208
ENERGY: 2000 1.3700 3.4207 1.7530 0.2413 -15966.3992 1694.2746 0.0000 0.0000 2752.0015 -11513.3381 299.7554 -14265.3396 -11509.3049 296.8018 21.9015 22.7547 418306.3275 -0.1067 -0.0646
ENERGY: 3000 4.1140 2.1268 2.8200 0.2580 -15989.8287 1652.4068 0.0000 0.0000 2719.7838 -11608.3194 296.2462 -14328.1032 -11602.6503 294.1032 -12.6583 -11.7602 395655.2754 -1.0861 -1.1522
ENERGY: 4000 4.1390 1.2129 1.4990 0.1797 -16019.1384 1672.3546 0.0000 0.0000 2724.5934 -11615.1599 296.7701 -14339.7532 -11609.8627 293.9234 -4.7449 -4.4273 378363.2970 1.5409 1.4796
ENERGY: 5000 1.6025 7.2651 2.9265 0.1599 -16062.7966 1755.4504 0.0000 0.0000 2728.2036 -11567.1885 297.1633 -14295.3922 -11559.3914 295.1474 43.8428 43.8539 369246.8204 1.1698 1.2080
TCL: Running FEP window  12: Lambda1 0.3125 Lambda2 0.25   [dLambda -0.0625]
TCL: Setting parameter firsttimestep to 0
TCL: Setting parameter alchLambda to 0.3125
Info: NONBONDED TABLE R-SQUARED SPACING: 0.0625
Info: NONBONDED TABLE SIZE: 769 POINTS
TCL: Setting parameter alchLambda2 to 0.25
Info: NONBONDED TABLE R-SQUARED SPACING: 0.0625
Info: NONBONDED TABLE SIZE: 769 POINTS
TCL: Running for 5000 steps
ETITLE: TS BOND ANGLE DIHED IMPRP ELECT VDW BOUNDARY MISC KINETIC TOTAL TEMP POTENTIAL TOTAL3 TEMPAVG PRESSURE GPRESSURE VOLUME PRESSAVG GPRESSAVG
ENERGY: 0 1.6025 7.2651 2.9265 0.1599 -16062.7966 1755.8294 0.0000 0.0000 2728.1156 -11566.8976 297.1537 -14295.0132 -11562.4987 297.1537 43.8001 43.8001 369246.8204 43.8001 43.8001
ENERGY: 1000 4.0710 7.9707 4.6036 0.2802 -15940.7923 1658.4573 0.0000 0.0000 2671.5910 -11593.8186 290.9969 -14265.4095 -11588.2772 291.0288 -15.9293 -15.2809 373142.8479 2.2171 2.2082
ENERGY: 2000 5.5379 2.5390 1.2768 0.1729 -16033.9497 1741.2495 0.0000 0.0000 2698.9125 -11584.2610 293.9728 -14283.1735 -11578.7285 294.0739 27.7258 27.7196 382731.1882 1.3929 1.3818
ENERGY: 3000 3.0315 3.8629 3.2272 0.1715 -16084.8407 1776.4910 0.0000 0.0000 2789.1524 -11508.9041 303.8020 -14298.0566 -11502.4397 294.7829 64.5611 64.2474 388571.2017 1.4163 1.4372
ENERGY: 4000 3.4007 2.1238 2.8336 0.2056 -15743.2320 1562.6661 0.0000 0.0000 2763.1641 -11408.8381 300.9713 -14172.0022 -11405.0534 299.3692 -58.0317 -57.9214 390005.6758 -0.2220 -0.2083
ENERGY: 5000 6.9413 3.1423 1.4940 0.1902 -15829.4434 1662.6117 0.0000 0.0000 2696.9451 -11458.1189 293.7586 -14155.0639 -11454.1710 298.3941 -10.6193 -10.5281 395354.6933 1.3318 1.3646
TCL: Running FEP window  13: Lambda1 0.25   Lambda2 0.1875 [dLambda -0.0625]
TCL: Setting parameter firsttimestep to 0
TCL: Setting parameter alchLambda to 0.25
Info: NONBONDED TABLE R-SQUARED SPACING: 0.0625
Info: NONBONDED TABLE SIZE: 769 POINTS
TCL: Setting parameter alchLambda2 to 0.1875
Info: NONBONDED TABLE R-SQUARED SPACING: 0.0625
Info: NONBONDED TABLE SIZE: 769 POINTS
TCL: Running for 5000 steps
ETITLE: TS BOND ANGLE DIHED IMPRP ELECT VDW BOUNDARY MISC KINETIC TOTAL TEMP POTENTIAL TOTAL3 TEMPAVG PRESSURE GPRESSURE VOLUME PRESSAVG GPRESSAVG
ENERGY: 0 6.9413 3.1423 1.4940 0.1902 -15829.4434 1662.9900 0.0000 0.0000 2696.8602 -11457.8254 293.7493 -14154.6856 -11452.0437 293.7493 -10.8101 -10.8101 395354.6933 -10.8101 -10.8101
ENERGY: 1000 1.9887 3.0414 2.9835 0.3213 -15957.2254 1714.7975 0.0000 0.0000 2734.5992 -11499.4938 297.8599 -14234.0929 -11496.3772 297.1796 25.6792 25.7433 386163.9338 -0.1792 -0.1596
ENERGY: 2000 3.2629 4.3566 2.5461 0.3149 -15906.5102 1642.6578 0.0000 0.0000 2749.7981 -11503.5737 299.5154 -14253.3718 -11497.7289 297.4901 -14.1948 -14.0816 382510.2571 1.3976 1.4041
ENERGY: 3000 2.9736 5.4123 1.8496 0.1547 -15750.9261 1640.5250 0.0000 0.0000 2722.4223 -11377.5887 296.5336 -14100.0109 -11370.9430 298.0377 -17.7462 -16.9929 385494.7137 2.9235 2.9024
ENERGY: 4000 3.4498 3.1419 1.8271 0.0356 -15727.9987 1618.9130 0.0000 0.0000 2703.8777 -11396.7536 294.5137 -14100.6313 -11391.9780 300.2347 -35.5240 -36.2032 388164.2984 3.3952 3.3840
ENERGY: 5000 4.2896 3.4810 1.5039 0.1141 -15896.4762 1685.1700 0.0000 0.0000 2771.7623 -11430.1555 301.9078 -14201.9178 -11425.1139 301.4170 -3.7782 -2.7257 407862.1211 0.3651 0.3408
TCL: Running FEP window  14: Lambda1 0.1875 Lambda2 0.125  [dLambda -0.0625]
TCL: Setting parameter firsttimestep to 0
TCL: Setting parameter alchLambda to 0.1875
Info: NONBONDED TABLE R-SQUARED SPACING: 0.0625
Info: NONBONDED TABLE SIZE: 769 POINTS
TCL: Setting parameter alchLambda2 to 0.125
Info: NONBONDED TABLE R-SQUARED SPACING: 0.0625
Info: NONBONDED TABLE SIZE: 769 POINTS
TCL: Running for 5000 steps
ETITLE: TS BOND ANGLE DIHED IMPRP ELECT VDW BOUNDARY MISC KINETIC TOTAL TEMP POTENTIAL TOTAL3 TEMPAVG PRESSURE GPRESSURE VOLUME PRESSAVG GPRESSAVG
ENERGY: 0 4.2896 3.4810 1.5039 0.1141 -15896.4762 1685.4541 0.0000 0.0000 2771.6785 -11429.9551 301.8987 -14201.6337 -11424.2701 301.8987 -2.7816 -2.7816 407862.1211 -2.7816 -2.7816
ENERGY: 1000 3.6875 3.1839 2.1260 0.1555 -15836.9664 1595.8640 0.0000 0.0000 2703.5266 -11528.4230 294.4754 -14231.9496 -11524.3331 297.1226 -50.8793 -51.4707 398344.8907 -1.0960 -1.1088
ENERGY: 2000 2.2972 2.1220 4.1369 0.4570 -15804.0501 1603.1899 0.0000 0.0000 2788.1881 -11403.6590 303.6970 -14191.8471 -11398.4044 298.5997 -38.5267 -38.8504 400747.3485 2.7653 2.7309
ENERGY: 3000 2.8031 4.0377 2.4919 0.1612 -15920.6709 1748.2802 0.0000 0.0000 2703.6845 -11459.2123 294.4926 -14162.8968 -11453.5442 297.1741 43.0895 42.3983 409228.4765 0.7856 0.8301
ENERGY: 4000 5.4725 1.4435 4.1997 0.4187 -16007.4823 1702.3094 0.0000 0.0000 2769.0196 -11524.6189 301.6091 -14293.6385 -11519.4944 296.7383 7.0449 8.0305 410754.0420 1.5013 1.4313
ENERGY: 5000 1.1748 4.4955 3.1201 0.3343 -15931.3887 1650.5352 0.0000 0.0000 2635.0183 -11636.7106 287.0133 -14271.7289 -11630.7241 293.5310 -46.1796 -45.7604 416601.4602 -1.0804 -1.1209
TCL: Running FEP window  15: Lambda1 0.125  Lambda2 0.0625 [dLambda -0.0625]
TCL: Setting parameter firsttimestep to 0
TCL: Setting parameter alchLambda to 0.125
Info: NONBONDED TABLE R-SQUARED SPACING: 0.0625
Info: NONBONDED TABLE SIZE: 769 POINTS
TCL: Setting parameter alchLambda2 to 0.0625
Info: NONBONDED TABLE R-SQUARED SPACING: 0.0625
Info: NONBONDED TABLE SIZE: 769 POINTS
TCL: Running for 5000 steps
ETITLE: TS BOND ANGLE DIHED IMPRP ELECT VDW BOUNDARY MISC KINETIC TOTAL TEMP POTENTIAL TOTAL3 TEMPAVG PRESSURE GPRESSURE VOLUME PRESSAVG GPRESSAVG
ENERGY: 0 1.1748 4.4955 3.1201 0.3343 -15931.3887 1650.6342 0.0000 0.0000 2634.9342 -11636.6957 287.0042 -14271.6298 -11631.1447 287.0042 -45.6641 -45.6641 416601.4602 -45.6641 -45.6641
ENERGY: 1000 1.4354 3.7673 2.4610 0.3187 -16052.5269 1765.8466 0.0000 0.0000 2754.3645 -11524.3334 300.0128 -14278.6978 -11519.2341 295.4287 47.2912 46.0326 417376.4218 2.9768 2.9825
ENERGY: 2000 4.0064 5.4320 1.7933 0.0881 -16002.8998 1666.8295 0.0000 0.0000 2722.3502 -11602.4003 296.5257 -14324.7505 -11596.7075 295.2418 -17.0724 -17.7935 417420.2788 1.1917 1.1646
ENERGY: 3000 2.5056 1.2774 2.5501 0.0761 -15834.0723 1573.4496 0.0000 0.0000 2717.2053 -11537.0084 295.9653 -14254.2136 -11530.2896 296.6473 -109.0693 -108.7071 423210.6054 -0.6578 -0.6188
ENERGY: 4000 3.6473 0.9338 3.4474 0.2331 -15955.2835 1713.7781 0.0000 0.0000 2767.6512 -11465.5928 301.4601 -14233.2440 -11461.7035 298.6576 17.1780 17.7116 415149.7346 0.3683 0.3549
ENERGY: 5000 7.6613 3.0218 2.8945 0.2603 -15811.7471 1639.2523 0.0000 0.0000 2796.8907 -11361.7662 304.6449 -14158.6569 -11355.7190 300.9901 -17.7088 -16.8851 410848.5352 0.4246 0.4252
TCL: Running FEP window  16: Lambda1 0.0625 Lambda2 0.0    [dLambda -0.0625]
TCL: Setting parameter firsttimestep to 0
TCL: Setting parameter alchLambda to 0.0625
Info: NONBONDED TABLE R-SQUARED SPACING: 0.0625
Info: NONBONDED TABLE SIZE: 769 POINTS
TCL: Setting parameter alchLambda2 to 0.0
Info: NONBONDED TABLE R-SQUARED SPACING: 0.0625
Info: NONBONDED TABLE SIZE: 769 POINTS
TCL: Running for 5000 steps
ETITLE: TS BOND ANGLE DIHED IMPRP ELECT VDW BOUNDARY MISC KINETIC TOTAL TEMP POTENTIAL TOTAL3 TEMPAVG PRESSURE GPRESSURE VOLUME PRESSAVG GPRESSAVG
ENERGY: 0 7.6613 3.0218 2.8945 0.2603 -15811.7471 1639.3513 0.0000 0.0000 2796.8084 -11361.7495 304.6359 -14158.5579 -11356.3404 304.6359 -16.8606 -16.8606 410848.5352 -16.8606 -16.8606
ENERGY: 1000 3.7242 1.6190 5.9127 0.6026 -15816.9757 1649.3481 0.0000 0.0000 2709.1053 -11446.6637 295.0831 -14155.7690 -11440.6726 296.9240 -12.2804 -12.6484 411436.9052 -0.5692 -0.5652
ENERGY: 2000 4.2054 6.4010 2.6299 0.0973 -15892.9842 1689.4648 0.0000 0.0000 2724.7583 -11465.4275 296.7880 -14190.1858 -11461.1806 296.7066 -5.7117 -5.2199 419315.6884 1.9240 1.9360
ENERGY: 3000 2.8790 6.3726 2.6360 0.0682 -15996.7409 1751.9984 0.0000 0.0000 2729.3677 -11503.4191 297.2901 -14232.7868 -11498.4748 296.2865 60.6819 60.7687 411183.2011 0.2012 0.1537
ENERGY: 4000 1.6363 5.4877 1.9974 0.1812 -15906.8121 1607.5111 0.0000 0.0000 2719.4333 -11570.5651 296.2080 -14289.9984 -11564.4355 294.6948 -66.9092 -66.1676 415657.6301 2.5498 2.5536
ENERGY: 5000 3.6952 1.7574 1.8162 0.1730 -15910.1949 1701.2087 0.0000 0.0000 2750.5179 -11451.0264 299.5939 -14201.5444 -11450.3145 298.4039 32.9547 32.9440 400715.3177 0.8676 0.8976
