Info: SIMULATION PARAMETERS:
Info: TIMESTEP               2
Info: NUMBER OF STEPS        0
Info: STEPS PER CYCLE        10
Info: PERIODIC CELL BASIS 1  40.176 0 0
Info: PERIODIC CELL BASIS 2  0 39.013 0
Info: PERIODIC CELL BASIS 3  0 0 42.851
Info: PERIODIC CELL CENTER   0 0 0
Info: WRAPPING WATERS AROUND PERIODIC BOUNDARIES ON OUTPUT.
Info: WRAPPING ALL CLUSTERS AROUND PERIODIC BOUNDARIES ON OUTPUT.
Info: FIRST LDB TIMESTEP     50
Info: LAST LDB TIMESTEP     -1
Info: HOM BACKGROUND SCALING 1
Info: PME BACKGROUND SCALING 1
Info: MIN ATOMS PER PATCH    40
Info: EMPTY PATCH LOAD       40 ATOMS
Info: INITIAL TEMPERATURE    300
Info: CENTER OF MASS MOVING INITIALLY? NO
Info: DIELECTRIC             1
Info: EXCLUDE                SCALED ONE-FOUR
Info: 1-4 ELECTROSTATICS SCALED BY 0.833333
Info: MODIFIED 1-4 VDW PARAMETERS WILL BE USED
Info: DCD FILENAME           mobley_2457863_min.dcd
Info: DCD FREQUENCY          5000
Info: DCD FIRST STEP         5000
Info: DCD FILE WILL CONTAIN UNIT CELL DATA
Info: XST FILENAME           mobley_2457863_min.xst
Info: XST FREQUENCY          5000
Info: NO VELOCITY DCD OUTPUT
Info: NO FORCE DCD OUTPUT
Info: OUTPUT FILENAME        mobley_2457863_min
Info: BINARY OUTPUT FILES WILL BE USED
Info: RESTART FILENAME       mobley_2457863_min.restart
Info: RESTART FREQUENCY      5000
Info: BINARY RESTART FILES WILL BE USED
Info: CUTOFF                 9
Info: PAIRLIST DISTANCE      11
Info: PAIRLIST SHRINK RATE   0.01
Info: PAIRLIST GROW RATE     0.01
Info: PAIRLIST TRIGGER       0.3
Info: PAIRLISTS PER CYCLE    2
Info: PAIRLISTS ENABLED
Info: MARGIN                 8
Info: HYDROGEN GROUP CUTOFF  2.5
Info: PATCH DIMENSION        21.5
Info: ENERGY OUTPUT STEPS    5000
Info: ENERGY EVALUATION STEPS    5000
Info: OUTPUT ENERGY PRECISION 4
Info: CROSSTERM ENERGY INCLUDED IN DIHEDRAL
Info: TIMING OUTPUT STEPS    50000
Info: PRESSURE OUTPUT STEPS  5000
Info: LANGEVIN DYNAMICS ACTIVE
Info: LANGEVIN TEMPERATURE   300
Info: LANGEVIN USING BBK INTEGRATOR
Info: LANGEVIN DAMPING COEFFICIENT IS 1 INVERSE PS
Info: LANGEVIN DYNAMICS APPLIED TO HYDROGENS
Info: LANGEVIN PISTON PRESSURE CONTROL ACTIVE
Info:        TARGET PRESSURE IS 1.01325 BAR
Info:     OSCILLATION PERIOD IS 50 FS
Info:             DECAY TIME IS 25 FS
Info:     PISTON TEMPERATURE IS 300 K
Info:       PRESSURE CONTROL IS GROUP-BASED
Info:    INITIAL STRAIN RATE IS 0 0 0
Info:       CELL FLUCTUATION IS ISOTROPIC
Info: PARTICLE MESH EWALD (PME) ACTIVE
Info: PME TOLERANCE               1e-06
Info: PME EWALD COEFFICIENT       0.348832
Info: PME INTERPOLATION ORDER     4
Info: PME GRID DIMENSIONS         44 40 44
Info: PME MAXIMUM GRID SPACING    1
Info: FULL ELECTROSTATIC EVALUATION FREQUENCY      2
Info: USING VERLET I (r-RESPA) MTS SCHEME.
Info: C1 SPLITTING OF LONG RANGE ELECTROSTATICS
Info: PLACING ATOMS IN PATCHES BY HYDROGEN GROUPS
Info: RIGID BONDS TO HYDROGEN : ALL
Info:         ERROR TOLERANCE : 1e-08
Info:          MAX ITERATIONS : 100
Info: RIGID WATER USING SETTLE ALGORITHM
Info: RANDOM NUMBER SEED     1741320848
Info: USE HYDROGEN BONDS?    NO
Info: Using AMBER format force field!
Info: AMBER PARM FILE        mobley_2457863.prmtop
Info: COORDINATE PDB         mobley_2457863.pdb
Info: Exclusions will be read from PARM file!
Info: SCNB (VDW SCALING)     2
Info: USING ARITHMETIC MEAN TO COMBINE L-J SIGMA PARAMETERS
Info: SUMMARY OF PARAMETERS:
Info: 9 BONDS
Info: 8 ANGLES
Info:   8 HARMONIC
Info:   0 COSINE-BASED
Info: 5 DIHEDRAL
Info: 0 IMPROPER
Info: 0 CROSSTERM
Info: 0 VDW
Info: 45 VDW_PAIRS
Info: 0 NBTHOLE_PAIRS
Info: STRUCTURE SUMMARY:
Info: 4850 ATOMS
Info: 4850 BONDS
Info: 26 ANGLES
Info: 35 DIHEDRALS
Info: 0 IMPROPERS
Info: 0 CROSSTERMS
Info: 4904 EXCLUSIONS
Info: 4841 RIGID BONDS
Info: 9709 DEGREES OF FREEDOM
Info: 1620 HYDROGEN GROUPS
Info: 4 ATOMS IN LARGEST HYDROGEN GROUP
Info: 1620 MIGRATION GROUPS
Info: 4 ATOMS IN LARGEST MIGRATION GROUP
Info: TOTAL MASS = 29147.9 amu
Info: TOTAL CHARGE = 0.000200033 e
Info: MASS DENSITY = 0.720659 g/cm^3
Info: ATOM DENSITY = 0.0722112 atoms/A^3
Info: ADDED 0 IMPLICIT EXCLUSIONS
Info: NONBONDED TABLE R-SQUARED SPACING: 0.0625
Info: NONBONDED TABLE SIZE: 705 POINTS
Info: REMOVING COM VELOCITY 0.100852 0.0924004 0.139838
TCL: Minimizing for 2000 steps
ETITLE: TS BOND ANGLE DIHED IMPRP ELECT VDW BOUNDARY MISC KINETIC TOTAL TEMP POTENTIAL TOTAL3 TEMPAVG PRESSURE GPRESSURE VOLUME PRESSAVG GPRESSAVG
ENERGY: 0 0.0607 0.2713 0.0006 0.0000 -15195.5681 1753.4637 0.0000 0.0000 0.0000 -13441.7719 0.0000 -13441.7719 -13441.7719 0.0000 11313.5817 -15702.4332 67164.0698 11313.5817 -15702.4332
ENERGY: 400 3.6611 2.6795 0.9078 0.0000 -20205.0070 2894.5598 0.0000 0.0000 0.0000 -17303.1988 0.0000 -17303.1988 -17303.1988 0.0000 15519.4943 15656.0564 67164.0698 15519.4943 15656.0564
ENERGY: 800 0.8328 1.0930 0.4406 0.0000 -21514.6857 3567.8369 0.0000 0.0000 0.0000 -17944.4823 0.0000 -17944.4823 -17944.4823 0.0000 18701.2408 18825.2623 67164.0698 18701.2408 18825.2623
ENERGY: 1200 0.5612 1.0053 0.1890 0.0000 -21909.7405 3674.5839 0.0000 0.0000 0.0000 -18233.4011 0.0000 -18233.4011 -18233.4011 0.0000 19231.9416 19337.7504 67164.0698 19231.9416 19337.7504
ENERGY: 1600 2.3578 1.7711 0.1252 0.0000 -22252.4843 3845.2882 0.0000 0.0000 0.0000 -18402.9420 0.0000 -18402.9420 -18402.9420 0.0000 20052.6364 20153.1878 67164.0698 20052.6364 20153.1878
ENERGY: 2000 0.2536 0.8024 0.0701 0.0000 -22364.3692 3897.7811 0.0000 0.0000 0.0000 -18465.4620 0.0000 -18465.4620 -18465.4620 0.0000 20327.7305 20420.1676 67164.0698 20327.7305 20420.1676
TCL: Exiting due to exit command.
Info: NAMD 3.0.1 for Linux-x86_64-multicore
Info: Please visit http://www.ks.uiuc.edu/Research/namd/
Info: for updates, documentation, and support information.
Info: Please cite Phillips et al., J. Chem. Phys. 153:044130 (2020) doi:10.1063/5.0014475
Info: in all publications reporting results obtained with NAMD.
Info: Based on Charm++/Converse 80000 for multicore-linux-x86_64-gcc
Info: Built Mon Oct 14 11:11:06 CDT 2024 by dhardy on athine.ks.uiuc.edu
Info: 1 NAMD  3.0.1  Linux-x86_64-multicore  16    k061  z5358697
Info: Running on 16 processors, 1 nodes, 1 physical nodes.
Info: CPU topology information available.
Info: Charm++/Converse parallel runtime startup completed at 0.00762119 s
Info: 1043.46 MB of memory in use based on /proc/self/stat
Info: Configuration file is mobley_2457863_equil.namd
Info: Working in the current directory /srv/scratch/z5358697/prod_prep_2/2457863
TCL: Running 25000 steps at 30 kelvin.
TCL: Suspending until startup complete.
Info: SIMULATION PARAMETERS:
Info: TIMESTEP               2
Info: NUMBER OF STEPS        0
Info: STEPS PER CYCLE        10
Info: PERIODIC CELL BASIS 1  40.176 0 0
Info: PERIODIC CELL BASIS 2  0 39.013 0
Info: PERIODIC CELL BASIS 3  0 0 42.851
Info: PERIODIC CELL CENTER   0 0 0
Info: WRAPPING WATERS AROUND PERIODIC BOUNDARIES ON OUTPUT.
Info: WRAPPING ALL CLUSTERS AROUND PERIODIC BOUNDARIES ON OUTPUT.
Info: FIRST LDB TIMESTEP     50
Info: LAST LDB TIMESTEP     -1
Info: HOM BACKGROUND SCALING 1
Info: PME BACKGROUND SCALING 1
Info: MIN ATOMS PER PATCH    40
Info: EMPTY PATCH LOAD       40 ATOMS
Info: INITIAL TEMPERATURE    300
Info: CENTER OF MASS MOVING INITIALLY? NO
Info: DIELECTRIC             1
Info: EXCLUDE                SCALED ONE-FOUR
Info: 1-4 ELECTROSTATICS SCALED BY 0.833333
Info: MODIFIED 1-4 VDW PARAMETERS WILL BE USED
Info: DCD FILENAME           mobley_2457863_equil.dcd
Info: DCD FREQUENCY          5000
Info: DCD FIRST STEP         5000
Info: DCD FILE WILL CONTAIN UNIT CELL DATA
Info: XST FILENAME           mobley_2457863_equil.xst
Info: XST FREQUENCY          5000
Info: NO VELOCITY DCD OUTPUT
Info: NO FORCE DCD OUTPUT
Info: OUTPUT FILENAME        mobley_2457863_equil
Info: BINARY OUTPUT FILES WILL BE USED
Info: RESTART FILENAME       mobley_2457863_equil.restart
Info: RESTART FREQUENCY      5000
Info: BINARY RESTART FILES WILL BE USED
Info: CUTOFF                 9
Info: PAIRLIST DISTANCE      11
Info: PAIRLIST SHRINK RATE   0.01
Info: PAIRLIST GROW RATE     0.01
Info: PAIRLIST TRIGGER       0.3
Info: PAIRLISTS PER CYCLE    2
Info: PAIRLISTS ENABLED
Info: MARGIN                 8
Info: HYDROGEN GROUP CUTOFF  2.5
Info: PATCH DIMENSION        21.5
Info: ENERGY OUTPUT STEPS    5000
Info: ENERGY EVALUATION STEPS    5000
Info: OUTPUT ENERGY PRECISION 4
Info: CROSSTERM ENERGY INCLUDED IN DIHEDRAL
Info: TIMING OUTPUT STEPS    50000
Info: PRESSURE OUTPUT STEPS  5000
Info: LANGEVIN DYNAMICS ACTIVE
Info: LANGEVIN TEMPERATURE   30
Info: LANGEVIN USING BBK INTEGRATOR
Info: LANGEVIN DAMPING COEFFICIENT IS 1 INVERSE PS
Info: LANGEVIN DYNAMICS APPLIED TO HYDROGENS
Info: LANGEVIN PISTON PRESSURE CONTROL ACTIVE
Info:        TARGET PRESSURE IS 1.01325 BAR
Info:     OSCILLATION PERIOD IS 50 FS
Info:             DECAY TIME IS 25 FS
Info:     PISTON TEMPERATURE IS 300 K
Info:       PRESSURE CONTROL IS GROUP-BASED
Info:    INITIAL STRAIN RATE IS 0 0 0
Info:       CELL FLUCTUATION IS ISOTROPIC
Info: PARTICLE MESH EWALD (PME) ACTIVE
Info: PME TOLERANCE               1e-06
Info: PME EWALD COEFFICIENT       0.348832
Info: PME INTERPOLATION ORDER     4
Info: PME GRID DIMENSIONS         44 40 44
Info: PME MAXIMUM GRID SPACING    1
Info: FULL ELECTROSTATIC EVALUATION FREQUENCY      2
Info: USING VERLET I (r-RESPA) MTS SCHEME.
Info: C1 SPLITTING OF LONG RANGE ELECTROSTATICS
Info: PLACING ATOMS IN PATCHES BY HYDROGEN GROUPS
Info: RIGID BONDS TO HYDROGEN : ALL
Info:         ERROR TOLERANCE : 1e-08
Info:          MAX ITERATIONS : 100
Info: RIGID WATER USING SETTLE ALGORITHM
Info: RANDOM NUMBER SEED     1741320863
Info: USE HYDROGEN BONDS?    NO
Info: Using AMBER format force field!
Info: AMBER PARM FILE        mobley_2457863.prmtop
Info: COORDINATE PDB         mobley_2457863.pdb
Info: Exclusions will be read from PARM file!
Info: SCNB (VDW SCALING)     2
Info: USING ARITHMETIC MEAN TO COMBINE L-J SIGMA PARAMETERS
Info: BINARY COORDINATES     mobley_2457863_min.coor
Info: SUMMARY OF PARAMETERS:
Info: 9 BONDS
Info: 8 ANGLES
Info:   8 HARMONIC
Info:   0 COSINE-BASED
Info: 5 DIHEDRAL
Info: 0 IMPROPER
Info: 0 CROSSTERM
Info: 0 VDW
Info: 45 VDW_PAIRS
Info: 0 NBTHOLE_PAIRS
Info: STRUCTURE SUMMARY:
Info: 4850 ATOMS
Info: 4850 BONDS
Info: 26 ANGLES
Info: 35 DIHEDRALS
Info: 0 IMPROPERS
Info: 0 CROSSTERMS
Info: 4904 EXCLUSIONS
Info: 4841 RIGID BONDS
Info: 9709 DEGREES OF FREEDOM
Info: 1620 HYDROGEN GROUPS
Info: 4 ATOMS IN LARGEST HYDROGEN GROUP
Info: 1620 MIGRATION GROUPS
Info: 4 ATOMS IN LARGEST MIGRATION GROUP
Info: TOTAL MASS = 29147.9 amu
Info: TOTAL CHARGE = 0.000200033 e
Info: MASS DENSITY = 0.720659 g/cm^3
Info: ATOM DENSITY = 0.0722112 atoms/A^3
Info: ADDED 0 IMPLICIT EXCLUSIONS
Info: NONBONDED TABLE R-SQUARED SPACING: 0.0625
Info: NONBONDED TABLE SIZE: 705 POINTS
Info: REMOVING COM VELOCITY -0.184164 -0.142128 -0.0368968
TCL: Running for 25000 steps
ETITLE: TS BOND ANGLE DIHED IMPRP ELECT VDW BOUNDARY MISC KINETIC TOTAL TEMP POTENTIAL TOTAL3 TEMPAVG PRESSURE GPRESSURE VOLUME PRESSAVG GPRESSAVG
ENERGY: 0 0.2536 0.8024 0.0701 0.0000 -22364.3692 3897.7811 0.0000 0.0000 2896.7804 -15568.6817 300.2835 -18465.4620 -15568.1124 300.2835 462.5157 495.7099 67164.0698 462.5157 495.7099
ENERGY: 5000 0.2824 1.1165 0.4836 0.0000 -23265.0181 3973.5246 0.0000 0.0000 298.2614 -18991.3496 30.9181 -19289.6109 -18990.7195 47.6902 -331.1993 -272.4962 47042.0140 2.7167 2.6399
ENERGY: 10000 0.3486 1.0809 0.6170 0.0000 -23353.8640 4027.2293 0.0000 0.0000 293.3925 -19031.1956 30.4134 -19324.5881 -19030.2417 30.2884 -137.9800 -89.7488 47037.8446 -0.2199 -0.3653
ENERGY: 15000 0.3849 0.8232 0.4576 0.0000 -23312.0331 3978.1884 0.0000 0.0000 294.7230 -19037.4560 30.5513 -19332.1790 -19036.4455 30.3540 -439.0214 -378.4353 47104.6347 2.0295 1.9060
ENERGY: 20000 0.4414 1.0756 0.2436 0.0000 -23514.9805 4167.1598 0.0000 0.0000 290.2499 -19055.8102 30.0876 -19346.0601 -19055.0585 30.1306 625.5437 674.1968 46681.8207 2.5034 2.4727
ENERGY: 25000 0.4857 1.2126 0.1135 0.0000 -23379.2633 4021.1060 0.0000 0.0000 286.3083 -19070.0372 29.6790 -19356.3455 -19069.4580 29.8949 -226.3144 -172.6294 47001.2900 0.5433 0.6444
TCL: Running 25000 steps at 60 kelvin.
TCL: Setting parameter langevinTemp to 60
TCL: Running for 25000 steps
ETITLE: TS BOND ANGLE DIHED IMPRP ELECT VDW BOUNDARY MISC KINETIC TOTAL TEMP POTENTIAL TOTAL3 TEMPAVG PRESSURE GPRESSURE VOLUME PRESSAVG GPRESSAVG
ENERGY: 25000 0.4857 1.2126 0.1135 0.0000 -23379.2633 4021.1060 0.0000 0.0000 286.1660 -19070.1795 29.6643 -19356.3455 -19069.5214 29.6643 -230.9081 -172.7838 47001.2900 -230.9081 -172.7838
ENERGY: 30000 0.6705 1.1018 0.4367 0.0000 -23107.8340 4041.4938 0.0000 0.0000 583.7902 -18480.3410 60.5163 -19064.1311 -18479.4492 57.1020 518.3867 588.2784 47032.9764 6.7859 6.7776
ENERGY: 35000 0.4184 2.0767 0.3256 0.0000 -23066.8748 3940.6615 0.0000 0.0000 579.9866 -18543.4058 60.1221 -19123.3925 -18541.9830 60.2963 -27.6819 29.9276 47043.5736 0.2305 0.2868
ENERGY: 40000 0.6376 1.3782 0.7910 0.0000 -23059.6581 3906.9181 0.0000 0.0000 576.1002 -18573.8331 59.7192 -19149.9333 -18572.0587 60.4637 -326.8337 -297.9169 47102.0986 3.3290 2.6812
ENERGY: 45000 0.6040 1.6248 0.7472 0.0000 -23127.5390 3965.5761 0.0000 0.0000 585.0995 -18573.8874 60.6521 -19158.9869 -18572.3127 59.9079 -74.9557 -28.9987 46971.5687 1.9814 2.4766
ENERGY: 50000 0.7196 1.0675 0.2947 0.0000 -22959.9680 3772.9005 0.0000 0.0000 589.3481 -18595.6375 61.0925 -19184.9856 -18593.3644 60.4000 -1078.2338 -1008.8541 47188.8622 1.3568 1.2293
TCL: Running 25000 steps at 90 kelvin.
TCL: Setting parameter langevinTemp to 90
TCL: Running for 25000 steps
ETITLE: TS BOND ANGLE DIHED IMPRP ELECT VDW BOUNDARY MISC KINETIC TOTAL TEMP POTENTIAL TOTAL3 TEMPAVG PRESSURE GPRESSURE VOLUME PRESSAVG GPRESSAVG
ENERGY: 50000 0.7196 1.0675 0.2947 0.0000 -22959.9680 3772.9005 0.0000 0.0000 589.0682 -18595.9174 61.0635 -19184.9856 -18594.3492 61.0635 -1061.2704 -1009.1680 47188.8622 -1061.2704 -1009.1680
ENERGY: 55000 0.7002 2.7688 0.9894 0.0000 -22811.8914 3875.8780 0.0000 0.0000 861.9675 -18069.5875 89.3525 -18931.5550 -18067.9463 87.4575 110.8609 153.0536 46978.3106 0.1497 0.4239
ENERGY: 60000 0.4791 1.8672 1.0285 0.0000 -22818.1548 3832.8901 0.0000 0.0000 880.8025 -18101.0874 91.3050 -18981.8899 -18098.5657 90.3858 -107.5349 -59.2075 46716.2212 1.5924 1.7167
ENERGY: 65000 0.7272 1.9724 2.5334 0.0000 -22963.5900 3969.0003 0.0000 0.0000 866.5974 -18122.7593 89.8324 -18989.3567 -18121.0326 90.4931 501.5765 545.4990 46559.9332 0.4771 0.2788
ENERGY: 70000 0.9004 2.4785 1.8727 0.0000 -22724.8328 3716.3458 0.0000 0.0000 860.4374 -18142.7981 89.1939 -19003.2355 -18140.7026 90.6906 -848.3798 -789.4055 46858.4904 6.3691 6.1726
ENERGY: 75000 2.2469 1.6611 1.1360 0.0000 -22942.1921 3884.4546 0.0000 0.0000 868.9413 -18183.7521 90.0754 -19052.6934 -18181.9091 90.7104 -33.2602 0.9243 46451.6827 4.6274 4.4451
TCL: Running 25000 steps at 120 kelvin.
TCL: Setting parameter langevinTemp to 120
TCL: Running for 25000 steps
ETITLE: TS BOND ANGLE DIHED IMPRP ELECT VDW BOUNDARY MISC KINETIC TOTAL TEMP POTENTIAL TOTAL3 TEMPAVG PRESSURE GPRESSURE VOLUME PRESSAVG GPRESSAVG
ENERGY: 75000 2.2469 1.6611 1.1360 0.0000 -22942.1921 3884.4546 0.0000 0.0000 868.5144 -18184.1790 90.0312 -19052.6934 -18182.4005 90.0312 -50.4771 0.8022 46451.6827 -50.4771 0.8022
ENERGY: 80000 1.1040 3.1094 1.2727 0.0000 -22488.9877 3768.1506 0.0000 0.0000 1159.9720 -17555.3790 120.2440 -18715.3510 -17551.8606 117.1307 60.8512 97.1025 47043.0399 2.1403 2.3222
ENERGY: 85000 0.9578 2.2700 1.2219 0.0000 -22402.4814 3674.3958 0.0000 0.0000 1172.6174 -17551.0187 121.5548 -18723.6360 -17548.5051 119.3924 -428.6650 -389.9799 47037.0263 1.3046 1.8146
ENERGY: 90000 2.8099 3.1560 1.6036 0.0000 -22611.0966 3841.4879 0.0000 0.0000 1165.7159 -17596.3233 120.8394 -18762.0392 -17592.7182 120.3783 290.2469 343.8931 47015.5743 5.2081 5.1675
ENERGY: 95000 0.8426 2.6128 1.4045 0.0000 -22550.5255 3784.0959 0.0000 0.0000 1157.9451 -17603.6245 120.0339 -18761.5697 -17601.0669 120.3167 38.6248 109.5477 46949.6913 1.4304 1.6568
ENERGY: 100000 0.7779 3.0995 0.9405 0.0000 -22815.7482 3979.6206 0.0000 0.0000 1185.8509 -17645.4588 122.9266 -18831.3097 -17643.1242 119.8167 892.1081 936.0241 46802.8510 -1.4228 -1.3581
TCL: Running 25000 steps at 150 kelvin.
TCL: Setting parameter langevinTemp to 150
TCL: Running for 25000 steps
ETITLE: TS BOND ANGLE DIHED IMPRP ELECT VDW BOUNDARY MISC KINETIC TOTAL TEMP POTENTIAL TOTAL3 TEMPAVG PRESSURE GPRESSURE VOLUME PRESSAVG GPRESSAVG
ENERGY: 100000 0.7779 3.0995 0.9405 0.0000 -22815.7482 3979.6206 0.0000 0.0000 1185.2786 -17646.0311 122.8673 -18831.3097 -17643.7061 122.8673 874.9401 935.3564 46802.8510 874.9401 935.3564
ENERGY: 105000 1.3212 1.6951 1.4821 0.0000 -21921.5987 3480.7438 0.0000 0.0000 1411.2072 -17025.1493 146.2873 -18436.3565 -17020.3972 147.0037 -850.9306 -804.5644 47667.1543 -1.4124 -1.9549
ENERGY: 110000 0.7856 3.0759 2.3647 0.0000 -22172.2215 3694.6105 0.0000 0.0000 1453.8194 -17017.5655 150.7045 -18471.3849 -17012.0191 150.5492 283.1746 327.4763 47112.8486 -4.4224 -4.5548
ENERGY: 115000 1.4703 4.1892 2.2559 0.0000 -21991.1100 3553.6003 0.0000 0.0000 1478.7424 -16950.8518 153.2881 -18429.5942 -16945.0644 151.1158 -442.9150 -404.8939 47374.5720 -3.5428 -3.9187
ENERGY: 120000 2.8974 2.6084 2.7446 0.0000 -22030.0603 3573.5260 0.0000 0.0000 1456.3387 -16991.9452 150.9657 -18448.2839 -16987.7765 150.6500 -322.5730 -233.9908 47232.7664 3.8191 3.2585
ENERGY: 125000 1.8996 2.9053 2.3681 0.0000 -22150.8268 3630.5767 0.0000 0.0000 1441.3059 -17071.7711 149.4074 -18513.0770 -17068.8476 149.5370 -126.2490 -68.7551 46981.2342 4.4847 4.2891
TCL: Running 50000 steps at 180 kelvin.
TCL: Setting parameter langevinTemp to 180
TCL: Running for 50000 steps
ETITLE: TS BOND ANGLE DIHED IMPRP ELECT VDW BOUNDARY MISC KINETIC TOTAL TEMP POTENTIAL TOTAL3 TEMPAVG PRESSURE GPRESSURE VOLUME PRESSAVG GPRESSAVG
ENERGY: 125000 1.8996 2.9053 2.3681 0.0000 -22150.8268 3630.5767 0.0000 0.0000 1440.6036 -17072.4734 149.3346 -18513.0770 -17069.9628 149.3346 -138.0818 -68.7895 46981.2342 -138.0818 -68.7895
ENERGY: 135000 0.7489 4.3912 1.0800 0.0000 -21675.1447 3577.6740 0.0000 0.0000 1749.4936 -16341.7569 181.3545 -18091.2505 -16338.3800 179.2999 578.3861 623.3540 47213.0060 6.1421 5.8933
ENERGY: 145000 1.7035 2.8661 1.4112 0.0000 -21411.0855 3300.2502 0.0000 0.0000 1751.8262 -16353.0282 181.5963 -18104.8544 -16349.6294 179.5477 -954.9266 -861.7330 47513.9498 0.2582 0.0815
ENERGY: 155000 1.7607 3.1049 3.5330 0.0000 -21368.5306 3372.4122 0.0000 0.0000 1734.4886 -16253.2312 179.7990 -17987.7198 -16250.3614 179.8242 -158.4799 -99.1875 47352.8118 4.6825 5.0700
ENERGY: 165000 1.1501 5.2719 1.3637 0.0000 -21465.8270 3371.1442 0.0000 0.0000 1700.7854 -16386.1118 176.3053 -18086.8972 -16383.1442 179.8445 -742.3695 -672.5739 48123.8221 0.8961 0.9071
ENERGY: 175000 3.3948 3.3852 2.8893 0.0000 -21436.2003 3351.2583 0.0000 0.0000 1737.8487 -16337.4241 180.1473 -18075.2727 -16333.7577 179.9622 -745.9019 -685.5906 47776.0898 3.2485 2.9502
TCL: Running 50000 steps at 210 kelvin.
TCL: Setting parameter langevinTemp to 210
TCL: Running for 50000 steps
ETITLE: TS BOND ANGLE DIHED IMPRP ELECT VDW BOUNDARY MISC KINETIC TOTAL TEMP POTENTIAL TOTAL3 TEMPAVG PRESSURE GPRESSURE VOLUME PRESSAVG GPRESSAVG
ENERGY: 175000 3.3948 3.3852 2.8893 0.0000 -21436.2003 3351.2583 0.0000 0.0000 1736.9656 -16338.3072 180.0558 -18075.2727 -16335.0628 180.0558 -751.2324 -686.0761 47776.0898 -751.2324 -686.0761
ENERGY: 185000 3.5611 6.1335 1.6052 0.0000 -20642.0344 3180.4169 0.0000 0.0000 2009.5209 -15440.7967 208.3092 -17450.3176 -15435.5668 209.4281 -174.8817 -91.4149 47825.7844 3.0814 2.5824
ENERGY: 195000 0.9300 2.8724 2.5940 0.0000 -20518.8944 3149.6137 0.0000 0.0000 1992.8828 -15370.0015 206.5845 -17362.8843 -15367.1249 208.9616 -248.7232 -117.1753 47873.0958 -1.1227 -0.3780
ENERGY: 205000 2.6294 2.1174 2.6977 0.0000 -20568.4319 3160.2571 0.0000 0.0000 2065.0390 -15335.6914 214.0642 -17400.7304 -15330.0456 209.9057 72.1054 161.6967 46991.9472 4.5516 4.6061
ENERGY: 215000 0.8469 3.1001 2.6369 0.0000 -20686.3498 3292.0021 0.0000 0.0000 1973.7140 -15414.0498 204.5974 -17387.7637 -15410.1642 208.4795 690.8560 792.8382 46998.0592 7.6572 8.3649
ENERGY: 225000 1.8168 3.8758 3.5989 0.0000 -20393.4448 3102.0139 0.0000 0.0000 1999.2591 -15282.8803 207.2454 -17282.1394 -15275.8067 210.9522 -171.3799 -63.8541 47462.4251 -2.9501 -3.4435
TCL: Running 50000 steps at 240 kelvin.
TCL: Setting parameter langevinTemp to 240
TCL: Running for 50000 steps
ETITLE: TS BOND ANGLE DIHED IMPRP ELECT VDW BOUNDARY MISC KINETIC TOTAL TEMP POTENTIAL TOTAL3 TEMPAVG PRESSURE GPRESSURE VOLUME PRESSAVG GPRESSAVG
ENERGY: 225000 1.8168 3.8758 3.5989 0.0000 -20393.4448 3102.0139 0.0000 0.0000 1998.2438 -15283.8956 207.1402 -17282.1394 -15280.7528 207.1402 -145.6160 -62.1502 47462.4251 -145.6160 -62.1502
ENERGY: 235000 0.6421 2.9312 7.2228 0.0000 -19425.6317 2784.6006 0.0000 0.0000 2311.3741 -14318.8609 239.5996 -16630.2351 -14312.1222 239.7479 -65.1379 27.0231 47653.1264 7.4243 6.7287
ENERGY: 245000 2.4719 5.0784 6.0005 0.0000 -19632.5778 2970.5514 0.0000 0.0000 2338.0880 -14310.3877 242.3688 -16648.4757 -14305.6765 240.3544 652.6933 664.9783 47883.4660 4.0446 4.4643
ENERGY: 255000 1.1556 4.2752 5.7182 0.0000 -19384.8869 2738.5955 0.0000 0.0000 2352.0155 -14283.1269 243.8126 -16635.1424 -14280.0941 240.2775 -553.7351 -476.4621 47896.9336 1.7152 1.5297
ENERGY: 265000 2.3764 5.2077 3.0445 0.0000 -19387.3556 2805.4287 0.0000 0.0000 2338.0164 -14233.2819 242.3614 -16571.2983 -14228.3810 239.8930 -183.4715 -140.5608 48192.8770 1.9994 1.8797
ENERGY: 275000 1.5723 5.6940 4.3622 0.0000 -19386.2876 2823.5032 0.0000 0.0000 2368.1940 -14182.9619 245.4896 -16551.1559 -14175.3509 240.0668 7.1972 125.2686 47880.9160 3.8895 3.5541
TCL: Running 50000 steps at 270 kelvin.
TCL: Setting parameter langevinTemp to 270
TCL: Running for 50000 steps
ETITLE: TS BOND ANGLE DIHED IMPRP ELECT VDW BOUNDARY MISC KINETIC TOTAL TEMP POTENTIAL TOTAL3 TEMPAVG PRESSURE GPRESSURE VOLUME PRESSAVG GPRESSAVG
ENERGY: 275000 1.5723 5.6940 4.3622 0.0000 -19386.2876 2823.5032 0.0000 0.0000 2367.0102 -14184.1457 245.3669 -16551.1559 -14179.9032 245.3669 43.7077 124.9066 47880.9160 43.7077 124.9066
ENERGY: 285000 5.1838 5.4270 1.5742 0.0000 -18486.1937 2566.4158 0.0000 0.0000 2606.8461 -13300.7468 270.2286 -15907.5929 -13292.2933 269.7903 -122.4583 -16.7489 48594.7446 3.8042 4.0151
ENERGY: 295000 0.7372 5.7414 3.6516 0.0000 -18526.6901 2576.2617 0.0000 0.0000 2669.8980 -13270.4003 276.7646 -15940.2983 -13264.1370 272.1367 -52.9255 74.1139 48641.1100 -0.9571 -0.1711
ENERGY: 305000 3.4341 4.8430 1.7859 0.0000 -18597.4668 2678.4673 0.0000 0.0000 2594.8853 -13314.0512 268.9887 -15908.9366 -13309.8950 270.1828 363.1047 445.8214 48757.3691 3.8415 4.3217
ENERGY: 315000 3.8970 2.5033 2.5083 0.0000 -18769.5042 2760.6671 0.0000 0.0000 2607.7397 -13392.1888 270.3212 -15999.9285 -13386.6746 269.3486 717.6615 833.2723 48343.9426 4.9593 4.2042
ENERGY: 325000 2.4582 5.4289 6.4315 0.0000 -18463.0027 2471.6982 0.0000 0.0000 2609.4750 -13367.5109 270.5011 -15976.9859 -13364.4691 270.1449 -656.0170 -546.7978 48706.5606 4.7530 4.5213
TCL: Running 1000000 steps at 300 kelvin.
TCL: Setting parameter langevinTemp to 300
TCL: Running for 1000000 steps
ETITLE: TS BOND ANGLE DIHED IMPRP ELECT VDW BOUNDARY MISC KINETIC TOTAL TEMP POTENTIAL TOTAL3 TEMPAVG PRESSURE GPRESSURE VOLUME PRESSAVG GPRESSAVG
ENERGY: 325000 2.4582 5.4289 6.4315 0.0000 -18463.0027 2471.6982 0.0000 0.0000 2608.2007 -13368.7852 270.3690 -15976.9859 -13364.6413 270.3690 -630.3088 -548.0118 48706.5606 -630.3088 -548.0118
ENERGY: 525000 1.7820 4.8801 6.0145 0.0000 -17865.8098 2554.3479 0.0000 0.0000 2913.1425 -12385.6429 301.9796 -15298.7854 -12383.8688 300.1356 894.3121 940.1923 49624.7941 4.0904 4.1311
ENERGY: 725000 3.0789 5.8125 2.7709 0.0000 -17643.1676 2314.1158 0.0000 0.0000 2975.3054 -12342.0841 308.4235 -15317.3895 -12334.9360 299.9575 -348.6316 -251.3041 49654.5247 0.2835 0.8285
ENERGY: 925000 1.6501 3.2332 4.4830 0.0000 -17687.6705 2359.1687 0.0000 0.0000 2917.9699 -12401.1656 302.4800 -15319.1355 -12395.3125 301.7908 -161.2956 -51.5324 49792.7118 -0.4604 -0.3529
ENERGY: 1125000 3.5504 5.2237 2.0118 0.0000 -17661.7410 2384.4306 0.0000 0.0000 2942.3938 -12324.1307 305.0118 -15266.5244 -12318.2794 299.4910 57.7159 155.8010 50263.9121 4.9571 5.0912
ENERGY: 1325000 2.2647 6.0275 4.3971 0.0000 -17626.8437 2441.8444 0.0000 0.0000 2814.9318 -12357.3782 291.7990 -15172.3101 -12352.3094 300.4799 523.6075 591.7724 49944.9438 -0.1260 -1.3662
TCL: Exiting due to exit command.
