Info: SIMULATION PARAMETERS:
Info: TIMESTEP               2
Info: NUMBER OF STEPS        0
Info: STEPS PER CYCLE        10
Info: PERIODIC CELL BASIS 1  30.9287 0 0
Info: PERIODIC CELL BASIS 2  0 30.2662 0
Info: PERIODIC CELL BASIS 3  0 0 31.9791
Info: PERIODIC CELL CENTER   0 0 0
Info: WRAPPING WATERS AROUND PERIODIC BOUNDARIES ON OUTPUT.
Info: WRAPPING ALL CLUSTERS AROUND PERIODIC BOUNDARIES ON OUTPUT.
Info: FIRST LDB TIMESTEP     50
Info: LAST LDB TIMESTEP     -1
Info: HOM BACKGROUND SCALING 1
Info: PME BACKGROUND SCALING 1
Info: MIN ATOMS PER PATCH    40
Info: EMPTY PATCH LOAD       40 ATOMS
Info: VELOCITY FILE          mobley_1717215_equil.vel
Info: CENTER OF MASS MOVING INITIALLY? NO
Info: DIELECTRIC             1
Info: EXCLUDE                SCALED ONE-FOUR
Info: 1-4 ELECTROSTATICS SCALED BY 0.833333
Info: MODIFIED 1-4 VDW PARAMETERS WILL BE USED
Info: DCD FILENAME           mobley_1717215_prod.dcd
Info: DCD FREQUENCY          100000
Info: DCD FIRST STEP         100000
Info: DCD FILE WILL CONTAIN UNIT CELL DATA
Info: XST FILENAME           mobley_1717215_prod.xst
Info: XST FREQUENCY          100000
Info: NO VELOCITY DCD OUTPUT
Info: NO FORCE DCD OUTPUT
Info: OUTPUT FILENAME        mobley_1717215_prod
Info: BINARY OUTPUT FILES WILL BE USED
Info: RESTART FILENAME       mobley_1717215_prod.restart
Info: RESTART FREQUENCY      100000
Info: BINARY RESTART FILES WILL BE USED
Info: CUTOFF                 9
Info: PAIRLIST DISTANCE      11
Info: PAIRLIST SHRINK RATE   0.01
Info: PAIRLIST GROW RATE     0.01
Info: PAIRLIST TRIGGER       0.3
Info: PAIRLISTS PER CYCLE    2
Info: PAIRLISTS ENABLED
Info: MARGIN                 2
Info: HYDROGEN GROUP CUTOFF  2.5
Info: PATCH DIMENSION        15.5
Info: ENERGY OUTPUT STEPS    100000
Info: ENERGY EVALUATION STEPS    100000
Info: OUTPUT ENERGY PRECISION 4
Info: CROSSTERM ENERGY INCLUDED IN DIHEDRAL
Info: TIMING OUTPUT STEPS    1000000
Info: PRESSURE OUTPUT STEPS  100000
Info: ALCHEMICAL FEP ON
Info: FEP CURRENT LAMBDA VALUE     0
Info: FEP COMPARISON LAMBDA VALUE  0.05
Info: FEP INTRA-ALCHEMICAL NON-BONDED INTERACTIONS WILL BE RETAINED
Info: FEP INTRA-ALCHEMICAL BONDED INTERACTIONS WILL BE RETAINED
Info: FEP VDW SHIFTING COEFFICIENT 5
Info: FEP ELEC. ACTIVE FOR ANNIHILATED PARTICLES BETWEEN LAMBDA = 0 AND LAMBDA = 0.5
Info: FEP ELEC. ACTIVE FOR EXNIHILATED PARTICLES BETWEEN LAMBDA = 0.5 AND LAMBDA = 1
Info: FEP VDW ACTIVE FOR ANNIHILATED PARTICLES BETWEEN LAMBDA = 0 AND LAMBDA = 1
Info: FEP VDW ACTIVE FOR EXNIHILATED PARTICLES BETWEEN LAMBDA = 0 AND LAMBDA = 1
Info: FEP BOND ACTIVE FOR ANNIHILATED PARTICLES BETWEEN LAMBDA = 1 AND LAMBDA = 1
Info: FEP BOND ACTIVE FOR EXNIHILATED PARTICLES BETWEEN LAMBDA = 0 AND LAMBDA = 0
Info: LANGEVIN DYNAMICS ACTIVE
Info: LANGEVIN TEMPERATURE   300
Info: LANGEVIN USING BBK INTEGRATOR
Info: LANGEVIN DAMPING COEFFICIENT IS 1 INVERSE PS
Info: LANGEVIN DYNAMICS APPLIED TO HYDROGENS
Info: LANGEVIN PISTON PRESSURE CONTROL ACTIVE
Info:        TARGET PRESSURE IS 1.01325 BAR
Info:     OSCILLATION PERIOD IS 50 FS
Info:             DECAY TIME IS 25 FS
Info:     PISTON TEMPERATURE IS 300 K
Info:       PRESSURE CONTROL IS GROUP-BASED
Info:    INITIAL STRAIN RATE IS -0.000357065 -0.000357065 -0.000357065
Info:       CELL FLUCTUATION IS ISOTROPIC
Info: PARTICLE MESH EWALD (PME) ACTIVE
Info: PME TOLERANCE               1e-06
Info: PME EWALD COEFFICIENT       0.348832
Info: PME INTERPOLATION ORDER     4
Info: PME GRID DIMENSIONS         32 32 32
Info: PME MAXIMUM GRID SPACING    1
Info: PME CALCULATION WILL BE PERFORMED ON GPU
Info: FULL ELECTROSTATIC EVALUATION FREQUENCY      2
Info: USING VERLET I (r-RESPA) MTS SCHEME.
Info: C1 SPLITTING OF LONG RANGE ELECTROSTATICS
Info: PLACING ATOMS IN PATCHES BY HYDROGEN GROUPS
Info: RIGID BONDS TO HYDROGEN : ALL
Info:         ERROR TOLERANCE : 1e-08
Info:          MAX ITERATIONS : 100
Info: RIGID WATER USING SETTLE ALGORITHM
Info: RANDOM NUMBER SEED     1742407352
Info: USE HYDROGEN BONDS?    NO
Info: Using AMBER format force field!
Info: AMBER PARM FILE        mobley_1717215.prmtop
Info: COORDINATE PDB         mobley_1717215.pdb
Info: Exclusions will be read from PARM file!
Info: SCNB (VDW SCALING)     2
Info: USING ARITHMETIC MEAN TO COMBINE L-J SIGMA PARAMETERS
Info: BINARY COORDINATES     mobley_1717215_equil.coor
Info: SUMMARY OF PARAMETERS:
Info: 7 BONDS
Info: 6 ANGLES
Info:   6 HARMONIC
Info:   0 COSINE-BASED
Info: 4 DIHEDRAL
Info: 0 IMPROPER
Info: 0 CROSSTERM
Info: 0 VDW
Info: 36 VDW_PAIRS
Info: 0 NBTHOLE_PAIRS
Info: To read alchdata from file: mobley_1717215.pdb
Info: To read alchflag data from column: 5
Info: STRUCTURE SUMMARY:
Info: 2942 ATOMS
Info: 2941 BONDS
Info: 10 ANGLES
Info: 7 DIHEDRALS
Info: 0 IMPROPERS
Info: 0 CROSSTERMS
Info: 2956 EXCLUSIONS
Info: 2938 RIGID BONDS
Info: ALCH: 0 ATOMS TO DISAPPEAR IN FINAL STATE
Info: ALCH: 8 ATOMS TO APPEAR IN FINAL STATE
Info: 5888 DEGREES OF FREEDOM
Info: 982 HYDROGEN GROUPS
Info: 4 ATOMS IN LARGEST HYDROGEN GROUP
Info: 982 MIGRATION GROUPS
Info: 4 ATOMS IN LARGEST MIGRATION GROUP
Info: TOTAL MASS = 17679.7 amu
Info: TOTAL CHARGE = -9.99756e-05 e
Info: MASS DENSITY = 0.980726 g/cm^3
Info: ATOM DENSITY = 0.0982779 atoms/A^3
Info: ADDED 0 IMPLICIT EXCLUSIONS
Info: NONBONDED TABLE R-SQUARED SPACING: 0.0625
Info: NONBONDED TABLE SIZE: 705 POINTS
Info: REMOVING COM VELOCITY -0.248986 0.0324472 -0.107839
Info: Use 3D box decompostion in PME FFT.
Info: Updated CUDA force table with 4096 elements.
Info: Updated CUDA LJ table with 8 x 8 elements.
Info: Found 11 unique exclusion lists needing 16 bytes
TCL: Running for 1500000 steps
ETITLE: TS BOND ANGLE DIHED IMPRP ELECT VDW BOUNDARY MISC KINETIC TOTAL TEMP POTENTIAL TOTALAVG TEMPAVG PRESSURE GPRESSURE VOLUME PRESSAVG GPRESSAVG
ENERGY: 0 0.7522 1.9872 0.0801 0.0000 -10728.9731 1536.2953 0.0000 0.0000 1789.0782 -7400.7802 305.8102 -9189.8584 -7400.7802 305.8102 1024.7600 1122.7255 29935.5059 1024.7600 1122.7255
ENERGY: 300000 1.2725 2.5135 0.1401 0.0000 -10635.0183 1450.4419 0.0000 0.0000 1698.1543 -7482.4959 290.2684 -9180.6503 -7489.4428 299.4076 210.9023 257.0370 30398.4458 575.8720 631.9790
ENERGY: 600000 0.5103 3.0075 1.2052 0.0000 -10677.3022 1457.6636 0.0000 0.0000 1788.2535 -7426.6621 305.6692 -9214.9155 -7469.7708 301.7908 572.3378 685.6580 29641.0136 392.4382 434.2894
ENERGY: 900000 0.1317 1.7976 0.3207 0.0000 -10681.0758 1429.9205 0.0000 0.0000 1742.9254 -7505.9798 297.9212 -9248.9052 -7465.8539 301.7833 78.5140 143.2201 29918.7346 76.7147 145.3036
ENERGY: 1200000 1.8163 1.6144 1.4994 0.0000 -10735.3572 1475.7067 0.0000 0.0000 1735.3696 -7519.3509 296.6296 -9254.7205 -7473.4068 300.3439 -0.7969 66.7056 30193.1546 20.0279 90.1435
ENERGY: 1500000 1.7310 2.6684 0.2544 0.0000 -10711.7874 1385.4706 0.0000 0.0000 1738.2704 -7583.3925 297.1255 -9321.6630 -7487.8083 299.8284 -618.2432 -531.6762 30170.6157 -44.6926 22.9791
TCL: Running FEP window   2: Lambda1 0.05   Lambda2 0.1    [dLambda 0.05  ]
TCL: Setting parameter firsttimestep to 0
TCL: Setting parameter alchLambda to 0.05
Info: NONBONDED TABLE R-SQUARED SPACING: 0.0625
Info: NONBONDED TABLE SIZE: 705 POINTS
TCL: Setting parameter alchLambda2 to 0.1
Info: NONBONDED TABLE R-SQUARED SPACING: 0.0625
Info: NONBONDED TABLE SIZE: 705 POINTS
TCL: Running for 1500000 steps
ETITLE: TS BOND ANGLE DIHED IMPRP ELECT VDW BOUNDARY MISC KINETIC TOTAL TEMP POTENTIAL TOTALAVG TEMPAVG PRESSURE GPRESSURE VOLUME PRESSAVG GPRESSAVG
ENERGY: 0 1.7310 2.6684 0.2544 0.0000 -10711.7861 1385.1921 0.0000 0.0000 1737.3884 -7584.5518 296.9747 -9321.9402 -7584.5518 296.9747 -613.3808 -533.0321 30170.6157 -613.3808 -533.0321
ENERGY: 300000 1.0876 5.2498 3.1267 0.0000 -10793.6166 1420.4981 0.0000 0.0000 1778.8150 -7584.8395 304.0558 -9363.6545 -7522.4379 304.9488 -538.2269 -491.8022 30314.5371 -196.0645 -152.0345
ENERGY: 600000 0.8754 4.4301 2.0875 0.0000 -10722.5715 1385.3152 0.0000 0.0000 1784.7461 -7545.1172 305.0697 -9329.8633 -7529.0246 303.0334 -504.3013 -405.8181 29861.8003 -166.1024 -112.7765
ENERGY: 900000 0.8474 2.5849 0.5916 0.0000 -10862.9698 1601.6225 0.0000 0.0000 1816.0336 -7441.2897 310.4177 -9257.3233 -7510.8738 302.4641 1363.6386 1439.0222 29970.1587 55.0829 112.8146
ENERGY: 1200000 0.9423 1.4308 1.5443 0.0000 -10654.7286 1473.5983 0.0000 0.0000 1788.1728 -7389.0400 305.6554 -9177.2128 -7512.7769 300.4952 581.8091 596.4190 30075.4305 131.1776 185.6703
ENERGY: 1500000 1.1556 1.2071 0.8266 0.0000 -10881.3633 1536.7759 0.0000 0.0000 1758.3811 -7583.0170 300.5631 -9341.3981 -7519.8514 300.1111 762.7032 843.2076 29574.8466 117.2757 174.7673
TCL: Running FEP window   3: Lambda1 0.1    Lambda2 0.15000000000000002 [dLambda 0.05000000000000002]
TCL: Setting parameter firsttimestep to 0
TCL: Setting parameter alchLambda to 0.1
Info: NONBONDED TABLE R-SQUARED SPACING: 0.0625
Info: NONBONDED TABLE SIZE: 705 POINTS
TCL: Setting parameter alchLambda2 to 0.15000000000000002
Info: NONBONDED TABLE R-SQUARED SPACING: 0.0625
Info: NONBONDED TABLE SIZE: 705 POINTS
TCL: Running for 1500000 steps
ETITLE: TS BOND ANGLE DIHED IMPRP ELECT VDW BOUNDARY MISC KINETIC TOTAL TEMP POTENTIAL TOTALAVG TEMPAVG PRESSURE GPRESSURE VOLUME PRESSAVG GPRESSAVG
ENERGY: 0 1.1556 1.2071 0.8266 0.0000 -10881.3628 1537.6793 0.0000 0.0000 1757.4984 -7582.9960 300.4122 -9340.4943 -7582.9960 300.4122 751.5179 849.3698 29574.8466 751.5179 849.3698
ENERGY: 300000 0.8070 2.0223 3.1219 0.0000 -10662.5187 1423.8529 0.0000 0.0000 1811.4689 -7421.2456 309.6374 -9232.7145 -7518.0574 304.6963 -240.0790 -129.0044 30277.4242 30.6428 119.5812
ENERGY: 600000 1.0324 3.6752 1.1089 0.0000 -10721.6481 1475.1696 0.0000 0.0000 1758.3150 -7482.3469 300.5518 -9240.6619 -7495.3730 302.1862 143.0945 264.6491 30239.0453 219.6026 283.9208
ENERGY: 900000 0.4746 2.7787 2.9729 0.0000 -10610.8434 1397.7034 0.0000 0.0000 1764.7198 -7442.1939 301.6465 -9206.9137 -7498.8466 300.5112 -370.8299 -370.6501 30725.0392 130.2996 201.9389
ENERGY: 1200000 0.2375 2.5801 1.1831 0.0000 -10663.6792 1418.4202 0.0000 0.0000 1749.9430 -7491.3155 299.1207 -9241.2585 -7503.7165 300.9503 -93.3842 -51.5500 30074.9073 147.6191 208.1519
ENERGY: 1500000 0.8440 1.9879 0.2701 0.0000 -10681.9184 1408.6669 0.0000 0.0000 1826.4958 -7443.6537 312.2060 -9270.1495 -7499.0298 301.5729 -194.1633 -141.1598 30157.3853 56.4370 113.6041
TCL: Running FEP window   4: Lambda1 0.15000000000000002 Lambda2 0.2    [dLambda 0.04999999999999999]
TCL: Setting parameter firsttimestep to 0
TCL: Setting parameter alchLambda to 0.15000000000000002
Info: NONBONDED TABLE R-SQUARED SPACING: 0.0625
Info: NONBONDED TABLE SIZE: 705 POINTS
TCL: Setting parameter alchLambda2 to 0.2
Info: NONBONDED TABLE R-SQUARED SPACING: 0.0625
Info: NONBONDED TABLE SIZE: 705 POINTS
TCL: Running for 1500000 steps
ETITLE: TS BOND ANGLE DIHED IMPRP ELECT VDW BOUNDARY MISC KINETIC TOTAL TEMP POTENTIAL TOTALAVG TEMPAVG PRESSURE GPRESSURE VOLUME PRESSAVG GPRESSAVG
ENERGY: 0 0.8440 1.9879 0.2701 0.0000 -10681.9187 1409.0930 0.0000 0.0000 1825.6473 -7444.0764 312.0610 -9269.7237 -7444.0764 312.0610 -208.0106 -138.9149 30157.3853 -208.0106 -138.9149
ENERGY: 300000 1.3262 1.2633 2.7142 0.0000 -10733.5544 1442.9113 0.0000 0.0000 1722.0631 -7563.2763 294.3552 -9285.3394 -7508.5928 300.2080 -240.0450 -168.0561 30273.0378 2.6086 54.7982
ENERGY: 600000 0.1211 2.9966 0.1036 0.0000 -10645.8048 1449.2360 0.0000 0.0000 1783.4123 -7409.9351 304.8417 -9193.3474 -7481.1912 301.9652 -31.4827 40.5779 30763.0084 -5.2114 43.6442
ENERGY: 900000 1.7351 4.6066 0.2785 0.0000 -10535.8090 1362.2823 0.0000 0.0000 1781.0280 -7385.8784 304.4341 -9166.9063 -7471.2740 301.5389 -334.0556 -260.4115 30138.7461 -23.0643 29.6085
ENERGY: 1200000 0.1234 1.1220 1.6752 0.0000 -10507.0451 1365.8937 0.0000 0.0000 1741.3789 -7396.8520 297.6568 -9138.2308 -7472.3829 301.0006 -245.7346 -178.3085 30367.9118 -97.2768 -47.7749
ENERGY: 1500000 1.0464 2.6897 1.0114 0.0000 -10565.9695 1391.1815 0.0000 0.0000 1747.6869 -7422.3536 298.7351 -9170.0405 -7473.0176 300.3463 -252.1120 -259.4681 30492.6240 -114.7352 -66.2118
TCL: Running FEP window   5: Lambda1 0.2    Lambda2 0.25   [dLambda 0.04999999999999999]
TCL: Setting parameter firsttimestep to 0
TCL: Setting parameter alchLambda to 0.2
Info: NONBONDED TABLE R-SQUARED SPACING: 0.0625
Info: NONBONDED TABLE SIZE: 705 POINTS
TCL: Setting parameter alchLambda2 to 0.25
Info: NONBONDED TABLE R-SQUARED SPACING: 0.0625
Info: NONBONDED TABLE SIZE: 705 POINTS
TCL: Running for 1500000 steps
ETITLE: TS BOND ANGLE DIHED IMPRP ELECT VDW BOUNDARY MISC KINETIC TOTAL TEMP POTENTIAL TOTALAVG TEMPAVG PRESSURE GPRESSURE VOLUME PRESSAVG GPRESSAVG
ENERGY: 0 1.0464 2.6897 1.0114 0.0000 -10565.9693 1390.9160 0.0000 0.0000 1746.8168 -7423.4891 298.5863 -9170.3058 -7423.4891 298.5863 -347.4657 -260.3680 30492.6240 -347.4657 -260.3680
ENERGY: 300000 0.3899 1.0575 2.8707 0.0000 -10742.6829 1479.2634 0.0000 0.0000 1749.2045 -7509.8969 298.9945 -9259.1014 -7488.3916 299.0887 439.0413 466.6176 30076.2961 -84.3636 -36.8617
ENERGY: 600000 0.6247 2.6677 0.6599 0.0000 -10518.2682 1266.8292 0.0000 0.0000 1789.6786 -7457.8079 305.9128 -9247.4866 -7486.5828 300.4376 -1545.4255 -1466.1452 30589.8496 -495.7918 -444.2484
ENERGY: 900000 0.1377 2.1321 0.1513 0.0000 -10659.2587 1375.3518 0.0000 0.0000 1745.4079 -7536.0779 298.3455 -9281.4858 -7501.8353 299.8114 -589.8060 -425.7585 30035.7380 -511.1480 -439.4373
ENERGY: 1200000 1.4685 2.5149 1.2712 0.0000 -10698.8598 1442.6162 0.0000 0.0000 1785.7880 -7465.2010 305.2478 -9250.9890 -7496.3758 299.9689 -86.8055 -23.0110 30509.7630 -364.2493 -302.2320
ENERGY: 1500000 0.2132 3.1405 1.6773 0.0000 -10722.0884 1462.8074 0.0000 0.0000 1753.5029 -7500.7471 299.7292 -9254.2500 -7501.3371 299.2728 312.2358 350.5870 29989.9290 -263.7701 -204.0871
TCL: Running FEP window   6: Lambda1 0.25   Lambda2 0.3    [dLambda 0.04999999999999999]
TCL: Setting parameter firsttimestep to 0
TCL: Setting parameter alchLambda to 0.25
Info: NONBONDED TABLE R-SQUARED SPACING: 0.0625
Info: NONBONDED TABLE SIZE: 705 POINTS
TCL: Setting parameter alchLambda2 to 0.3
Info: NONBONDED TABLE R-SQUARED SPACING: 0.0625
Info: NONBONDED TABLE SIZE: 705 POINTS
TCL: Running for 1500000 steps
ETITLE: TS BOND ANGLE DIHED IMPRP ELECT VDW BOUNDARY MISC KINETIC TOTAL TEMP POTENTIAL TOTALAVG TEMPAVG PRESSURE GPRESSURE VOLUME PRESSAVG GPRESSAVG
ENERGY: 0 0.2132 3.1405 1.6773 0.0000 -10722.0862 1462.7119 0.0000 0.0000 1752.6247 -7501.7186 299.5791 -9254.3432 -7501.7186 299.5791 267.2898 351.7917 29989.9290 267.2898 351.7917
ENERGY: 300000 0.0325 2.1266 0.9534 0.0000 -10627.9917 1423.4017 0.0000 0.0000 1729.1215 -7472.3561 295.5617 -9201.4776 -7487.5787 301.3810 -206.0811 -91.2643 30589.9050 -196.5368 -137.5192
ENERGY: 600000 2.5598 3.6787 0.2303 0.0000 -10614.8839 1341.9402 0.0000 0.0000 1717.7994 -7548.6755 293.6264 -9266.4749 -7495.8608 299.0713 -906.5184 -758.4790 30127.7171 -358.2146 -272.0754
ENERGY: 900000 0.6606 2.0615 0.8464 0.0000 -10700.7183 1429.3263 0.0000 0.0000 1772.5692 -7495.2543 302.9882 -9267.8235 -7486.9406 298.9941 -269.3303 -150.3742 30249.4289 -286.5349 -189.8352
ENERGY: 1200000 1.8609 3.1010 0.2728 0.0000 -10715.8984 1454.8040 0.0000 0.0000 1773.7703 -7482.0894 303.1936 -9255.8597 -7470.8274 300.4765 -161.6744 -78.6347 30565.3081 -204.1835 -110.7626
ENERGY: 1500000 0.4870 2.5819 2.5835 0.0000 -10517.1389 1378.2342 0.0000 0.0000 1762.3809 -7370.8715 301.2467 -9133.2523 -7464.2653 300.5854 -226.4741 -187.2517 30409.5635 -244.7497 -154.9826
TCL: Running FEP window   7: Lambda1 0.3    Lambda2 0.35   [dLambda 0.04999999999999999]
TCL: Setting parameter firsttimestep to 0
TCL: Setting parameter alchLambda to 0.3
Info: NONBONDED TABLE R-SQUARED SPACING: 0.0625
Info: NONBONDED TABLE SIZE: 705 POINTS
TCL: Setting parameter alchLambda2 to 0.35
Info: NONBONDED TABLE R-SQUARED SPACING: 0.0625
Info: NONBONDED TABLE SIZE: 705 POINTS
TCL: Running for 1500000 steps
ETITLE: TS BOND ANGLE DIHED IMPRP ELECT VDW BOUNDARY MISC KINETIC TOTAL TEMP POTENTIAL TOTALAVG TEMPAVG PRESSURE GPRESSURE VOLUME PRESSAVG GPRESSAVG
ENERGY: 0 0.4870 2.5819 2.5835 0.0000 -10517.1399 1378.6308 0.0000 0.0000 1761.5184 -7371.3382 301.0993 -9132.8566 -7371.3382 301.0993 -267.2669 -183.1129 30409.5635 -267.2669 -183.1129
ENERGY: 300000 1.6190 3.7706 0.1052 0.0000 -10621.4857 1375.8109 0.0000 0.0000 1790.5504 -7449.6297 306.0618 -9240.1800 -7426.1238 303.9566 -568.6612 -473.9348 30185.6352 -246.4839 -172.8605
ENERGY: 600000 2.1803 1.1740 0.8209 0.0000 -10686.6054 1404.0938 0.0000 0.0000 1789.3054 -7489.0311 305.8490 -9278.3365 -7468.9627 302.1003 -287.9611 -292.9604 30238.6685 -211.9147 -140.2397
ENERGY: 900000 0.1291 3.1072 0.7871 0.0000 -10521.8095 1355.0082 0.0000 0.0000 1797.6011 -7365.1769 307.2670 -9162.7780 -7461.5048 302.2666 -580.3920 -505.1886 30602.5649 -279.3522 -202.3399
ENERGY: 1200000 0.6739 7.5424 1.2051 0.0000 -10672.4723 1415.2581 0.0000 0.0000 1749.8893 -7497.9036 299.1115 -9247.7929 -7475.4832 301.0639 -199.4782 -155.7572 30212.1687 -230.5918 -158.1925
ENERGY: 1500000 4.3326 2.3150 0.1126 0.0000 -10652.7198 1422.1325 0.0000 0.0000 1761.5548 -7462.2724 301.1055 -9223.8272 -7459.2667 301.7684 -183.0661 -132.6810 30373.9181 -253.7041 -181.8950
TCL: Running FEP window   8: Lambda1 0.35   Lambda2 0.39999999999999997 [dLambda 0.04999999999999999]
TCL: Setting parameter firsttimestep to 0
TCL: Setting parameter alchLambda to 0.35
Info: NONBONDED TABLE R-SQUARED SPACING: 0.0625
Info: NONBONDED TABLE SIZE: 705 POINTS
TCL: Setting parameter alchLambda2 to 0.39999999999999997
Info: NONBONDED TABLE R-SQUARED SPACING: 0.0625
Info: NONBONDED TABLE SIZE: 705 POINTS
TCL: Running for 1500000 steps
ETITLE: TS BOND ANGLE DIHED IMPRP ELECT VDW BOUNDARY MISC KINETIC TOTAL TEMP POTENTIAL TOTALAVG TEMPAVG PRESSURE GPRESSURE VOLUME PRESSAVG GPRESSAVG
ENERGY: 0 4.3326 2.3150 0.1126 0.0000 -10652.7193 1423.6445 0.0000 0.0000 1760.6565 -7461.6582 300.9520 -9222.3147 -7461.6582 300.9520 -201.5828 -121.1027 30373.9181 -201.5828 -121.1027
ENERGY: 300000 0.4224 2.6344 1.4929 0.0000 -10646.9873 1404.8254 0.0000 0.0000 1766.0651 -7471.5472 301.8765 -9237.6122 -7469.5442 301.0903 -153.9363 -97.4905 30137.0895 128.4012 171.4507
ENERGY: 600000 0.8560 1.4592 0.6094 0.0000 -10632.5601 1355.6485 0.0000 0.0000 1743.8578 -7530.1291 298.0806 -9273.9869 -7474.6857 302.9374 -760.2171 -767.0376 30381.3506 153.5102 189.6500
ENERGY: 900000 0.8968 2.1378 0.4939 0.0000 -10524.6618 1321.0415 0.0000 0.0000 1730.1629 -7469.9289 295.7397 -9200.0918 -7478.3957 301.9057 -1115.7255 -1049.3324 30759.4877 107.9434 155.2630
ENERGY: 1200000 0.5398 0.6752 0.2233 0.0000 -10634.4277 1403.3920 0.0000 0.0000 1790.1116 -7439.4859 305.9868 -9229.5974 -7480.5251 301.9731 -542.4258 -435.7971 30719.4156 41.1175 95.9572
ENERGY: 1500000 0.3937 3.4020 0.2382 0.0000 -10731.4346 1505.7988 0.0000 0.0000 1734.8842 -7486.7177 296.5467 -9221.6020 -7486.1518 301.4177 579.9295 652.9822 29856.0187 -4.1410 61.0563
TCL: Running FEP window   9: Lambda1 0.39999999999999997 Lambda2 0.44999999999999996 [dLambda 0.04999999999999999]
TCL: Setting parameter firsttimestep to 0
TCL: Setting parameter alchLambda to 0.39999999999999997
Info: NONBONDED TABLE R-SQUARED SPACING: 0.0625
Info: NONBONDED TABLE SIZE: 705 POINTS
TCL: Setting parameter alchLambda2 to 0.44999999999999996
Info: NONBONDED TABLE R-SQUARED SPACING: 0.0625
Info: NONBONDED TABLE SIZE: 705 POINTS
TCL: Running for 1500000 steps
ETITLE: TS BOND ANGLE DIHED IMPRP ELECT VDW BOUNDARY MISC KINETIC TOTAL TEMP POTENTIAL TOTALAVG TEMPAVG PRESSURE GPRESSURE VOLUME PRESSAVG GPRESSAVG
ENERGY: 0 0.3937 3.4020 0.2382 0.0000 -10731.4360 1506.2841 0.0000 0.0000 1734.0254 -7487.0927 296.3999 -9221.1180 -7487.0927 296.3999 576.6728 658.3326 29856.0187 576.6728 658.3326
ENERGY: 300000 3.3590 2.0469 1.2444 0.0000 -10634.2693 1408.1039 0.0000 0.0000 1800.6135 -7418.9016 307.7819 -9219.5151 -7487.0977 302.8912 -532.6723 -532.7821 30844.3220 92.3966 173.7421
ENERGY: 600000 0.7347 1.5470 2.3915 0.0000 -10617.0615 1458.3568 0.0000 0.0000 1765.9621 -7388.0694 301.8589 -9154.0315 -7470.6911 300.6847 545.3264 626.5153 30017.2748 303.8684 380.0624
ENERGY: 900000 1.0069 1.1269 1.9236 0.0000 -10564.5154 1347.4590 0.0000 0.0000 1735.8711 -7477.1278 296.7154 -9212.9989 -7480.4772 299.8405 -501.5529 -475.3855 30269.2378 48.8201 118.9256
ENERGY: 1200000 0.8721 2.8618 0.2937 0.0000 -10782.6757 1496.3152 0.0000 0.0000 1712.9082 -7569.4247 292.7903 -9282.3329 -7491.2783 298.9347 541.1042 553.4302 29897.4964 37.1736 102.8590
ENERGY: 1500000 1.1529 2.8451 0.0315 0.0000 -10659.5869 1455.7049 0.0000 0.0000 1727.7027 -7472.1498 295.3191 -9199.8525 -7493.0572 298.0376 -105.1517 -54.3237 30823.7070 -12.0175 56.3118
TCL: Running FEP window  10: Lambda1 0.44999999999999996 Lambda2 0.49999999999999994 [dLambda 0.04999999999999999]
TCL: Setting parameter firsttimestep to 0
TCL: Setting parameter alchLambda to 0.44999999999999996
Info: NONBONDED TABLE R-SQUARED SPACING: 0.0625
Info: NONBONDED TABLE SIZE: 705 POINTS
TCL: Setting parameter alchLambda2 to 0.49999999999999994
Info: NONBONDED TABLE R-SQUARED SPACING: 0.0625
Info: NONBONDED TABLE SIZE: 705 POINTS
TCL: Running for 1500000 steps
ETITLE: TS BOND ANGLE DIHED IMPRP ELECT VDW BOUNDARY MISC KINETIC TOTAL TEMP POTENTIAL TOTALAVG TEMPAVG PRESSURE GPRESSURE VOLUME PRESSAVG GPRESSAVG
ENERGY: 0 1.1529 2.8451 0.0315 0.0000 -10659.5872 1455.4060 0.0000 0.0000 1726.8437 -7473.3081 295.1723 -9200.1517 -7473.3081 295.1723 -131.6303 -49.5160 30823.7070 -131.6303 -49.5160
ENERGY: 300000 1.2763 4.5112 2.1587 0.0000 -10700.6631 1476.0714 0.0000 0.0000 1760.7921 -7455.8534 300.9752 -9216.6455 -7502.7958 299.0042 336.2650 376.4631 30322.3721 -151.4797 -82.6813
ENERGY: 600000 0.9535 2.4022 0.0341 0.0000 -10711.7766 1484.8784 0.0000 0.0000 1801.2408 -7422.2675 307.8891 -9223.5083 -7462.1549 301.8965 437.0670 517.0532 30226.8789 -88.7631 -21.4198
ENERGY: 900000 0.5640 1.9944 0.6336 0.0000 -10700.7345 1434.9347 0.0000 0.0000 1716.2942 -7546.3136 293.3691 -9262.6078 -7485.1845 301.2601 -301.2671 -249.7095 30632.0873 -188.9553 -122.6047
ENERGY: 1200000 1.2178 3.3217 0.4891 0.0000 -10890.8542 1584.2183 0.0000 0.0000 1791.8949 -7509.7125 306.2916 -9301.6074 -7485.6150 300.7887 1032.2714 1094.6300 30149.5886 -113.4100 -50.1385
ENERGY: 1500000 1.5473 2.5082 0.5838 0.0000 -10743.7101 1496.0186 0.0000 0.0000 1719.6055 -7523.4468 293.9351 -9243.0522 -7494.3441 299.9048 346.5255 457.4155 30296.2300 -77.8488 -11.1400
TCL: Running FEP window  11: Lambda1 0.49999999999999994 Lambda2 0.5499999999999999 [dLambda 0.04999999999999999]
TCL: Setting parameter firsttimestep to 0
TCL: Setting parameter alchLambda to 0.49999999999999994
Info: NONBONDED TABLE R-SQUARED SPACING: 0.0625
Info: NONBONDED TABLE SIZE: 705 POINTS
TCL: Setting parameter alchLambda2 to 0.5499999999999999
Info: NONBONDED TABLE R-SQUARED SPACING: 0.0625
Info: NONBONDED TABLE SIZE: 705 POINTS
TCL: Running for 1500000 steps
ETITLE: TS BOND ANGLE DIHED IMPRP ELECT VDW BOUNDARY MISC KINETIC TOTAL TEMP POTENTIAL TOTALAVG TEMPAVG PRESSURE GPRESSURE VOLUME PRESSAVG GPRESSAVG
ENERGY: 0 1.5473 2.5082 0.5838 0.0000 -10743.7088 1495.7525 0.0000 0.0000 1718.7224 -7524.5946 293.7841 -9243.3170 -7524.5946 293.7841 377.4829 458.6478 30296.2300 377.4829 458.6478
ENERGY: 300000 3.4112 1.9040 0.9481 0.0000 -10741.6178 1443.7201 0.0000 0.0000 1745.0537 -7546.5807 298.2850 -9291.6344 -7521.6199 298.3969 -257.8774 -158.1643 30217.8193 125.9820 182.2440
ENERGY: 600000 1.0888 3.0095 2.8151 0.0000 -10544.4699 1313.5343 0.0000 0.0000 1790.1030 -7433.9192 305.9853 -9224.0222 -7505.1308 298.4290 -818.2864 -761.5725 30362.0781 -235.6260 -185.2362
ENERGY: 900000 0.2103 2.9905 0.6111 0.0000 -10651.7950 1444.7956 0.0000 0.0000 1748.2452 -7454.9422 298.8305 -9203.1874 -7493.6392 298.9491 53.2253 145.0836 30484.4599 -291.7189 -231.6760
ENERGY: 1200000 1.1774 4.3405 0.2897 0.0000 -10718.2574 1484.1764 0.0000 0.0000 1758.3497 -7469.9236 300.5577 -9228.2733 -7496.4443 298.9296 337.3937 438.6226 30092.4928 -153.9400 -93.9220
ENERGY: 1500000 3.7932 2.3801 0.3115 0.0000 -10852.1889 1481.8269 0.0000 0.0000 1784.7221 -7579.1550 305.0656 -9363.8772 -7497.5484 299.6717 -159.9906 -138.7748 30350.6930 -159.9347 -99.2997
TCL: Running FEP window  12: Lambda1 0.5499999999999999 Lambda2 0.6    [dLambda 0.050000000000000044]
TCL: Setting parameter firsttimestep to 0
TCL: Setting parameter alchLambda to 0.5499999999999999
Info: NONBONDED TABLE R-SQUARED SPACING: 0.0625
Info: NONBONDED TABLE SIZE: 705 POINTS
TCL: Setting parameter alchLambda2 to 0.6
Info: NONBONDED TABLE R-SQUARED SPACING: 0.0625
Info: NONBONDED TABLE SIZE: 705 POINTS
TCL: Running for 1500000 steps
ETITLE: TS BOND ANGLE DIHED IMPRP ELECT VDW BOUNDARY MISC KINETIC TOTAL TEMP POTENTIAL TOTALAVG TEMPAVG PRESSURE GPRESSURE VOLUME PRESSAVG GPRESSAVG
ENERGY: 0 3.7932 2.3801 0.3115 0.0000 -10852.8371 1481.7229 0.0000 0.0000 1783.8442 -7580.7852 304.9155 -9364.6294 -7580.7852 304.9155 -218.7921 -137.3698 30350.6930 -218.7921 -137.3698
ENERGY: 300000 0.2466 0.6405 0.1384 0.0000 -10683.1872 1428.8831 0.0000 0.0000 1793.4408 -7459.8379 306.5559 -9253.2787 -7516.3324 300.0082 -67.6150 -26.8335 30228.5739 -190.3679 -122.7691
ENERGY: 600000 0.0067 0.9468 0.1405 0.0000 -10687.2822 1406.5521 0.0000 0.0000 1793.8913 -7485.7448 306.6329 -9279.6361 -7500.4358 301.8620 -205.2915 -172.9769 30057.6693 -60.6388 10.1493
ENERGY: 900000 0.4607 2.1882 0.7029 0.0000 -10790.5342 1507.2584 0.0000 0.0000 1720.9730 -7558.9511 294.1688 -9279.9241 -7502.1472 301.1609 145.1394 294.0275 30697.0906 36.1876 119.0996
ENERGY: 1200000 0.7801 1.5474 2.4909 0.0000 -10777.6441 1464.8950 0.0000 0.0000 1751.0451 -7556.8857 299.3091 -9307.9308 -7506.0515 300.9307 315.4040 423.1756 29657.5952 66.2593 145.1442
ENERGY: 1500000 2.1621 4.1278 0.5736 0.0000 -10704.4367 1462.4287 0.0000 0.0000 1695.3519 -7539.7926 289.7894 -9235.1445 -7508.1793 300.6583 -17.7342 11.9494 30481.0182 0.2374 75.2081
TCL: Running FEP window  13: Lambda1 0.6    Lambda2 0.65   [dLambda 0.050000000000000044]
TCL: Setting parameter firsttimestep to 0
TCL: Setting parameter alchLambda to 0.6
Info: NONBONDED TABLE R-SQUARED SPACING: 0.0625
Info: NONBONDED TABLE SIZE: 705 POINTS
TCL: Setting parameter alchLambda2 to 0.65
Info: NONBONDED TABLE R-SQUARED SPACING: 0.0625
Info: NONBONDED TABLE SIZE: 705 POINTS
TCL: Running for 1500000 steps
ETITLE: TS BOND ANGLE DIHED IMPRP ELECT VDW BOUNDARY MISC KINETIC TOTAL TEMP POTENTIAL TOTALAVG TEMPAVG PRESSURE GPRESSURE VOLUME PRESSAVG GPRESSAVG
ENERGY: 0 2.1621 4.1278 0.5736 0.0000 -10704.3805 1462.2944 0.0000 0.0000 1694.4889 -7540.7338 289.6418 -9235.2227 -7540.7338 289.6418 -58.0247 14.5975 30481.0182 -58.0247 14.5975
ENERGY: 300000 0.5914 1.6787 0.2881 0.0000 -10705.5315 1428.2571 0.0000 0.0000 1756.6779 -7518.0383 300.2719 -9274.7162 -7502.3812 298.0967 -499.8517 -401.1662 30715.2651 -178.1515 -107.7996
ENERGY: 600000 1.2386 3.6371 0.6620 0.0000 -10715.7239 1468.0655 0.0000 0.0000 1743.9359 -7498.1847 298.0939 -9242.1206 -7478.4111 301.1852 168.8839 218.7329 30104.2493 -231.3257 -161.4041
ENERGY: 900000 0.7513 3.9090 0.2952 0.0000 -10609.4297 1393.7345 0.0000 0.0000 1687.0075 -7523.7321 288.3630 -9210.7396 -7482.9098 299.4424 -368.6981 -277.4785 30125.7724 -273.2171 -205.3466
ENERGY: 1200000 4.0348 2.8830 0.3499 0.0000 -10513.6710 1354.0631 0.0000 0.0000 1769.4111 -7382.9291 302.4484 -9152.3402 -7481.9453 300.4257 -649.6926 -587.1678 30825.1754 -330.7059 -262.9327
ENERGY: 1500000 0.2396 2.3574 2.5700 0.0000 -10569.1489 1404.6513 0.0000 0.0000 1711.4209 -7447.9096 292.5361 -9159.3305 -7486.1899 300.1998 -326.6865 -280.4172 30870.4866 -382.7679 -319.6040
TCL: Running FEP window  14: Lambda1 0.65   Lambda2 0.7000000000000001 [dLambda 0.050000000000000044]
TCL: Setting parameter firsttimestep to 0
TCL: Setting parameter alchLambda to 0.65
Info: NONBONDED TABLE R-SQUARED SPACING: 0.0625
Info: NONBONDED TABLE SIZE: 705 POINTS
TCL: Setting parameter alchLambda2 to 0.7000000000000001
Info: NONBONDED TABLE R-SQUARED SPACING: 0.0625
Info: NONBONDED TABLE SIZE: 705 POINTS
TCL: Running for 1500000 steps
ETITLE: TS BOND ANGLE DIHED IMPRP ELECT VDW BOUNDARY MISC KINETIC TOTAL TEMP POTENTIAL TOTALAVG TEMPAVG PRESSURE GPRESSURE VOLUME PRESSAVG GPRESSAVG
ENERGY: 0 0.2396 2.3574 2.5700 0.0000 -10569.1963 1404.4472 0.0000 0.0000 1710.5400 -7449.0420 292.3855 -9159.5820 -7449.0420 292.3855 -363.8757 -278.0806 30870.4866 -363.8757 -278.0806
ENERGY: 300000 0.8877 4.1177 0.4260 0.0000 -10685.9862 1467.8103 0.0000 0.0000 1723.6002 -7489.1443 294.6179 -9212.7445 -7487.5204 296.9163 306.9034 383.9655 30248.7332 -104.7563 -28.5859
ENERGY: 600000 0.3746 1.8068 0.4473 0.0000 -10746.7161 1511.7475 0.0000 0.0000 1741.8132 -7490.5267 297.7311 -9232.3399 -7488.9834 299.3172 745.1330 770.3223 30049.8769 119.5495 187.5367
ENERGY: 900000 0.9703 1.3725 2.5742 0.0000 -10702.5637 1421.8794 0.0000 0.0000 1768.3081 -7507.4593 302.2599 -9275.7673 -7499.0820 299.2806 -201.9056 -123.0799 30152.6802 59.4514 123.7174
ENERGY: 1200000 1.1112 4.4563 0.9749 0.0000 -10621.8662 1424.4729 0.0000 0.0000 1737.4006 -7453.4503 296.9768 -9190.8509 -7490.9440 300.0501 -22.9338 103.7450 30201.4975 103.9051 170.5649
ENERGY: 1500000 0.9477 3.1119 1.5065 0.0000 -10616.9856 1384.2469 0.0000 0.0000 1778.8397 -7448.3328 304.0601 -9227.1726 -7485.1493 300.0601 -354.9753 -245.3146 30224.3304 -17.1236 51.1758
TCL: Running FEP window  15: Lambda1 0.7000000000000001 Lambda2 0.7500000000000001 [dLambda 0.050000000000000044]
TCL: Setting parameter firsttimestep to 0
TCL: Setting parameter alchLambda to 0.7000000000000001
Info: NONBONDED TABLE R-SQUARED SPACING: 0.0625
Info: NONBONDED TABLE SIZE: 705 POINTS
TCL: Setting parameter alchLambda2 to 0.7500000000000001
Info: NONBONDED TABLE R-SQUARED SPACING: 0.0625
Info: NONBONDED TABLE SIZE: 705 POINTS
TCL: Running for 1500000 steps
ETITLE: TS BOND ANGLE DIHED IMPRP ELECT VDW BOUNDARY MISC KINETIC TOTAL TEMP POTENTIAL TOTALAVG TEMPAVG PRESSURE GPRESSURE VOLUME PRESSAVG GPRESSAVG
ENERGY: 0 0.9477 3.1119 1.5065 0.0000 -10617.3596 1384.0961 0.0000 0.0000 1777.9815 -7449.7160 303.9134 -9227.6975 -7449.7160 303.9134 -328.8538 -238.8594 30224.3304 -328.8538 -238.8594
ENERGY: 300000 1.7794 2.5068 0.6489 0.0000 -10664.6209 1418.9588 0.0000 0.0000 1757.3368 -7483.3901 300.3845 -9240.7269 -7493.0842 298.3239 -153.9562 -124.1172 30212.7427 -405.7446 -319.0143
ENERGY: 600000 0.6874 2.2548 1.0706 0.0000 -10753.8661 1454.4686 0.0000 0.0000 1800.0669 -7495.3177 307.6885 -9295.3846 -7499.0145 299.9985 43.2020 136.6976 29989.3642 -292.1216 -200.5431
ENERGY: 900000 0.8367 4.9654 0.7772 0.0000 -10667.0822 1447.9782 0.0000 0.0000 1855.3243 -7357.2004 317.1337 -9212.5247 -7492.7467 300.7411 261.5635 340.2381 30148.6821 12.5405 87.3551
ENERGY: 1200000 0.5043 1.6195 1.4091 0.0000 -10890.7237 1558.1619 0.0000 0.0000 1735.4566 -7593.5724 296.6445 -9329.0289 -7499.3823 301.0259 671.0378 764.1572 30348.3811 -13.7731 59.7701
ENERGY: 1500000 0.8038 2.3216 1.4949 0.0000 -10813.1231 1493.0576 0.0000 0.0000 1692.9630 -7622.4823 289.3810 -9315.4452 -7503.3846 300.4906 323.1303 395.7903 29923.1469 -8.7622 64.8738
TCL: Running FEP window  16: Lambda1 0.7500000000000001 Lambda2 0.8000000000000002 [dLambda 0.050000000000000044]
TCL: Setting parameter firsttimestep to 0
TCL: Setting parameter alchLambda to 0.7500000000000001
Info: NONBONDED TABLE R-SQUARED SPACING: 0.0625
Info: NONBONDED TABLE SIZE: 705 POINTS
TCL: Setting parameter alchLambda2 to 0.8000000000000002
Info: NONBONDED TABLE R-SQUARED SPACING: 0.0625
Info: NONBONDED TABLE SIZE: 705 POINTS
TCL: Running for 1500000 steps
ETITLE: TS BOND ANGLE DIHED IMPRP ELECT VDW BOUNDARY MISC KINETIC TOTAL TEMP POTENTIAL TOTALAVG TEMPAVG PRESSURE GPRESSURE VOLUME PRESSAVG GPRESSAVG
ENERGY: 0 0.8038 2.3216 1.4949 0.0000 -10814.0886 1493.4317 0.0000 0.0000 1692.0834 -7623.9532 289.2307 -9316.0365 -7623.9532 289.2307 336.3073 403.2247 29923.1469 336.3073 403.2247
ENERGY: 300000 0.2343 3.9191 0.7180 0.0000 -10515.0431 1333.1968 0.0000 0.0000 1715.1726 -7461.8023 293.1773 -9176.9749 -7482.8622 295.4773 -848.5278 -801.1644 31185.0817 -134.4139 -67.6259
ENERGY: 600000 0.1516 1.4061 0.3524 0.0000 -10652.1869 1449.0511 0.0000 0.0000 1740.1009 -7461.1249 297.4384 -9201.2257 -7492.8930 295.8061 259.0906 382.6792 30123.9784 -120.3421 -59.8389
ENERGY: 900000 0.4913 1.7652 0.7413 0.0000 -10614.5159 1406.5847 0.0000 0.0000 1805.2377 -7399.6958 308.5723 -9204.9335 -7486.3705 298.0328 149.8155 175.1184 30076.6036 -168.3894 -117.5216
ENERGY: 1200000 0.5034 2.4649 1.0847 0.0000 -10645.5265 1395.1643 0.0000 0.0000 1799.1097 -7447.1995 307.5249 -9246.3092 -7479.8269 299.3368 -267.1109 -174.8606 30191.6827 -228.0629 -175.0101
ENERGY: 1500000 1.7884 3.2450 0.6820 0.0000 -10653.6087 1439.7744 0.0000 0.0000 1727.3088 -7480.8102 295.2518 -9208.1190 -7484.4894 299.1634 164.5324 194.7536 30336.4047 -157.9382 -107.1081
TCL: Running FEP window  17: Lambda1 0.8000000000000002 Lambda2 0.8500000000000002 [dLambda 0.050000000000000044]
TCL: Setting parameter firsttimestep to 0
TCL: Setting parameter alchLambda to 0.8000000000000002
Info: NONBONDED TABLE R-SQUARED SPACING: 0.0625
Info: NONBONDED TABLE SIZE: 705 POINTS
TCL: Setting parameter alchLambda2 to 0.8500000000000002
Info: NONBONDED TABLE R-SQUARED SPACING: 0.0625
Info: NONBONDED TABLE SIZE: 705 POINTS
TCL: Running for 1500000 steps
ETITLE: TS BOND ANGLE DIHED IMPRP ELECT VDW BOUNDARY MISC KINETIC TOTAL TEMP POTENTIAL TOTALAVG TEMPAVG PRESSURE GPRESSURE VOLUME PRESSAVG GPRESSAVG
ENERGY: 0 1.7884 3.2450 0.6820 0.0000 -10655.1373 1440.7068 0.0000 0.0000 1726.3897 -7482.3254 295.0947 -9208.7152 -7482.3254 295.0947 121.7275 207.1688 30336.4047 121.7275 207.1688
ENERGY: 300000 0.2824 2.3148 1.1868 0.0000 -10612.1449 1373.2838 0.0000 0.0000 1682.3071 -7552.7700 287.5596 -9235.0771 -7498.3955 294.7293 -352.6645 -299.0227 30092.8843 -393.9328 -323.0827
ENERGY: 600000 0.0876 4.0196 0.3516 0.0000 -10671.0161 1505.4866 0.0000 0.0000 1690.1408 -7470.9299 288.8986 -9161.0707 -7491.8614 295.9818 365.4229 457.1554 30878.6253 -163.8079 -85.4691
ENERGY: 900000 1.8129 2.0854 0.0288 0.0000 -10717.5279 1469.1025 0.0000 0.0000 1752.5660 -7491.9324 299.5691 -9244.4983 -7498.0413 296.5979 -187.4136 -50.9659 30680.2480 -27.8130 57.2857
ENERGY: 1200000 1.6646 3.1826 0.1737 0.0000 -10740.2740 1449.2387 0.0000 0.0000 1698.3413 -7587.6730 290.3003 -9286.0143 -7494.5545 296.6879 126.6036 90.5503 30072.3409 40.3347 110.6891
ENERGY: 1500000 0.3317 2.0674 0.9040 0.0000 -10734.0623 1465.5351 0.0000 0.0000 1732.4854 -7532.7387 296.1367 -9265.2242 -7487.3053 297.6979 283.3225 381.7759 29926.4261 79.5339 147.2210
TCL: Running FEP window  18: Lambda1 0.8500000000000002 Lambda2 0.9000000000000002 [dLambda 0.050000000000000044]
TCL: Setting parameter firsttimestep to 0
TCL: Setting parameter alchLambda to 0.8500000000000002
Info: NONBONDED TABLE R-SQUARED SPACING: 0.0625
Info: NONBONDED TABLE SIZE: 705 POINTS
TCL: Setting parameter alchLambda2 to 0.9000000000000002
Info: NONBONDED TABLE R-SQUARED SPACING: 0.0625
Info: NONBONDED TABLE SIZE: 705 POINTS
TCL: Running for 1500000 steps
ETITLE: TS BOND ANGLE DIHED IMPRP ELECT VDW BOUNDARY MISC KINETIC TOTAL TEMP POTENTIAL TOTALAVG TEMPAVG PRESSURE GPRESSURE VOLUME PRESSAVG GPRESSAVG
ENERGY: 0 0.3317 2.0674 0.9040 0.0000 -10735.2641 1466.5038 0.0000 0.0000 1731.6142 -7533.8430 295.9877 -9265.4573 -7533.8430 295.9877 307.4298 398.3731 29926.4261 307.4298 398.3731
ENERGY: 300000 0.0611 2.5601 0.3640 0.0000 -10737.4021 1428.4394 0.0000 0.0000 1729.9251 -7576.0525 295.6990 -9305.9776 -7556.7041 293.2669 -122.4237 -130.5628 30196.4389 -324.9425 -285.8031
ENERGY: 600000 2.3264 1.9228 1.4228 0.0000 -10717.4072 1446.5770 0.0000 0.0000 1741.2773 -7523.8809 297.6395 -9265.1582 -7497.8097 298.1647 -229.7742 -181.5961 30389.2623 -228.2283 -177.5887
ENERGY: 900000 1.5469 2.9334 0.6064 0.0000 -10741.7825 1429.4640 0.0000 0.0000 1758.8525 -7548.3792 300.6436 -9307.2317 -7510.3696 298.0093 -87.0430 -36.6874 30169.0628 -120.1271 -63.8483
ENERGY: 1200000 0.9126 1.4356 0.5639 0.0000 -10782.4432 1489.5918 0.0000 0.0000 1794.9519 -7494.9873 306.8142 -9289.9392 -7502.0612 298.8375 215.9548 285.4213 30209.7706 67.0915 124.8149
ENERGY: 1500000 4.3938 5.4153 1.2112 0.0000 -10547.7580 1380.8322 0.0000 0.0000 1713.2088 -7442.6967 292.8417 -9155.9055 -7490.5072 298.5438 -300.4001 -257.7820 30497.8074 -41.9150 18.1119
TCL: Running FEP window  19: Lambda1 0.9000000000000002 Lambda2 0.9500000000000003 [dLambda 0.050000000000000044]
TCL: Setting parameter firsttimestep to 0
TCL: Setting parameter alchLambda to 0.9000000000000002
Info: NONBONDED TABLE R-SQUARED SPACING: 0.0625
Info: NONBONDED TABLE SIZE: 705 POINTS
TCL: Setting parameter alchLambda2 to 0.9500000000000003
Info: NONBONDED TABLE R-SQUARED SPACING: 0.0625
Info: NONBONDED TABLE SIZE: 705 POINTS
TCL: Running for 1500000 steps
ETITLE: TS BOND ANGLE DIHED IMPRP ELECT VDW BOUNDARY MISC KINETIC TOTAL TEMP POTENTIAL TOTALAVG TEMPAVG PRESSURE GPRESSURE VOLUME PRESSAVG GPRESSAVG
ENERGY: 0 4.3938 5.4153 1.2112 0.0000 -10548.8616 1382.0597 0.0000 0.0000 1712.3281 -7443.4535 292.6911 -9155.7816 -7443.4535 292.6911 -327.3710 -239.2463 30497.8074 -327.3710 -239.2463
ENERGY: 300000 0.7697 2.5467 0.2399 0.0000 -10619.1025 1336.2373 0.0000 0.0000 1711.9549 -7567.3540 292.6273 -9279.3089 -7496.4198 297.2041 -946.3774 -948.4931 30511.9848 -387.7193 -354.4207
ENERGY: 600000 0.1150 0.5876 0.2939 0.0000 -10801.6912 1516.9884 0.0000 0.0000 1701.9247 -7581.7817 290.9129 -9283.7064 -7498.9476 297.1387 618.4133 659.1542 30152.9236 -242.0443 -198.2974
ENERGY: 900000 0.7853 1.8064 0.4262 0.0000 -10704.5411 1506.6644 0.0000 0.0000 1745.3335 -7449.5254 298.3328 -9194.8589 -7485.0439 298.7765 790.9125 826.5465 30097.9575 -189.8624 -148.0663
ENERGY: 1200000 0.8301 0.5638 0.3120 0.0000 -10682.6694 1467.1942 0.0000 0.0000 1742.9111 -7470.8582 297.9187 -9213.7693 -7488.9209 298.3056 342.3001 373.8004 30403.5137 -211.5088 -161.3882
ENERGY: 1500000 1.1518 2.0445 0.1653 0.0000 -10677.6898 1448.8942 0.0000 0.0000 1700.6885 -7524.7456 290.7016 -9225.4341 -7492.7711 297.8578 -93.8884 -39.5342 30285.5690 -171.0229 -125.8178
TCL: Running FEP window  20: Lambda1 0.9500000000000003 Lambda2 1.0    [dLambda 0.04999999999999971]
TCL: Setting parameter firsttimestep to 0
TCL: Setting parameter alchLambda to 0.9500000000000003
Info: NONBONDED TABLE R-SQUARED SPACING: 0.0625
Info: NONBONDED TABLE SIZE: 705 POINTS
TCL: Setting parameter alchLambda2 to 1.0
Info: NONBONDED TABLE R-SQUARED SPACING: 0.0625
Info: NONBONDED TABLE SIZE: 705 POINTS
TCL: Running for 1500000 steps
ETITLE: TS BOND ANGLE DIHED IMPRP ELECT VDW BOUNDARY MISC KINETIC TOTAL TEMP POTENTIAL TOTALAVG TEMPAVG PRESSURE GPRESSURE VOLUME PRESSAVG GPRESSAVG
ENERGY: 0 1.1519 2.0445 0.1653 0.0000 -10678.7874 1449.5835 0.0000 0.0000 1699.7961 -7526.0461 290.5490 -9225.8423 -7526.0461 290.5490 -102.5515 -27.0259 30285.5690 -102.5515 -27.0259
ENERGY: 300000 0.2217 2.2485 2.7430 0.0000 -10650.4260 1427.4083 0.0000 0.0000 1737.2633 -7480.5412 296.9534 -9217.8045 -7509.0802 295.5989 51.7268 73.4793 30503.5511 -190.2742 -109.0157
ENERGY: 600000 0.7071 2.6125 0.4798 0.0000 -10638.3729 1465.7908 0.0000 0.0000 1665.0930 -7503.6899 284.6172 -9168.7828 -7503.0020 296.3278 132.8374 228.3821 30509.7602 -228.9220 -160.0615
ENERGY: 900000 1.4921 1.8057 0.1181 0.0000 -10595.0956 1386.5271 0.0000 0.0000 1772.0156 -7433.1370 302.8936 -9205.1526 -7491.7807 297.6317 -437.8033 -333.0037 30357.7614 -277.1054 -206.4751
ENERGY: 1200000 3.7349 4.3897 0.8319 0.0000 -10807.4484 1507.5563 0.0000 0.0000 1752.0719 -7538.8636 299.4846 -9290.9355 -7491.2040 299.1657 201.3160 267.6538 30647.4039 -201.0417 -137.2910
ENERGY: 1500000 0.4602 4.0070 0.2940 0.0000 -10659.4728 1399.1028 0.0000 0.0000 1749.8713 -7505.7375 299.1085 -9255.6088 -7503.8070 298.8659 -286.8301 -233.7843 30244.0296 -199.8843 -141.1742
TCL: Exiting due to exit command.
