Info: SIMULATION PARAMETERS:
Info: TIMESTEP               1
Info: NUMBER OF STEPS        0
Info: STEPS PER CYCLE        10
Info: PERIODIC CELL BASIS 1  30 0 0
Info: PERIODIC CELL BASIS 2  0 30 0
Info: PERIODIC CELL BASIS 3  0 0 30
Info: PERIODIC CELL CENTER   0 0 0
Info: WRAPPING ALL CLUSTERS AROUND PERIODIC BOUNDARIES ON OUTPUT.
Info: FIRST LDB TIMESTEP     50
Info: LAST LDB TIMESTEP     -1
Info: HOM BACKGROUND SCALING 1
Info: MIN ATOMS PER PATCH    40
Info: EMPTY PATCH LOAD       40 ATOMS
Info: INITIAL TEMPERATURE    298
Info: CENTER OF MASS MOVING INITIALLY? NO
Info: DIELECTRIC             1
Info: EXCLUDE                SCALED ONE-FOUR
Info: 1-4 ELECTROSTATICS SCALED BY 1
Info: MODIFIED 1-4 VDW PARAMETERS WILL BE USED
Info: DCD FILENAME           output.dcd
Info: DCD FREQUENCY          10000
Info: DCD FIRST STEP         10000
Info: DCD FILE WILL CONTAIN UNIT CELL DATA
Info: NO EXTENDED SYSTEM TRAJECTORY OUTPUT
Info: NO VELOCITY DCD OUTPUT
Info: NO FORCE DCD OUTPUT
Info: OUTPUT FILENAME        output
Info: BINARY OUTPUT FILES WILL BE USED
Info: NO RESTART FILE
Info: SWITCHING ACTIVE
Info: SWITCHING ON           10
Info: SWITCHING OFF          12
Info: PAIRLIST DISTANCE      14
Info: PAIRLIST SHRINK RATE   0.01
Info: PAIRLIST GROW RATE     0.01
Info: PAIRLIST TRIGGER       0.3
Info: PAIRLISTS PER CYCLE    2
Info: PAIRLISTS ENABLED
Info: MARGIN                 0
Info: HYDROGEN GROUP CUTOFF  2.5
Info: PATCH DIMENSION        16.5
Info: ENERGY OUTPUT STEPS    10000
Info: ENERGY EVALUATION STEPS    10000
Info: OUTPUT ENERGY PRECISION 4
Info: CROSSTERM ENERGY INCLUDED IN DIHEDRAL
Info: TIMING OUTPUT STEPS    10000
Info: TEMPERATURE COUPLING ACTIVE
Info: COUPLING TEMPERATURE   298
Info: MULTILEVEL SUMMATION METHOD (MSM) FOR ELECTROSTATICS ACTIVE
Info: MSM WITH C1 CUBIC INTERPOLATION AND C2 TAYLOR SPLITTING
Info: FULL ELECTROSTATIC EVALUATION FREQUENCY      1
Info: USING VERLET I (r-RESPA) MTS SCHEME.
Info: C1 SPLITTING OF LONG RANGE ELECTROSTATICS
Info: PLACING ATOMS IN PATCHES BY HYDROGEN GROUPS
Info: RIGID BONDS TO HYDROGEN : ALL
Info:         ERROR TOLERANCE : 1e-08
Info:          MAX ITERATIONS : 100
Info: RIGID WATER USING SETTLE ALGORITHM
Info: RANDOM NUMBER SEED     1740278166
Info: USE HYDROGEN BONDS?    NO
Info: COORDINATE PDB         ionized.pdb
Info: STRUCTURE FILE         ionized.psf
Info: PARAMETER file: CHARMM format!
Info: PARAMETERS             par_all27_prot_lipid.inp
Info: USING ARITHMETIC MEAN TO COMBINE L-J SIGMA PARAMETERS
Info: SUMMARY OF PARAMETERS:
Info: 180 BONDS
Info: 447 ANGLES
Info: 566 DIHEDRAL
Info: 46 IMPROPER
Info: 6 CROSSTERM
Info: 119 VDW
Info: 0 VDW_PAIRS
Info: 0 NBTHOLE_PAIRS
Info: STRUCTURE SUMMARY:
Info: 2476 ATOMS
Info: 1650 BONDS
Info: 825 ANGLES
Info: 0 DIHEDRALS
Info: 0 IMPROPERS
Info: 0 CROSSTERMS
Info: 0 EXCLUSIONS
Info: 2475 RIGID BONDS
Info: 4950 DEGREES OF FREEDOM
Info: 826 HYDROGEN GROUPS
Info: 3 ATOMS IN LARGEST HYDROGEN GROUP
Info: 826 MIGRATION GROUPS
Info: 3 ATOMS IN LARGEST MIGRATION GROUP
Info: TOTAL MASS = 14885.7 amu
Info: TOTAL CHARGE = 1 e
Info: MASS DENSITY = 0.915513 g/cm^3
Info: ATOM DENSITY = 0.0917037 atoms/A^3
Info: ADDED 2475 IMPLICIT EXCLUSIONS
Info: NONBONDED TABLE R-SQUARED SPACING: 0.0625
Info: NONBONDED TABLE SIZE: 769 POINTS
Info: REMOVING COM VELOCITY -0.125522 -0.108306 0.0383114
Info: MSM using C1 cubic interpolation
Info: MSM using C2 Taylor splitting function
Info: MSM block size decomposition along X is 8 grid points
Info: MSM block size decomposition along Y is 8 grid points
Info: MSM block size decomposition along Z is 8 grid points
Info: MSM grid spacing along X is 2.5 A
Info: MSM grid spacing along Y is 2.5 A
Info: MSM grid spacing along Z is 2.5 A
Info: MSM using 3 levels
Info:     level 0:  [0..11] x [0..11] x [0..11]
Info:     level 1:  [0..5] x [0..5] x [0..5]
Info:     level 2:  [0..2] x [0..2] x [0..2]
Info: MSM finished calculating stencils
Info: MSM finished creating map for grid levels
Info: MSM finished creating map for patches
Info: MSM has 9 interpolation / anterpolation objects (one per patch)
Info: MSM grid level 0 decomposed into 8 blocks ( 2 x 2 x 2 )
Info: MSM grid level 1 decomposed into 1 block ( 1 x 1 x 1 )
Info: MSM grid level 2 decomposed into 1 block ( 1 x 1 x 1 )
Info: MSM grid cutoff calculation decomposed into 783 work objects
TCL: Minimizing for 1000 steps
ETITLE: TS BOND ANGLE DIHED IMPRP ELECT VDW BOUNDARY MISC KINETIC TOTAL TEMP POTENTIAL TOTAL3 TEMPAVG PRESSURE GPRESSURE VOLUME PRESSAVG GPRESSAVG
ENERGY: 0 0.0000 0.0000 0.0000 0.0000 -7348.6496 6353.7252 0.0000 0.0000 0.0000 -994.9244 0.0000 -994.9244 -994.9244 0.0000 75204.0846 46356.0499 27000.0000 75204.0846 46356.0499
ENERGY: 200 0.0000 0.0000 0.0000 0.0000 -10390.4335 1022.4536 0.0000 0.0000 0.0000 -9367.9799 0.0000 -9367.9799 -9367.9799 0.0000 17883.8394 17806.3430 27000.0000 17883.8394 17806.3430
ENERGY: 400 0.0000 0.0000 0.0000 0.0000 -10934.6185 1249.9383 0.0000 0.0000 0.0000 -9684.6802 0.0000 -9684.6802 -9684.6802 0.0000 20413.8861 20310.7077 27000.0000 20413.8861 20310.7077
ENERGY: 600 0.0000 0.0000 0.0000 0.0000 -11090.2241 1293.6413 0.0000 0.0000 0.0000 -9796.5829 0.0000 -9796.5829 -9796.5829 0.0000 20931.0189 20835.3338 27000.0000 20931.0189 20835.3338
ENERGY: 800 0.0000 0.0000 0.0000 0.0000 -11190.5167 1322.9355 0.0000 0.0000 0.0000 -9867.5812 0.0000 -9867.5812 -9867.5812 0.0000 21252.6177 21172.2872 27000.0000 21252.6177 21172.2872
ENERGY: 1000 0.0000 0.0000 0.0000 0.0000 -11258.3640 1335.7695 0.0000 0.0000 0.0000 -9922.5945 0.0000 -9922.5945 -9922.5945 0.0000 21402.6720 21322.1954 27000.0000 21402.6720 21322.1954
TCL: Running for 2000000 steps
ETITLE: TS BOND ANGLE DIHED IMPRP ELECT VDW BOUNDARY MISC KINETIC TOTAL TEMP POTENTIAL TOTAL3 TEMPAVG PRESSURE GPRESSURE VOLUME PRESSAVG GPRESSAVG
ENERGY: 10000 0.0000 0.0000 0.0000 0.0000 -8832.8463 838.8716 0.0000 0.0000 1485.9582 -6508.0165 302.1286 -7993.9747 -6507.2958 276.2990 -1274.3483 -1274.3659 27000.0000 -1403.9534 -1403.8631
ENERGY: 410000 0.0000 0.0000 0.0000 0.0000 -8765.7948 783.8229 0.0000 0.0000 1486.6883 -6495.2836 302.2770 -7981.9719 -6494.5079 297.6950 -1850.2007 -1850.2207 27000.0000 -1343.7794 -1343.7781
ENERGY: 810000 0.0000 0.0000 0.0000 0.0000 -8825.3166 844.8013 0.0000 0.0000 1459.7452 -6520.7702 296.7989 -7980.5153 -6520.0889 298.1922 -1339.6615 -1339.6564 27000.0000 -1305.5909 -1305.5917
ENERGY: 1200000 0.0000 0.0000 0.0000 0.0000 -8816.5152 845.0822 0.0000 0.0000 1453.2122 -6518.2208 295.4706 -7971.4330 -6517.5484 298.1665 -948.3858 -948.3748 27000.0000 -1311.8400 -1311.8407
ENERGY: 1600000 0.0000 0.0000 0.0000 0.0000 -8784.5900 833.2922 0.0000 0.0000 1448.3967 -6502.9012 294.4915 -7951.2978 -6502.1844 297.9191 -1283.0646 -1283.0489 27000.0000 -1338.2812 -1338.2808
ENERGY: 2000000 0.0000 0.0000 0.0000 0.0000 -8820.7610 822.9425 0.0000 0.0000 1464.7759 -6533.0426 297.8217 -7997.8185 -6532.3472 298.0661 -1571.2978 -1571.2964 27000.0000 -1282.0202 -1282.0204
