Info: SIMULATION PARAMETERS:
Info: TIMESTEP               2
Info: NUMBER OF STEPS        0
Info: STEPS PER CYCLE        10
Info: PERIODIC CELL BASIS 1  36.281 0 0
Info: PERIODIC CELL BASIS 2  0 34.26 0
Info: PERIODIC CELL BASIS 3  0 0 36.199
Info: PERIODIC CELL CENTER   0 0 0
Info: WRAPPING WATERS AROUND PERIODIC BOUNDARIES ON OUTPUT.
Info: WRAPPING ALL CLUSTERS AROUND PERIODIC BOUNDARIES ON OUTPUT.
Info: FIRST LDB TIMESTEP     50
Info: LAST LDB TIMESTEP     -1
Info: HOM BACKGROUND SCALING 1
Info: PME BACKGROUND SCALING 1
Info: MIN ATOMS PER PATCH    40
Info: EMPTY PATCH LOAD       40 ATOMS
Info: INITIAL TEMPERATURE    300
Info: CENTER OF MASS MOVING INITIALLY? NO
Info: DIELECTRIC             1
Info: EXCLUDE                SCALED ONE-FOUR
Info: 1-4 ELECTROSTATICS SCALED BY 0.833333
Info: MODIFIED 1-4 VDW PARAMETERS WILL BE USED
Info: DCD FILENAME           mobley_7066554_equil.dcd
Info: DCD FREQUENCY          100000
Info: DCD FIRST STEP         100000
Info: DCD FILE WILL CONTAIN UNIT CELL DATA
Info: XST FILENAME           mobley_7066554_equil.xst
Info: XST FREQUENCY          100000
Info: NO VELOCITY DCD OUTPUT
Info: NO FORCE DCD OUTPUT
Info: OUTPUT FILENAME        mobley_7066554_equil
Info: BINARY OUTPUT FILES WILL BE USED
Info: RESTART FILENAME       mobley_7066554_equil.restart
Info: RESTART FREQUENCY      100000
Info: BINARY RESTART FILES WILL BE USED
Info: CUTOFF                 9
Info: PAIRLIST DISTANCE      11
Info: PAIRLIST SHRINK RATE   0.01
Info: PAIRLIST GROW RATE     0.01
Info: PAIRLIST TRIGGER       0.3
Info: PAIRLISTS PER CYCLE    2
Info: PAIRLISTS ENABLED
Info: MARGIN                 8
Info: HYDROGEN GROUP CUTOFF  2.5
Info: PATCH DIMENSION        21.5
Info: ENERGY OUTPUT STEPS    100000
Info: ENERGY EVALUATION STEPS    100000
Info: OUTPUT ENERGY PRECISION 4
Info: CROSSTERM ENERGY INCLUDED IN DIHEDRAL
Info: TIMING OUTPUT STEPS    1000000
Info: PRESSURE OUTPUT STEPS  100000
Info: FIXED ATOMS ACTIVE
Info: LANGEVIN DYNAMICS ACTIVE
Info: LANGEVIN TEMPERATURE   30
Info: LANGEVIN USING BBK INTEGRATOR
Info: LANGEVIN DAMPING COEFFICIENT IS 1 INVERSE PS
Info: LANGEVIN DYNAMICS APPLIED TO HYDROGENS
Info: LANGEVIN PISTON PRESSURE CONTROL ACTIVE
Info:        TARGET PRESSURE IS 1.01325 BAR
Info:     OSCILLATION PERIOD IS 50 FS
Info:             DECAY TIME IS 25 FS
Info:     PISTON TEMPERATURE IS 300 K
Info:       PRESSURE CONTROL IS GROUP-BASED
Info:    INITIAL STRAIN RATE IS 0 0 0
Info:       CELL FLUCTUATION IS ISOTROPIC
Info: PARTICLE MESH EWALD (PME) ACTIVE
Info: PME TOLERANCE               1e-06
Info: PME EWALD COEFFICIENT       0.348832
Info: PME INTERPOLATION ORDER     4
Info: PME GRID DIMENSIONS         40 36 40
Info: PME MAXIMUM GRID SPACING    1
Info: FULL ELECTROSTATIC EVALUATION FREQUENCY      2
Info: USING VERLET I (r-RESPA) MTS SCHEME.
Info: C1 SPLITTING OF LONG RANGE ELECTROSTATICS
Info: PLACING ATOMS IN PATCHES BY HYDROGEN GROUPS
Info: RIGID BONDS TO HYDROGEN : ALL
Info:         ERROR TOLERANCE : 1e-08
Info:          MAX ITERATIONS : 100
Info: RIGID WATER USING SETTLE ALGORITHM
Info: RANDOM NUMBER SEED     1742542154
Info: USE HYDROGEN BONDS?    NO
Info: Using AMBER format force field!
Info: AMBER PARM FILE        mobley_7066554.prmtop
Info: COORDINATE PDB         mobley_7066554.pdb
Info: Exclusions will be read from PARM file!
Info: SCNB (VDW SCALING)     2
Info: USING ARITHMETIC MEAN TO COMBINE L-J SIGMA PARAMETERS
Info: BINARY COORDINATES     mobley_7066554_min.coor
Info: SUMMARY OF PARAMETERS:
Info: 7 BONDS
Info: 5 ANGLES
Info:   5 HARMONIC
Info:   0 COSINE-BASED
Info: 3 DIHEDRAL
Info: 0 IMPROPER
Info: 0 CROSSTERM
Info: 0 VDW
Info: 28 VDW_PAIRS
Info: 0 NBTHOLE_PAIRS
Info: STRUCTURE SUMMARY:
Info: 2986 ATOMS
Info: 2986 BONDS
Info: 19 ANGLES
Info: 31 DIHEDRALS
Info: 0 IMPROPERS
Info: 0 CROSSTERMS
Info: 3028 EXCLUSIONS
Info: 13 FIXED ATOMS
Info: 2978 RIGID BONDS
Info: 5 RIGID BONDS BETWEEN FIXED ATOMS
Info: 5946 DEGREES OF FREEDOM
Info: 999 HYDROGEN GROUPS
Info: 3 ATOMS IN LARGEST HYDROGEN GROUP
Info: 999 MIGRATION GROUPS
Info: 3 ATOMS IN LARGEST MIGRATION GROUP
Info: 8 HYDROGEN GROUPS WITH ALL ATOMS FIXED
Info: TOTAL MASS = 17982.4 amu
Info: TOTAL CHARGE = -0.000200016 e
Info: MASS DENSITY = 0.663657 g/cm^3
Info: ATOM DENSITY = 0.0663631 atoms/A^3
Info: ADDED 0 IMPLICIT EXCLUSIONS
Info: NONBONDED TABLE R-SQUARED SPACING: 0.0625
Info: NONBONDED TABLE SIZE: 705 POINTS
Info: REMOVING COM VELOCITY 0.0878917 -0.0555545 -0.100983
TCL: Running for 100000 steps
ETITLE: TS BOND ANGLE DIHED IMPRP ELECT VDW BOUNDARY MISC KINETIC TOTAL TEMP POTENTIAL TOTAL3 TEMPAVG PRESSURE GPRESSURE VOLUME PRESSAVG GPRESSAVG
ENERGY: 0 0.0000 0.0000 0.0000 0.0000 -13833.3110 2431.6408 0.0000 0.0000 1822.3369 -9579.3333 308.4567 -11401.6702 -9578.9735 308.4567 509.3679 540.7191 44994.8886 509.3679 540.7191
ENERGY: 100000 0.0000 0.0000 0.0000 0.0000 -14412.7402 2535.5259 0.0000 0.0000 181.4182 -11695.7961 30.7076 -11877.2143 -11695.4448 30.9477 240.3205 313.2124 29824.0942 4.0134 3.9266
TCL: Running 100000 steps at 60 kelvin.
TCL: Setting parameter langevinTemp to 60
TCL: Running for 100000 steps
ETITLE: TS BOND ANGLE DIHED IMPRP ELECT VDW BOUNDARY MISC KINETIC TOTAL TEMP POTENTIAL TOTAL3 TEMPAVG PRESSURE GPRESSURE VOLUME PRESSAVG GPRESSAVG
ENERGY: 100000 0.0000 0.0000 0.0000 0.0000 -14412.7402 2535.5259 0.0000 0.0000 181.3290 -11695.8853 30.6925 -11877.2143 -11695.4950 30.6925 242.3407 313.1296 29824.0942 242.3407 313.1296
ENERGY: 200000 0.0000 0.0000 0.0000 0.0000 -14391.6527 2551.2958 0.0000 0.0000 347.9640 -11492.3930 58.8979 -11840.3569 -11491.4936 60.0786 670.9825 727.3974 29251.2818 3.1912 3.2183
TCL: Running 100000 steps at 90 kelvin.
TCL: Setting parameter langevinTemp to 90
TCL: Running for 100000 steps
ETITLE: TS BOND ANGLE DIHED IMPRP ELECT VDW BOUNDARY MISC KINETIC TOTAL TEMP POTENTIAL TOTAL3 TEMPAVG PRESSURE GPRESSURE VOLUME PRESSAVG GPRESSAVG
ENERGY: 200000 0.0000 0.0000 0.0000 0.0000 -14391.6527 2551.2958 0.0000 0.0000 347.7923 -11492.5646 58.8688 -11840.3569 -11491.9712 58.8688 668.7516 727.3982 29251.2818 668.7516 727.3982
ENERGY: 300000 0.0000 0.0000 0.0000 0.0000 -14136.1770 2383.7960 0.0000 0.0000 542.8541 -11209.5269 91.8858 -11752.3810 -11207.4988 89.9781 -448.8844 -355.4843 29417.0892 3.5463 3.6205
TCL: Running 100000 steps at 120 kelvin.
TCL: Setting parameter langevinTemp to 120
TCL: Running for 100000 steps
ETITLE: TS BOND ANGLE DIHED IMPRP ELECT VDW BOUNDARY MISC KINETIC TOTAL TEMP POTENTIAL TOTAL3 TEMPAVG PRESSURE GPRESSURE VOLUME PRESSAVG GPRESSAVG
ENERGY: 300000 0.0000 0.0000 0.0000 0.0000 -14136.1770 2383.7960 0.0000 0.0000 542.5841 -11209.7969 91.8401 -11752.3810 -11208.4738 91.8401 -417.7381 -354.7808 29417.0892 -417.7381 -354.7808
ENERGY: 400000 0.0000 0.0000 0.0000 0.0000 -14027.8272 2401.0262 0.0000 0.0000 694.6329 -10932.1681 117.5766 -11626.8010 -10930.5687 120.0462 113.4722 215.0365 29424.8083 3.9436 3.9658
TCL: Running 100000 steps at 150 kelvin.
TCL: Setting parameter langevinTemp to 150
TCL: Running for 100000 steps
ETITLE: TS BOND ANGLE DIHED IMPRP ELECT VDW BOUNDARY MISC KINETIC TOTAL TEMP POTENTIAL TOTAL3 TEMPAVG PRESSURE GPRESSURE VOLUME PRESSAVG GPRESSAVG
ENERGY: 400000 0.0000 0.0000 0.0000 0.0000 -14027.8272 2401.0262 0.0000 0.0000 694.2739 -10932.5271 117.5158 -11626.8010 -10931.1986 117.5158 167.3303 215.2458 29424.8083 167.3303 215.2458
ENERGY: 500000 0.0000 0.0000 0.0000 0.0000 -13743.3348 2280.9544 0.0000 0.0000 878.0600 -10584.3203 148.6243 -11462.3804 -10580.6549 149.9173 -200.7644 -105.2479 29405.6785 4.8431 4.8176
TCL: Running 100000 steps at 180 kelvin.
TCL: Setting parameter langevinTemp to 180
TCL: Running for 100000 steps
ETITLE: TS BOND ANGLE DIHED IMPRP ELECT VDW BOUNDARY MISC KINETIC TOTAL TEMP POTENTIAL TOTAL3 TEMPAVG PRESSURE GPRESSURE VOLUME PRESSAVG GPRESSAVG
ENERGY: 500000 0.0000 0.0000 0.0000 0.0000 -13743.3348 2280.9544 0.0000 0.0000 877.6220 -10584.7583 148.5501 -11462.3804 -10582.8054 148.5501 -165.1243 -104.9588 29405.6785 -165.1243 -104.9588
ENERGY: 600000 0.0000 0.0000 0.0000 0.0000 -13260.4783 2124.1313 0.0000 0.0000 1068.5951 -10067.7518 180.8750 -11136.3469 -10064.7719 180.4900 -69.9621 4.5368 29289.2743 5.0763 5.1972
TCL: Running 100000 steps at 210 kelvin.
TCL: Setting parameter langevinTemp to 210
TCL: Running for 100000 steps
ETITLE: TS BOND ANGLE DIHED IMPRP ELECT VDW BOUNDARY MISC KINETIC TOTAL TEMP POTENTIAL TOTAL3 TEMPAVG PRESSURE GPRESSURE VOLUME PRESSAVG GPRESSAVG
ENERGY: 600000 0.0000 0.0000 0.0000 0.0000 -13260.4783 2124.1313 0.0000 0.0000 1068.0563 -10068.2906 180.7839 -11136.3469 -10065.9144 180.7839 -65.8061 4.1024 29289.2743 -65.8061 4.1024
ENERGY: 700000 0.0000 0.0000 0.0000 0.0000 -12692.5172 2002.3727 0.0000 0.0000 1235.3346 -9454.8100 209.0981 -10690.1446 -9453.0682 209.8666 812.1783 886.2755 28893.3280 3.8966 3.8762
TCL: Running 100000 steps at 240 kelvin.
TCL: Setting parameter langevinTemp to 240
TCL: Running for 100000 steps
ETITLE: TS BOND ANGLE DIHED IMPRP ELECT VDW BOUNDARY MISC KINETIC TOTAL TEMP POTENTIAL TOTAL3 TEMPAVG PRESSURE GPRESSURE VOLUME PRESSAVG GPRESSAVG
ENERGY: 700000 0.0000 0.0000 0.0000 0.0000 -12692.5172 2002.3727 0.0000 0.0000 1234.7342 -9455.4103 208.9965 -10690.1446 -9453.7853 208.9965 801.9412 885.9637 28893.3280 801.9412 885.9637
ENERGY: 800000 0.0000 0.0000 0.0000 0.0000 -12066.6885 1800.3469 0.0000 0.0000 1421.7119 -8844.6297 240.6451 -10266.3416 -8843.7997 239.8151 400.7579 496.7261 29541.7631 3.3612 3.3594
TCL: Running 100000 steps at 270 kelvin.
TCL: Setting parameter langevinTemp to 270
TCL: Running for 100000 steps
ETITLE: TS BOND ANGLE DIHED IMPRP ELECT VDW BOUNDARY MISC KINETIC TOTAL TEMP POTENTIAL TOTAL3 TEMPAVG PRESSURE GPRESSURE VOLUME PRESSAVG GPRESSAVG
ENERGY: 800000 0.0000 0.0000 0.0000 0.0000 -12066.6885 1800.3469 0.0000 0.0000 1421.0053 -8845.3363 240.5255 -10266.3416 -8842.6082 240.5255 410.7047 493.4641 29541.7631 410.7047 493.4641
ENERGY: 900000 0.0000 0.0000 0.0000 0.0000 -11363.5034 1625.6334 0.0000 0.0000 1562.7525 -8175.1175 264.5183 -9737.8701 -8171.6940 270.0647 908.7496 1007.5494 29580.4682 4.6545 4.7146
TCL: Running 1000000 steps at 300 kelvin.
TCL: Setting parameter langevinTemp to 300
TCL: Running for 1000000 steps
ETITLE: TS BOND ANGLE DIHED IMPRP ELECT VDW BOUNDARY MISC KINETIC TOTAL TEMP POTENTIAL TOTAL3 TEMPAVG PRESSURE GPRESSURE VOLUME PRESSAVG GPRESSAVG
ENERGY: 900000 0.0000 0.0000 0.0000 0.0000 -11363.5034 1625.6334 0.0000 0.0000 1561.9686 -8175.9014 264.3856 -9737.8701 -8174.0418 264.3856 927.4331 1010.0456 29580.4682 927.4331 1010.0456
ENERGY: 1100000 0.0000 0.0000 0.0000 0.0000 -10917.1130 1461.8532 0.0000 0.0000 1837.9385 -7617.3214 311.0974 -9455.2598 -7614.6005 300.3626 47.1480 116.4868 30634.6876 3.5791 3.5624
ENERGY: 1300000 0.0000 0.0000 0.0000 0.0000 -10928.3737 1479.7846 0.0000 0.0000 1810.3829 -7638.2062 306.4333 -9448.5891 -7633.6439 300.5750 129.3376 242.8543 30683.2730 3.2984 3.0679
ENERGY: 1500000 0.0000 0.0000 0.0000 0.0000 -10960.5785 1462.5553 0.0000 0.0000 1768.4543 -7729.5689 299.3363 -9498.0232 -7724.8388 300.0112 -14.3091 18.1216 30568.8124 3.8037 3.7870
ENERGY: 1700000 0.0000 0.0000 0.0000 0.0000 -10897.6424 1443.4193 0.0000 0.0000 1786.0092 -7668.2139 302.3077 -9454.2231 -7669.2047 300.1848 -196.0492 -167.8581 30788.1382 2.5698 2.5698
ENERGY: 1900000 0.0000 0.0000 0.0000 0.0000 -10890.7761 1439.1285 0.0000 0.0000 1739.1837 -7712.4639 294.3818 -9451.6476 -7709.2473 300.1491 -222.3543 -150.7615 30702.9171 4.2699 4.2076
TCL: Exiting due to exit command.
