Info: SIMULATION PARAMETERS:
Info: TIMESTEP               2
Info: NUMBER OF STEPS        0
Info: STEPS PER CYCLE        10
Info: PERIODIC CELL BASIS 1  39.546 0 0
Info: PERIODIC CELL BASIS 2  0 38.729 0
Info: PERIODIC CELL BASIS 3  0 0 40.47
Info: PERIODIC CELL CENTER   0 0 0
Info: WRAPPING WATERS AROUND PERIODIC BOUNDARIES ON OUTPUT.
Info: WRAPPING ALL CLUSTERS AROUND PERIODIC BOUNDARIES ON OUTPUT.
Info: FIRST LDB TIMESTEP     50
Info: LAST LDB TIMESTEP     -1
Info: HOM BACKGROUND SCALING 1
Info: PME BACKGROUND SCALING 1
Info: MIN ATOMS PER PATCH    40
Info: EMPTY PATCH LOAD       40 ATOMS
Info: INITIAL TEMPERATURE    300
Info: CENTER OF MASS MOVING INITIALLY? NO
Info: DIELECTRIC             1
Info: EXCLUDE                SCALED ONE-FOUR
Info: 1-4 ELECTROSTATICS SCALED BY 0.833333
Info: MODIFIED 1-4 VDW PARAMETERS WILL BE USED
Info: DCD FILENAME           mobley_7768165_min.dcd
Info: DCD FREQUENCY          5000
Info: DCD FIRST STEP         5000
Info: DCD FILE WILL CONTAIN UNIT CELL DATA
Info: XST FILENAME           mobley_7768165_min.xst
Info: XST FREQUENCY          5000
Info: NO VELOCITY DCD OUTPUT
Info: NO FORCE DCD OUTPUT
Info: OUTPUT FILENAME        mobley_7768165_min
Info: BINARY OUTPUT FILES WILL BE USED
Info: RESTART FILENAME       mobley_7768165_min.restart
Info: RESTART FREQUENCY      5000
Info: BINARY RESTART FILES WILL BE USED
Info: CUTOFF                 9
Info: PAIRLIST DISTANCE      11
Info: PAIRLIST SHRINK RATE   0.01
Info: PAIRLIST GROW RATE     0.01
Info: PAIRLIST TRIGGER       0.3
Info: PAIRLISTS PER CYCLE    2
Info: PAIRLISTS ENABLED
Info: MARGIN                 8
Info: HYDROGEN GROUP CUTOFF  2.5
Info: PATCH DIMENSION        21.5
Info: ENERGY OUTPUT STEPS    5000
Info: ENERGY EVALUATION STEPS    5000
Info: OUTPUT ENERGY PRECISION 4
Info: CROSSTERM ENERGY INCLUDED IN DIHEDRAL
Info: TIMING OUTPUT STEPS    50000
Info: PRESSURE OUTPUT STEPS  5000
Info: LANGEVIN DYNAMICS ACTIVE
Info: LANGEVIN TEMPERATURE   300
Info: LANGEVIN USING BBK INTEGRATOR
Info: LANGEVIN DAMPING COEFFICIENT IS 1 INVERSE PS
Info: LANGEVIN DYNAMICS APPLIED TO HYDROGENS
Info: LANGEVIN PISTON PRESSURE CONTROL ACTIVE
Info:        TARGET PRESSURE IS 1.01325 BAR
Info:     OSCILLATION PERIOD IS 50 FS
Info:             DECAY TIME IS 25 FS
Info:     PISTON TEMPERATURE IS 300 K
Info:       PRESSURE CONTROL IS GROUP-BASED
Info:    INITIAL STRAIN RATE IS 0 0 0
Info:       CELL FLUCTUATION IS ISOTROPIC
Info: PARTICLE MESH EWALD (PME) ACTIVE
Info: PME TOLERANCE               1e-06
Info: PME EWALD COEFFICIENT       0.348832
Info: PME INTERPOLATION ORDER     4
Info: PME GRID DIMENSIONS         40 40 44
Info: PME MAXIMUM GRID SPACING    1
Info: FULL ELECTROSTATIC EVALUATION FREQUENCY      2
Info: USING VERLET I (r-RESPA) MTS SCHEME.
Info: C1 SPLITTING OF LONG RANGE ELECTROSTATICS
Info: PLACING ATOMS IN PATCHES BY HYDROGEN GROUPS
Info: RIGID BONDS TO HYDROGEN : ALL
Info:         ERROR TOLERANCE : 1e-08
Info:          MAX ITERATIONS : 100
Info: RIGID WATER USING SETTLE ALGORITHM
Info: RANDOM NUMBER SEED     1741389201
Info: USE HYDROGEN BONDS?    NO
Info: Using AMBER format force field!
Info: AMBER PARM FILE        mobley_7768165.prmtop
Info: COORDINATE PDB         mobley_7768165.pdb
Info: Exclusions will be read from PARM file!
Info: SCNB (VDW SCALING)     2
Info: USING ARITHMETIC MEAN TO COMBINE L-J SIGMA PARAMETERS
Info: SUMMARY OF PARAMETERS:
Info: 6 BONDS
Info: 6 ANGLES
Info: 4 DIHEDRAL
Info: 0 IMPROPER
Info: 0 CROSSTERM
Info: 0 VDW
Info: 21 VDW_PAIRS
Info: 0 NBTHOLE_PAIRS
Info: STRUCTURE SUMMARY:
Info: 4343 ATOMS
Info: 4342 BONDS
Info: 12 ANGLES
Info: 13 DIHEDRALS
Info: 0 IMPROPERS
Info: 0 CROSSTERMS
Info: 4363 EXCLUSIONS
Info: 4339 RIGID BONDS
Info: 8690 DEGREES OF FREEDOM
Info: 1449 HYDROGEN GROUPS
Info: 3 ATOMS IN LARGEST HYDROGEN GROUP
Info: 1449 MIGRATION GROUPS
Info: 3 ATOMS IN LARGEST MIGRATION GROUP
Info: TOTAL MASS = 26176.5 amu
Info: TOTAL CHARGE = -0.000100011 e
Info: MASS DENSITY = 0.701292 g/cm^3
Info: ATOM DENSITY = 0.0700677 atoms/A^3
Info: ADDED 0 IMPLICIT EXCLUSIONS
Info: NONBONDED TABLE R-SQUARED SPACING: 0.0625
Info: NONBONDED TABLE SIZE: 705 POINTS
Info: REMOVING COM VELOCITY 0.0263167 0.0471712 0.0481333
TCL: Minimizing for 2000 steps
ETITLE: TS BOND ANGLE DIHED IMPRP ELECT VDW BOUNDARY MISC KINETIC TOTAL TEMP POTENTIAL TOTAL3 TEMPAVG PRESSURE GPRESSURE VOLUME PRESSAVG GPRESSAVG
ENERGY: 0 0.4172 0.3667 2.3805 0.0000 -13511.0505 1588.8804 0.0000 0.0000 0.0000 -11919.0057 0.0000 -11919.0057 -11919.0057 0.0000 11039.1661 -15074.9869 61982.9226 11039.1661 -15074.9869
ENERGY: 400 1.1798 0.8150 2.4177 0.0000 -18456.8421 2860.4066 0.0000 0.0000 0.0000 -15592.0230 0.0000 -15592.0230 -15592.0230 0.0000 16410.0240 16568.7217 61982.9226 16410.0240 16568.7217
ENERGY: 800 0.3635 1.2015 2.3552 0.0000 -19244.5882 3174.6592 0.0000 0.0000 0.0000 -16066.0088 0.0000 -16066.0088 -16066.0088 0.0000 18051.4132 18181.2372 61982.9226 18051.4132 18181.2372
ENERGY: 1200 0.2180 0.3548 2.3751 0.0000 -19655.6657 3372.2436 0.0000 0.0000 0.0000 -16280.4742 0.0000 -16280.4742 -16280.4742 0.0000 19121.4130 19242.2368 61982.9226 19121.4130 19242.2368
ENERGY: 1600 0.2037 0.2392 2.4408 0.0000 -19825.9971 3429.7485 0.0000 0.0000 0.0000 -16393.3649 0.0000 -16393.3649 -16393.3649 0.0000 19448.3677 19564.5459 61982.9226 19448.3677 19564.5459
ENERGY: 2000 0.1513 0.2193 2.3826 0.0000 -19940.8640 3482.1650 0.0000 0.0000 0.0000 -16455.9457 0.0000 -16455.9457 -16455.9457 0.0000 19716.8499 19833.4190 61982.9226 19716.8499 19833.4190
TCL: Exiting due to exit command.
Info: NAMD 3.0.1 for Linux-x86_64-multicore
Info: Please visit http://www.ks.uiuc.edu/Research/namd/
Info: for updates, documentation, and support information.
Info: Please cite Phillips et al., J. Chem. Phys. 153:044130 (2020) doi:10.1063/5.0014475
Info: in all publications reporting results obtained with NAMD.
Info: Based on Charm++/Converse 80000 for multicore-linux-x86_64-gcc
Info: Built Mon Oct 14 11:11:06 CDT 2024 by dhardy on athine.ks.uiuc.edu
Info: 1 NAMD  3.0.1  Linux-x86_64-multicore  16    k065  z5358697
Info: Running on 16 processors, 1 nodes, 1 physical nodes.
Info: CPU topology information available.
Info: Charm++/Converse parallel runtime startup completed at 0.0973272 s
Info: 1043.46 MB of memory in use based on /proc/self/stat
Info: Configuration file is mobley_7768165_equil.namd
Info: Working in the current directory /srv/scratch/z5358697/prod_prep_10/7768165
TCL: Running 25000 steps at 30 kelvin.
TCL: Suspending until startup complete.
Info: SIMULATION PARAMETERS:
Info: TIMESTEP               2
Info: NUMBER OF STEPS        0
Info: STEPS PER CYCLE        10
Info: PERIODIC CELL BASIS 1  39.546 0 0
Info: PERIODIC CELL BASIS 2  0 38.729 0
Info: PERIODIC CELL BASIS 3  0 0 40.47
Info: PERIODIC CELL CENTER   0 0 0
Info: WRAPPING WATERS AROUND PERIODIC BOUNDARIES ON OUTPUT.
Info: WRAPPING ALL CLUSTERS AROUND PERIODIC BOUNDARIES ON OUTPUT.
Info: FIRST LDB TIMESTEP     50
Info: LAST LDB TIMESTEP     -1
Info: HOM BACKGROUND SCALING 1
Info: PME BACKGROUND SCALING 1
Info: MIN ATOMS PER PATCH    40
Info: EMPTY PATCH LOAD       40 ATOMS
Info: INITIAL TEMPERATURE    300
Info: CENTER OF MASS MOVING INITIALLY? NO
Info: DIELECTRIC             1
Info: EXCLUDE                SCALED ONE-FOUR
Info: 1-4 ELECTROSTATICS SCALED BY 0.833333
Info: MODIFIED 1-4 VDW PARAMETERS WILL BE USED
Info: DCD FILENAME           mobley_7768165_equil.dcd
Info: DCD FREQUENCY          5000
Info: DCD FIRST STEP         5000
Info: DCD FILE WILL CONTAIN UNIT CELL DATA
Info: XST FILENAME           mobley_7768165_equil.xst
Info: XST FREQUENCY          5000
Info: NO VELOCITY DCD OUTPUT
Info: NO FORCE DCD OUTPUT
Info: OUTPUT FILENAME        mobley_7768165_equil
Info: BINARY OUTPUT FILES WILL BE USED
Info: RESTART FILENAME       mobley_7768165_equil.restart
Info: RESTART FREQUENCY      5000
Info: BINARY RESTART FILES WILL BE USED
Info: CUTOFF                 9
Info: PAIRLIST DISTANCE      11
Info: PAIRLIST SHRINK RATE   0.01
Info: PAIRLIST GROW RATE     0.01
Info: PAIRLIST TRIGGER       0.3
Info: PAIRLISTS PER CYCLE    2
Info: PAIRLISTS ENABLED
Info: MARGIN                 8
Info: HYDROGEN GROUP CUTOFF  2.5
Info: PATCH DIMENSION        21.5
Info: ENERGY OUTPUT STEPS    5000
Info: ENERGY EVALUATION STEPS    5000
Info: OUTPUT ENERGY PRECISION 4
Info: CROSSTERM ENERGY INCLUDED IN DIHEDRAL
Info: TIMING OUTPUT STEPS    50000
Info: PRESSURE OUTPUT STEPS  5000
Info: LANGEVIN DYNAMICS ACTIVE
Info: LANGEVIN TEMPERATURE   30
Info: LANGEVIN USING BBK INTEGRATOR
Info: LANGEVIN DAMPING COEFFICIENT IS 1 INVERSE PS
Info: LANGEVIN DYNAMICS APPLIED TO HYDROGENS
Info: LANGEVIN PISTON PRESSURE CONTROL ACTIVE
Info:        TARGET PRESSURE IS 1.01325 BAR
Info:     OSCILLATION PERIOD IS 50 FS
Info:             DECAY TIME IS 25 FS
Info:     PISTON TEMPERATURE IS 300 K
Info:       PRESSURE CONTROL IS GROUP-BASED
Info:    INITIAL STRAIN RATE IS 0 0 0
Info:       CELL FLUCTUATION IS ISOTROPIC
Info: PARTICLE MESH EWALD (PME) ACTIVE
Info: PME TOLERANCE               1e-06
Info: PME EWALD COEFFICIENT       0.348832
Info: PME INTERPOLATION ORDER     4
Info: PME GRID DIMENSIONS         40 40 44
Info: PME MAXIMUM GRID SPACING    1
Info: FULL ELECTROSTATIC EVALUATION FREQUENCY      2
Info: USING VERLET I (r-RESPA) MTS SCHEME.
Info: C1 SPLITTING OF LONG RANGE ELECTROSTATICS
Info: PLACING ATOMS IN PATCHES BY HYDROGEN GROUPS
Info: RIGID BONDS TO HYDROGEN : ALL
Info:         ERROR TOLERANCE : 1e-08
Info:          MAX ITERATIONS : 100
Info: RIGID WATER USING SETTLE ALGORITHM
Info: RANDOM NUMBER SEED     1741389215
Info: USE HYDROGEN BONDS?    NO
Info: Using AMBER format force field!
Info: AMBER PARM FILE        mobley_7768165.prmtop
Info: COORDINATE PDB         mobley_7768165.pdb
Info: Exclusions will be read from PARM file!
Info: SCNB (VDW SCALING)     2
Info: USING ARITHMETIC MEAN TO COMBINE L-J SIGMA PARAMETERS
Info: BINARY COORDINATES     mobley_7768165_min.coor
Info: SUMMARY OF PARAMETERS:
Info: 6 BONDS
Info: 6 ANGLES
Info: 4 DIHEDRAL
Info: 0 IMPROPER
Info: 0 CROSSTERM
Info: 0 VDW
Info: 21 VDW_PAIRS
Info: 0 NBTHOLE_PAIRS
Info: STRUCTURE SUMMARY:
Info: 4343 ATOMS
Info: 4342 BONDS
Info: 12 ANGLES
Info: 13 DIHEDRALS
Info: 0 IMPROPERS
Info: 0 CROSSTERMS
Info: 4363 EXCLUSIONS
Info: 4339 RIGID BONDS
Info: 8690 DEGREES OF FREEDOM
Info: 1449 HYDROGEN GROUPS
Info: 3 ATOMS IN LARGEST HYDROGEN GROUP
Info: 1449 MIGRATION GROUPS
Info: 3 ATOMS IN LARGEST MIGRATION GROUP
Info: TOTAL MASS = 26176.5 amu
Info: TOTAL CHARGE = -0.000100011 e
Info: MASS DENSITY = 0.701292 g/cm^3
Info: ATOM DENSITY = 0.0700677 atoms/A^3
Info: ADDED 0 IMPLICIT EXCLUSIONS
Info: NONBONDED TABLE R-SQUARED SPACING: 0.0625
Info: NONBONDED TABLE SIZE: 705 POINTS
Info: REMOVING COM VELOCITY 0.282805 -0.117727 0.0491171
TCL: Running for 25000 steps
ETITLE: TS BOND ANGLE DIHED IMPRP ELECT VDW BOUNDARY MISC KINETIC TOTAL TEMP POTENTIAL TOTAL3 TEMPAVG PRESSURE GPRESSURE VOLUME PRESSAVG GPRESSAVG
ENERGY: 0 0.1513 0.2193 2.3826 0.0000 -19940.8640 3482.1650 0.0000 0.0000 2568.5995 -13887.3463 297.4863 -16455.9457 -13886.8311 297.4863 473.1318 508.6530 61982.9226 473.1318 508.6530
ENERGY: 5000 0.0848 0.7320 2.4051 0.0000 -20844.5078 3621.0826 0.0000 0.0000 259.2640 -16960.9393 30.0271 -17220.2033 -16959.7304 47.6379 309.9529 377.8925 41914.5407 4.2526 4.0084
ENERGY: 10000 0.0643 0.3484 2.3955 0.0000 -20834.1430 3556.5910 0.0000 0.0000 260.1705 -17014.5734 30.1321 -17274.7439 -17013.9669 30.2942 -179.0837 -114.4310 41889.8715 5.4487 5.3055
ENERGY: 15000 0.0710 0.5420 2.3955 0.0000 -20790.8530 3493.1947 0.0000 0.0000 248.2218 -17046.4280 28.7482 -17294.6498 -17046.0267 30.1129 -620.8367 -558.3200 41934.6946 3.9390 3.9852
ENERGY: 20000 0.0720 0.4624 2.4735 0.0000 -20808.8046 3504.1350 0.0000 0.0000 259.8824 -17041.7794 30.0987 -17301.6618 -17041.0106 30.0407 -555.4336 -465.3231 41865.9303 7.2336 7.3827
ENERGY: 25000 0.0153 0.2808 2.3880 0.0000 -20987.7805 3688.4201 0.0000 0.0000 253.4053 -17043.2710 29.3485 -17296.6763 -17042.9685 30.1061 601.5228 662.3694 41505.5052 5.3299 5.6733
TCL: Running 25000 steps at 60 kelvin.
TCL: Setting parameter langevinTemp to 60
TCL: Running for 25000 steps
ETITLE: TS BOND ANGLE DIHED IMPRP ELECT VDW BOUNDARY MISC KINETIC TOTAL TEMP POTENTIAL TOTAL3 TEMPAVG PRESSURE GPRESSURE VOLUME PRESSAVG GPRESSAVG
ENERGY: 25000 0.0153 0.2808 2.3880 0.0000 -20987.7805 3688.4201 0.0000 0.0000 253.2734 -17043.4029 29.3333 -17296.6763 -17042.9819 29.3333 590.0374 662.1616 41505.5052 590.0374 662.1616
ENERGY: 30000 0.2319 0.8320 2.4238 0.0000 -20451.9633 3389.8718 0.0000 0.0000 517.3554 -16541.2483 59.9183 -17058.6037 -16540.1865 57.0287 -519.6517 -492.4680 42086.9690 1.9790 1.9505
ENERGY: 35000 0.2669 0.9565 2.4853 0.0000 -20606.9447 3506.3130 0.0000 0.0000 510.7710 -16586.1520 59.1557 -17096.9230 -16585.3587 60.7856 -48.7982 20.7492 41997.6499 2.1943 1.8827
ENERGY: 40000 0.1015 0.9641 2.6232 0.0000 -20666.8883 3557.8161 0.0000 0.0000 521.5448 -16583.8386 60.4035 -17105.3834 -16582.4791 60.4054 252.1583 299.5140 41971.4636 -1.0103 -0.5425
ENERGY: 45000 0.0473 0.8469 2.4873 0.0000 -20612.8443 3472.3155 0.0000 0.0000 524.3833 -16612.7640 60.7323 -17137.1473 -16611.1278 60.2779 -406.6168 -333.6952 42286.9359 3.3517 3.0232
ENERGY: 50000 0.1372 0.8904 2.4062 0.0000 -20601.9075 3451.2619 0.0000 0.0000 500.8089 -16646.4029 58.0020 -17147.2118 -16645.2910 60.1623 -519.9358 -450.4187 42119.0650 5.7855 5.7450
TCL: Running 25000 steps at 90 kelvin.
TCL: Setting parameter langevinTemp to 90
TCL: Running for 25000 steps
ETITLE: TS BOND ANGLE DIHED IMPRP ELECT VDW BOUNDARY MISC KINETIC TOTAL TEMP POTENTIAL TOTAL3 TEMPAVG PRESSURE GPRESSURE VOLUME PRESSAVG GPRESSAVG
ENERGY: 50000 0.1372 0.8904 2.4062 0.0000 -20601.9075 3451.2619 0.0000 0.0000 500.5483 -16646.6635 57.9718 -17147.2118 -16645.4806 57.9718 -515.7015 -450.8892 42119.0650 -515.7015 -450.8892
ENERGY: 55000 0.0875 1.2380 2.4813 0.0000 -20225.0902 3366.5213 0.0000 0.0000 795.2961 -16059.4660 92.1085 -16854.7621 -16057.3758 86.4451 -293.6750 -242.6181 42404.5583 3.3108 3.3894
ENERGY: 60000 0.0242 0.8125 2.5889 0.0000 -20404.5677 3480.4568 0.0000 0.0000 810.5525 -16110.1327 93.8754 -16920.6852 -16107.5291 90.8398 328.6000 384.9164 41997.4204 1.9187 1.4217
ENERGY: 65000 0.3678 1.2941 2.5091 0.0000 -20437.0615 3521.8739 0.0000 0.0000 773.5633 -16137.4534 89.5914 -16911.0167 -16135.9876 90.8222 680.6233 730.3799 41646.6463 4.9181 5.0886
ENERGY: 70000 0.1408 2.0105 2.4542 0.0000 -20612.5951 3640.8091 0.0000 0.0000 767.4106 -16199.7700 88.8788 -16967.1806 -16198.4797 90.6289 1204.4389 1284.2853 41492.0286 0.8949 0.6515
ENERGY: 75000 0.0445 1.6868 2.5323 0.0000 -20359.0714 3369.8879 0.0000 0.0000 780.8468 -16204.0730 90.4350 -16984.9198 -16201.9418 89.4039 -414.8267 -343.6905 41927.6915 6.7111 7.0309
TCL: Running 25000 steps at 120 kelvin.
TCL: Setting parameter langevinTemp to 120
TCL: Running for 25000 steps
ETITLE: TS BOND ANGLE DIHED IMPRP ELECT VDW BOUNDARY MISC KINETIC TOTAL TEMP POTENTIAL TOTAL3 TEMPAVG PRESSURE GPRESSURE VOLUME PRESSAVG GPRESSAVG
ENERGY: 75000 0.0445 1.6868 2.5323 0.0000 -20359.0714 3369.8879 0.0000 0.0000 780.4582 -16204.4616 90.3900 -16984.9198 -16202.8505 90.3900 -405.6314 -343.9469 41927.6915 -405.6314 -343.9469
ENERGY: 80000 0.1435 1.1823 2.5123 0.0000 -20146.7095 3421.9379 0.0000 0.0000 1055.8719 -15665.0615 122.2874 -16720.9334 -15661.8699 117.0274 411.0801 488.9251 42097.4911 2.5854 2.6782
ENERGY: 85000 0.3603 1.6221 2.3866 0.0000 -19990.7044 3284.9031 0.0000 0.0000 1035.0339 -15666.3985 119.8740 -16701.4323 -15664.5265 120.4437 -309.9795 -280.1374 42428.3071 2.8452 2.5950
ENERGY: 90000 0.1922 0.5677 2.4437 0.0000 -19981.9921 3232.9095 0.0000 0.0000 1061.6942 -15684.1848 122.9618 -16745.8790 -15681.0289 120.3515 -785.4823 -739.8146 42542.8935 1.6680 2.0017
ENERGY: 95000 0.0884 1.9636 2.4819 0.0000 -20070.2623 3287.1569 0.0000 0.0000 1007.9123 -15770.6592 116.7329 -16778.5715 -15767.3718 120.4497 -458.4562 -442.4345 42222.4750 -2.5148 -2.0164
ENERGY: 100000 0.1943 1.5129 2.4286 0.0000 -20171.1133 3385.3705 0.0000 0.0000 1015.5982 -15766.0088 117.6231 -16781.6070 -15763.5673 119.8466 118.6757 184.8730 41972.7465 -0.8013 -0.7870
TCL: Running 25000 steps at 150 kelvin.
TCL: Setting parameter langevinTemp to 150
TCL: Running for 25000 steps
ETITLE: TS BOND ANGLE DIHED IMPRP ELECT VDW BOUNDARY MISC KINETIC TOTAL TEMP POTENTIAL TOTAL3 TEMPAVG PRESSURE GPRESSURE VOLUME PRESSAVG GPRESSAVG
ENERGY: 100000 0.1943 1.5129 2.4286 0.0000 -20171.1133 3385.3705 0.0000 0.0000 1015.0869 -15766.5201 117.5639 -16781.6070 -15764.7511 117.5639 131.5718 184.1245 41972.7465 131.5718 184.1245
ENERGY: 105000 1.5909 3.3589 2.6210 0.0000 -19602.9810 3123.2308 0.0000 0.0000 1328.6933 -15143.4860 153.8847 -16472.1793 -15140.6183 147.1167 -689.6132 -647.3289 42573.1530 0.1488 0.1382
ENERGY: 110000 0.4156 2.3405 2.5894 0.0000 -19809.3788 3330.1064 0.0000 0.0000 1284.9049 -15189.0219 148.8132 -16473.9268 -15186.3522 150.0801 561.8002 598.6059 42181.5230 3.3527 2.6000
ENERGY: 115000 0.5376 2.4110 2.5462 0.0000 -19712.2090 3197.2700 0.0000 0.0000 1293.5807 -15215.8634 149.8180 -16509.4441 -15213.0443 150.3314 -229.2480 -162.3959 42163.3647 4.9689 4.4636
ENERGY: 120000 0.3192 1.6466 2.3983 0.0000 -19739.8605 3252.9123 0.0000 0.0000 1291.1617 -15191.4224 149.5379 -16482.5841 -15188.1383 150.4656 118.1466 162.5432 42217.1735 2.4461 2.0157
ENERGY: 125000 0.2169 1.4268 2.6614 0.0000 -19866.6257 3334.6218 0.0000 0.0000 1316.3110 -15211.3877 152.4506 -16527.6987 -15207.2957 149.9429 339.0654 379.6641 42340.8615 3.9632 3.6481
TCL: Running 50000 steps at 180 kelvin.
TCL: Setting parameter langevinTemp to 180
TCL: Running for 50000 steps
ETITLE: TS BOND ANGLE DIHED IMPRP ELECT VDW BOUNDARY MISC KINETIC TOTAL TEMP POTENTIAL TOTAL3 TEMPAVG PRESSURE GPRESSURE VOLUME PRESSAVG GPRESSAVG
ENERGY: 125000 0.2169 1.4268 2.6614 0.0000 -19866.6257 3334.6218 0.0000 0.0000 1315.6581 -15212.0406 152.3750 -16527.6987 -15209.7897 152.3750 338.6946 379.2686 42340.8615 338.6946 379.2686
ENERGY: 135000 0.6951 2.7219 1.5922 0.0000 -19189.8096 3117.5234 0.0000 0.0000 1544.3715 -14522.9054 178.8638 -16067.2770 -14519.3583 180.4074 244.4857 354.3564 42538.3560 2.7268 2.9103
ENERGY: 145000 0.2930 2.1143 2.5675 0.0000 -19244.2111 3029.9762 0.0000 0.0000 1580.1873 -14629.0728 183.0118 -16209.2601 -14624.7807 179.5041 -640.4255 -568.0181 42853.1837 4.2572 4.7081
ENERGY: 155000 0.1254 2.5255 2.3668 0.0000 -19207.6529 3009.0004 0.0000 0.0000 1542.9779 -14650.6570 178.7024 -16193.6348 -14648.2423 179.2286 -798.7468 -718.9179 42826.0267 3.9473 3.7968
ENERGY: 165000 0.1025 2.2579 2.3843 0.0000 -19194.1177 3040.3040 0.0000 0.0000 1565.3019 -14583.7673 181.2879 -16149.0692 -14582.0911 179.7549 -342.2201 -306.9736 42644.7539 3.7208 3.5743
ENERGY: 175000 0.0964 1.7490 2.4865 0.0000 -19380.6925 3127.0637 0.0000 0.0000 1570.5326 -14678.7644 181.8937 -16249.2969 -14675.7345 179.6262 -79.3039 21.2141 42388.0355 -3.5819 -3.8025
TCL: Running 50000 steps at 210 kelvin.
TCL: Setting parameter langevinTemp to 210
TCL: Running for 50000 steps
ETITLE: TS BOND ANGLE DIHED IMPRP ELECT VDW BOUNDARY MISC KINETIC TOTAL TEMP POTENTIAL TOTAL3 TEMPAVG PRESSURE GPRESSURE VOLUME PRESSAVG GPRESSAVG
ENERGY: 175000 0.0964 1.7490 2.4865 0.0000 -19380.6925 3127.0637 0.0000 0.0000 1569.7298 -14679.5671 181.8007 -16249.2969 -14676.4069 181.8007 -36.0822 20.5779 42388.0355 -36.0822 20.5779
ENERGY: 185000 0.5111 1.2469 2.6792 0.0000 -18569.6021 2976.2007 0.0000 0.0000 1832.3808 -13756.5834 212.2200 -15588.9642 -13752.4470 211.1084 786.6165 870.6523 42124.5073 -4.0450 -3.4648
ENERGY: 195000 0.4849 3.6480 1.1779 0.0000 -18315.7601 2854.5116 0.0000 0.0000 1827.1402 -13628.7974 211.6131 -15455.9376 -13624.4829 209.0210 432.0669 541.7019 42441.4649 -0.6262 -0.8870
ENERGY: 205000 1.1690 3.4699 1.4014 0.0000 -18474.5027 2928.2418 0.0000 0.0000 1851.3087 -13688.9119 214.4122 -15540.2206 -13684.8548 209.9619 600.9711 704.7828 42225.8897 1.3962 0.9744
ENERGY: 215000 1.9982 3.0132 1.4988 0.0000 -18366.5250 2821.9622 0.0000 0.0000 1889.9938 -13648.0589 218.8926 -15538.0527 -13644.4865 211.1698 217.6232 272.9437 42077.7181 3.2486 2.7638
ENERGY: 225000 0.8719 3.4614 2.3959 0.0000 -18370.2699 2802.2205 0.0000 0.0000 1878.2435 -13683.0766 217.5317 -15561.3201 -13677.5877 209.7462 190.3367 268.0881 41739.0106 2.0440 1.8630
TCL: Running 50000 steps at 240 kelvin.
TCL: Setting parameter langevinTemp to 240
TCL: Running for 50000 steps
ETITLE: TS BOND ANGLE DIHED IMPRP ELECT VDW BOUNDARY MISC KINETIC TOTAL TEMP POTENTIAL TOTAL3 TEMPAVG PRESSURE GPRESSURE VOLUME PRESSAVG GPRESSAVG
ENERGY: 225000 0.8719 3.4614 2.3959 0.0000 -18370.2699 2802.2205 0.0000 0.0000 1877.3527 -13683.9674 217.4285 -15561.3201 -13680.2552 217.4285 184.9306 267.5260 41739.0106 184.9306 267.5260
ENERGY: 235000 0.8061 2.8329 1.4302 0.0000 -17367.6507 2426.8551 0.0000 0.0000 2100.3012 -12835.4253 243.2496 -14935.7265 -12831.0343 241.0697 -682.4678 -580.8704 42713.1121 -2.9573 -2.8302
ENERGY: 245000 0.4711 1.3807 1.3213 0.0000 -17444.9890 2538.7587 0.0000 0.0000 2080.9961 -12822.0612 241.0138 -14903.0573 -12819.2274 240.8736 -170.1862 -71.3504 42842.9645 1.8203 1.8781
ENERGY: 255000 0.8774 1.0039 1.2252 0.0000 -17543.6653 2657.1638 0.0000 0.0000 2118.0849 -12765.3102 245.3093 -14883.3950 -12760.0008 241.1519 734.0904 804.4128 42424.7238 10.2433 10.6616
ENERGY: 265000 0.5242 5.2840 1.1579 0.0000 -17361.0753 2500.9974 0.0000 0.0000 2074.1160 -12778.9957 240.2169 -14853.1117 -12773.7060 238.4054 -211.8445 -151.2245 43052.5187 4.7738 4.8269
ENERGY: 275000 0.3544 2.0331 1.2558 0.0000 -17327.1543 2490.5706 0.0000 0.0000 2108.4977 -12724.4427 244.1989 -14832.9404 -12718.5415 240.6140 -181.3016 -151.5565 43096.1190 2.1013 1.7693
TCL: Running 50000 steps at 270 kelvin.
TCL: Setting parameter langevinTemp to 270
TCL: Running for 50000 steps
ETITLE: TS BOND ANGLE DIHED IMPRP ELECT VDW BOUNDARY MISC KINETIC TOTAL TEMP POTENTIAL TOTAL3 TEMPAVG PRESSURE GPRESSURE VOLUME PRESSAVG GPRESSAVG
ENERGY: 275000 0.3544 2.0331 1.2558 0.0000 -17327.1543 2490.5706 0.0000 0.0000 2107.4516 -12725.4888 244.0778 -14832.9404 -12722.1551 244.0778 -231.7614 -151.5574 43096.1190 -231.7614 -151.5574
ENERGY: 285000 0.5064 2.8297 1.6371 0.0000 -16534.6884 2288.5754 0.0000 0.0000 2381.1807 -11859.9591 275.7801 -14241.1398 -11853.2175 270.2693 -104.8260 -53.2441 43717.7251 1.6766 2.2545
ENERGY: 295000 0.3344 2.4717 1.1485 0.0000 -16648.4224 2333.1650 0.0000 0.0000 2338.7092 -11972.5936 270.8612 -14311.3029 -11968.3915 270.6577 34.0396 100.7137 43252.4282 1.8347 0.8987
ENERGY: 305000 0.4789 2.6006 2.5202 0.0000 -16445.4443 2226.4334 0.0000 0.0000 2288.8414 -11924.5699 265.0857 -14213.4112 -11919.1812 270.7278 -484.3805 -425.8541 43641.2511 4.6334 5.7157
ENERGY: 315000 0.6362 3.5605 1.3784 0.0000 -16644.3653 2317.3821 0.0000 0.0000 2295.6633 -12025.7447 265.8758 -14321.4081 -12022.5242 271.6180 -93.7847 -37.2796 43539.1793 5.0544 5.1512
ENERGY: 325000 0.1528 2.2439 2.4697 0.0000 -16642.5698 2381.4456 0.0000 0.0000 2371.5135 -11884.7442 274.6605 -14256.2577 -11880.1494 267.6324 497.9986 568.4435 43456.8494 3.2578 3.1865
TCL: Running 1000000 steps at 300 kelvin.
TCL: Setting parameter langevinTemp to 300
TCL: Running for 1000000 steps
ETITLE: TS BOND ANGLE DIHED IMPRP ELECT VDW BOUNDARY MISC KINETIC TOTAL TEMP POTENTIAL TOTAL3 TEMPAVG PRESSURE GPRESSURE VOLUME PRESSAVG GPRESSAVG
ENERGY: 325000 0.1528 2.2439 2.4697 0.0000 -16642.5698 2381.4456 0.0000 0.0000 2370.3405 -11885.9172 274.5247 -14256.2577 -11882.4284 274.5247 493.4939 568.0816 43456.8494 493.4939 568.0816
ENERGY: 525000 0.0232 2.0486 1.3065 0.0000 -15678.0988 2045.2120 0.0000 0.0000 2628.0812 -11001.4273 304.3753 -13629.5085 -10994.8140 300.5920 -145.1134 -15.1164 44074.2721 3.4648 2.9006
ENERGY: 725000 0.4256 1.8425 1.4303 0.0000 -15897.9156 2123.6222 0.0000 0.0000 2596.0162 -11174.5787 300.6616 -13770.5950 -11169.1427 298.8822 -42.2371 68.2419 44390.4290 0.9249 0.7742
ENERGY: 925000 0.7914 3.2582 1.6704 0.0000 -15548.2190 2003.8158 0.0000 0.0000 2600.0368 -10938.6464 301.1273 -13538.6832 -10932.9720 301.2414 -210.4075 -174.7859 44848.7847 3.9321 3.7769
ENERGY: 1125000 0.2317 3.9526 1.6650 0.0000 -15740.6611 2113.8454 0.0000 0.0000 2524.8709 -11096.0956 292.4218 -13620.9665 -11091.4124 299.2995 81.1255 178.2427 44491.9173 7.5044 7.1214
ENERGY: 1325000 0.5401 5.8890 2.8814 0.0000 -15849.9078 2186.1269 0.0000 0.0000 2568.3061 -11086.1643 297.4523 -13654.4704 -11080.7614 302.2853 190.2165 248.8218 44841.5975 -1.4244 -1.0724
TCL: Exiting due to exit command.
