Info: SIMULATION PARAMETERS:
Info: TIMESTEP               2
Info: NUMBER OF STEPS        0
Info: STEPS PER CYCLE        10
Info: PERIODIC CELL BASIS 1  30 0 0
Info: PERIODIC CELL BASIS 2  0 30 0
Info: PERIODIC CELL BASIS 3  0 0 30
Info: PERIODIC CELL CENTER   0 0 0
Info: WRAPPING ALL CLUSTERS AROUND PERIODIC BOUNDARIES ON OUTPUT.
Info: FIRST LDB TIMESTEP     50
Info: LAST LDB TIMESTEP     -1
Info: HOM BACKGROUND SCALING 1
Info: MIN ATOMS PER PATCH    40
Info: EMPTY PATCH LOAD       40 ATOMS
Info: INITIAL TEMPERATURE    298
Info: CENTER OF MASS MOVING INITIALLY? NO
Info: DIELECTRIC             1
Info: EXCLUDE                SCALED ONE-FOUR
Info: 1-4 ELECTROSTATICS SCALED BY 1
Info: MODIFIED 1-4 VDW PARAMETERS WILL BE USED
Info: DCD FILENAME           output.dcd
Info: DCD FREQUENCY          15000
Info: DCD FIRST STEP         15000
Info: DCD FILE WILL CONTAIN UNIT CELL DATA
Info: NO EXTENDED SYSTEM TRAJECTORY OUTPUT
Info: NO VELOCITY DCD OUTPUT
Info: NO FORCE DCD OUTPUT
Info: OUTPUT FILENAME        output
Info: BINARY OUTPUT FILES WILL BE USED
Info: NO RESTART FILE
Info: SWITCHING ACTIVE
Info: SWITCHING ON           10
Info: SWITCHING OFF          12
Info: PAIRLIST DISTANCE      14
Info: PAIRLIST SHRINK RATE   0.01
Info: PAIRLIST GROW RATE     0.01
Info: PAIRLIST TRIGGER       0.3
Info: PAIRLISTS PER CYCLE    2
Info: PAIRLISTS ENABLED
Info: MARGIN                 0
Info: HYDROGEN GROUP CUTOFF  2.5
Info: PATCH DIMENSION        16.5
Info: ENERGY OUTPUT STEPS    15000
Info: ENERGY EVALUATION STEPS    15000
Info: OUTPUT ENERGY PRECISION 4
Info: CROSSTERM ENERGY INCLUDED IN DIHEDRAL
Info: TIMING OUTPUT STEPS    15000
Info: LANGEVIN DYNAMICS ACTIVE
Info: LANGEVIN TEMPERATURE   298
Info: LANGEVIN USING BBK INTEGRATOR
Info: LANGEVIN DAMPING COEFFICIENT IS 1 INVERSE PS
Info: LANGEVIN DYNAMICS NOT APPLIED TO HYDROGENS
Info: MULTILEVEL SUMMATION METHOD (MSM) FOR ELECTROSTATICS ACTIVE
Info: MSM WITH C1 CUBIC INTERPOLATION AND C2 TAYLOR SPLITTING
Info: FULL ELECTROSTATIC EVALUATION FREQUENCY      2
Info: USING VERLET I (r-RESPA) MTS SCHEME.
Info: C1 SPLITTING OF LONG RANGE ELECTROSTATICS
Info: PLACING ATOMS IN PATCHES BY HYDROGEN GROUPS
Info: RIGID BONDS TO HYDROGEN : ALL
Info:         ERROR TOLERANCE : 1e-08
Info:          MAX ITERATIONS : 100
Info: RIGID WATER USING SETTLE ALGORITHM
Info: RANDOM NUMBER SEED     1740217335
Info: USE HYDROGEN BONDS?    NO
Info: COORDINATE PDB         ionized.pdb
Info: STRUCTURE FILE         ionized.psf
Info: PARAMETER file: CHARMM format!
Info: PARAMETERS             par_all27_prot_lipid.inp
Info: USING ARITHMETIC MEAN TO COMBINE L-J SIGMA PARAMETERS
Info: SUMMARY OF PARAMETERS:
Info: 180 BONDS
Info: 447 ANGLES
Info: 566 DIHEDRAL
Info: 46 IMPROPER
Info: 6 CROSSTERM
Info: 119 VDW
Info: 0 VDW_PAIRS
Info: 0 NBTHOLE_PAIRS
Info: STRUCTURE SUMMARY:
Info: 2476 ATOMS
Info: 1650 BONDS
Info: 825 ANGLES
Info: 0 DIHEDRALS
Info: 0 IMPROPERS
Info: 0 CROSSTERMS
Info: 0 EXCLUSIONS
Info: 2475 RIGID BONDS
Info: 4953 DEGREES OF FREEDOM
Info: 826 HYDROGEN GROUPS
Info: 3 ATOMS IN LARGEST HYDROGEN GROUP
Info: 826 MIGRATION GROUPS
Info: 3 ATOMS IN LARGEST MIGRATION GROUP
Info: TOTAL MASS = 14885.7 amu
Info: TOTAL CHARGE = 1 e
Info: MASS DENSITY = 0.915513 g/cm^3
Info: ATOM DENSITY = 0.0917037 atoms/A^3
Info: ADDED 2475 IMPLICIT EXCLUSIONS
Info: NONBONDED TABLE R-SQUARED SPACING: 0.0625
Info: NONBONDED TABLE SIZE: 769 POINTS
Info: REMOVING COM VELOCITY -0.218566 -0.038082 -0.0473436
Info: MSM using C1 cubic interpolation
Info: MSM using C2 Taylor splitting function
Info: MSM block size decomposition along X is 8 grid points
Info: MSM block size decomposition along Y is 8 grid points
Info: MSM block size decomposition along Z is 8 grid points
Info: MSM grid spacing along X is 2.5 A
Info: MSM grid spacing along Y is 2.5 A
Info: MSM grid spacing along Z is 2.5 A
Info: MSM using 3 levels
Info:     level 0:  [0..11] x [0..11] x [0..11]
Info:     level 1:  [0..5] x [0..5] x [0..5]
Info:     level 2:  [0..2] x [0..2] x [0..2]
Info: MSM finished calculating stencils
Info: MSM finished creating map for grid levels
Info: MSM finished creating map for patches
Info: MSM has 9 interpolation / anterpolation objects (one per patch)
Info: MSM grid level 0 decomposed into 8 blocks ( 2 x 2 x 2 )
Info: MSM grid level 1 decomposed into 1 block ( 1 x 1 x 1 )
Info: MSM grid level 2 decomposed into 1 block ( 1 x 1 x 1 )
Info: MSM grid cutoff calculation decomposed into 783 work objects
TCL: Minimizing for 100 steps
ETITLE: TS BOND ANGLE DIHED IMPRP ELECT VDW BOUNDARY MISC KINETIC TOTAL TEMP POTENTIAL TOTAL3 TEMPAVG PRESSURE GPRESSURE VOLUME PRESSAVG GPRESSAVG
ENERGY: 0 0.0000 0.0000 0.0000 0.0000 -7348.6495 6353.7252 0.0000 0.0000 0.0000 -994.9243 0.0000 -994.9243 -994.9243 0.0000 75204.0846 46356.0498 27000.0000 75204.0846 46356.0498
ENERGY: 20 0.0000 0.0000 0.0000 0.0000 -8744.5975 644.7588 0.0000 0.0000 0.0000 -8099.8387 0.0000 -8099.8387 -8099.8387 0.0000 14286.6723 -2608.4245 27000.0000 14286.6723 -2608.4245
ENERGY: 40 0.0000 0.0000 0.0000 0.0000 -9255.3677 673.7887 0.0000 0.0000 0.0000 -8581.5790 0.0000 -8581.5790 -8581.5790 0.0000 14306.7122 -3612.4722 27000.0000 14306.7122 -3612.4722
ENERGY: 60 0.0000 0.0000 0.0000 0.0000 -9570.7005 738.1054 0.0000 0.0000 0.0000 -8832.5950 0.0000 -8832.5950 -8832.5950 0.0000 14889.9943 -3661.0807 27000.0000 14889.9943 -3661.0807
ENERGY: 80 0.0000 0.0000 0.0000 0.0000 -9709.8625 782.3493 0.0000 0.0000 0.0000 -8927.5132 0.0000 -8927.5132 -8927.5132 0.0000 15330.5460 -3519.7403 27000.0000 15330.5460 -3519.7403
ENERGY: 100 0.0000 0.0000 0.0000 0.0000 -9870.9115 823.6280 0.0000 0.0000 0.0000 -9047.2835 0.0000 -9047.2835 -9047.2835 0.0000 15747.2107 15671.4291 27000.0000 15747.2107 15671.4291
TCL: Running for 3000000 steps
ETITLE: TS BOND ANGLE DIHED IMPRP ELECT VDW BOUNDARY MISC KINETIC TOTAL TEMP POTENTIAL TOTAL3 TEMPAVG PRESSURE GPRESSURE VOLUME PRESSAVG GPRESSAVG
ENERGY: 15000 0.0000 0.0000 0.0000 0.0000 -8877.6426 839.8314 0.0000 0.0000 1478.8893 -6558.9220 300.5092 -8037.8112 -6556.5987 286.0069 -1455.4482 -1413.9439 27000.0000 -1376.2701 -1376.2472
ENERGY: 615000 0.0000 0.0000 0.0000 0.0000 -8706.2854 796.1658 0.0000 0.0000 1449.4538 -6460.6659 294.5279 -7910.1196 -6457.2157 299.7216 -1535.1179 -1505.9668 27000.0000 -1284.7604 -1284.7906
ENERGY: 1215000 0.0000 0.0000 0.0000 0.0000 -8808.4235 845.6402 0.0000 0.0000 1438.5757 -6524.2076 292.3175 -7962.7833 -6518.8464 295.3680 -1373.9499 -1332.1755 27000.0000 -1349.5822 -1349.7122
ENERGY: 1800000 0.0000 0.0000 0.0000 0.0000 -8796.0388 865.8982 0.0000 0.0000 1481.9081 -6448.2326 301.1226 -7930.1406 -6446.3236 296.8436 -922.6174 -888.1938 27000.0000 -1321.3174 -1321.2087
ENERGY: 2400000 0.0000 0.0000 0.0000 0.0000 -8745.7109 792.3542 0.0000 0.0000 1438.7847 -6514.5719 292.3599 -7953.3567 -6511.0316 299.8122 -1743.7616 -1695.6144 27000.0000 -1251.3797 -1251.4054
ENERGY: 3000000 0.0000 0.0000 0.0000 0.0000 -8837.2577 811.9518 0.0000 0.0000 1446.5517 -6578.7542 293.9382 -8025.3059 -6575.4321 296.5080 -1713.6663 -1700.9840 27000.0000 -1308.0463 -1308.0884
