Info: SIMULATION PARAMETERS:
Info: TIMESTEP               2
Info: NUMBER OF STEPS        0
Info: STEPS PER CYCLE        10
Info: PERIODIC CELL BASIS 1  44.147 0 0
Info: PERIODIC CELL BASIS 2  0 45.969 0
Info: PERIODIC CELL BASIS 3  0 0 38.617
Info: PERIODIC CELL CENTER   0 0 0
Info: WRAPPING WATERS AROUND PERIODIC BOUNDARIES ON OUTPUT.
Info: WRAPPING ALL CLUSTERS AROUND PERIODIC BOUNDARIES ON OUTPUT.
Info: FIRST LDB TIMESTEP     50
Info: LAST LDB TIMESTEP     -1
Info: HOM BACKGROUND SCALING 1
Info: PME BACKGROUND SCALING 1
Info: MIN ATOMS PER PATCH    40
Info: EMPTY PATCH LOAD       40 ATOMS
Info: INITIAL TEMPERATURE    300
Info: CENTER OF MASS MOVING INITIALLY? NO
Info: DIELECTRIC             1
Info: EXCLUDE                SCALED ONE-FOUR
Info: 1-4 ELECTROSTATICS SCALED BY 0.833333
Info: MODIFIED 1-4 VDW PARAMETERS WILL BE USED
Info: DCD FILENAME           mobley_4149784_min.dcd
Info: DCD FREQUENCY          5000
Info: DCD FIRST STEP         5000
Info: DCD FILE WILL CONTAIN UNIT CELL DATA
Info: XST FILENAME           mobley_4149784_min.xst
Info: XST FREQUENCY          5000
Info: NO VELOCITY DCD OUTPUT
Info: NO FORCE DCD OUTPUT
Info: OUTPUT FILENAME        mobley_4149784_min
Info: BINARY OUTPUT FILES WILL BE USED
Info: RESTART FILENAME       mobley_4149784_min.restart
Info: RESTART FREQUENCY      5000
Info: BINARY RESTART FILES WILL BE USED
Info: CUTOFF                 9
Info: PAIRLIST DISTANCE      11
Info: PAIRLIST SHRINK RATE   0.01
Info: PAIRLIST GROW RATE     0.01
Info: PAIRLIST TRIGGER       0.3
Info: PAIRLISTS PER CYCLE    2
Info: PAIRLISTS ENABLED
Info: MARGIN                 8
Info: HYDROGEN GROUP CUTOFF  2.5
Info: PATCH DIMENSION        21.5
Info: ENERGY OUTPUT STEPS    5000
Info: ENERGY EVALUATION STEPS    5000
Info: OUTPUT ENERGY PRECISION 4
Info: CROSSTERM ENERGY INCLUDED IN DIHEDRAL
Info: TIMING OUTPUT STEPS    50000
Info: PRESSURE OUTPUT STEPS  5000
Info: LANGEVIN DYNAMICS ACTIVE
Info: LANGEVIN TEMPERATURE   300
Info: LANGEVIN USING BBK INTEGRATOR
Info: LANGEVIN DAMPING COEFFICIENT IS 1 INVERSE PS
Info: LANGEVIN DYNAMICS APPLIED TO HYDROGENS
Info: LANGEVIN PISTON PRESSURE CONTROL ACTIVE
Info:        TARGET PRESSURE IS 1.01325 BAR
Info:     OSCILLATION PERIOD IS 50 FS
Info:             DECAY TIME IS 25 FS
Info:     PISTON TEMPERATURE IS 300 K
Info:       PRESSURE CONTROL IS GROUP-BASED
Info:    INITIAL STRAIN RATE IS 0 0 0
Info:       CELL FLUCTUATION IS ISOTROPIC
Info: PARTICLE MESH EWALD (PME) ACTIVE
Info: PME TOLERANCE               1e-06
Info: PME EWALD COEFFICIENT       0.348832
Info: PME INTERPOLATION ORDER     4
Info: PME GRID DIMENSIONS         48 48 40
Info: PME MAXIMUM GRID SPACING    1
Info: FULL ELECTROSTATIC EVALUATION FREQUENCY      2
Info: USING VERLET I (r-RESPA) MTS SCHEME.
Info: C1 SPLITTING OF LONG RANGE ELECTROSTATICS
Info: PLACING ATOMS IN PATCHES BY HYDROGEN GROUPS
Info: RIGID BONDS TO HYDROGEN : ALL
Info:         ERROR TOLERANCE : 1e-08
Info:          MAX ITERATIONS : 100
Info: RIGID WATER USING SETTLE ALGORITHM
Info: RANDOM NUMBER SEED     1741334058
Info: USE HYDROGEN BONDS?    NO
Info: Using AMBER format force field!
Info: AMBER PARM FILE        mobley_4149784.prmtop
Info: COORDINATE PDB         mobley_4149784.pdb
Info: Exclusions will be read from PARM file!
Info: SCNB (VDW SCALING)     2
Info: USING ARITHMETIC MEAN TO COMBINE L-J SIGMA PARAMETERS
Info: SUMMARY OF PARAMETERS:
Info: 6 BONDS
Info: 5 ANGLES
Info:   5 HARMONIC
Info:   0 COSINE-BASED
Info: 3 DIHEDRAL
Info: 0 IMPROPER
Info: 0 CROSSTERM
Info: 0 VDW
Info: 21 VDW_PAIRS
Info: 0 NBTHOLE_PAIRS
Info: STRUCTURE SUMMARY:
Info: 5644 ATOMS
Info: 5646 BONDS
Info: 38 ANGLES
Info: 64 DIHEDRALS
Info: 0 IMPROPERS
Info: 0 CROSSTERMS
Info: 5731 EXCLUSIONS
Info: 5628 RIGID BONDS
Info: 11304 DEGREES OF FREEDOM
Info: 1890 HYDROGEN GROUPS
Info: 3 ATOMS IN LARGEST HYDROGEN GROUP
Info: 1890 MIGRATION GROUPS
Info: 3 ATOMS IN LARGEST MIGRATION GROUP
Info: TOTAL MASS = 34015.1 amu
Info: TOTAL CHARGE = 9.99607e-05 e
Info: MASS DENSITY = 0.720752 g/cm^3
Info: ATOM DENSITY = 0.0720182 atoms/A^3
Info: ADDED 0 IMPLICIT EXCLUSIONS
Info: NONBONDED TABLE R-SQUARED SPACING: 0.0625
Info: NONBONDED TABLE SIZE: 705 POINTS
Info: REMOVING COM VELOCITY -0.00441092 -0.018867 -0.0971951
TCL: Minimizing for 2000 steps
ETITLE: TS BOND ANGLE DIHED IMPRP ELECT VDW BOUNDARY MISC KINETIC TOTAL TEMP POTENTIAL TOTAL3 TEMPAVG PRESSURE GPRESSURE VOLUME PRESSAVG GPRESSAVG
ENERGY: 0 0.5641 2.1099 0.0003 0.0000 -17385.9990 1957.6936 0.0000 0.0000 0.0000 -15425.6311 0.0000 -15425.6311 -15425.6311 0.0000 10922.7086 -15726.5197 78369.0866 10922.7086 -15726.5197
ENERGY: 400 3.5262 2.0817 0.0459 0.0000 -23105.4424 3205.3903 0.0000 0.0000 0.0000 -19894.3985 0.0000 -19894.3985 -19894.3985 0.0000 14745.5156 14900.5578 78369.0866 14745.5156 14900.5578
ENERGY: 800 6.2547 1.4174 0.2105 0.0000 -24650.0279 3959.2819 0.0000 0.0000 0.0000 -20682.8634 0.0000 -20682.8634 -20682.8634 0.0000 17686.4985 17820.8695 78369.0866 17686.4985 17820.8695
ENERGY: 1200 0.7357 0.3975 0.2987 0.0000 -25278.3816 4211.4400 0.0000 0.0000 0.0000 -21065.5097 0.0000 -21065.5097 -21065.5097 0.0000 18829.8331 18948.4882 78369.0866 18829.8331 18948.4882
ENERGY: 1600 1.6450 0.7407 0.2715 0.0000 -25578.3343 4347.8229 0.0000 0.0000 0.0000 -21227.8543 0.0000 -21227.8543 -21227.8543 0.0000 19427.5316 19541.1566 78369.0866 19427.5316 19541.1566
ENERGY: 2000 0.6199 0.2566 0.0438 0.0000 -25760.7872 4424.8554 0.0000 0.0000 0.0000 -21335.0115 0.0000 -21335.0115 -21335.0115 0.0000 19769.6699 19879.4224 78369.0866 19769.6699 19879.4224
TCL: Exiting due to exit command.
Info: NAMD 3.0.1 for Linux-x86_64-multicore
Info: Please visit http://www.ks.uiuc.edu/Research/namd/
Info: for updates, documentation, and support information.
Info: Please cite Phillips et al., J. Chem. Phys. 153:044130 (2020) doi:10.1063/5.0014475
Info: in all publications reporting results obtained with NAMD.
Info: Based on Charm++/Converse 80000 for multicore-linux-x86_64-gcc
Info: Built Mon Oct 14 11:11:06 CDT 2024 by dhardy on athine.ks.uiuc.edu
Info: 1 NAMD  3.0.1  Linux-x86_64-multicore  16    k064  z5358697
Info: Running on 16 processors, 1 nodes, 1 physical nodes.
Info: CPU topology information available.
Info: Charm++/Converse parallel runtime startup completed at 0.00958231 s
Info: 1043.46 MB of memory in use based on /proc/self/stat
Info: Configuration file is mobley_4149784_equil.namd
Info: Working in the current directory /srv/scratch/z5358697/prod_prep_5/4149784
TCL: Running 25000 steps at 30 kelvin.
TCL: Suspending until startup complete.
Info: SIMULATION PARAMETERS:
Info: TIMESTEP               2
Info: NUMBER OF STEPS        0
Info: STEPS PER CYCLE        10
Info: PERIODIC CELL BASIS 1  44.147 0 0
Info: PERIODIC CELL BASIS 2  0 45.969 0
Info: PERIODIC CELL BASIS 3  0 0 38.617
Info: PERIODIC CELL CENTER   0 0 0
Info: WRAPPING WATERS AROUND PERIODIC BOUNDARIES ON OUTPUT.
Info: WRAPPING ALL CLUSTERS AROUND PERIODIC BOUNDARIES ON OUTPUT.
Info: FIRST LDB TIMESTEP     50
Info: LAST LDB TIMESTEP     -1
Info: HOM BACKGROUND SCALING 1
Info: PME BACKGROUND SCALING 1
Info: MIN ATOMS PER PATCH    40
Info: EMPTY PATCH LOAD       40 ATOMS
Info: INITIAL TEMPERATURE    300
Info: CENTER OF MASS MOVING INITIALLY? NO
Info: DIELECTRIC             1
Info: EXCLUDE                SCALED ONE-FOUR
Info: 1-4 ELECTROSTATICS SCALED BY 0.833333
Info: MODIFIED 1-4 VDW PARAMETERS WILL BE USED
Info: DCD FILENAME           mobley_4149784_equil.dcd
Info: DCD FREQUENCY          5000
Info: DCD FIRST STEP         5000
Info: DCD FILE WILL CONTAIN UNIT CELL DATA
Info: XST FILENAME           mobley_4149784_equil.xst
Info: XST FREQUENCY          5000
Info: NO VELOCITY DCD OUTPUT
Info: NO FORCE DCD OUTPUT
Info: OUTPUT FILENAME        mobley_4149784_equil
Info: BINARY OUTPUT FILES WILL BE USED
Info: RESTART FILENAME       mobley_4149784_equil.restart
Info: RESTART FREQUENCY      5000
Info: BINARY RESTART FILES WILL BE USED
Info: CUTOFF                 9
Info: PAIRLIST DISTANCE      11
Info: PAIRLIST SHRINK RATE   0.01
Info: PAIRLIST GROW RATE     0.01
Info: PAIRLIST TRIGGER       0.3
Info: PAIRLISTS PER CYCLE    2
Info: PAIRLISTS ENABLED
Info: MARGIN                 8
Info: HYDROGEN GROUP CUTOFF  2.5
Info: PATCH DIMENSION        21.5
Info: ENERGY OUTPUT STEPS    5000
Info: ENERGY EVALUATION STEPS    5000
Info: OUTPUT ENERGY PRECISION 4
Info: CROSSTERM ENERGY INCLUDED IN DIHEDRAL
Info: TIMING OUTPUT STEPS    50000
Info: PRESSURE OUTPUT STEPS  5000
Info: LANGEVIN DYNAMICS ACTIVE
Info: LANGEVIN TEMPERATURE   30
Info: LANGEVIN USING BBK INTEGRATOR
Info: LANGEVIN DAMPING COEFFICIENT IS 1 INVERSE PS
Info: LANGEVIN DYNAMICS APPLIED TO HYDROGENS
Info: LANGEVIN PISTON PRESSURE CONTROL ACTIVE
Info:        TARGET PRESSURE IS 1.01325 BAR
Info:     OSCILLATION PERIOD IS 50 FS
Info:             DECAY TIME IS 25 FS
Info:     PISTON TEMPERATURE IS 300 K
Info:       PRESSURE CONTROL IS GROUP-BASED
Info:    INITIAL STRAIN RATE IS 0 0 0
Info:       CELL FLUCTUATION IS ISOTROPIC
Info: PARTICLE MESH EWALD (PME) ACTIVE
Info: PME TOLERANCE               1e-06
Info: PME EWALD COEFFICIENT       0.348832
Info: PME INTERPOLATION ORDER     4
Info: PME GRID DIMENSIONS         48 48 40
Info: PME MAXIMUM GRID SPACING    1
Info: FULL ELECTROSTATIC EVALUATION FREQUENCY      2
Info: USING VERLET I (r-RESPA) MTS SCHEME.
Info: C1 SPLITTING OF LONG RANGE ELECTROSTATICS
Info: PLACING ATOMS IN PATCHES BY HYDROGEN GROUPS
Info: RIGID BONDS TO HYDROGEN : ALL
Info:         ERROR TOLERANCE : 1e-08
Info:          MAX ITERATIONS : 100
Info: RIGID WATER USING SETTLE ALGORITHM
Info: RANDOM NUMBER SEED     1741334082
Info: USE HYDROGEN BONDS?    NO
Info: Using AMBER format force field!
Info: AMBER PARM FILE        mobley_4149784.prmtop
Info: COORDINATE PDB         mobley_4149784.pdb
Info: Exclusions will be read from PARM file!
Info: SCNB (VDW SCALING)     2
Info: USING ARITHMETIC MEAN TO COMBINE L-J SIGMA PARAMETERS
Info: BINARY COORDINATES     mobley_4149784_min.coor
Info: SUMMARY OF PARAMETERS:
Info: 6 BONDS
Info: 5 ANGLES
Info:   5 HARMONIC
Info:   0 COSINE-BASED
Info: 3 DIHEDRAL
Info: 0 IMPROPER
Info: 0 CROSSTERM
Info: 0 VDW
Info: 21 VDW_PAIRS
Info: 0 NBTHOLE_PAIRS
Info: STRUCTURE SUMMARY:
Info: 5644 ATOMS
Info: 5646 BONDS
Info: 38 ANGLES
Info: 64 DIHEDRALS
Info: 0 IMPROPERS
Info: 0 CROSSTERMS
Info: 5731 EXCLUSIONS
Info: 5628 RIGID BONDS
Info: 11304 DEGREES OF FREEDOM
Info: 1890 HYDROGEN GROUPS
Info: 3 ATOMS IN LARGEST HYDROGEN GROUP
Info: 1890 MIGRATION GROUPS
Info: 3 ATOMS IN LARGEST MIGRATION GROUP
Info: TOTAL MASS = 34015.1 amu
Info: TOTAL CHARGE = 9.99607e-05 e
Info: MASS DENSITY = 0.720752 g/cm^3
Info: ATOM DENSITY = 0.0720182 atoms/A^3
Info: ADDED 0 IMPLICIT EXCLUSIONS
Info: NONBONDED TABLE R-SQUARED SPACING: 0.0625
Info: NONBONDED TABLE SIZE: 705 POINTS
Info: REMOVING COM VELOCITY -0.117728 0.0810865 0.00447595
TCL: Running for 25000 steps
ETITLE: TS BOND ANGLE DIHED IMPRP ELECT VDW BOUNDARY MISC KINETIC TOTAL TEMP POTENTIAL TOTAL3 TEMPAVG PRESSURE GPRESSURE VOLUME PRESSAVG GPRESSAVG
ENERGY: 0 0.6199 0.2566 0.0438 0.0000 -25760.7872 4424.8554 0.0000 0.0000 3356.4289 -17978.5826 298.8379 -21335.0115 -17977.9115 298.8379 140.0717 168.5929 78369.0866 140.0717 168.5929
ENERGY: 5000 0.8442 0.8291 0.3940 0.0000 -27026.6466 4613.8457 0.0000 0.0000 341.9479 -22068.7858 30.4451 -22410.7337 -22067.5057 48.0611 -386.8257 -312.8529 54923.8728 1.3936 1.4933
ENERGY: 10000 1.2891 0.6391 1.0460 0.0000 -27050.4042 4593.2217 0.0000 0.0000 337.8250 -22116.3832 30.0781 -22454.2082 -22115.3126 30.3377 -602.2760 -544.1280 55012.1510 -0.1747 -0.2658
ENERGY: 15000 1.3012 0.9083 0.7898 0.0000 -27097.1953 4613.8135 0.0000 0.0000 335.5773 -22144.8053 29.8780 -22480.3826 -22144.1146 30.0089 -606.7803 -537.6617 54994.2587 3.0991 2.9511
ENERGY: 20000 0.2803 0.4055 0.8951 0.0000 -27201.6499 4704.3748 0.0000 0.0000 341.8682 -22153.8260 30.4381 -22495.6941 -22152.6186 30.0870 -158.0573 -89.8753 54835.1691 -0.3385 -0.5280
ENERGY: 25000 0.6600 1.0988 0.5131 0.0000 -27326.8116 4832.5363 0.0000 0.0000 345.7504 -22146.2529 30.7837 -22492.0034 -22145.6506 30.0096 403.1315 481.4929 54596.1903 2.7454 2.6483
TCL: Running 25000 steps at 60 kelvin.
TCL: Setting parameter langevinTemp to 60
TCL: Running for 25000 steps
ETITLE: TS BOND ANGLE DIHED IMPRP ELECT VDW BOUNDARY MISC KINETIC TOTAL TEMP POTENTIAL TOTAL3 TEMPAVG PRESSURE GPRESSURE VOLUME PRESSAVG GPRESSAVG
ENERGY: 25000 0.6600 1.0988 0.5131 0.0000 -27326.8116 4832.5363 0.0000 0.0000 345.5851 -22146.4183 30.7690 -22492.0034 -22145.6473 30.7690 413.6870 481.3499 54596.1903 413.6870 481.3499
ENERGY: 30000 1.7441 0.8196 1.7662 0.0000 -26732.8400 4557.9889 0.0000 0.0000 678.8871 -21491.6340 60.4444 -22170.5211 -21489.9968 57.0434 -236.5504 -164.0504 55132.3204 2.3559 2.5068
ENERGY: 35000 1.7697 1.5065 0.9857 0.0000 -26730.6512 4512.9578 0.0000 0.0000 672.5348 -21540.8967 59.8788 -22213.4316 -21539.5258 60.1865 -503.6870 -421.5936 54956.0131 -0.8308 -0.7621
ENERGY: 40000 1.8485 1.1888 1.9627 0.0000 -27020.2327 4764.8156 0.0000 0.0000 674.9569 -21575.4602 60.0944 -22250.4171 -21574.1047 60.5782 606.4671 677.0896 54369.4839 4.8917 4.6933
ENERGY: 45000 1.3389 1.1999 1.0951 0.0000 -26851.6399 4589.5078 0.0000 0.0000 688.2134 -21570.2849 61.2747 -22258.4983 -21568.0848 60.0147 -153.2151 -91.8763 54617.7859 2.2676 2.3332
ENERGY: 50000 0.8569 1.2384 1.0124 0.0000 -26863.1558 4592.3236 0.0000 0.0000 689.1832 -21578.5412 61.3611 -22267.7244 -21576.6105 59.7723 -44.2089 11.9311 54393.9166 4.2741 4.3151
TCL: Running 25000 steps at 90 kelvin.
TCL: Setting parameter langevinTemp to 90
TCL: Running for 25000 steps
ETITLE: TS BOND ANGLE DIHED IMPRP ELECT VDW BOUNDARY MISC KINETIC TOTAL TEMP POTENTIAL TOTAL3 TEMPAVG PRESSURE GPRESSURE VOLUME PRESSAVG GPRESSAVG
ENERGY: 50000 0.8569 1.2384 1.0124 0.0000 -26863.1558 4592.3236 0.0000 0.0000 688.8553 -21578.8691 61.3319 -22267.7244 -21577.5540 61.3319 -53.0084 11.9442 54393.9166 -53.0084 11.9442
ENERGY: 55000 2.4262 2.1138 1.5781 0.0000 -26262.7174 4319.9602 0.0000 0.0000 1009.3052 -20927.3338 89.8630 -21936.6391 -20923.7106 87.2097 -727.7227 -650.7480 55044.3953 4.1155 4.2451
ENERGY: 60000 2.2103 1.8593 2.7327 0.0000 -26496.8042 4523.4511 0.0000 0.0000 1004.9794 -20961.5714 89.4778 -21966.5508 -20959.5327 89.5277 226.9826 295.6633 54614.2809 4.5845 4.4797
ENERGY: 65000 2.7357 2.2479 1.3989 0.0000 -26563.8577 4556.8039 0.0000 0.0000 1001.2310 -20999.4403 89.1441 -22000.6714 -20997.2676 89.8416 307.8908 353.4427 54624.2903 3.8843 3.7825
ENERGY: 70000 1.7595 3.5591 2.1313 0.0000 -26413.3011 4392.3797 0.0000 0.0000 1002.4192 -21011.0523 89.2499 -22013.4714 -21008.3344 90.1746 -505.7956 -434.1312 55066.5025 1.2359 1.1689
ENERGY: 75000 2.5777 1.7414 2.0952 0.0000 -26526.0007 4444.7758 0.0000 0.0000 1024.4965 -21050.3142 91.2155 -22074.8107 -21046.5695 90.5615 -503.2470 -410.2534 54973.4742 -1.2980 -1.1949
TCL: Running 25000 steps at 120 kelvin.
TCL: Setting parameter langevinTemp to 120
TCL: Running for 25000 steps
ETITLE: TS BOND ANGLE DIHED IMPRP ELECT VDW BOUNDARY MISC KINETIC TOTAL TEMP POTENTIAL TOTAL3 TEMPAVG PRESSURE GPRESSURE VOLUME PRESSAVG GPRESSAVG
ENERGY: 75000 2.5777 1.7414 2.0952 0.0000 -26526.0007 4444.7758 0.0000 0.0000 1023.9995 -21050.8112 91.1713 -22074.8107 -21048.7047 91.1713 -480.3952 -409.7739 54973.4742 -480.3952 -409.7739
ENERGY: 80000 2.0755 2.9957 4.1350 0.0000 -26082.3791 4385.8314 0.0000 0.0000 1400.7074 -20286.6341 124.7113 -21687.3415 -20281.7787 116.9480 149.1772 217.8562 55010.0949 -0.5842 -0.6179
ENERGY: 85000 1.9097 2.3943 1.5126 0.0000 -25798.6872 4092.6565 0.0000 0.0000 1324.7172 -20375.4969 117.9455 -21700.2141 -20370.6522 121.0744 -1242.4718 -1206.7583 55655.3749 -0.9477 -0.8885
ENERGY: 90000 3.8177 1.2654 1.8119 0.0000 -26191.9734 4426.0817 0.0000 0.0000 1330.9641 -20428.0326 118.5017 -21758.9967 -20424.4165 120.5684 -42.2546 57.0662 55303.3989 3.9676 3.7088
ENERGY: 95000 2.8093 2.1540 2.5535 0.0000 -26340.5635 4503.3859 0.0000 0.0000 1327.1559 -20502.5047 118.1626 -21829.6606 -20498.6219 119.7432 341.2377 395.9532 54880.0177 3.4252 3.3993
ENERGY: 100000 1.8664 1.9100 1.8705 0.0000 -26121.5762 4280.7355 0.0000 0.0000 1358.1784 -20477.0155 120.9247 -21835.1939 -20472.8975 119.2216 -632.5012 -587.0907 55276.0685 5.4266 5.3383
TCL: Running 25000 steps at 150 kelvin.
TCL: Setting parameter langevinTemp to 150
TCL: Running for 25000 steps
ETITLE: TS BOND ANGLE DIHED IMPRP ELECT VDW BOUNDARY MISC KINETIC TOTAL TEMP POTENTIAL TOTAL3 TEMPAVG PRESSURE GPRESSURE VOLUME PRESSAVG GPRESSAVG
ENERGY: 100000 1.8664 1.9100 1.8705 0.0000 -26121.5762 4280.7355 0.0000 0.0000 1357.5077 -20477.6862 120.8650 -21835.1939 -20474.9717 120.8650 -635.7158 -586.3031 55276.0685 -635.7158 -586.3031
ENERGY: 105000 2.9229 2.8062 2.8574 0.0000 -25627.4690 4250.9444 0.0000 0.0000 1733.4893 -19634.4488 154.3403 -21367.9381 -19630.5118 147.3933 57.9810 130.9447 55204.4923 4.8582 4.6923
ENERGY: 110000 3.0575 1.9405 4.0668 0.0000 -25725.6311 4311.8959 0.0000 0.0000 1668.6053 -19736.0652 148.5634 -21404.6704 -19733.2998 149.8406 323.4875 372.6480 55055.5164 2.2979 2.3473
ENERGY: 115000 2.2308 1.7427 3.0596 0.0000 -25723.0461 4258.7741 0.0000 0.0000 1737.4991 -19719.7397 154.6973 -21457.2388 -19714.7296 149.7121 95.4892 126.8542 55048.9805 2.9102 3.0602
ENERGY: 120000 1.0662 1.2297 3.4134 0.0000 -25736.2244 4299.6825 0.0000 0.0000 1655.6861 -19775.1465 147.4132 -21430.8326 -19771.3879 149.1548 346.2610 374.3671 54869.1174 3.4671 3.6244
ENERGY: 125000 2.9717 2.0302 2.5286 0.0000 -25681.5649 4259.8998 0.0000 0.0000 1705.6905 -19708.4441 151.8653 -21414.1347 -19704.1643 149.7198 195.4362 276.3480 54891.0715 0.3263 0.8636
TCL: Running 50000 steps at 180 kelvin.
TCL: Setting parameter langevinTemp to 180
TCL: Running for 50000 steps
ETITLE: TS BOND ANGLE DIHED IMPRP ELECT VDW BOUNDARY MISC KINETIC TOTAL TEMP POTENTIAL TOTAL3 TEMPAVG PRESSURE GPRESSURE VOLUME PRESSAVG GPRESSAVG
ENERGY: 125000 2.9717 2.0302 2.5286 0.0000 -25681.5649 4259.8998 0.0000 0.0000 1704.8517 -19709.2830 151.7906 -21414.1347 -19705.6334 151.7906 220.7945 276.4933 54891.0715 220.7945 276.4933
ENERGY: 135000 3.0770 4.9054 3.8572 0.0000 -24833.4678 3906.8259 0.0000 0.0000 1956.0750 -18958.7273 174.1581 -20914.8023 -18954.7855 180.4964 -442.7672 -386.3612 54959.7560 4.0936 3.8999
ENERGY: 145000 4.1993 2.6104 2.5500 0.0000 -24940.9578 4010.6687 0.0000 0.0000 1983.4850 -18937.4446 176.5986 -20920.9295 -18931.4480 179.9171 -65.8859 -45.0308 55105.1780 -0.6365 -0.0319
ENERGY: 155000 3.3969 4.5060 3.0111 0.0000 -24987.7779 4000.0547 0.0000 0.0000 1994.3102 -18982.4991 177.5624 -20976.8092 -18978.0278 179.7310 -164.9470 -109.8262 55310.4382 -1.3210 -1.1466
ENERGY: 165000 3.0745 3.7271 5.1149 0.0000 -24890.3040 3968.4999 0.0000 0.0000 2064.7226 -18845.1650 183.8315 -20909.8876 -18840.3851 179.6842 -313.0465 -224.7057 55671.6915 1.0240 1.0493
ENERGY: 175000 4.4280 5.0377 1.7322 0.0000 -25013.2632 4042.6925 0.0000 0.0000 1967.4555 -18991.9174 175.1714 -20959.3728 -18987.8313 180.4924 -273.3990 -176.7219 55763.2348 3.0216 3.0686
TCL: Running 50000 steps at 210 kelvin.
TCL: Setting parameter langevinTemp to 210
TCL: Running for 50000 steps
ETITLE: TS BOND ANGLE DIHED IMPRP ELECT VDW BOUNDARY MISC KINETIC TOTAL TEMP POTENTIAL TOTAL3 TEMPAVG PRESSURE GPRESSURE VOLUME PRESSAVG GPRESSAVG
ENERGY: 175000 4.4280 5.0377 1.7322 0.0000 -25013.2632 4042.6925 0.0000 0.0000 1966.4522 -18992.9207 175.0821 -20959.3728 -18989.8648 175.0821 -234.4189 -177.2555 55763.2348 -234.4189 -177.2555
ENERGY: 185000 2.2583 1.7617 2.3045 0.0000 -23876.5752 3675.1920 0.0000 0.0000 2364.2675 -17830.7913 210.5013 -20195.0588 -17826.4585 210.2225 33.8971 125.8737 55110.7827 1.0320 1.3643
ENERGY: 195000 2.2130 3.0930 4.4515 0.0000 -23830.1237 3671.3544 0.0000 0.0000 2418.6035 -17730.4083 215.3391 -20149.0118 -17722.8238 211.4023 254.9181 354.5913 54713.0493 -0.1163 -0.0506
ENERGY: 205000 2.2707 2.8751 6.0561 0.0000 -23942.2624 3736.2267 0.0000 0.0000 2424.0431 -17770.7906 215.8234 -20194.8337 -17765.9988 209.5677 390.9280 475.8964 55004.6800 2.9516 3.0981
ENERGY: 215000 4.1615 4.0527 3.2597 0.0000 -23752.0278 3596.8259 0.0000 0.0000 2379.4742 -17764.2540 211.8552 -20143.7281 -17758.4364 210.4584 -283.3951 -216.7988 55582.0206 5.3840 5.0896
ENERGY: 225000 3.6844 3.9910 3.3893 0.0000 -23685.9989 3609.6705 0.0000 0.0000 2334.8181 -17730.4456 207.8793 -20065.2637 -17725.2801 209.5493 18.9060 92.7473 55124.2484 5.5344 5.3699
TCL: Running 50000 steps at 240 kelvin.
TCL: Setting parameter langevinTemp to 240
TCL: Running for 50000 steps
ETITLE: TS BOND ANGLE DIHED IMPRP ELECT VDW BOUNDARY MISC KINETIC TOTAL TEMP POTENTIAL TOTAL3 TEMPAVG PRESSURE GPRESSURE VOLUME PRESSAVG GPRESSAVG
ENERGY: 225000 3.6844 3.9910 3.3893 0.0000 -23685.9989 3609.6705 0.0000 0.0000 2333.6652 -17731.5984 207.7767 -20065.2637 -17727.8075 207.7767 18.2526 93.2890 55124.2484 18.2526 93.2890
ENERGY: 235000 5.9084 4.3792 3.6661 0.0000 -22627.7747 3288.1804 0.0000 0.0000 2727.0541 -16598.5866 242.8018 -19325.6407 -16592.4664 241.0939 -31.0686 -1.5651 55525.3002 3.1587 2.9799
ENERGY: 245000 4.2354 6.3271 7.9367 0.0000 -22721.2148 3484.9340 0.0000 0.0000 2704.7648 -16513.0169 240.8173 -19217.7816 -16505.9199 242.6119 794.3381 883.3448 55608.2399 -0.1476 0.1965
ENERGY: 255000 4.1707 3.1164 5.8400 0.0000 -22546.8753 3284.8750 0.0000 0.0000 2665.0887 -16583.7846 237.2848 -19248.8733 -16580.8887 239.0763 149.1516 209.0600 55276.7817 4.3484 4.5624
ENERGY: 265000 7.2967 6.0670 4.4615 0.0000 -22699.6500 3298.4507 0.0000 0.0000 2724.1387 -16659.2355 242.5423 -19383.3742 -16654.3200 239.8754 -245.4095 -148.7031 55685.8224 4.9584 4.9085
ENERGY: 275000 4.5764 4.4933 6.0215 0.0000 -22639.5695 3271.4993 0.0000 0.0000 2708.2245 -16644.7544 241.1254 -19352.9789 -16638.6714 240.3773 42.0505 132.4629 55089.9008 1.3619 1.6958
TCL: Running 50000 steps at 270 kelvin.
TCL: Setting parameter langevinTemp to 270
TCL: Running for 50000 steps
ETITLE: TS BOND ANGLE DIHED IMPRP ELECT VDW BOUNDARY MISC KINETIC TOTAL TEMP POTENTIAL TOTAL3 TEMPAVG PRESSURE GPRESSURE VOLUME PRESSAVG GPRESSAVG
ENERGY: 275000 4.5764 4.4933 6.0215 0.0000 -22639.5695 3271.4993 0.0000 0.0000 2706.7919 -16646.1870 240.9978 -19352.9789 -16642.1294 240.9978 58.1627 131.7768 55089.9008 58.1627 131.7768
ENERGY: 285000 5.9828 6.3448 2.9334 0.0000 -21573.2465 2988.5462 0.0000 0.0000 3046.6951 -15522.7442 271.2609 -18569.4393 -15519.0274 271.6876 -36.5361 -43.7713 56908.3952 -1.5826 -1.4587
ENERGY: 295000 6.5417 4.9365 5.1102 0.0000 -21428.1190 2977.2141 0.0000 0.0000 3068.9388 -15365.3777 273.2414 -18434.3165 -15362.0709 271.1667 -166.6741 -54.8929 57152.9900 -1.3907 -1.1509
ENERGY: 305000 6.3655 6.2678 5.4548 0.0000 -21350.9064 2883.2998 0.0000 0.0000 3053.8558 -15395.6628 271.8985 -18449.5186 -15388.8486 272.7683 -324.6748 -248.0284 56127.3054 4.2485 4.2633
ENERGY: 315000 5.6431 5.5261 3.3897 0.0000 -21587.4106 3043.2413 0.0000 0.0000 3034.1740 -15495.4364 270.1461 -18529.6104 -15486.3179 270.1123 85.1469 191.7502 56724.1776 3.5373 2.7583
ENERGY: 325000 4.3989 4.0676 4.1390 0.0000 -21361.4181 2908.4701 0.0000 0.0000 3040.4486 -15399.8940 270.7048 -18440.3425 -15391.0212 269.9149 -483.2783 -401.5528 57237.6511 -1.8093 -1.5354
TCL: Running 1000000 steps at 300 kelvin.
TCL: Setting parameter langevinTemp to 300
TCL: Running for 1000000 steps
ETITLE: TS BOND ANGLE DIHED IMPRP ELECT VDW BOUNDARY MISC KINETIC TOTAL TEMP POTENTIAL TOTAL3 TEMPAVG PRESSURE GPRESSURE VOLUME PRESSAVG GPRESSAVG
ENERGY: 325000 4.3989 4.0676 4.1390 0.0000 -21361.4181 2908.4701 0.0000 0.0000 3038.9391 -15401.4034 270.5704 -18440.3425 -15396.1816 270.5704 -488.7419 -400.5774 57237.6511 -488.7419 -400.5774
ENERGY: 525000 10.5066 6.5458 3.5398 0.0000 -20486.3481 2883.7509 0.0000 0.0000 3340.6895 -14241.3156 297.4366 -17582.0050 -14234.8899 302.0974 553.1144 694.8561 57948.2580 2.2717 2.4041
ENERGY: 725000 9.3891 1.4144 4.8844 0.0000 -20646.2522 2877.6964 0.0000 0.0000 3389.6807 -14363.1872 301.7985 -17752.8678 -14356.2146 299.3899 573.2630 681.4824 57384.6372 5.6610 5.3568
ENERGY: 925000 7.1726 5.4938 4.2634 0.0000 -20342.8326 2691.0011 0.0000 0.0000 3392.7223 -14242.1794 302.0693 -17634.9017 -14236.9523 300.6728 -200.5519 -90.9086 58484.6124 3.3199 3.1327
ENERGY: 1125000 10.2849 3.1864 4.2847 0.0000 -20515.4405 2628.1934 0.0000 0.0000 3393.4315 -14476.0596 302.1324 -17869.4911 -14468.4247 299.0105 -664.7892 -566.9553 57911.5261 3.1568 3.6558
ENERGY: 1325000 7.7671 5.1396 6.3264 0.0000 -20437.4779 2753.7108 0.0000 0.0000 3342.5950 -14321.9391 297.6062 -17664.5341 -14316.0667 298.5419 -116.2448 3.8910 58312.7073 4.0835 3.7252
TCL: Exiting due to exit command.
