Info: SIMULATION PARAMETERS:
Info: TIMESTEP               2
Info: NUMBER OF STEPS        0
Info: STEPS PER CYCLE        10
Info: PERIODIC CELL BASIS 1  37.968 0 0
Info: PERIODIC CELL BASIS 2  0 37.835 0
Info: PERIODIC CELL BASIS 3  0 0 40.136
Info: PERIODIC CELL CENTER   0 0 0
Info: WRAPPING WATERS AROUND PERIODIC BOUNDARIES ON OUTPUT.
Info: WRAPPING ALL CLUSTERS AROUND PERIODIC BOUNDARIES ON OUTPUT.
Info: FIRST LDB TIMESTEP     50
Info: LAST LDB TIMESTEP     -1
Info: HOM BACKGROUND SCALING 1
Info: PME BACKGROUND SCALING 1
Info: MIN ATOMS PER PATCH    40
Info: EMPTY PATCH LOAD       40 ATOMS
Info: INITIAL TEMPERATURE    300
Info: CENTER OF MASS MOVING INITIALLY? NO
Info: DIELECTRIC             1
Info: EXCLUDE                SCALED ONE-FOUR
Info: 1-4 ELECTROSTATICS SCALED BY 0.833333
Info: MODIFIED 1-4 VDW PARAMETERS WILL BE USED
Info: DCD FILENAME           mobley_303222_min.dcd
Info: DCD FREQUENCY          5000
Info: DCD FIRST STEP         5000
Info: DCD FILE WILL CONTAIN UNIT CELL DATA
Info: XST FILENAME           mobley_303222_min.xst
Info: XST FREQUENCY          5000
Info: NO VELOCITY DCD OUTPUT
Info: NO FORCE DCD OUTPUT
Info: OUTPUT FILENAME        mobley_303222_min
Info: BINARY OUTPUT FILES WILL BE USED
Info: RESTART FILENAME       mobley_303222_min.restart
Info: RESTART FREQUENCY      5000
Info: BINARY RESTART FILES WILL BE USED
Info: CUTOFF                 9
Info: PAIRLIST DISTANCE      11
Info: PAIRLIST SHRINK RATE   0.01
Info: PAIRLIST GROW RATE     0.01
Info: PAIRLIST TRIGGER       0.3
Info: PAIRLISTS PER CYCLE    2
Info: PAIRLISTS ENABLED
Info: MARGIN                 8
Info: HYDROGEN GROUP CUTOFF  2.5
Info: PATCH DIMENSION        21.5
Info: ENERGY OUTPUT STEPS    5000
Info: ENERGY EVALUATION STEPS    5000
Info: OUTPUT ENERGY PRECISION 4
Info: CROSSTERM ENERGY INCLUDED IN DIHEDRAL
Info: TIMING OUTPUT STEPS    50000
Info: PRESSURE OUTPUT STEPS  5000
Info: LANGEVIN DYNAMICS ACTIVE
Info: LANGEVIN TEMPERATURE   300
Info: LANGEVIN USING BBK INTEGRATOR
Info: LANGEVIN DAMPING COEFFICIENT IS 1 INVERSE PS
Info: LANGEVIN DYNAMICS APPLIED TO HYDROGENS
Info: LANGEVIN PISTON PRESSURE CONTROL ACTIVE
Info:        TARGET PRESSURE IS 1.01325 BAR
Info:     OSCILLATION PERIOD IS 50 FS
Info:             DECAY TIME IS 25 FS
Info:     PISTON TEMPERATURE IS 300 K
Info:       PRESSURE CONTROL IS GROUP-BASED
Info:    INITIAL STRAIN RATE IS 0 0 0
Info:       CELL FLUCTUATION IS ISOTROPIC
Info: PARTICLE MESH EWALD (PME) ACTIVE
Info: PME TOLERANCE               1e-06
Info: PME EWALD COEFFICIENT       0.348832
Info: PME INTERPOLATION ORDER     4
Info: PME GRID DIMENSIONS         40 40 44
Info: PME MAXIMUM GRID SPACING    1
Info: FULL ELECTROSTATIC EVALUATION FREQUENCY      2
Info: USING VERLET I (r-RESPA) MTS SCHEME.
Info: C1 SPLITTING OF LONG RANGE ELECTROSTATICS
Info: PLACING ATOMS IN PATCHES BY HYDROGEN GROUPS
Info: RIGID BONDS TO HYDROGEN : ALL
Info:         ERROR TOLERANCE : 1e-08
Info:          MAX ITERATIONS : 100
Info: RIGID WATER USING SETTLE ALGORITHM
Info: RANDOM NUMBER SEED     1741324586
Info: USE HYDROGEN BONDS?    NO
Info: Using AMBER format force field!
Info: AMBER PARM FILE        mobley_303222.prmtop
Info: COORDINATE PDB         mobley_303222.pdb
Info: Exclusions will be read from PARM file!
Info: SCNB (VDW SCALING)     2
Info: USING ARITHMETIC MEAN TO COMBINE L-J SIGMA PARAMETERS
Info: SUMMARY OF PARAMETERS:
Info: 6 BONDS
Info: 6 ANGLES
Info: 3 DIHEDRAL
Info: 0 IMPROPER
Info: 0 CROSSTERM
Info: 0 VDW
Info: 21 VDW_PAIRS
Info: 0 NBTHOLE_PAIRS
Info: STRUCTURE SUMMARY:
Info: 4107 ATOMS
Info: 4106 BONDS
Info: 12 ANGLES
Info: 10 DIHEDRALS
Info: 0 IMPROPERS
Info: 0 CROSSTERMS
Info: 4128 EXCLUSIONS
Info: 4104 RIGID BONDS
Info: 8217 DEGREES OF FREEDOM
Info: 1369 HYDROGEN GROUPS
Info: 4 ATOMS IN LARGEST HYDROGEN GROUP
Info: 1369 MIGRATION GROUPS
Info: 4 ATOMS IN LARGEST MIGRATION GROUP
Info: TOTAL MASS = 24651.9 amu
Info: TOTAL CHARGE = -9.99942e-05 e
Info: MASS DENSITY = 0.71001 g/cm^3
Info: ATOM DENSITY = 0.0712327 atoms/A^3
Info: ADDED 0 IMPLICIT EXCLUSIONS
Info: NONBONDED TABLE R-SQUARED SPACING: 0.0625
Info: NONBONDED TABLE SIZE: 705 POINTS
Info: REMOVING COM VELOCITY -0.189411 0.0817272 0.0231017
TCL: Minimizing for 2000 steps
ETITLE: TS BOND ANGLE DIHED IMPRP ELECT VDW BOUNDARY MISC KINETIC TOTAL TEMP POTENTIAL TOTAL3 TEMPAVG PRESSURE GPRESSURE VOLUME PRESSAVG GPRESSAVG
ENERGY: 0 0.0750 0.2004 0.7978 0.0000 -12603.8926 1475.7846 0.0000 0.0000 0.0000 -11127.0349 0.0000 -11127.0349 -11127.0349 0.0000 10998.2205 -15166.3689 57656.1378 10998.2205 -15166.3689
ENERGY: 400 2.5439 1.1820 0.0535 0.0000 -17109.7472 2572.1127 0.0000 0.0000 0.0000 -14533.8550 0.0000 -14533.8550 -14533.8550 0.0000 15816.7369 15931.1881 57656.1378 15816.7369 15931.1881
ENERGY: 800 0.3547 0.1135 0.0301 0.0000 -18072.1427 2989.5748 0.0000 0.0000 0.0000 -15082.0695 0.0000 -15082.0695 -15082.0695 0.0000 18052.1972 18157.2523 57656.1378 18052.1972 18157.2523
ENERGY: 1200 0.6617 0.3483 0.1181 0.0000 -18445.7864 3124.5727 0.0000 0.0000 0.0000 -15320.0855 0.0000 -15320.0855 -15320.0855 0.0000 18835.4654 18929.8698 57656.1378 18835.4654 18929.8698
ENERGY: 1600 0.3094 0.2530 0.0313 0.0000 -18672.9936 3199.8008 0.0000 0.0000 0.0000 -15472.5991 0.0000 -15472.5991 -15472.5991 0.0000 19256.5597 19364.6973 57656.1378 19256.5597 19364.6973
ENERGY: 2000 0.1749 0.0955 0.0438 0.0000 -18830.1278 3262.2947 0.0000 0.0000 0.0000 -15567.5188 0.0000 -15567.5188 -15567.5188 0.0000 19671.5556 19778.3827 57656.1378 19671.5556 19778.3827
TCL: Exiting due to exit command.
Info: NAMD 3.0.1 for Linux-x86_64-multicore
Info: Please visit http://www.ks.uiuc.edu/Research/namd/
Info: for updates, documentation, and support information.
Info: Please cite Phillips et al., J. Chem. Phys. 153:044130 (2020) doi:10.1063/5.0014475
Info: in all publications reporting results obtained with NAMD.
Info: Based on Charm++/Converse 80000 for multicore-linux-x86_64-gcc
Info: Built Mon Oct 14 11:11:06 CDT 2024 by dhardy on athine.ks.uiuc.edu
Info: 1 NAMD  3.0.1  Linux-x86_64-multicore  16    k026  z5358697
Info: Running on 16 processors, 1 nodes, 1 physical nodes.
Info: CPU topology information available.
Info: Charm++/Converse parallel runtime startup completed at 0.0136126 s
Info: 1043.46 MB of memory in use based on /proc/self/stat
Info: Configuration file is mobley_303222_equil.namd
Info: Working in the current directory /srv/scratch/z5358697/prod_prep_3/303222
TCL: Running 25000 steps at 30 kelvin.
TCL: Suspending until startup complete.
Info: SIMULATION PARAMETERS:
Info: TIMESTEP               2
Info: NUMBER OF STEPS        0
Info: STEPS PER CYCLE        10
Info: PERIODIC CELL BASIS 1  37.968 0 0
Info: PERIODIC CELL BASIS 2  0 37.835 0
Info: PERIODIC CELL BASIS 3  0 0 40.136
Info: PERIODIC CELL CENTER   0 0 0
Info: WRAPPING WATERS AROUND PERIODIC BOUNDARIES ON OUTPUT.
Info: WRAPPING ALL CLUSTERS AROUND PERIODIC BOUNDARIES ON OUTPUT.
Info: FIRST LDB TIMESTEP     50
Info: LAST LDB TIMESTEP     -1
Info: HOM BACKGROUND SCALING 1
Info: PME BACKGROUND SCALING 1
Info: MIN ATOMS PER PATCH    40
Info: EMPTY PATCH LOAD       40 ATOMS
Info: INITIAL TEMPERATURE    300
Info: CENTER OF MASS MOVING INITIALLY? NO
Info: DIELECTRIC             1
Info: EXCLUDE                SCALED ONE-FOUR
Info: 1-4 ELECTROSTATICS SCALED BY 0.833333
Info: MODIFIED 1-4 VDW PARAMETERS WILL BE USED
Info: DCD FILENAME           mobley_303222_equil.dcd
Info: DCD FREQUENCY          5000
Info: DCD FIRST STEP         5000
Info: DCD FILE WILL CONTAIN UNIT CELL DATA
Info: XST FILENAME           mobley_303222_equil.xst
Info: XST FREQUENCY          5000
Info: NO VELOCITY DCD OUTPUT
Info: NO FORCE DCD OUTPUT
Info: OUTPUT FILENAME        mobley_303222_equil
Info: BINARY OUTPUT FILES WILL BE USED
Info: RESTART FILENAME       mobley_303222_equil.restart
Info: RESTART FREQUENCY      5000
Info: BINARY RESTART FILES WILL BE USED
Info: CUTOFF                 9
Info: PAIRLIST DISTANCE      11
Info: PAIRLIST SHRINK RATE   0.01
Info: PAIRLIST GROW RATE     0.01
Info: PAIRLIST TRIGGER       0.3
Info: PAIRLISTS PER CYCLE    2
Info: PAIRLISTS ENABLED
Info: MARGIN                 8
Info: HYDROGEN GROUP CUTOFF  2.5
Info: PATCH DIMENSION        21.5
Info: ENERGY OUTPUT STEPS    5000
Info: ENERGY EVALUATION STEPS    5000
Info: OUTPUT ENERGY PRECISION 4
Info: CROSSTERM ENERGY INCLUDED IN DIHEDRAL
Info: TIMING OUTPUT STEPS    50000
Info: PRESSURE OUTPUT STEPS  5000
Info: LANGEVIN DYNAMICS ACTIVE
Info: LANGEVIN TEMPERATURE   30
Info: LANGEVIN USING BBK INTEGRATOR
Info: LANGEVIN DAMPING COEFFICIENT IS 1 INVERSE PS
Info: LANGEVIN DYNAMICS APPLIED TO HYDROGENS
Info: LANGEVIN PISTON PRESSURE CONTROL ACTIVE
Info:        TARGET PRESSURE IS 1.01325 BAR
Info:     OSCILLATION PERIOD IS 50 FS
Info:             DECAY TIME IS 25 FS
Info:     PISTON TEMPERATURE IS 300 K
Info:       PRESSURE CONTROL IS GROUP-BASED
Info:    INITIAL STRAIN RATE IS 0 0 0
Info:       CELL FLUCTUATION IS ISOTROPIC
Info: PARTICLE MESH EWALD (PME) ACTIVE
Info: PME TOLERANCE               1e-06
Info: PME EWALD COEFFICIENT       0.348832
Info: PME INTERPOLATION ORDER     4
Info: PME GRID DIMENSIONS         40 40 44
Info: PME MAXIMUM GRID SPACING    1
Info: FULL ELECTROSTATIC EVALUATION FREQUENCY      2
Info: USING VERLET I (r-RESPA) MTS SCHEME.
Info: C1 SPLITTING OF LONG RANGE ELECTROSTATICS
Info: PLACING ATOMS IN PATCHES BY HYDROGEN GROUPS
Info: RIGID BONDS TO HYDROGEN : ALL
Info:         ERROR TOLERANCE : 1e-08
Info:          MAX ITERATIONS : 100
Info: RIGID WATER USING SETTLE ALGORITHM
Info: RANDOM NUMBER SEED     1741324599
Info: USE HYDROGEN BONDS?    NO
Info: Using AMBER format force field!
Info: AMBER PARM FILE        mobley_303222.prmtop
Info: COORDINATE PDB         mobley_303222.pdb
Info: Exclusions will be read from PARM file!
Info: SCNB (VDW SCALING)     2
Info: USING ARITHMETIC MEAN TO COMBINE L-J SIGMA PARAMETERS
Info: BINARY COORDINATES     mobley_303222_min.coor
Info: SUMMARY OF PARAMETERS:
Info: 6 BONDS
Info: 6 ANGLES
Info:   6 HARMONIC
Info:   0 COSINE-BASED
Info: 3 DIHEDRAL
Info: 0 IMPROPER
Info: 0 CROSSTERM
Info: 0 VDW
Info: 21 VDW_PAIRS
Info: 0 NBTHOLE_PAIRS
Info: STRUCTURE SUMMARY:
Info: 4107 ATOMS
Info: 4106 BONDS
Info: 12 ANGLES
Info: 10 DIHEDRALS
Info: 0 IMPROPERS
Info: 0 CROSSTERMS
Info: 4128 EXCLUSIONS
Info: 4104 RIGID BONDS
Info: 8217 DEGREES OF FREEDOM
Info: 1369 HYDROGEN GROUPS
Info: 4 ATOMS IN LARGEST HYDROGEN GROUP
Info: 1369 MIGRATION GROUPS
Info: 4 ATOMS IN LARGEST MIGRATION GROUP
Info: TOTAL MASS = 24651.9 amu
Info: TOTAL CHARGE = -9.99942e-05 e
Info: MASS DENSITY = 0.71001 g/cm^3
Info: ATOM DENSITY = 0.0712327 atoms/A^3
Info: ADDED 0 IMPLICIT EXCLUSIONS
Info: NONBONDED TABLE R-SQUARED SPACING: 0.0625
Info: NONBONDED TABLE SIZE: 705 POINTS
Info: REMOVING COM VELOCITY -0.0346066 -0.0116187 0.00135674
TCL: Running for 25000 steps
ETITLE: TS BOND ANGLE DIHED IMPRP ELECT VDW BOUNDARY MISC KINETIC TOTAL TEMP POTENTIAL TOTAL3 TEMPAVG PRESSURE GPRESSURE VOLUME PRESSAVG GPRESSAVG
ENERGY: 0 0.1749 0.0955 0.0438 0.0000 -18830.1278 3262.2947 0.0000 0.0000 2492.8259 -13074.6929 305.3297 -15567.5188 -13074.1869 305.3297 165.5729 197.3493 57656.1378 165.5729 197.3493
ENERGY: 5000 0.1057 0.0725 0.1131 0.0000 -19844.6187 3519.0906 0.0000 0.0000 250.0527 -16075.1842 30.6273 -16325.2368 -16074.3429 48.2066 518.4465 568.4511 39750.0038 1.9301 1.8467
ENERGY: 10000 0.2867 0.3078 0.0893 0.0000 -19907.3715 3546.1024 0.0000 0.0000 241.1525 -16119.4329 29.5372 -16360.5854 -16118.7380 30.2266 549.4862 608.9619 39709.7382 5.8135 5.7820
ENERGY: 15000 0.0701 0.2275 0.1118 0.0000 -19939.7115 3578.5452 0.0000 0.0000 250.5108 -16110.2461 30.6834 -16360.7569 -16109.5445 30.0339 759.3409 806.8145 39705.7207 6.3058 6.4378
ENERGY: 20000 0.0695 0.5031 0.1926 0.0000 -19825.8683 3450.3183 0.0000 0.0000 245.4023 -16129.3825 30.0577 -16374.7848 -16128.9197 30.1063 -44.5457 2.3811 39798.1241 8.5817 8.7649
ENERGY: 25000 0.0430 0.2709 0.0512 0.0000 -19894.7543 3514.5443 0.0000 0.0000 245.5819 -16134.2628 30.0797 -16379.8447 -16133.7483 30.1111 305.9027 386.9166 39677.0804 4.6370 4.5947
TCL: Running 25000 steps at 60 kelvin.
TCL: Setting parameter langevinTemp to 60
TCL: Running for 25000 steps
ETITLE: TS BOND ANGLE DIHED IMPRP ELECT VDW BOUNDARY MISC KINETIC TOTAL TEMP POTENTIAL TOTAL3 TEMPAVG PRESSURE GPRESSURE VOLUME PRESSAVG GPRESSAVG
ENERGY: 25000 0.0430 0.2709 0.0512 0.0000 -19894.7543 3514.5443 0.0000 0.0000 245.4544 -16134.3903 30.0641 -16379.8447 -16133.8735 30.0641 328.2544 386.8850 39677.0804 328.2544 386.8850
ENERGY: 30000 0.5266 0.3053 0.1562 0.0000 -19540.1246 3375.7246 0.0000 0.0000 483.1464 -15680.2656 59.1774 -16163.4119 -15678.8527 57.3922 34.9108 65.2035 39991.4444 6.1598 6.1542
ENERGY: 35000 0.0874 0.3882 0.1539 0.0000 -19489.4102 3275.9453 0.0000 0.0000 483.5299 -15729.3056 59.2244 -16212.8355 -15728.0196 60.3139 -763.4852 -711.2911 40307.3453 3.2464 3.3522
ENERGY: 40000 0.0009 0.7929 0.3692 0.0000 -19872.4469 3640.5936 0.0000 0.0000 494.8475 -15735.8429 60.6106 -16230.6903 -15734.5389 60.3106 1526.2684 1585.0527 39484.0148 1.3291 1.4198
ENERGY: 45000 0.1572 0.4407 0.0469 0.0000 -19658.3964 3422.1529 0.0000 0.0000 498.7456 -15736.8529 61.0880 -16235.5986 -15735.7680 60.3005 158.9720 209.6065 39943.7842 4.8000 4.9338
ENERGY: 50000 0.3149 0.4412 0.5458 0.0000 -19736.6023 3455.9796 0.0000 0.0000 494.7994 -15784.5215 60.6047 -16279.3209 -15783.6849 60.3891 307.2252 369.9962 39782.9390 3.8292 3.8550
TCL: Running 25000 steps at 90 kelvin.
TCL: Setting parameter langevinTemp to 90
TCL: Running for 25000 steps
ETITLE: TS BOND ANGLE DIHED IMPRP ELECT VDW BOUNDARY MISC KINETIC TOTAL TEMP POTENTIAL TOTAL3 TEMPAVG PRESSURE GPRESSURE VOLUME PRESSAVG GPRESSAVG
ENERGY: 50000 0.3149 0.4412 0.5458 0.0000 -19736.6023 3455.9796 0.0000 0.0000 494.5526 -15784.7683 60.5745 -16279.3209 -15783.9073 60.5745 316.5279 369.7241 39782.9390 316.5279 369.7241
ENERGY: 55000 0.5910 0.5223 0.3302 0.0000 -19305.8967 3290.8924 0.0000 0.0000 742.8135 -15270.7473 90.9823 -16013.5608 -15267.7377 86.4473 -92.9658 -15.2057 40107.6756 3.3218 3.3816
ENERGY: 60000 0.1825 2.1805 0.5462 0.0000 -19263.2839 3215.9621 0.0000 0.0000 737.6468 -15306.7658 90.3495 -16044.4126 -15304.9794 90.0467 -594.4127 -533.2355 40287.2584 4.9959 4.5032
ENERGY: 65000 0.1473 0.3561 0.3083 0.0000 -19397.5688 3336.7018 0.0000 0.0000 717.6638 -15342.3916 87.9019 -16060.0554 -15339.4013 89.7672 29.7867 58.4605 40228.8363 6.5648 6.2271
ENERGY: 70000 0.1581 0.2938 0.0871 0.0000 -19447.8385 3369.3440 0.0000 0.0000 752.5234 -15325.4321 92.1716 -16077.9555 -15323.4172 90.5357 304.5652 363.3244 39961.4248 -0.2621 -0.6244
ENERGY: 75000 0.0813 0.5055 0.4384 0.0000 -19591.8383 3494.1811 0.0000 0.0000 743.2768 -15353.3552 91.0390 -16096.6320 -15350.7048 90.2470 966.5566 1042.9358 39833.0712 5.2416 5.5009
TCL: Running 25000 steps at 120 kelvin.
TCL: Setting parameter langevinTemp to 120
TCL: Running for 25000 steps
ETITLE: TS BOND ANGLE DIHED IMPRP ELECT VDW BOUNDARY MISC KINETIC TOTAL TEMP POTENTIAL TOTAL3 TEMPAVG PRESSURE GPRESSURE VOLUME PRESSAVG GPRESSAVG
ENERGY: 75000 0.0813 0.5055 0.4384 0.0000 -19591.8383 3494.1811 0.0000 0.0000 742.9016 -15353.7304 90.9931 -16096.6320 -15352.0567 90.9931 984.3054 1043.2766 39833.0712 984.3054 1043.2766
ENERGY: 80000 0.0017 0.4943 0.2099 0.0000 -18987.1555 3140.8853 0.0000 0.0000 994.5091 -14851.0551 121.8108 -15845.5643 -14847.0682 117.3047 -406.4801 -330.6895 40048.3715 5.9996 5.8382
ENERGY: 85000 0.4397 1.1669 0.1312 0.0000 -19101.2391 3245.8663 0.0000 0.0000 979.4741 -14874.1608 119.9693 -15853.6349 -14871.3777 120.2486 236.6806 266.3220 39924.1051 -2.9211 -2.7182
ENERGY: 90000 0.9258 0.8250 0.2009 0.0000 -18962.3929 3072.9516 0.0000 0.0000 966.7223 -14920.7675 118.4074 -15887.4898 -14919.0922 119.6901 -912.8675 -856.4601 40136.6697 10.1955 10.1285
ENERGY: 95000 0.9206 1.8747 0.1327 0.0000 -19198.4118 3314.3855 0.0000 0.0000 962.0693 -14919.0290 117.8375 -15881.0983 -14916.8067 119.2313 677.7699 735.3401 39597.4375 4.1853 3.6336
ENERGY: 100000 0.3240 1.2781 0.2997 0.0000 -19134.9835 3229.3907 0.0000 0.0000 963.1548 -14940.5362 117.9704 -15903.6909 -14937.8086 119.6850 23.1176 66.2518 39866.5940 5.8469 5.6112
TCL: Running 25000 steps at 150 kelvin.
TCL: Setting parameter langevinTemp to 150
TCL: Running for 25000 steps
ETITLE: TS BOND ANGLE DIHED IMPRP ELECT VDW BOUNDARY MISC KINETIC TOTAL TEMP POTENTIAL TOTAL3 TEMPAVG PRESSURE GPRESSURE VOLUME PRESSAVG GPRESSAVG
ENERGY: 100000 0.3240 1.2781 0.2997 0.0000 -19134.9835 3229.3907 0.0000 0.0000 962.6542 -14941.0367 117.9091 -15903.6909 -14939.2780 117.9091 13.5874 66.3659 39866.5940 13.5874 66.3659
ENERGY: 105000 0.7736 1.1741 0.4137 0.0000 -18574.8421 3009.3359 0.0000 0.0000 1237.6694 -14325.4753 151.5939 -15563.1447 -14323.0395 145.7668 -448.4964 -400.7309 40300.5066 -1.8536 -1.7774
ENERGY: 110000 0.2881 1.6706 0.6410 0.0000 -18697.9590 3109.0155 0.0000 0.0000 1235.5632 -14350.7806 151.3359 -15586.3437 -14346.9249 150.3827 222.2193 273.3411 39871.5466 2.1118 1.7871
ENERGY: 115000 0.0228 0.5955 1.1639 0.0000 -18830.2047 3200.3689 0.0000 0.0000 1235.7712 -14392.2825 151.3614 -15628.0537 -14388.9886 149.5224 529.3066 625.0562 40014.2332 5.5317 5.1318
ENERGY: 120000 0.3994 4.3160 0.2356 0.0000 -18625.6726 2980.8762 0.0000 0.0000 1231.8289 -14408.0165 150.8786 -15639.8454 -14403.9970 150.0117 -897.8648 -831.9645 40448.4399 -1.8907 -1.4128
ENERGY: 125000 0.1309 0.9371 0.3387 0.0000 -18708.7724 3055.0460 0.0000 0.0000 1237.2845 -14415.0353 151.5468 -15652.3198 -14411.2079 149.1850 -506.9758 -465.9416 40394.2147 5.3186 5.4632
TCL: Running 50000 steps at 180 kelvin.
TCL: Setting parameter langevinTemp to 180
TCL: Running for 50000 steps
ETITLE: TS BOND ANGLE DIHED IMPRP ELECT VDW BOUNDARY MISC KINETIC TOTAL TEMP POTENTIAL TOTAL3 TEMPAVG PRESSURE GPRESSURE VOLUME PRESSAVG GPRESSAVG
ENERGY: 125000 0.1309 0.9371 0.3387 0.0000 -18708.7724 3055.0460 0.0000 0.0000 1236.6737 -14415.6461 151.4719 -15652.3198 -14413.0257 151.4719 -523.1608 -466.4654 40394.2147 -523.1608 -466.4654
ENERGY: 135000 0.2832 1.1207 0.9271 0.0000 -18127.2251 2913.7081 0.0000 0.0000 1454.2804 -13756.9057 178.1251 -15211.1861 -13754.7896 180.6687 -132.0318 -49.7603 40455.7174 4.0147 4.3930
ENERGY: 145000 0.0634 0.9072 0.3756 0.0000 -18415.1239 3064.5831 0.0000 0.0000 1477.2135 -13871.9809 180.9341 -15349.1944 -13868.4776 178.8366 525.8945 591.5518 40103.7685 4.1288 3.8518
ENERGY: 155000 1.5807 1.1087 0.3629 0.0000 -18206.2444 2904.9637 0.0000 0.0000 1512.6228 -13785.6057 185.2711 -15298.2285 -13781.5997 179.9989 -311.9048 -224.2734 40285.0675 1.7074 1.6092
ENERGY: 165000 0.5423 1.1832 0.5443 0.0000 -18240.1840 2970.8169 0.0000 0.0000 1445.8047 -13821.2926 177.0870 -15267.0973 -13817.5046 179.5023 151.4408 227.6024 40128.1548 1.5044 0.8100
ENERGY: 175000 0.2954 1.2358 1.1918 0.0000 -18222.0580 2942.3529 0.0000 0.0000 1453.6882 -13823.2939 178.0526 -15276.9821 -13818.7210 180.2228 -82.8084 13.8573 40154.9163 4.5781 4.7267
TCL: Running 50000 steps at 210 kelvin.
TCL: Setting parameter langevinTemp to 210
TCL: Running for 50000 steps
ETITLE: TS BOND ANGLE DIHED IMPRP ELECT VDW BOUNDARY MISC KINETIC TOTAL TEMP POTENTIAL TOTAL3 TEMPAVG PRESSURE GPRESSURE VOLUME PRESSAVG GPRESSAVG
ENERGY: 175000 0.2954 1.2358 1.1918 0.0000 -18222.0580 2942.3529 0.0000 0.0000 1452.9652 -13824.0169 177.9641 -15276.9821 -13821.2443 177.9641 -61.9262 14.9596 40154.9163 -61.9262 14.9596
ENERGY: 185000 0.2140 1.6838 0.1635 0.0000 -17430.4473 2688.3238 0.0000 0.0000 1701.5939 -13038.4684 208.4169 -14740.0622 -13034.5570 209.9838 13.4224 68.7836 40014.4795 4.7855 5.3053
ENERGY: 195000 0.1840 1.7593 0.6811 0.0000 -17432.6075 2743.0210 0.0000 0.0000 1683.0508 -13003.9114 206.1457 -14686.9622 -13001.6218 208.3793 555.8962 667.8438 39542.5250 -0.7956 -0.3311
ENERGY: 205000 1.0210 1.8042 0.9827 0.0000 -17250.2681 2580.0202 0.0000 0.0000 1699.3286 -12967.1114 208.1395 -14666.4400 -12963.5574 209.7952 -238.2875 -159.3083 39739.4273 6.4283 6.0818
ENERGY: 215000 0.1460 1.9158 0.8909 0.0000 -17351.2794 2647.2854 0.0000 0.0000 1735.4588 -12965.5825 212.5648 -14701.0413 -12961.0810 209.3570 23.7884 116.4629 39720.8665 -1.7623 -1.5835
ENERGY: 225000 1.3208 0.9243 1.8234 0.0000 -17217.0693 2657.6845 0.0000 0.0000 1712.2512 -12843.0652 209.7223 -14555.3164 -12837.1891 210.8467 131.9257 198.6409 40253.7121 6.7087 6.9204
TCL: Running 50000 steps at 240 kelvin.
TCL: Setting parameter langevinTemp to 240
TCL: Running for 50000 steps
ETITLE: TS BOND ANGLE DIHED IMPRP ELECT VDW BOUNDARY MISC KINETIC TOTAL TEMP POTENTIAL TOTAL3 TEMPAVG PRESSURE GPRESSURE VOLUME PRESSAVG GPRESSAVG
ENERGY: 225000 1.3208 0.9243 1.8234 0.0000 -17217.0693 2657.6845 0.0000 0.0000 1711.3774 -12843.9390 209.6153 -14555.3164 -12841.0461 209.6153 116.6533 199.7196 40253.7121 116.6533 199.7196
ENERGY: 235000 2.0930 2.5159 0.7787 0.0000 -16354.0266 2370.5917 0.0000 0.0000 1942.3221 -12035.7253 237.9021 -13978.0474 -12032.3861 239.2414 -126.3259 -57.7545 40475.5147 5.5247 5.3629
ENERGY: 245000 0.2149 3.2738 0.8253 0.0000 -16397.9174 2367.0056 0.0000 0.0000 1919.2312 -12107.3666 235.0739 -14026.5978 -12105.7073 239.4963 -229.5948 -166.5306 40755.9755 1.0102 0.6690
ENERGY: 255000 0.1922 2.6668 1.4736 0.0000 -16353.0860 2371.4424 0.0000 0.0000 2017.4385 -11959.8725 247.1027 -13977.3110 -11957.1245 241.2806 61.4843 172.8269 40400.8169 3.7393 3.9402
ENERGY: 265000 0.1226 1.0137 1.0950 0.0000 -16425.9089 2379.3351 0.0000 0.0000 1981.4762 -12062.8663 242.6979 -14044.3425 -12058.6115 238.7910 -33.1211 26.9981 40369.0431 4.4126 5.6035
ENERGY: 275000 0.5259 2.1062 1.4423 0.0000 -16329.3461 2289.7991 0.0000 0.0000 1922.4719 -12113.0007 235.4708 -14035.4726 -12107.6180 241.0302 -617.4724 -520.3073 40433.1856 1.7360 1.3958
TCL: Running 50000 steps at 270 kelvin.
TCL: Setting parameter langevinTemp to 270
TCL: Running for 50000 steps
ETITLE: TS BOND ANGLE DIHED IMPRP ELECT VDW BOUNDARY MISC KINETIC TOTAL TEMP POTENTIAL TOTAL3 TEMPAVG PRESSURE GPRESSURE VOLUME PRESSAVG GPRESSAVG
ENERGY: 275000 0.5259 2.1062 1.4423 0.0000 -16329.3461 2289.7991 0.0000 0.0000 1921.4858 -12113.9868 235.3500 -14035.4726 -12110.4980 235.3500 -611.4144 -519.4226 40433.1856 -611.4144 -519.4226
ENERGY: 285000 1.2291 2.0936 1.5816 0.0000 -15700.4218 2212.7854 0.0000 0.0000 2209.2019 -11273.5301 270.5905 -13482.7320 -11269.2633 272.1583 76.0504 109.2829 41189.8995 0.8109 1.0119
ENERGY: 295000 0.1460 0.6429 1.5835 0.0000 -15548.4059 2142.8614 0.0000 0.0000 2227.4426 -11175.7295 272.8247 -13403.1721 -11170.8076 269.6449 -347.2750 -261.0392 41691.0546 1.8481 1.4477
ENERGY: 305000 0.3693 1.4912 0.5384 0.0000 -15543.7984 2160.3545 0.0000 0.0000 2182.8762 -11198.1688 267.3660 -13381.0451 -11194.2697 272.6396 -129.4426 -54.6758 41519.4092 -0.6569 0.1576
ENERGY: 315000 0.4056 3.2501 0.6789 0.0000 -15746.8409 2268.0043 0.0000 0.0000 2222.3495 -11252.1526 272.2008 -13474.5021 -11249.2845 269.7215 418.3200 460.6591 41373.7967 1.6818 1.2527
ENERGY: 325000 1.0039 2.2446 0.7506 0.0000 -15634.1486 2131.4255 0.0000 0.0000 2149.3275 -11349.3964 263.2569 -13498.7239 -11343.3787 267.6207 -347.7428 -242.4041 40951.8301 6.1666 5.5393
TCL: Running 1000000 steps at 300 kelvin.
TCL: Setting parameter langevinTemp to 300
TCL: Running for 1000000 steps
ETITLE: TS BOND ANGLE DIHED IMPRP ELECT VDW BOUNDARY MISC KINETIC TOTAL TEMP POTENTIAL TOTAL3 TEMPAVG PRESSURE GPRESSURE VOLUME PRESSAVG GPRESSAVG
ENERGY: 325000 1.0039 2.2446 0.7506 0.0000 -15634.1486 2131.4255 0.0000 0.0000 2148.2177 -11350.5062 263.1209 -13498.7239 -11347.1500 263.1209 -320.5740 -242.9174 40951.8301 -320.5740 -242.9174
ENERGY: 525000 0.2692 5.7195 1.8138 0.0000 -14838.0169 1959.7353 0.0000 0.0000 2495.2245 -10375.2546 305.6235 -12870.4791 -10372.0090 301.4049 -160.5509 -62.0156 42209.3649 2.8451 3.1863
ENERGY: 725000 0.1873 1.3333 2.3977 0.0000 -14898.0943 2062.0934 0.0000 0.0000 2456.2022 -10375.8805 300.8439 -12832.0826 -10369.1400 300.3647 229.6371 320.4761 42671.4199 -1.4314 -0.7075
ENERGY: 925000 0.3410 3.2290 0.2452 0.0000 -14789.4485 1980.2213 0.0000 0.0000 2416.6834 -10388.7286 296.0035 -12805.4121 -10386.1737 300.0955 145.6176 211.1533 42222.8540 5.0017 4.9836
ENERGY: 1125000 0.7188 1.9032 1.4549 0.0000 -15128.8029 2151.3295 0.0000 0.0000 2426.7736 -10546.6229 297.2394 -12973.3965 -10544.7654 298.0656 581.5068 647.3169 42259.8312 5.8166 5.7240
ENERGY: 1325000 0.2560 3.7252 0.7991 0.0000 -14796.3074 1933.8501 0.0000 0.0000 2394.7666 -10462.9104 293.3191 -12857.6770 -10457.6523 299.9134 -411.9864 -277.6564 42287.7750 10.4584 10.1355
TCL: Exiting due to exit command.
