Info: SIMULATION PARAMETERS:
Info: TIMESTEP               2
Info: NUMBER OF STEPS        0
Info: STEPS PER CYCLE        10
Info: PERIODIC CELL BASIS 1  39.546 0 0
Info: PERIODIC CELL BASIS 2  0 40.343 0
Info: PERIODIC CELL BASIS 3  0 0 40.136
Info: PERIODIC CELL CENTER   0 0 0
Info: WRAPPING WATERS AROUND PERIODIC BOUNDARIES ON OUTPUT.
Info: WRAPPING ALL CLUSTERS AROUND PERIODIC BOUNDARIES ON OUTPUT.
Info: FIRST LDB TIMESTEP     50
Info: LAST LDB TIMESTEP     -1
Info: HOM BACKGROUND SCALING 1
Info: PME BACKGROUND SCALING 1
Info: MIN ATOMS PER PATCH    40
Info: EMPTY PATCH LOAD       40 ATOMS
Info: INITIAL TEMPERATURE    300
Info: CENTER OF MASS MOVING INITIALLY? NO
Info: DIELECTRIC             1
Info: EXCLUDE                SCALED ONE-FOUR
Info: 1-4 ELECTROSTATICS SCALED BY 0.833333
Info: MODIFIED 1-4 VDW PARAMETERS WILL BE USED
Info: DCD FILENAME           mobley_1278715_min.dcd
Info: DCD FREQUENCY          5000
Info: DCD FIRST STEP         5000
Info: DCD FILE WILL CONTAIN UNIT CELL DATA
Info: XST FILENAME           mobley_1278715_min.xst
Info: XST FREQUENCY          5000
Info: NO VELOCITY DCD OUTPUT
Info: NO FORCE DCD OUTPUT
Info: OUTPUT FILENAME        mobley_1278715_min
Info: BINARY OUTPUT FILES WILL BE USED
Info: RESTART FILENAME       mobley_1278715_min.restart
Info: RESTART FREQUENCY      5000
Info: BINARY RESTART FILES WILL BE USED
Info: CUTOFF                 9
Info: PAIRLIST DISTANCE      11
Info: PAIRLIST SHRINK RATE   0.01
Info: PAIRLIST GROW RATE     0.01
Info: PAIRLIST TRIGGER       0.3
Info: PAIRLISTS PER CYCLE    2
Info: PAIRLISTS ENABLED
Info: MARGIN                 8
Info: HYDROGEN GROUP CUTOFF  2.5
Info: PATCH DIMENSION        21.5
Info: ENERGY OUTPUT STEPS    5000
Info: ENERGY EVALUATION STEPS    5000
Info: OUTPUT ENERGY PRECISION 4
Info: CROSSTERM ENERGY INCLUDED IN DIHEDRAL
Info: TIMING OUTPUT STEPS    50000
Info: PRESSURE OUTPUT STEPS  5000
Info: LANGEVIN DYNAMICS ACTIVE
Info: LANGEVIN TEMPERATURE   300
Info: LANGEVIN USING BBK INTEGRATOR
Info: LANGEVIN DAMPING COEFFICIENT IS 1 INVERSE PS
Info: LANGEVIN DYNAMICS APPLIED TO HYDROGENS
Info: LANGEVIN PISTON PRESSURE CONTROL ACTIVE
Info:        TARGET PRESSURE IS 1.01325 BAR
Info:     OSCILLATION PERIOD IS 50 FS
Info:             DECAY TIME IS 25 FS
Info:     PISTON TEMPERATURE IS 300 K
Info:       PRESSURE CONTROL IS GROUP-BASED
Info:    INITIAL STRAIN RATE IS 0 0 0
Info:       CELL FLUCTUATION IS ISOTROPIC
Info: PARTICLE MESH EWALD (PME) ACTIVE
Info: PME TOLERANCE               1e-06
Info: PME EWALD COEFFICIENT       0.348832
Info: PME INTERPOLATION ORDER     4
Info: PME GRID DIMENSIONS         40 44 44
Info: PME MAXIMUM GRID SPACING    1
Info: FULL ELECTROSTATIC EVALUATION FREQUENCY      2
Info: USING VERLET I (r-RESPA) MTS SCHEME.
Info: C1 SPLITTING OF LONG RANGE ELECTROSTATICS
Info: PLACING ATOMS IN PATCHES BY HYDROGEN GROUPS
Info: RIGID BONDS TO HYDROGEN : ALL
Info:         ERROR TOLERANCE : 1e-08
Info:          MAX ITERATIONS : 100
Info: RIGID WATER USING SETTLE ALGORITHM
Info: RANDOM NUMBER SEED     1741311135
Info: USE HYDROGEN BONDS?    NO
Info: Using AMBER format force field!
Info: AMBER PARM FILE        mobley_1278715.prmtop
Info: COORDINATE PDB         mobley_1278715.pdb
Info: Exclusions will be read from PARM file!
Info: SCNB (VDW SCALING)     2
Info: USING ARITHMETIC MEAN TO COMBINE L-J SIGMA PARAMETERS
Info: SUMMARY OF PARAMETERS:
Info: 4 BONDS
Info: 2 ANGLES
Info:   2 HARMONIC
Info:   0 COSINE-BASED
Info: 1 DIHEDRAL
Info: 0 IMPROPER
Info: 0 CROSSTERM
Info: 0 VDW
Info: 10 VDW_PAIRS
Info: 0 NBTHOLE_PAIRS
Info: STRUCTURE SUMMARY:
Info: 4685 ATOMS
Info: 4684 BONDS
Info: 12 ANGLES
Info: 9 DIHEDRALS
Info: 0 IMPROPERS
Info: 0 CROSSTERMS
Info: 4705 EXCLUSIONS
Info: 4677 RIGID BONDS
Info: 9378 DEGREES OF FREEDOM
Info: 1567 HYDROGEN GROUPS
Info: 3 ATOMS IN LARGEST HYDROGEN GROUP
Info: 1567 MIGRATION GROUPS
Info: 3 ATOMS IN LARGEST MIGRATION GROUP
Info: TOTAL MASS = 28323.7 amu
Info: TOTAL CHARGE = -0.000199974 e
Info: MASS DENSITY = 0.73452 g/cm^3
Info: ATOM DENSITY = 0.0731652 atoms/A^3
Info: ADDED 0 IMPLICIT EXCLUSIONS
Info: NONBONDED TABLE R-SQUARED SPACING: 0.0625
Info: NONBONDED TABLE SIZE: 705 POINTS
Info: REMOVING COM VELOCITY 0.0431636 0.0152767 -0.0205184
TCL: Minimizing for 2000 steps
ETITLE: TS BOND ANGLE DIHED IMPRP ELECT VDW BOUNDARY MISC KINETIC TOTAL TEMP POTENTIAL TOTAL3 TEMPAVG PRESSURE GPRESSURE VOLUME PRESSAVG GPRESSAVG
ENERGY: 0 0.0842 0.9367 0.0000 0.0000 -14719.4871 1700.0217 0.0000 0.0000 0.0000 -13018.4444 0.0000 -13018.4444 -13018.4444 0.0000 11398.1111 -16126.8991 64033.1461 11398.1111 -16126.8991
ENERGY: 400 2.1780 1.3813 0.0335 0.0000 -20379.8765 3260.4734 0.0000 0.0000 0.0000 -17115.8103 0.0000 -17115.8103 -17115.8103 0.0000 17869.8860 18008.4822 64033.1461 17869.8860 18008.4822
ENERGY: 800 1.0911 0.2969 0.0101 0.0000 -21184.0805 3597.8297 0.0000 0.0000 0.0000 -17584.8527 0.0000 -17584.8527 -17584.8527 0.0000 19592.9443 19712.3135 64033.1461 19592.9443 19712.3135
ENERGY: 1200 0.6308 0.2214 0.0042 0.0000 -21490.5705 3733.0360 0.0000 0.0000 0.0000 -17756.6781 0.0000 -17756.6781 -17756.6781 0.0000 20307.2164 20403.9767 64033.1461 20307.2164 20403.9767
ENERGY: 1600 0.1859 0.5698 0.0102 0.0000 -21609.8689 3780.9380 0.0000 0.0000 0.0000 -17828.1649 0.0000 -17828.1649 -17828.1649 0.0000 20576.0498 20671.9510 64033.1461 20576.0498 20671.9510
ENERGY: 2000 0.3890 0.3498 0.0072 0.0000 -21666.3357 3794.8786 0.0000 0.0000 0.0000 -17870.7111 0.0000 -17870.7111 -17870.7111 0.0000 20667.5217 20761.1683 64033.1461 20667.5217 20761.1683
TCL: Exiting due to exit command.
Info: NAMD 3.0.1 for Linux-x86_64-multicore
Info: Please visit http://www.ks.uiuc.edu/Research/namd/
Info: for updates, documentation, and support information.
Info: Please cite Phillips et al., J. Chem. Phys. 153:044130 (2020) doi:10.1063/5.0014475
Info: in all publications reporting results obtained with NAMD.
Info: Based on Charm++/Converse 80000 for multicore-linux-x86_64-gcc
Info: Built Mon Oct 14 11:11:06 CDT 2024 by dhardy on athine.ks.uiuc.edu
Info: 1 NAMD  3.0.1  Linux-x86_64-multicore  16    k029  z5358697
Info: Running on 16 processors, 1 nodes, 1 physical nodes.
Info: CPU topology information available.
Info: Charm++/Converse parallel runtime startup completed at 0.00541084 s
Info: 1043.45 MB of memory in use based on /proc/self/stat
Info: Configuration file is mobley_1278715_equil.namd
Info: Working in the current directory /srv/scratch/z5358697/prod_prep/1278715
TCL: Running 25000 steps at 30 kelvin.
TCL: Suspending until startup complete.
Info: SIMULATION PARAMETERS:
Info: TIMESTEP               2
Info: NUMBER OF STEPS        0
Info: STEPS PER CYCLE        10
Info: PERIODIC CELL BASIS 1  39.546 0 0
Info: PERIODIC CELL BASIS 2  0 40.343 0
Info: PERIODIC CELL BASIS 3  0 0 40.136
Info: PERIODIC CELL CENTER   0 0 0
Info: WRAPPING WATERS AROUND PERIODIC BOUNDARIES ON OUTPUT.
Info: WRAPPING ALL CLUSTERS AROUND PERIODIC BOUNDARIES ON OUTPUT.
Info: FIRST LDB TIMESTEP     50
Info: LAST LDB TIMESTEP     -1
Info: HOM BACKGROUND SCALING 1
Info: PME BACKGROUND SCALING 1
Info: MIN ATOMS PER PATCH    40
Info: EMPTY PATCH LOAD       40 ATOMS
Info: INITIAL TEMPERATURE    300
Info: CENTER OF MASS MOVING INITIALLY? NO
Info: DIELECTRIC             1
Info: EXCLUDE                SCALED ONE-FOUR
Info: 1-4 ELECTROSTATICS SCALED BY 0.833333
Info: MODIFIED 1-4 VDW PARAMETERS WILL BE USED
Info: DCD FILENAME           mobley_1278715_equil.dcd
Info: DCD FREQUENCY          5000
Info: DCD FIRST STEP         5000
Info: DCD FILE WILL CONTAIN UNIT CELL DATA
Info: XST FILENAME           mobley_1278715_equil.xst
Info: XST FREQUENCY          5000
Info: NO VELOCITY DCD OUTPUT
Info: NO FORCE DCD OUTPUT
Info: OUTPUT FILENAME        mobley_1278715_equil
Info: BINARY OUTPUT FILES WILL BE USED
Info: RESTART FILENAME       mobley_1278715_equil.restart
Info: RESTART FREQUENCY      5000
Info: BINARY RESTART FILES WILL BE USED
Info: CUTOFF                 9
Info: PAIRLIST DISTANCE      11
Info: PAIRLIST SHRINK RATE   0.01
Info: PAIRLIST GROW RATE     0.01
Info: PAIRLIST TRIGGER       0.3
Info: PAIRLISTS PER CYCLE    2
Info: PAIRLISTS ENABLED
Info: MARGIN                 8
Info: HYDROGEN GROUP CUTOFF  2.5
Info: PATCH DIMENSION        21.5
Info: ENERGY OUTPUT STEPS    5000
Info: ENERGY EVALUATION STEPS    5000
Info: OUTPUT ENERGY PRECISION 4
Info: CROSSTERM ENERGY INCLUDED IN DIHEDRAL
Info: TIMING OUTPUT STEPS    50000
Info: PRESSURE OUTPUT STEPS  5000
Info: LANGEVIN DYNAMICS ACTIVE
Info: LANGEVIN TEMPERATURE   30
Info: LANGEVIN USING BBK INTEGRATOR
Info: LANGEVIN DAMPING COEFFICIENT IS 1 INVERSE PS
Info: LANGEVIN DYNAMICS APPLIED TO HYDROGENS
Info: LANGEVIN PISTON PRESSURE CONTROL ACTIVE
Info:        TARGET PRESSURE IS 1.01325 BAR
Info:     OSCILLATION PERIOD IS 50 FS
Info:             DECAY TIME IS 25 FS
Info:     PISTON TEMPERATURE IS 300 K
Info:       PRESSURE CONTROL IS GROUP-BASED
Info:    INITIAL STRAIN RATE IS 0 0 0
Info:       CELL FLUCTUATION IS ISOTROPIC
Info: PARTICLE MESH EWALD (PME) ACTIVE
Info: PME TOLERANCE               1e-06
Info: PME EWALD COEFFICIENT       0.348832
Info: PME INTERPOLATION ORDER     4
Info: PME GRID DIMENSIONS         40 44 44
Info: PME MAXIMUM GRID SPACING    1
Info: FULL ELECTROSTATIC EVALUATION FREQUENCY      2
Info: USING VERLET I (r-RESPA) MTS SCHEME.
Info: C1 SPLITTING OF LONG RANGE ELECTROSTATICS
Info: PLACING ATOMS IN PATCHES BY HYDROGEN GROUPS
Info: RIGID BONDS TO HYDROGEN : ALL
Info:         ERROR TOLERANCE : 1e-08
Info:          MAX ITERATIONS : 100
Info: RIGID WATER USING SETTLE ALGORITHM
Info: RANDOM NUMBER SEED     1741311152
Info: USE HYDROGEN BONDS?    NO
Info: Using AMBER format force field!
Info: AMBER PARM FILE        mobley_1278715.prmtop
Info: COORDINATE PDB         mobley_1278715.pdb
Info: Exclusions will be read from PARM file!
Info: SCNB (VDW SCALING)     2
Info: USING ARITHMETIC MEAN TO COMBINE L-J SIGMA PARAMETERS
Info: BINARY COORDINATES     mobley_1278715_min.coor
Info: SUMMARY OF PARAMETERS:
Info: 4 BONDS
Info: 2 ANGLES
Info:   2 HARMONIC
Info:   0 COSINE-BASED
Info: 1 DIHEDRAL
Info: 0 IMPROPER
Info: 0 CROSSTERM
Info: 0 VDW
Info: 10 VDW_PAIRS
Info: 0 NBTHOLE_PAIRS
Info: STRUCTURE SUMMARY:
Info: 4685 ATOMS
Info: 4684 BONDS
Info: 12 ANGLES
Info: 9 DIHEDRALS
Info: 0 IMPROPERS
Info: 0 CROSSTERMS
Info: 4705 EXCLUSIONS
Info: 4677 RIGID BONDS
Info: 9378 DEGREES OF FREEDOM
Info: 1567 HYDROGEN GROUPS
Info: 3 ATOMS IN LARGEST HYDROGEN GROUP
Info: 1567 MIGRATION GROUPS
Info: 3 ATOMS IN LARGEST MIGRATION GROUP
Info: TOTAL MASS = 28323.7 amu
Info: TOTAL CHARGE = -0.000199974 e
Info: MASS DENSITY = 0.73452 g/cm^3
Info: ATOM DENSITY = 0.0731652 atoms/A^3
Info: ADDED 0 IMPLICIT EXCLUSIONS
Info: NONBONDED TABLE R-SQUARED SPACING: 0.0625
Info: NONBONDED TABLE SIZE: 705 POINTS
Info: REMOVING COM VELOCITY 0.0198908 0.0306568 0.0382174
TCL: Running for 25000 steps
ETITLE: TS BOND ANGLE DIHED IMPRP ELECT VDW BOUNDARY MISC KINETIC TOTAL TEMP POTENTIAL TOTAL3 TEMPAVG PRESSURE GPRESSURE VOLUME PRESSAVG GPRESSAVG
ENERGY: 0 0.3890 0.3498 0.0072 0.0000 -21666.3357 3794.8786 0.0000 0.0000 2778.8166 -15091.8945 298.2222 -17870.7111 -15091.3570 298.2222 391.6270 428.0941 64033.1461 391.6270 428.0941
ENERGY: 5000 0.8089 0.8190 0.0384 0.0000 -22594.6934 3977.0273 0.0000 0.0000 280.3983 -18335.6017 30.0923 -18616.0000 -18335.2427 47.2020 203.4377 264.3291 45972.9814 3.7680 3.9617
ENERGY: 10000 0.4053 0.8968 0.1085 0.0000 -22613.7226 3979.9284 0.0000 0.0000 276.6741 -18355.7096 29.6926 -18632.3837 -18354.9242 30.0959 251.5579 300.5806 45790.2255 4.1213 4.1283
ENERGY: 15000 0.2122 1.0768 0.0761 0.0000 -22679.8511 4035.5433 0.0000 0.0000 281.8780 -18361.0647 30.2511 -18642.9427 -18360.6442 30.2006 530.1316 564.9821 45773.1047 2.8886 2.6800
ENERGY: 20000 0.2276 0.4197 0.0338 0.0000 -22554.4501 3901.6038 0.0000 0.0000 276.2142 -18375.9511 29.6433 -18652.1653 -18374.9244 30.1976 -260.3411 -194.8480 46000.5861 2.2647 1.9880
ENERGY: 25000 0.4263 0.7472 0.0084 0.0000 -22521.2068 3864.8487 0.0000 0.0000 285.2563 -18369.9200 30.6137 -18655.1763 -18368.9782 30.1321 -428.6535 -361.7618 45966.2835 0.6180 0.9314
TCL: Running 25000 steps at 60 kelvin.
TCL: Setting parameter langevinTemp to 60
TCL: Running for 25000 steps
ETITLE: TS BOND ANGLE DIHED IMPRP ELECT VDW BOUNDARY MISC KINETIC TOTAL TEMP POTENTIAL TOTAL3 TEMPAVG PRESSURE GPRESSURE VOLUME PRESSAVG GPRESSAVG
ENERGY: 25000 0.4263 0.7472 0.0084 0.0000 -22521.2068 3864.8487 0.0000 0.0000 285.1188 -18370.0575 30.5989 -18655.1763 -18369.3772 30.5989 -410.4570 -361.7732 45966.2835 -410.4570 -361.7732
ENERGY: 30000 0.4415 1.0887 0.0534 0.0000 -22300.0880 3879.5776 0.0000 0.0000 558.9930 -17859.9338 59.9911 -18418.9268 -17859.2521 57.7387 263.7889 309.6735 45895.8302 3.7633 4.2199
ENERGY: 35000 0.3249 0.8693 0.0506 0.0000 -22361.2529 3899.1056 0.0000 0.0000 565.5939 -17895.3086 60.6995 -18460.9025 -17893.3981 60.1564 293.7492 353.2892 45789.1186 8.3613 8.2238
ENERGY: 40000 0.3083 0.2472 0.0430 0.0000 -22544.1948 4034.3769 0.0000 0.0000 556.5016 -17952.7178 59.7237 -18509.2194 -17951.4577 60.4640 991.1609 1049.7530 45329.8639 2.3502 2.2480
ENERGY: 45000 0.6201 0.2745 0.0425 0.0000 -22356.7236 3850.5764 0.0000 0.0000 551.5072 -17953.7029 59.1877 -18505.2101 -17952.1730 60.1632 27.6809 75.7180 45570.6067 4.6576 5.0115
ENERGY: 50000 0.4217 0.8839 0.0553 0.0000 -22372.0220 3849.9395 0.0000 0.0000 554.8208 -17965.9007 59.5433 -18520.7215 -17964.6667 59.7949 66.0854 108.9575 45416.4628 6.0173 6.0752
TCL: Running 25000 steps at 90 kelvin.
TCL: Setting parameter langevinTemp to 90
TCL: Running for 25000 steps
ETITLE: TS BOND ANGLE DIHED IMPRP ELECT VDW BOUNDARY MISC KINETIC TOTAL TEMP POTENTIAL TOTAL3 TEMPAVG PRESSURE GPRESSURE VOLUME PRESSAVG GPRESSAVG
ENERGY: 50000 0.4217 0.8839 0.0553 0.0000 -22372.0220 3849.9395 0.0000 0.0000 554.5468 -17966.1747 59.5139 -18520.7215 -17964.9436 59.5139 62.2023 108.7384 45416.4628 62.2023 108.7384
ENERGY: 55000 2.0975 0.6608 0.0363 0.0000 -21836.3887 3610.3789 0.0000 0.0000 832.0484 -17391.1668 89.2953 -18223.2152 -17389.8936 86.5101 -740.2805 -673.4978 46238.6506 -0.1075 0.1504
ENERGY: 60000 0.6925 0.9178 0.0543 0.0000 -21979.9499 3691.1761 0.0000 0.0000 847.0330 -17440.0761 90.9035 -18287.1091 -17438.8613 90.7311 -401.2401 -338.4939 46096.9375 2.9453 2.6847
ENERGY: 65000 0.2937 1.6485 0.0156 0.0000 -22257.2036 3949.7713 0.0000 0.0000 838.7586 -17466.7158 90.0155 -18305.4745 -17464.1508 90.7436 1139.5813 1163.2219 45363.6428 -0.7768 -0.9972
ENERGY: 70000 1.3920 0.9647 0.3194 0.0000 -22110.4599 3779.1829 0.0000 0.0000 849.8768 -17478.7241 91.2087 -18328.6009 -17476.2016 90.5112 55.9208 120.6473 45656.4802 -0.9043 -0.7532
ENERGY: 75000 1.9129 0.9619 0.0236 0.0000 -21890.5812 3566.2826 0.0000 0.0000 854.9877 -17466.4125 91.7572 -18321.4001 -17464.6484 90.0690 -1074.1248 -1034.9520 45989.4542 8.9022 8.9959
TCL: Running 25000 steps at 120 kelvin.
TCL: Setting parameter langevinTemp to 120
TCL: Running for 25000 steps
ETITLE: TS BOND ANGLE DIHED IMPRP ELECT VDW BOUNDARY MISC KINETIC TOTAL TEMP POTENTIAL TOTAL3 TEMPAVG PRESSURE GPRESSURE VOLUME PRESSAVG GPRESSAVG
ENERGY: 75000 1.9129 0.9619 0.0236 0.0000 -21890.5812 3566.2826 0.0000 0.0000 854.5844 -17466.8157 91.7139 -18321.4001 -17464.8395 91.7139 -1103.7503 -1034.9930 45989.4542 -1103.7503 -1034.9930
ENERGY: 80000 0.8591 1.0909 0.3219 0.0000 -21642.5614 3654.1160 0.0000 0.0000 1113.9710 -16872.2026 119.5512 -17986.1736 -16870.2883 116.6221 219.8886 278.5348 45936.3910 2.6357 2.7037
ENERGY: 85000 0.8888 1.3654 0.1171 0.0000 -21623.7614 3584.6279 0.0000 0.0000 1141.0998 -16895.6623 122.4627 -18036.7622 -16891.8437 119.7812 -284.7215 -239.1953 46025.7511 0.1416 0.1210
ENERGY: 90000 0.9631 0.5817 0.2689 0.0000 -21812.8560 3739.8711 0.0000 0.0000 1120.3495 -16950.8216 120.2358 -18071.1712 -16947.6986 119.3826 292.6003 384.2836 45851.4630 4.9254 5.1689
ENERGY: 95000 1.3991 0.9705 0.0336 0.0000 -21740.8511 3648.0350 0.0000 0.0000 1092.9017 -16997.5113 117.2901 -18090.4129 -16994.8019 119.4234 -208.7819 -154.0611 46090.7737 3.1493 3.5933
ENERGY: 100000 1.4926 1.3822 0.0235 0.0000 -21962.9362 3846.8095 0.0000 0.0000 1089.2739 -17023.9546 116.9007 -18113.2285 -17019.6682 119.3681 872.1785 897.8184 45774.2153 4.6848 5.2437
TCL: Running 25000 steps at 150 kelvin.
TCL: Setting parameter langevinTemp to 150
TCL: Running for 25000 steps
ETITLE: TS BOND ANGLE DIHED IMPRP ELECT VDW BOUNDARY MISC KINETIC TOTAL TEMP POTENTIAL TOTAL3 TEMPAVG PRESSURE GPRESSURE VOLUME PRESSAVG GPRESSAVG
ENERGY: 100000 1.4926 1.3822 0.0235 0.0000 -21962.9362 3846.8095 0.0000 0.0000 1088.7029 -17024.5256 116.8395 -18113.2285 -17022.3866 116.8395 837.8855 898.8877 45774.2153 837.8855 898.8877
ENERGY: 105000 0.4204 1.6665 0.0410 0.0000 -21306.7353 3509.7509 0.0000 0.0000 1389.5719 -16405.2846 149.1287 -17794.8565 -16402.1416 146.6436 -153.8438 -105.6175 46222.3936 1.9082 2.0263
ENERGY: 110000 2.4234 1.7593 0.0639 0.0000 -21430.5457 3644.4235 0.0000 0.0000 1385.8940 -16395.9816 148.7340 -17781.8756 -16393.5540 150.0301 563.4814 638.5375 45858.2747 -1.3609 -1.4629
ENERGY: 115000 0.7279 1.7329 0.5511 0.0000 -21387.6917 3601.2225 0.0000 0.0000 1411.6230 -16371.8343 151.4952 -17783.4572 -16367.9108 150.1312 365.0455 447.4115 45895.4538 7.4075 7.5689
ENERGY: 120000 0.9589 1.3909 0.0962 0.0000 -21338.6392 3525.9004 0.0000 0.0000 1395.2422 -16415.0507 149.7372 -17810.2929 -16412.8366 150.5906 41.6123 51.7069 45921.6004 -0.0408 -0.1917
ENERGY: 125000 1.5915 0.8044 0.3804 0.0000 -21589.0214 3715.9406 0.0000 0.0000 1429.5823 -16440.7222 153.4226 -17870.3045 -16436.1834 150.2028 1039.7734 1093.6941 45447.2603 4.1943 4.5530
TCL: Running 50000 steps at 180 kelvin.
TCL: Setting parameter langevinTemp to 180
TCL: Running for 50000 steps
ETITLE: TS BOND ANGLE DIHED IMPRP ELECT VDW BOUNDARY MISC KINETIC TOTAL TEMP POTENTIAL TOTAL3 TEMPAVG PRESSURE GPRESSURE VOLUME PRESSAVG GPRESSAVG
ENERGY: 125000 1.5915 0.8044 0.3804 0.0000 -21589.0214 3715.9406 0.0000 0.0000 1428.8871 -16441.4174 153.3480 -17870.3045 -16438.7630 153.3480 1040.1644 1094.4874 45447.2603 1040.1644 1094.4874
ENERGY: 135000 2.8887 3.0754 0.1097 0.0000 -20755.2177 3349.7594 0.0000 0.0000 1685.1711 -15714.2134 180.8524 -17399.3845 -15710.0312 180.8451 146.5839 236.7519 45594.2768 4.8103 4.8886
ENERGY: 145000 1.5085 2.3019 0.1034 0.0000 -20918.2465 3459.8208 0.0000 0.0000 1682.5073 -15772.0046 180.5665 -17454.5119 -15768.4585 181.2474 660.3014 711.2559 45326.4552 -0.3574 -0.4529
ENERGY: 155000 1.1371 1.1861 0.0725 0.0000 -20808.6614 3344.0623 0.0000 0.0000 1666.3001 -15795.9033 178.8271 -17462.2034 -15793.4238 180.1018 -16.5059 37.8126 45589.2306 6.9557 6.9034
ENERGY: 165000 3.3642 1.2710 0.4473 0.0000 -20990.3349 3460.5815 0.0000 0.0000 1653.0045 -15871.6664 177.4002 -17524.6709 -15867.6725 178.3931 444.9138 491.7974 45620.2578 7.5577 7.9871
ENERGY: 175000 1.2311 2.3434 0.3933 0.0000 -20883.8103 3370.5451 0.0000 0.0000 1682.4223 -15826.8750 180.5573 -17509.2973 -15822.2267 182.0938 144.5427 216.2408 45444.0662 3.0687 2.9175
TCL: Running 50000 steps at 210 kelvin.
TCL: Setting parameter langevinTemp to 210
TCL: Running for 50000 steps
ETITLE: TS BOND ANGLE DIHED IMPRP ELECT VDW BOUNDARY MISC KINETIC TOTAL TEMP POTENTIAL TOTAL3 TEMPAVG PRESSURE GPRESSURE VOLUME PRESSAVG GPRESSAVG
ENERGY: 175000 1.2311 2.3434 0.3933 0.0000 -20883.8103 3370.5451 0.0000 0.0000 1681.6084 -15827.6890 180.4700 -17509.2973 -15824.6486 180.4700 145.8253 217.4583 45444.0662 145.8253 217.4583
ENERGY: 185000 1.7277 3.5350 0.1181 0.0000 -19838.8048 3007.8167 0.0000 0.0000 1919.9977 -14905.6096 206.0539 -16825.6073 -14899.9022 208.6160 -163.9027 -83.5455 45503.0135 6.1180 6.1409
ENERGY: 195000 1.7081 1.4023 0.1717 0.0000 -19824.2636 3068.1221 0.0000 0.0000 1985.8883 -14766.9711 213.1253 -16752.8593 -14763.0221 211.9495 77.8586 190.5325 45847.0686 7.2711 6.0108
ENERGY: 205000 0.7624 2.7604 0.2009 0.0000 -19669.8514 3009.1783 0.0000 0.0000 1983.6971 -14673.2524 212.8901 -16656.9495 -14667.5047 209.5228 -89.3747 3.0159 46307.4430 4.2085 4.4814
ENERGY: 215000 0.4168 1.3828 0.2756 0.0000 -19616.8293 2942.0803 0.0000 0.0000 1985.1522 -14687.5215 213.0463 -16672.6737 -14681.7488 210.3613 -396.2904 -310.4577 46280.1943 7.5348 7.1297
ENERGY: 225000 0.7912 2.3434 0.1078 0.0000 -19888.5908 3106.0200 0.0000 0.0000 1968.6652 -14810.6632 211.2769 -16779.3284 -14804.2740 210.9616 362.4911 455.9686 45794.1086 -2.0798 -2.1879
TCL: Running 50000 steps at 240 kelvin.
TCL: Setting parameter langevinTemp to 240
TCL: Running for 50000 steps
ETITLE: TS BOND ANGLE DIHED IMPRP ELECT VDW BOUNDARY MISC KINETIC TOTAL TEMP POTENTIAL TOTAL3 TEMPAVG PRESSURE GPRESSURE VOLUME PRESSAVG GPRESSAVG
ENERGY: 225000 0.7912 2.3434 0.1078 0.0000 -19888.5908 3106.0200 0.0000 0.0000 1967.6766 -14811.6518 211.1708 -16779.3284 -14808.3985 211.1708 377.6992 456.5919 45794.1086 377.6992 456.5919
ENERGY: 235000 1.4739 2.8869 0.3089 0.0000 -18793.6862 2816.1975 0.0000 0.0000 2245.5828 -13727.2362 240.9957 -15972.8190 -13722.4692 240.8717 535.8599 653.9688 46187.7981 6.1341 6.0250
ENERGY: 245000 1.3644 3.2960 0.2245 0.0000 -18582.0984 2685.3931 0.0000 0.0000 2257.9102 -13633.9102 242.3186 -15891.8204 -13629.6409 242.7955 33.5575 62.2411 46359.6878 2.6578 2.7217
ENERGY: 255000 3.0746 0.7166 0.5113 0.0000 -18663.7103 2637.7099 0.0000 0.0000 2217.7271 -13803.9708 238.0062 -16021.6979 -13797.0541 238.8117 -513.2578 -424.8201 46315.4455 2.5521 2.7272
ENERGY: 265000 1.7241 1.6402 0.1225 0.0000 -18627.6722 2692.1441 0.0000 0.0000 2260.2487 -13671.7926 242.5696 -15932.0413 -13666.3779 239.9862 87.5094 209.7457 46096.2917 3.8021 3.4970
ENERGY: 275000 0.8521 0.4793 0.0746 0.0000 -18680.2989 2683.9788 0.0000 0.0000 2196.4000 -13798.5142 235.7174 -15994.9142 -13794.1748 240.1923 -369.5108 -271.4871 46492.2794 6.7878 5.8472
TCL: Running 50000 steps at 270 kelvin.
TCL: Setting parameter langevinTemp to 270
TCL: Running for 50000 steps
ETITLE: TS BOND ANGLE DIHED IMPRP ELECT VDW BOUNDARY MISC KINETIC TOTAL TEMP POTENTIAL TOTAL3 TEMPAVG PRESSURE GPRESSURE VOLUME PRESSAVG GPRESSAVG
ENERGY: 275000 0.8521 0.4793 0.0746 0.0000 -18680.2989 2683.9788 0.0000 0.0000 2195.2684 -13799.6458 235.5959 -15994.9142 -13796.2598 235.5959 -356.2913 -271.2280 46492.2794 -356.2913 -271.2280
ENERGY: 285000 3.0569 1.0687 0.1817 0.0000 -17882.2749 2487.0330 0.0000 0.0000 2514.0786 -12876.8560 269.8106 -15390.9345 -12873.0964 268.5901 -42.8572 34.2457 46968.6141 1.8743 2.1046
ENERGY: 295000 1.9901 2.1365 0.1672 0.0000 -17857.1739 2517.2114 0.0000 0.0000 2454.1571 -12881.5116 263.3798 -15335.6687 -12874.5714 270.6990 183.5839 242.9977 46929.0895 0.8533 1.6883
ENERGY: 305000 1.4266 0.9316 0.0827 0.0000 -17845.2883 2431.5698 0.0000 0.0000 2498.3688 -12912.9089 268.1246 -15411.2776 -12908.0556 269.9676 -408.3691 -331.4575 47033.4302 3.2915 3.0826
ENERGY: 315000 1.5985 2.5450 0.4320 0.0000 -17805.0061 2461.2247 0.0000 0.0000 2536.2265 -12802.9795 272.1875 -15339.2060 -12799.9587 268.3732 -253.3369 -149.1527 47571.0131 1.5003 0.6800
ENERGY: 325000 1.5476 2.6016 0.5864 0.0000 -17794.6379 2416.9769 0.0000 0.0000 2506.4399 -12866.4855 268.9908 -15372.9254 -12861.6276 268.8328 -327.0138 -210.0541 46819.1462 4.9973 5.2279
TCL: Running 1000000 steps at 300 kelvin.
TCL: Setting parameter langevinTemp to 300
TCL: Running for 1000000 steps
ETITLE: TS BOND ANGLE DIHED IMPRP ELECT VDW BOUNDARY MISC KINETIC TOTAL TEMP POTENTIAL TOTAL3 TEMPAVG PRESSURE GPRESSURE VOLUME PRESSAVG GPRESSAVG
ENERGY: 325000 1.5476 2.6016 0.5864 0.0000 -17794.6379 2416.9769 0.0000 0.0000 2505.1477 -12867.7777 268.8521 -15372.9254 -12864.5857 268.8521 -308.5856 -210.2783 46819.1462 -308.5856 -210.2783
ENERGY: 525000 2.2767 1.6648 0.2723 0.0000 -17128.5615 2305.5868 0.0000 0.0000 2909.6954 -11909.0655 312.2681 -14818.7609 -11907.3669 301.1013 -145.6841 9.8427 48313.3074 1.8895 1.3786
ENERGY: 725000 1.0467 3.0059 0.8136 0.0000 -17057.5097 2313.0507 0.0000 0.0000 2794.6989 -11944.8939 299.9267 -14739.5928 -11940.4832 301.1255 52.1264 166.8626 48438.5234 3.4993 4.3605
ENERGY: 925000 2.9726 2.4369 0.4856 0.0000 -17178.4504 2314.1281 0.0000 0.0000 2825.2354 -12033.1920 303.2039 -14858.4274 -12025.7023 298.3641 -248.5318 -169.5254 48344.3158 0.2889 0.3862
ENERGY: 1125000 2.0989 2.5898 1.6198 0.0000 -16874.6405 2165.9535 0.0000 0.0000 2850.4363 -11851.9422 305.9085 -14702.3785 -11846.9819 299.0152 -747.9925 -610.7807 48883.5726 0.9539 0.4457
ENERGY: 1325000 3.2541 2.1663 1.1332 0.0000 -17118.3838 2334.5808 0.0000 0.0000 2805.3909 -11971.8583 301.0742 -14777.2493 -11969.9550 300.2251 9.5536 118.7162 48632.7101 2.2518 2.8534
TCL: Exiting due to exit command.
