Info: SIMULATION PARAMETERS:
Info: TIMESTEP               2
Info: NUMBER OF STEPS        0
Info: STEPS PER CYCLE        10
Info: PERIODIC CELL BASIS 1  34.207 0 0
Info: PERIODIC CELL BASIS 2  0 35.779 0
Info: PERIODIC CELL BASIS 3  0 0 35.897
Info: PERIODIC CELL CENTER   0 0 0
Info: WRAPPING WATERS AROUND PERIODIC BOUNDARIES ON OUTPUT.
Info: WRAPPING ALL CLUSTERS AROUND PERIODIC BOUNDARIES ON OUTPUT.
Info: FIRST LDB TIMESTEP     50
Info: LAST LDB TIMESTEP     -1
Info: HOM BACKGROUND SCALING 1
Info: PME BACKGROUND SCALING 1
Info: MIN ATOMS PER PATCH    40
Info: EMPTY PATCH LOAD       40 ATOMS
Info: INITIAL TEMPERATURE    300
Info: CENTER OF MASS MOVING INITIALLY? NO
Info: DIELECTRIC             1
Info: EXCLUDE                SCALED ONE-FOUR
Info: 1-4 ELECTROSTATICS SCALED BY 0.833333
Info: MODIFIED 1-4 VDW PARAMETERS WILL BE USED
Info: DCD FILENAME           mobley_4506634_equil.dcd
Info: DCD FREQUENCY          100000
Info: DCD FIRST STEP         100000
Info: DCD FILE WILL CONTAIN UNIT CELL DATA
Info: XST FILENAME           mobley_4506634_equil.xst
Info: XST FREQUENCY          100000
Info: NO VELOCITY DCD OUTPUT
Info: NO FORCE DCD OUTPUT
Info: OUTPUT FILENAME        mobley_4506634_equil
Info: BINARY OUTPUT FILES WILL BE USED
Info: RESTART FILENAME       mobley_4506634_equil.restart
Info: RESTART FREQUENCY      100000
Info: BINARY RESTART FILES WILL BE USED
Info: CUTOFF                 9
Info: PAIRLIST DISTANCE      11
Info: PAIRLIST SHRINK RATE   0.01
Info: PAIRLIST GROW RATE     0.01
Info: PAIRLIST TRIGGER       0.3
Info: PAIRLISTS PER CYCLE    2
Info: PAIRLISTS ENABLED
Info: MARGIN                 8
Info: HYDROGEN GROUP CUTOFF  2.5
Info: PATCH DIMENSION        21.5
Info: ENERGY OUTPUT STEPS    100000
Info: ENERGY EVALUATION STEPS    100000
Info: OUTPUT ENERGY PRECISION 4
Info: CROSSTERM ENERGY INCLUDED IN DIHEDRAL
Info: TIMING OUTPUT STEPS    1000000
Info: PRESSURE OUTPUT STEPS  100000
Info: FIXED ATOMS ACTIVE
Info: LANGEVIN DYNAMICS ACTIVE
Info: LANGEVIN TEMPERATURE   30
Info: LANGEVIN USING BBK INTEGRATOR
Info: LANGEVIN DAMPING COEFFICIENT IS 1 INVERSE PS
Info: LANGEVIN DYNAMICS APPLIED TO HYDROGENS
Info: LANGEVIN PISTON PRESSURE CONTROL ACTIVE
Info:        TARGET PRESSURE IS 1.01325 BAR
Info:     OSCILLATION PERIOD IS 50 FS
Info:             DECAY TIME IS 25 FS
Info:     PISTON TEMPERATURE IS 300 K
Info:       PRESSURE CONTROL IS GROUP-BASED
Info:    INITIAL STRAIN RATE IS 0 0 0
Info:       CELL FLUCTUATION IS ISOTROPIC
Info: PARTICLE MESH EWALD (PME) ACTIVE
Info: PME TOLERANCE               1e-06
Info: PME EWALD COEFFICIENT       0.348832
Info: PME INTERPOLATION ORDER     4
Info: PME GRID DIMENSIONS         36 36 36
Info: PME MAXIMUM GRID SPACING    1
Info: FULL ELECTROSTATIC EVALUATION FREQUENCY      2
Info: USING VERLET I (r-RESPA) MTS SCHEME.
Info: C1 SPLITTING OF LONG RANGE ELECTROSTATICS
Info: PLACING ATOMS IN PATCHES BY HYDROGEN GROUPS
Info: RIGID BONDS TO HYDROGEN : ALL
Info:         ERROR TOLERANCE : 1e-08
Info:          MAX ITERATIONS : 100
Info: RIGID WATER USING SETTLE ALGORITHM
Info: RANDOM NUMBER SEED     1741933717
Info: USE HYDROGEN BONDS?    NO
Info: Using AMBER format force field!
Info: AMBER PARM FILE        mobley_4506634.prmtop
Info: COORDINATE PDB         mobley_4506634.pdb
Info: Exclusions will be read from PARM file!
Info: SCNB (VDW SCALING)     2
Info: USING ARITHMETIC MEAN TO COMBINE L-J SIGMA PARAMETERS
Info: BINARY COORDINATES     mobley_4506634_min.coor
Info: SUMMARY OF PARAMETERS:
Info: 7 BONDS
Info: 8 ANGLES
Info:   8 HARMONIC
Info:   0 COSINE-BASED
Info: 1 DIHEDRAL
Info: 0 IMPROPER
Info: 0 CROSSTERM
Info: 0 VDW
Info: 28 VDW_PAIRS
Info: 0 NBTHOLE_PAIRS
Info: STRUCTURE SUMMARY:
Info: 2972 ATOMS
Info: 2971 BONDS
Info: 12 ANGLES
Info: 9 DIHEDRALS
Info: 0 IMPROPERS
Info: 0 CROSSTERMS
Info: 2992 EXCLUSIONS
Info: 8 FIXED ATOMS
Info: 2965 RIGID BONDS
Info: 1 RIGID BONDS BETWEEN FIXED ATOMS
Info: 5928 DEGREES OF FREEDOM
Info: 995 HYDROGEN GROUPS
Info: 3 ATOMS IN LARGEST HYDROGEN GROUP
Info: 995 MIGRATION GROUPS
Info: 3 ATOMS IN LARGEST MIGRATION GROUP
Info: 7 HYDROGEN GROUPS WITH ALL ATOMS FIXED
Info: TOTAL MASS = 17997.2 amu
Info: TOTAL CHARGE = 9.99905e-05 e
Info: MASS DENSITY = 0.680241 g/cm^3
Info: ATOM DENSITY = 0.0676468 atoms/A^3
Info: ADDED 0 IMPLICIT EXCLUSIONS
Info: NONBONDED TABLE R-SQUARED SPACING: 0.0625
Info: NONBONDED TABLE SIZE: 705 POINTS
Info: REMOVING COM VELOCITY -0.00317841 -0.0971568 -0.126227
TCL: Running for 100000 steps
ETITLE: TS BOND ANGLE DIHED IMPRP ELECT VDW BOUNDARY MISC KINETIC TOTAL TEMP POTENTIAL TOTAL3 TEMPAVG PRESSURE GPRESSURE VOLUME PRESSAVG GPRESSAVG
ENERGY: 0 0.0000 0.0000 0.0000 0.0000 -13887.8626 2454.0003 0.0000 0.0000 1724.9425 -9708.9198 292.8578 -11433.8623 -9708.5712 292.8578 627.2004 659.3337 43934.0602 627.2004 659.3337
ENERGY: 100000 0.0000 0.0000 0.0000 0.0000 -14402.2689 2506.7100 0.0000 0.0000 173.9629 -11721.5960 29.5351 -11895.5589 -11720.8486 30.8278 156.9528 214.5843 29086.3373 4.4290 4.3936
TCL: Running 100000 steps at 60 kelvin.
TCL: Setting parameter langevinTemp to 60
TCL: Running for 100000 steps
ETITLE: TS BOND ANGLE DIHED IMPRP ELECT VDW BOUNDARY MISC KINETIC TOTAL TEMP POTENTIAL TOTAL3 TEMPAVG PRESSURE GPRESSURE VOLUME PRESSAVG GPRESSAVG
ENERGY: 100000 0.0000 0.0000 0.0000 0.0000 -14402.2689 2506.7100 0.0000 0.0000 173.8763 -11721.6826 29.5204 -11895.5589 -11721.3344 29.5204 173.9897 214.9956 29086.3373 173.9897 214.9956
ENERGY: 200000 0.0000 0.0000 0.0000 0.0000 -14244.8290 2431.1063 0.0000 0.0000 357.2040 -11456.5188 60.6455 -11813.7227 -11456.2212 59.9075 79.1765 143.6492 28855.7050 3.9618 3.9648
TCL: Running 100000 steps at 90 kelvin.
TCL: Setting parameter langevinTemp to 90
TCL: Running for 100000 steps
ETITLE: TS BOND ANGLE DIHED IMPRP ELECT VDW BOUNDARY MISC KINETIC TOTAL TEMP POTENTIAL TOTAL3 TEMPAVG PRESSURE GPRESSURE VOLUME PRESSAVG GPRESSAVG
ENERGY: 200000 0.0000 0.0000 0.0000 0.0000 -14244.8290 2431.1063 0.0000 0.0000 357.0346 -11456.6881 60.6167 -11813.7227 -11455.9859 60.6167 91.2947 143.1941 28855.7050 91.2947 143.1941
ENERGY: 300000 0.0000 0.0000 0.0000 0.0000 -14116.5838 2422.6643 0.0000 0.0000 542.5710 -11151.3486 92.1168 -11693.9196 -11149.8744 89.8804 338.3302 412.7180 29013.4093 3.0239 2.8751
TCL: Running 100000 steps at 120 kelvin.
TCL: Setting parameter langevinTemp to 120
TCL: Running for 100000 steps
ETITLE: TS BOND ANGLE DIHED IMPRP ELECT VDW BOUNDARY MISC KINETIC TOTAL TEMP POTENTIAL TOTAL3 TEMPAVG PRESSURE GPRESSURE VOLUME PRESSAVG GPRESSAVG
ENERGY: 300000 0.0000 0.0000 0.0000 0.0000 -14116.5838 2422.6643 0.0000 0.0000 542.3076 -11151.6120 92.0721 -11693.9196 -11150.6807 92.0721 362.3138 412.8969 29013.4093 362.3138 412.8969
ENERGY: 400000 0.0000 0.0000 0.0000 0.0000 -13814.3746 2230.5267 0.0000 0.0000 715.8040 -10868.0438 121.5280 -11583.8479 -10866.5143 120.0200 -1023.9099 -940.3691 29358.3799 3.6900 3.7169
TCL: Running 100000 steps at 150 kelvin.
TCL: Setting parameter langevinTemp to 150
TCL: Running for 100000 steps
ETITLE: TS BOND ANGLE DIHED IMPRP ELECT VDW BOUNDARY MISC KINETIC TOTAL TEMP POTENTIAL TOTAL3 TEMPAVG PRESSURE GPRESSURE VOLUME PRESSAVG GPRESSAVG
ENERGY: 400000 0.0000 0.0000 0.0000 0.0000 -13814.3746 2230.5267 0.0000 0.0000 715.4642 -10868.3837 121.4703 -11583.8479 -10866.5003 121.4703 -1004.8965 -941.2753 29358.3799 -1004.8965 -941.2753
ENERGY: 500000 0.0000 0.0000 0.0000 0.0000 -13764.8484 2347.3565 0.0000 0.0000 878.2741 -10539.2179 149.1119 -11417.4920 -10537.1905 150.0353 429.0245 529.1690 29305.3399 5.6331 5.5489
TCL: Running 100000 steps at 180 kelvin.
TCL: Setting parameter langevinTemp to 180
TCL: Running for 100000 steps
ETITLE: TS BOND ANGLE DIHED IMPRP ELECT VDW BOUNDARY MISC KINETIC TOTAL TEMP POTENTIAL TOTAL3 TEMPAVG PRESSURE GPRESSURE VOLUME PRESSAVG GPRESSAVG
ENERGY: 500000 0.0000 0.0000 0.0000 0.0000 -13764.8484 2347.3565 0.0000 0.0000 877.8250 -10539.6670 149.0356 -11417.4920 -10538.0419 149.0356 459.6767 528.7626 29305.3399 459.6767 528.7626
ENERGY: 600000 0.0000 0.0000 0.0000 0.0000 -13296.3688 2186.2915 0.0000 0.0000 1087.4488 -10022.6285 184.6252 -11110.0773 -10021.4612 179.7751 296.9209 334.8648 29409.6123 3.6120 3.5511
TCL: Running 100000 steps at 210 kelvin.
TCL: Setting parameter langevinTemp to 210
TCL: Running for 100000 steps
ETITLE: TS BOND ANGLE DIHED IMPRP ELECT VDW BOUNDARY MISC KINETIC TOTAL TEMP POTENTIAL TOTAL3 TEMPAVG PRESSURE GPRESSURE VOLUME PRESSAVG GPRESSAVG
ENERGY: 600000 0.0000 0.0000 0.0000 0.0000 -13296.3688 2186.2915 0.0000 0.0000 1086.9029 -10023.1744 184.5325 -11110.0773 -10021.6833 184.5325 270.0299 334.5859 29409.6123 270.0299 334.5859
ENERGY: 700000 0.0000 0.0000 0.0000 0.0000 -12540.4984 1890.7261 0.0000 0.0000 1239.9399 -9409.8324 210.5149 -10649.7723 -9407.0388 210.3027 -30.7102 27.3187 28790.8440 3.7387 3.6663
TCL: Running 100000 steps at 240 kelvin.
TCL: Setting parameter langevinTemp to 240
TCL: Running for 100000 steps
ETITLE: TS BOND ANGLE DIHED IMPRP ELECT VDW BOUNDARY MISC KINETIC TOTAL TEMP POTENTIAL TOTAL3 TEMPAVG PRESSURE GPRESSURE VOLUME PRESSAVG GPRESSAVG
ENERGY: 700000 0.0000 0.0000 0.0000 0.0000 -12540.4984 1890.7261 0.0000 0.0000 1239.3143 -9410.4580 210.4087 -10649.7723 -9408.4566 210.4087 -63.6916 26.8428 28790.8440 -63.6916 26.8428
ENERGY: 800000 0.0000 0.0000 0.0000 0.0000 -11990.3049 1732.8095 0.0000 0.0000 1422.8527 -8834.6427 241.5695 -10257.4954 -8829.9795 239.5904 -86.0071 93.9636 29127.5648 3.4598 3.4049
TCL: Running 100000 steps at 270 kelvin.
TCL: Setting parameter langevinTemp to 270
TCL: Running for 100000 steps
ETITLE: TS BOND ANGLE DIHED IMPRP ELECT VDW BOUNDARY MISC KINETIC TOTAL TEMP POTENTIAL TOTAL3 TEMPAVG PRESSURE GPRESSURE VOLUME PRESSAVG GPRESSAVG
ENERGY: 800000 0.0000 0.0000 0.0000 0.0000 -11990.3049 1732.8095 0.0000 0.0000 1422.1226 -8835.3728 241.4456 -10257.4954 -8832.5565 241.4456 0.5521 94.6515 29127.5648 0.5521 94.6515
ENERGY: 900000 0.0000 0.0000 0.0000 0.0000 -11397.6856 1592.0851 0.0000 0.0000 1576.8654 -8228.7351 267.7175 -9805.6005 -8223.5791 269.7300 160.3226 250.4317 29609.6951 4.7051 4.4944
TCL: Running 1000000 steps at 300 kelvin.
TCL: Setting parameter langevinTemp to 300
TCL: Running for 1000000 steps
ETITLE: TS BOND ANGLE DIHED IMPRP ELECT VDW BOUNDARY MISC KINETIC TOTAL TEMP POTENTIAL TOTAL3 TEMPAVG PRESSURE GPRESSURE VOLUME PRESSAVG GPRESSAVG
ENERGY: 900000 0.0000 0.0000 0.0000 0.0000 -11397.6856 1592.0851 0.0000 0.0000 1576.0537 -8229.5468 267.5797 -9805.6005 -8226.9802 267.5797 160.6161 251.5086 29609.6951 160.6161 251.5086
ENERGY: 1100000 0.0000 0.0000 0.0000 0.0000 -10758.8436 1419.2380 0.0000 0.0000 1816.7064 -7522.8991 308.4373 -9339.6055 -7521.1449 300.7852 -10.4154 136.1350 30436.3846 2.8895 2.9674
ENERGY: 1300000 0.0000 0.0000 0.0000 0.0000 -10789.4665 1412.6788 0.0000 0.0000 1754.9492 -7621.8384 297.9523 -9376.7876 -7616.5335 299.8414 -249.9224 -148.8231 30790.8385 2.1256 2.0878
ENERGY: 1500000 0.0000 0.0000 0.0000 0.0000 -10764.7771 1395.5978 0.0000 0.0000 1715.1505 -7654.0288 291.1953 -9369.1793 -7649.0669 300.1814 -455.7189 -355.6455 30693.1285 2.8302 2.6281
ENERGY: 1700000 0.0000 0.0000 0.0000 0.0000 -10906.8372 1457.2191 0.0000 0.0000 1757.3358 -7692.2823 298.3575 -9449.6181 -7686.5951 300.0079 -121.2510 -37.6688 30667.3176 2.3309 2.5833
ENERGY: 1900000 0.0000 0.0000 0.0000 0.0000 -10932.4746 1491.9644 0.0000 0.0000 1744.3601 -7696.1501 296.1545 -9440.5102 -7691.7361 300.2483 191.2940 256.2105 30622.9530 3.4252 3.3275
TCL: Exiting due to exit command.
