Info: SIMULATION PARAMETERS:
Info: TIMESTEP               2
Info: NUMBER OF STEPS        0
Info: STEPS PER CYCLE        10
Info: PERIODIC CELL BASIS 1  72.8691 0 0
Info: PERIODIC CELL BASIS 2  0 72.8691 0
Info: PERIODIC CELL BASIS 3  0 0 72.8691
Info: PERIODIC CELL CENTER   39.836 39.836 39.836
Info: WRAPPING ALL CLUSTERS AROUND PERIODIC BOUNDARIES ON OUTPUT.
Info: FIRST LDB TIMESTEP     50
Info: LAST LDB TIMESTEP     -1
Info: HOM BACKGROUND SCALING 1
Info: PME BACKGROUND SCALING 1
Info: MIN ATOMS PER PATCH    40
Info: EMPTY PATCH LOAD       40 ATOMS
Info: VELOCITY FILE          mobley_8311303_equilibrated.vel
Info: CENTER OF MASS MOVING INITIALLY? NO
Info: DIELECTRIC             1
Info: EXCLUDE                SCALED ONE-FOUR
Info: 1-4 ELECTROSTATICS SCALED BY 1
Info: MODIFIED 1-4 VDW PARAMETERS WILL BE USED
Info: DCD FILENAME           mobley_8311303_backwards.dcd
Info: DCD FREQUENCY          500
Info: DCD FIRST STEP         500
Info: DCD FILE WILL CONTAIN UNIT CELL DATA
Info: NO EXTENDED SYSTEM TRAJECTORY OUTPUT
Info: NO VELOCITY DCD OUTPUT
Info: NO FORCE DCD OUTPUT
Info: OUTPUT FILENAME        mobley_8311303_backwards
Info: BINARY OUTPUT FILES WILL BE USED
Info: NO RESTART FILE
Info: SWITCHING ACTIVE
Info: SWITCHING ON           10
Info: SWITCHING OFF          12
Info: PAIRLIST DISTANCE      14
Info: PAIRLIST SHRINK RATE   0.01
Info: PAIRLIST GROW RATE     0.01
Info: PAIRLIST TRIGGER       0.3
Info: PAIRLISTS PER CYCLE    2
Info: PAIRLISTS ENABLED
Info: MARGIN                 8
Info: HYDROGEN GROUP CUTOFF  2.5
Info: PATCH DIMENSION        24.5
Info: ENERGY OUTPUT STEPS    500
Info: ENERGY EVALUATION STEPS    500
Info: OUTPUT ENERGY PRECISION 4
Info: CROSSTERM ENERGY INCLUDED IN DIHEDRAL
Info: TIMING OUTPUT STEPS    500
Info: PRESSURE OUTPUT STEPS  500
Info: ALCHEMICAL FEP ON
Info: FEP CURRENT LAMBDA VALUE     1
Info: FEP COMPARISON LAMBDA VALUE  0.9375
Info: FEP INTRA-ALCHEMICAL NON-BONDED INTERACTIONS WILL BE DECOUPLED
Info: FEP INTRA-ALCHEMICAL BONDED INTERACTIONS WILL BE RETAINED
Info: FEP VDW SHIFTING COEFFICIENT 6
Info: FEP ELEC. ACTIVE FOR ANNIHILATED PARTICLES BETWEEN LAMBDA = 0 AND LAMBDA = 0.5
Info: FEP ELEC. ACTIVE FOR EXNIHILATED PARTICLES BETWEEN LAMBDA = 0.5 AND LAMBDA = 1
Info: FEP VDW ACTIVE FOR ANNIHILATED PARTICLES BETWEEN LAMBDA = 0 AND LAMBDA = 1
Info: FEP VDW ACTIVE FOR EXNIHILATED PARTICLES BETWEEN LAMBDA = 0 AND LAMBDA = 1
Info: FEP BOND ACTIVE FOR ANNIHILATED PARTICLES BETWEEN LAMBDA = 1 AND LAMBDA = 1
Info: FEP BOND ACTIVE FOR EXNIHILATED PARTICLES BETWEEN LAMBDA = 0 AND LAMBDA = 0
Info: LANGEVIN DYNAMICS ACTIVE
Info: LANGEVIN TEMPERATURE   298
Info: LANGEVIN USING BBK INTEGRATOR
Info: LANGEVIN DAMPING COEFFICIENT IS 1 INVERSE PS
Info: LANGEVIN DYNAMICS NOT APPLIED TO HYDROGENS
Info: LANGEVIN PISTON PRESSURE CONTROL ACTIVE
Info:        TARGET PRESSURE IS 1.01325 BAR
Info:     OSCILLATION PERIOD IS 100 FS
Info:             DECAY TIME IS 50 FS
Info:     PISTON TEMPERATURE IS 298 K
Info:       PRESSURE CONTROL IS GROUP-BASED
Info:    INITIAL STRAIN RATE IS -0.00012002 -0.00012002 -0.00012002
Info:       CELL FLUCTUATION IS ISOTROPIC
Info: PARTICLE MESH EWALD (PME) ACTIVE
Info: PME TOLERANCE               1e-05
Info: PME EWALD COEFFICIENT       0.226635
Info: PME INTERPOLATION ORDER     4
Info: PME GRID DIMENSIONS         80 80 80
Info: PME MAXIMUM GRID SPACING    1
Info: FULL ELECTROSTATIC EVALUATION FREQUENCY      1
Info: USING VERLET I (r-RESPA) MTS SCHEME.
Info: C1 SPLITTING OF LONG RANGE ELECTROSTATICS
Info: PLACING ATOMS IN PATCHES BY HYDROGEN GROUPS
Info: RIGID BONDS TO HYDROGEN : ALL
Info:         ERROR TOLERANCE : 1e-08
Info:          MAX ITERATIONS : 100
Info: RIGID WATER USING SETTLE ALGORITHM
Info: RANDOM NUMBER SEED     1740651502
Info: USE HYDROGEN BONDS?    NO
Info: COORDINATE PDB         mobley_8311303.pdb
Info: STRUCTURE FILE         mobley_8311303.psf
Info: PARAMETER file: CHARMM format!
Info: PARAMETERS             ../common/par_all27_prot_lipid.inp
Info: PARAMETERS             mobley_8311303.prm
Info: USING ARITHMETIC MEAN TO COMBINE L-J SIGMA PARAMETERS
Info: BINARY COORDINATES     mobley_8311303_equilibrated.coor
Info: SUMMARY OF PARAMETERS:
Info: 185 BONDS
Info: 455 ANGLES
Info: 582 DIHEDRAL
Info: 51 IMPROPER
Info: 6 CROSSTERM
Info: 123 VDW
Info: 0 VDW_PAIRS
Info: 0 NBTHOLE_PAIRS
Info: To read alchdata from file: mobley_8311303.pdb
Info: To read alchflag data from column: 5
Info: STRUCTURE SUMMARY:
Info: 6358 ATOMS
Info: 4247 BONDS
Info: 2148 ANGLES
Info: 52 DIHEDRALS
Info: 12 IMPROPERS
Info: 0 CROSSTERMS
Info: 0 EXCLUSIONS
Info: 6340 RIGID BONDS
Info: ALCH: 0 ATOMS TO DISAPPEAR IN FINAL STATE
Info: ALCH: 22 ATOMS TO APPEAR IN FINAL STATE
Info: 12734 DEGREES OF FREEDOM
Info: 2130 HYDROGEN GROUPS
Info: 3 ATOMS IN LARGEST HYDROGEN GROUP
Info: 2130 MIGRATION GROUPS
Info: 3 ATOMS IN LARGEST MIGRATION GROUP
Info: TOTAL MASS = 38409.4 amu
Info: TOTAL CHARGE = 4.65661e-09 e
Info: MASS DENSITY = 0.164841 g/cm^3
Info: ATOM DENSITY = 0.016432 atoms/A^3
Info: ADDED 6441 IMPLICIT EXCLUSIONS
Info: NONBONDED TABLE R-SQUARED SPACING: 0.0625
Info: NONBONDED TABLE SIZE: 769 POINTS
Info: REMOVING COM VELOCITY 0.0386276 -0.12513 0.0263023
TCL: Running for 5000 steps
ETITLE: TS BOND ANGLE DIHED IMPRP ELECT VDW BOUNDARY MISC KINETIC TOTAL TEMP POTENTIAL TOTAL3 TEMPAVG PRESSURE GPRESSURE VOLUME PRESSAVG GPRESSAVG
ENERGY: 0 6.9740 5.9938 11.8217 0.3227 -21837.3397 2300.2144 0.0000 0.0000 3704.2560 -15807.7571 292.7700 -19512.0131 -15800.5593 292.7700 2.5005 2.5005 386928.8100 2.5005 2.5005
ENERGY: 1000 5.5714 3.3816 8.4480 0.2577 -22167.2980 2426.1789 0.0000 0.0000 3822.1587 -15901.3017 302.0885 -19723.4603 -15893.6723 299.5078 90.3665 92.1424 364797.7776 0.7227 0.7518
ENERGY: 2000 4.6957 6.0591 14.2550 0.6683 -21998.6334 2336.0856 0.0000 0.0000 3707.8703 -15928.9992 293.0556 -19636.8696 -15921.5148 295.8501 40.0518 39.6099 354027.4550 -0.8514 -0.8359
ENERGY: 3000 8.7558 5.1257 10.5123 0.4830 -21933.8552 2307.3345 0.0000 0.0000 3704.2027 -15897.4412 292.7658 -19601.6440 -15890.6997 295.6346 14.4905 13.7903 354017.0242 -0.7227 -0.6723
ENERGY: 4000 10.4315 5.0197 13.2041 0.2169 -21946.5334 2251.7192 0.0000 0.0000 3843.5266 -15822.4154 303.7774 -19665.9421 -15815.5951 297.8634 -57.1752 -56.4997 359334.3799 -1.8011 -1.8009
ENERGY: 5000 8.8233 7.9558 9.9790 0.3191 -22029.4795 2349.4653 0.0000 0.0000 3701.4108 -15951.5262 292.5451 -19652.9370 -15945.8109 298.1552 38.0058 35.9059 364845.1118 0.1585 0.1610
TCL: Running FEP window   2: Lambda1 0.9375 Lambda2 0.875  [dLambda -0.0625]
TCL: Setting parameter firsttimestep to 0
TCL: Setting parameter alchLambda to 0.9375
Info: NONBONDED TABLE R-SQUARED SPACING: 0.0625
Info: NONBONDED TABLE SIZE: 769 POINTS
TCL: Setting parameter alchLambda2 to 0.875
Info: NONBONDED TABLE R-SQUARED SPACING: 0.0625
Info: NONBONDED TABLE SIZE: 769 POINTS
TCL: Running for 5000 steps
ETITLE: TS BOND ANGLE DIHED IMPRP ELECT VDW BOUNDARY MISC KINETIC TOTAL TEMP POTENTIAL TOTAL3 TEMPAVG PRESSURE GPRESSURE VOLUME PRESSAVG GPRESSAVG
ENERGY: 0 8.8233 7.9558 9.9790 0.3191 -22029.0913 2346.0396 0.0000 0.0000 3701.2953 -15954.6791 292.5360 -19655.9744 -15947.7134 292.5360 29.3134 29.3134 364845.1118 29.3134 29.3134
ENERGY: 1000 6.2464 4.4618 12.6075 0.5276 -22056.7455 2346.8538 0.0000 0.0000 3760.4902 -15925.5582 297.2145 -19686.0485 -15916.8692 297.0887 51.2055 50.3563 355618.4289 1.8904 1.8986
ENERGY: 2000 5.0912 7.0914 14.6059 0.3630 -22112.8206 2388.4511 0.0000 0.0000 3790.7264 -15906.4916 299.6043 -19697.2180 -15900.4804 295.7734 46.0496 44.8309 362824.3035 0.1284 0.1519
ENERGY: 3000 7.8991 5.2677 7.6661 0.2596 -22118.1627 2310.4462 0.0000 0.0000 3730.5558 -16056.0682 294.8486 -19786.6240 -16048.3091 294.7800 -29.7481 -29.2824 340021.2149 1.3922 1.3474
ENERGY: 4000 3.4654 3.7092 11.7584 0.4788 -22203.6976 2370.9098 0.0000 0.0000 3779.2129 -16034.1631 298.6943 -19813.3759 -16025.7851 294.8246 62.2284 62.0061 340175.5728 5.4255 5.4219
ENERGY: 5000 6.1133 4.2674 8.3872 0.3247 -22034.6529 2280.5500 0.0000 0.0000 3740.5916 -15994.4189 295.6418 -19735.0105 -15987.1470 295.1932 -53.4934 -52.7769 351716.0305 -1.3667 -1.3793
TCL: Running FEP window   3: Lambda1 0.875  Lambda2 0.8125 [dLambda -0.0625]
TCL: Setting parameter firsttimestep to 0
TCL: Setting parameter alchLambda to 0.875
Info: NONBONDED TABLE R-SQUARED SPACING: 0.0625
Info: NONBONDED TABLE SIZE: 769 POINTS
TCL: Setting parameter alchLambda2 to 0.8125
Info: NONBONDED TABLE R-SQUARED SPACING: 0.0625
Info: NONBONDED TABLE SIZE: 769 POINTS
TCL: Running for 5000 steps
ETITLE: TS BOND ANGLE DIHED IMPRP ELECT VDW BOUNDARY MISC KINETIC TOTAL TEMP POTENTIAL TOTAL3 TEMPAVG PRESSURE GPRESSURE VOLUME PRESSAVG GPRESSAVG
ENERGY: 0 6.1133 4.2674 8.3872 0.3247 -22034.2251 2278.6580 0.0000 0.0000 3740.4762 -15995.9984 295.6327 -19736.4746 -15988.8952 295.6327 -57.7991 -57.7991 351716.0305 -57.7991 -57.7991
ENERGY: 1000 5.0395 4.6239 14.2302 0.7076 -21908.7481 2248.3609 0.0000 0.0000 3707.6058 -15928.1803 293.0347 -19635.7860 -15921.6624 298.1508 -33.5453 -32.2999 360944.4912 1.9797 1.9274
ENERGY: 2000 3.8627 7.8301 13.0462 0.5801 -22129.3595 2357.3867 0.0000 0.0000 3735.2201 -16011.4335 295.2173 -19746.6536 -16003.3216 296.5184 26.7432 26.8930 364496.9292 1.2682 1.2510
ENERGY: 3000 9.4025 7.6358 9.3451 0.3224 -21992.4365 2199.9870 0.0000 0.0000 3760.1238 -16005.6199 297.1855 -19765.7437 -16000.0611 295.5025 -101.8213 -102.8480 371109.7262 0.2149 0.1803
ENERGY: 4000 5.2923 6.1296 9.1068 0.1704 -22096.3225 2311.2038 0.0000 0.0000 3855.8865 -15908.5331 304.7543 -19764.4196 -15901.5504 296.8511 21.8403 21.6167 370664.8264 2.8597 2.8744
ENERGY: 5000 2.8268 4.5663 13.4376 0.5452 -21889.6857 2291.4712 0.0000 0.0000 3738.3797 -15838.4589 295.4670 -19576.8387 -15831.1618 296.8195 -3.0845 -2.8618 380121.3063 1.5405 1.5586
TCL: Running FEP window   4: Lambda1 0.8125 Lambda2 0.75   [dLambda -0.0625]
TCL: Setting parameter firsttimestep to 0
TCL: Setting parameter alchLambda to 0.8125
Info: NONBONDED TABLE R-SQUARED SPACING: 0.0625
Info: NONBONDED TABLE SIZE: 769 POINTS
TCL: Setting parameter alchLambda2 to 0.75
Info: NONBONDED TABLE R-SQUARED SPACING: 0.0625
Info: NONBONDED TABLE SIZE: 769 POINTS
TCL: Running for 5000 steps
ETITLE: TS BOND ANGLE DIHED IMPRP ELECT VDW BOUNDARY MISC KINETIC TOTAL TEMP POTENTIAL TOTAL3 TEMPAVG PRESSURE GPRESSURE VOLUME PRESSAVG GPRESSAVG
ENERGY: 0 2.8268 4.5663 13.4376 0.5452 -21889.3495 2291.1203 0.0000 0.0000 3738.2662 -15838.5871 295.4580 -19576.8533 -15831.6622 295.4580 -5.9619 -5.9619 380121.3063 -5.9619 -5.9619
ENERGY: 1000 8.3448 8.1773 12.6196 0.5221 -21943.6462 2284.6746 0.0000 0.0000 3802.2940 -15827.0138 300.5185 -19629.3078 -15820.3208 301.3855 -27.8774 -26.7831 390655.0925 2.5809 2.5898
ENERGY: 2000 6.3281 3.5555 12.6993 0.4892 -22002.3620 2315.4524 0.0000 0.0000 3819.0761 -15844.7613 301.8449 -19663.8375 -15833.8356 299.3573 17.0358 16.4759 391917.3503 -2.3164 -2.2784
ENERGY: 3000 3.1206 7.5960 9.1020 0.1334 -22156.5632 2342.1829 0.0000 0.0000 3796.0261 -15998.4021 300.0231 -19794.4283 -15990.9918 298.6718 21.2723 20.6128 390730.1507 4.9648 4.9221
ENERGY: 4000 5.9804 4.2575 11.7288 0.4796 -21942.4371 2185.5853 0.0000 0.0000 3745.8802 -15988.5252 296.0598 -19734.4055 -15980.5335 295.9305 -78.2199 -78.0789 380723.7425 2.7210 2.7324
ENERGY: 5000 4.5758 4.5275 14.0677 0.6543 -22008.8063 2250.1823 0.0000 0.0000 3781.9565 -15952.8421 298.9111 -19734.7987 -15945.1677 295.7330 -64.7368 -62.7591 380282.2111 3.3880 3.4174
TCL: Running FEP window   5: Lambda1 0.75   Lambda2 0.6875 [dLambda -0.0625]
TCL: Setting parameter firsttimestep to 0
TCL: Setting parameter alchLambda to 0.75
Info: NONBONDED TABLE R-SQUARED SPACING: 0.0625
Info: NONBONDED TABLE SIZE: 769 POINTS
TCL: Setting parameter alchLambda2 to 0.6875
Info: NONBONDED TABLE R-SQUARED SPACING: 0.0625
Info: NONBONDED TABLE SIZE: 769 POINTS
TCL: Running for 5000 steps
ETITLE: TS BOND ANGLE DIHED IMPRP ELECT VDW BOUNDARY MISC KINETIC TOTAL TEMP POTENTIAL TOTAL3 TEMPAVG PRESSURE GPRESSURE VOLUME PRESSAVG GPRESSAVG
ENERGY: 0 4.5758 4.5275 14.0677 0.6543 -22008.3844 2250.1032 0.0000 0.0000 3781.8414 -15952.6145 298.9020 -19734.4559 -15946.1964 298.9020 -65.4293 -65.4293 380282.2111 -65.4293 -65.4293
ENERGY: 1000 5.5793 4.9974 11.4552 0.4757 -21972.1958 2304.8619 0.0000 0.0000 3720.2460 -15924.5803 294.0338 -19644.8263 -15917.1426 298.1609 -1.1290 -0.0405 372086.8592 -0.2331 -0.2202
ENERGY: 2000 6.8152 4.3722 9.2464 0.4289 -22027.6450 2413.4211 0.0000 0.0000 3765.5203 -15827.8408 297.6121 -19593.3611 -15820.8513 298.6205 106.4244 107.6948 360319.8031 1.6787 1.7124
ENERGY: 3000 3.7877 4.4519 10.8508 0.5386 -22051.1477 2410.6573 0.0000 0.0000 3826.7722 -15794.0892 302.4532 -19620.8614 -15786.3246 299.4696 47.0610 47.2370 368761.7498 -1.9679 -1.9881
ENERGY: 4000 6.4470 3.1229 9.7458 0.5701 -21861.2532 2243.5539 0.0000 0.0000 3776.8691 -15820.9445 298.5090 -19597.8135 -15812.8042 298.0741 -19.5369 -18.7202 376705.3231 0.3527 0.3665
ENERGY: 5000 8.0759 3.5536 8.8247 0.4460 -22018.2077 2346.1997 0.0000 0.0000 3727.3261 -15923.7816 294.5933 -19651.1077 -15917.4834 300.3615 47.5923 48.4663 390964.3222 4.7251 4.7195
TCL: Running FEP window   6: Lambda1 0.6875 Lambda2 0.625  [dLambda -0.0625]
TCL: Setting parameter firsttimestep to 0
TCL: Setting parameter alchLambda to 0.6875
Info: NONBONDED TABLE R-SQUARED SPACING: 0.0625
Info: NONBONDED TABLE SIZE: 769 POINTS
TCL: Setting parameter alchLambda2 to 0.625
Info: NONBONDED TABLE R-SQUARED SPACING: 0.0625
Info: NONBONDED TABLE SIZE: 769 POINTS
TCL: Running for 5000 steps
ETITLE: TS BOND ANGLE DIHED IMPRP ELECT VDW BOUNDARY MISC KINETIC TOTAL TEMP POTENTIAL TOTAL3 TEMPAVG PRESSURE GPRESSURE VOLUME PRESSAVG GPRESSAVG
ENERGY: 0 8.0759 3.5536 8.8247 0.4460 -22017.5210 2346.2436 0.0000 0.0000 3727.2085 -15923.1686 294.5841 -19650.3772 -15916.4165 294.5841 46.1210 46.1210 390964.3222 46.1210 46.1210
ENERGY: 1000 9.4764 8.6746 8.2524 0.4763 -22003.3347 2360.5876 0.0000 0.0000 3725.8692 -15889.9982 294.4782 -19615.8674 -15883.9717 298.2274 -4.8741 -4.7567 408734.7742 2.8158 2.8957
ENERGY: 2000 6.9813 5.8603 10.1774 0.6255 -22005.6414 2230.7964 0.0000 0.0000 3779.2334 -15971.9671 298.6959 -19751.2005 -15963.7149 294.9908 -75.3185 -76.0362 398686.9151 2.2686 2.2315
ENERGY: 3000 4.1766 4.7561 6.7357 0.2482 -21954.4964 2258.5711 0.0000 0.0000 3723.3822 -15956.6265 294.2816 -19680.0087 -15947.0153 297.3246 -19.8421 -19.2280 401187.2841 1.9278 1.8878
ENERGY: 4000 10.4914 5.5593 3.3396 0.1630 -22078.1763 2273.6538 0.0000 0.0000 3784.6267 -16000.3425 299.1222 -19784.9692 -15992.1341 295.1287 -9.4399 -10.2747 385389.6820 2.9653 2.9554
ENERGY: 5000 3.2341 9.4910 7.7203 0.4621 -22018.6300 2301.3776 0.0000 0.0000 3771.2297 -15925.1151 298.0633 -19696.3449 -15916.1816 295.3980 2.7679 3.0670 382252.2124 2.2311 2.2576
TCL: Running FEP window   7: Lambda1 0.625  Lambda2 0.5625 [dLambda -0.0625]
TCL: Setting parameter firsttimestep to 0
TCL: Setting parameter alchLambda to 0.625
Info: NONBONDED TABLE R-SQUARED SPACING: 0.0625
Info: NONBONDED TABLE SIZE: 769 POINTS
TCL: Setting parameter alchLambda2 to 0.5625
Info: NONBONDED TABLE R-SQUARED SPACING: 0.0625
Info: NONBONDED TABLE SIZE: 769 POINTS
TCL: Running for 5000 steps
ETITLE: TS BOND ANGLE DIHED IMPRP ELECT VDW BOUNDARY MISC KINETIC TOTAL TEMP POTENTIAL TOTAL3 TEMPAVG PRESSURE GPRESSURE VOLUME PRESSAVG GPRESSAVG
ENERGY: 0 3.2341 9.4910 7.7203 0.4621 -22018.2489 2300.5283 0.0000 0.0000 3771.1105 -15925.7026 298.0539 -19696.8130 -15917.6617 298.0539 -0.0288 -0.0288 382252.2124 -0.0288 -0.0288
ENERGY: 1000 10.4560 7.2376 9.3215 0.7578 -21924.4450 2207.7297 0.0000 0.0000 3817.0043 -15871.9381 301.6812 -19688.9424 -15863.2847 298.0670 -20.7808 -19.6341 369631.0294 3.3297 3.3348
ENERGY: 2000 3.1754 7.5439 6.8413 0.3110 -22089.1097 2408.3772 0.0000 0.0000 3803.8668 -15858.9940 300.6428 -19662.8608 -15848.7629 300.0199 99.8718 100.8254 369406.0320 3.5688 3.5638
ENERGY: 3000 4.9853 3.5565 11.9644 0.8505 -21861.3849 2192.0112 0.0000 0.0000 3773.3483 -15874.6687 298.2308 -19648.0171 -15866.0489 299.9085 -81.5111 -80.4726 363894.8145 3.1928 3.1466
ENERGY: 4000 4.5069 7.1014 7.1718 0.2849 -21952.2345 2346.5799 0.0000 0.0000 3763.4109 -15823.1787 297.4453 -19586.5896 -15815.5844 300.4022 47.2350 47.5936 357355.6758 1.9017 1.9110
ENERGY: 5000 4.3269 6.3266 9.5813 0.5831 -22089.2349 2389.1220 0.0000 0.0000 3743.6860 -15935.6089 295.8864 -19679.2948 -15927.8915 298.5936 105.1878 106.6151 348214.1717 1.3815 1.2756
TCL: Running FEP window   8: Lambda1 0.5625 Lambda2 0.5    [dLambda -0.0625]
TCL: Setting parameter firsttimestep to 0
TCL: Setting parameter alchLambda to 0.5625
Info: NONBONDED TABLE R-SQUARED SPACING: 0.0625
Info: NONBONDED TABLE SIZE: 769 POINTS
TCL: Setting parameter alchLambda2 to 0.5
Info: NONBONDED TABLE R-SQUARED SPACING: 0.0625
Info: NONBONDED TABLE SIZE: 769 POINTS
TCL: Running for 5000 steps
ETITLE: TS BOND ANGLE DIHED IMPRP ELECT VDW BOUNDARY MISC KINETIC TOTAL TEMP POTENTIAL TOTAL3 TEMPAVG PRESSURE GPRESSURE VOLUME PRESSAVG GPRESSAVG
ENERGY: 0 4.3269 6.3266 9.5813 0.5831 -22089.0027 2389.9438 0.0000 0.0000 3743.5676 -15934.6732 295.8770 -19678.2408 -15926.6001 295.8770 105.1333 105.1333 348214.1717 105.1333 105.1333
ENERGY: 1000 6.4457 4.5742 6.6558 0.3753 -22056.0877 2268.8795 0.0000 0.0000 3672.0540 -16097.1033 290.2248 -19769.1572 -16089.9475 295.0411 -33.9620 -32.3927 338867.0179 1.1843 1.2690
ENERGY: 2000 6.9425 5.5844 7.8831 0.4564 -21969.1845 2272.1594 0.0000 0.0000 3787.5377 -15888.6210 299.3522 -19676.1587 -15881.5436 296.7422 3.2121 6.0700 334963.2176 1.9711 1.9625
ENERGY: 3000 2.7448 8.4280 7.8567 0.5715 -21931.3232 2288.8292 0.0000 0.0000 3722.1836 -15900.7095 294.1869 -19622.8931 -15892.0243 298.2846 16.7527 16.1109 327821.6414 0.6701 0.6651
ENERGY: 4000 3.4136 7.6724 6.5754 0.3255 -21909.2457 2229.8086 0.0000 0.0000 3740.0337 -15921.4164 295.5977 -19661.4501 -15916.8381 295.9166 -31.5325 -32.8200 330150.3768 3.7194 3.6980
ENERGY: 5000 6.8657 6.2304 6.5788 0.2565 -22061.1318 2286.1836 0.0000 0.0000 3830.3077 -15924.7091 302.7326 -19755.0168 -15918.2551 298.8547 25.8865 25.2484 333834.2714 2.5764 2.6153
TCL: Running FEP window   9: Lambda1 0.5    Lambda2 0.4375 [dLambda -0.0625]
TCL: Setting parameter firsttimestep to 0
TCL: Setting parameter alchLambda to 0.5
Info: NONBONDED TABLE R-SQUARED SPACING: 0.0625
Info: NONBONDED TABLE SIZE: 769 POINTS
TCL: Setting parameter alchLambda2 to 0.4375
Info: NONBONDED TABLE R-SQUARED SPACING: 0.0625
Info: NONBONDED TABLE SIZE: 769 POINTS
TCL: Running for 5000 steps
ETITLE: TS BOND ANGLE DIHED IMPRP ELECT VDW BOUNDARY MISC KINETIC TOTAL TEMP POTENTIAL TOTAL3 TEMPAVG PRESSURE GPRESSURE VOLUME PRESSAVG GPRESSAVG
ENERGY: 0 6.8657 6.2304 6.5788 0.2565 -22060.9994 2286.0167 0.0000 0.0000 3830.1904 -15924.8609 302.7233 -19755.0513 -15917.7871 302.7233 23.0702 23.0702 333834.2714 23.0702 23.0702
ENERGY: 1000 5.0627 6.1214 5.3126 0.3181 -22065.2464 2308.8826 0.0000 0.0000 3765.2284 -15974.3207 297.5890 -19739.5491 -15967.9634 295.6259 -63.4487 -62.3098 357811.1685 0.8736 0.9739
ENERGY: 2000 4.7948 5.8305 4.9078 0.4458 -21908.9569 2137.0734 0.0000 0.0000 3834.6969 -15921.2079 303.0795 -19755.9047 -15912.4914 296.6464 -105.5927 -107.0739 351636.2795 -3.2332 -3.2231
ENERGY: 3000 5.0871 3.8417 11.1382 0.6113 -21914.8486 2215.0179 0.0000 0.0000 3700.0430 -15979.1094 292.4370 -19679.1523 -15972.6412 297.9613 -40.5242 -39.9276 346221.1789 1.2443 1.1906
ENERGY: 4000 3.6554 13.7416 3.3912 0.2891 -22082.1921 2320.7736 0.0000 0.0000 3749.4858 -15990.8555 296.3448 -19740.3413 -15983.9656 294.5011 6.7231 7.8660 349968.4587 0.0360 0.0175
ENERGY: 5000 6.8551 4.8134 5.0526 0.2278 -22042.7314 2259.2582 0.0000 0.0000 3738.1481 -16028.3763 295.4487 -19766.5243 -16019.7536 295.7271 -37.0670 -38.9353 352131.6736 2.6953 2.6747
TCL: Running FEP window  10: Lambda1 0.4375 Lambda2 0.375  [dLambda -0.0625]
TCL: Setting parameter firsttimestep to 0
TCL: Setting parameter alchLambda to 0.4375
Info: NONBONDED TABLE R-SQUARED SPACING: 0.0625
Info: NONBONDED TABLE SIZE: 769 POINTS
TCL: Setting parameter alchLambda2 to 0.375
Info: NONBONDED TABLE R-SQUARED SPACING: 0.0625
Info: NONBONDED TABLE SIZE: 769 POINTS
TCL: Running for 5000 steps
ETITLE: TS BOND ANGLE DIHED IMPRP ELECT VDW BOUNDARY MISC KINETIC TOTAL TEMP POTENTIAL TOTAL3 TEMPAVG PRESSURE GPRESSURE VOLUME PRESSAVG GPRESSAVG
ENERGY: 0 6.8551 4.8134 5.0526 0.2278 -22042.7314 2260.5437 0.0000 0.0000 3738.0285 -16027.2102 295.4392 -19765.2388 -16019.6638 295.4392 -39.9302 -39.9302 352131.6736 -39.9302 -39.9302
ENERGY: 1000 8.0340 5.5377 4.0125 0.3720 -21995.0144 2303.1921 0.0000 0.0000 3730.3772 -15943.4890 294.8345 -19673.8662 -15937.9276 295.0651 -13.9377 -14.5383 351408.1673 -2.7192 -2.7452
ENERGY: 2000 4.6726 7.8457 4.5526 0.4046 -22137.9125 2357.5296 0.0000 0.0000 3804.6428 -15958.2645 300.7042 -19762.9073 -15950.1576 297.0317 13.1864 12.7137 348864.9350 2.2370 2.1751
ENERGY: 3000 6.2523 5.7019 8.6029 0.6267 -21980.9681 2263.1077 0.0000 0.0000 3799.4621 -15897.2144 300.2947 -19696.6765 -15890.9861 299.4623 -9.5913 -9.3573 339927.3254 2.7107 2.6915
ENERGY: 4000 9.1726 7.6398 4.3752 0.3142 -21956.0079 2260.1178 0.0000 0.0000 3709.3654 -15965.0229 293.1738 -19674.3883 -15956.5144 295.4627 -8.4251 -9.2513 338136.9615 2.7208 2.7393
ENERGY: 5000 3.4389 6.4113 5.0370 0.4479 -22050.1442 2383.0537 0.0000 0.0000 3685.9096 -15965.8458 291.3199 -19651.7554 -15957.2293 295.6504 73.3514 73.0711 330033.5933 1.3247 1.3700
TCL: Running FEP window  11: Lambda1 0.375  Lambda2 0.3125 [dLambda -0.0625]
TCL: Setting parameter firsttimestep to 0
TCL: Setting parameter alchLambda to 0.375
Info: NONBONDED TABLE R-SQUARED SPACING: 0.0625
Info: NONBONDED TABLE SIZE: 769 POINTS
TCL: Setting parameter alchLambda2 to 0.3125
Info: NONBONDED TABLE R-SQUARED SPACING: 0.0625
Info: NONBONDED TABLE SIZE: 769 POINTS
TCL: Running for 5000 steps
ETITLE: TS BOND ANGLE DIHED IMPRP ELECT VDW BOUNDARY MISC KINETIC TOTAL TEMP POTENTIAL TOTAL3 TEMPAVG PRESSURE GPRESSURE VOLUME PRESSAVG GPRESSAVG
ENERGY: 0 3.4389 6.4113 5.0370 0.4479 -22050.1442 2383.5036 0.0000 0.0000 3685.7959 -15965.5096 291.3110 -19651.3056 -15958.7147 291.3110 72.1604 72.1604 330033.5933 72.1604 72.1604
ENERGY: 1000 6.6108 4.5544 4.8423 0.4253 -21940.1077 2216.0318 0.0000 0.0000 3818.2261 -15889.4170 301.7777 -19707.6430 -15879.7948 297.1634 -79.8404 -79.2513 328238.3308 2.3316 2.3054
ENERGY: 2000 4.9726 6.8325 3.0647 0.1695 -22066.6979 2344.7685 0.0000 0.0000 3758.7745 -15948.1156 297.0789 -19706.8901 -15943.4547 296.7490 31.4495 31.0798 324078.2083 4.2266 4.2353
ENERGY: 3000 5.7235 4.8612 4.8405 0.2583 -21777.3414 2201.1936 0.0000 0.0000 3717.6383 -15842.8260 293.8277 -19560.4643 -15836.2110 299.8118 -48.6184 -47.6409 321559.2473 1.1995 1.2174
ENERGY: 4000 6.1798 3.6797 4.5219 0.4059 -22066.0584 2356.8467 0.0000 0.0000 3867.9594 -15826.4650 305.7084 -19694.4244 -15819.3843 299.2852 68.8409 69.1961 312299.1715 -3.3852 -3.3951
ENERGY: 5000 4.8356 4.5205 8.2090 0.6401 -22062.0083 2339.3104 0.0000 0.0000 3869.3231 -15835.1695 305.8162 -19704.4927 -15830.5296 299.0674 19.8311 20.0511 307572.6673 2.1104 2.1307
TCL: Running FEP window  12: Lambda1 0.3125 Lambda2 0.25   [dLambda -0.0625]
TCL: Setting parameter firsttimestep to 0
TCL: Setting parameter alchLambda to 0.3125
Info: NONBONDED TABLE R-SQUARED SPACING: 0.0625
Info: NONBONDED TABLE SIZE: 769 POINTS
TCL: Setting parameter alchLambda2 to 0.25
Info: NONBONDED TABLE R-SQUARED SPACING: 0.0625
Info: NONBONDED TABLE SIZE: 769 POINTS
TCL: Running for 5000 steps
ETITLE: TS BOND ANGLE DIHED IMPRP ELECT VDW BOUNDARY MISC KINETIC TOTAL TEMP POTENTIAL TOTAL3 TEMPAVG PRESSURE GPRESSURE VOLUME PRESSAVG GPRESSAVG
ENERGY: 0 4.8356 4.5205 8.2090 0.6401 -22062.0083 2340.4474 0.0000 0.0000 3869.2085 -15834.1471 305.8072 -19703.3556 -15826.9323 305.8072 18.8111 18.8111 307572.6673 18.8111 18.8111
ENERGY: 1000 7.9053 8.5286 7.0180 0.6312 -21899.3707 2251.8711 0.0000 0.0000 3784.3849 -15839.0316 299.1030 -19623.4165 -15833.4601 297.6187 -15.3343 -15.5982 292132.5419 -0.0057 -0.0317
ENERGY: 2000 5.3616 7.0542 6.5175 0.5739 -21937.0952 2307.7453 0.0000 0.0000 3861.2231 -15748.6197 305.1760 -19609.8428 -15742.1847 300.5878 15.2179 15.8308 287019.9051 4.6212 4.5583
ENERGY: 3000 2.2941 6.3662 8.3730 0.7288 -21989.6996 2279.0566 0.0000 0.0000 3707.0816 -15985.7994 292.9933 -19692.8810 -15977.3607 296.3747 -38.9975 -38.4255 280015.0027 -0.8172 -0.7907
ENERGY: 4000 5.9856 7.3286 7.6093 0.6604 -22167.9759 2382.6360 0.0000 0.0000 3732.0225 -16031.7335 294.9645 -19763.7560 -16027.5440 294.0858 41.2025 41.2371 269133.7679 -2.0223 -1.9368
ENERGY: 5000 7.4490 4.0316 3.0098 0.1894 -22143.0388 2367.8925 0.0000 0.0000 3755.6912 -16004.7752 296.8352 -19760.4665 -15996.5165 294.9165 110.0782 109.6195 260811.9491 -1.0252 -1.0165
TCL: Running FEP window  13: Lambda1 0.25   Lambda2 0.1875 [dLambda -0.0625]
TCL: Setting parameter firsttimestep to 0
TCL: Setting parameter alchLambda to 0.25
Info: NONBONDED TABLE R-SQUARED SPACING: 0.0625
Info: NONBONDED TABLE SIZE: 769 POINTS
TCL: Setting parameter alchLambda2 to 0.1875
Info: NONBONDED TABLE R-SQUARED SPACING: 0.0625
Info: NONBONDED TABLE SIZE: 769 POINTS
TCL: Running for 5000 steps
ETITLE: TS BOND ANGLE DIHED IMPRP ELECT VDW BOUNDARY MISC KINETIC TOTAL TEMP POTENTIAL TOTAL3 TEMPAVG PRESSURE GPRESSURE VOLUME PRESSAVG GPRESSAVG
ENERGY: 0 7.4490 4.0316 3.0098 0.1894 -22143.0388 2368.5018 0.0000 0.0000 3755.5752 -16004.2819 296.8260 -19759.8571 -15997.2610 296.8260 108.7226 108.7226 260811.9491 108.7226 108.7226
ENERGY: 1000 4.1244 5.4085 5.2572 0.2147 -21999.5333 2221.6146 0.0000 0.0000 3699.2860 -16063.6278 292.3772 -19762.9138 -16056.7516 294.6335 -90.4379 -91.4058 261281.6394 -1.3177 -1.3413
ENERGY: 2000 3.4894 5.2120 3.7102 0.2264 -21980.0747 2288.8927 0.0000 0.0000 3750.1168 -15928.4271 296.3946 -19678.5439 -15921.5820 297.0032 -21.6375 -20.2802 257492.9306 3.4913 3.4983
ENERGY: 3000 4.8328 4.3404 4.5821 0.2437 -21979.0792 2340.9371 0.0000 0.0000 3814.8610 -15809.2821 301.5118 -19624.1430 -15801.2644 300.2749 56.1072 56.8702 263444.9275 -2.2212 -2.1860
ENERGY: 4000 6.5442 6.5885 2.6542 0.1694 -22046.3199 2349.3365 0.0000 0.0000 3809.2121 -15871.8150 301.0653 -19681.0271 -15865.4358 300.0050 28.1868 28.8701 267466.6385 5.2771 5.2809
ENERGY: 5000 3.8453 6.1131 6.2026 0.5470 -22063.9364 2305.0998 0.0000 0.0000 3780.1200 -15962.0086 298.7660 -19742.1286 -15955.1637 296.5624 21.8161 21.6423 271648.0241 -1.6069 -1.5513
TCL: Running FEP window  14: Lambda1 0.1875 Lambda2 0.125  [dLambda -0.0625]
TCL: Setting parameter firsttimestep to 0
TCL: Setting parameter alchLambda to 0.1875
Info: NONBONDED TABLE R-SQUARED SPACING: 0.0625
Info: NONBONDED TABLE SIZE: 769 POINTS
TCL: Setting parameter alchLambda2 to 0.125
Info: NONBONDED TABLE R-SQUARED SPACING: 0.0625
Info: NONBONDED TABLE SIZE: 769 POINTS
TCL: Running for 5000 steps
ETITLE: TS BOND ANGLE DIHED IMPRP ELECT VDW BOUNDARY MISC KINETIC TOTAL TEMP POTENTIAL TOTAL3 TEMPAVG PRESSURE GPRESSURE VOLUME PRESSAVG GPRESSAVG
ENERGY: 0 3.8453 6.1131 6.2026 0.5470 -22063.9364 2304.2241 0.0000 0.0000 3780.0021 -15963.0022 298.7566 -19743.0043 -15955.9707 298.7566 19.9056 19.9056 271648.0241 19.9056 19.9056
ENERGY: 1000 3.1684 5.5245 9.7988 0.4577 -21957.5011 2286.3272 0.0000 0.0000 3737.3928 -15914.8318 295.3890 -19652.2245 -15905.9058 297.3296 0.6311 0.5051 281652.4454 -0.6134 -0.7023
ENERGY: 2000 6.7232 6.9206 6.7254 0.5175 -22010.8237 2298.0557 0.0000 0.0000 3870.5819 -15821.2994 305.9157 -19691.8813 -15814.1213 298.5588 -27.0870 -27.0995 284758.6094 4.5133 4.5724
ENERGY: 3000 7.9186 6.9120 7.1606 0.3949 -21763.8715 2189.2567 0.0000 0.0000 3752.5341 -15799.6946 296.5857 -19552.2287 -15791.8305 299.7166 -77.3509 -78.1606 279284.4743 1.1334 1.1448
ENERGY: 4000 7.9646 4.9091 8.3564 0.9254 -22063.8784 2333.1379 0.0000 0.0000 3820.9919 -15887.5932 301.9963 -19708.5850 -15879.3377 299.2188 24.7080 25.3799 273258.8278 -0.4241 -0.4538
ENERGY: 5000 5.0313 6.5567 6.5180 0.6622 -22036.0936 2330.5096 0.0000 0.0000 3833.4766 -15853.3393 302.9831 -19686.8158 -15846.9352 299.3802 33.3484 33.0164 273515.0616 -5.9258 -5.8246
TCL: Running FEP window  15: Lambda1 0.125  Lambda2 0.0625 [dLambda -0.0625]
TCL: Setting parameter firsttimestep to 0
TCL: Setting parameter alchLambda to 0.125
Info: NONBONDED TABLE R-SQUARED SPACING: 0.0625
Info: NONBONDED TABLE SIZE: 769 POINTS
TCL: Setting parameter alchLambda2 to 0.0625
Info: NONBONDED TABLE R-SQUARED SPACING: 0.0625
Info: NONBONDED TABLE SIZE: 769 POINTS
TCL: Running for 5000 steps
ETITLE: TS BOND ANGLE DIHED IMPRP ELECT VDW BOUNDARY MISC KINETIC TOTAL TEMP POTENTIAL TOTAL3 TEMPAVG PRESSURE GPRESSURE VOLUME PRESSAVG GPRESSAVG
ENERGY: 0 5.0313 6.5567 6.5180 0.6622 -22036.0936 2329.9251 0.0000 0.0000 3833.3598 -15854.0406 302.9738 -19687.4003 -15846.9951 302.9738 31.4841 31.4841 273515.0616 31.4841 31.4841
ENERGY: 1000 5.1271 7.4328 4.1289 0.4909 -21916.6499 2208.9530 0.0000 0.0000 3788.4793 -15902.0381 299.4267 -19690.5173 -15895.5528 298.7123 -99.7177 -100.6743 280212.2765 -0.9631 -0.9150
ENERGY: 2000 8.8703 6.1484 5.9442 0.3970 -22012.8881 2292.0675 0.0000 0.0000 3760.1675 -15939.2931 297.1890 -19699.4607 -15930.7217 298.0836 5.6670 7.3212 281858.1567 1.4986 1.4550
ENERGY: 3000 2.9363 4.3155 7.4528 0.3923 -22001.6457 2340.1497 0.0000 0.0000 3782.6291 -15863.7699 298.9643 -19646.3991 -15856.9440 296.4112 37.9702 38.8720 288854.5183 -3.9076 -3.9407
ENERGY: 4000 9.5775 4.4241 6.0650 0.4568 -21987.9485 2325.8746 0.0000 0.0000 3735.9562 -15905.5943 295.2754 -19641.5505 -15899.5611 297.4134 -9.7047 -10.7661 289155.0327 2.6801 2.5976
ENERGY: 5000 4.5715 5.5610 5.7811 0.5697 -22021.2643 2329.8317 0.0000 0.0000 3770.4580 -15904.4914 298.0023 -19674.9493 -15897.9027 296.7805 30.0481 30.1595 284778.5885 -0.3913 -0.4799
TCL: Running FEP window  16: Lambda1 0.0625 Lambda2 0.0    [dLambda -0.0625]
TCL: Setting parameter firsttimestep to 0
TCL: Setting parameter alchLambda to 0.0625
Info: NONBONDED TABLE R-SQUARED SPACING: 0.0625
Info: NONBONDED TABLE SIZE: 769 POINTS
TCL: Setting parameter alchLambda2 to 0.0
Info: NONBONDED TABLE R-SQUARED SPACING: 0.0625
Info: NONBONDED TABLE SIZE: 769 POINTS
TCL: Running for 5000 steps
ETITLE: TS BOND ANGLE DIHED IMPRP ELECT VDW BOUNDARY MISC KINETIC TOTAL TEMP POTENTIAL TOTAL3 TEMPAVG PRESSURE GPRESSURE VOLUME PRESSAVG GPRESSAVG
ENERGY: 0 4.5715 5.5610 5.7811 0.5697 -22021.2643 2328.3482 0.0000 0.0000 3770.3460 -15906.0868 297.9935 -19676.4328 -15899.9449 297.9935 29.0866 29.0866 284778.5885 29.0866 29.0866
ENERGY: 1000 4.7972 3.5128 2.5665 0.2634 -22048.6598 2315.6903 0.0000 0.0000 3842.8724 -15878.9572 303.7257 -19721.8296 -15870.1302 298.0072 61.9240 62.8418 284963.0110 2.8880 2.7933
ENERGY: 2000 5.3133 6.5709 3.3179 0.2773 -22123.7895 2378.3085 0.0000 0.0000 3742.6157 -15987.3859 295.8018 -19730.0016 -15980.7469 296.8162 79.1102 79.8165 296278.5757 1.1701 1.1540
ENERGY: 3000 8.8739 6.3772 3.7601 0.3253 -21957.5070 2291.4150 0.0000 0.0000 3708.5860 -15938.1694 293.1122 -19646.7554 -15930.4702 296.3497 -37.0934 -36.8324 294183.3904 4.2663 4.2513
ENERGY: 4000 8.5202 7.2373 3.3798 0.2335 -22126.3111 2357.9265 0.0000 0.0000 3787.6758 -15961.3381 299.3631 -19749.0139 -15956.3781 297.9100 57.7752 56.1487 289643.4957 1.1233 1.1655
ENERGY: 5000 4.4884 5.6300 5.0773 0.5127 -22173.8834 2455.2941 0.0000 0.0000 3764.1587 -15938.7221 297.5044 -19702.8808 -15930.9669 296.7571 130.4176 129.7867 286274.4800 0.7005 0.6631
