Info: SIMULATION PARAMETERS:
Info: TIMESTEP               2
Info: NUMBER OF STEPS        0
Info: STEPS PER CYCLE        10
Info: PERIODIC CELL BASIS 1  35.01 0 0
Info: PERIODIC CELL BASIS 2  0 35.411 0
Info: PERIODIC CELL BASIS 3  0 0 35.723
Info: PERIODIC CELL CENTER   0 0 0
Info: WRAPPING WATERS AROUND PERIODIC BOUNDARIES ON OUTPUT.
Info: WRAPPING ALL CLUSTERS AROUND PERIODIC BOUNDARIES ON OUTPUT.
Info: FIRST LDB TIMESTEP     50
Info: LAST LDB TIMESTEP     -1
Info: HOM BACKGROUND SCALING 1
Info: PME BACKGROUND SCALING 1
Info: MIN ATOMS PER PATCH    40
Info: EMPTY PATCH LOAD       40 ATOMS
Info: INITIAL TEMPERATURE    300
Info: CENTER OF MASS MOVING INITIALLY? NO
Info: DIELECTRIC             1
Info: EXCLUDE                SCALED ONE-FOUR
Info: 1-4 ELECTROSTATICS SCALED BY 0.833333
Info: MODIFIED 1-4 VDW PARAMETERS WILL BE USED
Info: DCD FILENAME           mobley_1708457_equil.dcd
Info: DCD FREQUENCY          100000
Info: DCD FIRST STEP         100000
Info: DCD FILE WILL CONTAIN UNIT CELL DATA
Info: XST FILENAME           mobley_1708457_equil.xst
Info: XST FREQUENCY          100000
Info: NO VELOCITY DCD OUTPUT
Info: NO FORCE DCD OUTPUT
Info: OUTPUT FILENAME        mobley_1708457_equil
Info: BINARY OUTPUT FILES WILL BE USED
Info: RESTART FILENAME       mobley_1708457_equil.restart
Info: RESTART FREQUENCY      100000
Info: BINARY RESTART FILES WILL BE USED
Info: CUTOFF                 9
Info: PAIRLIST DISTANCE      11
Info: PAIRLIST SHRINK RATE   0.01
Info: PAIRLIST GROW RATE     0.01
Info: PAIRLIST TRIGGER       0.3
Info: PAIRLISTS PER CYCLE    2
Info: PAIRLISTS ENABLED
Info: MARGIN                 8
Info: HYDROGEN GROUP CUTOFF  2.5
Info: PATCH DIMENSION        21.5
Info: ENERGY OUTPUT STEPS    100000
Info: ENERGY EVALUATION STEPS    100000
Info: OUTPUT ENERGY PRECISION 4
Info: CROSSTERM ENERGY INCLUDED IN DIHEDRAL
Info: TIMING OUTPUT STEPS    1000000
Info: PRESSURE OUTPUT STEPS  100000
Info: LANGEVIN DYNAMICS ACTIVE
Info: LANGEVIN TEMPERATURE   30
Info: LANGEVIN USING BBK INTEGRATOR
Info: LANGEVIN DAMPING COEFFICIENT IS 1 INVERSE PS
Info: LANGEVIN DYNAMICS APPLIED TO HYDROGENS
Info: LANGEVIN PISTON PRESSURE CONTROL ACTIVE
Info:        TARGET PRESSURE IS 1.01325 BAR
Info:     OSCILLATION PERIOD IS 50 FS
Info:             DECAY TIME IS 25 FS
Info:     PISTON TEMPERATURE IS 300 K
Info:       PRESSURE CONTROL IS GROUP-BASED
Info:    INITIAL STRAIN RATE IS 0 0 0
Info:       CELL FLUCTUATION IS ISOTROPIC
Info: PARTICLE MESH EWALD (PME) ACTIVE
Info: PME TOLERANCE               1e-06
Info: PME EWALD COEFFICIENT       0.348832
Info: PME INTERPOLATION ORDER     4
Info: PME GRID DIMENSIONS         36 36 36
Info: PME MAXIMUM GRID SPACING    1
Info: FULL ELECTROSTATIC EVALUATION FREQUENCY      2
Info: USING VERLET I (r-RESPA) MTS SCHEME.
Info: C1 SPLITTING OF LONG RANGE ELECTROSTATICS
Info: PLACING ATOMS IN PATCHES BY HYDROGEN GROUPS
Info: RIGID BONDS TO HYDROGEN : ALL
Info:         ERROR TOLERANCE : 1e-08
Info:          MAX ITERATIONS : 100
Info: RIGID WATER USING SETTLE ALGORITHM
Info: RANDOM NUMBER SEED     1742475314
Info: USE HYDROGEN BONDS?    NO
Info: Using AMBER format force field!
Info: AMBER PARM FILE        mobley_1708457.prmtop
Info: COORDINATE PDB         mobley_1708457.pdb
Info: Exclusions will be read from PARM file!
Info: SCNB (VDW SCALING)     2
Info: USING ARITHMETIC MEAN TO COMBINE L-J SIGMA PARAMETERS
Info: BINARY COORDINATES     mobley_1708457_min.coor
Info: SUMMARY OF PARAMETERS:
Info: 5 BONDS
Info: 5 ANGLES
Info:   5 HARMONIC
Info:   0 COSINE-BASED
Info: 2 DIHEDRAL
Info: 0 IMPROPER
Info: 0 CROSSTERM
Info: 0 VDW
Info: 21 VDW_PAIRS
Info: 0 NBTHOLE_PAIRS
Info: STRUCTURE SUMMARY:
Info: 2987 ATOMS
Info: 2986 BONDS
Info: 18 ANGLES
Info: 18 DIHEDRALS
Info: 0 IMPROPERS
Info: 0 CROSSTERMS
Info: 3022 EXCLUSIONS
Info: 2982 RIGID BONDS
Info: 5979 DEGREES OF FREEDOM
Info: 997 HYDROGEN GROUPS
Info: 4 ATOMS IN LARGEST HYDROGEN GROUP
Info: 997 MIGRATION GROUPS
Info: 4 ATOMS IN LARGEST MIGRATION GROUP
Info: TOTAL MASS = 17966 amu
Info: TOTAL CHARGE = -0.000100002 e
Info: MASS DENSITY = 0.673647 g/cm^3
Info: ATOM DENSITY = 0.0674461 atoms/A^3
Info: ADDED 0 IMPLICIT EXCLUSIONS
Info: NONBONDED TABLE R-SQUARED SPACING: 0.0625
Info: NONBONDED TABLE SIZE: 705 POINTS
Info: REMOVING COM VELOCITY -0.15521 0.0765869 -0.127315
TCL: Running for 100000 steps
ETITLE: TS BOND ANGLE DIHED IMPRP ELECT VDW BOUNDARY MISC KINETIC TOTAL TEMP POTENTIAL TOTAL3 TEMPAVG PRESSURE GPRESSURE VOLUME PRESSAVG GPRESSAVG
ENERGY: 0 0.5817 0.6884 0.1503 0.0000 -13949.2742 2461.1371 0.0000 0.0000 1791.5266 -9695.1901 301.5679 -11486.7166 -9694.8211 301.5679 577.7935 615.5295 44287.2002 577.7935 615.5295
ENERGY: 100000 0.5246 1.1151 0.1736 0.0000 -14563.5538 2498.2314 0.0000 0.0000 174.7627 -11888.7465 29.4178 -12063.5091 -11888.1481 30.9249 -97.2472 -11.1610 28611.6010 2.3614 2.3260
TCL: Running 100000 steps at 60 kelvin.
TCL: Setting parameter langevinTemp to 60
TCL: Running for 100000 steps
ETITLE: TS BOND ANGLE DIHED IMPRP ELECT VDW BOUNDARY MISC KINETIC TOTAL TEMP POTENTIAL TOTAL3 TEMPAVG PRESSURE GPRESSURE VOLUME PRESSAVG GPRESSAVG
ENERGY: 100000 0.5246 1.1151 0.1736 0.0000 -14563.5538 2498.2314 0.0000 0.0000 174.6706 -11888.8385 29.4023 -12063.5091 -11888.4649 29.4023 -85.4814 -11.1744 28611.6010 -85.4814 -11.1744
ENERGY: 200000 1.3568 1.4599 0.1844 0.0000 -14413.7974 2459.0945 0.0000 0.0000 353.4064 -11598.2954 59.4889 -11951.7018 -11597.1863 59.8084 49.0844 104.4373 28676.9385 4.0830 4.0709
TCL: Running 100000 steps at 90 kelvin.
TCL: Setting parameter langevinTemp to 90
TCL: Running for 100000 steps
ETITLE: TS BOND ANGLE DIHED IMPRP ELECT VDW BOUNDARY MISC KINETIC TOTAL TEMP POTENTIAL TOTAL3 TEMPAVG PRESSURE GPRESSURE VOLUME PRESSAVG GPRESSAVG
ENERGY: 200000 1.3568 1.4599 0.1844 0.0000 -14413.7974 2459.0945 0.0000 0.0000 353.2270 -11598.4748 59.4587 -11951.7018 -11597.9245 59.4587 36.4056 104.9687 28676.9385 36.4056 104.9687
ENERGY: 300000 1.0063 1.9010 0.0994 0.0000 -14347.2808 2503.5299 0.0000 0.0000 545.2699 -11295.4743 91.7854 -11840.7442 -11294.3940 90.0190 632.0355 694.0834 28898.9840 4.7657 4.7414
TCL: Running 100000 steps at 120 kelvin.
TCL: Setting parameter langevinTemp to 120
TCL: Running for 100000 steps
ETITLE: TS BOND ANGLE DIHED IMPRP ELECT VDW BOUNDARY MISC KINETIC TOTAL TEMP POTENTIAL TOTAL3 TEMPAVG PRESSURE GPRESSURE VOLUME PRESSAVG GPRESSAVG
ENERGY: 300000 1.0063 1.9010 0.0994 0.0000 -14347.2808 2503.5299 0.0000 0.0000 545.0092 -11295.7350 91.7415 -11840.7442 -11294.6052 91.7415 640.6728 693.2995 28898.9840 640.6728 693.2995
ENERGY: 400000 2.2467 1.5366 0.1407 0.0000 -14098.2009 2368.5349 0.0000 0.0000 709.1063 -11016.6356 119.3640 -11725.7420 -11014.8860 119.7519 -58.1018 -9.6278 29069.4665 2.6294 2.5334
TCL: Running 100000 steps at 150 kelvin.
TCL: Setting parameter langevinTemp to 150
TCL: Running for 100000 steps
ETITLE: TS BOND ANGLE DIHED IMPRP ELECT VDW BOUNDARY MISC KINETIC TOTAL TEMP POTENTIAL TOTAL3 TEMPAVG PRESSURE GPRESSURE VOLUME PRESSAVG GPRESSAVG
ENERGY: 400000 2.2467 1.5366 0.1407 0.0000 -14098.2009 2368.5349 0.0000 0.0000 708.7603 -11016.9817 119.3057 -11725.7420 -11015.6939 119.3057 -55.5425 -9.6798 29069.4665 -55.5425 -9.6798
ENERGY: 500000 0.6302 3.1210 0.5280 0.0000 -13751.2707 2222.9785 0.0000 0.0000 898.2391 -10625.7739 151.2007 -11524.0131 -10624.6848 149.8062 -517.5753 -436.0020 29198.8345 4.7805 4.7341
TCL: Running 100000 steps at 180 kelvin.
TCL: Setting parameter langevinTemp to 180
TCL: Running for 100000 steps
ETITLE: TS BOND ANGLE DIHED IMPRP ELECT VDW BOUNDARY MISC KINETIC TOTAL TEMP POTENTIAL TOTAL3 TEMPAVG PRESSURE GPRESSURE VOLUME PRESSAVG GPRESSAVG
ENERGY: 500000 0.6302 3.1210 0.5280 0.0000 -13751.2707 2222.9785 0.0000 0.0000 897.8117 -10626.2014 151.1287 -11524.0131 -10623.8976 151.1287 -490.5923 -437.8937 29198.8345 -490.5923 -437.8937
ENERGY: 600000 1.4903 3.0566 1.8724 0.0000 -13226.4223 2047.0291 0.0000 0.0000 1077.0005 -10095.9734 181.2916 -11172.9739 -10092.1487 179.9592 -996.2631 -919.5763 30057.4271 2.4255 2.5451
TCL: Running 100000 steps at 210 kelvin.
TCL: Setting parameter langevinTemp to 210
TCL: Running for 100000 steps
ETITLE: TS BOND ANGLE DIHED IMPRP ELECT VDW BOUNDARY MISC KINETIC TOTAL TEMP POTENTIAL TOTAL3 TEMPAVG PRESSURE GPRESSURE VOLUME PRESSAVG GPRESSAVG
ENERGY: 600000 1.4903 3.0566 1.8724 0.0000 -13226.4223 2047.0291 0.0000 0.0000 1076.4670 -10096.5068 181.2018 -11172.9739 -10094.2234 181.2018 -981.9630 -919.9636 30057.4271 -981.9630 -919.9636
ENERGY: 700000 1.4607 4.0642 0.8574 0.0000 -12701.6900 1931.5685 0.0000 0.0000 1259.4557 -9504.2836 212.0043 -10763.7393 -9501.6225 210.1440 156.9939 228.8889 29122.8740 4.3673 4.4007
TCL: Running 100000 steps at 240 kelvin.
TCL: Setting parameter langevinTemp to 240
TCL: Running for 100000 steps
ETITLE: TS BOND ANGLE DIHED IMPRP ELECT VDW BOUNDARY MISC KINETIC TOTAL TEMP POTENTIAL TOTAL3 TEMPAVG PRESSURE GPRESSURE VOLUME PRESSAVG GPRESSAVG
ENERGY: 700000 1.4607 4.0642 0.8574 0.0000 -12701.6900 1931.5685 0.0000 0.0000 1258.8432 -9504.8961 211.9012 -10763.7393 -9503.1484 211.9012 158.9618 228.5782 29122.8740 158.9618 228.5782
ENERGY: 800000 0.2750 2.9136 0.4391 0.0000 -12080.0600 1765.5898 0.0000 0.0000 1434.9142 -8875.9284 241.5393 -10310.8426 -8872.3995 239.9763 151.1095 222.5209 29136.2073 4.4660 4.4633
TCL: Running 100000 steps at 270 kelvin.
TCL: Setting parameter langevinTemp to 270
TCL: Running for 100000 steps
ETITLE: TS BOND ANGLE DIHED IMPRP ELECT VDW BOUNDARY MISC KINETIC TOTAL TEMP POTENTIAL TOTAL3 TEMPAVG PRESSURE GPRESSURE VOLUME PRESSAVG GPRESSAVG
ENERGY: 800000 0.2750 2.9136 0.4391 0.0000 -12080.0600 1765.5898 0.0000 0.0000 1434.2003 -8876.6423 241.4191 -10310.8426 -8874.0142 241.4191 149.6899 223.1215 29136.2073 149.6899 223.1215
ENERGY: 900000 2.1005 2.9178 0.2175 0.0000 -11439.3184 1570.1713 0.0000 0.0000 1590.2280 -8273.6833 267.6833 -9863.9114 -8271.7356 270.3516 -215.7840 -155.9782 30227.4954 4.0069 3.9517
TCL: Running 1000000 steps at 300 kelvin.
TCL: Setting parameter langevinTemp to 300
TCL: Running for 1000000 steps
ETITLE: TS BOND ANGLE DIHED IMPRP ELECT VDW BOUNDARY MISC KINETIC TOTAL TEMP POTENTIAL TOTAL3 TEMPAVG PRESSURE GPRESSURE VOLUME PRESSAVG GPRESSAVG
ENERGY: 900000 2.1005 2.9178 0.2175 0.0000 -11439.3184 1570.1713 0.0000 0.0000 1589.4271 -8274.4843 267.5485 -9863.9114 -8271.8458 267.5485 -230.5938 -154.9948 30227.4954 -230.5938 -154.9948
ENERGY: 1100000 2.8706 4.0278 1.0409 0.0000 -10824.5268 1371.3151 0.0000 0.0000 1802.5291 -7642.7434 303.4199 -9445.2724 -7641.8399 300.3374 -803.6342 -704.4869 31190.6186 4.1408 3.9928
ENERGY: 1300000 0.5410 3.6424 1.4409 0.0000 -10768.2291 1360.8255 0.0000 0.0000 1788.4636 -7613.3156 301.0523 -9401.7792 -7612.2790 299.5292 -572.7441 -543.9036 30959.5351 1.6628 1.6530
ENERGY: 1500000 1.5577 3.9478 0.4210 0.0000 -10882.1439 1428.3505 0.0000 0.0000 1673.7529 -7774.1141 281.7430 -9447.8670 -7768.7524 300.3109 -134.1729 -66.4802 30645.7642 4.3118 4.2479
ENERGY: 1700000 0.7313 4.3225 0.2159 0.0000 -10914.3211 1443.7860 0.0000 0.0000 1767.4899 -7697.7754 297.5218 -9465.2653 -7692.7361 300.2208 -182.0912 -101.1679 30937.5186 3.1128 3.1503
ENERGY: 1900000 3.1228 4.0398 0.4075 0.0000 -10910.8690 1468.8781 0.0000 0.0000 1793.7296 -7640.6912 301.9387 -9434.4208 -7635.2704 300.6710 395.6777 524.2330 30613.3874 1.7282 1.8885
TCL: Exiting due to exit command.
