Info: SIMULATION PARAMETERS:
Info: TIMESTEP               2
Info: NUMBER OF STEPS        0
Info: STEPS PER CYCLE        10
Info: PERIODIC CELL BASIS 1  39.546 0 0
Info: PERIODIC CELL BASIS 2  0 41.628 0
Info: PERIODIC CELL BASIS 3  0 0 38.617
Info: PERIODIC CELL CENTER   0 0 0
Info: WRAPPING WATERS AROUND PERIODIC BOUNDARIES ON OUTPUT.
Info: WRAPPING ALL CLUSTERS AROUND PERIODIC BOUNDARIES ON OUTPUT.
Info: FIRST LDB TIMESTEP     50
Info: LAST LDB TIMESTEP     -1
Info: HOM BACKGROUND SCALING 1
Info: PME BACKGROUND SCALING 1
Info: MIN ATOMS PER PATCH    40
Info: EMPTY PATCH LOAD       40 ATOMS
Info: INITIAL TEMPERATURE    300
Info: CENTER OF MASS MOVING INITIALLY? NO
Info: DIELECTRIC             1
Info: EXCLUDE                SCALED ONE-FOUR
Info: 1-4 ELECTROSTATICS SCALED BY 0.833333
Info: MODIFIED 1-4 VDW PARAMETERS WILL BE USED
Info: DCD FILENAME           mobley_8966374_min.dcd
Info: DCD FREQUENCY          5000
Info: DCD FIRST STEP         5000
Info: DCD FILE WILL CONTAIN UNIT CELL DATA
Info: XST FILENAME           mobley_8966374_min.xst
Info: XST FREQUENCY          5000
Info: NO VELOCITY DCD OUTPUT
Info: NO FORCE DCD OUTPUT
Info: OUTPUT FILENAME        mobley_8966374_min
Info: BINARY OUTPUT FILES WILL BE USED
Info: RESTART FILENAME       mobley_8966374_min.restart
Info: RESTART FREQUENCY      5000
Info: BINARY RESTART FILES WILL BE USED
Info: CUTOFF                 9
Info: PAIRLIST DISTANCE      11
Info: PAIRLIST SHRINK RATE   0.01
Info: PAIRLIST GROW RATE     0.01
Info: PAIRLIST TRIGGER       0.3
Info: PAIRLISTS PER CYCLE    2
Info: PAIRLISTS ENABLED
Info: MARGIN                 8
Info: HYDROGEN GROUP CUTOFF  2.5
Info: PATCH DIMENSION        21.5
Info: ENERGY OUTPUT STEPS    5000
Info: ENERGY EVALUATION STEPS    5000
Info: OUTPUT ENERGY PRECISION 4
Info: CROSSTERM ENERGY INCLUDED IN DIHEDRAL
Info: TIMING OUTPUT STEPS    50000
Info: PRESSURE OUTPUT STEPS  5000
Info: LANGEVIN DYNAMICS ACTIVE
Info: LANGEVIN TEMPERATURE   300
Info: LANGEVIN USING BBK INTEGRATOR
Info: LANGEVIN DAMPING COEFFICIENT IS 1 INVERSE PS
Info: LANGEVIN DYNAMICS APPLIED TO HYDROGENS
Info: LANGEVIN PISTON PRESSURE CONTROL ACTIVE
Info:        TARGET PRESSURE IS 1.01325 BAR
Info:     OSCILLATION PERIOD IS 50 FS
Info:             DECAY TIME IS 25 FS
Info:     PISTON TEMPERATURE IS 300 K
Info:       PRESSURE CONTROL IS GROUP-BASED
Info:    INITIAL STRAIN RATE IS 0 0 0
Info:       CELL FLUCTUATION IS ISOTROPIC
Info: PARTICLE MESH EWALD (PME) ACTIVE
Info: PME TOLERANCE               1e-06
Info: PME EWALD COEFFICIENT       0.348832
Info: PME INTERPOLATION ORDER     4
Info: PME GRID DIMENSIONS         40 44 40
Info: PME MAXIMUM GRID SPACING    1
Info: FULL ELECTROSTATIC EVALUATION FREQUENCY      2
Info: USING VERLET I (r-RESPA) MTS SCHEME.
Info: C1 SPLITTING OF LONG RANGE ELECTROSTATICS
Info: PLACING ATOMS IN PATCHES BY HYDROGEN GROUPS
Info: RIGID BONDS TO HYDROGEN : ALL
Info:         ERROR TOLERANCE : 1e-08
Info:          MAX ITERATIONS : 100
Info: RIGID WATER USING SETTLE ALGORITHM
Info: RANDOM NUMBER SEED     1741397322
Info: USE HYDROGEN BONDS?    NO
Info: Using AMBER format force field!
Info: AMBER PARM FILE        mobley_8966374.prmtop
Info: COORDINATE PDB         mobley_8966374.pdb
Info: Exclusions will be read from PARM file!
Info: SCNB (VDW SCALING)     2
Info: USING ARITHMETIC MEAN TO COMBINE L-J SIGMA PARAMETERS
Info: SUMMARY OF PARAMETERS:
Info: 7 BONDS
Info: 8 ANGLES
Info:   8 HARMONIC
Info:   0 COSINE-BASED
Info: 4 DIHEDRAL
Info: 0 IMPROPER
Info: 0 CROSSTERM
Info: 0 VDW
Info: 28 VDW_PAIRS
Info: 0 NBTHOLE_PAIRS
Info: STRUCTURE SUMMARY:
Info: 4555 ATOMS
Info: 4555 BONDS
Info: 20 ANGLES
Info: 22 DIHEDRALS
Info: 0 IMPROPERS
Info: 0 CROSSTERMS
Info: 4594 EXCLUSIONS
Info: 4548 RIGID BONDS
Info: 9117 DEGREES OF FREEDOM
Info: 1521 HYDROGEN GROUPS
Info: 4 ATOMS IN LARGEST HYDROGEN GROUP
Info: 1521 MIGRATION GROUPS
Info: 4 ATOMS IN LARGEST MIGRATION GROUP
Info: TOTAL MASS = 27370.3 amu
Info: TOTAL CHARGE = 0.000200011 e
Info: MASS DENSITY = 0.714945 g/cm^3
Info: ATOM DENSITY = 0.0716509 atoms/A^3
Info: ADDED 0 IMPLICIT EXCLUSIONS
Info: NONBONDED TABLE R-SQUARED SPACING: 0.0625
Info: NONBONDED TABLE SIZE: 705 POINTS
Info: REMOVING COM VELOCITY -0.0146218 0.108034 0.0710581
TCL: Minimizing for 2000 steps
ETITLE: TS BOND ANGLE DIHED IMPRP ELECT VDW BOUNDARY MISC KINETIC TOTAL TEMP POTENTIAL TOTAL3 TEMPAVG PRESSURE GPRESSURE VOLUME PRESSAVG GPRESSAVG
ENERGY: 0 0.5919 0.3386 0.0002 0.0000 -13904.9868 1548.9352 0.0000 0.0000 0.0000 -12355.1208 0.0000 -12355.1208 -12355.1208 0.0000 10714.8308 -15545.5981 63572.1120 10714.8308 -15545.5981
ENERGY: 400 11.2186 4.1192 0.2419 0.0000 -18728.5926 2686.4833 0.0000 0.0000 0.0000 -16026.5296 0.0000 -16026.5296 -16026.5296 0.0000 15146.5907 15281.0995 63572.1120 15146.5907 15281.0995
ENERGY: 800 2.0441 1.1074 0.1521 0.0000 -19848.2934 3229.4260 0.0000 0.0000 0.0000 -16615.5638 0.0000 -16615.5638 -16615.5638 0.0000 17811.3213 17908.4865 63572.1120 17811.3213 17908.4865
ENERGY: 1200 1.6542 0.4777 0.0327 0.0000 -20444.8160 3469.9725 0.0000 0.0000 0.0000 -16972.6790 0.0000 -16972.6790 -16972.6790 0.0000 19018.2892 19124.6725 63572.1120 19018.2892 19124.6725
ENERGY: 1600 1.4195 0.4609 0.0202 0.0000 -20673.2903 3577.1997 0.0000 0.0000 0.0000 -17094.1901 0.0000 -17094.1901 -17094.1901 0.0000 19558.3951 19654.3379 63572.1120 19558.3951 19654.3379
ENERGY: 2000 1.4105 0.4598 0.0191 0.0000 -20808.0770 3621.4172 0.0000 0.0000 0.0000 -17184.7704 0.0000 -17184.7704 -17184.7704 0.0000 19794.7914 19891.8458 63572.1120 19794.7914 19891.8458
TCL: Exiting due to exit command.
Info: NAMD 3.0.1 for Linux-x86_64-multicore
Info: Please visit http://www.ks.uiuc.edu/Research/namd/
Info: for updates, documentation, and support information.
Info: Please cite Phillips et al., J. Chem. Phys. 153:044130 (2020) doi:10.1063/5.0014475
Info: in all publications reporting results obtained with NAMD.
Info: Based on Charm++/Converse 80000 for multicore-linux-x86_64-gcc
Info: Built Mon Oct 14 11:11:06 CDT 2024 by dhardy on athine.ks.uiuc.edu
Info: 1 NAMD  3.0.1  Linux-x86_64-multicore  16    k012  z5358697
Info: Running on 16 processors, 1 nodes, 1 physical nodes.
Info: CPU topology information available.
Info: Charm++/Converse parallel runtime startup completed at 0.00959566 s
Info: 1043.45 MB of memory in use based on /proc/self/stat
Info: Configuration file is mobley_8966374_equil.namd
Info: Working in the current directory /srv/scratch/z5358697/prod_prep_11/8966374
TCL: Running 25000 steps at 30 kelvin.
TCL: Suspending until startup complete.
Info: SIMULATION PARAMETERS:
Info: TIMESTEP               2
Info: NUMBER OF STEPS        0
Info: STEPS PER CYCLE        10
Info: PERIODIC CELL BASIS 1  39.546 0 0
Info: PERIODIC CELL BASIS 2  0 41.628 0
Info: PERIODIC CELL BASIS 3  0 0 38.617
Info: PERIODIC CELL CENTER   0 0 0
Info: WRAPPING WATERS AROUND PERIODIC BOUNDARIES ON OUTPUT.
Info: WRAPPING ALL CLUSTERS AROUND PERIODIC BOUNDARIES ON OUTPUT.
Info: FIRST LDB TIMESTEP     50
Info: LAST LDB TIMESTEP     -1
Info: HOM BACKGROUND SCALING 1
Info: PME BACKGROUND SCALING 1
Info: MIN ATOMS PER PATCH    40
Info: EMPTY PATCH LOAD       40 ATOMS
Info: INITIAL TEMPERATURE    300
Info: CENTER OF MASS MOVING INITIALLY? NO
Info: DIELECTRIC             1
Info: EXCLUDE                SCALED ONE-FOUR
Info: 1-4 ELECTROSTATICS SCALED BY 0.833333
Info: MODIFIED 1-4 VDW PARAMETERS WILL BE USED
Info: DCD FILENAME           mobley_8966374_equil.dcd
Info: DCD FREQUENCY          5000
Info: DCD FIRST STEP         5000
Info: DCD FILE WILL CONTAIN UNIT CELL DATA
Info: XST FILENAME           mobley_8966374_equil.xst
Info: XST FREQUENCY          5000
Info: NO VELOCITY DCD OUTPUT
Info: NO FORCE DCD OUTPUT
Info: OUTPUT FILENAME        mobley_8966374_equil
Info: BINARY OUTPUT FILES WILL BE USED
Info: RESTART FILENAME       mobley_8966374_equil.restart
Info: RESTART FREQUENCY      5000
Info: BINARY RESTART FILES WILL BE USED
Info: CUTOFF                 9
Info: PAIRLIST DISTANCE      11
Info: PAIRLIST SHRINK RATE   0.01
Info: PAIRLIST GROW RATE     0.01
Info: PAIRLIST TRIGGER       0.3
Info: PAIRLISTS PER CYCLE    2
Info: PAIRLISTS ENABLED
Info: MARGIN                 8
Info: HYDROGEN GROUP CUTOFF  2.5
Info: PATCH DIMENSION        21.5
Info: ENERGY OUTPUT STEPS    5000
Info: ENERGY EVALUATION STEPS    5000
Info: OUTPUT ENERGY PRECISION 4
Info: CROSSTERM ENERGY INCLUDED IN DIHEDRAL
Info: TIMING OUTPUT STEPS    50000
Info: PRESSURE OUTPUT STEPS  5000
Info: LANGEVIN DYNAMICS ACTIVE
Info: LANGEVIN TEMPERATURE   30
Info: LANGEVIN USING BBK INTEGRATOR
Info: LANGEVIN DAMPING COEFFICIENT IS 1 INVERSE PS
Info: LANGEVIN DYNAMICS APPLIED TO HYDROGENS
Info: LANGEVIN PISTON PRESSURE CONTROL ACTIVE
Info:        TARGET PRESSURE IS 1.01325 BAR
Info:     OSCILLATION PERIOD IS 50 FS
Info:             DECAY TIME IS 25 FS
Info:     PISTON TEMPERATURE IS 300 K
Info:       PRESSURE CONTROL IS GROUP-BASED
Info:    INITIAL STRAIN RATE IS 0 0 0
Info:       CELL FLUCTUATION IS ISOTROPIC
Info: PARTICLE MESH EWALD (PME) ACTIVE
Info: PME TOLERANCE               1e-06
Info: PME EWALD COEFFICIENT       0.348832
Info: PME INTERPOLATION ORDER     4
Info: PME GRID DIMENSIONS         40 44 40
Info: PME MAXIMUM GRID SPACING    1
Info: FULL ELECTROSTATIC EVALUATION FREQUENCY      2
Info: USING VERLET I (r-RESPA) MTS SCHEME.
Info: C1 SPLITTING OF LONG RANGE ELECTROSTATICS
Info: PLACING ATOMS IN PATCHES BY HYDROGEN GROUPS
Info: RIGID BONDS TO HYDROGEN : ALL
Info:         ERROR TOLERANCE : 1e-08
Info:          MAX ITERATIONS : 100
Info: RIGID WATER USING SETTLE ALGORITHM
Info: RANDOM NUMBER SEED     1741397342
Info: USE HYDROGEN BONDS?    NO
Info: Using AMBER format force field!
Info: AMBER PARM FILE        mobley_8966374.prmtop
Info: COORDINATE PDB         mobley_8966374.pdb
Info: Exclusions will be read from PARM file!
Info: SCNB (VDW SCALING)     2
Info: USING ARITHMETIC MEAN TO COMBINE L-J SIGMA PARAMETERS
Info: BINARY COORDINATES     mobley_8966374_min.coor
Info: SUMMARY OF PARAMETERS:
Info: 7 BONDS
Info: 8 ANGLES
Info:   8 HARMONIC
Info:   0 COSINE-BASED
Info: 4 DIHEDRAL
Info: 0 IMPROPER
Info: 0 CROSSTERM
Info: 0 VDW
Info: 28 VDW_PAIRS
Info: 0 NBTHOLE_PAIRS
Info: STRUCTURE SUMMARY:
Info: 4555 ATOMS
Info: 4555 BONDS
Info: 20 ANGLES
Info: 22 DIHEDRALS
Info: 0 IMPROPERS
Info: 0 CROSSTERMS
Info: 4594 EXCLUSIONS
Info: 4548 RIGID BONDS
Info: 9117 DEGREES OF FREEDOM
Info: 1521 HYDROGEN GROUPS
Info: 4 ATOMS IN LARGEST HYDROGEN GROUP
Info: 1521 MIGRATION GROUPS
Info: 4 ATOMS IN LARGEST MIGRATION GROUP
Info: TOTAL MASS = 27370.3 amu
Info: TOTAL CHARGE = 0.000200011 e
Info: MASS DENSITY = 0.714945 g/cm^3
Info: ATOM DENSITY = 0.0716509 atoms/A^3
Info: ADDED 0 IMPLICIT EXCLUSIONS
Info: NONBONDED TABLE R-SQUARED SPACING: 0.0625
Info: NONBONDED TABLE SIZE: 705 POINTS
Info: REMOVING COM VELOCITY 0.0683638 -0.0155946 0.0597338
TCL: Running for 25000 steps
ETITLE: TS BOND ANGLE DIHED IMPRP ELECT VDW BOUNDARY MISC KINETIC TOTAL TEMP POTENTIAL TOTAL3 TEMPAVG PRESSURE GPRESSURE VOLUME PRESSAVG GPRESSAVG
ENERGY: 0 1.4105 0.4598 0.0191 0.0000 -20808.0770 3621.4172 0.0000 0.0000 2677.2088 -14507.5616 295.5430 -17184.7704 -14507.0470 295.5430 173.4454 213.8414 63572.1120 173.4454 213.8414
ENERGY: 5000 0.6519 0.4921 0.1699 0.0000 -21912.0016 3914.7070 0.0000 0.0000 270.0273 -17725.9533 29.8089 -17995.9806 -17725.3456 47.6349 681.1068 735.5676 44343.5287 -0.8507 -0.7405
ENERGY: 10000 0.7836 0.6480 0.2510 0.0000 -22078.3798 4028.7239 0.0000 0.0000 266.5471 -17781.4262 29.4247 -18047.9733 -17780.5993 30.4614 1255.3961 1317.5574 43837.6300 6.6506 6.6386
ENERGY: 15000 1.4241 0.8076 0.3308 0.0000 -21849.5125 3784.6805 0.0000 0.0000 271.1601 -17791.1094 29.9340 -18062.2695 -17790.3852 30.1109 -200.3787 -128.7133 44304.8699 5.3499 5.2352
ENERGY: 20000 1.7218 0.4759 0.1579 0.0000 -21822.2491 3754.7836 0.0000 0.0000 267.3634 -17797.7466 29.5148 -18065.1100 -17797.2548 29.9246 -381.2987 -335.1833 44380.3652 4.7717 4.6759
ENERGY: 25000 1.5927 0.7647 0.2357 0.0000 -21977.4114 3899.3278 0.0000 0.0000 281.5978 -17793.8926 31.0862 -18075.4905 -17793.0323 30.1136 438.4876 495.1256 44060.5585 2.7760 2.7573
TCL: Running 25000 steps at 60 kelvin.
TCL: Setting parameter langevinTemp to 60
TCL: Running for 25000 steps
ETITLE: TS BOND ANGLE DIHED IMPRP ELECT VDW BOUNDARY MISC KINETIC TOTAL TEMP POTENTIAL TOTAL3 TEMPAVG PRESSURE GPRESSURE VOLUME PRESSAVG GPRESSAVG
ENERGY: 25000 1.5927 0.7647 0.2357 0.0000 -21977.4114 3899.3278 0.0000 0.0000 281.4621 -17794.0284 31.0712 -18075.4905 -17793.5776 31.0712 448.9151 495.0720 44060.5585 448.9151 495.0720
ENERGY: 30000 1.0748 0.7890 0.0995 0.0000 -21545.5260 3702.0682 0.0000 0.0000 558.9743 -17282.5202 61.7064 -17841.4945 -17280.7943 57.2287 -123.6322 -70.3758 44580.2600 5.1957 4.9408
ENERGY: 35000 1.9935 1.4703 0.1423 0.0000 -21515.7105 3620.1044 0.0000 0.0000 539.3362 -17352.6639 59.5385 -17892.0001 -17351.3843 60.6080 -705.9826 -662.1132 44402.3982 12.4989 12.1531
ENERGY: 40000 1.7376 1.0322 0.5634 0.0000 -21662.2137 3767.2269 0.0000 0.0000 545.3228 -17346.3307 60.1994 -17891.6535 -17344.2277 60.3017 158.4512 201.9905 44287.8158 4.0313 3.9736
ENERGY: 45000 1.6201 0.9034 0.5142 0.0000 -21535.7116 3605.4733 0.0000 0.0000 543.7416 -17383.4589 60.0248 -17927.2005 -17382.3014 60.2150 -911.7671 -847.8486 44597.1901 -0.1448 -0.2479
ENERGY: 50000 2.3721 1.0401 0.2058 0.0000 -21711.4958 3746.9958 0.0000 0.0000 549.3369 -17411.5450 60.6425 -17960.8820 -17410.2516 60.3241 -156.8902 -108.2655 44344.4279 -7.9558 -8.0679
TCL: Running 25000 steps at 90 kelvin.
TCL: Setting parameter langevinTemp to 90
TCL: Running for 25000 steps
ETITLE: TS BOND ANGLE DIHED IMPRP ELECT VDW BOUNDARY MISC KINETIC TOTAL TEMP POTENTIAL TOTAL3 TEMPAVG PRESSURE GPRESSURE VOLUME PRESSAVG GPRESSAVG
ENERGY: 50000 2.3721 1.0401 0.2058 0.0000 -21711.4958 3746.9958 0.0000 0.0000 549.0742 -17411.8077 60.6135 -17960.8820 -17410.5035 60.6135 -155.5906 -108.2453 44344.4279 -155.5906 -108.2453
ENERGY: 55000 1.6213 1.8130 0.2691 0.0000 -21350.1825 3674.5437 0.0000 0.0000 834.8308 -16837.1047 92.1588 -17671.9354 -16834.6798 87.0652 175.3542 224.8246 44571.2833 1.3842 1.3240
ENERGY: 60000 2.1913 1.1561 0.4518 0.0000 -21268.5036 3544.7153 0.0000 0.0000 837.4264 -16882.5628 92.4454 -17719.9892 -16879.9783 90.7666 -709.6533 -687.8363 44841.8228 -0.2890 -0.1639
ENERGY: 65000 3.8178 1.7280 0.8643 0.0000 -21544.5264 3766.6994 0.0000 0.0000 815.6893 -16955.7277 90.0457 -17771.4169 -16954.0498 90.2596 375.6569 420.8513 44291.3974 6.4684 6.6268
ENERGY: 70000 2.4395 1.6861 0.5324 0.0000 -21447.3756 3651.8239 0.0000 0.0000 811.4143 -16979.4793 89.5738 -17790.8936 -16976.9485 89.9241 -375.2782 -295.9730 44613.0382 2.7738 2.6038
ENERGY: 75000 2.7172 2.0411 0.3691 0.0000 -21574.9215 3767.2563 0.0000 0.0000 815.7685 -16986.7693 90.0545 -17802.5378 -16985.2287 89.6388 404.7475 444.4375 44282.3655 1.7862 1.7161
TCL: Running 25000 steps at 120 kelvin.
TCL: Setting parameter langevinTemp to 120
TCL: Running for 25000 steps
ETITLE: TS BOND ANGLE DIHED IMPRP ELECT VDW BOUNDARY MISC KINETIC TOTAL TEMP POTENTIAL TOTAL3 TEMPAVG PRESSURE GPRESSURE VOLUME PRESSAVG GPRESSAVG
ENERGY: 75000 2.7172 2.0411 0.3691 0.0000 -21574.9215 3767.2563 0.0000 0.0000 815.3545 -16987.1832 90.0088 -17802.5378 -16985.6699 90.0088 394.1097 444.5109 44282.3655 394.1097 444.5109
ENERGY: 80000 2.0763 0.9677 0.4850 0.0000 -21076.2445 3575.9059 0.0000 0.0000 1071.9012 -16424.9085 118.3295 -17496.8097 -16422.5213 116.2035 16.2368 74.8898 44710.8570 2.9739 3.2580
ENERGY: 85000 0.4027 2.4749 0.7993 0.0000 -21047.8515 3546.0536 0.0000 0.0000 1081.8492 -16416.2718 119.4277 -17498.1211 -16413.8052 119.4844 -83.8309 -36.3807 44687.1977 7.8379 7.4353
ENERGY: 90000 3.4743 2.1556 0.3683 0.0000 -21072.2973 3561.6945 0.0000 0.0000 1077.9668 -16426.6378 118.9991 -17504.6045 -16424.0348 120.5705 -74.5072 -42.7467 44616.9948 2.0701 2.3169
ENERGY: 95000 3.6635 2.6700 1.2963 0.0000 -21044.6379 3540.3914 0.0000 0.0000 1079.5132 -16417.1035 119.1698 -17496.6167 -16414.3785 119.5690 -272.2695 -211.0756 44679.8640 -0.7204 -0.6576
ENERGY: 100000 0.8139 2.0750 1.0639 0.0000 -21044.0082 3472.7615 0.0000 0.0000 1094.3926 -16472.9013 120.8124 -17567.2940 -16470.3499 120.4934 -578.9090 -548.2617 44736.1385 1.2160 1.0352
TCL: Running 25000 steps at 150 kelvin.
TCL: Setting parameter langevinTemp to 150
TCL: Running for 25000 steps
ETITLE: TS BOND ANGLE DIHED IMPRP ELECT VDW BOUNDARY MISC KINETIC TOTAL TEMP POTENTIAL TOTAL3 TEMPAVG PRESSURE GPRESSURE VOLUME PRESSAVG GPRESSAVG
ENERGY: 100000 0.8139 2.0750 1.0639 0.0000 -21044.0082 3472.7615 0.0000 0.0000 1093.8524 -16473.4416 120.7528 -17567.2940 -16471.0288 120.7528 -604.5491 -549.1328 44736.1385 -604.5491 -549.1328
ENERGY: 105000 1.4972 3.2462 1.1239 0.0000 -20759.1832 3549.2880 0.0000 0.0000 1375.4528 -15828.5751 151.8393 -17204.0279 -15826.3189 147.0583 550.4510 569.0424 44970.0367 -0.5235 -0.3940
ENERGY: 110000 0.7165 1.8030 2.2533 0.0000 -20739.6291 3527.9128 0.0000 0.0000 1386.6810 -15820.2624 153.0788 -17206.9434 -15817.6942 150.2670 572.0085 623.8973 44487.8426 4.8973 4.8870
ENERGY: 115000 3.4375 1.9402 0.5300 0.0000 -20621.2258 3368.1060 0.0000 0.0000 1355.2622 -15891.9499 149.6104 -17247.2121 -15889.9000 150.5769 -333.5392 -298.9132 44607.9410 0.8334 0.8560
ENERGY: 120000 0.8406 2.6737 0.4391 0.0000 -20653.2498 3444.8231 0.0000 0.0000 1360.5432 -15843.9301 150.1934 -17204.4732 -15840.5401 150.4214 186.9750 232.7779 44515.0240 3.5948 3.5496
ENERGY: 125000 2.9566 1.2977 0.8936 0.0000 -20707.8575 3422.8298 0.0000 0.0000 1354.7210 -15925.1588 149.5506 -17279.8798 -15921.4915 150.2108 -230.4249 -143.8167 44676.0541 -5.2680 -5.3369
TCL: Running 50000 steps at 180 kelvin.
TCL: Setting parameter langevinTemp to 180
TCL: Running for 50000 steps
ETITLE: TS BOND ANGLE DIHED IMPRP ELECT VDW BOUNDARY MISC KINETIC TOTAL TEMP POTENTIAL TOTAL3 TEMPAVG PRESSURE GPRESSURE VOLUME PRESSAVG GPRESSAVG
ENERGY: 125000 2.9566 1.2977 0.8936 0.0000 -20707.8575 3422.8298 0.0000 0.0000 1354.0591 -15925.8207 149.4776 -17279.8798 -15923.3506 149.4776 -198.9280 -143.7527 44676.0541 -198.9280 -143.7527
ENERGY: 135000 2.2936 2.4256 2.1069 0.0000 -20187.0491 3277.6680 0.0000 0.0000 1615.8203 -15286.7347 178.3740 -16902.5550 -15283.7987 179.7257 -129.7654 -68.1309 45075.6397 7.1071 7.0726
ENERGY: 145000 2.2925 1.3240 1.0061 0.0000 -20194.6609 3306.2722 0.0000 0.0000 1628.1289 -15255.6371 179.7327 -16883.7660 -15252.2447 180.5515 163.4327 217.5202 44580.1178 7.2325 7.4429
ENERGY: 155000 3.0208 2.1159 1.9345 0.0000 -20202.5156 3284.9868 0.0000 0.0000 1603.3040 -15307.1537 176.9923 -16910.4577 -15302.5102 180.3109 95.6356 131.7132 44330.7675 5.7632 6.0095
ENERGY: 165000 1.1540 2.7622 1.0978 0.0000 -20144.7887 3291.7138 0.0000 0.0000 1590.4866 -15257.5743 175.5773 -16848.0608 -15252.6298 180.7238 254.6849 288.1735 44393.2439 5.7595 6.3885
ENERGY: 175000 1.2902 1.2167 2.0614 0.0000 -20145.5198 3280.0223 0.0000 0.0000 1658.5980 -15202.3313 183.0963 -16860.9292 -15199.6048 180.9856 146.9010 217.7788 44593.1840 4.2579 4.3300
TCL: Running 50000 steps at 210 kelvin.
TCL: Setting parameter langevinTemp to 210
TCL: Running for 50000 steps
ETITLE: TS BOND ANGLE DIHED IMPRP ELECT VDW BOUNDARY MISC KINETIC TOTAL TEMP POTENTIAL TOTAL3 TEMPAVG PRESSURE GPRESSURE VOLUME PRESSAVG GPRESSAVG
ENERGY: 175000 1.2902 1.2167 2.0614 0.0000 -20145.5198 3280.0223 0.0000 0.0000 1657.7848 -15203.1445 183.0065 -16860.9292 -15200.0635 183.0065 149.2649 216.0726 44593.1840 149.2649 216.0726
ENERGY: 185000 3.3756 1.2954 0.7877 0.0000 -19217.4552 2902.5202 0.0000 0.0000 1947.2735 -14362.2028 214.9638 -16309.4763 -14356.4634 208.3419 -401.2761 -327.0580 44425.3543 -0.2851 -1.0094
ENERGY: 195000 1.8821 4.5170 2.4400 0.0000 -19060.1144 2819.9138 0.0000 0.0000 1891.9910 -14339.3704 208.8611 -16231.3614 -14335.9427 209.3235 -820.9176 -744.7898 44689.8405 6.5457 6.2481
ENERGY: 205000 2.5494 4.1503 1.9024 0.0000 -19202.2282 2957.0892 0.0000 0.0000 1910.0641 -14326.4728 210.8562 -16236.5369 -14322.5971 209.3120 82.7842 181.1095 44143.4533 0.6847 0.9490
ENERGY: 215000 1.2642 2.8323 0.5938 0.0000 -19047.3144 2874.5071 0.0000 0.0000 1907.7770 -14260.3399 210.6037 -16168.1170 -14255.4944 210.8662 -228.6599 -107.6432 44219.2347 5.6662 5.0466
ENERGY: 225000 3.4307 2.6992 0.6088 0.0000 -19210.9854 2964.8805 0.0000 0.0000 1894.4935 -14344.8728 209.1373 -16239.3663 -14338.5608 210.2218 40.0984 123.9205 44232.9269 1.3253 1.6306
TCL: Running 50000 steps at 240 kelvin.
TCL: Setting parameter langevinTemp to 240
TCL: Running for 50000 steps
ETITLE: TS BOND ANGLE DIHED IMPRP ELECT VDW BOUNDARY MISC KINETIC TOTAL TEMP POTENTIAL TOTAL3 TEMPAVG PRESSURE GPRESSURE VOLUME PRESSAVG GPRESSAVG
ENERGY: 225000 3.4307 2.6992 0.6088 0.0000 -19210.9854 2964.8805 0.0000 0.0000 1893.5703 -14345.7960 209.0354 -16239.3663 -14342.8836 209.0354 47.3031 125.0868 44232.9269 47.3031 125.0868
ENERGY: 235000 1.6045 2.4141 1.5546 0.0000 -18235.4332 2781.8505 0.0000 0.0000 2171.3174 -13276.6921 239.6965 -15448.0095 -13271.4629 239.1384 886.9246 952.0743 44655.3048 1.8971 1.9337
ENERGY: 245000 2.9853 1.4024 0.5276 0.0000 -18238.6763 2625.7700 0.0000 0.0000 2117.3150 -13490.6759 233.7351 -15607.9909 -13487.2742 238.2075 -623.5613 -508.9732 45297.4792 -0.2868 -0.0518
ENERGY: 255000 4.4152 2.8625 1.5222 0.0000 -18064.3357 2513.6608 0.0000 0.0000 2156.5789 -13385.2961 238.0695 -15541.8750 -13382.5411 239.8187 -749.1154 -639.2789 44547.3220 0.1288 -0.2899
ENERGY: 265000 5.3928 2.9255 1.9279 0.0000 -18185.2126 2674.0949 0.0000 0.0000 2154.5205 -13346.3510 237.8423 -15500.8715 -13342.8439 241.3900 -199.2355 -121.1760 45457.8831 2.4474 1.6959
ENERGY: 275000 0.6653 3.4286 1.5339 0.0000 -18180.9013 2638.2155 0.0000 0.0000 2142.8792 -13394.1789 236.5572 -15537.0581 -13389.2524 240.1380 -11.4110 102.2683 44702.6794 2.9005 2.2164
TCL: Running 50000 steps at 270 kelvin.
TCL: Setting parameter langevinTemp to 270
TCL: Running for 50000 steps
ETITLE: TS BOND ANGLE DIHED IMPRP ELECT VDW BOUNDARY MISC KINETIC TOTAL TEMP POTENTIAL TOTAL3 TEMPAVG PRESSURE GPRESSURE VOLUME PRESSAVG GPRESSAVG
ENERGY: 275000 0.6653 3.4286 1.5339 0.0000 -18180.9013 2638.2155 0.0000 0.0000 2141.7642 -13395.2939 236.4341 -15537.0581 -13392.2454 236.4341 21.1123 103.5445 44702.6794 21.1123 103.5445
ENERGY: 285000 1.9796 4.3419 2.9797 0.0000 -17255.5570 2350.9570 0.0000 0.0000 2463.1136 -12432.1851 271.9086 -14895.2987 -12427.2689 270.1766 -488.4406 -388.6428 46070.7558 7.2710 7.3687
ENERGY: 295000 2.8953 1.7216 0.7519 0.0000 -17235.4682 2342.2946 0.0000 0.0000 2421.6509 -12466.1540 267.3314 -14887.8048 -12460.3158 271.1038 -469.9183 -344.0846 45801.8608 2.5041 2.3074
ENERGY: 305000 6.1098 2.5082 0.8348 0.0000 -17091.3312 2299.1733 0.0000 0.0000 2448.1138 -12334.5912 270.2527 -14782.7050 -12332.6939 270.4100 -565.4669 -492.8798 46213.5826 -2.0579 -2.0536
ENERGY: 315000 3.0584 2.9036 2.0124 0.0000 -17218.7971 2383.7720 0.0000 0.0000 2432.6699 -12394.3808 268.5478 -14827.0507 -12390.1618 271.2341 -290.7609 -155.9110 46051.1443 2.5830 2.2924
ENERGY: 325000 2.5399 5.8627 3.7330 0.0000 -17139.4586 2286.8609 0.0000 0.0000 2452.8108 -12387.6512 270.7712 -14840.4620 -12382.1873 271.4850 -680.7075 -607.8726 45925.7546 3.1770 2.5502
TCL: Running 1000000 steps at 300 kelvin.
TCL: Setting parameter langevinTemp to 300
TCL: Running for 1000000 steps
ETITLE: TS BOND ANGLE DIHED IMPRP ELECT VDW BOUNDARY MISC KINETIC TOTAL TEMP POTENTIAL TOTAL3 TEMPAVG PRESSURE GPRESSURE VOLUME PRESSAVG GPRESSAVG
ENERGY: 325000 2.5399 5.8627 3.7330 0.0000 -17139.4586 2286.8609 0.0000 0.0000 2451.5701 -12388.8919 270.6342 -14840.4620 -12385.3933 270.6342 -694.8875 -607.3630 45925.7546 -694.8875 -607.3630
ENERGY: 525000 3.0996 5.7423 1.8025 0.0000 -16350.6820 2071.2177 0.0000 0.0000 2801.8423 -11466.9777 309.3016 -14268.8200 -11460.3241 300.1430 -796.5704 -759.5624 47070.9664 4.7433 4.3629
ENERGY: 725000 4.8912 5.4252 1.0659 0.0000 -16647.8971 2289.8658 0.0000 0.0000 2724.4924 -11622.1566 300.7627 -14346.6490 -11615.0330 297.3587 149.0380 231.3747 46808.6139 3.9790 3.9456
ENERGY: 925000 1.6866 4.5389 1.6793 0.0000 -16660.1541 2351.8331 0.0000 0.0000 2699.3889 -11601.0273 297.9915 -14300.4162 -11597.0016 298.3793 642.8722 734.8910 46673.9037 1.7191 1.6715
ENERGY: 1125000 1.8106 4.4902 1.1119 0.0000 -16428.2546 2220.6893 0.0000 0.0000 2727.7071 -11472.4455 301.1176 -14200.1526 -11467.6359 301.2497 21.8833 105.2541 46917.1630 1.9354 1.8080
ENERGY: 1325000 1.8115 2.3397 2.3573 0.0000 -16719.8529 2392.3378 0.0000 0.0000 2681.8140 -11639.1927 296.0514 -14321.0067 -11633.8456 300.2717 684.8016 784.2661 46484.9886 -5.9329 -6.2779
TCL: Exiting due to exit command.
