Info: SIMULATION PARAMETERS:
Info: TIMESTEP               2
Info: NUMBER OF STEPS        0
Info: STEPS PER CYCLE        10
Info: PERIODIC CELL BASIS 1  38.861 0 0
Info: PERIODIC CELL BASIS 2  0 38.88 0
Info: PERIODIC CELL BASIS 3  0 0 41.374
Info: PERIODIC CELL CENTER   0 0 0
Info: WRAPPING WATERS AROUND PERIODIC BOUNDARIES ON OUTPUT.
Info: WRAPPING ALL CLUSTERS AROUND PERIODIC BOUNDARIES ON OUTPUT.
Info: FIRST LDB TIMESTEP     50
Info: LAST LDB TIMESTEP     -1
Info: HOM BACKGROUND SCALING 1
Info: PME BACKGROUND SCALING 1
Info: MIN ATOMS PER PATCH    40
Info: EMPTY PATCH LOAD       40 ATOMS
Info: INITIAL TEMPERATURE    300
Info: CENTER OF MASS MOVING INITIALLY? NO
Info: DIELECTRIC             1
Info: EXCLUDE                SCALED ONE-FOUR
Info: 1-4 ELECTROSTATICS SCALED BY 0.833333
Info: MODIFIED 1-4 VDW PARAMETERS WILL BE USED
Info: DCD FILENAME           mobley_3259411_min.dcd
Info: DCD FREQUENCY          5000
Info: DCD FIRST STEP         5000
Info: DCD FILE WILL CONTAIN UNIT CELL DATA
Info: XST FILENAME           mobley_3259411_min.xst
Info: XST FREQUENCY          5000
Info: NO VELOCITY DCD OUTPUT
Info: NO FORCE DCD OUTPUT
Info: OUTPUT FILENAME        mobley_3259411_min
Info: BINARY OUTPUT FILES WILL BE USED
Info: RESTART FILENAME       mobley_3259411_min.restart
Info: RESTART FREQUENCY      5000
Info: BINARY RESTART FILES WILL BE USED
Info: CUTOFF                 9
Info: PAIRLIST DISTANCE      11
Info: PAIRLIST SHRINK RATE   0.01
Info: PAIRLIST GROW RATE     0.01
Info: PAIRLIST TRIGGER       0.3
Info: PAIRLISTS PER CYCLE    2
Info: PAIRLISTS ENABLED
Info: MARGIN                 8
Info: HYDROGEN GROUP CUTOFF  2.5
Info: PATCH DIMENSION        21.5
Info: ENERGY OUTPUT STEPS    5000
Info: ENERGY EVALUATION STEPS    5000
Info: OUTPUT ENERGY PRECISION 4
Info: CROSSTERM ENERGY INCLUDED IN DIHEDRAL
Info: TIMING OUTPUT STEPS    50000
Info: PRESSURE OUTPUT STEPS  5000
Info: LANGEVIN DYNAMICS ACTIVE
Info: LANGEVIN TEMPERATURE   300
Info: LANGEVIN USING BBK INTEGRATOR
Info: LANGEVIN DAMPING COEFFICIENT IS 1 INVERSE PS
Info: LANGEVIN DYNAMICS APPLIED TO HYDROGENS
Info: LANGEVIN PISTON PRESSURE CONTROL ACTIVE
Info:        TARGET PRESSURE IS 1.01325 BAR
Info:     OSCILLATION PERIOD IS 50 FS
Info:             DECAY TIME IS 25 FS
Info:     PISTON TEMPERATURE IS 300 K
Info:       PRESSURE CONTROL IS GROUP-BASED
Info:    INITIAL STRAIN RATE IS 0 0 0
Info:       CELL FLUCTUATION IS ISOTROPIC
Info: PARTICLE MESH EWALD (PME) ACTIVE
Info: PME TOLERANCE               1e-06
Info: PME EWALD COEFFICIENT       0.348832
Info: PME INTERPOLATION ORDER     4
Info: PME GRID DIMENSIONS         40 40 44
Info: PME MAXIMUM GRID SPACING    1
Info: FULL ELECTROSTATIC EVALUATION FREQUENCY      2
Info: USING VERLET I (r-RESPA) MTS SCHEME.
Info: C1 SPLITTING OF LONG RANGE ELECTROSTATICS
Info: PLACING ATOMS IN PATCHES BY HYDROGEN GROUPS
Info: RIGID BONDS TO HYDROGEN : ALL
Info:         ERROR TOLERANCE : 1e-08
Info:          MAX ITERATIONS : 100
Info: RIGID WATER USING SETTLE ALGORITHM
Info: RANDOM NUMBER SEED     1741322240
Info: USE HYDROGEN BONDS?    NO
Info: Using AMBER format force field!
Info: AMBER PARM FILE        mobley_3259411.prmtop
Info: COORDINATE PDB         mobley_3259411.pdb
Info: Exclusions will be read from PARM file!
Info: SCNB (VDW SCALING)     2
Info: USING ARITHMETIC MEAN TO COMBINE L-J SIGMA PARAMETERS
Info: SUMMARY OF PARAMETERS:
Info: 6 BONDS
Info: 6 ANGLES
Info: 8 DIHEDRAL
Info: 0 IMPROPER
Info: 0 CROSSTERM
Info: 0 VDW
Info: 21 VDW_PAIRS
Info: 0 NBTHOLE_PAIRS
Info: STRUCTURE SUMMARY:
Info: 4421 ATOMS
Info: 4420 BONDS
Info: 21 ANGLES
Info: 35 DIHEDRALS
Info: 0 IMPROPERS
Info: 0 CROSSTERMS
Info: 4468 EXCLUSIONS
Info: 4415 RIGID BONDS
Info: 8848 DEGREES OF FREEDOM
Info: 1475 HYDROGEN GROUPS
Info: 3 ATOMS IN LARGEST HYDROGEN GROUP
Info: 1475 MIGRATION GROUPS
Info: 3 ATOMS IN LARGEST MIGRATION GROUP
Info: TOTAL MASS = 26557.6 amu
Info: TOTAL CHARGE = 9.99272e-05 e
Info: MASS DENSITY = 0.705473 g/cm^3
Info: ATOM DENSITY = 0.0707217 atoms/A^3
Info: ADDED 0 IMPLICIT EXCLUSIONS
Info: NONBONDED TABLE R-SQUARED SPACING: 0.0625
Info: NONBONDED TABLE SIZE: 705 POINTS
Info: REMOVING COM VELOCITY -0.0414709 -0.0369753 -0.0646998
TCL: Minimizing for 2000 steps
ETITLE: TS BOND ANGLE DIHED IMPRP ELECT VDW BOUNDARY MISC KINETIC TOTAL TEMP POTENTIAL TOTAL3 TEMPAVG PRESSURE GPRESSURE VOLUME PRESSAVG GPRESSAVG
ENERGY: 0 0.0717 1.0766 4.5424 0.0000 -13698.1245 1589.5010 0.0000 0.0000 0.0000 -12102.9328 0.0000 -12102.9328 -12102.9328 0.0000 11033.0538 -15214.3411 62512.6253 11033.0538 -15214.3411
ENERGY: 400 1.8381 2.3073 5.1039 0.0000 -18546.2045 2744.7995 0.0000 0.0000 0.0000 -15792.1557 0.0000 -15792.1557 -15792.1557 0.0000 15681.6549 15751.6696 62512.6253 15681.6549 15751.6696
ENERGY: 800 5.9423 4.0068 5.0024 0.0000 -19544.0470 3207.6634 0.0000 0.0000 0.0000 -16321.4322 0.0000 -16321.4322 -16321.4322 0.0000 18048.8012 18100.0320 62512.6253 18048.8012 18100.0320
ENERGY: 1200 0.6101 1.3103 5.2507 0.0000 -19916.3432 3391.4584 0.0000 0.0000 0.0000 -16517.7137 0.0000 -16517.7137 -16517.7137 0.0000 19034.3486 19093.9868 62512.6253 19034.3486 19093.9868
ENERGY: 1600 13.6089 6.9168 5.4579 0.0000 -20211.1553 3540.7287 0.0000 0.0000 0.0000 -16644.4430 0.0000 -16644.4430 -16644.4430 0.0000 19825.6896 19870.8178 62512.6253 19825.6896 19870.8178
ENERGY: 2000 0.3391 1.1038 5.1363 0.0000 -20292.1107 3548.1498 0.0000 0.0000 0.0000 -16737.3817 0.0000 -16737.3817 -16737.3817 0.0000 19940.6238 19981.4411 62512.6253 19940.6238 19981.4411
TCL: Exiting due to exit command.
Info: NAMD 3.0.1 for Linux-x86_64-multicore
Info: Please visit http://www.ks.uiuc.edu/Research/namd/
Info: for updates, documentation, and support information.
Info: Please cite Phillips et al., J. Chem. Phys. 153:044130 (2020) doi:10.1063/5.0014475
Info: in all publications reporting results obtained with NAMD.
Info: Based on Charm++/Converse 80000 for multicore-linux-x86_64-gcc
Info: Built Mon Oct 14 11:11:06 CDT 2024 by dhardy on athine.ks.uiuc.edu
Info: 1 NAMD  3.0.1  Linux-x86_64-multicore  16    k007  z5358697
Info: Running on 16 processors, 1 nodes, 1 physical nodes.
Info: CPU topology information available.
Info: Charm++/Converse parallel runtime startup completed at 0.0103306 s
Info: 1043.45 MB of memory in use based on /proc/self/stat
Info: Configuration file is mobley_3259411_equil.namd
Info: Working in the current directory /srv/scratch/z5358697/prod_prep_3/3259411
TCL: Running 25000 steps at 30 kelvin.
TCL: Suspending until startup complete.
Info: SIMULATION PARAMETERS:
Info: TIMESTEP               2
Info: NUMBER OF STEPS        0
Info: STEPS PER CYCLE        10
Info: PERIODIC CELL BASIS 1  38.861 0 0
Info: PERIODIC CELL BASIS 2  0 38.88 0
Info: PERIODIC CELL BASIS 3  0 0 41.374
Info: PERIODIC CELL CENTER   0 0 0
Info: WRAPPING WATERS AROUND PERIODIC BOUNDARIES ON OUTPUT.
Info: WRAPPING ALL CLUSTERS AROUND PERIODIC BOUNDARIES ON OUTPUT.
Info: FIRST LDB TIMESTEP     50
Info: LAST LDB TIMESTEP     -1
Info: HOM BACKGROUND SCALING 1
Info: PME BACKGROUND SCALING 1
Info: MIN ATOMS PER PATCH    40
Info: EMPTY PATCH LOAD       40 ATOMS
Info: INITIAL TEMPERATURE    300
Info: CENTER OF MASS MOVING INITIALLY? NO
Info: DIELECTRIC             1
Info: EXCLUDE                SCALED ONE-FOUR
Info: 1-4 ELECTROSTATICS SCALED BY 0.833333
Info: MODIFIED 1-4 VDW PARAMETERS WILL BE USED
Info: DCD FILENAME           mobley_3259411_equil.dcd
Info: DCD FREQUENCY          5000
Info: DCD FIRST STEP         5000
Info: DCD FILE WILL CONTAIN UNIT CELL DATA
Info: XST FILENAME           mobley_3259411_equil.xst
Info: XST FREQUENCY          5000
Info: NO VELOCITY DCD OUTPUT
Info: NO FORCE DCD OUTPUT
Info: OUTPUT FILENAME        mobley_3259411_equil
Info: BINARY OUTPUT FILES WILL BE USED
Info: RESTART FILENAME       mobley_3259411_equil.restart
Info: RESTART FREQUENCY      5000
Info: BINARY RESTART FILES WILL BE USED
Info: CUTOFF                 9
Info: PAIRLIST DISTANCE      11
Info: PAIRLIST SHRINK RATE   0.01
Info: PAIRLIST GROW RATE     0.01
Info: PAIRLIST TRIGGER       0.3
Info: PAIRLISTS PER CYCLE    2
Info: PAIRLISTS ENABLED
Info: MARGIN                 8
Info: HYDROGEN GROUP CUTOFF  2.5
Info: PATCH DIMENSION        21.5
Info: ENERGY OUTPUT STEPS    5000
Info: ENERGY EVALUATION STEPS    5000
Info: OUTPUT ENERGY PRECISION 4
Info: CROSSTERM ENERGY INCLUDED IN DIHEDRAL
Info: TIMING OUTPUT STEPS    50000
Info: PRESSURE OUTPUT STEPS  5000
Info: LANGEVIN DYNAMICS ACTIVE
Info: LANGEVIN TEMPERATURE   30
Info: LANGEVIN USING BBK INTEGRATOR
Info: LANGEVIN DAMPING COEFFICIENT IS 1 INVERSE PS
Info: LANGEVIN DYNAMICS APPLIED TO HYDROGENS
Info: LANGEVIN PISTON PRESSURE CONTROL ACTIVE
Info:        TARGET PRESSURE IS 1.01325 BAR
Info:     OSCILLATION PERIOD IS 50 FS
Info:             DECAY TIME IS 25 FS
Info:     PISTON TEMPERATURE IS 300 K
Info:       PRESSURE CONTROL IS GROUP-BASED
Info:    INITIAL STRAIN RATE IS 0 0 0
Info:       CELL FLUCTUATION IS ISOTROPIC
Info: PARTICLE MESH EWALD (PME) ACTIVE
Info: PME TOLERANCE               1e-06
Info: PME EWALD COEFFICIENT       0.348832
Info: PME INTERPOLATION ORDER     4
Info: PME GRID DIMENSIONS         40 40 44
Info: PME MAXIMUM GRID SPACING    1
Info: FULL ELECTROSTATIC EVALUATION FREQUENCY      2
Info: USING VERLET I (r-RESPA) MTS SCHEME.
Info: C1 SPLITTING OF LONG RANGE ELECTROSTATICS
Info: PLACING ATOMS IN PATCHES BY HYDROGEN GROUPS
Info: RIGID BONDS TO HYDROGEN : ALL
Info:         ERROR TOLERANCE : 1e-08
Info:          MAX ITERATIONS : 100
Info: RIGID WATER USING SETTLE ALGORITHM
Info: RANDOM NUMBER SEED     1741322254
Info: USE HYDROGEN BONDS?    NO
Info: Using AMBER format force field!
Info: AMBER PARM FILE        mobley_3259411.prmtop
Info: COORDINATE PDB         mobley_3259411.pdb
Info: Exclusions will be read from PARM file!
Info: SCNB (VDW SCALING)     2
Info: USING ARITHMETIC MEAN TO COMBINE L-J SIGMA PARAMETERS
Info: BINARY COORDINATES     mobley_3259411_min.coor
Info: SUMMARY OF PARAMETERS:
Info: 6 BONDS
Info: 6 ANGLES
Info: 8 DIHEDRAL
Info: 0 IMPROPER
Info: 0 CROSSTERM
Info: 0 VDW
Info: 21 VDW_PAIRS
Info: 0 NBTHOLE_PAIRS
Info: STRUCTURE SUMMARY:
Info: 4421 ATOMS
Info: 4420 BONDS
Info: 21 ANGLES
Info: 35 DIHEDRALS
Info: 0 IMPROPERS
Info: 0 CROSSTERMS
Info: 4468 EXCLUSIONS
Info: 4415 RIGID BONDS
Info: 8848 DEGREES OF FREEDOM
Info: 1475 HYDROGEN GROUPS
Info: 3 ATOMS IN LARGEST HYDROGEN GROUP
Info: 1475 MIGRATION GROUPS
Info: 3 ATOMS IN LARGEST MIGRATION GROUP
Info: TOTAL MASS = 26557.6 amu
Info: TOTAL CHARGE = 9.99272e-05 e
Info: MASS DENSITY = 0.705473 g/cm^3
Info: ATOM DENSITY = 0.0707217 atoms/A^3
Info: ADDED 0 IMPLICIT EXCLUSIONS
Info: NONBONDED TABLE R-SQUARED SPACING: 0.0625
Info: NONBONDED TABLE SIZE: 705 POINTS
Info: REMOVING COM VELOCITY 0.141407 -0.0134293 0.092207
TCL: Running for 25000 steps
ETITLE: TS BOND ANGLE DIHED IMPRP ELECT VDW BOUNDARY MISC KINETIC TOTAL TEMP POTENTIAL TOTAL3 TEMPAVG PRESSURE GPRESSURE VOLUME PRESSAVG GPRESSAVG
ENERGY: 0 0.3391 1.1038 5.1363 0.0000 -20292.1106 3548.1498 0.0000 0.0000 2623.1872 -14114.1944 298.3833 -16737.3817 -14113.6506 298.3833 502.0717 526.9501 62512.6253 502.0717 526.9501
ENERGY: 5000 0.1837 1.2292 4.9224 0.0000 -21107.9350 3677.2850 0.0000 0.0000 271.5795 -17152.7351 30.8917 -17424.3146 -17152.3454 47.2847 191.2118 236.8016 43845.4282 -1.5112 -1.6450
ENERGY: 10000 0.3272 0.6242 4.9268 0.0000 -21120.4558 3672.8217 0.0000 0.0000 265.5245 -17176.2314 30.2030 -17441.7559 -17175.5078 30.2607 174.3902 242.8456 43643.3522 -1.7475 -1.4587
ENERGY: 15000 0.6523 0.6117 4.8125 0.0000 -20877.2304 3420.6910 0.0000 0.0000 264.3715 -17186.0913 30.0718 -17450.4629 -17185.7297 29.9738 -1296.7414 -1232.9495 44023.5110 2.8389 2.9942
ENERGY: 20000 0.1502 1.4597 4.7133 0.0000 -21271.0673 3804.7833 0.0000 0.0000 266.0677 -17193.8931 30.2648 -17459.9608 -17192.9424 30.0986 894.9092 952.8067 43479.7244 4.1758 4.0563
ENERGY: 25000 0.6096 0.7568 4.8799 0.0000 -21006.9856 3536.7450 0.0000 0.0000 267.4857 -17196.5085 30.4261 -17463.9943 -17196.0322 29.8830 -676.2398 -632.6714 43912.7982 2.7478 2.7813
TCL: Running 25000 steps at 60 kelvin.
TCL: Setting parameter langevinTemp to 60
TCL: Running for 25000 steps
ETITLE: TS BOND ANGLE DIHED IMPRP ELECT VDW BOUNDARY MISC KINETIC TOTAL TEMP POTENTIAL TOTAL3 TEMPAVG PRESSURE GPRESSURE VOLUME PRESSAVG GPRESSAVG
ENERGY: 25000 0.6096 0.7568 4.8799 0.0000 -21006.9856 3536.7450 0.0000 0.0000 267.3550 -17196.6392 30.4112 -17463.9943 -17196.0021 30.4112 -698.8812 -632.8010 43912.7982 -698.8812 -632.8010
ENERGY: 30000 0.1746 1.2783 4.7334 0.0000 -20765.0590 3509.8785 0.0000 0.0000 529.5745 -16719.4197 60.2383 -17248.9942 -16717.5989 57.2188 -312.4812 -224.8030 43865.7399 4.1467 4.2002
ENERGY: 35000 0.2428 1.4467 4.7038 0.0000 -20929.9177 3631.2051 0.0000 0.0000 534.5307 -16757.7887 60.8020 -17292.3194 -16756.5950 60.5558 283.8968 340.7868 43655.7162 5.2716 5.2796
ENERGY: 40000 0.1199 2.1654 4.7402 0.0000 -21107.3625 3780.0346 0.0000 0.0000 520.1780 -16800.1244 59.1694 -17320.3024 -16798.5508 60.3072 1103.2780 1161.8900 43504.6016 2.5280 2.5946
ENERGY: 45000 0.5556 1.9580 4.5812 0.0000 -20986.8386 3622.0759 0.0000 0.0000 523.7593 -16833.9086 59.5768 -17357.6680 -16832.5322 59.7942 127.7092 141.7151 43626.7254 8.2421 8.1201
ENERGY: 50000 1.2031 1.2779 4.5316 0.0000 -20837.6189 3479.7263 0.0000 0.0000 525.0389 -16825.8410 59.7223 -17350.8799 -16824.5206 59.9369 -759.1825 -700.8439 43914.2181 1.9345 1.9805
TCL: Running 25000 steps at 90 kelvin.
TCL: Setting parameter langevinTemp to 90
TCL: Running for 25000 steps
ETITLE: TS BOND ANGLE DIHED IMPRP ELECT VDW BOUNDARY MISC KINETIC TOTAL TEMP POTENTIAL TOTAL3 TEMPAVG PRESSURE GPRESSURE VOLUME PRESSAVG GPRESSAVG
ENERGY: 50000 1.2031 1.2779 4.5316 0.0000 -20837.6189 3479.7263 0.0000 0.0000 524.7798 -16826.1001 59.6929 -17350.8799 -16824.7695 59.6929 -762.6652 -700.6938 43914.2181 -762.6652 -700.6938
ENERGY: 55000 0.7029 1.1958 5.0600 0.0000 -20651.8550 3545.2494 0.0000 0.0000 796.9464 -16302.7005 90.6514 -17099.6469 -16301.0239 87.3129 308.4636 373.0636 43616.3839 3.2893 3.4490
ENERGY: 60000 0.7641 1.6538 4.6300 0.0000 -20666.0859 3510.4365 0.0000 0.0000 787.8598 -16360.7417 89.6178 -17148.6015 -16359.0543 90.2282 -52.2666 32.5548 43755.2203 2.1991 2.0152
ENERGY: 65000 0.2790 1.3117 4.7071 0.0000 -20761.6292 3563.7837 0.0000 0.0000 789.0226 -16402.5250 89.7501 -17191.5476 -16400.3174 90.4429 288.4087 336.8603 43437.2142 9.1132 9.0406
ENERGY: 70000 0.6734 1.1469 4.8167 0.0000 -20859.1452 3650.3129 0.0000 0.0000 780.8228 -16421.3726 88.8173 -17202.1954 -16419.7860 89.7213 717.4260 765.7549 43172.8692 8.0259 8.4437
ENERGY: 75000 0.3432 1.8226 4.6580 0.0000 -20864.9521 3627.7484 0.0000 0.0000 764.8566 -16465.5233 87.0012 -17230.3799 -16464.2762 90.2709 524.9028 596.1771 43223.1226 3.0332 3.2797
TCL: Running 25000 steps at 120 kelvin.
TCL: Setting parameter langevinTemp to 120
TCL: Running for 25000 steps
ETITLE: TS BOND ANGLE DIHED IMPRP ELECT VDW BOUNDARY MISC KINETIC TOTAL TEMP POTENTIAL TOTAL3 TEMPAVG PRESSURE GPRESSURE VOLUME PRESSAVG GPRESSAVG
ENERGY: 75000 0.3432 1.8226 4.6580 0.0000 -20864.9521 3627.7484 0.0000 0.0000 764.4780 -16465.9019 86.9581 -17230.3799 -16464.5080 86.9581 531.2085 595.9411 43223.1226 531.2085 595.9411
ENERGY: 80000 1.8262 1.6365 4.8200 0.0000 -20401.7475 3446.8756 0.0000 0.0000 1063.5685 -15883.0207 120.9792 -16946.5892 -15881.8381 116.7995 184.7571 230.6293 43565.8857 6.4736 6.3805
ENERGY: 85000 0.6309 1.3336 4.7085 0.0000 -20327.9789 3388.7070 0.0000 0.0000 1084.3100 -15848.2890 123.3385 -16932.5989 -15845.1402 120.7015 -150.1038 -72.1086 43688.1425 3.2031 3.3355
ENERGY: 90000 1.2859 2.0717 4.5891 0.0000 -20532.6262 3507.2875 0.0000 0.0000 1052.1178 -15965.2741 119.6767 -17017.3920 -15964.0122 120.8478 289.1814 378.9984 43612.1546 1.4936 1.3995
ENERGY: 95000 3.1793 3.3581 4.8909 0.0000 -20398.6770 3400.7410 0.0000 0.0000 1062.9472 -15923.5605 120.9085 -16986.5077 -15921.2590 120.7003 -332.4083 -278.3633 43807.4452 -0.5688 -0.3744
ENERGY: 100000 1.0163 3.1699 4.7389 0.0000 -20436.3140 3381.3694 0.0000 0.0000 1075.2425 -15970.7771 122.3071 -17046.0195 -15969.0874 120.3265 -444.3124 -385.4540 43598.4595 5.8145 5.0579
TCL: Running 25000 steps at 150 kelvin.
TCL: Setting parameter langevinTemp to 150
TCL: Running for 25000 steps
ETITLE: TS BOND ANGLE DIHED IMPRP ELECT VDW BOUNDARY MISC KINETIC TOTAL TEMP POTENTIAL TOTAL3 TEMPAVG PRESSURE GPRESSURE VOLUME PRESSAVG GPRESSAVG
ENERGY: 100000 1.0163 3.1699 4.7389 0.0000 -20436.3140 3381.3694 0.0000 0.0000 1074.7299 -15971.2896 122.2488 -17046.0195 -15969.1316 122.2488 -445.7524 -385.3217 43598.4595 -445.7524 -385.3217
ENERGY: 105000 0.4117 3.1870 5.2825 0.0000 -19838.7088 3179.6639 0.0000 0.0000 1326.4280 -15323.7356 150.8791 -16650.1636 -15320.8496 146.7823 -736.7396 -655.8241 44197.0813 3.3735 3.6426
ENERGY: 110000 0.3756 3.2667 5.0170 0.0000 -20048.1145 3321.3796 0.0000 0.0000 1313.4712 -15404.6044 149.4052 -16718.0756 -15401.3413 149.3910 -20.9377 45.3547 43701.7730 7.0525 7.3092
ENERGY: 115000 0.7681 3.0015 5.1663 0.0000 -20115.1826 3376.6615 0.0000 0.0000 1313.2484 -15416.3367 149.3799 -16729.5851 -15413.5531 149.8387 298.6218 357.2753 43375.1646 11.2906 12.0048
ENERGY: 120000 0.8690 2.1780 4.5716 0.0000 -20014.2059 3219.7079 0.0000 0.0000 1300.0493 -15486.8302 147.8785 -16786.8795 -15483.6067 149.7854 -572.9087 -488.1640 43411.4683 1.9811 2.1639
ENERGY: 125000 1.3207 1.8805 4.9606 0.0000 -20087.4656 3312.6360 0.0000 0.0000 1312.0287 -15454.6391 149.2412 -16766.6679 -15452.7373 148.8422 -22.7726 48.7896 43278.5130 -1.3305 -1.3663
TCL: Running 50000 steps at 180 kelvin.
TCL: Setting parameter langevinTemp to 180
TCL: Running for 50000 steps
ETITLE: TS BOND ANGLE DIHED IMPRP ELECT VDW BOUNDARY MISC KINETIC TOTAL TEMP POTENTIAL TOTAL3 TEMPAVG PRESSURE GPRESSURE VOLUME PRESSAVG GPRESSAVG
ENERGY: 125000 1.3207 1.8805 4.9606 0.0000 -20087.4656 3312.6360 0.0000 0.0000 1311.3953 -15455.2726 149.1691 -16766.6679 -15452.6045 149.1691 -24.2084 48.1614 43278.5130 -24.2084 48.1614
ENERGY: 135000 3.3248 4.1073 5.0420 0.0000 -19610.2296 3178.1215 0.0000 0.0000 1570.2130 -14849.4209 178.6092 -16419.6340 -14845.5419 179.9657 116.1397 161.6142 43238.1884 7.8155 7.5972
ENERGY: 145000 2.8216 2.1179 4.8505 0.0000 -19444.4492 3011.6903 0.0000 0.0000 1585.4321 -14837.5367 180.3404 -16422.9689 -14833.5896 180.4652 -978.4100 -872.3401 43457.3502 7.8749 8.0815
ENERGY: 155000 0.2350 5.7036 5.0253 0.0000 -19455.9033 2998.2641 0.0000 0.0000 1572.1144 -14874.5610 178.8255 -16446.6754 -14870.6631 178.2705 -817.7888 -798.1077 43027.7979 -1.2583 -1.2508
ENERGY: 165000 0.4450 2.5585 5.1000 0.0000 -19490.3867 3061.9427 0.0000 0.0000 1544.2853 -14876.0552 175.6600 -16420.3404 -14872.1096 179.8359 -641.3528 -541.3686 43324.1722 3.3669 2.8064
ENERGY: 175000 1.1263 4.3889 5.1950 0.0000 -19535.2003 3080.7950 0.0000 0.0000 1625.6720 -14818.0231 184.9176 -16443.6950 -14815.6610 180.4675 -546.3575 -444.8469 43179.7597 -0.4657 -0.8436
TCL: Running 50000 steps at 210 kelvin.
TCL: Setting parameter langevinTemp to 210
TCL: Running for 50000 steps
ETITLE: TS BOND ANGLE DIHED IMPRP ELECT VDW BOUNDARY MISC KINETIC TOTAL TEMP POTENTIAL TOTAL3 TEMPAVG PRESSURE GPRESSURE VOLUME PRESSAVG GPRESSAVG
ENERGY: 175000 1.1263 4.3889 5.1950 0.0000 -19535.2003 3080.7950 0.0000 0.0000 1624.8666 -14818.8284 184.8260 -16443.6950 -14815.8171 184.8260 -505.1395 -446.0355 43179.7597 -505.1395 -446.0355
ENERGY: 185000 0.9520 5.6679 4.9243 0.0000 -18660.5878 2864.4406 0.0000 0.0000 1870.5371 -13914.0658 212.7706 -15784.6030 -13909.3641 209.5865 -78.0580 -18.5196 43371.9523 1.7334 1.7734
ENERGY: 195000 1.9012 3.6289 5.6179 0.0000 -18643.1315 2883.8309 0.0000 0.0000 1875.3596 -13872.7930 213.3191 -15748.1527 -13867.6163 209.9416 175.5241 301.9919 43007.1095 6.3997 6.1994
ENERGY: 205000 0.4289 2.9794 5.2904 0.0000 -18519.6656 2808.1133 0.0000 0.0000 1861.6583 -13841.1954 211.7606 -15702.8537 -13837.1240 210.2189 -116.2261 -80.5588 43210.1894 1.7394 1.3404
ENERGY: 215000 0.4061 2.0677 6.2763 0.0000 -18404.8357 2710.9595 0.0000 0.0000 1830.9963 -13854.1298 208.2729 -15685.1261 -13851.0333 210.1099 -588.7816 -556.3534 43392.7904 -0.0349 0.5283
ENERGY: 225000 0.9460 3.4159 5.1307 0.0000 -18666.9947 2880.1408 0.0000 0.0000 1876.1029 -13901.2584 213.4037 -15777.3612 -13896.3986 210.5990 261.3800 362.5626 42690.4031 -1.5253 -1.4828
TCL: Running 50000 steps at 240 kelvin.
TCL: Setting parameter langevinTemp to 240
TCL: Running for 50000 steps
ETITLE: TS BOND ANGLE DIHED IMPRP ELECT VDW BOUNDARY MISC KINETIC TOTAL TEMP POTENTIAL TOTAL3 TEMPAVG PRESSURE GPRESSURE VOLUME PRESSAVG GPRESSAVG
ENERGY: 225000 0.9460 3.4159 5.1307 0.0000 -18666.9947 2880.1408 0.0000 0.0000 1875.1785 -13902.1827 213.2985 -15777.3612 -13899.1532 213.2985 277.2859 363.0852 42690.4031 277.2859 363.0852
ENERGY: 235000 1.8878 6.4720 5.0796 0.0000 -17585.0129 2591.4096 0.0000 0.0000 2128.2415 -12851.9224 242.0841 -14980.1639 -12848.0092 241.8715 248.4728 323.6860 43596.7060 1.6523 1.7020
ENERGY: 245000 1.0110 7.1674 5.5213 0.0000 -17695.0067 2593.0599 0.0000 0.0000 2126.4784 -12961.7688 241.8835 -15088.2472 -12958.0893 239.8837 -83.7934 34.8051 43945.1607 2.9456 2.7506
ENERGY: 255000 1.8426 6.1859 4.9111 0.0000 -17563.6349 2488.0142 0.0000 0.0000 2084.2114 -12978.4696 237.0757 -15062.6810 -12972.4239 239.3175 -420.9902 -320.0356 43405.1219 0.4703 0.5686
ENERGY: 265000 0.7294 3.2335 7.0986 0.0000 -17544.9823 2477.7912 0.0000 0.0000 2091.5943 -12964.5353 237.9155 -15056.1297 -12961.0902 240.5626 -504.7511 -444.8957 43798.1370 3.1016 3.5124
ENERGY: 275000 2.3201 7.0241 5.6561 0.0000 -17554.9675 2508.6640 0.0000 0.0000 2098.8794 -12932.4238 238.7442 -15031.3032 -12926.8898 241.0659 -460.9282 -358.3815 43741.9611 5.1846 4.9233
TCL: Running 50000 steps at 270 kelvin.
TCL: Setting parameter langevinTemp to 270
TCL: Running for 50000 steps
ETITLE: TS BOND ANGLE DIHED IMPRP ELECT VDW BOUNDARY MISC KINETIC TOTAL TEMP POTENTIAL TOTAL3 TEMPAVG PRESSURE GPRESSURE VOLUME PRESSAVG GPRESSAVG
ENERGY: 275000 2.3201 7.0241 5.6561 0.0000 -17554.9675 2508.6640 0.0000 0.0000 2097.8569 -12933.4464 238.6278 -15031.3032 -12929.8275 238.6278 -437.9047 -358.4637 43741.9611 -437.9047 -358.4637
ENERGY: 285000 1.1386 4.6658 5.0726 0.0000 -16892.5319 2412.9267 0.0000 0.0000 2418.6313 -12050.0968 275.1154 -14468.7281 -12045.8459 269.7470 367.0480 448.3811 44081.0544 2.0113 1.7706
ENERGY: 295000 3.1334 5.6891 5.1713 0.0000 -16916.6796 2396.8206 0.0000 0.0000 2396.9761 -12108.8892 272.6522 -14505.8652 -12106.2198 270.9410 260.6736 358.9636 43848.2404 5.9110 5.5847
ENERGY: 305000 2.0016 4.0174 5.4149 0.0000 -16920.7266 2395.0317 0.0000 0.0000 2416.2110 -12098.0500 274.8401 -14514.2610 -12090.7012 268.6979 45.1251 137.1379 44602.0083 1.7323 1.9995
ENERGY: 315000 0.3090 3.7882 4.3129 0.0000 -16753.1538 2233.4607 0.0000 0.0000 2330.0628 -12181.2203 265.0409 -14511.2830 -12176.3843 269.9716 -764.3422 -661.6040 44545.2116 -1.8836 -1.2760
ENERGY: 325000 0.7429 2.7884 5.5662 0.0000 -16778.3224 2374.9203 0.0000 0.0000 2316.8887 -12077.4160 263.5424 -14394.3047 -12072.3933 271.0512 52.6333 137.6769 44911.6725 5.7325 6.3788
TCL: Running 1000000 steps at 300 kelvin.
TCL: Setting parameter langevinTemp to 300
TCL: Running for 1000000 steps
ETITLE: TS BOND ANGLE DIHED IMPRP ELECT VDW BOUNDARY MISC KINETIC TOTAL TEMP POTENTIAL TOTAL3 TEMPAVG PRESSURE GPRESSURE VOLUME PRESSAVG GPRESSAVG
ENERGY: 325000 0.7429 2.7884 5.5662 0.0000 -16778.3224 2374.9203 0.0000 0.0000 2315.7109 -12078.5938 263.4084 -14394.3047 -12074.9067 263.4084 46.0766 137.4256 44911.6725 46.0766 137.4256
ENERGY: 525000 1.3351 5.7734 5.2589 0.0000 -16149.2455 2216.4829 0.0000 0.0000 2607.9385 -11312.4566 296.6488 -13920.3951 -11307.2271 298.5195 40.9792 171.2001 45632.1763 -1.2895 -1.2851
ENERGY: 725000 2.2689 5.1431 5.9431 0.0000 -16126.5686 2103.6589 0.0000 0.0000 2605.5075 -11404.0471 296.3723 -14009.5546 -11399.1308 297.9073 -618.7908 -547.9500 45635.8085 2.3693 1.6568
ENERGY: 925000 2.2336 5.2281 4.3371 0.0000 -16188.9589 2257.5289 0.0000 0.0000 2650.2990 -11269.3323 301.4673 -13919.6313 -11261.0970 300.4755 136.9401 194.5797 46057.1498 3.1025 2.8379
ENERGY: 1125000 1.1656 4.4690 5.1895 0.0000 -16154.7728 2230.7347 0.0000 0.0000 2671.6879 -11241.5261 303.9002 -13913.2140 -11237.2354 300.5247 280.2387 388.5299 45478.2264 3.6158 3.7768
ENERGY: 1325000 2.1767 6.7990 4.9681 0.0000 -15993.6039 2076.3749 0.0000 0.0000 2645.1220 -11258.1632 300.8784 -13903.2852 -11253.8697 300.2369 -766.3534 -662.2745 45905.4032 5.7597 5.1448
TCL: Exiting due to exit command.
