Info: SIMULATION PARAMETERS:
Info: TIMESTEP               2
Info: NUMBER OF STEPS        0
Info: STEPS PER CYCLE        10
Info: PERIODIC CELL BASIS 1  44.537 0 0
Info: PERIODIC CELL BASIS 2  0 41.628 0
Info: PERIODIC CELL BASIS 3  0 0 41.374
Info: PERIODIC CELL CENTER   0 0 0
Info: WRAPPING WATERS AROUND PERIODIC BOUNDARIES ON OUTPUT.
Info: WRAPPING ALL CLUSTERS AROUND PERIODIC BOUNDARIES ON OUTPUT.
Info: FIRST LDB TIMESTEP     50
Info: LAST LDB TIMESTEP     -1
Info: HOM BACKGROUND SCALING 1
Info: PME BACKGROUND SCALING 1
Info: MIN ATOMS PER PATCH    40
Info: EMPTY PATCH LOAD       40 ATOMS
Info: INITIAL TEMPERATURE    300
Info: CENTER OF MASS MOVING INITIALLY? NO
Info: DIELECTRIC             1
Info: EXCLUDE                SCALED ONE-FOUR
Info: 1-4 ELECTROSTATICS SCALED BY 0.833333
Info: MODIFIED 1-4 VDW PARAMETERS WILL BE USED
Info: DCD FILENAME           mobley_8052240_min.dcd
Info: DCD FREQUENCY          5000
Info: DCD FIRST STEP         5000
Info: DCD FILE WILL CONTAIN UNIT CELL DATA
Info: XST FILENAME           mobley_8052240_min.xst
Info: XST FREQUENCY          5000
Info: NO VELOCITY DCD OUTPUT
Info: NO FORCE DCD OUTPUT
Info: OUTPUT FILENAME        mobley_8052240_min
Info: BINARY OUTPUT FILES WILL BE USED
Info: RESTART FILENAME       mobley_8052240_min.restart
Info: RESTART FREQUENCY      5000
Info: BINARY RESTART FILES WILL BE USED
Info: CUTOFF                 9
Info: PAIRLIST DISTANCE      11
Info: PAIRLIST SHRINK RATE   0.01
Info: PAIRLIST GROW RATE     0.01
Info: PAIRLIST TRIGGER       0.3
Info: PAIRLISTS PER CYCLE    2
Info: PAIRLISTS ENABLED
Info: MARGIN                 8
Info: HYDROGEN GROUP CUTOFF  2.5
Info: PATCH DIMENSION        21.5
Info: ENERGY OUTPUT STEPS    5000
Info: ENERGY EVALUATION STEPS    5000
Info: OUTPUT ENERGY PRECISION 4
Info: CROSSTERM ENERGY INCLUDED IN DIHEDRAL
Info: TIMING OUTPUT STEPS    50000
Info: PRESSURE OUTPUT STEPS  5000
Info: LANGEVIN DYNAMICS ACTIVE
Info: LANGEVIN TEMPERATURE   300
Info: LANGEVIN USING BBK INTEGRATOR
Info: LANGEVIN DAMPING COEFFICIENT IS 1 INVERSE PS
Info: LANGEVIN DYNAMICS APPLIED TO HYDROGENS
Info: LANGEVIN PISTON PRESSURE CONTROL ACTIVE
Info:        TARGET PRESSURE IS 1.01325 BAR
Info:     OSCILLATION PERIOD IS 50 FS
Info:             DECAY TIME IS 25 FS
Info:     PISTON TEMPERATURE IS 300 K
Info:       PRESSURE CONTROL IS GROUP-BASED
Info:    INITIAL STRAIN RATE IS 0 0 0
Info:       CELL FLUCTUATION IS ISOTROPIC
Info: PARTICLE MESH EWALD (PME) ACTIVE
Info: PME TOLERANCE               1e-06
Info: PME EWALD COEFFICIENT       0.348832
Info: PME INTERPOLATION ORDER     4
Info: PME GRID DIMENSIONS         48 44 44
Info: PME MAXIMUM GRID SPACING    1
Info: FULL ELECTROSTATIC EVALUATION FREQUENCY      2
Info: USING VERLET I (r-RESPA) MTS SCHEME.
Info: C1 SPLITTING OF LONG RANGE ELECTROSTATICS
Info: PLACING ATOMS IN PATCHES BY HYDROGEN GROUPS
Info: RIGID BONDS TO HYDROGEN : ALL
Info:         ERROR TOLERANCE : 1e-08
Info:          MAX ITERATIONS : 100
Info: RIGID WATER USING SETTLE ALGORITHM
Info: RANDOM NUMBER SEED     1741407566
Info: USE HYDROGEN BONDS?    NO
Info: Using AMBER format force field!
Info: AMBER PARM FILE        mobley_8052240.prmtop
Info: COORDINATE PDB         mobley_8052240.pdb
Info: Exclusions will be read from PARM file!
Info: SCNB (VDW SCALING)     2
Info: USING ARITHMETIC MEAN TO COMBINE L-J SIGMA PARAMETERS
Info: SUMMARY OF PARAMETERS:
Info: 8 BONDS
Info: 8 ANGLES
Info:   8 HARMONIC
Info:   0 COSINE-BASED
Info: 6 DIHEDRAL
Info: 0 IMPROPER
Info: 0 CROSSTERM
Info: 0 VDW
Info: 28 VDW_PAIRS
Info: 0 NBTHOLE_PAIRS
Info: STRUCTURE SUMMARY:
Info: 5552 ATOMS
Info: 5554 BONDS
Info: 45 ANGLES
Info: 77 DIHEDRALS
Info: 0 IMPROPERS
Info: 0 CROSSTERMS
Info: 5658 EXCLUSIONS
Info: 5535 RIGID BONDS
Info: 11121 DEGREES OF FREEDOM
Info: 1859 HYDROGEN GROUPS
Info: 3 ATOMS IN LARGEST HYDROGEN GROUP
Info: 1859 MIGRATION GROUPS
Info: 3 ATOMS IN LARGEST MIGRATION GROUP
Info: TOTAL MASS = 33408.7 amu
Info: TOTAL CHARGE = 2.23517e-08 e
Info: MASS DENSITY = 0.723244 g/cm^3
Info: ATOM DENSITY = 0.0723795 atoms/A^3
Info: ADDED 0 IMPLICIT EXCLUSIONS
Info: NONBONDED TABLE R-SQUARED SPACING: 0.0625
Info: NONBONDED TABLE SIZE: 705 POINTS
Info: REMOVING COM VELOCITY 0.0209358 -0.054147 -0.0401565
TCL: Minimizing for 2000 steps
ETITLE: TS BOND ANGLE DIHED IMPRP ELECT VDW BOUNDARY MISC KINETIC TOTAL TEMP POTENTIAL TOTAL3 TEMPAVG PRESSURE GPRESSURE VOLUME PRESSAVG GPRESSAVG
ENERGY: 0 0.2909 2.0789 0.0248 0.0000 -17271.0541 1964.3800 0.0000 0.0000 0.0000 -15304.2794 0.0000 -15304.2794 -15304.2794 0.0000 11279.4171 -15326.5720 76706.8265 11279.4171 -15326.5720
ENERGY: 400 28.2171 7.7946 1.6118 0.0000 -23530.2193 3642.3835 0.0000 0.0000 0.0000 -19850.2122 0.0000 -19850.2122 -19850.2122 0.0000 16889.4757 16980.1473 76706.8265 16889.4757 16980.1473
ENERGY: 800 24.3927 7.4373 2.7052 0.0000 -24463.9819 3991.3980 0.0000 0.0000 0.0000 -20438.0485 0.0000 -20438.0485 -20438.0485 0.0000 18168.3071 18231.9124 76706.8265 18168.3071 18231.9124
ENERGY: 1200 5.2727 2.2529 2.6899 0.0000 -24940.5531 4179.7401 0.0000 0.0000 0.0000 -20750.5974 0.0000 -20750.5974 -20750.5974 0.0000 19109.4957 19178.6939 76706.8265 19109.4957 19178.6939
ENERGY: 1600 1.6503 1.1232 2.1617 0.0000 -25191.7427 4284.5973 0.0000 0.0000 0.0000 -20902.2103 0.0000 -20902.2103 -20902.2103 0.0000 19592.8225 19640.4926 76706.8265 19592.8225 19640.4926
ENERGY: 2000 1.2392 1.1499 1.9958 0.0000 -25312.3608 4309.5509 0.0000 0.0000 0.0000 -20998.4249 0.0000 -20998.4249 -20998.4249 0.0000 19733.6414 19783.7153 76706.8265 19733.6414 19783.7153
TCL: Exiting due to exit command.
Info: NAMD 3.0.1 for Linux-x86_64-multicore
Info: Please visit http://www.ks.uiuc.edu/Research/namd/
Info: for updates, documentation, and support information.
Info: Please cite Phillips et al., J. Chem. Phys. 153:044130 (2020) doi:10.1063/5.0014475
Info: in all publications reporting results obtained with NAMD.
Info: Based on Charm++/Converse 80000 for multicore-linux-x86_64-gcc
Info: Built Mon Oct 14 11:11:06 CDT 2024 by dhardy on athine.ks.uiuc.edu
Info: 1 NAMD  3.0.1  Linux-x86_64-multicore  16    k065  z5358697
Info: Running on 16 processors, 1 nodes, 1 physical nodes.
Info: CPU topology information available.
Info: Charm++/Converse parallel runtime startup completed at 0.0365959 s
Info: 1043.46 MB of memory in use based on /proc/self/stat
Info: Configuration file is mobley_8052240_equil.namd
Info: Working in the current directory /srv/scratch/z5358697/prod_prep_10/8052240
TCL: Running 25000 steps at 30 kelvin.
TCL: Suspending until startup complete.
Info: SIMULATION PARAMETERS:
Info: TIMESTEP               2
Info: NUMBER OF STEPS        0
Info: STEPS PER CYCLE        10
Info: PERIODIC CELL BASIS 1  44.537 0 0
Info: PERIODIC CELL BASIS 2  0 41.628 0
Info: PERIODIC CELL BASIS 3  0 0 41.374
Info: PERIODIC CELL CENTER   0 0 0
Info: WRAPPING WATERS AROUND PERIODIC BOUNDARIES ON OUTPUT.
Info: WRAPPING ALL CLUSTERS AROUND PERIODIC BOUNDARIES ON OUTPUT.
Info: FIRST LDB TIMESTEP     50
Info: LAST LDB TIMESTEP     -1
Info: HOM BACKGROUND SCALING 1
Info: PME BACKGROUND SCALING 1
Info: MIN ATOMS PER PATCH    40
Info: EMPTY PATCH LOAD       40 ATOMS
Info: INITIAL TEMPERATURE    300
Info: CENTER OF MASS MOVING INITIALLY? NO
Info: DIELECTRIC             1
Info: EXCLUDE                SCALED ONE-FOUR
Info: 1-4 ELECTROSTATICS SCALED BY 0.833333
Info: MODIFIED 1-4 VDW PARAMETERS WILL BE USED
Info: DCD FILENAME           mobley_8052240_equil.dcd
Info: DCD FREQUENCY          5000
Info: DCD FIRST STEP         5000
Info: DCD FILE WILL CONTAIN UNIT CELL DATA
Info: XST FILENAME           mobley_8052240_equil.xst
Info: XST FREQUENCY          5000
Info: NO VELOCITY DCD OUTPUT
Info: NO FORCE DCD OUTPUT
Info: OUTPUT FILENAME        mobley_8052240_equil
Info: BINARY OUTPUT FILES WILL BE USED
Info: RESTART FILENAME       mobley_8052240_equil.restart
Info: RESTART FREQUENCY      5000
Info: BINARY RESTART FILES WILL BE USED
Info: CUTOFF                 9
Info: PAIRLIST DISTANCE      11
Info: PAIRLIST SHRINK RATE   0.01
Info: PAIRLIST GROW RATE     0.01
Info: PAIRLIST TRIGGER       0.3
Info: PAIRLISTS PER CYCLE    2
Info: PAIRLISTS ENABLED
Info: MARGIN                 8
Info: HYDROGEN GROUP CUTOFF  2.5
Info: PATCH DIMENSION        21.5
Info: ENERGY OUTPUT STEPS    5000
Info: ENERGY EVALUATION STEPS    5000
Info: OUTPUT ENERGY PRECISION 4
Info: CROSSTERM ENERGY INCLUDED IN DIHEDRAL
Info: TIMING OUTPUT STEPS    50000
Info: PRESSURE OUTPUT STEPS  5000
Info: LANGEVIN DYNAMICS ACTIVE
Info: LANGEVIN TEMPERATURE   30
Info: LANGEVIN USING BBK INTEGRATOR
Info: LANGEVIN DAMPING COEFFICIENT IS 1 INVERSE PS
Info: LANGEVIN DYNAMICS APPLIED TO HYDROGENS
Info: LANGEVIN PISTON PRESSURE CONTROL ACTIVE
Info:        TARGET PRESSURE IS 1.01325 BAR
Info:     OSCILLATION PERIOD IS 50 FS
Info:             DECAY TIME IS 25 FS
Info:     PISTON TEMPERATURE IS 300 K
Info:       PRESSURE CONTROL IS GROUP-BASED
Info:    INITIAL STRAIN RATE IS 0 0 0
Info:       CELL FLUCTUATION IS ISOTROPIC
Info: PARTICLE MESH EWALD (PME) ACTIVE
Info: PME TOLERANCE               1e-06
Info: PME EWALD COEFFICIENT       0.348832
Info: PME INTERPOLATION ORDER     4
Info: PME GRID DIMENSIONS         48 44 44
Info: PME MAXIMUM GRID SPACING    1
Info: FULL ELECTROSTATIC EVALUATION FREQUENCY      2
Info: USING VERLET I (r-RESPA) MTS SCHEME.
Info: C1 SPLITTING OF LONG RANGE ELECTROSTATICS
Info: PLACING ATOMS IN PATCHES BY HYDROGEN GROUPS
Info: RIGID BONDS TO HYDROGEN : ALL
Info:         ERROR TOLERANCE : 1e-08
Info:          MAX ITERATIONS : 100
Info: RIGID WATER USING SETTLE ALGORITHM
Info: RANDOM NUMBER SEED     1741407589
Info: USE HYDROGEN BONDS?    NO
Info: Using AMBER format force field!
Info: AMBER PARM FILE        mobley_8052240.prmtop
Info: COORDINATE PDB         mobley_8052240.pdb
Info: Exclusions will be read from PARM file!
Info: SCNB (VDW SCALING)     2
Info: USING ARITHMETIC MEAN TO COMBINE L-J SIGMA PARAMETERS
Info: BINARY COORDINATES     mobley_8052240_min.coor
Info: SUMMARY OF PARAMETERS:
Info: 8 BONDS
Info: 8 ANGLES
Info:   8 HARMONIC
Info:   0 COSINE-BASED
Info: 6 DIHEDRAL
Info: 0 IMPROPER
Info: 0 CROSSTERM
Info: 0 VDW
Info: 28 VDW_PAIRS
Info: 0 NBTHOLE_PAIRS
Info: STRUCTURE SUMMARY:
Info: 5552 ATOMS
Info: 5554 BONDS
Info: 45 ANGLES
Info: 77 DIHEDRALS
Info: 0 IMPROPERS
Info: 0 CROSSTERMS
Info: 5658 EXCLUSIONS
Info: 5535 RIGID BONDS
Info: 11121 DEGREES OF FREEDOM
Info: 1859 HYDROGEN GROUPS
Info: 3 ATOMS IN LARGEST HYDROGEN GROUP
Info: 1859 MIGRATION GROUPS
Info: 3 ATOMS IN LARGEST MIGRATION GROUP
Info: TOTAL MASS = 33408.7 amu
Info: TOTAL CHARGE = 2.23517e-08 e
Info: MASS DENSITY = 0.723244 g/cm^3
Info: ATOM DENSITY = 0.0723795 atoms/A^3
Info: ADDED 0 IMPLICIT EXCLUSIONS
Info: NONBONDED TABLE R-SQUARED SPACING: 0.0625
Info: NONBONDED TABLE SIZE: 705 POINTS
Info: REMOVING COM VELOCITY -0.0943935 0.00879889 -0.0861224
TCL: Running for 25000 steps
ETITLE: TS BOND ANGLE DIHED IMPRP ELECT VDW BOUNDARY MISC KINETIC TOTAL TEMP POTENTIAL TOTAL3 TEMPAVG PRESSURE GPRESSURE VOLUME PRESSAVG GPRESSAVG
ENERGY: 0 1.2392 1.1499 1.9958 0.0000 -25312.3608 4309.5509 0.0000 0.0000 3356.2983 -17642.1267 303.7436 -20998.4249 -17641.4632 303.7436 82.3859 120.5034 76706.8265 82.3859 120.5034
ENERGY: 5000 1.9900 1.5168 7.1645 0.0000 -26610.6553 4569.4849 0.0000 0.0000 329.2157 -21701.2834 29.7939 -22030.4991 -21700.4453 48.3681 -149.5321 -90.6783 53553.8953 3.4367 3.3924
ENERGY: 10000 1.2732 2.2907 5.2516 0.0000 -26685.1434 4623.4352 0.0000 0.0000 344.0298 -21708.8629 31.1346 -22052.8927 -21707.8162 30.2816 37.4664 105.5748 53519.0424 6.1652 6.3110
ENERGY: 15000 1.0950 2.0733 6.5887 0.0000 -26793.5785 4699.8224 0.0000 0.0000 336.4627 -21747.5363 30.4497 -22083.9990 -21746.8892 29.9519 334.4780 394.5288 53476.8489 5.0933 4.9317
ENERGY: 20000 1.2250 1.7980 6.0315 0.0000 -26775.3546 4673.5769 0.0000 0.0000 333.6947 -21759.0285 30.1992 -22092.7232 -21758.0687 30.1245 189.2274 240.7888 53364.4233 -1.0561 -1.1433
ENERGY: 25000 1.4420 1.5564 5.7176 0.0000 -26834.5745 4713.4416 0.0000 0.0000 328.2980 -21784.1188 29.7108 -22112.4168 -21783.1246 30.1211 385.3349 447.0109 53195.3121 9.8900 9.8164
TCL: Running 25000 steps at 60 kelvin.
TCL: Setting parameter langevinTemp to 60
TCL: Running for 25000 steps
ETITLE: TS BOND ANGLE DIHED IMPRP ELECT VDW BOUNDARY MISC KINETIC TOTAL TEMP POTENTIAL TOTAL3 TEMPAVG PRESSURE GPRESSURE VOLUME PRESSAVG GPRESSAVG
ENERGY: 25000 1.4420 1.5564 5.7176 0.0000 -26834.5745 4713.4416 0.0000 0.0000 328.1368 -21784.2800 29.6962 -22112.4168 -21783.5545 29.6962 384.3692 447.0540 53195.3121 384.3692 447.0540
ENERGY: 30000 1.9866 3.5701 5.9054 0.0000 -26253.7960 4434.7774 0.0000 0.0000 675.1066 -21132.4498 61.0969 -21807.5564 -21130.7892 57.0276 -330.4989 -288.8050 53605.2839 4.5289 4.6976
ENERGY: 35000 0.8310 2.5556 6.1394 0.0000 -26423.8663 4544.5463 0.0000 0.0000 657.1565 -21212.6374 59.4724 -21869.7940 -21210.6630 59.8717 183.3670 239.7734 53273.5611 4.7335 4.3666
ENERGY: 40000 2.4452 3.7574 4.8166 0.0000 -26605.2355 4687.4238 0.0000 0.0000 670.0110 -21236.7813 60.6357 -21906.7923 -21234.6862 59.9027 665.5892 704.7101 53163.3136 0.5388 0.8019
ENERGY: 45000 1.5762 2.6429 6.0601 0.0000 -26570.2593 4616.8373 0.0000 0.0000 680.2041 -21262.9387 61.5582 -21943.1428 -21261.1346 60.4649 329.4524 388.1007 53287.4683 5.7243 5.9285
ENERGY: 50000 2.2801 3.6215 6.1186 0.0000 -26467.1117 4515.2384 0.0000 0.0000 657.5960 -21282.2572 59.5122 -21939.8532 -21281.0091 59.9306 -199.7510 -125.1039 53357.7088 -2.1789 -2.2424
TCL: Running 25000 steps at 90 kelvin.
TCL: Setting parameter langevinTemp to 90
TCL: Running for 25000 steps
ETITLE: TS BOND ANGLE DIHED IMPRP ELECT VDW BOUNDARY MISC KINETIC TOTAL TEMP POTENTIAL TOTAL3 TEMPAVG PRESSURE GPRESSURE VOLUME PRESSAVG GPRESSAVG
ENERGY: 50000 2.2801 3.6215 6.1186 0.0000 -26467.1117 4515.2384 0.0000 0.0000 657.2692 -21282.5840 59.4826 -21939.8532 -21281.2052 59.4826 -189.3181 -125.3743 53357.7088 -189.3181 -125.3743
ENERGY: 55000 2.8625 2.9584 9.5750 0.0000 -25910.8212 4304.9972 0.0000 0.0000 991.7725 -20598.6557 89.7550 -21590.4282 -20596.4606 86.9173 -432.2277 -352.4528 53777.1669 3.9715 4.0274
ENERGY: 60000 2.1332 2.4981 7.3332 0.0000 -25946.7379 4325.3377 0.0000 0.0000 999.6904 -20609.7453 90.4716 -21609.4357 -20606.6068 90.1017 -414.3427 -346.0379 53911.5136 2.6577 2.6940
ENERGY: 65000 3.7324 3.1757 5.7953 0.0000 -26274.0589 4574.6208 0.0000 0.0000 1013.7885 -20672.9462 91.7474 -21686.7347 -20670.6591 90.3933 725.2489 766.9188 53224.5037 7.9637 7.7915
ENERGY: 70000 2.5534 3.3844 7.3720 0.0000 -26150.8058 4432.3467 0.0000 0.0000 994.2200 -20710.9293 89.9765 -21705.1493 -20709.2042 90.2207 -75.8476 1.5492 53630.8236 5.1726 5.1321
ENERGY: 75000 1.2921 2.8865 8.1557 0.0000 -26099.7631 4349.9996 0.0000 0.0000 983.6367 -20753.7926 89.0187 -21737.4293 -20750.8216 90.0737 -411.3042 -360.6202 53495.2685 6.1213 6.2253
TCL: Running 25000 steps at 120 kelvin.
TCL: Setting parameter langevinTemp to 120
TCL: Running for 25000 steps
ETITLE: TS BOND ANGLE DIHED IMPRP ELECT VDW BOUNDARY MISC KINETIC TOTAL TEMP POTENTIAL TOTAL3 TEMPAVG PRESSURE GPRESSURE VOLUME PRESSAVG GPRESSAVG
ENERGY: 75000 1.2921 2.8865 8.1557 0.0000 -26099.7631 4349.9996 0.0000 0.0000 983.1339 -20754.2954 88.9732 -21737.4293 -20752.3950 88.9732 -414.3503 -360.8818 53495.2685 -414.3503 -360.8818
ENERGY: 80000 2.7777 4.4998 7.9208 0.0000 -25432.4543 4076.9284 0.0000 0.0000 1320.0370 -20020.2906 119.4628 -21340.3276 -20018.9241 116.2537 -870.3972 -820.3512 53968.2561 8.9336 8.5998
ENERGY: 85000 4.2289 2.8987 3.8284 0.0000 -25523.5568 4157.7294 0.0000 0.0000 1308.9822 -20045.8891 118.4623 -21354.8714 -20043.0214 120.2504 -692.8796 -608.1611 54045.3434 7.4612 7.2028
ENERGY: 90000 2.2687 1.9550 5.1804 0.0000 -25834.8212 4428.6130 0.0000 0.0000 1323.2758 -20073.5283 119.7559 -21396.8041 -20071.9486 120.0159 659.3341 744.5686 53405.3580 3.6839 3.7288
ENERGY: 95000 2.8353 5.9907 6.6096 0.0000 -25849.5004 4407.9415 0.0000 0.0000 1318.7716 -20107.3518 119.3483 -21426.1233 -20104.4729 120.0323 527.9839 589.2897 53286.2653 1.8112 1.5032
ENERGY: 100000 2.4828 5.0052 5.3177 0.0000 -25706.5102 4277.3929 0.0000 0.0000 1331.2145 -20085.0971 120.4744 -21416.3116 -20083.1478 119.9124 -102.0585 -46.7738 53467.1215 5.9005 6.1173
TCL: Running 25000 steps at 150 kelvin.
TCL: Setting parameter langevinTemp to 150
TCL: Running for 25000 steps
ETITLE: TS BOND ANGLE DIHED IMPRP ELECT VDW BOUNDARY MISC KINETIC TOTAL TEMP POTENTIAL TOTAL3 TEMPAVG PRESSURE GPRESSURE VOLUME PRESSAVG GPRESSAVG
ENERGY: 100000 2.4828 5.0052 5.3177 0.0000 -25706.5102 4277.3929 0.0000 0.0000 1330.5503 -20085.7613 120.4142 -21416.3116 -20082.9493 120.4142 -98.2799 -46.5084 53467.1215 -98.2799 -46.5084
ENERGY: 105000 5.1803 3.0540 5.7770 0.0000 -25098.8417 4059.2228 0.0000 0.0000 1640.3179 -19385.2896 148.4481 -21025.6076 -19381.3756 147.4159 -327.2520 -276.1558 53927.3999 2.9932 2.8440
ENERGY: 110000 4.7816 4.3302 6.7019 0.0000 -25268.3478 4203.2991 0.0000 0.0000 1678.5462 -19370.6886 151.9077 -21049.2349 -19366.1436 150.3583 325.0162 398.0102 53526.0483 0.7291 0.7119
ENERGY: 115000 5.2006 4.0705 3.8246 0.0000 -25313.5425 4209.4834 0.0000 0.0000 1627.9871 -19462.9764 147.3321 -21090.9635 -19458.7067 149.4856 283.2206 315.1580 53590.2460 5.6167 5.8359
ENERGY: 120000 4.3901 5.2205 3.3732 0.0000 -24957.1217 3868.7680 0.0000 0.0000 1674.6573 -19400.7126 151.5558 -21075.3699 -19397.8401 150.3792 -1309.5603 -1295.1418 54409.5009 5.8839 5.7197
ENERGY: 125000 5.4529 5.9339 3.0549 0.0000 -25289.5487 4123.6755 0.0000 0.0000 1656.6955 -19494.7360 149.9302 -21151.4315 -19490.7306 151.2010 -323.0366 -265.7844 53931.7184 1.8209 2.4055
TCL: Running 50000 steps at 180 kelvin.
TCL: Setting parameter langevinTemp to 180
TCL: Running for 50000 steps
ETITLE: TS BOND ANGLE DIHED IMPRP ELECT VDW BOUNDARY MISC KINETIC TOTAL TEMP POTENTIAL TOTAL3 TEMPAVG PRESSURE GPRESSURE VOLUME PRESSAVG GPRESSAVG
ENERGY: 125000 5.4529 5.9339 3.0549 0.0000 -25289.5487 4123.6755 0.0000 0.0000 1655.8654 -19495.5661 149.8551 -21151.4315 -19492.9346 149.8551 -325.3919 -265.9682 53931.7184 -325.3919 -265.9682
ENERGY: 135000 4.8779 6.0137 6.6170 0.0000 -24616.3061 3977.9141 0.0000 0.0000 2032.9716 -18587.9117 183.9831 -20620.8833 -18580.8462 178.9325 -72.1318 0.8873 54202.8336 8.1348 7.8907
ENERGY: 145000 4.8757 5.2043 4.9842 0.0000 -24644.2132 3973.3922 0.0000 0.0000 1997.6396 -18658.1174 180.7855 -20655.7570 -18652.3644 180.7708 -71.5529 5.5219 54297.0307 -0.7636 -0.5940
ENERGY: 155000 3.9372 4.7269 4.5625 0.0000 -24492.5337 3910.3749 0.0000 0.0000 1961.3891 -18607.5431 177.5049 -20568.9322 -18602.0851 179.7084 -292.5761 -244.8309 54580.7354 4.8704 5.3969
ENERGY: 165000 6.0980 3.8047 4.1570 0.0000 -24522.7566 3857.2957 0.0000 0.0000 1965.6013 -18685.7998 177.8861 -20651.4012 -18681.7383 180.2121 -690.5277 -607.7195 54683.0225 7.1736 7.0630
ENERGY: 175000 5.4255 3.8933 3.7815 0.0000 -24505.6343 3834.3144 0.0000 0.0000 1989.2905 -18668.9291 180.0300 -20658.2197 -18663.4225 180.0433 -727.1107 -674.5204 54630.8922 -1.0037 -0.6091
TCL: Running 50000 steps at 210 kelvin.
TCL: Setting parameter langevinTemp to 210
TCL: Running for 50000 steps
ETITLE: TS BOND ANGLE DIHED IMPRP ELECT VDW BOUNDARY MISC KINETIC TOTAL TEMP POTENTIAL TOTAL3 TEMPAVG PRESSURE GPRESSURE VOLUME PRESSAVG GPRESSAVG
ENERGY: 175000 5.4255 3.8933 3.7815 0.0000 -24505.6343 3834.3144 0.0000 0.0000 1988.3185 -18669.9012 179.9420 -20658.2197 -18666.0241 179.9420 -745.2332 -673.8718 54630.8922 -745.2332 -673.8718
ENERGY: 185000 4.4793 5.7073 10.8518 0.0000 -23319.5036 3461.7932 0.0000 0.0000 2354.6918 -17481.9802 213.0986 -19836.6720 -17474.3522 210.8397 -721.0745 -633.5385 54372.8971 1.9387 2.3469
ENERGY: 195000 4.8757 4.2905 6.9566 0.0000 -23311.6334 3607.0193 0.0000 0.0000 2307.6700 -17380.8213 208.8432 -19688.4913 -17374.7191 209.9854 260.9546 318.1984 54382.7751 2.0378 2.2938
ENERGY: 205000 4.5026 8.2013 6.2825 0.0000 -23459.9824 3591.2681 0.0000 0.0000 2330.3203 -17519.4077 210.8930 -19849.7280 -17513.7901 209.5005 -120.0698 -46.8149 54356.9535 1.4811 1.6805
ENERGY: 215000 3.0745 5.4465 5.0623 0.0000 -23652.7306 3802.4979 0.0000 0.0000 2309.7740 -17526.8756 209.0336 -19836.6495 -17524.1958 209.2690 951.1201 1016.7226 53933.5986 -1.3331 -0.9859
ENERGY: 225000 10.2062 4.8035 3.3595 0.0000 -23204.4420 3458.9747 0.0000 0.0000 2281.8137 -17445.2845 206.5032 -19727.0982 -17441.6568 209.8197 -384.5297 -301.9366 53869.0161 -0.3521 -0.0831
TCL: Running 50000 steps at 240 kelvin.
TCL: Setting parameter langevinTemp to 240
TCL: Running for 50000 steps
ETITLE: TS BOND ANGLE DIHED IMPRP ELECT VDW BOUNDARY MISC KINETIC TOTAL TEMP POTENTIAL TOTAL3 TEMPAVG PRESSURE GPRESSURE VOLUME PRESSAVG GPRESSAVG
ENERGY: 225000 10.2062 4.8035 3.3595 0.0000 -23204.4420 3458.9747 0.0000 0.0000 2280.6724 -17446.4258 206.3999 -19727.0982 -17442.2608 206.3999 -379.8466 -301.4963 53869.0161 -379.8466 -301.4963
ENERGY: 235000 3.6453 5.5258 6.9263 0.0000 -22294.4167 3323.0402 0.0000 0.0000 2707.4934 -16247.7858 245.0270 -18955.2791 -16243.4457 240.4494 579.4821 678.4072 54362.1936 3.0121 2.9384
ENERGY: 245000 6.6034 9.3694 5.9873 0.0000 -22164.7403 3114.3035 0.0000 0.0000 2663.2066 -16365.2701 241.0191 -19028.4767 -16359.8739 239.4543 -673.8054 -587.5037 55099.8837 3.5611 3.4622
ENERGY: 255000 8.6381 5.7771 10.7375 0.0000 -22396.0102 3376.5067 0.0000 0.0000 2653.9899 -16340.3609 240.1850 -18994.3509 -16334.0836 240.0119 383.0137 489.6822 54530.5794 2.3274 2.5124
ENERGY: 265000 6.1815 4.7874 2.8445 0.0000 -22338.4708 3343.0798 0.0000 0.0000 2642.6755 -16338.9020 239.1610 -18981.5776 -16334.2453 240.6233 223.8470 337.1242 54814.3884 2.8187 2.5727
ENERGY: 275000 4.7170 5.2933 8.5527 0.0000 -22054.9280 3167.3923 0.0000 0.0000 2708.1961 -16160.7767 245.0906 -18868.9728 -16156.4272 240.2396 -151.0910 -72.9195 54786.7081 2.2125 2.1696
TCL: Running 50000 steps at 270 kelvin.
TCL: Setting parameter langevinTemp to 270
TCL: Running for 50000 steps
ETITLE: TS BOND ANGLE DIHED IMPRP ELECT VDW BOUNDARY MISC KINETIC TOTAL TEMP POTENTIAL TOTAL3 TEMPAVG PRESSURE GPRESSURE VOLUME PRESSAVG GPRESSAVG
ENERGY: 275000 4.7170 5.2933 8.5527 0.0000 -22054.9280 3167.3923 0.0000 0.0000 2706.9140 -16162.0587 244.9746 -18868.9728 -16157.8046 244.9746 -164.5371 -73.7922 54786.7081 -164.5371 -73.7922
ENERGY: 285000 6.2404 7.9999 6.2299 0.0000 -21322.5799 3015.8789 0.0000 0.0000 3049.9320 -15236.2989 276.0175 -18286.2308 -15229.7522 269.5404 -5.9849 54.4879 55870.4559 0.8644 0.7190
ENERGY: 295000 7.8781 9.8292 6.7975 0.0000 -21196.7612 2942.8568 0.0000 0.0000 2913.2208 -15316.1789 263.6452 -18229.3996 -15310.4778 267.6642 -231.3816 -137.3800 55835.0393 4.8146 4.4957
ENERGY: 305000 5.5956 4.3733 9.7355 0.0000 -21074.3043 2930.5665 0.0000 0.0000 3067.9826 -15056.0508 277.6511 -18124.0334 -15048.3657 270.3404 -73.0329 29.9057 55865.8695 0.5953 0.0836
ENERGY: 315000 5.2512 3.6732 5.5630 0.0000 -20953.6832 2744.1090 0.0000 0.0000 3006.4941 -15188.5928 272.0864 -18195.0869 -15183.1156 270.5146 -1089.2483 -989.2421 56247.4441 -2.3117 -1.7662
ENERGY: 325000 3.8521 9.3167 6.3127 0.0000 -21337.2951 3036.8169 0.0000 0.0000 2977.6794 -15303.3173 269.4787 -18280.9967 -15298.2731 267.7803 249.2168 362.6625 55725.7621 4.3247 3.8205
TCL: Running 1000000 steps at 300 kelvin.
TCL: Setting parameter langevinTemp to 300
TCL: Running for 1000000 steps
ETITLE: TS BOND ANGLE DIHED IMPRP ELECT VDW BOUNDARY MISC KINETIC TOTAL TEMP POTENTIAL TOTAL3 TEMPAVG PRESSURE GPRESSURE VOLUME PRESSAVG GPRESSAVG
ENERGY: 325000 3.8521 9.3167 6.3127 0.0000 -21337.2951 3036.8169 0.0000 0.0000 2976.1968 -15304.7999 269.3445 -18280.9967 -15301.3593 269.3445 293.4573 362.9495 55725.7621 293.4573 362.9495
ENERGY: 525000 6.5748 5.8747 9.5911 0.0000 -20007.7163 2633.3075 0.0000 0.0000 3316.9668 -14035.4013 300.1841 -17352.3681 -14028.5002 300.1268 -93.0523 -44.8832 56902.8371 0.5447 -0.0342
ENERGY: 725000 10.2027 6.1374 13.7217 0.0000 -20089.3679 2627.6215 0.0000 0.0000 3347.7546 -14083.9301 302.9704 -17431.6846 -14077.1708 301.0997 -426.8849 -350.9531 57301.4043 1.1694 1.4019
ENERGY: 925000 8.0519 5.2330 9.2101 0.0000 -20106.2065 2723.8832 0.0000 0.0000 3266.9249 -14092.9035 295.6553 -17359.8284 -14086.4202 298.5916 7.9602 109.1067 57530.4229 2.9670 2.8459
ENERGY: 1125000 4.5258 5.7448 10.5488 0.0000 -20081.1325 2691.1179 0.0000 0.0000 3435.0490 -13934.1462 310.8705 -17369.1952 -13924.3735 300.9206 373.9511 452.5986 56601.1171 1.3300 1.2966
ENERGY: 1325000 4.8657 7.1618 8.9920 0.0000 -20341.6627 2745.1127 0.0000 0.0000 3365.4056 -14210.1250 304.5678 -17575.5305 -14202.7864 299.0324 49.6854 179.9763 56324.5052 1.3961 0.5656
TCL: Exiting due to exit command.
