Info: SIMULATION PARAMETERS:
Info: TIMESTEP               1
Info: NUMBER OF STEPS        0
Info: STEPS PER CYCLE        10
Info: PERIODIC CELL BASIS 1  30 0 0
Info: PERIODIC CELL BASIS 2  0 30 0
Info: PERIODIC CELL BASIS 3  0 0 30
Info: PERIODIC CELL CENTER   0 0 0
Info: WRAPPING ALL CLUSTERS AROUND PERIODIC BOUNDARIES ON OUTPUT.
Info: FIRST LDB TIMESTEP     50
Info: LAST LDB TIMESTEP     -1
Info: HOM BACKGROUND SCALING 1
Info: MIN ATOMS PER PATCH    40
Info: EMPTY PATCH LOAD       40 ATOMS
Info: INITIAL TEMPERATURE    298
Info: CENTER OF MASS MOVING INITIALLY? NO
Info: DIELECTRIC             1
Info: EXCLUDE                SCALED ONE-FOUR
Info: 1-4 ELECTROSTATICS SCALED BY 1
Info: MODIFIED 1-4 VDW PARAMETERS WILL BE USED
Info: DCD FILENAME           output.dcd
Info: DCD FREQUENCY          50
Info: DCD FIRST STEP         50
Info: DCD FILE WILL CONTAIN UNIT CELL DATA
Info: NO EXTENDED SYSTEM TRAJECTORY OUTPUT
Info: NO VELOCITY DCD OUTPUT
Info: NO FORCE DCD OUTPUT
Info: OUTPUT FILENAME        output
Info: BINARY OUTPUT FILES WILL BE USED
Info: NO RESTART FILE
Info: SWITCHING ACTIVE
Info: SWITCHING ON           10
Info: SWITCHING OFF          12
Info: PAIRLIST DISTANCE      14
Info: PAIRLIST SHRINK RATE   0.01
Info: PAIRLIST GROW RATE     0.01
Info: PAIRLIST TRIGGER       0.3
Info: PAIRLISTS PER CYCLE    2
Info: PAIRLISTS ENABLED
Info: MARGIN                 0
Info: HYDROGEN GROUP CUTOFF  2.5
Info: PATCH DIMENSION        16.5
Info: ENERGY OUTPUT STEPS    50
Info: ENERGY EVALUATION STEPS    50
Info: OUTPUT ENERGY PRECISION 4
Info: CROSSTERM ENERGY INCLUDED IN DIHEDRAL
Info: TIMING OUTPUT STEPS    50
Info: TEMPERATURE COUPLING ACTIVE
Info: COUPLING TEMPERATURE   298
Info: MULTILEVEL SUMMATION METHOD (MSM) FOR ELECTROSTATICS ACTIVE
Info: MSM WITH C1 CUBIC INTERPOLATION AND C2 TAYLOR SPLITTING
Info: FULL ELECTROSTATIC EVALUATION FREQUENCY      1
Info: USING VERLET I (r-RESPA) MTS SCHEME.
Info: C1 SPLITTING OF LONG RANGE ELECTROSTATICS
Info: PLACING ATOMS IN PATCHES BY HYDROGEN GROUPS
Info: RIGID BONDS TO HYDROGEN : ALL
Info:         ERROR TOLERANCE : 1e-08
Info:          MAX ITERATIONS : 100
Info: RIGID WATER USING SETTLE ALGORITHM
Info: RANDOM NUMBER SEED     1740278087
Info: USE HYDROGEN BONDS?    NO
Info: COORDINATE PDB         ionized.pdb
Info: STRUCTURE FILE         ionized.psf
Info: PARAMETER file: CHARMM format!
Info: PARAMETERS             par_all27_prot_lipid.inp
Info: USING ARITHMETIC MEAN TO COMBINE L-J SIGMA PARAMETERS
Info: SUMMARY OF PARAMETERS:
Info: 180 BONDS
Info: 447 ANGLES
Info: 566 DIHEDRAL
Info: 46 IMPROPER
Info: 6 CROSSTERM
Info: 119 VDW
Info: 0 VDW_PAIRS
Info: 0 NBTHOLE_PAIRS
Info: STRUCTURE SUMMARY:
Info: 2476 ATOMS
Info: 1650 BONDS
Info: 825 ANGLES
Info: 0 DIHEDRALS
Info: 0 IMPROPERS
Info: 0 CROSSTERMS
Info: 0 EXCLUSIONS
Info: 2475 RIGID BONDS
Info: 4950 DEGREES OF FREEDOM
Info: 826 HYDROGEN GROUPS
Info: 3 ATOMS IN LARGEST HYDROGEN GROUP
Info: 826 MIGRATION GROUPS
Info: 3 ATOMS IN LARGEST MIGRATION GROUP
Info: TOTAL MASS = 14885.7 amu
Info: TOTAL CHARGE = 1 e
Info: MASS DENSITY = 0.915513 g/cm^3
Info: ATOM DENSITY = 0.0917037 atoms/A^3
Info: ADDED 2475 IMPLICIT EXCLUSIONS
Info: NONBONDED TABLE R-SQUARED SPACING: 0.0625
Info: NONBONDED TABLE SIZE: 769 POINTS
Info: REMOVING COM VELOCITY -0.164808 -0.0416634 0.0309303
Info: MSM using C1 cubic interpolation
Info: MSM using C2 Taylor splitting function
Info: MSM block size decomposition along X is 8 grid points
Info: MSM block size decomposition along Y is 8 grid points
Info: MSM block size decomposition along Z is 8 grid points
Info: MSM grid spacing along X is 2.5 A
Info: MSM grid spacing along Y is 2.5 A
Info: MSM grid spacing along Z is 2.5 A
Info: MSM using 3 levels
Info:     level 0:  [0..11] x [0..11] x [0..11]
Info:     level 1:  [0..5] x [0..5] x [0..5]
Info:     level 2:  [0..2] x [0..2] x [0..2]
Info: MSM finished calculating stencils
Info: MSM finished creating map for grid levels
Info: MSM finished creating map for patches
Info: MSM has 9 interpolation / anterpolation objects (one per patch)
Info: MSM grid level 0 decomposed into 8 blocks ( 2 x 2 x 2 )
Info: MSM grid level 1 decomposed into 1 block ( 1 x 1 x 1 )
Info: MSM grid level 2 decomposed into 1 block ( 1 x 1 x 1 )
Info: MSM grid cutoff calculation decomposed into 783 work objects
TCL: Minimizing for 1000 steps
ETITLE: TS BOND ANGLE DIHED IMPRP ELECT VDW BOUNDARY MISC KINETIC TOTAL TEMP POTENTIAL TOTAL3 TEMPAVG PRESSURE GPRESSURE VOLUME PRESSAVG GPRESSAVG
ENERGY: 0 0.0000 0.0000 0.0000 0.0000 -7348.6497 6353.7252 0.0000 0.0000 0.0000 -994.9245 0.0000 -994.9245 -994.9245 0.0000 75204.0846 46356.0499 27000.0000 75204.0846 46356.0499
ENERGY: 200 0.0000 0.0000 0.0000 0.0000 -10434.8080 1043.4050 0.0000 0.0000 0.0000 -9391.4030 0.0000 -9391.4030 -9391.4030 0.0000 18119.3266 18059.8962 27000.0000 18119.3266 18059.8962
ENERGY: 400 0.0000 0.0000 0.0000 0.0000 -10942.3544 1253.5773 0.0000 0.0000 0.0000 -9688.7772 0.0000 -9688.7772 -9688.7772 0.0000 20455.1915 20360.4427 27000.0000 20455.1915 20360.4427
ENERGY: 600 0.0000 0.0000 0.0000 0.0000 -11100.9523 1296.8240 0.0000 0.0000 0.0000 -9804.1282 0.0000 -9804.1282 -9804.1282 0.0000 20961.6001 20879.9775 27000.0000 20961.6001 20879.9775
ENERGY: 800 0.0000 0.0000 0.0000 0.0000 -11195.6635 1323.1117 0.0000 0.0000 0.0000 -9872.5519 0.0000 -9872.5519 -9872.5519 0.0000 21258.7377 21199.4820 27000.0000 21258.7377 21199.4820
ENERGY: 1000 0.0000 0.0000 0.0000 0.0000 -11284.5520 1353.2551 0.0000 0.0000 0.0000 -9931.2970 0.0000 -9931.2970 -9931.2970 0.0000 21588.2611 21517.2588 27000.0000 21588.2611 21517.2588
TCL: Running for 10000 steps
ETITLE: TS BOND ANGLE DIHED IMPRP ELECT VDW BOUNDARY MISC KINETIC TOTAL TEMP POTENTIAL TOTAL3 TEMPAVG PRESSURE GPRESSURE VOLUME PRESSAVG GPRESSAVG
ENERGY: 1000 0.0000 0.0000 0.0000 0.0000 -11284.5518 1353.2551 0.0000 0.0000 1448.5904 -8482.7063 294.5309 -9931.2968 -8482.9147 294.5309 -2442.7850 -2442.7850 27000.0000 -2442.7850 -2442.7850
ENERGY: 3000 0.0000 0.0000 0.0000 0.0000 -9237.5396 918.0843 0.0000 0.0000 1296.0793 -7023.3760 263.5219 -8319.4553 -7022.7268 263.4295 -1687.4899 -1687.3412 27000.0000 -1487.4482 -1487.2997
ENERGY: 5000 0.0000 0.0000 0.0000 0.0000 -8908.1105 828.5191 0.0000 0.0000 1430.2892 -6649.3022 290.8098 -8079.5914 -6648.6311 289.1203 -1699.7014 -1699.6714 27000.0000 -1541.6159 -1541.5788
ENERGY: 7000 0.0000 0.0000 0.0000 0.0000 -8854.5527 835.4058 0.0000 0.0000 1473.4349 -6545.7119 299.5823 -8019.1469 -6544.9241 292.2525 -1402.1654 -1402.1734 27000.0000 -917.0757 -917.0511
ENERGY: 9000 0.0000 0.0000 0.0000 0.0000 -8840.0283 845.2724 0.0000 0.0000 1479.7534 -6515.0025 300.8670 -7994.7559 -6514.2273 299.1216 -1302.1162 -1302.1296 27000.0000 -1307.3898 -1307.3948
ENERGY: 11000 0.0000 0.0000 0.0000 0.0000 -8912.8660 936.9656 0.0000 0.0000 1452.5371 -6523.3632 295.3333 -7975.9003 -6522.6802 301.5127 -345.5719 -345.5600 27000.0000 -862.2635 -862.2783
