Info: SIMULATION PARAMETERS:
Info: TIMESTEP               2
Info: NUMBER OF STEPS        0
Info: STEPS PER CYCLE        10
Info: PERIODIC CELL BASIS 1  39.546 0 0
Info: PERIODIC CELL BASIS 2  0 45.083 0
Info: PERIODIC CELL BASIS 3  0 0 44.319
Info: PERIODIC CELL CENTER   0 0 0
Info: WRAPPING WATERS AROUND PERIODIC BOUNDARIES ON OUTPUT.
Info: WRAPPING ALL CLUSTERS AROUND PERIODIC BOUNDARIES ON OUTPUT.
Info: FIRST LDB TIMESTEP     50
Info: LAST LDB TIMESTEP     -1
Info: HOM BACKGROUND SCALING 1
Info: PME BACKGROUND SCALING 1
Info: MIN ATOMS PER PATCH    40
Info: EMPTY PATCH LOAD       40 ATOMS
Info: INITIAL TEMPERATURE    300
Info: CENTER OF MASS MOVING INITIALLY? NO
Info: DIELECTRIC             1
Info: EXCLUDE                SCALED ONE-FOUR
Info: 1-4 ELECTROSTATICS SCALED BY 0.833333
Info: MODIFIED 1-4 VDW PARAMETERS WILL BE USED
Info: DCD FILENAME           mobley_1502181_min.dcd
Info: DCD FREQUENCY          5000
Info: DCD FIRST STEP         5000
Info: DCD FILE WILL CONTAIN UNIT CELL DATA
Info: XST FILENAME           mobley_1502181_min.xst
Info: XST FREQUENCY          5000
Info: NO VELOCITY DCD OUTPUT
Info: NO FORCE DCD OUTPUT
Info: OUTPUT FILENAME        mobley_1502181_min
Info: BINARY OUTPUT FILES WILL BE USED
Info: RESTART FILENAME       mobley_1502181_min.restart
Info: RESTART FREQUENCY      5000
Info: BINARY RESTART FILES WILL BE USED
Info: CUTOFF                 9
Info: PAIRLIST DISTANCE      11
Info: PAIRLIST SHRINK RATE   0.01
Info: PAIRLIST GROW RATE     0.01
Info: PAIRLIST TRIGGER       0.3
Info: PAIRLISTS PER CYCLE    2
Info: PAIRLISTS ENABLED
Info: MARGIN                 8
Info: HYDROGEN GROUP CUTOFF  2.5
Info: PATCH DIMENSION        21.5
Info: ENERGY OUTPUT STEPS    5000
Info: ENERGY EVALUATION STEPS    5000
Info: OUTPUT ENERGY PRECISION 4
Info: CROSSTERM ENERGY INCLUDED IN DIHEDRAL
Info: TIMING OUTPUT STEPS    50000
Info: PRESSURE OUTPUT STEPS  5000
Info: LANGEVIN DYNAMICS ACTIVE
Info: LANGEVIN TEMPERATURE   300
Info: LANGEVIN USING BBK INTEGRATOR
Info: LANGEVIN DAMPING COEFFICIENT IS 1 INVERSE PS
Info: LANGEVIN DYNAMICS APPLIED TO HYDROGENS
Info: LANGEVIN PISTON PRESSURE CONTROL ACTIVE
Info:        TARGET PRESSURE IS 1.01325 BAR
Info:     OSCILLATION PERIOD IS 50 FS
Info:             DECAY TIME IS 25 FS
Info:     PISTON TEMPERATURE IS 300 K
Info:       PRESSURE CONTROL IS GROUP-BASED
Info:    INITIAL STRAIN RATE IS 0 0 0
Info:       CELL FLUCTUATION IS ISOTROPIC
Info: PARTICLE MESH EWALD (PME) ACTIVE
Info: PME TOLERANCE               1e-06
Info: PME EWALD COEFFICIENT       0.348832
Info: PME INTERPOLATION ORDER     4
Info: PME GRID DIMENSIONS         40 48 48
Info: PME MAXIMUM GRID SPACING    1
Info: FULL ELECTROSTATIC EVALUATION FREQUENCY      2
Info: USING VERLET I (r-RESPA) MTS SCHEME.
Info: C1 SPLITTING OF LONG RANGE ELECTROSTATICS
Info: PLACING ATOMS IN PATCHES BY HYDROGEN GROUPS
Info: RIGID BONDS TO HYDROGEN : ALL
Info:         ERROR TOLERANCE : 1e-08
Info:          MAX ITERATIONS : 100
Info: RIGID WATER USING SETTLE ALGORITHM
Info: RANDOM NUMBER SEED     1741311415
Info: USE HYDROGEN BONDS?    NO
Info: Using AMBER format force field!
Info: AMBER PARM FILE        mobley_1502181.prmtop
Info: COORDINATE PDB         mobley_1502181.pdb
Info: Exclusions will be read from PARM file!
Info: SCNB (VDW SCALING)     2
Info: USING ARITHMETIC MEAN TO COMBINE L-J SIGMA PARAMETERS
Info: SUMMARY OF PARAMETERS:
Info: 6 BONDS
Info: 7 ANGLES
Info:   7 HARMONIC
Info:   0 COSINE-BASED
Info: 15 DIHEDRAL
Info: 0 IMPROPER
Info: 0 CROSSTERM
Info: 0 VDW
Info: 21 VDW_PAIRS
Info: 0 NBTHOLE_PAIRS
Info: STRUCTURE SUMMARY:
Info: 5707 ATOMS
Info: 5706 BONDS
Info: 51 ANGLES
Info: 76 DIHEDRALS
Info: 0 IMPROPERS
Info: 0 CROSSTERMS
Info: 5823 EXCLUSIONS
Info: 5697 RIGID BONDS
Info: 11424 DEGREES OF FREEDOM
Info: 1903 HYDROGEN GROUPS
Info: 4 ATOMS IN LARGEST HYDROGEN GROUP
Info: 1903 MIGRATION GROUPS
Info: 4 ATOMS IN LARGEST MIGRATION GROUP
Info: TOTAL MASS = 34246.5 amu
Info: TOTAL CHARGE = 0.00010002 e
Info: MASS DENSITY = 0.719731 g/cm^3
Info: ATOM DENSITY = 0.0722275 atoms/A^3
Info: ADDED 0 IMPLICIT EXCLUSIONS
Info: NONBONDED TABLE R-SQUARED SPACING: 0.0625
Info: NONBONDED TABLE SIZE: 705 POINTS
Info: REMOVING COM VELOCITY 0.0299073 0.0763057 -0.0258279
TCL: Minimizing for 2000 steps
ETITLE: TS BOND ANGLE DIHED IMPRP ELECT VDW BOUNDARY MISC KINETIC TOTAL TEMP POTENTIAL TOTAL3 TEMPAVG PRESSURE GPRESSURE VOLUME PRESSAVG GPRESSAVG
ENERGY: 0 0.3218 0.5945 39.5088 0.0000 -17743.9749 2021.3855 0.0000 0.0000 0.0000 -15682.1644 0.0000 -15682.1644 -15682.1644 0.0000 11202.5350 -15899.2838 79014.2319 11202.5350 -15899.2838
ENERGY: 400 38.6475 18.1307 37.0957 0.0000 -23719.3626 3361.6789 0.0000 0.0000 0.0000 -20263.8099 0.0000 -20263.8099 -20263.8099 0.0000 15360.2194 15504.8487 79014.2319 15360.2194 15504.8487
ENERGY: 800 24.6510 12.9453 37.5451 0.0000 -24820.2243 3898.7559 0.0000 0.0000 0.0000 -20846.3269 0.0000 -20846.3269 -20846.3269 0.0000 17441.7214 17516.2435 79014.2319 17441.7214 17516.2435
ENERGY: 1200 0.8749 1.3240 36.4505 0.0000 -25540.9959 4255.6438 0.0000 0.0000 0.0000 -21246.7027 0.0000 -21246.7027 -21246.7027 0.0000 18925.8247 19053.8096 79014.2319 18925.8247 19053.8096
ENERGY: 1600 0.4829 1.4824 36.1405 0.0000 -25898.1735 4412.1342 0.0000 0.0000 0.0000 -21447.9336 0.0000 -21447.9336 -21447.9336 0.0000 19622.3536 19745.6084 79014.2319 19622.3536 19745.6084
ENERGY: 2000 0.2328 1.1302 36.3040 0.0000 -26104.4993 4505.2443 0.0000 0.0000 0.0000 -21561.5880 0.0000 -21561.5880 -21561.5880 0.0000 20025.0480 20148.9281 79014.2319 20025.0480 20148.9281
TCL: Exiting due to exit command.
Info: NAMD 3.0.1 for Linux-x86_64-multicore
Info: Please visit http://www.ks.uiuc.edu/Research/namd/
Info: for updates, documentation, and support information.
Info: Please cite Phillips et al., J. Chem. Phys. 153:044130 (2020) doi:10.1063/5.0014475
Info: in all publications reporting results obtained with NAMD.
Info: Based on Charm++/Converse 80000 for multicore-linux-x86_64-gcc
Info: Built Mon Oct 14 11:11:06 CDT 2024 by dhardy on athine.ks.uiuc.edu
Info: 1 NAMD  3.0.1  Linux-x86_64-multicore  16    k066  z5358697
Info: Running on 16 processors, 1 nodes, 1 physical nodes.
Info: CPU topology information available.
Info: Charm++/Converse parallel runtime startup completed at 0.00760503 s
Info: 1043.48 MB of memory in use based on /proc/self/stat
Info: Configuration file is mobley_1502181_equil.namd
Info: Working in the current directory /srv/scratch/z5358697/prod_prep/1502181
TCL: Running 25000 steps at 30 kelvin.
TCL: Suspending until startup complete.
Info: SIMULATION PARAMETERS:
Info: TIMESTEP               2
Info: NUMBER OF STEPS        0
Info: STEPS PER CYCLE        10
Info: PERIODIC CELL BASIS 1  39.546 0 0
Info: PERIODIC CELL BASIS 2  0 45.083 0
Info: PERIODIC CELL BASIS 3  0 0 44.319
Info: PERIODIC CELL CENTER   0 0 0
Info: WRAPPING WATERS AROUND PERIODIC BOUNDARIES ON OUTPUT.
Info: WRAPPING ALL CLUSTERS AROUND PERIODIC BOUNDARIES ON OUTPUT.
Info: FIRST LDB TIMESTEP     50
Info: LAST LDB TIMESTEP     -1
Info: HOM BACKGROUND SCALING 1
Info: PME BACKGROUND SCALING 1
Info: MIN ATOMS PER PATCH    40
Info: EMPTY PATCH LOAD       40 ATOMS
Info: INITIAL TEMPERATURE    300
Info: CENTER OF MASS MOVING INITIALLY? NO
Info: DIELECTRIC             1
Info: EXCLUDE                SCALED ONE-FOUR
Info: 1-4 ELECTROSTATICS SCALED BY 0.833333
Info: MODIFIED 1-4 VDW PARAMETERS WILL BE USED
Info: DCD FILENAME           mobley_1502181_equil.dcd
Info: DCD FREQUENCY          5000
Info: DCD FIRST STEP         5000
Info: DCD FILE WILL CONTAIN UNIT CELL DATA
Info: XST FILENAME           mobley_1502181_equil.xst
Info: XST FREQUENCY          5000
Info: NO VELOCITY DCD OUTPUT
Info: NO FORCE DCD OUTPUT
Info: OUTPUT FILENAME        mobley_1502181_equil
Info: BINARY OUTPUT FILES WILL BE USED
Info: RESTART FILENAME       mobley_1502181_equil.restart
Info: RESTART FREQUENCY      5000
Info: BINARY RESTART FILES WILL BE USED
Info: CUTOFF                 9
Info: PAIRLIST DISTANCE      11
Info: PAIRLIST SHRINK RATE   0.01
Info: PAIRLIST GROW RATE     0.01
Info: PAIRLIST TRIGGER       0.3
Info: PAIRLISTS PER CYCLE    2
Info: PAIRLISTS ENABLED
Info: MARGIN                 8
Info: HYDROGEN GROUP CUTOFF  2.5
Info: PATCH DIMENSION        21.5
Info: ENERGY OUTPUT STEPS    5000
Info: ENERGY EVALUATION STEPS    5000
Info: OUTPUT ENERGY PRECISION 4
Info: CROSSTERM ENERGY INCLUDED IN DIHEDRAL
Info: TIMING OUTPUT STEPS    50000
Info: PRESSURE OUTPUT STEPS  5000
Info: LANGEVIN DYNAMICS ACTIVE
Info: LANGEVIN TEMPERATURE   30
Info: LANGEVIN USING BBK INTEGRATOR
Info: LANGEVIN DAMPING COEFFICIENT IS 1 INVERSE PS
Info: LANGEVIN DYNAMICS APPLIED TO HYDROGENS
Info: LANGEVIN PISTON PRESSURE CONTROL ACTIVE
Info:        TARGET PRESSURE IS 1.01325 BAR
Info:     OSCILLATION PERIOD IS 50 FS
Info:             DECAY TIME IS 25 FS
Info:     PISTON TEMPERATURE IS 300 K
Info:       PRESSURE CONTROL IS GROUP-BASED
Info:    INITIAL STRAIN RATE IS 0 0 0
Info:       CELL FLUCTUATION IS ISOTROPIC
Info: PARTICLE MESH EWALD (PME) ACTIVE
Info: PME TOLERANCE               1e-06
Info: PME EWALD COEFFICIENT       0.348832
Info: PME INTERPOLATION ORDER     4
Info: PME GRID DIMENSIONS         40 48 48
Info: PME MAXIMUM GRID SPACING    1
Info: FULL ELECTROSTATIC EVALUATION FREQUENCY      2
Info: USING VERLET I (r-RESPA) MTS SCHEME.
Info: C1 SPLITTING OF LONG RANGE ELECTROSTATICS
Info: PLACING ATOMS IN PATCHES BY HYDROGEN GROUPS
Info: RIGID BONDS TO HYDROGEN : ALL
Info:         ERROR TOLERANCE : 1e-08
Info:          MAX ITERATIONS : 100
Info: RIGID WATER USING SETTLE ALGORITHM
Info: RANDOM NUMBER SEED     1741311439
Info: USE HYDROGEN BONDS?    NO
Info: Using AMBER format force field!
Info: AMBER PARM FILE        mobley_1502181.prmtop
Info: COORDINATE PDB         mobley_1502181.pdb
Info: Exclusions will be read from PARM file!
Info: SCNB (VDW SCALING)     2
Info: USING ARITHMETIC MEAN TO COMBINE L-J SIGMA PARAMETERS
Info: BINARY COORDINATES     mobley_1502181_min.coor
Info: SUMMARY OF PARAMETERS:
Info: 6 BONDS
Info: 7 ANGLES
Info:   7 HARMONIC
Info:   0 COSINE-BASED
Info: 15 DIHEDRAL
Info: 0 IMPROPER
Info: 0 CROSSTERM
Info: 0 VDW
Info: 21 VDW_PAIRS
Info: 0 NBTHOLE_PAIRS
Info: STRUCTURE SUMMARY:
Info: 5707 ATOMS
Info: 5706 BONDS
Info: 51 ANGLES
Info: 76 DIHEDRALS
Info: 0 IMPROPERS
Info: 0 CROSSTERMS
Info: 5823 EXCLUSIONS
Info: 5697 RIGID BONDS
Info: 11424 DEGREES OF FREEDOM
Info: 1903 HYDROGEN GROUPS
Info: 4 ATOMS IN LARGEST HYDROGEN GROUP
Info: 1903 MIGRATION GROUPS
Info: 4 ATOMS IN LARGEST MIGRATION GROUP
Info: TOTAL MASS = 34246.5 amu
Info: TOTAL CHARGE = 0.00010002 e
Info: MASS DENSITY = 0.719731 g/cm^3
Info: ATOM DENSITY = 0.0722275 atoms/A^3
Info: ADDED 0 IMPLICIT EXCLUSIONS
Info: NONBONDED TABLE R-SQUARED SPACING: 0.0625
Info: NONBONDED TABLE SIZE: 705 POINTS
Info: REMOVING COM VELOCITY 0.183157 -0.0327481 -0.0378219
TCL: Running for 25000 steps
ETITLE: TS BOND ANGLE DIHED IMPRP ELECT VDW BOUNDARY MISC KINETIC TOTAL TEMP POTENTIAL TOTAL3 TEMPAVG PRESSURE GPRESSURE VOLUME PRESSAVG GPRESSAVG
ENERGY: 0 0.2328 1.1302 36.3040 0.0000 -26104.4993 4505.2443 0.0000 0.0000 3433.1260 -18128.4620 302.4558 -21561.5880 -18127.7385 302.4558 290.5771 326.2066 79014.2319 290.5771 326.2066
ENERGY: 5000 0.3784 2.0453 36.4759 0.0000 -27097.3192 4488.6753 0.0000 0.0000 337.9845 -22231.7599 29.7762 -22569.7444 -22230.5903 47.8761 -1055.1738 -984.7602 56270.6156 1.4116 1.4516
ENERGY: 10000 0.4170 1.8223 36.6990 0.0000 -27368.1924 4738.1565 0.0000 0.0000 341.0686 -22250.0289 30.0479 -22591.0975 -22249.3586 30.2168 62.4095 116.1385 55749.3557 5.3463 5.3258
ENERGY: 15000 0.3515 2.5962 36.3583 0.0000 -27376.9178 4729.9280 0.0000 0.0000 339.3213 -22268.3625 29.8940 -22607.6838 -22267.3271 30.1404 12.7818 55.8254 55715.1885 3.5099 3.5056
ENERGY: 20000 0.6503 2.2392 36.3546 0.0000 -27407.8080 4737.9196 0.0000 0.0000 346.1506 -22284.4937 30.4956 -22630.6443 -22283.4090 30.1556 4.1056 71.4443 55612.5296 2.4821 2.4280
ENERGY: 25000 0.6364 2.1445 36.5499 0.0000 -27132.5577 4447.8559 0.0000 0.0000 342.4197 -22302.9513 30.1669 -22645.3711 -22302.0479 30.0788 -1368.8738 -1300.4410 56234.5553 -0.5514 -0.3421
TCL: Running 25000 steps at 60 kelvin.
TCL: Setting parameter langevinTemp to 60
TCL: Running for 25000 steps
ETITLE: TS BOND ANGLE DIHED IMPRP ELECT VDW BOUNDARY MISC KINETIC TOTAL TEMP POTENTIAL TOTAL3 TEMPAVG PRESSURE GPRESSURE VOLUME PRESSAVG GPRESSAVG
ENERGY: 25000 0.6364 2.1445 36.5499 0.0000 -27132.5577 4447.8559 0.0000 0.0000 342.2546 -22303.1165 30.1524 -22645.3711 -22302.2469 30.1524 -1358.4728 -1300.4332 56234.5553 -1358.4728 -1300.4332
ENERGY: 30000 0.4114 3.5472 36.7941 0.0000 -26899.7237 4498.5524 0.0000 0.0000 669.7797 -21690.6388 59.0071 -22360.4185 -21688.8789 57.3391 -423.4424 -374.2678 55847.8102 2.1670 1.9723
ENERGY: 35000 0.4886 4.7267 36.4317 0.0000 -27021.2782 4579.9086 0.0000 0.0000 676.3295 -21723.3931 59.5841 -22399.7225 -21722.0968 60.3784 -143.6975 -89.2033 55607.1602 4.6614 4.6556
ENERGY: 40000 0.5774 3.1912 36.6540 0.0000 -26972.1369 4526.2570 0.0000 0.0000 676.4319 -21729.0253 59.5931 -22405.4572 -21727.3769 60.1549 -323.6327 -281.2164 55531.5423 4.8818 4.7548
ENERGY: 45000 0.4921 4.4234 35.9336 0.0000 -27072.8897 4577.3632 0.0000 0.0000 674.1908 -21780.4865 59.3957 -22454.6774 -21779.2208 60.0937 -133.1368 -69.4370 55244.6662 3.7030 3.8525
ENERGY: 50000 0.3936 3.0521 36.4345 0.0000 -27031.9290 4532.6375 0.0000 0.0000 673.5383 -21785.8730 59.3382 -22459.4114 -21783.8162 59.7524 -373.4896 -294.3746 55236.8350 1.3362 1.3902
TCL: Running 25000 steps at 90 kelvin.
TCL: Setting parameter langevinTemp to 90
TCL: Running for 25000 steps
ETITLE: TS BOND ANGLE DIHED IMPRP ELECT VDW BOUNDARY MISC KINETIC TOTAL TEMP POTENTIAL TOTAL3 TEMPAVG PRESSURE GPRESSURE VOLUME PRESSAVG GPRESSAVG
ENERGY: 50000 0.3936 3.0521 36.4345 0.0000 -27031.9290 4532.6375 0.0000 0.0000 673.1910 -21786.2204 59.3076 -22459.4114 -21784.7778 59.3076 -347.1738 -294.0703 55236.8350 -347.1738 -294.0703
ENERGY: 55000 0.4200 3.7023 37.2819 0.0000 -26731.5600 4545.2536 0.0000 0.0000 1030.2127 -21114.6895 90.7610 -22144.9022 -21112.5782 86.8822 290.2139 320.6896 55572.3039 1.5647 1.3534
ENERGY: 60000 1.2214 3.8057 37.2731 0.0000 -26717.4855 4510.2584 0.0000 0.0000 1026.9551 -21137.9719 90.4740 -22164.9270 -21135.6844 90.4781 -20.2540 20.1680 55656.9852 3.7859 3.7992
ENERGY: 65000 0.4098 3.4136 37.0264 0.0000 -26934.3324 4688.3268 0.0000 0.0000 1011.1092 -21194.0467 89.0780 -22205.1558 -21192.4612 90.0658 736.2405 793.3720 55395.0435 3.0950 2.9856
ENERGY: 70000 0.6646 3.3605 37.3771 0.0000 -26745.5947 4491.2950 0.0000 0.0000 1038.4820 -21174.4155 91.4895 -22212.8975 -21171.8074 90.3508 -109.5166 -66.4900 55719.8043 4.8679 4.9930
ENERGY: 75000 1.2718 4.0214 36.7178 0.0000 -26819.2679 4547.7640 0.0000 0.0000 1036.2241 -21193.2688 91.2906 -22229.4929 -21190.8540 90.8548 26.4161 89.5328 55647.3613 4.9507 4.7419
TCL: Running 25000 steps at 120 kelvin.
TCL: Setting parameter langevinTemp to 120
TCL: Running for 25000 steps
ETITLE: TS BOND ANGLE DIHED IMPRP ELECT VDW BOUNDARY MISC KINETIC TOTAL TEMP POTENTIAL TOTAL3 TEMPAVG PRESSURE GPRESSURE VOLUME PRESSAVG GPRESSAVG
ENERGY: 75000 1.2718 4.0214 36.7178 0.0000 -26819.2679 4547.7640 0.0000 0.0000 1035.7050 -21193.7878 91.2448 -22229.4928 -21191.5228 91.2448 38.5968 89.3275 55647.3613 38.5968 89.3275
ENERGY: 80000 1.3941 4.5863 38.0203 0.0000 -26452.3035 4545.8474 0.0000 0.0000 1361.7460 -20500.7095 119.9688 -21862.4554 -20498.7270 117.3232 727.9978 764.8624 55664.3618 3.0521 3.1058
ENERGY: 85000 1.8361 3.6594 37.3012 0.0000 -26152.6295 4234.5988 0.0000 0.0000 1362.0829 -20513.1511 119.9985 -21875.2340 -20509.2429 120.2079 -839.1458 -752.2500 56373.4929 0.6853 0.6212
ENERGY: 90000 1.6508 4.7793 37.9075 0.0000 -26142.0714 4217.7439 0.0000 0.0000 1348.9867 -20531.0033 118.8447 -21879.9900 -20526.1874 119.7768 -769.5512 -682.5107 56194.1363 3.6197 3.2000
ENERGY: 95000 2.0214 6.2199 36.9506 0.0000 -26329.9173 4314.8275 0.0000 0.0000 1377.2516 -20592.6463 121.3348 -21969.8979 -20588.4731 120.1314 -479.8450 -430.5648 55826.1108 0.0655 0.4152
ENERGY: 100000 0.9836 5.2719 37.6196 0.0000 -26622.7250 4634.7796 0.0000 0.0000 1355.5540 -20588.5164 119.4233 -21944.0704 -20585.2308 120.1342 989.3727 1006.0313 55507.7940 3.5132 3.4749
TCL: Running 25000 steps at 150 kelvin.
TCL: Setting parameter langevinTemp to 150
TCL: Running for 25000 steps
ETITLE: TS BOND ANGLE DIHED IMPRP ELECT VDW BOUNDARY MISC KINETIC TOTAL TEMP POTENTIAL TOTAL3 TEMPAVG PRESSURE GPRESSURE VOLUME PRESSAVG GPRESSAVG
ENERGY: 100000 0.9836 5.2719 37.6196 0.0000 -26622.7250 4634.7796 0.0000 0.0000 1354.8569 -20589.2135 119.3619 -21944.0704 -20586.5693 119.3619 959.9084 1006.4713 55507.7940 959.9084 1006.4713
ENERGY: 105000 0.5365 5.9605 38.6359 0.0000 -25794.5405 4208.3052 0.0000 0.0000 1691.2643 -19849.8380 148.9991 -21541.1024 -19845.0935 146.2517 -135.9921 -59.0679 55905.9795 1.5828 1.5033
ENERGY: 110000 1.4815 5.0201 38.8591 0.0000 -25947.4797 4375.8531 0.0000 0.0000 1710.7340 -19815.5319 150.7144 -21526.2659 -19811.6894 149.8361 794.3268 842.0251 55349.4257 -0.9674 -1.0779
ENERGY: 115000 2.5267 8.3545 37.8768 0.0000 -25832.3706 4221.5567 0.0000 0.0000 1700.8604 -19861.1955 149.8445 -21562.0559 -19857.2835 150.7628 -133.7620 -107.0250 55969.1894 0.0032 -0.0358
ENERGY: 120000 1.4060 12.0941 37.8590 0.0000 -25993.2087 4342.5688 0.0000 0.0000 1691.3160 -19907.9648 149.0037 -21599.2808 -19903.3385 149.8827 383.3102 477.4621 55439.7843 4.6875 4.3677
ENERGY: 125000 1.4008 4.9872 38.9704 0.0000 -25772.4351 4093.6218 0.0000 0.0000 1709.1773 -19924.2776 150.5772 -21633.4549 -19919.6008 149.8589 -856.7569 -788.5307 56155.9138 -0.5937 -0.5132
TCL: Running 50000 steps at 180 kelvin.
TCL: Setting parameter langevinTemp to 180
TCL: Running for 50000 steps
ETITLE: TS BOND ANGLE DIHED IMPRP ELECT VDW BOUNDARY MISC KINETIC TOTAL TEMP POTENTIAL TOTAL3 TEMPAVG PRESSURE GPRESSURE VOLUME PRESSAVG GPRESSAVG
ENERGY: 125000 1.4008 4.9872 38.9704 0.0000 -25772.4351 4093.6218 0.0000 0.0000 1708.3309 -19925.1240 150.5027 -21633.4549 -19921.7489 150.5027 -836.9759 -788.3090 56155.9138 -836.9759 -788.3090
ENERGY: 135000 0.8959 12.6124 36.7738 0.0000 -25179.8850 3991.0822 0.0000 0.0000 2032.7769 -19105.7438 179.0861 -21138.5207 -19102.2886 180.6559 -521.1421 -427.5149 56265.2470 4.1437 4.2389
ENERGY: 145000 1.6512 11.2621 39.4463 0.0000 -25344.4006 4170.3399 0.0000 0.0000 2066.1834 -19055.5177 182.0292 -21121.7011 -19050.6670 180.3626 359.9733 397.9252 56138.8108 4.9042 4.6191
ENERGY: 155000 0.9181 7.1172 38.3640 0.0000 -25369.4884 4117.7202 0.0000 0.0000 2078.1891 -19127.1798 183.0869 -21205.3689 -19121.4576 180.3242 49.0493 119.7687 55772.3580 0.0021 -0.1699
ENERGY: 165000 1.2338 11.2761 37.0128 0.0000 -25257.8001 4027.8684 0.0000 0.0000 2012.6530 -19167.7559 177.3132 -21180.4089 -19164.0552 180.1945 -276.9260 -213.2638 55937.5805 2.7655 3.0693
ENERGY: 175000 0.6579 8.9349 38.8136 0.0000 -25299.3431 4078.7318 0.0000 0.0000 2070.2157 -19101.9892 182.3844 -21172.2049 -19097.8488 181.0675 -35.7725 42.5816 55886.0628 7.8296 7.2963
TCL: Running 50000 steps at 210 kelvin.
TCL: Setting parameter langevinTemp to 210
TCL: Running for 50000 steps
ETITLE: TS BOND ANGLE DIHED IMPRP ELECT VDW BOUNDARY MISC KINETIC TOTAL TEMP POTENTIAL TOTAL3 TEMPAVG PRESSURE GPRESSURE VOLUME PRESSAVG GPRESSAVG
ENERGY: 175000 0.6579 8.9349 38.8136 0.0000 -25299.3431 4078.7318 0.0000 0.0000 2069.1861 -19103.0188 182.2937 -21172.2049 -19098.9795 182.2937 -18.9517 42.3451 55886.0628 -18.9517 42.3451
ENERGY: 185000 1.4738 9.1919 37.4925 0.0000 -23941.4316 3554.9959 0.0000 0.0000 2356.5433 -17981.7343 207.6097 -20338.2776 -17977.0235 207.6756 -588.3963 -494.7845 55805.1419 6.0629 6.1104
ENERGY: 195000 2.4507 9.8681 37.2792 0.0000 -23977.9249 3603.6558 0.0000 0.0000 2363.9782 -17960.6928 208.2647 -20324.6710 -17956.8965 210.0801 -473.4026 -423.8924 55981.2955 4.3674 4.3272
ENERGY: 205000 2.0256 8.5113 38.0991 0.0000 -24090.3893 3741.3441 0.0000 0.0000 2395.0840 -17905.3252 211.0051 -20300.4091 -17898.2795 210.3138 329.3945 387.5172 55403.7721 0.5686 0.8106
ENERGY: 215000 1.1607 12.4704 35.5034 0.0000 -23960.0723 3571.6150 0.0000 0.0000 2432.7182 -17906.6045 214.3206 -20339.3227 -17900.6089 210.2308 -354.7636 -282.9119 55236.7203 3.6403 3.2362
ENERGY: 225000 2.2945 11.4909 39.8207 0.0000 -24116.0118 3763.8956 0.0000 0.0000 2372.7572 -17925.7529 209.0381 -20298.5101 -17921.7111 209.3208 355.1446 400.5729 55687.9361 3.4139 2.3597
TCL: Running 50000 steps at 240 kelvin.
TCL: Setting parameter langevinTemp to 240
TCL: Running for 50000 steps
ETITLE: TS BOND ANGLE DIHED IMPRP ELECT VDW BOUNDARY MISC KINETIC TOTAL TEMP POTENTIAL TOTAL3 TEMPAVG PRESSURE GPRESSURE VOLUME PRESSAVG GPRESSAVG
ENERGY: 225000 2.2945 11.4909 39.8207 0.0000 -24116.0118 3763.8956 0.0000 0.0000 2371.5613 -17926.9488 208.9328 -20298.5101 -17923.3182 208.9328 323.6398 399.9545 55687.9361 323.6398 399.9545
ENERGY: 235000 3.5872 9.0392 38.6608 0.0000 -22870.3086 3290.5354 0.0000 0.0000 2739.3013 -16789.1848 241.3304 -19528.4861 -16781.6234 241.0389 -315.0958 -191.7626 56168.1640 1.8428 1.5969
ENERGY: 245000 1.5904 10.9736 36.8095 0.0000 -22724.6969 3198.7854 0.0000 0.0000 2734.9230 -16741.6149 240.9447 -19476.5380 -16734.1690 238.5897 -610.6556 -488.2632 56380.5166 -4.4649 -4.6545
ENERGY: 255000 3.6364 8.0354 37.8866 0.0000 -22796.7113 3304.4862 0.0000 0.0000 2748.7310 -16693.9358 242.1611 -19442.6667 -16689.6834 240.4488 3.7575 71.2185 55939.7155 2.9431 2.3542
ENERGY: 265000 2.0979 10.9260 41.3144 0.0000 -22601.0732 3196.0547 0.0000 0.0000 2724.7183 -16625.9620 240.0456 -19350.6803 -16618.6660 240.4501 -448.8655 -336.4313 56346.2804 5.5519 5.3455
ENERGY: 275000 1.9890 10.1011 36.5699 0.0000 -22749.6799 3321.5097 0.0000 0.0000 2735.6845 -16643.8256 241.0117 -19379.5102 -16636.6100 240.5116 228.6873 303.6425 55857.5445 -2.8065 -2.3625
TCL: Running 50000 steps at 270 kelvin.
TCL: Setting parameter langevinTemp to 270
TCL: Running for 50000 steps
ETITLE: TS BOND ANGLE DIHED IMPRP ELECT VDW BOUNDARY MISC KINETIC TOTAL TEMP POTENTIAL TOTAL3 TEMPAVG PRESSURE GPRESSURE VOLUME PRESSAVG GPRESSAVG
ENERGY: 275000 1.9890 10.1011 36.5699 0.0000 -22749.6799 3321.5097 0.0000 0.0000 2734.3386 -16645.1716 240.8932 -19379.5102 -16640.5021 240.8932 231.0020 304.9789 55857.5445 231.0020 304.9789
ENERGY: 285000 1.0688 11.9316 38.8536 0.0000 -21582.8357 2998.4430 0.0000 0.0000 3141.3466 -15391.1921 276.7503 -18532.5386 -15386.2490 269.6619 -41.9292 29.9476 57686.1530 2.3885 2.7673
ENERGY: 295000 2.1014 10.3605 38.4305 0.0000 -21770.0413 3053.5939 0.0000 0.0000 3047.2429 -15618.3120 268.4598 -18665.5550 -15610.9379 269.9378 1.6890 76.7443 57290.8353 3.8623 4.1664
ENERGY: 305000 2.2963 11.6920 36.0233 0.0000 -21854.1228 3106.4776 0.0000 0.0000 3186.2544 -15511.3792 280.7066 -18697.6336 -15506.1209 271.3225 428.9962 501.1766 56947.6694 1.9657 2.0759
ENERGY: 315000 1.6254 14.6597 38.3893 0.0000 -21566.6763 2872.3787 0.0000 0.0000 3012.3103 -15627.3128 265.3823 -18639.6231 -15622.5011 270.6051 -732.9007 -653.6301 57814.7822 1.5335 1.8857
ENERGY: 325000 0.8071 12.9107 40.4485 0.0000 -21637.8014 3007.5587 0.0000 0.0000 3055.6186 -15520.4579 269.1977 -18576.0765 -15511.5495 269.3210 -172.4623 -69.3576 57901.6242 2.2617 2.2953
TCL: Running 1000000 steps at 300 kelvin.
TCL: Setting parameter langevinTemp to 300
TCL: Running for 1000000 steps
ETITLE: TS BOND ANGLE DIHED IMPRP ELECT VDW BOUNDARY MISC KINETIC TOTAL TEMP POTENTIAL TOTAL3 TEMPAVG PRESSURE GPRESSURE VOLUME PRESSAVG GPRESSAVG
ENERGY: 325000 0.8071 12.9107 40.4485 0.0000 -21637.8014 3007.5587 0.0000 0.0000 3054.0787 -15521.9978 269.0620 -18576.0765 -15517.6788 269.0620 -149.6966 -67.9128 57901.6242 -149.6966 -67.9128
ENERGY: 525000 4.1187 9.5926 38.4343 0.0000 -20603.4068 2638.1019 0.0000 0.0000 3464.9441 -14448.2152 305.2590 -17913.1592 -14440.4161 298.3979 -844.5850 -721.0213 59282.1301 5.3171 5.1961
ENERGY: 725000 3.2980 11.3203 36.6330 0.0000 -20897.9374 2863.6875 0.0000 0.0000 3355.9885 -14627.0102 295.6601 -17982.9987 -14619.6987 297.1984 279.9855 301.5053 58243.6913 0.8810 0.3538
ENERGY: 925000 2.4573 15.7706 41.6391 0.0000 -20571.9743 2733.3979 0.0000 0.0000 3386.2841 -14392.4253 298.3291 -17778.7093 -14385.2251 299.7679 -165.0792 -79.3596 58838.1836 6.8952 6.7727
ENERGY: 1125000 4.3230 11.3710 38.7426 0.0000 -20595.4187 2726.6651 0.0000 0.0000 3458.6037 -14355.7132 304.7004 -17814.3169 -14346.9373 300.0205 -83.2209 33.6371 58666.6104 -1.2823 -1.7304
ENERGY: 1325000 1.3827 11.7650 39.4342 0.0000 -20722.4190 2707.9753 0.0000 0.0000 3372.4414 -14589.4204 297.1095 -17961.8619 -14586.6339 299.2563 -578.9597 -495.7499 59172.0009 7.1119 7.3459
TCL: Exiting due to exit command.
