Info: SIMULATION PARAMETERS:
Info: TIMESTEP               2
Info: NUMBER OF STEPS        0
Info: STEPS PER CYCLE        10
Info: PERIODIC CELL BASIS 1  30.6997 0 0
Info: PERIODIC CELL BASIS 2  0 31.3955 0
Info: PERIODIC CELL BASIS 3  0 0 31.1647
Info: PERIODIC CELL CENTER   0 0 0
Info: WRAPPING WATERS AROUND PERIODIC BOUNDARIES ON OUTPUT.
Info: WRAPPING ALL CLUSTERS AROUND PERIODIC BOUNDARIES ON OUTPUT.
Info: FIRST LDB TIMESTEP     50
Info: LAST LDB TIMESTEP     -1
Info: HOM BACKGROUND SCALING 1
Info: PME BACKGROUND SCALING 1
Info: MIN ATOMS PER PATCH    40
Info: EMPTY PATCH LOAD       40 ATOMS
Info: VELOCITY FILE          mobley_7532833_equil.vel
Info: CENTER OF MASS MOVING INITIALLY? NO
Info: DIELECTRIC             1
Info: EXCLUDE                SCALED ONE-FOUR
Info: 1-4 ELECTROSTATICS SCALED BY 0.833333
Info: MODIFIED 1-4 VDW PARAMETERS WILL BE USED
Info: DCD FILENAME           mobley_7532833_prod.dcd
Info: DCD FREQUENCY          100000
Info: DCD FIRST STEP         100000
Info: DCD FILE WILL CONTAIN UNIT CELL DATA
Info: XST FILENAME           mobley_7532833_prod.xst
Info: XST FREQUENCY          100000
Info: NO VELOCITY DCD OUTPUT
Info: NO FORCE DCD OUTPUT
Info: OUTPUT FILENAME        mobley_7532833_prod
Info: BINARY OUTPUT FILES WILL BE USED
Info: RESTART FILENAME       mobley_7532833_prod.restart
Info: RESTART FREQUENCY      100000
Info: BINARY RESTART FILES WILL BE USED
Info: CUTOFF                 9
Info: PAIRLIST DISTANCE      11
Info: PAIRLIST SHRINK RATE   0.01
Info: PAIRLIST GROW RATE     0.01
Info: PAIRLIST TRIGGER       0.3
Info: PAIRLISTS PER CYCLE    2
Info: PAIRLISTS ENABLED
Info: MARGIN                 2
Info: HYDROGEN GROUP CUTOFF  2.5
Info: PATCH DIMENSION        15.5
Info: ENERGY OUTPUT STEPS    100000
Info: ENERGY EVALUATION STEPS    100000
Info: OUTPUT ENERGY PRECISION 4
Info: CROSSTERM ENERGY INCLUDED IN DIHEDRAL
Info: TIMING OUTPUT STEPS    1000000
Info: PRESSURE OUTPUT STEPS  100000
Info: ALCHEMICAL FEP ON
Info: FEP CURRENT LAMBDA VALUE     1
Info: FEP COMPARISON LAMBDA VALUE  0.95
Info: FEP INTRA-ALCHEMICAL NON-BONDED INTERACTIONS WILL BE RETAINED
Info: FEP INTRA-ALCHEMICAL BONDED INTERACTIONS WILL BE RETAINED
Info: FEP VDW SHIFTING COEFFICIENT 5
Info: FEP ELEC. ACTIVE FOR ANNIHILATED PARTICLES BETWEEN LAMBDA = 0 AND LAMBDA = 0.5
Info: FEP ELEC. ACTIVE FOR EXNIHILATED PARTICLES BETWEEN LAMBDA = 0.5 AND LAMBDA = 1
Info: FEP VDW ACTIVE FOR ANNIHILATED PARTICLES BETWEEN LAMBDA = 0 AND LAMBDA = 1
Info: FEP VDW ACTIVE FOR EXNIHILATED PARTICLES BETWEEN LAMBDA = 0 AND LAMBDA = 1
Info: FEP BOND ACTIVE FOR ANNIHILATED PARTICLES BETWEEN LAMBDA = 1 AND LAMBDA = 1
Info: FEP BOND ACTIVE FOR EXNIHILATED PARTICLES BETWEEN LAMBDA = 0 AND LAMBDA = 0
Info: LANGEVIN DYNAMICS ACTIVE
Info: LANGEVIN TEMPERATURE   300
Info: LANGEVIN USING BBK INTEGRATOR
Info: LANGEVIN DAMPING COEFFICIENT IS 1 INVERSE PS
Info: LANGEVIN DYNAMICS APPLIED TO HYDROGENS
Info: LANGEVIN PISTON PRESSURE CONTROL ACTIVE
Info:        TARGET PRESSURE IS 1.01325 BAR
Info:     OSCILLATION PERIOD IS 50 FS
Info:             DECAY TIME IS 25 FS
Info:     PISTON TEMPERATURE IS 300 K
Info:       PRESSURE CONTROL IS GROUP-BASED
Info:    INITIAL STRAIN RATE IS -0.000230316 -0.000230316 -0.000230316
Info:       CELL FLUCTUATION IS ISOTROPIC
Info: PARTICLE MESH EWALD (PME) ACTIVE
Info: PME TOLERANCE               1e-06
Info: PME EWALD COEFFICIENT       0.348832
Info: PME INTERPOLATION ORDER     4
Info: PME GRID DIMENSIONS         32 32 32
Info: PME MAXIMUM GRID SPACING    1
Info: PME CALCULATION WILL BE PERFORMED ON GPU
Info: FULL ELECTROSTATIC EVALUATION FREQUENCY      2
Info: USING VERLET I (r-RESPA) MTS SCHEME.
Info: C1 SPLITTING OF LONG RANGE ELECTROSTATICS
Info: PLACING ATOMS IN PATCHES BY HYDROGEN GROUPS
Info: RIGID BONDS TO HYDROGEN : ALL
Info:         ERROR TOLERANCE : 1e-08
Info:          MAX ITERATIONS : 100
Info: RIGID WATER USING SETTLE ALGORITHM
Info: RANDOM NUMBER SEED     1742498965
Info: USE HYDROGEN BONDS?    NO
Info: Using AMBER format force field!
Info: AMBER PARM FILE        mobley_7532833.prmtop
Info: COORDINATE PDB         mobley_7532833.pdb
Info: Exclusions will be read from PARM file!
Info: SCNB (VDW SCALING)     2
Info: USING ARITHMETIC MEAN TO COMBINE L-J SIGMA PARAMETERS
Info: BINARY COORDINATES     mobley_7532833_equil.coor
Info: SUMMARY OF PARAMETERS:
Info: 5 BONDS
Info: 3 ANGLES
Info:   3 HARMONIC
Info:   0 COSINE-BASED
Info: 1 DIHEDRAL
Info: 0 IMPROPER
Info: 0 CROSSTERM
Info: 0 VDW
Info: 21 VDW_PAIRS
Info: 0 NBTHOLE_PAIRS
Info: To read alchdata from file: mobley_7532833.pdb
Info: To read alchflag data from column: 5
Info: STRUCTURE SUMMARY:
Info: 2946 ATOMS
Info: 2945 BONDS
Info: 7 ANGLES
Info: 3 DIHEDRALS
Info: 0 IMPROPERS
Info: 0 CROSSTERMS
Info: 2955 EXCLUSIONS
Info: 2943 RIGID BONDS
Info: ALCH: 0 ATOMS TO DISAPPEAR IN FINAL STATE
Info: ALCH: 6 ATOMS TO APPEAR IN FINAL STATE
Info: 5895 DEGREES OF FREEDOM
Info: 983 HYDROGEN GROUPS
Info: 4 ATOMS IN LARGEST HYDROGEN GROUP
Info: 983 MIGRATION GROUPS
Info: 4 ATOMS IN LARGEST MIGRATION GROUP
Info: TOTAL MASS = 17696.7 amu
Info: TOTAL CHARGE = 0.000100002 e
Info: MASS DENSITY = 0.978337 g/cm^3
Info: ATOM DENSITY = 0.0980773 atoms/A^3
Info: ADDED 0 IMPLICIT EXCLUSIONS
Info: NONBONDED TABLE R-SQUARED SPACING: 0.0625
Info: NONBONDED TABLE SIZE: 705 POINTS
Info: REMOVING COM VELOCITY -0.0582516 -0.00199017 -0.0792612
Info: Use 3D box decompostion in PME FFT.
Info: Updated CUDA force table with 4096 elements.
Info: Updated CUDA LJ table with 6 x 6 elements.
Info: Found 8 unique exclusion lists needing 8 bytes
TCL: Running for 1500000 steps
ETITLE: TS BOND ANGLE DIHED IMPRP ELECT VDW BOUNDARY MISC KINETIC TOTAL TEMP POTENTIAL TOTALAVG TEMPAVG PRESSURE GPRESSURE VOLUME PRESSAVG GPRESSAVG
ENERGY: 0 0.0033 0.3265 0.0000 0.0000 -10689.1368 1435.8411 0.0000 0.0000 1817.4833 -7435.4826 310.2966 -9252.9659 -7435.4826 310.2966 123.0209 211.1858 30037.5208 123.0209 211.1858
ENERGY: 300000 1.8240 5.2299 0.0000 0.0000 -10689.7673 1445.0765 0.0000 0.0000 1708.3945 -7529.2423 291.6720 -9237.6369 -7521.7901 298.2159 -41.5247 88.3869 30662.2048 -28.5513 87.9329
ENERGY: 600000 1.4816 1.7895 0.0000 0.0000 -10817.6693 1494.7626 0.0000 0.0000 1742.8035 -7576.8320 297.5466 -9319.6355 -7520.3701 298.4454 510.0808 517.9935 30130.1867 -25.3244 63.9861
ENERGY: 900000 0.2484 1.7980 0.0000 0.0000 -10701.8857 1471.0259 0.0000 0.0000 1785.8771 -7442.9363 304.9005 -9228.8135 -7529.3016 298.4797 343.6231 399.0540 30250.6150 -11.3159 58.3161
ENERGY: 1200000 0.3002 0.9762 0.0000 0.0000 -10645.5903 1406.9790 0.0000 0.0000 1710.8911 -7526.4438 292.0982 -9237.3349 -7528.4021 298.4473 -144.3044 -47.2761 30123.0025 -51.1582 16.5580
ENERGY: 1500000 0.3480 1.9820 0.0000 0.0000 -10747.6273 1482.6296 0.0000 0.0000 1711.2062 -7551.4615 292.1520 -9262.6677 -7530.3577 299.2377 75.1462 167.1115 30725.4676 -32.8975 36.0280
TCL: Running FEP window   2: Lambda1 0.95   Lambda2 0.8999999999999999 [dLambda -0.050000000000000044]
TCL: Setting parameter firsttimestep to 0
TCL: Setting parameter alchLambda to 0.95
Info: NONBONDED TABLE R-SQUARED SPACING: 0.0625
Info: NONBONDED TABLE SIZE: 705 POINTS
TCL: Setting parameter alchLambda2 to 0.8999999999999999
Info: NONBONDED TABLE R-SQUARED SPACING: 0.0625
Info: NONBONDED TABLE SIZE: 705 POINTS
TCL: Running for 1500000 steps
ETITLE: TS BOND ANGLE DIHED IMPRP ELECT VDW BOUNDARY MISC KINETIC TOTAL TEMP POTENTIAL TOTALAVG TEMPAVG PRESSURE GPRESSURE VOLUME PRESSAVG GPRESSAVG
ENERGY: 0 0.3480 1.9820 0.0000 0.0000 -10746.9086 1482.7373 0.0000 0.0000 1710.3635 -7551.4779 292.0082 -9261.8414 -7551.4779 292.0082 76.2724 162.8448 30725.4676 76.2724 162.8448
ENERGY: 300000 0.2530 2.1994 0.0000 0.0000 -10732.4271 1432.8603 0.0000 0.0000 1768.0950 -7529.0194 301.8646 -9297.1144 -7543.7012 295.4641 -242.2355 -235.4357 30791.5747 -46.1957 14.5774
ENERGY: 600000 0.4566 1.3518 0.0000 0.0000 -10737.4540 1459.6900 0.0000 0.0000 1745.4834 -7530.4722 298.0041 -9275.9555 -7535.3571 296.3010 247.7789 298.1371 30230.4332 -89.2761 -25.2288
ENERGY: 900000 1.3766 1.4356 0.0000 0.0000 -10559.7303 1381.6864 0.0000 0.0000 1756.9243 -7418.3074 299.9574 -9175.2317 -7528.1168 297.9624 -425.4802 -352.9432 30989.6076 50.1914 113.4550
ENERGY: 1200000 0.1364 1.0909 0.0000 0.0000 -10678.4161 1386.1446 0.0000 0.0000 1754.5708 -7536.4734 299.5556 -9291.0442 -7520.9236 299.1399 -539.9252 -488.8501 30579.4193 42.8194 107.6392
ENERGY: 1500000 1.3816 0.6223 0.0000 0.0000 -10506.4335 1280.1012 0.0000 0.0000 1777.7050 -7446.6235 303.5053 -9224.3284 -7512.0034 299.6369 -1030.0699 -1029.6321 30503.8657 -55.7487 10.1798
TCL: Running FEP window   3: Lambda1 0.8999999999999999 Lambda2 0.8499999999999999 [dLambda -0.050000000000000044]
TCL: Setting parameter firsttimestep to 0
TCL: Setting parameter alchLambda to 0.8999999999999999
Info: NONBONDED TABLE R-SQUARED SPACING: 0.0625
Info: NONBONDED TABLE SIZE: 705 POINTS
TCL: Setting parameter alchLambda2 to 0.8499999999999999
Info: NONBONDED TABLE R-SQUARED SPACING: 0.0625
Info: NONBONDED TABLE SIZE: 705 POINTS
TCL: Running for 1500000 steps
ETITLE: TS BOND ANGLE DIHED IMPRP ELECT VDW BOUNDARY MISC KINETIC TOTAL TEMP POTENTIAL TOTALAVG TEMPAVG PRESSURE GPRESSURE VOLUME PRESSAVG GPRESSAVG
ENERGY: 0 1.3816 0.6223 0.0000 0.0000 -10505.1562 1280.0846 0.0000 0.0000 1776.8082 -7446.2595 303.3522 -9223.0677 -7446.2595 303.3522 -1110.0022 -1033.6535 30503.8657 -1110.0022 -1033.6535
ENERGY: 300000 0.2421 1.2010 0.0000 0.0000 -10628.9129 1315.5582 0.0000 0.0000 1715.2425 -7596.6691 292.8411 -9311.9116 -7494.4710 300.3778 -966.5904 -908.4946 29942.1528 -398.6161 -327.6778
ENERGY: 600000 0.1904 2.2861 0.0000 0.0000 -10709.3064 1451.4689 0.0000 0.0000 1814.2229 -7441.1381 309.7399 -9255.3610 -7503.9816 301.5638 87.9732 186.3715 30322.3756 -184.7730 -115.9642
ENERGY: 900000 0.2934 0.8687 0.0000 0.0000 -10669.4337 1398.6166 0.0000 0.0000 1768.1294 -7501.5255 301.8705 -9269.6549 -7522.7673 300.5916 -308.0922 -273.1096 30606.9342 -252.7412 -177.2175
ENERGY: 1200000 1.5422 2.0649 0.0000 0.0000 -10672.2363 1407.0984 0.0000 0.0000 1798.0430 -7463.4877 306.9776 -9261.5307 -7513.5378 301.2047 -287.8452 -209.1739 30273.9128 -163.7208 -90.7356
ENERGY: 1500000 0.0416 2.9411 0.0000 0.0000 -10789.3253 1438.9053 0.0000 0.0000 1728.5012 -7618.9361 295.1048 -9347.4373 -7516.3683 301.0953 -173.6290 -107.6235 30122.7368 -174.2467 -100.2565
TCL: Running FEP window   4: Lambda1 0.8499999999999999 Lambda2 0.7999999999999998 [dLambda -0.050000000000000044]
TCL: Setting parameter firsttimestep to 0
TCL: Setting parameter alchLambda to 0.8499999999999999
Info: NONBONDED TABLE R-SQUARED SPACING: 0.0625
Info: NONBONDED TABLE SIZE: 705 POINTS
TCL: Setting parameter alchLambda2 to 0.7999999999999998
Info: NONBONDED TABLE R-SQUARED SPACING: 0.0625
Info: NONBONDED TABLE SIZE: 705 POINTS
TCL: Running for 1500000 steps
ETITLE: TS BOND ANGLE DIHED IMPRP ELECT VDW BOUNDARY MISC KINETIC TOTAL TEMP POTENTIAL TOTALAVG TEMPAVG PRESSURE GPRESSURE VOLUME PRESSAVG GPRESSAVG
ENERGY: 0 0.0416 2.9411 0.0000 0.0000 -10788.4213 1438.8809 0.0000 0.0000 1727.6213 -7618.9362 294.9546 -9346.5576 -7618.9362 294.9546 -195.8179 -111.3627 30122.7368 -195.8179 -111.3627
ENERGY: 300000 0.0832 4.2611 0.0000 0.0000 -10640.1771 1369.5145 0.0000 0.0000 1799.1128 -7467.2055 307.1602 -9266.3183 -7567.6564 300.7870 -352.2657 -316.8559 30204.2251 142.0130 191.2260
ENERGY: 600000 0.8842 1.9040 0.0000 0.0000 -10661.5299 1424.8148 0.0000 0.0000 1750.3297 -7483.5971 298.8315 -9233.9269 -7553.3515 300.2620 37.4812 84.5554 29894.3527 38.1579 95.8399
ENERGY: 900000 1.8543 0.4114 0.0000 0.0000 -10727.8973 1419.0693 0.0000 0.0000 1752.5484 -7554.0138 299.2103 -9306.5622 -7533.7947 300.4716 -272.0529 -174.8729 30316.3908 -108.1400 -53.5274
ENERGY: 1200000 0.0554 2.8142 0.0000 0.0000 -10753.6079 1426.7092 0.0000 0.0000 1771.2303 -7552.7987 302.3999 -9324.0290 -7541.7181 299.7409 -229.2315 -124.8676 30337.3419 -191.6627 -136.3359
ENERGY: 1500000 0.3468 0.9006 0.0000 0.0000 -10767.0248 1463.3448 0.0000 0.0000 1770.4349 -7531.9977 302.2641 -9302.4326 -7536.8008 299.7849 141.3461 161.2411 30392.7685 -152.2991 -99.3270
TCL: Running FEP window   5: Lambda1 0.7999999999999998 Lambda2 0.7499999999999998 [dLambda -0.050000000000000044]
TCL: Setting parameter firsttimestep to 0
TCL: Setting parameter alchLambda to 0.7999999999999998
Info: NONBONDED TABLE R-SQUARED SPACING: 0.0625
Info: NONBONDED TABLE SIZE: 705 POINTS
TCL: Setting parameter alchLambda2 to 0.7499999999999998
Info: NONBONDED TABLE R-SQUARED SPACING: 0.0625
Info: NONBONDED TABLE SIZE: 705 POINTS
TCL: Running for 1500000 steps
ETITLE: TS BOND ANGLE DIHED IMPRP ELECT VDW BOUNDARY MISC KINETIC TOTAL TEMP POTENTIAL TOTALAVG TEMPAVG PRESSURE GPRESSURE VOLUME PRESSAVG GPRESSAVG
ENERGY: 0 0.3468 0.9006 0.0000 0.0000 -10766.2062 1463.2476 0.0000 0.0000 1769.5925 -7532.1187 302.1203 -9301.7112 -7532.1187 302.1203 78.1649 154.0152 30392.7685 78.1649 154.0152
ENERGY: 300000 1.4561 0.6713 0.0000 0.0000 -10727.9759 1464.0360 0.0000 0.0000 1723.0558 -7538.7566 294.1751 -9261.8125 -7517.1035 296.8055 81.4437 138.4023 30303.7320 -112.2512 -59.9908
ENERGY: 600000 0.6088 6.0557 0.0000 0.0000 -10596.0958 1352.3000 0.0000 0.0000 1807.7908 -7429.3405 308.6418 -9237.1313 -7499.1865 300.7859 -822.1162 -787.0711 30863.0272 -114.2334 -66.1243
ENERGY: 900000 0.8479 2.4928 0.0000 0.0000 -10653.9832 1403.1466 0.0000 0.0000 1783.7840 -7463.7119 304.5432 -9247.4959 -7503.1714 300.3002 -67.5049 -1.4167 30154.2976 -56.2147 3.0713
ENERGY: 1200000 0.1400 1.9570 0.0000 0.0000 -10686.2769 1379.7192 0.0000 0.0000 1733.2046 -7571.2560 295.9078 -9304.4606 -7523.7194 299.3055 -677.1503 -609.6264 30496.5595 -120.2320 -61.1744
ENERGY: 1500000 0.0358 1.3432 0.0000 0.0000 -10701.8690 1432.8620 0.0000 0.0000 1789.8950 -7477.7329 305.5865 -9267.6279 -7518.1903 299.5755 63.3136 107.4524 30354.2126 -115.2046 -57.0258
TCL: Running FEP window   6: Lambda1 0.7499999999999998 Lambda2 0.6999999999999997 [dLambda -0.050000000000000044]
TCL: Setting parameter firsttimestep to 0
TCL: Setting parameter alchLambda to 0.7499999999999998
Info: NONBONDED TABLE R-SQUARED SPACING: 0.0625
Info: NONBONDED TABLE SIZE: 705 POINTS
TCL: Setting parameter alchLambda2 to 0.6999999999999997
Info: NONBONDED TABLE R-SQUARED SPACING: 0.0625
Info: NONBONDED TABLE SIZE: 705 POINTS
TCL: Running for 1500000 steps
ETITLE: TS BOND ANGLE DIHED IMPRP ELECT VDW BOUNDARY MISC KINETIC TOTAL TEMP POTENTIAL TOTALAVG TEMPAVG PRESSURE GPRESSURE VOLUME PRESSAVG GPRESSAVG
ENERGY: 0 0.0358 1.3432 0.0000 0.0000 -10701.1909 1431.9246 0.0000 0.0000 1789.0188 -7478.8685 305.4369 -9267.8873 -7478.8685 305.4369 5.2596 93.2515 30354.2126 5.2596 93.2515
ENERGY: 300000 0.2488 0.7233 0.0000 0.0000 -10716.9013 1488.0482 0.0000 0.0000 1721.4869 -7506.3941 293.9072 -9227.8810 -7489.8357 301.9415 394.5077 507.6150 30387.2724 59.4031 151.2678
ENERGY: 600000 0.0066 4.4076 0.0000 0.0000 -10595.5233 1355.3437 0.0000 0.0000 1748.2629 -7487.5025 298.4787 -9235.7654 -7496.4449 301.2462 -687.4316 -583.5958 30803.4861 -255.8559 -171.3045
ENERGY: 900000 0.0019 1.5528 0.0000 0.0000 -10612.5141 1374.5140 0.0000 0.0000 1752.2561 -7484.1893 299.1604 -9236.4454 -7491.8170 300.7676 -502.8457 -417.2719 30637.7425 -231.8076 -153.9038
ENERGY: 1200000 0.9796 2.8986 0.0000 0.0000 -10826.2190 1520.8724 0.0000 0.0000 1740.7183 -7560.7500 297.1906 -9301.4684 -7499.9483 299.9479 601.6065 621.9299 30276.2105 -166.4508 -97.3828
ENERGY: 1500000 0.5601 3.7231 0.0000 0.0000 -10767.2214 1519.4098 0.0000 0.0000 1774.0617 -7469.4668 302.8833 -9243.5284 -7504.8976 300.0855 584.8465 730.0766 30438.7145 -144.0161 -71.1556
TCL: Running FEP window   7: Lambda1 0.6999999999999997 Lambda2 0.6499999999999997 [dLambda -0.050000000000000044]
TCL: Setting parameter firsttimestep to 0
TCL: Setting parameter alchLambda to 0.6999999999999997
Info: NONBONDED TABLE R-SQUARED SPACING: 0.0625
Info: NONBONDED TABLE SIZE: 705 POINTS
TCL: Setting parameter alchLambda2 to 0.6499999999999997
Info: NONBONDED TABLE R-SQUARED SPACING: 0.0625
Info: NONBONDED TABLE SIZE: 705 POINTS
TCL: Running for 1500000 steps
ETITLE: TS BOND ANGLE DIHED IMPRP ELECT VDW BOUNDARY MISC KINETIC TOTAL TEMP POTENTIAL TOTALAVG TEMPAVG PRESSURE GPRESSURE VOLUME PRESSAVG GPRESSAVG
ENERGY: 0 0.5601 3.7231 0.0000 0.0000 -10767.0083 1519.4800 0.0000 0.0000 1773.1833 -7470.0617 302.7333 -9243.2450 -7470.0617 302.7333 638.5552 724.2384 30438.7145 638.5552 724.2384
ENERGY: 300000 0.0026 3.7185 0.0000 0.0000 -10707.0159 1426.8961 0.0000 0.0000 1746.2252 -7530.1736 298.1308 -9276.3988 -7476.2878 301.9162 -77.1031 -22.5602 30309.8494 92.5895 109.0384
ENERGY: 600000 0.4318 2.7049 0.0000 0.0000 -10684.1605 1409.9914 0.0000 0.0000 1757.0423 -7513.9901 299.9776 -9271.0325 -7506.6252 299.8729 -43.5986 24.8436 29692.1283 47.7032 88.8460
ENERGY: 900000 0.0533 1.4670 0.0000 0.0000 -10695.2939 1454.0225 0.0000 0.0000 1733.7190 -7506.0320 295.9956 -9239.7511 -7523.0535 299.8425 177.9326 212.9259 30271.7545 25.2912 74.0132
ENERGY: 1200000 0.0482 1.3176 0.0000 0.0000 -10793.4985 1451.6742 0.0000 0.0000 1735.6271 -7604.8313 296.3214 -9340.4584 -7522.1092 300.0233 -61.3493 63.6053 29896.4428 -2.6333 61.1057
ENERGY: 1500000 0.3422 3.5819 0.0000 0.0000 -10660.6995 1445.9051 0.0000 0.0000 1754.0575 -7456.8127 299.4680 -9210.8702 -7506.4893 299.8722 435.0646 470.4917 30075.4328 -16.4048 46.5349
TCL: Running FEP window   8: Lambda1 0.6499999999999997 Lambda2 0.5999999999999996 [dLambda -0.050000000000000044]
TCL: Setting parameter firsttimestep to 0
TCL: Setting parameter alchLambda to 0.6499999999999997
Info: NONBONDED TABLE R-SQUARED SPACING: 0.0625
Info: NONBONDED TABLE SIZE: 705 POINTS
TCL: Setting parameter alchLambda2 to 0.5999999999999996
Info: NONBONDED TABLE R-SQUARED SPACING: 0.0625
Info: NONBONDED TABLE SIZE: 705 POINTS
TCL: Running for 1500000 steps
ETITLE: TS BOND ANGLE DIHED IMPRP ELECT VDW BOUNDARY MISC KINETIC TOTAL TEMP POTENTIAL TOTALAVG TEMPAVG PRESSURE GPRESSURE VOLUME PRESSAVG GPRESSAVG
ENERGY: 0 0.3422 3.5819 0.0000 0.0000 -10659.9880 1445.5336 0.0000 0.0000 1753.1768 -7457.3534 299.3176 -9210.5302 -7457.3534 299.3176 379.5034 464.0670 30075.4328 379.5034 464.0670
ENERGY: 300000 1.5692 3.4474 0.0000 0.0000 -10652.2751 1352.3664 0.0000 0.0000 1790.8072 -7504.0850 305.7422 -9294.8922 -7458.4078 301.8959 -726.6369 -735.2350 30549.5378 -157.6294 -99.7224
ENERGY: 600000 2.4583 1.0586 0.0000 0.0000 -10752.6119 1487.0738 0.0000 0.0000 1741.7724 -7520.2488 297.3706 -9262.0212 -7476.5808 300.0221 614.9528 669.9889 29899.2099 -27.2883 14.2436
ENERGY: 900000 0.5229 0.7140 0.0000 0.0000 -10664.0654 1428.3352 0.0000 0.0000 1770.8075 -7463.6858 302.3277 -9234.4932 -7473.1576 300.9116 -58.0250 18.5373 30452.2934 65.7066 123.2784
ENERGY: 1200000 0.0545 3.0373 0.0000 0.0000 -10682.7513 1382.4671 0.0000 0.0000 1769.0543 -7528.1381 302.0284 -9297.1924 -7489.3188 300.3056 -240.1332 -240.6491 29900.6241 -40.9281 13.6383
ENERGY: 1500000 0.0462 0.9878 0.0000 0.0000 -10784.7122 1471.7623 0.0000 0.0000 1801.1032 -7510.8128 307.5000 -9311.9160 -7490.4337 300.3028 90.2446 109.6561 30387.1985 -40.4603 12.8274
TCL: Running FEP window   9: Lambda1 0.5999999999999996 Lambda2 0.5499999999999996 [dLambda -0.050000000000000044]
TCL: Setting parameter firsttimestep to 0
TCL: Setting parameter alchLambda to 0.5999999999999996
Info: NONBONDED TABLE R-SQUARED SPACING: 0.0625
Info: NONBONDED TABLE SIZE: 705 POINTS
TCL: Setting parameter alchLambda2 to 0.5499999999999996
Info: NONBONDED TABLE R-SQUARED SPACING: 0.0625
Info: NONBONDED TABLE SIZE: 705 POINTS
TCL: Running for 1500000 steps
ETITLE: TS BOND ANGLE DIHED IMPRP ELECT VDW BOUNDARY MISC KINETIC TOTAL TEMP POTENTIAL TOTALAVG TEMPAVG PRESSURE GPRESSURE VOLUME PRESSAVG GPRESSAVG
ENERGY: 0 0.0462 0.9878 0.0000 0.0000 -10784.4464 1471.7163 0.0000 0.0000 1800.2036 -7511.4925 307.3465 -9311.6961 -7511.4925 307.3465 24.0808 104.2499 30387.1985 24.0808 104.2499
ENERGY: 300000 0.3379 3.2326 0.0000 0.0000 -10572.8493 1393.4032 0.0000 0.0000 1743.8454 -7432.0301 297.7245 -9175.8756 -7474.0484 301.4980 -140.9698 -108.0461 30569.1644 39.9364 74.8421
ENERGY: 600000 0.0207 1.1592 0.0000 0.0000 -10771.6672 1440.2438 0.0000 0.0000 1739.9408 -7590.3027 297.0579 -9330.2435 -7502.6340 301.1872 -319.5919 -279.2063 30396.4050 -0.0015 38.4970
ENERGY: 900000 1.1638 3.5960 0.0000 0.0000 -10749.9419 1476.2324 0.0000 0.0000 1785.5028 -7483.4469 304.8366 -9268.9497 -7509.8905 299.7760 396.2559 358.7317 30286.3691 -134.5938 -109.4578
ENERGY: 1200000 0.3845 3.3603 0.0000 0.0000 -10746.0070 1420.0241 0.0000 0.0000 1809.8156 -7512.4225 308.9875 -9322.2382 -7520.5568 300.6979 -236.3897 -227.6354 30370.2795 -99.7497 -69.3017
ENERGY: 1500000 1.8312 1.4947 0.0000 0.0000 -10768.8081 1448.8393 0.0000 0.0000 1708.8942 -7607.7486 291.7573 -9316.6429 -7530.2344 300.7634 -3.1416 77.7703 30074.0843 -61.5191 -24.5187
TCL: Running FEP window  10: Lambda1 0.5499999999999996 Lambda2 0.4999999999999996 [dLambda -0.04999999999999999]
TCL: Setting parameter firsttimestep to 0
TCL: Setting parameter alchLambda to 0.5499999999999996
Info: NONBONDED TABLE R-SQUARED SPACING: 0.0625
Info: NONBONDED TABLE SIZE: 705 POINTS
TCL: Setting parameter alchLambda2 to 0.4999999999999996
Info: NONBONDED TABLE R-SQUARED SPACING: 0.0625
Info: NONBONDED TABLE SIZE: 705 POINTS
TCL: Running for 1500000 steps
ETITLE: TS BOND ANGLE DIHED IMPRP ELECT VDW BOUNDARY MISC KINETIC TOTAL TEMP POTENTIAL TOTALAVG TEMPAVG PRESSURE GPRESSURE VOLUME PRESSAVG GPRESSAVG
ENERGY: 0 1.8312 1.4947 0.0000 0.0000 -10768.2404 1449.0810 0.0000 0.0000 1707.9901 -7607.8434 291.6030 -9315.8335 -7607.8434 291.6030 -22.6901 75.5716 30074.0843 -22.6901 75.5716
ENERGY: 300000 0.7496 3.4358 0.0000 0.0000 -10605.5162 1354.4574 0.0000 0.0000 1739.7873 -7507.0861 297.0317 -9246.8734 -7519.1163 296.6235 -380.0157 -337.4682 30080.1964 -186.2230 -129.7224
ENERGY: 600000 1.9485 3.0887 0.0000 0.0000 -10653.3129 1390.7510 0.0000 0.0000 1746.1759 -7511.3489 298.1224 -9257.5248 -7532.2646 299.0662 -239.4922 -166.5399 30264.4657 -92.4316 -30.5574
ENERGY: 900000 0.1549 1.8726 0.0000 0.0000 -10648.9105 1377.7860 0.0000 0.0000 1695.9012 -7573.1958 289.5390 -9269.0970 -7535.5692 299.3252 -713.9595 -595.6451 30628.4114 -76.8331 -3.0653
ENERGY: 1200000 0.2994 1.3440 0.0000 0.0000 -10773.0684 1451.0542 0.0000 0.0000 1737.1964 -7583.1745 296.5893 -9320.3708 -7541.6454 299.7665 -23.2067 -8.5818 30451.1116 -41.8743 22.0900
ENERGY: 1500000 0.3585 1.2275 0.0000 0.0000 -10720.3087 1450.5926 0.0000 0.0000 1731.5862 -7536.5439 295.6315 -9268.1301 -7532.8492 300.6805 378.2646 394.7959 29761.1804 -30.9403 36.3542
TCL: Running FEP window  11: Lambda1 0.4999999999999996 Lambda2 0.4499999999999996 [dLambda -0.04999999999999999]
TCL: Setting parameter firsttimestep to 0
TCL: Setting parameter alchLambda to 0.4999999999999996
Info: NONBONDED TABLE R-SQUARED SPACING: 0.0625
Info: NONBONDED TABLE SIZE: 705 POINTS
TCL: Setting parameter alchLambda2 to 0.4499999999999996
Info: NONBONDED TABLE R-SQUARED SPACING: 0.0625
Info: NONBONDED TABLE SIZE: 705 POINTS
TCL: Running for 1500000 steps
ETITLE: TS BOND ANGLE DIHED IMPRP ELECT VDW BOUNDARY MISC KINETIC TOTAL TEMP POTENTIAL TOTALAVG TEMPAVG PRESSURE GPRESSURE VOLUME PRESSAVG GPRESSAVG
ENERGY: 0 0.3585 1.2275 0.0000 0.0000 -10720.2995 1450.2352 0.0000 0.0000 1730.7296 -7537.7488 295.4852 -9268.4784 -7537.7488 295.4852 295.8342 388.4814 29761.1804 295.8342 388.4814
ENERGY: 300000 0.4131 1.6101 0.0000 0.0000 -10628.1118 1470.7890 0.0000 0.0000 1785.3110 -7369.9887 304.8038 -9155.2996 -7494.1315 298.0731 465.3268 508.7485 30492.0183 -73.1555 25.3869
ENERGY: 600000 0.7878 1.9741 0.0000 0.0000 -10761.5330 1443.6475 0.0000 0.0000 1762.5038 -7552.6198 300.9100 -9315.1235 -7499.6270 297.5495 -124.6479 -1.1406 30130.4655 -185.4859 -93.2701
ENERGY: 900000 1.2731 0.4011 0.0000 0.0000 -10693.9132 1363.0496 0.0000 0.0000 1766.8515 -7562.3379 301.6523 -9329.1895 -7515.7600 298.4881 -675.4929 -609.3236 30073.1867 -308.6332 -212.7202
ENERGY: 1200000 0.0215 1.4880 0.0000 0.0000 -10783.2442 1466.8246 0.0000 0.0000 1774.7566 -7540.1534 303.0019 -9314.9100 -7515.0667 299.9132 -54.8209 -15.7872 30598.4799 -283.4313 -196.5171
ENERGY: 1500000 0.2767 2.1045 0.0000 0.0000 -10634.4146 1395.0594 0.0000 0.0000 1725.7757 -7511.1983 294.6395 -9236.9740 -7515.0034 300.4515 -60.8558 -15.0677 29876.7244 -187.1312 -107.6256
TCL: Running FEP window  12: Lambda1 0.4499999999999996 Lambda2 0.39999999999999963 [dLambda -0.04999999999999999]
TCL: Setting parameter firsttimestep to 0
TCL: Setting parameter alchLambda to 0.4499999999999996
Info: NONBONDED TABLE R-SQUARED SPACING: 0.0625
Info: NONBONDED TABLE SIZE: 705 POINTS
TCL: Setting parameter alchLambda2 to 0.39999999999999963
Info: NONBONDED TABLE R-SQUARED SPACING: 0.0625
Info: NONBONDED TABLE SIZE: 705 POINTS
TCL: Running for 1500000 steps
ETITLE: TS BOND ANGLE DIHED IMPRP ELECT VDW BOUNDARY MISC KINETIC TOTAL TEMP POTENTIAL TOTALAVG TEMPAVG PRESSURE GPRESSURE VOLUME PRESSAVG GPRESSAVG
ENERGY: 0 0.2767 2.1045 0.0000 0.0000 -10634.4149 1395.1555 0.0000 0.0000 1724.8959 -7511.9823 294.4893 -9236.8782 -7511.9823 294.4893 -99.5512 -17.5381 29876.7244 -99.5512 -17.5381
ENERGY: 300000 1.0024 3.6169 0.0000 0.0000 -10672.4511 1456.2263 0.0000 0.0000 1726.8765 -7484.7290 294.8274 -9211.6055 -7486.0945 298.4044 257.3091 328.4015 30255.9451 141.1765 217.7791
ENERGY: 600000 2.5166 1.6515 0.0000 0.0000 -10681.2449 1422.0449 0.0000 0.0000 1750.4701 -7504.5618 298.8555 -9255.0319 -7470.2557 300.8636 228.5844 276.7776 29784.7405 -52.8374 15.1804
ENERGY: 900000 0.0320 2.6368 0.0000 0.0000 -10686.7206 1407.8774 0.0000 0.0000 1784.0860 -7492.0884 304.5947 -9276.1743 -7483.0954 301.5890 -479.1375 -328.4924 30500.2377 -56.8642 15.4012
ENERGY: 1200000 1.1763 1.4480 0.0000 0.0000 -10757.9291 1507.6574 0.0000 0.0000 1698.1344 -7549.5129 289.9203 -9247.6473 -7485.7906 300.6531 291.6508 417.4162 30515.9646 -17.3034 51.6780
ENERGY: 1500000 0.1629 1.6649 0.0000 0.0000 -10708.1192 1400.1743 0.0000 0.0000 1746.4257 -7559.6914 298.1650 -9306.1171 -7494.5956 300.9146 -353.9538 -327.2709 30221.6589 -93.6052 -24.2739
TCL: Running FEP window  13: Lambda1 0.39999999999999963 Lambda2 0.34999999999999964 [dLambda -0.04999999999999999]
TCL: Setting parameter firsttimestep to 0
TCL: Setting parameter alchLambda to 0.39999999999999963
Info: NONBONDED TABLE R-SQUARED SPACING: 0.0625
Info: NONBONDED TABLE SIZE: 705 POINTS
TCL: Setting parameter alchLambda2 to 0.34999999999999964
Info: NONBONDED TABLE R-SQUARED SPACING: 0.0625
Info: NONBONDED TABLE SIZE: 705 POINTS
TCL: Running for 1500000 steps
ETITLE: TS BOND ANGLE DIHED IMPRP ELECT VDW BOUNDARY MISC KINETIC TOTAL TEMP POTENTIAL TOTALAVG TEMPAVG PRESSURE GPRESSURE VOLUME PRESSAVG GPRESSAVG
ENERGY: 0 0.1629 1.6649 0.0000 0.0000 -10708.1186 1400.1124 0.0000 0.0000 1745.5349 -7560.6434 298.0129 -9306.1784 -7560.6434 298.0129 -421.1948 -330.6849 30221.6589 -421.1948 -330.6849
ENERGY: 300000 0.7093 3.3745 0.0000 0.0000 -10769.9061 1444.5016 0.0000 0.0000 1759.7533 -7561.5673 300.4404 -9321.3207 -7512.8943 298.9312 274.6072 348.2898 29628.0911 -140.7628 -69.9295
ENERGY: 600000 1.8289 3.3499 0.0000 0.0000 -10623.1200 1340.6671 0.0000 0.0000 1791.3593 -7485.9148 305.8365 -9277.2740 -7485.6400 300.9541 -984.8056 -921.6188 30750.5377 -299.6353 -237.4991
ENERGY: 900000 0.5476 0.6585 0.0000 0.0000 -10755.7319 1462.7229 0.0000 0.0000 1767.0154 -7524.7875 301.6803 -9291.8029 -7497.3269 302.3980 109.9934 218.5262 30406.7911 -190.2907 -119.2775
ENERGY: 1200000 1.8676 3.2413 0.0000 0.0000 -10797.9766 1509.5451 0.0000 0.0000 1749.9336 -7533.3890 298.7639 -9283.3226 -7506.9310 301.4661 781.0130 771.0881 29900.9161 -132.2546 -75.3864
ENERGY: 1500000 1.5102 2.6116 0.0000 0.0000 -10624.1107 1375.8558 0.0000 0.0000 1784.0167 -7460.1163 304.5829 -9244.1330 -7502.5566 301.9306 -247.0682 -156.9420 30388.6926 -132.7495 -70.5653
TCL: Running FEP window  14: Lambda1 0.34999999999999964 Lambda2 0.29999999999999966 [dLambda -0.04999999999999999]
TCL: Setting parameter firsttimestep to 0
TCL: Setting parameter alchLambda to 0.34999999999999964
Info: NONBONDED TABLE R-SQUARED SPACING: 0.0625
Info: NONBONDED TABLE SIZE: 705 POINTS
TCL: Setting parameter alchLambda2 to 0.29999999999999966
Info: NONBONDED TABLE R-SQUARED SPACING: 0.0625
Info: NONBONDED TABLE SIZE: 705 POINTS
TCL: Running for 1500000 steps
ETITLE: TS BOND ANGLE DIHED IMPRP ELECT VDW BOUNDARY MISC KINETIC TOTAL TEMP POTENTIAL TOTALAVG TEMPAVG PRESSURE GPRESSURE VOLUME PRESSAVG GPRESSAVG
ENERGY: 0 1.5102 2.6116 0.0000 0.0000 -10624.1113 1376.0656 0.0000 0.0000 1783.1329 -7460.7910 304.4320 -9243.9239 -7460.7910 304.4320 -229.4402 -156.7608 30388.6926 -229.4402 -156.7608
ENERGY: 300000 1.1043 2.8675 0.0000 0.0000 -10812.8046 1485.0589 0.0000 0.0000 1780.3110 -7543.4629 303.9502 -9323.7739 -7537.3519 303.4310 163.6466 242.0280 30511.9603 -128.8841 -67.4155
ENERGY: 600000 1.5102 2.4444 0.0000 0.0000 -10772.4069 1480.8688 0.0000 0.0000 1782.9521 -7504.6314 304.4011 -9287.5835 -7503.9477 305.4471 304.5246 353.3596 29938.8592 76.6165 149.3169
ENERGY: 900000 0.0069 3.3488 0.0000 0.0000 -10739.4333 1417.0856 0.0000 0.0000 1746.2199 -7572.7721 298.1299 -9318.9921 -7528.5229 303.3660 -287.7305 -339.9617 30331.6112 -97.1217 -36.1325
ENERGY: 1200000 0.6870 1.6320 0.0000 0.0000 -10864.7391 1534.1290 0.0000 0.0000 1725.8767 -7602.4145 294.6567 -9328.2912 -7522.9768 302.4539 354.3767 393.2445 30380.9440 16.2918 75.8516
ENERGY: 1500000 0.1924 1.1506 0.0000 0.0000 -10651.1195 1429.1871 0.0000 0.0000 1795.5809 -7425.0085 306.5572 -9220.5894 -7508.7705 302.9498 -156.1479 -63.8843 30585.5012 -55.6506 2.6354
TCL: Running FEP window  15: Lambda1 0.29999999999999966 Lambda2 0.24999999999999967 [dLambda -0.04999999999999999]
TCL: Setting parameter firsttimestep to 0
TCL: Setting parameter alchLambda to 0.29999999999999966
Info: NONBONDED TABLE R-SQUARED SPACING: 0.0625
Info: NONBONDED TABLE SIZE: 705 POINTS
TCL: Setting parameter alchLambda2 to 0.24999999999999967
Info: NONBONDED TABLE R-SQUARED SPACING: 0.0625
Info: NONBONDED TABLE SIZE: 705 POINTS
TCL: Running for 1500000 steps
ETITLE: TS BOND ANGLE DIHED IMPRP ELECT VDW BOUNDARY MISC KINETIC TOTAL TEMP POTENTIAL TOTALAVG TEMPAVG PRESSURE GPRESSURE VOLUME PRESSAVG GPRESSAVG
ENERGY: 0 0.1924 1.1506 0.0000 0.0000 -10651.1201 1429.3605 0.0000 0.0000 1794.7362 -7425.6803 306.4130 -9220.4165 -7425.6803 306.4130 -134.6777 -64.1976 30585.5012 -134.6777 -64.1976
ENERGY: 300000 0.0428 3.7374 0.0000 0.0000 -10682.0030 1457.5742 0.0000 0.0000 1816.6632 -7403.9854 310.1566 -9220.6486 -7464.7413 303.6561 103.4830 133.2593 30581.4595 72.9783 132.4324
ENERGY: 600000 0.0832 3.5460 0.0000 0.0000 -10572.0194 1368.4776 0.0000 0.0000 1811.3300 -7388.5826 309.2460 -9199.9126 -7469.9410 303.0535 -214.0687 -111.8674 30151.8250 86.5059 153.8087
ENERGY: 900000 0.7945 2.0709 0.0000 0.0000 -10715.4577 1475.5905 0.0000 0.0000 1768.7168 -7468.2850 301.9707 -9237.0018 -7469.9363 302.9868 166.6684 322.4794 30328.5946 70.7147 154.7326
ENERGY: 1200000 0.0055 3.4734 0.0000 0.0000 -10718.1957 1401.4929 0.0000 0.0000 1732.1542 -7581.0696 295.7285 -9313.2239 -7491.1799 301.9125 -458.6400 -421.4304 30176.4588 72.6616 149.1499
ENERGY: 1500000 0.9720 4.9535 0.0000 0.0000 -10752.4990 1427.8984 0.0000 0.0000 1791.9563 -7526.7189 305.9384 -9318.6751 -7496.7541 301.6953 -5.2727 34.9377 29891.1605 52.8116 123.5796
TCL: Running FEP window  16: Lambda1 0.24999999999999967 Lambda2 0.19999999999999968 [dLambda -0.04999999999999999]
TCL: Setting parameter firsttimestep to 0
TCL: Setting parameter alchLambda to 0.24999999999999967
Info: NONBONDED TABLE R-SQUARED SPACING: 0.0625
Info: NONBONDED TABLE SIZE: 705 POINTS
TCL: Setting parameter alchLambda2 to 0.19999999999999968
Info: NONBONDED TABLE R-SQUARED SPACING: 0.0625
Info: NONBONDED TABLE SIZE: 705 POINTS
TCL: Running for 1500000 steps
ETITLE: TS BOND ANGLE DIHED IMPRP ELECT VDW BOUNDARY MISC KINETIC TOTAL TEMP POTENTIAL TOTALAVG TEMPAVG PRESSURE GPRESSURE VOLUME PRESSAVG GPRESSAVG
ENERGY: 0 0.9720 4.9535 0.0000 0.0000 -10752.4987 1427.6734 0.0000 0.0000 1791.0766 -7527.8232 305.7882 -9318.8998 -7527.8232 305.7882 -56.8220 30.3996 29891.1605 -56.8220 30.3996
ENERGY: 300000 0.2506 1.6126 0.0000 0.0000 -10671.9379 1460.9488 0.0000 0.0000 1768.4519 -7440.6740 301.9255 -9209.1259 -7460.7649 306.5423 217.9561 321.6973 30203.7729 363.6148 468.0585
ENERGY: 600000 0.3910 2.5130 0.0000 0.0000 -10785.0664 1542.8150 0.0000 0.0000 1722.6891 -7516.6583 294.1125 -9239.3474 -7488.0020 303.0036 743.9587 791.7222 30545.4341 246.5356 331.7589
ENERGY: 900000 0.6624 3.4043 0.0000 0.0000 -10606.9008 1423.5147 0.0000 0.0000 1806.5453 -7372.7740 308.4292 -9179.3193 -7475.4396 303.4241 120.3232 163.4070 30629.9236 79.9066 162.7029
ENERGY: 1200000 0.1360 2.0269 0.0000 0.0000 -10735.4437 1422.7539 0.0000 0.0000 1762.4248 -7548.1022 300.8965 -9310.5270 -7484.0576 302.8961 -408.5193 -313.5113 30515.3284 10.1276 94.9185
ENERGY: 1500000 1.8266 3.6713 0.0000 0.0000 -10781.6013 1491.3329 0.0000 0.0000 1795.6993 -7489.0712 306.5774 -9284.7705 -7500.7143 301.9320 434.1138 428.7082 30124.6728 -7.8568 67.3335
TCL: Running FEP window  17: Lambda1 0.19999999999999968 Lambda2 0.1499999999999997 [dLambda -0.04999999999999999]
TCL: Setting parameter firsttimestep to 0
TCL: Setting parameter alchLambda to 0.19999999999999968
Info: NONBONDED TABLE R-SQUARED SPACING: 0.0625
Info: NONBONDED TABLE SIZE: 705 POINTS
TCL: Setting parameter alchLambda2 to 0.1499999999999997
Info: NONBONDED TABLE R-SQUARED SPACING: 0.0625
Info: NONBONDED TABLE SIZE: 705 POINTS
TCL: Running for 1500000 steps
ETITLE: TS BOND ANGLE DIHED IMPRP ELECT VDW BOUNDARY MISC KINETIC TOTAL TEMP POTENTIAL TOTALAVG TEMPAVG PRESSURE GPRESSURE VOLUME PRESSAVG GPRESSAVG
ENERGY: 0 1.8266 3.6713 0.0000 0.0000 -10781.6003 1491.3615 0.0000 0.0000 1794.8590 -7489.8820 306.4340 -9284.7410 -7489.8820 306.4340 346.1735 427.9710 30124.6728 346.1735 427.9710
ENERGY: 300000 2.2319 2.5322 0.0000 0.0000 -10768.4004 1485.8376 0.0000 0.0000 1780.6060 -7497.1927 304.0006 -9277.7988 -7470.8785 306.2541 127.3512 169.8585 30406.9226 118.6034 175.2400
ENERGY: 600000 0.2626 1.4822 0.0000 0.0000 -10758.5806 1460.8253 0.0000 0.0000 1797.2140 -7498.7966 306.8360 -9296.0106 -7478.0187 306.2912 165.4567 169.2009 30059.3247 231.7612 283.9414
ENERGY: 900000 0.2911 1.0588 0.0000 0.0000 -10739.4699 1476.7718 0.0000 0.0000 1754.7783 -7506.5699 299.5910 -9261.3482 -7479.4893 303.2435 227.8856 270.6527 30334.9165 47.5470 104.7899
ENERGY: 1200000 0.4099 2.2261 0.0000 0.0000 -10622.5590 1420.3337 0.0000 0.0000 1767.3199 -7432.2694 301.7323 -9199.5893 -7475.5697 302.6187 120.9257 151.6333 30372.1420 26.6611 77.0123
ENERGY: 1500000 0.1763 1.4429 0.0000 0.0000 -10726.7687 1459.0966 0.0000 0.0000 1787.7977 -7478.2552 305.2284 -9266.0529 -7485.3794 301.8032 10.7784 100.7355 30580.7148 -17.6859 35.8116
TCL: Running FEP window  18: Lambda1 0.1499999999999997 Lambda2 0.09999999999999969 [dLambda -0.05 ]
TCL: Setting parameter firsttimestep to 0
TCL: Setting parameter alchLambda to 0.1499999999999997
Info: NONBONDED TABLE R-SQUARED SPACING: 0.0625
Info: NONBONDED TABLE SIZE: 705 POINTS
TCL: Setting parameter alchLambda2 to 0.09999999999999969
Info: NONBONDED TABLE R-SQUARED SPACING: 0.0625
Info: NONBONDED TABLE SIZE: 705 POINTS
TCL: Running for 1500000 steps
ETITLE: TS BOND ANGLE DIHED IMPRP ELECT VDW BOUNDARY MISC KINETIC TOTAL TEMP POTENTIAL TOTALAVG TEMPAVG PRESSURE GPRESSURE VOLUME PRESSAVG GPRESSAVG
ENERGY: 0 0.1763 1.4429 0.0000 0.0000 -10726.7699 1458.3399 0.0000 0.0000 1786.9472 -7479.8635 305.0832 -9266.8107 -7479.8635 305.0832 21.5221 95.4411 30580.7148 21.5221 95.4411
ENERGY: 300000 0.1994 1.6395 0.0000 0.0000 -10776.4914 1536.9791 0.0000 0.0000 1810.0153 -7427.6581 309.0216 -9237.6734 -7479.3928 304.4229 599.2742 735.0157 30540.7390 -156.4319 -87.5862
ENERGY: 600000 0.1269 1.9099 0.0000 0.0000 -10688.8990 1452.2054 0.0000 0.0000 1773.5072 -7461.1497 302.7886 -9234.6569 -7493.9469 300.7239 -184.1374 -89.3824 30915.2145 -182.9200 -119.7653
ENERGY: 900000 1.2009 0.3484 0.0000 0.0000 -10626.7120 1430.4794 0.0000 0.0000 1788.2548 -7406.4286 305.3064 -9194.6834 -7499.0501 300.3819 230.7790 338.4596 29776.8635 82.8104 146.1413
ENERGY: 1200000 0.4692 3.3569 0.0000 0.0000 -10700.8589 1476.7097 0.0000 0.0000 1790.6104 -7429.7127 305.7086 -9220.3232 -7492.0283 300.8687 397.2030 507.9221 30187.1887 73.5152 140.4120
ENERGY: 1500000 0.0829 1.1738 0.0000 0.0000 -10733.7734 1410.2185 0.0000 0.0000 1817.7842 -7504.5140 310.3480 -9322.2982 -7495.5927 302.2483 -291.2446 -288.8730 30223.5464 80.5592 135.6418
TCL: Running FEP window  19: Lambda1 0.09999999999999969 Lambda2 0.049999999999999684 [dLambda -0.05 ]
TCL: Setting parameter firsttimestep to 0
TCL: Setting parameter alchLambda to 0.09999999999999969
Info: NONBONDED TABLE R-SQUARED SPACING: 0.0625
Info: NONBONDED TABLE SIZE: 705 POINTS
TCL: Setting parameter alchLambda2 to 0.049999999999999684
Info: NONBONDED TABLE R-SQUARED SPACING: 0.0625
Info: NONBONDED TABLE SIZE: 705 POINTS
TCL: Running for 1500000 steps
ETITLE: TS BOND ANGLE DIHED IMPRP ELECT VDW BOUNDARY MISC KINETIC TOTAL TEMP POTENTIAL TOTALAVG TEMPAVG PRESSURE GPRESSURE VOLUME PRESSAVG GPRESSAVG
ENERGY: 0 0.0829 1.1738 0.0000 0.0000 -10733.7737 1410.3571 0.0000 0.0000 1816.9237 -7505.2362 310.2010 -9322.1599 -7505.2362 310.2010 -356.1646 -287.5409 30223.5464 -356.1646 -287.5409
ENERGY: 300000 0.2955 2.2432 0.0000 0.0000 -10735.7337 1483.8873 0.0000 0.0000 1778.9619 -7470.3458 303.7199 -9249.3078 -7487.1750 302.3787 340.7256 460.0744 30014.3973 -61.8723 21.1567
ENERGY: 600000 0.0460 2.4051 0.0000 0.0000 -10800.3122 1504.7690 0.0000 0.0000 1690.8679 -7602.2242 288.6797 -9293.0921 -7499.0789 302.2184 255.6314 287.0964 30501.8649 106.4693 186.2758
ENERGY: 900000 0.6758 4.1560 0.0000 0.0000 -10608.0691 1440.7540 0.0000 0.0000 1759.4262 -7403.0570 300.3846 -9162.4832 -7487.5707 301.4428 258.6166 289.2789 30422.8045 -111.1069 -35.1864
ENERGY: 1200000 0.0783 1.1706 0.0000 0.0000 -10697.3976 1480.3294 0.0000 0.0000 1778.4433 -7437.3759 303.6313 -9215.8192 -7495.3428 300.7691 315.0349 301.2500 30531.3257 -151.6272 -77.5484
ENERGY: 1500000 0.1159 2.3851 0.0000 0.0000 -10636.6641 1356.2344 0.0000 0.0000 1741.4590 -7536.4698 297.3171 -9277.9287 -7500.1359 300.4123 -422.6293 -391.1164 29751.8421 -78.3620 -10.2976
TCL: Running FEP window  20: Lambda1 0.049999999999999684 Lambda2 0.0    [dLambda -0.049999999999999684]
TCL: Setting parameter firsttimestep to 0
TCL: Setting parameter alchLambda to 0.049999999999999684
Info: NONBONDED TABLE R-SQUARED SPACING: 0.0625
Info: NONBONDED TABLE SIZE: 705 POINTS
TCL: Setting parameter alchLambda2 to 0.0
Info: NONBONDED TABLE R-SQUARED SPACING: 0.0625
Info: NONBONDED TABLE SIZE: 705 POINTS
TCL: Running for 1500000 steps
ETITLE: TS BOND ANGLE DIHED IMPRP ELECT VDW BOUNDARY MISC KINETIC TOTAL TEMP POTENTIAL TOTALAVG TEMPAVG PRESSURE GPRESSURE VOLUME PRESSAVG GPRESSAVG
ENERGY: 0 0.1159 2.3851 0.0000 0.0000 -10636.6657 1356.4436 0.0000 0.0000 1740.5802 -7537.1409 297.1670 -9277.7211 -7537.1409 297.1670 -482.0882 -389.5051 29751.8421 -482.0882 -389.5051
ENERGY: 300000 0.2529 1.7841 0.0000 0.0000 -10740.1054 1493.0803 0.0000 0.0000 1755.0838 -7489.9043 299.6432 -9244.9881 -7501.3895 298.9296 377.6124 446.3582 30269.8417 87.6434 159.8262
ENERGY: 600000 0.0972 3.4961 0.0000 0.0000 -10738.4813 1433.7749 0.0000 0.0000 1747.5527 -7553.5604 298.3574 -9301.1131 -7514.7753 299.9943 -43.8034 74.7517 29822.7866 150.2783 230.2567
ENERGY: 900000 0.3908 2.7398 0.0000 0.0000 -10588.5439 1412.6063 0.0000 0.0000 1803.5222 -7369.2848 307.9130 -9172.8070 -7511.0043 299.8795 193.7368 231.6652 30443.3560 98.2073 173.2043
ENERGY: 1200000 0.8888 3.9603 0.0000 0.0000 -10767.3859 1432.9535 0.0000 0.0000 1770.1975 -7559.3859 302.2235 -9329.5833 -7527.7395 298.9587 -542.9971 -531.7793 30941.2727 -99.3173 -29.1041
ENERGY: 1500000 0.2531 1.1781 0.0000 0.0000 -10631.8820 1404.2208 0.0000 0.0000 1723.1987 -7503.0314 294.1995 -9226.2301 -7516.3079 298.3963 -342.9289 -211.4411 30517.2505 -87.1533 -18.3016
TCL: Exiting due to exit command.
