Info: SIMULATION PARAMETERS:
Info: TIMESTEP               2
Info: NUMBER OF STEPS        0
Info: STEPS PER CYCLE        10
Info: PERIODIC CELL BASIS 1  79.2434 0 0
Info: PERIODIC CELL BASIS 2  0 79.2434 0
Info: PERIODIC CELL BASIS 3  0 0 79.2434
Info: PERIODIC CELL CENTER   38.114 38.114 38.114
Info: WRAPPING ALL CLUSTERS AROUND PERIODIC BOUNDARIES ON OUTPUT.
Info: FIRST LDB TIMESTEP     50
Info: LAST LDB TIMESTEP     -1
Info: HOM BACKGROUND SCALING 1
Info: PME BACKGROUND SCALING 1
Info: MIN ATOMS PER PATCH    40
Info: EMPTY PATCH LOAD       40 ATOMS
Info: VELOCITY FILE          mobley_194273_equilibrated.vel
Info: CENTER OF MASS MOVING INITIALLY? NO
Info: DIELECTRIC             1
Info: EXCLUDE                SCALED ONE-FOUR
Info: 1-4 ELECTROSTATICS SCALED BY 1
Info: MODIFIED 1-4 VDW PARAMETERS WILL BE USED
Info: DCD FILENAME           mobley_194273_backwards.dcd
Info: DCD FREQUENCY          500
Info: DCD FIRST STEP         500
Info: DCD FILE WILL CONTAIN UNIT CELL DATA
Info: NO EXTENDED SYSTEM TRAJECTORY OUTPUT
Info: NO VELOCITY DCD OUTPUT
Info: NO FORCE DCD OUTPUT
Info: OUTPUT FILENAME        mobley_194273_backwards
Info: BINARY OUTPUT FILES WILL BE USED
Info: NO RESTART FILE
Info: SWITCHING ACTIVE
Info: SWITCHING ON           10
Info: SWITCHING OFF          12
Info: PAIRLIST DISTANCE      14
Info: PAIRLIST SHRINK RATE   0.01
Info: PAIRLIST GROW RATE     0.01
Info: PAIRLIST TRIGGER       0.3
Info: PAIRLISTS PER CYCLE    2
Info: PAIRLISTS ENABLED
Info: MARGIN                 8
Info: HYDROGEN GROUP CUTOFF  2.5
Info: PATCH DIMENSION        24.5
Info: ENERGY OUTPUT STEPS    500
Info: ENERGY EVALUATION STEPS    500
Info: OUTPUT ENERGY PRECISION 4
Info: CROSSTERM ENERGY INCLUDED IN DIHEDRAL
Info: TIMING OUTPUT STEPS    500
Info: PRESSURE OUTPUT STEPS  500
Info: ALCHEMICAL FEP ON
Info: FEP CURRENT LAMBDA VALUE     1
Info: FEP COMPARISON LAMBDA VALUE  0.9375
Info: FEP INTRA-ALCHEMICAL NON-BONDED INTERACTIONS WILL BE DECOUPLED
Info: FEP INTRA-ALCHEMICAL BONDED INTERACTIONS WILL BE RETAINED
Info: FEP VDW SHIFTING COEFFICIENT 6
Info: FEP ELEC. ACTIVE FOR ANNIHILATED PARTICLES BETWEEN LAMBDA = 0 AND LAMBDA = 0.5
Info: FEP ELEC. ACTIVE FOR EXNIHILATED PARTICLES BETWEEN LAMBDA = 0.5 AND LAMBDA = 1
Info: FEP VDW ACTIVE FOR ANNIHILATED PARTICLES BETWEEN LAMBDA = 0 AND LAMBDA = 1
Info: FEP VDW ACTIVE FOR EXNIHILATED PARTICLES BETWEEN LAMBDA = 0 AND LAMBDA = 1
Info: FEP BOND ACTIVE FOR ANNIHILATED PARTICLES BETWEEN LAMBDA = 1 AND LAMBDA = 1
Info: FEP BOND ACTIVE FOR EXNIHILATED PARTICLES BETWEEN LAMBDA = 0 AND LAMBDA = 0
Info: LANGEVIN DYNAMICS ACTIVE
Info: LANGEVIN TEMPERATURE   298
Info: LANGEVIN USING BBK INTEGRATOR
Info: LANGEVIN DAMPING COEFFICIENT IS 1 INVERSE PS
Info: LANGEVIN DYNAMICS NOT APPLIED TO HYDROGENS
Info: LANGEVIN PISTON PRESSURE CONTROL ACTIVE
Info:        TARGET PRESSURE IS 1.01325 BAR
Info:     OSCILLATION PERIOD IS 100 FS
Info:             DECAY TIME IS 50 FS
Info:     PISTON TEMPERATURE IS 298 K
Info:       PRESSURE CONTROL IS GROUP-BASED
Info:    INITIAL STRAIN RATE IS -0.000221104 -0.000221104 -0.000221104
Info:       CELL FLUCTUATION IS ISOTROPIC
Info: PARTICLE MESH EWALD (PME) ACTIVE
Info: PME TOLERANCE               1e-05
Info: PME EWALD COEFFICIENT       0.226635
Info: PME INTERPOLATION ORDER     4
Info: PME GRID DIMENSIONS         80 80 80
Info: PME MAXIMUM GRID SPACING    1
Info: FULL ELECTROSTATIC EVALUATION FREQUENCY      1
Info: USING VERLET I (r-RESPA) MTS SCHEME.
Info: C1 SPLITTING OF LONG RANGE ELECTROSTATICS
Info: PLACING ATOMS IN PATCHES BY HYDROGEN GROUPS
Info: RIGID BONDS TO HYDROGEN : ALL
Info:         ERROR TOLERANCE : 1e-08
Info:          MAX ITERATIONS : 100
Info: RIGID WATER USING SETTLE ALGORITHM
Info: RANDOM NUMBER SEED     1740636979
Info: USE HYDROGEN BONDS?    NO
Info: COORDINATE PDB         mobley_194273.pdb
Info: STRUCTURE FILE         mobley_194273.psf
Info: PARAMETER file: CHARMM format!
Info: PARAMETERS             ../common/par_all27_prot_lipid.inp
Info: PARAMETERS             mobley_194273.prm
Info: USING ARITHMETIC MEAN TO COMBINE L-J SIGMA PARAMETERS
Info: BINARY COORDINATES     mobley_194273_equilibrated.coor
Info: SUMMARY OF PARAMETERS:
Info: 192 BONDS
Info: 469 ANGLES
Info: 605 DIHEDRAL
Info: 52 IMPROPER
Info: 6 CROSSTERM
Info: 129 VDW
Info: 0 VDW_PAIRS
Info: 0 NBTHOLE_PAIRS
Info: To read alchdata from file: mobley_194273.pdb
Info: To read alchflag data from column: 5
Info: STRUCTURE SUMMARY:
Info: 5127 ATOMS
Info: 3427 BONDS
Info: 1748 ANGLES
Info: 63 DIHEDRALS
Info: 6 IMPROPERS
Info: 0 CROSSTERMS
Info: 0 EXCLUSIONS
Info: 5113 RIGID BONDS
Info: ALCH: 0 ATOMS TO DISAPPEAR IN FINAL STATE
Info: ALCH: 27 ATOMS TO APPEAR IN FINAL STATE
Info: 10268 DEGREES OF FREEDOM
Info: 1714 HYDROGEN GROUPS
Info: 4 ATOMS IN LARGEST HYDROGEN GROUP
Info: 1714 MIGRATION GROUPS
Info: 4 ATOMS IN LARGEST MIGRATION GROUP
Info: TOTAL MASS = 30887.3 amu
Info: TOTAL CHARGE = -4.00469e-08 e
Info: MASS DENSITY = 0.103074 g/cm^3
Info: ATOM DENSITY = 0.0103032 atoms/A^3
Info: ADDED 5235 IMPLICIT EXCLUSIONS
Info: NONBONDED TABLE R-SQUARED SPACING: 0.0625
Info: NONBONDED TABLE SIZE: 769 POINTS
Info: REMOVING COM VELOCITY -0.0306547 0.0839257 -0.0800038
TCL: Running for 5000 steps
ETITLE: TS BOND ANGLE DIHED IMPRP ELECT VDW BOUNDARY MISC KINETIC TOTAL TEMP POTENTIAL TOTAL3 TEMPAVG PRESSURE GPRESSURE VOLUME PRESSAVG GPRESSAVG
ENERGY: 0 5.2802 13.7492 12.0883 0.7975 -17867.9656 1861.5352 0.0000 0.0000 3029.1583 -12945.3569 296.9111 -15974.5151 -12939.3318 296.9111 4.3459 4.6072 497610.9980 4.3459 4.6072
ENERGY: 1000 6.5532 16.0215 14.0745 0.3036 -17927.4369 1800.6725 0.0000 0.0000 3134.7484 -12955.0631 307.2608 -16089.8115 -12949.5618 299.1254 -49.9985 -50.3541 468044.8224 0.8846 0.8797
ENERGY: 2000 2.8101 18.5846 10.2066 0.1541 -17970.9878 1928.6163 0.0000 0.0000 3031.6725 -12978.9436 297.1576 -16010.6161 -12971.8242 297.5396 36.0075 36.3158 435758.0383 -0.8462 -0.8809
ENERGY: 3000 3.7562 15.0908 12.2997 0.3453 -17884.9158 1829.9405 0.0000 0.0000 3083.3374 -12940.1459 302.2216 -16023.4833 -12933.1665 297.5075 4.6392 4.9515 424721.1863 1.1863 1.1589
ENERGY: 4000 6.0260 8.4930 10.9495 0.3840 -17759.4489 1791.5078 0.0000 0.0000 3081.4747 -12860.6140 302.0391 -15942.0887 -12854.8459 298.0697 -23.0733 -22.5783 443268.1521 0.6986 0.7065
ENERGY: 5000 7.3718 9.4718 13.6155 0.0975 -17873.2608 1912.2218 0.0000 0.0000 3031.5805 -12898.9019 297.1486 -15930.4824 -12893.3499 299.9707 41.2275 40.1177 451794.0875 1.2204 1.2044
TCL: Running FEP window   2: Lambda1 0.9375 Lambda2 0.875  [dLambda -0.0625]
TCL: Setting parameter firsttimestep to 0
TCL: Setting parameter alchLambda to 0.9375
Info: NONBONDED TABLE R-SQUARED SPACING: 0.0625
Info: NONBONDED TABLE SIZE: 769 POINTS
TCL: Setting parameter alchLambda2 to 0.875
Info: NONBONDED TABLE R-SQUARED SPACING: 0.0625
Info: NONBONDED TABLE SIZE: 769 POINTS
TCL: Running for 5000 steps
ETITLE: TS BOND ANGLE DIHED IMPRP ELECT VDW BOUNDARY MISC KINETIC TOTAL TEMP POTENTIAL TOTAL3 TEMPAVG PRESSURE GPRESSURE VOLUME PRESSAVG GPRESSAVG
ENERGY: 0 7.3718 9.4718 13.6155 0.0975 -17844.0119 1906.7759 0.0000 0.0000 3031.4909 -12875.1885 297.1398 -15906.6794 -12870.6801 297.1398 35.4273 35.3227 451794.0875 35.4273 35.3227
ENERGY: 1000 4.1436 13.6910 12.0538 0.3713 -17934.7682 1895.1897 0.0000 0.0000 3064.9591 -12944.3597 300.4202 -16009.3188 -12940.3050 298.3730 21.9956 22.8082 461470.3206 -1.7624 -1.7882
ENERGY: 2000 2.1711 13.2780 12.2459 0.6152 -17959.7118 1908.3787 0.0000 0.0000 3032.6241 -12990.3988 297.2508 -16023.0229 -12985.3555 296.0012 36.0882 35.2337 471142.5890 -0.7697 -0.7220
ENERGY: 3000 7.3982 11.3224 11.4234 0.7425 -17974.9824 1891.5222 0.0000 0.0000 3034.8544 -13017.7193 297.4695 -16052.5737 -13012.7771 296.4688 6.5061 6.2785 504449.4947 -0.7852 -0.7755
ENERGY: 4000 3.6346 16.4968 14.0946 0.8322 -17868.5514 1798.5257 0.0000 0.0000 3040.8970 -12994.0704 298.0617 -16034.9674 -12989.1038 293.1892 -53.5902 -53.5951 520560.9742 2.9308 2.9271
ENERGY: 5000 5.1462 12.3988 10.8992 0.3377 -17839.3829 1830.2892 0.0000 0.0000 3041.3757 -12938.9362 298.1087 -15980.3119 -12933.8970 296.1212 -37.4843 -36.6464 536579.6332 -0.9725 -0.9386
TCL: Running FEP window   3: Lambda1 0.875  Lambda2 0.8125 [dLambda -0.0625]
TCL: Setting parameter firsttimestep to 0
TCL: Setting parameter alchLambda to 0.875
Info: NONBONDED TABLE R-SQUARED SPACING: 0.0625
Info: NONBONDED TABLE SIZE: 769 POINTS
TCL: Setting parameter alchLambda2 to 0.8125
Info: NONBONDED TABLE R-SQUARED SPACING: 0.0625
Info: NONBONDED TABLE SIZE: 769 POINTS
TCL: Running for 5000 steps
ETITLE: TS BOND ANGLE DIHED IMPRP ELECT VDW BOUNDARY MISC KINETIC TOTAL TEMP POTENTIAL TOTAL3 TEMPAVG PRESSURE GPRESSURE VOLUME PRESSAVG GPRESSAVG
ENERGY: 0 5.1462 12.3988 10.8992 0.3377 -17810.1558 1827.3622 0.0000 0.0000 3041.2829 -12912.7288 298.0996 -15954.0117 -12906.9940 298.0996 -39.6425 -39.4877 536579.6332 -39.6425 -39.4877
ENERGY: 1000 5.2974 15.6140 14.2450 0.2438 -17907.8974 1903.1863 0.0000 0.0000 3032.0393 -12937.2717 297.1935 -15969.3110 -12932.8742 297.8163 21.7635 21.9862 525368.4246 2.6470 2.6229
ENERGY: 2000 6.2513 12.0316 12.7759 0.5359 -17804.4607 1775.1063 0.0000 0.0000 2976.7542 -13021.0055 291.7746 -15997.7597 -13015.2338 292.5084 -37.4829 -37.9748 507878.9847 1.3162 1.2809
ENERGY: 3000 4.1363 17.0579 12.9385 0.2413 -17845.1814 1901.4877 0.0000 0.0000 3057.7690 -12851.5507 299.7155 -15909.3197 -12845.3243 298.0295 21.3864 23.1594 507416.8837 1.5919 1.5694
ENERGY: 4000 5.7935 16.2039 12.9670 0.7546 -17730.1450 1771.0343 0.0000 0.0000 3069.0937 -12854.2980 300.8255 -15923.3917 -12847.4794 299.0646 -52.1420 -52.5123 517223.5922 -0.6179 -0.6330
ENERGY: 5000 6.7578 13.4910 13.8931 0.5180 -17835.9750 1877.2843 0.0000 0.0000 3053.3272 -12870.7035 299.2801 -15924.0307 -12865.7212 299.2232 32.9095 33.4063 512017.2279 2.5652 2.5863
TCL: Running FEP window   4: Lambda1 0.8125 Lambda2 0.75   [dLambda -0.0625]
TCL: Setting parameter firsttimestep to 0
TCL: Setting parameter alchLambda to 0.8125
Info: NONBONDED TABLE R-SQUARED SPACING: 0.0625
Info: NONBONDED TABLE SIZE: 769 POINTS
TCL: Setting parameter alchLambda2 to 0.75
Info: NONBONDED TABLE R-SQUARED SPACING: 0.0625
Info: NONBONDED TABLE SIZE: 769 POINTS
TCL: Running for 5000 steps
ETITLE: TS BOND ANGLE DIHED IMPRP ELECT VDW BOUNDARY MISC KINETIC TOTAL TEMP POTENTIAL TOTAL3 TEMPAVG PRESSURE GPRESSURE VOLUME PRESSAVG GPRESSAVG
ENERGY: 0 6.7578 13.4910 13.8931 0.5180 -17806.3757 1873.9210 0.0000 0.0000 3053.2341 -12844.5606 299.2710 -15897.7947 -12838.7480 299.2710 30.5418 30.4938 512017.2279 30.5418 30.4938
ENERGY: 1000 3.9929 11.6610 12.0607 0.6442 -17707.6487 1769.2995 0.0000 0.0000 3070.5256 -12839.4647 300.9659 -15909.9903 -12836.5851 300.5042 -33.7807 -33.1874 522320.1264 0.8919 0.9004
ENERGY: 2000 2.2498 11.1219 12.0942 0.2491 -17634.0930 1764.2041 0.0000 0.0000 2991.7212 -12852.4526 293.2416 -15844.1739 -12846.6106 297.6190 -23.0416 -22.9952 524270.0565 0.9966 0.9621
ENERGY: 3000 3.0985 14.3366 13.2284 0.7371 -17725.8887 1863.0793 0.0000 0.0000 3030.5816 -12800.8272 297.0506 -15831.4088 -12794.9033 297.9751 8.9206 9.5571 514864.3331 2.4421 2.4412
ENERGY: 4000 4.7470 10.9478 13.6962 0.2945 -17856.5446 1929.7779 0.0000 0.0000 3086.2902 -12810.7911 302.5111 -15897.0813 -12807.8115 296.0152 37.7136 37.6799 516636.3277 2.1412 2.1543
ENERGY: 5000 6.2495 12.3591 12.3729 1.1918 -17826.8129 1852.3088 0.0000 0.0000 3063.3909 -12878.9398 300.2665 -15942.3308 -12876.3003 297.1662 -11.1174 -11.1875 511037.7959 0.3397 0.3308
TCL: Running FEP window   5: Lambda1 0.75   Lambda2 0.6875 [dLambda -0.0625]
TCL: Setting parameter firsttimestep to 0
TCL: Setting parameter alchLambda to 0.75
Info: NONBONDED TABLE R-SQUARED SPACING: 0.0625
Info: NONBONDED TABLE SIZE: 769 POINTS
TCL: Setting parameter alchLambda2 to 0.6875
Info: NONBONDED TABLE R-SQUARED SPACING: 0.0625
Info: NONBONDED TABLE SIZE: 769 POINTS
TCL: Running for 5000 steps
ETITLE: TS BOND ANGLE DIHED IMPRP ELECT VDW BOUNDARY MISC KINETIC TOTAL TEMP POTENTIAL TOTAL3 TEMPAVG PRESSURE GPRESSURE VOLUME PRESSAVG GPRESSAVG
ENERGY: 0 6.2495 12.3591 12.3729 1.1918 -17795.7508 1849.2043 0.0000 0.0000 3063.3012 -12851.0720 300.2578 -15914.3733 -12844.9848 300.2578 -13.3145 -13.3607 511037.7959 -13.3145 -13.3607
ENERGY: 1000 4.3188 10.1620 15.9556 0.2348 -17897.5494 1910.6965 0.0000 0.0000 3028.4485 -12927.7332 296.8416 -15956.1817 -12921.5403 299.3242 17.8553 18.6704 480161.0559 2.0700 2.0777
ENERGY: 2000 8.9831 15.4676 12.8404 0.5750 -17786.8205 1881.7330 0.0000 0.0000 3021.8781 -12845.3433 296.1975 -15867.2214 -12839.0931 295.5122 12.2636 12.5775 459606.4909 -0.5993 -0.6150
ENERGY: 3000 5.5018 13.9943 11.8919 0.6623 -17786.0298 1889.3922 0.0000 0.0000 2978.0470 -12886.5403 291.9013 -15864.5873 -12878.5840 296.0966 31.3899 31.3736 455511.8037 1.7010 1.7018
ENERGY: 4000 4.5974 14.7086 11.5579 0.1798 -17673.1032 1759.6827 0.0000 0.0000 3016.0648 -12866.3119 295.6277 -15882.3767 -12860.9461 297.7390 -67.8036 -66.9707 445622.6961 2.2397 2.2423
ENERGY: 5000 4.2142 14.9033 15.7827 1.0166 -17750.9815 1831.0390 0.0000 0.0000 3007.5990 -12876.4268 294.7980 -15884.0258 -12869.2770 298.5493 -28.9353 -29.2285 435927.5393 -1.5933 -1.5787
TCL: Running FEP window   6: Lambda1 0.6875 Lambda2 0.625  [dLambda -0.0625]
TCL: Setting parameter firsttimestep to 0
TCL: Setting parameter alchLambda to 0.6875
Info: NONBONDED TABLE R-SQUARED SPACING: 0.0625
Info: NONBONDED TABLE SIZE: 769 POINTS
TCL: Setting parameter alchLambda2 to 0.625
Info: NONBONDED TABLE R-SQUARED SPACING: 0.0625
Info: NONBONDED TABLE SIZE: 769 POINTS
TCL: Running for 5000 steps
ETITLE: TS BOND ANGLE DIHED IMPRP ELECT VDW BOUNDARY MISC KINETIC TOTAL TEMP POTENTIAL TOTAL3 TEMPAVG PRESSURE GPRESSURE VOLUME PRESSAVG GPRESSAVG
ENERGY: 0 4.2142 14.9033 15.7827 1.0166 -17722.4141 1828.0884 0.0000 0.0000 3007.5029 -12850.9060 294.7885 -15858.4089 -12845.6084 294.7885 -30.7849 -30.9881 435927.5393 -30.7849 -30.9881
ENERGY: 1000 4.6282 12.4607 12.4610 0.5173 -17798.0283 1831.9451 0.0000 0.0000 3030.3105 -12905.7056 297.0241 -15936.0161 -12898.2748 294.9156 -12.7892 -13.8135 417669.5859 1.5398 1.5145
ENERGY: 2000 4.2506 11.5861 13.4091 0.4326 -17557.5860 1711.4953 0.0000 0.0000 2913.3094 -12903.1029 285.5559 -15816.4123 -12898.1531 295.8864 -76.0152 -77.0460 423845.1274 1.0064 1.0066
ENERGY: 3000 6.9355 12.8796 13.9962 0.4430 -17635.8502 1841.1410 0.0000 0.0000 2999.7103 -12760.7446 294.0247 -15760.4548 -12755.2324 298.3823 7.3005 6.9426 431618.6194 2.1704 2.1453
ENERGY: 4000 2.7004 13.9050 12.8041 0.3376 -17756.0220 1916.6797 0.0000 0.0000 3042.9520 -12766.6431 298.2632 -15809.5952 -12761.0035 300.2120 48.2179 47.6839 427221.9552 1.4638 1.4459
ENERGY: 5000 2.1718 12.9798 12.3247 0.6580 -17842.1598 1840.7172 0.0000 0.0000 3075.1014 -12898.2069 301.4144 -15973.3082 -12891.2001 298.7269 -21.5774 -20.7151 421885.8773 3.1398 3.0647
TCL: Running FEP window   7: Lambda1 0.625  Lambda2 0.5625 [dLambda -0.0625]
TCL: Setting parameter firsttimestep to 0
TCL: Setting parameter alchLambda to 0.625
Info: NONBONDED TABLE R-SQUARED SPACING: 0.0625
Info: NONBONDED TABLE SIZE: 769 POINTS
TCL: Setting parameter alchLambda2 to 0.5625
Info: NONBONDED TABLE R-SQUARED SPACING: 0.0625
Info: NONBONDED TABLE SIZE: 769 POINTS
TCL: Running for 5000 steps
ETITLE: TS BOND ANGLE DIHED IMPRP ELECT VDW BOUNDARY MISC KINETIC TOTAL TEMP POTENTIAL TOTAL3 TEMPAVG PRESSURE GPRESSURE VOLUME PRESSAVG GPRESSAVG
ENERGY: 0 2.1718 12.9798 12.3247 0.6580 -17813.6665 1839.6245 0.0000 0.0000 3075.0087 -12870.8990 301.4053 -15945.9077 -12864.4617 301.4053 -21.6114 -21.5339 421885.8773 -21.6114 -21.5339
ENERGY: 1000 4.3423 12.5401 10.8559 0.3898 -17768.3776 1893.4300 0.0000 0.0000 2992.6847 -12854.1349 293.3361 -15846.8195 -12847.6843 295.9349 26.7480 25.9141 413775.3060 0.2997 0.3116
ENERGY: 2000 7.0127 12.5470 13.5551 0.4065 -17732.9304 1843.9411 0.0000 0.0000 3062.1058 -12793.3621 300.1406 -15855.4679 -12786.2141 297.1421 -27.4343 -26.7614 402824.2351 2.7111 2.7021
ENERGY: 3000 4.0918 15.0480 12.8912 0.4941 -17624.1642 1833.5630 0.0000 0.0000 3022.9244 -12735.1517 296.3001 -15758.0761 -12730.4455 299.1928 9.8936 9.8988 400953.9699 1.2923 1.2247
ENERGY: 4000 7.1998 10.2830 12.1207 0.4247 -17748.0226 1828.2254 0.0000 0.0000 3016.3347 -12873.4343 295.6542 -15889.7689 -12867.0022 296.8505 -12.0189 -12.7210 414134.5581 2.7043 2.6627
ENERGY: 5000 2.7583 10.5594 12.6814 0.5397 -17703.3045 1877.3535 0.0000 0.0000 2997.2793 -12802.1329 293.7864 -15799.4122 -12796.1665 295.7714 15.2515 15.5659 429089.6345 2.7203 2.7593
TCL: Running FEP window   8: Lambda1 0.5625 Lambda2 0.5    [dLambda -0.0625]
TCL: Setting parameter firsttimestep to 0
TCL: Setting parameter alchLambda to 0.5625
Info: NONBONDED TABLE R-SQUARED SPACING: 0.0625
Info: NONBONDED TABLE SIZE: 769 POINTS
TCL: Setting parameter alchLambda2 to 0.5
Info: NONBONDED TABLE R-SQUARED SPACING: 0.0625
Info: NONBONDED TABLE SIZE: 769 POINTS
TCL: Running for 5000 steps
ETITLE: TS BOND ANGLE DIHED IMPRP ELECT VDW BOUNDARY MISC KINETIC TOTAL TEMP POTENTIAL TOTAL3 TEMPAVG PRESSURE GPRESSURE VOLUME PRESSAVG GPRESSAVG
ENERGY: 0 2.7583 10.5594 12.6814 0.5397 -17676.2026 1877.5967 0.0000 0.0000 2997.1863 -12774.8808 293.7773 -15772.0670 -12769.1674 293.7773 15.5945 15.6272 429089.6345 15.5945 15.6272
ENERGY: 1000 2.9083 13.0896 13.0828 0.1660 -17629.3098 1779.9046 0.0000 0.0000 3103.5328 -12716.6259 304.2012 -15820.1586 -12711.4000 296.5547 -27.6641 -27.6697 434313.6228 -1.0951 -1.1070
ENERGY: 2000 1.9320 15.0657 13.3305 1.1296 -17513.2424 1790.4471 0.0000 0.0000 3010.4886 -12680.8487 295.0812 -15691.3373 -12674.4772 298.4767 -41.4810 -41.3699 456973.8552 3.1042 3.0928
ENERGY: 3000 3.2307 11.5149 10.9822 0.0400 -17678.3444 1895.9478 0.0000 0.0000 2984.2749 -12772.3539 292.5118 -15756.6288 -12765.7923 294.5188 14.9770 15.1282 453005.0769 1.1073 1.0581
ENERGY: 4000 7.0155 11.0864 12.9455 0.8659 -17482.7444 1814.1307 0.0000 0.0000 3049.6578 -12587.0427 298.9205 -15636.7005 -12579.6089 301.9868 12.8937 13.2194 455734.8869 0.1605 0.1764
ENERGY: 5000 6.8358 9.3105 10.7036 0.3427 -17628.0832 1916.7774 0.0000 0.0000 3163.3884 -12520.7249 310.0681 -15684.1133 -12513.9577 304.9366 43.1992 43.0941 454602.3020 1.6178 1.6370
TCL: Running FEP window   9: Lambda1 0.5    Lambda2 0.4375 [dLambda -0.0625]
TCL: Setting parameter firsttimestep to 0
TCL: Setting parameter alchLambda to 0.5
Info: NONBONDED TABLE R-SQUARED SPACING: 0.0625
Info: NONBONDED TABLE SIZE: 769 POINTS
TCL: Setting parameter alchLambda2 to 0.4375
Info: NONBONDED TABLE R-SQUARED SPACING: 0.0625
Info: NONBONDED TABLE SIZE: 769 POINTS
TCL: Running for 5000 steps
ETITLE: TS BOND ANGLE DIHED IMPRP ELECT VDW BOUNDARY MISC KINETIC TOTAL TEMP POTENTIAL TOTAL3 TEMPAVG PRESSURE GPRESSURE VOLUME PRESSAVG GPRESSAVG
ENERGY: 0 6.8358 9.3105 10.7036 0.3427 -17601.3249 1916.7605 0.0000 0.0000 3163.2960 -12494.0758 310.0590 -15657.3718 -12487.2511 310.0590 43.1343 43.1376 454602.3020 43.1343 43.1376
ENERGY: 1000 5.6354 16.0692 12.8914 1.1505 -17509.8711 1828.8801 0.0000 0.0000 3023.9463 -12621.2983 296.4003 -15645.2446 -12616.3235 299.1127 -19.5964 -20.5997 459631.4895 2.5768 2.5633
ENERGY: 2000 2.1690 14.8608 10.8664 1.2415 -17571.6262 1805.8871 0.0000 0.0000 3075.9618 -12660.6396 301.4987 -15736.6014 -12652.7103 300.0877 -22.9445 -24.5199 438468.9139 1.9024 1.8838
ENERGY: 3000 2.6118 10.1222 10.5115 0.1946 -17512.8213 1776.2144 0.0000 0.0000 3036.7223 -12676.4446 297.6526 -15713.1669 -12670.3784 298.8819 -58.6698 -58.0527 437771.5235 -0.5556 -0.5683
ENERGY: 4000 2.7860 14.5486 9.4442 0.1434 -17618.1646 1875.4302 0.0000 0.0000 3055.1342 -12660.6781 299.4572 -15715.8123 -12654.1040 302.4957 18.0695 17.9236 420600.7099 3.7756 3.8341
ENERGY: 5000 4.1861 11.1573 12.0979 0.3769 -17543.1612 1802.7196 0.0000 0.0000 3081.1853 -12631.4381 302.0107 -15712.6234 -12622.3156 300.6582 -29.8288 -29.9357 395237.7547 -2.4736 -2.4720
TCL: Running FEP window  10: Lambda1 0.4375 Lambda2 0.375  [dLambda -0.0625]
TCL: Setting parameter firsttimestep to 0
TCL: Setting parameter alchLambda to 0.4375
Info: NONBONDED TABLE R-SQUARED SPACING: 0.0625
Info: NONBONDED TABLE SIZE: 769 POINTS
TCL: Setting parameter alchLambda2 to 0.375
Info: NONBONDED TABLE R-SQUARED SPACING: 0.0625
Info: NONBONDED TABLE SIZE: 769 POINTS
TCL: Running for 5000 steps
ETITLE: TS BOND ANGLE DIHED IMPRP ELECT VDW BOUNDARY MISC KINETIC TOTAL TEMP POTENTIAL TOTAL3 TEMPAVG PRESSURE GPRESSURE VOLUME PRESSAVG GPRESSAVG
ENERGY: 0 4.1861 11.1573 12.0979 0.3769 -17543.1612 1803.3983 0.0000 0.0000 3081.0913 -12630.8534 302.0015 -15711.9447 -12624.2590 302.0015 -31.0049 -30.7236 395237.7547 -31.0049 -30.7236
ENERGY: 1000 5.2548 14.5389 11.2014 0.4746 -17648.5680 1851.4149 0.0000 0.0000 3036.6224 -12729.0609 297.6428 -15765.6832 -12722.8330 295.4007 -11.9108 -12.3809 396244.3905 0.9785 0.9745
ENERGY: 2000 4.0064 10.9272 9.5340 0.1978 -17701.3261 1848.5202 0.0000 0.0000 2947.9690 -12880.1714 288.9531 -15828.1404 -12873.4614 291.9192 -14.1746 -14.8056 390107.6125 1.7318 1.7461
ENERGY: 3000 2.5687 11.4671 11.3222 0.6736 -17790.1927 1905.9956 0.0000 0.0000 2980.5148 -12877.6507 292.1432 -15858.1655 -12871.1157 295.0011 15.0882 15.0132 393041.0163 1.9113 1.8881
ENERGY: 4000 4.6197 10.6564 13.0613 0.1580 -17906.4980 1999.9749 0.0000 0.0000 3055.5389 -12822.4888 299.4969 -15878.0277 -12819.1898 294.2424 89.7852 89.4549 394003.4702 2.8006 2.8586
ENERGY: 5000 4.3816 14.6162 10.8319 0.3612 -17758.3712 1854.8252 0.0000 0.0000 3070.1022 -12803.2529 300.9244 -15873.3551 -12795.4711 295.7593 -17.8918 -18.2359 416189.3536 1.5452 1.4955
TCL: Running FEP window  11: Lambda1 0.375  Lambda2 0.3125 [dLambda -0.0625]
TCL: Setting parameter firsttimestep to 0
TCL: Setting parameter alchLambda to 0.375
Info: NONBONDED TABLE R-SQUARED SPACING: 0.0625
Info: NONBONDED TABLE SIZE: 769 POINTS
TCL: Setting parameter alchLambda2 to 0.3125
Info: NONBONDED TABLE R-SQUARED SPACING: 0.0625
Info: NONBONDED TABLE SIZE: 769 POINTS
TCL: Running for 5000 steps
ETITLE: TS BOND ANGLE DIHED IMPRP ELECT VDW BOUNDARY MISC KINETIC TOTAL TEMP POTENTIAL TOTAL3 TEMPAVG PRESSURE GPRESSURE VOLUME PRESSAVG GPRESSAVG
ENERGY: 0 4.3816 14.6162 10.8319 0.3612 -17758.3712 1855.7784 0.0000 0.0000 3070.0100 -12802.3919 300.9153 -15872.4019 -12795.7895 300.9153 -18.7713 -18.7710 416189.3536 -18.7713 -18.7710
ENERGY: 1000 4.7773 12.1908 9.6623 0.5672 -17749.0848 1839.0251 0.0000 0.0000 3027.4531 -12855.4089 296.7440 -15882.8620 -12849.1150 294.2453 -1.0376 -1.7760 421517.8296 -0.8024 -0.8204
ENERGY: 2000 2.3608 10.6322 13.0492 0.3165 -17716.3312 1846.9390 0.0000 0.0000 3014.7932 -12828.2403 295.5031 -15843.0335 -12822.7823 296.9233 -18.1212 -18.0644 436307.2329 -1.1120 -1.1172
ENERGY: 3000 6.4335 11.0681 13.0806 0.3766 -17714.5056 1817.3218 0.0000 0.0000 3116.9881 -12749.2367 305.5200 -15866.2248 -12742.4185 297.1130 -45.1058 -45.8690 442988.4938 -1.5193 -1.5094
ENERGY: 4000 1.7746 13.5026 10.0200 0.4943 -17709.9005 1901.6669 0.0000 0.0000 2998.9713 -12783.4708 293.9523 -15782.4421 -12775.9876 295.3314 37.9041 37.8578 453298.3888 -1.6831 -1.6580
ENERGY: 5000 2.8492 13.6201 11.2866 0.3016 -17523.5024 1758.8166 0.0000 0.0000 3053.3931 -12683.2352 299.2866 -15736.6283 -12677.8325 296.6478 -40.2578 -40.7075 457003.3290 0.7884 0.8042
TCL: Running FEP window  12: Lambda1 0.3125 Lambda2 0.25   [dLambda -0.0625]
TCL: Setting parameter firsttimestep to 0
TCL: Setting parameter alchLambda to 0.3125
Info: NONBONDED TABLE R-SQUARED SPACING: 0.0625
Info: NONBONDED TABLE SIZE: 769 POINTS
TCL: Setting parameter alchLambda2 to 0.25
Info: NONBONDED TABLE R-SQUARED SPACING: 0.0625
Info: NONBONDED TABLE SIZE: 769 POINTS
TCL: Running for 5000 steps
ETITLE: TS BOND ANGLE DIHED IMPRP ELECT VDW BOUNDARY MISC KINETIC TOTAL TEMP POTENTIAL TOTAL3 TEMPAVG PRESSURE GPRESSURE VOLUME PRESSAVG GPRESSAVG
ENERGY: 0 2.8492 13.6201 11.2866 0.3016 -17523.5024 1759.6153 0.0000 0.0000 3053.2961 -12682.5335 299.2771 -15735.8296 -12676.6384 299.2771 -41.2961 -41.3350 457003.3290 -41.2961 -41.3350
ENERGY: 1000 4.7396 14.0543 10.3832 0.4744 -17531.2868 1820.6536 0.0000 0.0000 3021.2115 -12659.7703 296.1322 -15680.9818 -12652.5773 301.2435 -17.1033 -16.1437 457972.7427 1.8969 1.8510
ENERGY: 2000 3.2376 16.7496 11.9326 0.3149 -17556.8649 1832.2505 0.0000 0.0000 3131.0234 -12561.3561 306.8957 -15692.3796 -12554.7812 302.5561 32.3502 32.4894 443756.9071 -0.7692 -0.8004
ENERGY: 3000 6.6755 10.7950 11.3791 0.1445 -17453.7934 1734.2152 0.0000 0.0000 3076.7730 -12613.8112 301.5782 -15690.5842 -12606.7701 300.9158 -64.2254 -62.9840 467012.1289 -0.5587 -0.5518
ENERGY: 4000 2.7730 9.0361 12.6839 0.5696 -17613.0668 1858.1551 0.0000 0.0000 3047.8317 -12682.0174 298.7415 -15729.8491 -12675.8220 298.6773 -10.0318 -9.4887 473332.2003 2.3888 2.3727
ENERGY: 5000 4.1909 13.1207 14.5164 0.4291 -17712.5435 1894.0170 0.0000 0.0000 2998.1807 -12788.0886 293.8748 -15786.2693 -12784.0093 296.3646 16.3819 16.9486 482389.3388 2.2781 2.3272
TCL: Running FEP window  13: Lambda1 0.25   Lambda2 0.1875 [dLambda -0.0625]
TCL: Setting parameter firsttimestep to 0
TCL: Setting parameter alchLambda to 0.25
Info: NONBONDED TABLE R-SQUARED SPACING: 0.0625
Info: NONBONDED TABLE SIZE: 769 POINTS
TCL: Setting parameter alchLambda2 to 0.1875
Info: NONBONDED TABLE R-SQUARED SPACING: 0.0625
Info: NONBONDED TABLE SIZE: 769 POINTS
TCL: Running for 5000 steps
ETITLE: TS BOND ANGLE DIHED IMPRP ELECT VDW BOUNDARY MISC KINETIC TOTAL TEMP POTENTIAL TOTAL3 TEMPAVG PRESSURE GPRESSURE VOLUME PRESSAVG GPRESSAVG
ENERGY: 0 4.1909 13.1207 14.5164 0.4291 -17712.5435 1895.4738 0.0000 0.0000 2998.0838 -12786.7287 293.8653 -15784.8125 -12780.6297 293.8653 16.5467 16.6543 482389.3388 16.5467 16.6543
ENERGY: 1000 3.0481 13.6166 11.2508 0.7198 -17802.1088 1934.2273 0.0000 0.0000 3059.2960 -12779.9503 299.8652 -15839.2463 -12773.2700 293.7390 13.0813 12.9719 479980.8748 0.3763 0.3901
ENERGY: 2000 2.2025 8.6946 15.1211 0.9540 -17704.8264 1899.1576 0.0000 0.0000 2927.0812 -12851.6154 286.9058 -15778.6965 -12845.5637 294.5435 20.9275 21.0974 478235.5630 3.6934 3.6891
ENERGY: 3000 3.2782 13.4559 11.6133 0.6514 -17703.9008 1893.2455 0.0000 0.0000 2964.9345 -12816.7219 290.6161 -15781.6564 -12810.6574 291.8519 7.4547 7.7686 500307.5305 1.8823 1.8836
ENERGY: 4000 5.4170 13.4363 11.5735 0.4670 -17605.8475 1786.8214 0.0000 0.0000 3009.5157 -12778.6166 294.9858 -15788.1323 -12774.3924 294.1127 -34.6356 -35.2036 514819.1045 0.0301 0.0147
ENERGY: 5000 3.2186 9.7536 12.3174 0.3138 -17681.2069 1890.0380 0.0000 0.0000 3076.0235 -12689.5419 301.5048 -15765.5654 -12682.1289 298.0761 10.1515 9.6928 511855.6491 0.8691 0.8605
TCL: Running FEP window  14: Lambda1 0.1875 Lambda2 0.125  [dLambda -0.0625]
TCL: Setting parameter firsttimestep to 0
TCL: Setting parameter alchLambda to 0.1875
Info: NONBONDED TABLE R-SQUARED SPACING: 0.0625
Info: NONBONDED TABLE SIZE: 769 POINTS
TCL: Setting parameter alchLambda2 to 0.125
Info: NONBONDED TABLE R-SQUARED SPACING: 0.0625
Info: NONBONDED TABLE SIZE: 769 POINTS
TCL: Running for 5000 steps
ETITLE: TS BOND ANGLE DIHED IMPRP ELECT VDW BOUNDARY MISC KINETIC TOTAL TEMP POTENTIAL TOTAL3 TEMPAVG PRESSURE GPRESSURE VOLUME PRESSAVG GPRESSAVG
ENERGY: 0 3.2186 9.7536 12.3174 0.3138 -17681.2069 1890.5665 0.0000 0.0000 3075.9324 -12689.1046 301.4958 -15765.0370 -12682.6946 301.4958 9.3076 9.3576 511855.6491 9.3076 9.3576
ENERGY: 1000 5.5037 12.9814 11.7959 0.7698 -17632.6079 1874.6304 0.0000 0.0000 3007.2689 -12719.6577 294.7656 -15726.9267 -12712.1245 296.6544 -0.0401 -0.8752 499082.3034 0.1721 0.2117
ENERGY: 2000 3.3271 13.9644 13.4672 0.2643 -17616.4171 1831.9508 0.0000 0.0000 3116.4363 -12637.0070 305.4659 -15753.4433 -12629.2742 300.3652 -13.8427 -15.5513 507363.9419 2.0192 1.9801
ENERGY: 3000 4.3159 11.0742 10.5739 0.1629 -17543.3438 1806.1892 0.0000 0.0000 3012.8078 -12698.2198 295.3085 -15711.0276 -12691.8399 297.2549 -21.5857 -21.2423 504302.1860 2.3903 2.3931
ENERGY: 4000 3.9863 10.0619 11.2244 0.6099 -17573.6574 1858.5625 0.0000 0.0000 3036.9228 -12652.2897 297.6722 -15689.2124 -12645.3004 298.4575 13.0720 13.1937 485699.6342 0.8309 0.8106
ENERGY: 5000 2.4606 10.7760 13.4398 0.5421 -17473.2170 1755.9842 0.0000 0.0000 3079.9603 -12610.0541 301.8906 -15690.0144 -12600.8448 300.8336 -41.9967 -42.1698 490141.1030 1.0490 1.0006
TCL: Running FEP window  15: Lambda1 0.125  Lambda2 0.0625 [dLambda -0.0625]
TCL: Setting parameter firsttimestep to 0
TCL: Setting parameter alchLambda to 0.125
Info: NONBONDED TABLE R-SQUARED SPACING: 0.0625
Info: NONBONDED TABLE SIZE: 769 POINTS
TCL: Setting parameter alchLambda2 to 0.0625
Info: NONBONDED TABLE R-SQUARED SPACING: 0.0625
Info: NONBONDED TABLE SIZE: 769 POINTS
TCL: Running for 5000 steps
ETITLE: TS BOND ANGLE DIHED IMPRP ELECT VDW BOUNDARY MISC KINETIC TOTAL TEMP POTENTIAL TOTAL3 TEMPAVG PRESSURE GPRESSURE VOLUME PRESSAVG GPRESSAVG
ENERGY: 0 2.4606 10.7760 13.4398 0.5421 -17473.2170 1756.1863 0.0000 0.0000 3079.8722 -12609.9401 301.8820 -15689.8123 -12603.6371 301.8820 -42.2367 -42.3807 490141.1030 -42.2367 -42.3807
ENERGY: 1000 3.8662 11.1096 12.6111 0.4860 -17562.2224 1817.1048 0.0000 0.0000 3096.6856 -12620.3591 303.5300 -15717.0447 -12614.2205 301.7329 -18.3597 -19.2537 490478.2721 1.3570 1.3643
ENERGY: 2000 3.8890 13.2545 13.5861 0.4007 -17421.2378 1754.4897 0.0000 0.0000 2956.0740 -12679.5438 289.7476 -15635.6177 -12672.8467 300.5162 -42.7374 -42.2321 490634.4138 1.9486 1.9065
ENERGY: 3000 2.2033 14.7047 10.0066 0.3840 -17775.1080 1958.1968 0.0000 0.0000 3032.3240 -12757.2884 297.2214 -15789.6124 -12750.3289 298.2435 49.2123 49.1957 481065.7265 2.0043 1.9725
ENERGY: 4000 4.6677 12.8175 11.5098 0.4652 -17586.6172 1780.7592 0.0000 0.0000 3019.0753 -12757.3226 295.9228 -15776.3979 -12750.4593 295.1405 -58.5802 -58.8953 467699.3964 -0.2506 -0.2219
ENERGY: 5000 8.1881 10.5197 12.0171 1.1835 -17659.0924 1868.9741 0.0000 0.0000 3048.8949 -12709.3149 298.8457 -15758.2099 -12701.1102 297.8186 -9.7193 -8.1556 455488.1319 0.0131 -0.0165
TCL: Running FEP window  16: Lambda1 0.0625 Lambda2 0.0    [dLambda -0.0625]
TCL: Setting parameter firsttimestep to 0
TCL: Setting parameter alchLambda to 0.0625
Info: NONBONDED TABLE R-SQUARED SPACING: 0.0625
Info: NONBONDED TABLE SIZE: 769 POINTS
TCL: Setting parameter alchLambda2 to 0.0
Info: NONBONDED TABLE R-SQUARED SPACING: 0.0625
Info: NONBONDED TABLE SIZE: 769 POINTS
TCL: Running for 5000 steps
ETITLE: TS BOND ANGLE DIHED IMPRP ELECT VDW BOUNDARY MISC KINETIC TOTAL TEMP POTENTIAL TOTAL3 TEMPAVG PRESSURE GPRESSURE VOLUME PRESSAVG GPRESSAVG
ENERGY: 0 8.1881 10.5197 12.0171 1.1835 -17659.0924 1869.0203 0.0000 0.0000 3048.7988 -12709.3649 298.8363 -15758.1637 -12703.8782 298.8363 -8.2835 -8.1329 455488.1319 -8.2835 -8.1329
ENERGY: 1000 7.6724 5.9799 12.3111 0.6468 -17607.0415 1872.1236 0.0000 0.0000 2989.9467 -12718.3610 293.0677 -15708.3077 -12712.6488 298.6880 10.5080 10.7789 464598.5916 0.9913 0.9782
ENERGY: 2000 5.6020 12.1082 12.1986 0.7873 -17599.8228 1828.2530 0.0000 0.0000 3041.1078 -12699.7660 298.0824 -15740.8738 -12692.9070 299.8935 -23.5115 -23.6569 476981.8486 0.2175 0.2281
ENERGY: 3000 5.0326 10.2035 10.8185 0.4439 -17551.5622 1806.9170 0.0000 0.0000 3066.7975 -12651.3492 300.6004 -15718.1467 -12646.6728 299.0224 -29.5015 -29.7908 484218.3044 2.7820 2.8073
ENERGY: 4000 5.7556 13.4705 11.1252 0.1642 -17604.3060 1851.7850 0.0000 0.0000 3036.2373 -12685.7681 297.6050 -15722.0054 -12678.5442 298.8967 -6.9681 -7.4107 471562.7940 1.4864 1.4838
ENERGY: 5000 8.5373 9.7938 10.2531 0.7825 -17677.4078 1879.1307 0.0000 0.0000 2998.4904 -12770.4199 293.9051 -15768.9103 -12765.7823 295.2034 12.5855 13.2204 466778.6874 0.6911 0.6886
