Info: SIMULATION PARAMETERS:
Info: TIMESTEP               1
Info: NUMBER OF STEPS        0
Info: STEPS PER CYCLE        10
Info: PERIODIC CELL BASIS 1  30 0 0
Info: PERIODIC CELL BASIS 2  0 30 0
Info: PERIODIC CELL BASIS 3  0 0 30
Info: PERIODIC CELL CENTER   0 0 0
Info: WRAPPING ALL CLUSTERS AROUND PERIODIC BOUNDARIES ON OUTPUT.
Info: FIRST LDB TIMESTEP     50
Info: LAST LDB TIMESTEP     -1
Info: HOM BACKGROUND SCALING 1
Info: MIN ATOMS PER PATCH    40
Info: EMPTY PATCH LOAD       40 ATOMS
Info: INITIAL TEMPERATURE    298
Info: CENTER OF MASS MOVING INITIALLY? NO
Info: DIELECTRIC             1
Info: EXCLUDE                SCALED ONE-FOUR
Info: 1-4 ELECTROSTATICS SCALED BY 1
Info: MODIFIED 1-4 VDW PARAMETERS WILL BE USED
Info: DCD FILENAME           output.dcd
Info: DCD FREQUENCY          2500
Info: DCD FIRST STEP         2500
Info: DCD FILE WILL CONTAIN UNIT CELL DATA
Info: NO EXTENDED SYSTEM TRAJECTORY OUTPUT
Info: NO VELOCITY DCD OUTPUT
Info: NO FORCE DCD OUTPUT
Info: OUTPUT FILENAME        output
Info: BINARY OUTPUT FILES WILL BE USED
Info: NO RESTART FILE
Info: SWITCHING ACTIVE
Info: SWITCHING ON           10
Info: SWITCHING OFF          12
Info: PAIRLIST DISTANCE      14
Info: PAIRLIST SHRINK RATE   0.01
Info: PAIRLIST GROW RATE     0.01
Info: PAIRLIST TRIGGER       0.3
Info: PAIRLISTS PER CYCLE    2
Info: PAIRLISTS ENABLED
Info: MARGIN                 0
Info: HYDROGEN GROUP CUTOFF  2.5
Info: PATCH DIMENSION        16.5
Info: ENERGY OUTPUT STEPS    2500
Info: ENERGY EVALUATION STEPS    2500
Info: OUTPUT ENERGY PRECISION 4
Info: CROSSTERM ENERGY INCLUDED IN DIHEDRAL
Info: TIMING OUTPUT STEPS    2500
Info: LANGEVIN DYNAMICS ACTIVE
Info: LANGEVIN TEMPERATURE   298
Info: LANGEVIN USING BBK INTEGRATOR
Info: LANGEVIN DAMPING COEFFICIENT IS 0.5 INVERSE PS
Info: LANGEVIN DYNAMICS NOT APPLIED TO HYDROGENS
Info: MULTILEVEL SUMMATION METHOD (MSM) FOR ELECTROSTATICS ACTIVE
Info: MSM WITH C1 CUBIC INTERPOLATION AND C2 TAYLOR SPLITTING
Info: FULL ELECTROSTATIC EVALUATION FREQUENCY      1
Info: USING VERLET I (r-RESPA) MTS SCHEME.
Info: C1 SPLITTING OF LONG RANGE ELECTROSTATICS
Info: PLACING ATOMS IN PATCHES BY HYDROGEN GROUPS
Info: RIGID BONDS TO HYDROGEN : ALL
Info:         ERROR TOLERANCE : 1e-08
Info:          MAX ITERATIONS : 100
Info: RIGID WATER USING SETTLE ALGORITHM
Info: RANDOM NUMBER SEED     1740262350
Info: USE HYDROGEN BONDS?    NO
Info: COORDINATE PDB         ionized.pdb
Info: STRUCTURE FILE         ionized.psf
Info: PARAMETER file: CHARMM format!
Info: PARAMETERS             par_all27_prot_lipid.inp
Info: USING ARITHMETIC MEAN TO COMBINE L-J SIGMA PARAMETERS
Info: SUMMARY OF PARAMETERS:
Info: 180 BONDS
Info: 447 ANGLES
Info: 566 DIHEDRAL
Info: 46 IMPROPER
Info: 6 CROSSTERM
Info: 119 VDW
Info: 0 VDW_PAIRS
Info: 0 NBTHOLE_PAIRS
Info: STRUCTURE SUMMARY:
Info: 2476 ATOMS
Info: 1650 BONDS
Info: 825 ANGLES
Info: 0 DIHEDRALS
Info: 0 IMPROPERS
Info: 0 CROSSTERMS
Info: 0 EXCLUSIONS
Info: 2475 RIGID BONDS
Info: 4953 DEGREES OF FREEDOM
Info: 826 HYDROGEN GROUPS
Info: 3 ATOMS IN LARGEST HYDROGEN GROUP
Info: 826 MIGRATION GROUPS
Info: 3 ATOMS IN LARGEST MIGRATION GROUP
Info: TOTAL MASS = 14885.7 amu
Info: TOTAL CHARGE = 1 e
Info: MASS DENSITY = 0.915513 g/cm^3
Info: ATOM DENSITY = 0.0917037 atoms/A^3
Info: ADDED 2475 IMPLICIT EXCLUSIONS
Info: NONBONDED TABLE R-SQUARED SPACING: 0.0625
Info: NONBONDED TABLE SIZE: 769 POINTS
Info: REMOVING COM VELOCITY 0.0147338 -0.223176 0.0602127
Info: MSM using C1 cubic interpolation
Info: MSM using C2 Taylor splitting function
Info: MSM block size decomposition along X is 8 grid points
Info: MSM block size decomposition along Y is 8 grid points
Info: MSM block size decomposition along Z is 8 grid points
Info: MSM grid spacing along X is 2.5 A
Info: MSM grid spacing along Y is 2.5 A
Info: MSM grid spacing along Z is 2.5 A
Info: MSM using 3 levels
Info:     level 0:  [0..11] x [0..11] x [0..11]
Info:     level 1:  [0..5] x [0..5] x [0..5]
Info:     level 2:  [0..2] x [0..2] x [0..2]
Info: MSM finished calculating stencils
Info: MSM finished creating map for grid levels
Info: MSM finished creating map for patches
Info: MSM has 9 interpolation / anterpolation objects (one per patch)
Info: MSM grid level 0 decomposed into 8 blocks ( 2 x 2 x 2 )
Info: MSM grid level 1 decomposed into 1 block ( 1 x 1 x 1 )
Info: MSM grid level 2 decomposed into 1 block ( 1 x 1 x 1 )
Info: MSM grid cutoff calculation decomposed into 783 work objects
TCL: Minimizing for 100 steps
ETITLE: TS BOND ANGLE DIHED IMPRP ELECT VDW BOUNDARY MISC KINETIC TOTAL TEMP POTENTIAL TOTAL3 TEMPAVG PRESSURE GPRESSURE VOLUME PRESSAVG GPRESSAVG
ENERGY: 0 0.0000 0.0000 0.0000 0.0000 -7348.6496 6353.7252 0.0000 0.0000 0.0000 -994.9244 0.0000 -994.9244 -994.9244 0.0000 75204.0846 46356.0497 27000.0000 75204.0846 46356.0497
ENERGY: 20 0.0000 0.0000 0.0000 0.0000 -8744.5979 644.7588 0.0000 0.0000 0.0000 -8099.8391 0.0000 -8099.8391 -8099.8391 0.0000 14286.6718 -2608.4256 27000.0000 14286.6718 -2608.4256
ENERGY: 40 0.0000 0.0000 0.0000 0.0000 -9255.3682 673.7888 0.0000 0.0000 0.0000 -8581.5795 0.0000 -8581.5795 -8581.5795 0.0000 14306.7127 -3612.4726 27000.0000 14306.7127 -3612.4726
ENERGY: 60 0.0000 0.0000 0.0000 0.0000 -9570.7014 738.1057 0.0000 0.0000 0.0000 -8832.5958 0.0000 -8832.5958 -8832.5958 0.0000 14889.9964 -3661.0804 27000.0000 14889.9964 -3661.0804
ENERGY: 80 0.0000 0.0000 0.0000 0.0000 -9709.9111 782.3699 0.0000 0.0000 0.0000 -8927.5412 0.0000 -8927.5412 -8927.5412 0.0000 15330.7563 -3519.6372 27000.0000 15330.7563 -3519.6372
ENERGY: 100 0.0000 0.0000 0.0000 0.0000 -9872.7876 825.2849 0.0000 0.0000 0.0000 -9047.5028 0.0000 -9047.5028 -9047.5028 0.0000 15763.6852 15684.6530 27000.0000 15763.6852 15684.6530
TCL: Running for 500000 steps
ETITLE: TS BOND ANGLE DIHED IMPRP ELECT VDW BOUNDARY MISC KINETIC TOTAL TEMP POTENTIAL TOTAL3 TEMPAVG PRESSURE GPRESSURE VOLUME PRESSAVG GPRESSAVG
ENERGY: 2500 0.0000 0.0000 0.0000 0.0000 -9428.6373 968.5017 0.0000 0.0000 1192.2424 -7267.8932 242.2627 -8460.1356 -7267.1501 228.4739 -1784.5528 -1775.5995 27000.0000 -1955.3802 -1955.5104
ENERGY: 102500 0.0000 0.0000 0.0000 0.0000 -8807.9741 842.6877 0.0000 0.0000 1434.1607 -6531.1257 291.4204 -7965.2864 -6531.0372 297.5236 -1295.5513 -1297.5012 27000.0000 -1281.6890 -1281.8086
ENERGY: 202500 0.0000 0.0000 0.0000 0.0000 -8798.8876 849.2365 0.0000 0.0000 1485.2637 -6464.3874 301.8044 -7949.6511 -6463.4307 299.9126 -1043.9887 -1046.7526 27000.0000 -1336.3666 -1336.2968
ENERGY: 300000 0.0000 0.0000 0.0000 0.0000 -8757.8150 759.7509 0.0000 0.0000 1450.5727 -6547.4914 294.7553 -7998.0641 -6546.8503 292.1357 -2090.1035 -2105.8739 27000.0000 -1388.1050 -1387.9242
ENERGY: 400000 0.0000 0.0000 0.0000 0.0000 -8820.0661 859.1969 0.0000 0.0000 1448.2727 -6512.5965 294.2879 -7960.8692 -6511.3129 292.8464 -923.5598 -930.2734 27000.0000 -1232.0563 -1231.9861
ENERGY: 500000 0.0000 0.0000 0.0000 0.0000 -8865.0204 883.2071 0.0000 0.0000 1480.6287 -6501.1845 300.8626 -7981.8133 -6500.2495 295.5298 -926.0372 -931.5655 27000.0000 -1402.1429 -1402.0588
