Info: SIMULATION PARAMETERS:
Info: TIMESTEP               2
Info: NUMBER OF STEPS        0
Info: STEPS PER CYCLE        10
Info: PERIODIC CELL BASIS 1  39.806 0 0
Info: PERIODIC CELL BASIS 2  0 39.757 0
Info: PERIODIC CELL BASIS 3  0 0 42.851
Info: PERIODIC CELL CENTER   0 0 0
Info: WRAPPING WATERS AROUND PERIODIC BOUNDARIES ON OUTPUT.
Info: WRAPPING ALL CLUSTERS AROUND PERIODIC BOUNDARIES ON OUTPUT.
Info: FIRST LDB TIMESTEP     50
Info: LAST LDB TIMESTEP     -1
Info: HOM BACKGROUND SCALING 1
Info: PME BACKGROUND SCALING 1
Info: MIN ATOMS PER PATCH    40
Info: EMPTY PATCH LOAD       40 ATOMS
Info: INITIAL TEMPERATURE    300
Info: CENTER OF MASS MOVING INITIALLY? NO
Info: DIELECTRIC             1
Info: EXCLUDE                SCALED ONE-FOUR
Info: 1-4 ELECTROSTATICS SCALED BY 0.833333
Info: MODIFIED 1-4 VDW PARAMETERS WILL BE USED
Info: DCD FILENAME           mobley_6988468_min.dcd
Info: DCD FREQUENCY          5000
Info: DCD FIRST STEP         5000
Info: DCD FILE WILL CONTAIN UNIT CELL DATA
Info: XST FILENAME           mobley_6988468_min.xst
Info: XST FREQUENCY          5000
Info: NO VELOCITY DCD OUTPUT
Info: NO FORCE DCD OUTPUT
Info: OUTPUT FILENAME        mobley_6988468_min
Info: BINARY OUTPUT FILES WILL BE USED
Info: RESTART FILENAME       mobley_6988468_min.restart
Info: RESTART FREQUENCY      5000
Info: BINARY RESTART FILES WILL BE USED
Info: CUTOFF                 9
Info: PAIRLIST DISTANCE      11
Info: PAIRLIST SHRINK RATE   0.01
Info: PAIRLIST GROW RATE     0.01
Info: PAIRLIST TRIGGER       0.3
Info: PAIRLISTS PER CYCLE    2
Info: PAIRLISTS ENABLED
Info: MARGIN                 8
Info: HYDROGEN GROUP CUTOFF  2.5
Info: PATCH DIMENSION        21.5
Info: ENERGY OUTPUT STEPS    5000
Info: ENERGY EVALUATION STEPS    5000
Info: OUTPUT ENERGY PRECISION 4
Info: CROSSTERM ENERGY INCLUDED IN DIHEDRAL
Info: TIMING OUTPUT STEPS    50000
Info: PRESSURE OUTPUT STEPS  5000
Info: LANGEVIN DYNAMICS ACTIVE
Info: LANGEVIN TEMPERATURE   300
Info: LANGEVIN USING BBK INTEGRATOR
Info: LANGEVIN DAMPING COEFFICIENT IS 1 INVERSE PS
Info: LANGEVIN DYNAMICS APPLIED TO HYDROGENS
Info: LANGEVIN PISTON PRESSURE CONTROL ACTIVE
Info:        TARGET PRESSURE IS 1.01325 BAR
Info:     OSCILLATION PERIOD IS 50 FS
Info:             DECAY TIME IS 25 FS
Info:     PISTON TEMPERATURE IS 300 K
Info:       PRESSURE CONTROL IS GROUP-BASED
Info:    INITIAL STRAIN RATE IS 0 0 0
Info:       CELL FLUCTUATION IS ISOTROPIC
Info: PARTICLE MESH EWALD (PME) ACTIVE
Info: PME TOLERANCE               1e-06
Info: PME EWALD COEFFICIENT       0.348832
Info: PME INTERPOLATION ORDER     4
Info: PME GRID DIMENSIONS         40 40 44
Info: PME MAXIMUM GRID SPACING    1
Info: FULL ELECTROSTATIC EVALUATION FREQUENCY      2
Info: USING VERLET I (r-RESPA) MTS SCHEME.
Info: C1 SPLITTING OF LONG RANGE ELECTROSTATICS
Info: PLACING ATOMS IN PATCHES BY HYDROGEN GROUPS
Info: RIGID BONDS TO HYDROGEN : ALL
Info:         ERROR TOLERANCE : 1e-08
Info:          MAX ITERATIONS : 100
Info: RIGID WATER USING SETTLE ALGORITHM
Info: RANDOM NUMBER SEED     1741406040
Info: USE HYDROGEN BONDS?    NO
Info: Using AMBER format force field!
Info: AMBER PARM FILE        mobley_6988468.prmtop
Info: COORDINATE PDB         mobley_6988468.pdb
Info: Exclusions will be read from PARM file!
Info: SCNB (VDW SCALING)     2
Info: USING ARITHMETIC MEAN TO COMBINE L-J SIGMA PARAMETERS
Info: SUMMARY OF PARAMETERS:
Info: 9 BONDS
Info: 12 ANGLES
Info:   12 HARMONIC
Info:   0 COSINE-BASED
Info: 8 DIHEDRAL
Info: 0 IMPROPER
Info: 0 CROSSTERM
Info: 0 VDW
Info: 36 VDW_PAIRS
Info: 0 NBTHOLE_PAIRS
Info: STRUCTURE SUMMARY:
Info: 5003 ATOMS
Info: 5003 BONDS
Info: 28 ANGLES
Info: 38 DIHEDRALS
Info: 0 IMPROPERS
Info: 0 CROSSTERMS
Info: 5063 EXCLUSIONS
Info: 4995 RIGID BONDS
Info: 10014 DEGREES OF FREEDOM
Info: 1670 HYDROGEN GROUPS
Info: 4 ATOMS IN LARGEST HYDROGEN GROUP
Info: 1670 MIGRATION GROUPS
Info: 4 ATOMS IN LARGEST MIGRATION GROUP
Info: TOTAL MASS = 30049.7 amu
Info: TOTAL CHARGE = 0.000199962 e
Info: MASS DENSITY = 0.735829 g/cm^3
Info: ATOM DENSITY = 0.0737747 atoms/A^3
Info: ADDED 0 IMPLICIT EXCLUSIONS
Info: NONBONDED TABLE R-SQUARED SPACING: 0.0625
Info: NONBONDED TABLE SIZE: 705 POINTS
Info: REMOVING COM VELOCITY 0.125947 -0.074947 -0.0741964
TCL: Minimizing for 2000 steps
ETITLE: TS BOND ANGLE DIHED IMPRP ELECT VDW BOUNDARY MISC KINETIC TOTAL TEMP POTENTIAL TOTAL3 TEMPAVG PRESSURE GPRESSURE VOLUME PRESSAVG GPRESSAVG
ENERGY: 0 0.4827 0.5143 0.4841 0.0000 -15756.7926 1793.8917 0.0000 0.0000 0.0000 -13961.4198 0.0000 -13961.4198 -13961.4198 0.0000 11498.5884 -16252.8240 67814.5846 11498.5884 -16252.8240
ENERGY: 400 4.7713 2.0172 0.5805 0.0000 -21098.7880 3141.6619 0.0000 0.0000 0.0000 -17949.7570 0.0000 -17949.7570 -17949.7570 0.0000 16520.3513 16313.7463 67814.5846 16520.3513 16313.7463
ENERGY: 800 1.1186 0.6957 0.7068 0.0000 -22157.7185 3565.3994 0.0000 0.0000 0.0000 -18589.7979 0.0000 -18589.7979 -18589.7979 0.0000 18511.5586 18315.6716 67814.5846 18511.5586 18315.6716
ENERGY: 1200 0.3594 0.4742 0.5355 0.0000 -22625.8389 3796.4537 0.0000 0.0000 0.0000 -18828.0162 0.0000 -18828.0162 -18828.0162 0.0000 19666.6735 19444.4033 67814.5846 19666.6735 19444.4033
ENERGY: 1600 0.1963 0.5430 0.5723 0.0000 -22796.4636 3871.6734 0.0000 0.0000 0.0000 -18923.4785 0.0000 -18923.4785 -18923.4785 0.0000 20052.4271 19728.5171 67814.5846 20052.4271 19728.5171
ENERGY: 2000 0.2231 0.5474 0.5487 0.0000 -22925.9736 3924.6852 0.0000 0.0000 0.0000 -18999.9693 0.0000 -18999.9693 -18999.9693 0.0000 20339.1761 20142.3827 67814.5846 20339.1761 20142.3827
TCL: Exiting due to exit command.
Info: NAMD 3.0.1 for Linux-x86_64-multicore
Info: Please visit http://www.ks.uiuc.edu/Research/namd/
Info: for updates, documentation, and support information.
Info: Please cite Phillips et al., J. Chem. Phys. 153:044130 (2020) doi:10.1063/5.0014475
Info: in all publications reporting results obtained with NAMD.
Info: Based on Charm++/Converse 80000 for multicore-linux-x86_64-gcc
Info: Built Mon Oct 14 11:11:06 CDT 2024 by dhardy on athine.ks.uiuc.edu
Info: 1 NAMD  3.0.1  Linux-x86_64-multicore  16    k005  z5358697
Info: Running on 16 processors, 1 nodes, 1 physical nodes.
Info: CPU topology information available.
Info: Charm++/Converse parallel runtime startup completed at 0.0111692 s
Info: 1043.45 MB of memory in use based on /proc/self/stat
Info: Configuration file is mobley_6988468_equil.namd
Info: Working in the current directory /srv/scratch/z5358697/prod_prep_9/6988468
TCL: Running 25000 steps at 30 kelvin.
TCL: Suspending until startup complete.
Info: SIMULATION PARAMETERS:
Info: TIMESTEP               2
Info: NUMBER OF STEPS        0
Info: STEPS PER CYCLE        10
Info: PERIODIC CELL BASIS 1  39.806 0 0
Info: PERIODIC CELL BASIS 2  0 39.757 0
Info: PERIODIC CELL BASIS 3  0 0 42.851
Info: PERIODIC CELL CENTER   0 0 0
Info: WRAPPING WATERS AROUND PERIODIC BOUNDARIES ON OUTPUT.
Info: WRAPPING ALL CLUSTERS AROUND PERIODIC BOUNDARIES ON OUTPUT.
Info: FIRST LDB TIMESTEP     50
Info: LAST LDB TIMESTEP     -1
Info: HOM BACKGROUND SCALING 1
Info: PME BACKGROUND SCALING 1
Info: MIN ATOMS PER PATCH    40
Info: EMPTY PATCH LOAD       40 ATOMS
Info: INITIAL TEMPERATURE    300
Info: CENTER OF MASS MOVING INITIALLY? NO
Info: DIELECTRIC             1
Info: EXCLUDE                SCALED ONE-FOUR
Info: 1-4 ELECTROSTATICS SCALED BY 0.833333
Info: MODIFIED 1-4 VDW PARAMETERS WILL BE USED
Info: DCD FILENAME           mobley_6988468_equil.dcd
Info: DCD FREQUENCY          5000
Info: DCD FIRST STEP         5000
Info: DCD FILE WILL CONTAIN UNIT CELL DATA
Info: XST FILENAME           mobley_6988468_equil.xst
Info: XST FREQUENCY          5000
Info: NO VELOCITY DCD OUTPUT
Info: NO FORCE DCD OUTPUT
Info: OUTPUT FILENAME        mobley_6988468_equil
Info: BINARY OUTPUT FILES WILL BE USED
Info: RESTART FILENAME       mobley_6988468_equil.restart
Info: RESTART FREQUENCY      5000
Info: BINARY RESTART FILES WILL BE USED
Info: CUTOFF                 9
Info: PAIRLIST DISTANCE      11
Info: PAIRLIST SHRINK RATE   0.01
Info: PAIRLIST GROW RATE     0.01
Info: PAIRLIST TRIGGER       0.3
Info: PAIRLISTS PER CYCLE    2
Info: PAIRLISTS ENABLED
Info: MARGIN                 8
Info: HYDROGEN GROUP CUTOFF  2.5
Info: PATCH DIMENSION        21.5
Info: ENERGY OUTPUT STEPS    5000
Info: ENERGY EVALUATION STEPS    5000
Info: OUTPUT ENERGY PRECISION 4
Info: CROSSTERM ENERGY INCLUDED IN DIHEDRAL
Info: TIMING OUTPUT STEPS    50000
Info: PRESSURE OUTPUT STEPS  5000
Info: LANGEVIN DYNAMICS ACTIVE
Info: LANGEVIN TEMPERATURE   30
Info: LANGEVIN USING BBK INTEGRATOR
Info: LANGEVIN DAMPING COEFFICIENT IS 1 INVERSE PS
Info: LANGEVIN DYNAMICS APPLIED TO HYDROGENS
Info: LANGEVIN PISTON PRESSURE CONTROL ACTIVE
Info:        TARGET PRESSURE IS 1.01325 BAR
Info:     OSCILLATION PERIOD IS 50 FS
Info:             DECAY TIME IS 25 FS
Info:     PISTON TEMPERATURE IS 300 K
Info:       PRESSURE CONTROL IS GROUP-BASED
Info:    INITIAL STRAIN RATE IS 0 0 0
Info:       CELL FLUCTUATION IS ISOTROPIC
Info: PARTICLE MESH EWALD (PME) ACTIVE
Info: PME TOLERANCE               1e-06
Info: PME EWALD COEFFICIENT       0.348832
Info: PME INTERPOLATION ORDER     4
Info: PME GRID DIMENSIONS         40 40 44
Info: PME MAXIMUM GRID SPACING    1
Info: FULL ELECTROSTATIC EVALUATION FREQUENCY      2
Info: USING VERLET I (r-RESPA) MTS SCHEME.
Info: C1 SPLITTING OF LONG RANGE ELECTROSTATICS
Info: PLACING ATOMS IN PATCHES BY HYDROGEN GROUPS
Info: RIGID BONDS TO HYDROGEN : ALL
Info:         ERROR TOLERANCE : 1e-08
Info:          MAX ITERATIONS : 100
Info: RIGID WATER USING SETTLE ALGORITHM
Info: RANDOM NUMBER SEED     1741406054
Info: USE HYDROGEN BONDS?    NO
Info: Using AMBER format force field!
Info: AMBER PARM FILE        mobley_6988468.prmtop
Info: COORDINATE PDB         mobley_6988468.pdb
Info: Exclusions will be read from PARM file!
Info: SCNB (VDW SCALING)     2
Info: USING ARITHMETIC MEAN TO COMBINE L-J SIGMA PARAMETERS
Info: BINARY COORDINATES     mobley_6988468_min.coor
Info: SUMMARY OF PARAMETERS:
Info: 9 BONDS
Info: 12 ANGLES
Info:   12 HARMONIC
Info:   0 COSINE-BASED
Info: 8 DIHEDRAL
Info: 0 IMPROPER
Info: 0 CROSSTERM
Info: 0 VDW
Info: 36 VDW_PAIRS
Info: 0 NBTHOLE_PAIRS
Info: STRUCTURE SUMMARY:
Info: 5003 ATOMS
Info: 5003 BONDS
Info: 28 ANGLES
Info: 38 DIHEDRALS
Info: 0 IMPROPERS
Info: 0 CROSSTERMS
Info: 5063 EXCLUSIONS
Info: 4995 RIGID BONDS
Info: 10014 DEGREES OF FREEDOM
Info: 1670 HYDROGEN GROUPS
Info: 4 ATOMS IN LARGEST HYDROGEN GROUP
Info: 1670 MIGRATION GROUPS
Info: 4 ATOMS IN LARGEST MIGRATION GROUP
Info: TOTAL MASS = 30049.7 amu
Info: TOTAL CHARGE = 0.000199962 e
Info: MASS DENSITY = 0.735829 g/cm^3
Info: ATOM DENSITY = 0.0737747 atoms/A^3
Info: ADDED 0 IMPLICIT EXCLUSIONS
Info: NONBONDED TABLE R-SQUARED SPACING: 0.0625
Info: NONBONDED TABLE SIZE: 705 POINTS
Info: REMOVING COM VELOCITY -0.0737197 -0.17314 0.0521903
TCL: Running for 25000 steps
ETITLE: TS BOND ANGLE DIHED IMPRP ELECT VDW BOUNDARY MISC KINETIC TOTAL TEMP POTENTIAL TOTAL3 TEMPAVG PRESSURE GPRESSURE VOLUME PRESSAVG GPRESSAVG
ENERGY: 0 0.2231 0.5474 0.5487 0.0000 -22925.9736 3924.6852 0.0000 0.0000 2987.4835 -16012.4858 300.2537 -18999.9693 -16011.9053 300.2537 147.3038 176.3882 67814.5846 147.3038 176.3882
ENERGY: 5000 0.6038 0.8992 0.8252 0.0000 -23892.1151 4005.7876 0.0000 0.0000 297.1618 -19586.8374 29.8659 -19883.9992 -19585.4361 47.8644 -929.1190 -883.8483 49281.6393 2.0880 2.2058
ENERGY: 10000 0.8576 0.8994 0.7626 0.0000 -24119.4972 4204.2898 0.0000 0.0000 297.4364 -19615.2515 29.8935 -19912.6879 -19614.5898 30.2011 1.2191 36.9021 49007.2312 2.6331 2.7105
ENERGY: 15000 0.2729 0.7881 0.7444 0.0000 -24156.3030 4237.2005 0.0000 0.0000 299.0887 -19618.2086 30.0596 -19917.2972 -19617.5667 30.2888 212.8934 247.6980 48835.3056 4.5433 4.4873
ENERGY: 20000 0.4760 0.8356 1.0651 0.0000 -24195.9384 4253.3571 0.0000 0.0000 300.7691 -19639.4355 30.2285 -19940.2046 -19638.2977 30.1382 265.3946 318.4561 48679.1945 7.5332 7.3510
ENERGY: 25000 0.3603 0.8032 0.8654 0.0000 -24137.9040 4176.3812 0.0000 0.0000 296.3711 -19663.1228 29.7864 -19959.4939 -19662.3599 30.2664 -175.2345 -145.6440 48913.1362 5.8487 5.9297
TCL: Running 25000 steps at 60 kelvin.
TCL: Setting parameter langevinTemp to 60
TCL: Running for 25000 steps
ETITLE: TS BOND ANGLE DIHED IMPRP ELECT VDW BOUNDARY MISC KINETIC TOTAL TEMP POTENTIAL TOTAL3 TEMPAVG PRESSURE GPRESSURE VOLUME PRESSAVG GPRESSAVG
ENERGY: 25000 0.3603 0.8032 0.8654 0.0000 -24137.9040 4176.3812 0.0000 0.0000 296.2272 -19663.2667 29.7720 -19959.4939 -19662.6195 29.7720 -181.9151 -145.7317 48913.1362 -181.9151 -145.7317
ENERGY: 30000 0.9231 0.8928 0.8822 0.0000 -23615.0731 3949.2378 0.0000 0.0000 604.3675 -19058.7698 60.7413 -19663.1373 -19057.4949 57.1939 -661.9579 -616.5068 49374.0859 1.2834 1.3729
ENERGY: 35000 0.6023 1.3736 1.0189 0.0000 -23697.9726 3989.5892 0.0000 0.0000 590.1990 -19115.1895 59.3173 -19705.3885 -19113.5258 60.3282 -475.4128 -425.4121 49150.6349 2.9006 3.0385
ENERGY: 40000 0.4189 1.4988 0.8832 0.0000 -23710.1061 3988.0627 0.0000 0.0000 588.0140 -19131.2285 59.0977 -19719.2425 -19129.4477 60.3037 -466.6841 -438.2861 49125.3697 2.2772 2.3122
ENERGY: 45000 0.3823 0.9046 0.8632 0.0000 -23792.2356 4026.5177 0.0000 0.0000 609.6361 -19153.9318 61.2708 -19763.5679 -19152.5924 59.9648 -400.0558 -339.5387 48937.5747 4.9201 4.8598
ENERGY: 50000 0.5747 0.6849 0.9818 0.0000 -23922.6171 4185.1863 0.0000 0.0000 609.5665 -19125.6230 61.2638 -19735.1895 -19124.4227 60.3512 485.7190 544.7965 48696.9707 -0.0431 -0.1348
TCL: Running 25000 steps at 90 kelvin.
TCL: Setting parameter langevinTemp to 90
TCL: Running for 25000 steps
ETITLE: TS BOND ANGLE DIHED IMPRP ELECT VDW BOUNDARY MISC KINETIC TOTAL TEMP POTENTIAL TOTAL3 TEMPAVG PRESSURE GPRESSURE VOLUME PRESSAVG GPRESSAVG
ENERGY: 50000 0.5747 0.6849 0.9818 0.0000 -23922.6171 4185.1863 0.0000 0.0000 609.2634 -19125.9261 61.2333 -19735.1895 -19124.6926 61.2333 499.2528 544.6439 48696.9707 499.2528 544.6439
ENERGY: 55000 0.6372 2.6531 0.9112 0.0000 -23426.6688 3973.9227 0.0000 0.0000 875.0995 -18573.4452 87.9509 -19448.5446 -18572.3257 86.8416 84.9735 157.6859 48970.6224 1.3224 1.5591
ENERGY: 60000 0.6614 2.1526 1.6457 0.0000 -23312.0532 3791.1974 0.0000 0.0000 891.9946 -18624.4016 89.6489 -19516.3962 -18622.6122 89.6930 -1049.8670 -988.8768 49244.7995 -1.1363 -0.8046
ENERGY: 65000 0.2871 1.5206 1.2414 0.0000 -23506.2358 3985.6455 0.0000 0.0000 885.1215 -18632.4198 88.9581 -19517.5412 -18630.0389 90.3156 2.5313 36.2066 48803.5351 -1.6950 -1.9123
ENERGY: 70000 0.6877 2.0279 0.8929 0.0000 -23536.7886 3996.3095 0.0000 0.0000 884.0286 -18652.8420 88.8483 -19536.8706 -18650.9136 90.3323 -85.8691 -43.1143 48948.4422 0.1272 0.2013
ENERGY: 75000 0.7549 1.5372 1.4258 0.0000 -23748.2902 4175.5679 0.0000 0.0000 894.4012 -18674.6033 89.8908 -19569.0044 -18672.7264 90.1202 810.4141 843.2429 48562.0666 1.0532 1.0619
TCL: Running 25000 steps at 120 kelvin.
TCL: Setting parameter langevinTemp to 120
TCL: Running for 25000 steps
ETITLE: TS BOND ANGLE DIHED IMPRP ELECT VDW BOUNDARY MISC KINETIC TOTAL TEMP POTENTIAL TOTAL3 TEMPAVG PRESSURE GPRESSURE VOLUME PRESSAVG GPRESSAVG
ENERGY: 75000 0.7549 1.5372 1.4258 0.0000 -23748.2902 4175.5679 0.0000 0.0000 893.9534 -18675.0511 89.8458 -19569.0044 -18673.2507 89.8458 796.5256 842.9850 48562.0666 796.5256 842.9850
ENERGY: 80000 2.4880 2.4400 2.0251 0.0000 -23208.6015 3975.6045 0.0000 0.0000 1198.4062 -18027.6377 120.4445 -19226.0438 -18025.6337 117.5460 410.1828 514.0227 48896.8292 6.4059 6.6008
ENERGY: 85000 0.6873 1.8267 1.3501 0.0000 -23069.9316 3783.0140 0.0000 0.0000 1194.2806 -18088.7728 120.0298 -19283.0534 -18085.4561 119.2539 -505.8062 -460.1768 49017.4159 1.5333 1.7628
ENERGY: 90000 1.6270 1.9101 1.5363 0.0000 -23128.4077 3817.8683 0.0000 0.0000 1200.8556 -18104.6104 120.6906 -19305.4660 -18101.9848 120.1303 -556.7406 -501.1098 49370.3476 2.3928 2.6861
ENERGY: 95000 1.0453 3.6132 1.7282 0.0000 -23092.1943 3795.6525 0.0000 0.0000 1209.2858 -18080.8694 121.5379 -19290.1552 -18076.4822 120.7093 -595.0090 -547.2594 49306.9354 4.3194 4.6653
ENERGY: 100000 1.5350 2.4228 1.5371 0.0000 -23241.6829 3903.7685 0.0000 0.0000 1214.6262 -18117.7933 122.0746 -19332.4195 -18115.0104 120.2932 -45.6205 46.6089 48722.7619 -1.6662 -1.7136
TCL: Running 25000 steps at 150 kelvin.
TCL: Setting parameter langevinTemp to 150
TCL: Running for 25000 steps
ETITLE: TS BOND ANGLE DIHED IMPRP ELECT VDW BOUNDARY MISC KINETIC TOTAL TEMP POTENTIAL TOTAL3 TEMPAVG PRESSURE GPRESSURE VOLUME PRESSAVG GPRESSAVG
ENERGY: 100000 1.5350 2.4228 1.5371 0.0000 -23241.6829 3903.7685 0.0000 0.0000 1214.0319 -18118.3876 122.0149 -19332.4195 -18115.6100 122.0149 -11.0647 46.3351 48722.7619 -11.0647 46.3351
ENERGY: 105000 2.2069 3.0453 3.8422 0.0000 -22753.0938 3791.6425 0.0000 0.0000 1501.3719 -17450.9850 150.8937 -18952.3569 -17448.1288 145.6447 215.4233 270.1405 48802.0693 8.5734 9.0714
ENERGY: 110000 1.3267 2.1210 2.4132 0.0000 -22643.4938 3673.5188 0.0000 0.0000 1487.5588 -17476.5553 149.5054 -18964.1141 -17471.4837 149.6955 -431.6699 -383.1577 49190.1404 -0.5246 -0.0740
ENERGY: 115000 1.4139 1.9809 1.2153 0.0000 -22768.3768 3745.8256 0.0000 0.0000 1534.9177 -17483.0234 154.2652 -19017.9410 -17478.4881 150.2453 -132.7539 -92.5927 49013.4652 10.4118 10.1212
ENERGY: 120000 2.8259 3.3389 1.0233 0.0000 -22752.2494 3687.0730 0.0000 0.0000 1490.8268 -17567.1615 149.8339 -19057.9883 -17562.7842 150.0533 -569.9281 -533.5093 49098.9609 4.4143 4.3130
ENERGY: 125000 1.0646 5.1534 1.2200 0.0000 -22706.4250 3670.4510 0.0000 0.0000 1505.1049 -17523.4311 151.2689 -19028.5360 -17520.0039 150.0944 -508.3378 -471.5230 49083.8267 1.6665 1.6996
TCL: Running 50000 steps at 180 kelvin.
TCL: Setting parameter langevinTemp to 180
TCL: Running for 50000 steps
ETITLE: TS BOND ANGLE DIHED IMPRP ELECT VDW BOUNDARY MISC KINETIC TOTAL TEMP POTENTIAL TOTAL3 TEMPAVG PRESSURE GPRESSURE VOLUME PRESSAVG GPRESSAVG
ENERGY: 125000 1.0646 5.1534 1.2200 0.0000 -22706.4250 3670.4510 0.0000 0.0000 1504.3426 -17524.1934 151.1923 -19028.5360 -17521.2720 151.1923 -524.4380 -471.4055 49083.8267 -524.4380 -471.4055
ENERGY: 135000 0.8367 5.4856 3.4724 0.0000 -22125.3975 3501.7237 0.0000 0.0000 1781.8530 -16832.0261 179.0831 -18613.8791 -16828.0070 178.6844 -431.2135 -349.4662 48985.2356 4.9743 4.8580
ENERGY: 145000 2.1018 3.6776 2.1106 0.0000 -22063.0422 3500.7066 0.0000 0.0000 1782.1770 -16772.2686 179.1157 -18554.4456 -16768.5396 180.6355 -217.3825 -179.7130 48869.5479 5.6171 5.7183
ENERGY: 155000 1.3137 3.2848 3.3285 0.0000 -22318.5450 3656.2128 0.0000 0.0000 1761.8215 -16892.5837 177.0699 -18654.4052 -16888.2095 179.8401 192.9617 248.9749 48824.7327 -0.2230 0.1658
ENERGY: 165000 1.3891 5.1077 2.0409 0.0000 -22172.9601 3548.0541 0.0000 0.0000 1792.3743 -16823.9939 180.1406 -18616.3682 -16819.2320 180.2707 -208.7525 -115.2805 49113.1558 1.9295 2.0858
ENERGY: 175000 1.1028 3.0190 2.5031 0.0000 -22239.6543 3548.8627 0.0000 0.0000 1760.6678 -16923.4988 176.9539 -18684.1666 -16918.7343 179.3338 -253.9123 -244.7225 48843.1041 0.5381 -0.0386
TCL: Running 50000 steps at 210 kelvin.
TCL: Setting parameter langevinTemp to 210
TCL: Running for 50000 steps
ETITLE: TS BOND ANGLE DIHED IMPRP ELECT VDW BOUNDARY MISC KINETIC TOTAL TEMP POTENTIAL TOTAL3 TEMPAVG PRESSURE GPRESSURE VOLUME PRESSAVG GPRESSAVG
ENERGY: 175000 1.1028 3.0190 2.5031 0.0000 -22239.6543 3548.8627 0.0000 0.0000 1759.6964 -16924.4702 176.8563 -18684.1666 -16920.9819 176.8563 -302.6896 -245.5054 48843.1041 -302.6896 -245.5054
ENERGY: 185000 1.2895 6.5896 1.3822 0.0000 -20968.6319 3156.3409 0.0000 0.0000 2028.5638 -15774.4658 203.8785 -17803.0296 -15771.3803 210.1362 -408.2526 -342.4400 49297.2977 -1.1985 -1.2284
ENERGY: 195000 0.6491 3.9946 2.8292 0.0000 -21112.1625 3251.1236 0.0000 0.0000 2083.7377 -15769.8282 209.4237 -17853.5659 -15761.2506 210.1166 74.0971 191.3559 48834.4584 4.8349 4.7070
ENERGY: 205000 0.7296 5.8252 1.1550 0.0000 -21275.2184 3365.4680 0.0000 0.0000 2080.0735 -15821.9670 209.0554 -17902.0405 -15817.1420 209.8847 750.9274 827.9279 48316.3270 0.6285 0.7417
ENERGY: 215000 1.6369 6.1689 3.0426 0.0000 -20967.5711 3153.7295 0.0000 0.0000 2103.7207 -15699.2726 211.4321 -17802.9932 -15693.8488 209.9464 -340.0145 -276.8972 49182.6279 1.1226 0.6168
ENERGY: 225000 2.0242 4.5283 5.3209 0.0000 -20983.6903 3183.6972 0.0000 0.0000 2090.9258 -15697.1938 210.1461 -17788.1196 -15691.4888 210.1270 -184.6516 -133.5952 48967.0322 1.3368 1.3817
TCL: Running 50000 steps at 240 kelvin.
TCL: Setting parameter langevinTemp to 240
TCL: Running for 50000 steps
ETITLE: TS BOND ANGLE DIHED IMPRP ELECT VDW BOUNDARY MISC KINETIC TOTAL TEMP POTENTIAL TOTAL3 TEMPAVG PRESSURE GPRESSURE VOLUME PRESSAVG GPRESSAVG
ENERGY: 225000 2.0242 4.5283 5.3209 0.0000 -20983.6903 3183.6972 0.0000 0.0000 2089.8554 -15698.2643 210.0386 -17788.1196 -15695.0066 210.0386 -211.8420 -132.3070 48967.0322 -211.8420 -132.3070
ENERGY: 235000 1.3674 4.2030 2.3024 0.0000 -20059.8381 2914.7915 0.0000 0.0000 2381.3495 -14755.8244 239.3348 -17137.1739 -14750.7643 239.4391 98.0013 212.1428 48778.5392 2.1520 1.6668
ENERGY: 245000 2.2059 4.6101 3.4090 0.0000 -20209.7844 3008.0000 0.0000 0.0000 2412.9506 -14778.6088 242.5109 -17191.5594 -14774.2589 240.0690 175.9536 257.6329 49584.9266 2.8795 2.9512
ENERGY: 255000 3.2890 3.6024 4.0502 0.0000 -19993.8575 2876.9019 0.0000 0.0000 2366.1213 -14739.8927 237.8044 -17106.0140 -14733.5318 240.3499 -94.2843 -18.7471 48848.9015 6.8450 7.0337
ENERGY: 265000 1.8971 2.3448 1.9480 0.0000 -20216.7287 2991.5063 0.0000 0.0000 2383.8799 -14835.1526 239.5892 -17219.0325 -14829.2696 239.5926 142.6380 256.6313 49190.3033 5.6269 6.1944
ENERGY: 275000 3.0444 5.7854 3.4383 0.0000 -20141.8038 2991.1294 0.0000 0.0000 2463.8360 -14674.5702 247.6251 -17138.4062 -14668.7388 241.9951 277.0352 341.6761 49326.5777 1.5114 1.3966
TCL: Running 50000 steps at 270 kelvin.
TCL: Setting parameter langevinTemp to 270
TCL: Running for 50000 steps
ETITLE: TS BOND ANGLE DIHED IMPRP ELECT VDW BOUNDARY MISC KINETIC TOTAL TEMP POTENTIAL TOTAL3 TEMPAVG PRESSURE GPRESSURE VOLUME PRESSAVG GPRESSAVG
ENERGY: 275000 3.0444 5.7854 3.4383 0.0000 -20141.8038 2991.1294 0.0000 0.0000 2462.6528 -14675.7534 247.5061 -17138.4062 -14672.1545 247.5061 265.9522 342.5997 49326.5777 265.9522 342.5997
ENERGY: 285000 3.4728 6.6691 3.8572 0.0000 -18886.2162 2538.2479 0.0000 0.0000 2673.9321 -13660.0370 268.7405 -16333.9690 -13656.3808 271.1030 -622.6101 -576.0509 50936.7347 1.9856 2.6678
ENERGY: 295000 0.9066 5.0050 4.4018 0.0000 -19027.7554 2630.9819 0.0000 0.0000 2682.9451 -13703.5150 269.6464 -16386.4601 -13696.7942 269.0885 -213.3104 -92.0879 50195.6594 0.8937 0.8290
ENERGY: 305000 2.1252 3.0349 4.0176 0.0000 -19071.5136 2669.5984 0.0000 0.0000 2705.8224 -13686.9151 271.9456 -16392.7376 -13682.0875 269.8177 188.2882 236.6525 50104.1287 2.7906 3.1552
ENERGY: 315000 4.4815 3.2007 3.0167 0.0000 -19220.2990 2761.3083 0.0000 0.0000 2735.2853 -13713.0066 274.9068 -16448.2919 -13706.7777 269.3220 118.9627 252.5143 50528.0495 4.5699 4.3309
ENERGY: 325000 3.2972 6.6315 2.1473 0.0000 -19174.0287 2624.8749 0.0000 0.0000 2627.2212 -13909.8565 264.0459 -16537.0777 -13906.3542 270.2492 -503.3548 -456.5074 50327.2262 3.0410 3.0985
TCL: Running 1000000 steps at 300 kelvin.
TCL: Setting parameter langevinTemp to 300
TCL: Running for 1000000 steps
ETITLE: TS BOND ANGLE DIHED IMPRP ELECT VDW BOUNDARY MISC KINETIC TOTAL TEMP POTENTIAL TOTAL3 TEMPAVG PRESSURE GPRESSURE VOLUME PRESSAVG GPRESSAVG
ENERGY: 325000 3.2972 6.6315 2.1473 0.0000 -19174.0287 2624.8749 0.0000 0.0000 2625.9045 -13911.1732 263.9136 -16537.0777 -13906.6868 263.9136 -544.0731 -457.5382 50327.2262 -544.0731 -457.5382
ENERGY: 525000 2.1186 5.9098 6.5328 0.0000 -18101.3112 2437.1046 0.0000 0.0000 3032.0572 -12617.5881 304.7335 -15649.6454 -12612.9084 300.4045 139.6639 219.7887 51556.7428 7.1579 7.2612
ENERGY: 725000 0.9626 4.3009 3.6131 0.0000 -18099.7648 2462.0680 0.0000 0.0000 2929.6498 -12699.1704 294.4411 -15628.8202 -12693.3155 300.6581 189.3454 308.2835 51540.0190 -0.9590 -0.4511
ENERGY: 925000 1.2892 3.9691 5.6863 0.0000 -18055.0700 2321.6906 0.0000 0.0000 2987.0047 -12735.4301 300.2055 -15722.4348 -12729.0080 300.4007 -612.2133 -520.9233 51743.2757 3.5959 4.0870
ENERGY: 1125000 2.2813 6.5845 3.5233 0.0000 -18230.0529 2556.0698 0.0000 0.0000 3019.6195 -12641.9745 303.4835 -15661.5940 -12638.5248 300.7452 629.9685 729.3288 51466.2742 3.3167 2.9809
ENERGY: 1325000 1.2591 6.0104 5.8036 0.0000 -18146.7669 2415.4563 0.0000 0.0000 2975.6056 -12742.6319 299.0599 -15718.2375 -12735.8411 298.3112 -153.9707 -100.8892 51468.6785 -3.6318 -3.8477
TCL: Exiting due to exit command.
