Info: SIMULATION PARAMETERS:
Info: TIMESTEP               2
Info: NUMBER OF STEPS        0
Info: STEPS PER CYCLE        10
Info: PERIODIC CELL BASIS 1  31.9782 0 0
Info: PERIODIC CELL BASIS 2  0 30.8156 0
Info: PERIODIC CELL BASIS 3  0 0 31.7277
Info: PERIODIC CELL CENTER   0 0 0
Info: WRAPPING WATERS AROUND PERIODIC BOUNDARIES ON OUTPUT.
Info: WRAPPING ALL CLUSTERS AROUND PERIODIC BOUNDARIES ON OUTPUT.
Info: FIRST LDB TIMESTEP     50
Info: LAST LDB TIMESTEP     -1
Info: HOM BACKGROUND SCALING 1
Info: PME BACKGROUND SCALING 1
Info: MIN ATOMS PER PATCH    40
Info: EMPTY PATCH LOAD       40 ATOMS
Info: VELOCITY FILE          mobley_6714389_equil.vel
Info: CENTER OF MASS MOVING INITIALLY? NO
Info: DIELECTRIC             1
Info: EXCLUDE                SCALED ONE-FOUR
Info: 1-4 ELECTROSTATICS SCALED BY 0.833333
Info: MODIFIED 1-4 VDW PARAMETERS WILL BE USED
Info: DCD FILENAME           mobley_6714389_prod.dcd
Info: DCD FREQUENCY          100000
Info: DCD FIRST STEP         100000
Info: DCD FILE WILL CONTAIN UNIT CELL DATA
Info: XST FILENAME           mobley_6714389_prod.xst
Info: XST FREQUENCY          100000
Info: NO VELOCITY DCD OUTPUT
Info: NO FORCE DCD OUTPUT
Info: OUTPUT FILENAME        mobley_6714389_prod
Info: BINARY OUTPUT FILES WILL BE USED
Info: RESTART FILENAME       mobley_6714389_prod.restart
Info: RESTART FREQUENCY      100000
Info: BINARY RESTART FILES WILL BE USED
Info: CUTOFF                 9
Info: PAIRLIST DISTANCE      11
Info: PAIRLIST SHRINK RATE   0.01
Info: PAIRLIST GROW RATE     0.01
Info: PAIRLIST TRIGGER       0.3
Info: PAIRLISTS PER CYCLE    2
Info: PAIRLISTS ENABLED
Info: MARGIN                 2
Info: HYDROGEN GROUP CUTOFF  2.5
Info: PATCH DIMENSION        15.5
Info: ENERGY OUTPUT STEPS    100000
Info: ENERGY EVALUATION STEPS    100000
Info: OUTPUT ENERGY PRECISION 4
Info: CROSSTERM ENERGY INCLUDED IN DIHEDRAL
Info: TIMING OUTPUT STEPS    1000000
Info: PRESSURE OUTPUT STEPS  100000
Info: ALCHEMICAL FEP ON
Info: FEP CURRENT LAMBDA VALUE     1
Info: FEP COMPARISON LAMBDA VALUE  0.95
Info: FEP INTRA-ALCHEMICAL NON-BONDED INTERACTIONS WILL BE RETAINED
Info: FEP INTRA-ALCHEMICAL BONDED INTERACTIONS WILL BE RETAINED
Info: FEP VDW SHIFTING COEFFICIENT 5
Info: FEP ELEC. ACTIVE FOR ANNIHILATED PARTICLES BETWEEN LAMBDA = 0 AND LAMBDA = 0.5
Info: FEP ELEC. ACTIVE FOR EXNIHILATED PARTICLES BETWEEN LAMBDA = 0.5 AND LAMBDA = 1
Info: FEP VDW ACTIVE FOR ANNIHILATED PARTICLES BETWEEN LAMBDA = 0 AND LAMBDA = 1
Info: FEP VDW ACTIVE FOR EXNIHILATED PARTICLES BETWEEN LAMBDA = 0 AND LAMBDA = 1
Info: FEP BOND ACTIVE FOR ANNIHILATED PARTICLES BETWEEN LAMBDA = 1 AND LAMBDA = 1
Info: FEP BOND ACTIVE FOR EXNIHILATED PARTICLES BETWEEN LAMBDA = 0 AND LAMBDA = 0
Info: LANGEVIN DYNAMICS ACTIVE
Info: LANGEVIN TEMPERATURE   300
Info: LANGEVIN USING BBK INTEGRATOR
Info: LANGEVIN DAMPING COEFFICIENT IS 1 INVERSE PS
Info: LANGEVIN DYNAMICS APPLIED TO HYDROGENS
Info: LANGEVIN PISTON PRESSURE CONTROL ACTIVE
Info:        TARGET PRESSURE IS 1.01325 BAR
Info:     OSCILLATION PERIOD IS 50 FS
Info:             DECAY TIME IS 25 FS
Info:     PISTON TEMPERATURE IS 300 K
Info:       PRESSURE CONTROL IS GROUP-BASED
Info:    INITIAL STRAIN RATE IS -0.000394661 -0.000394661 -0.000394661
Info:       CELL FLUCTUATION IS ISOTROPIC
Info: PARTICLE MESH EWALD (PME) ACTIVE
Info: PME TOLERANCE               1e-06
Info: PME EWALD COEFFICIENT       0.348832
Info: PME INTERPOLATION ORDER     4
Info: PME GRID DIMENSIONS         32 32 32
Info: PME MAXIMUM GRID SPACING    1
Info: PME CALCULATION WILL BE PERFORMED ON GPU
Info: FULL ELECTROSTATIC EVALUATION FREQUENCY      2
Info: USING VERLET I (r-RESPA) MTS SCHEME.
Info: C1 SPLITTING OF LONG RANGE ELECTROSTATICS
Info: PLACING ATOMS IN PATCHES BY HYDROGEN GROUPS
Info: RIGID BONDS TO HYDROGEN : ALL
Info:         ERROR TOLERANCE : 1e-08
Info:          MAX ITERATIONS : 100
Info: RIGID WATER USING SETTLE ALGORITHM
Info: RANDOM NUMBER SEED     1742499802
Info: USE HYDROGEN BONDS?    NO
Info: Using AMBER format force field!
Info: AMBER PARM FILE        mobley_6714389.prmtop
Info: COORDINATE PDB         mobley_6714389.pdb
Info: Exclusions will be read from PARM file!
Info: SCNB (VDW SCALING)     2
Info: USING ARITHMETIC MEAN TO COMBINE L-J SIGMA PARAMETERS
Info: BINARY COORDINATES     mobley_6714389_equil.coor
Info: SUMMARY OF PARAMETERS:
Info: 5 BONDS
Info: 4 ANGLES
Info:   4 HARMONIC
Info:   0 COSINE-BASED
Info: 1 DIHEDRAL
Info: 0 IMPROPER
Info: 0 CROSSTERM
Info: 0 VDW
Info: 21 VDW_PAIRS
Info: 0 NBTHOLE_PAIRS
Info: To read alchdata from file: mobley_6714389.pdb
Info: To read alchflag data from column: 5
Info: STRUCTURE SUMMARY:
Info: 2995 ATOMS
Info: 2994 BONDS
Info: 9 ANGLES
Info: 6 DIHEDRALS
Info: 0 IMPROPERS
Info: 0 CROSSTERMS
Info: 3009 EXCLUSIONS
Info: 2993 RIGID BONDS
Info: ALCH: 0 ATOMS TO DISAPPEAR IN FINAL STATE
Info: ALCH: 7 ATOMS TO APPEAR IN FINAL STATE
Info: 5992 DEGREES OF FREEDOM
Info: 998 HYDROGEN GROUPS
Info: 4 ATOMS IN LARGEST HYDROGEN GROUP
Info: 998 MIGRATION GROUPS
Info: 4 ATOMS IN LARGEST MIGRATION GROUP
Info: TOTAL MASS = 17975 amu
Info: TOTAL CHARGE = 0.000100093 e
Info: MASS DENSITY = 0.954694 g/cm^3
Info: ATOM DENSITY = 0.0957928 atoms/A^3
Info: ADDED 0 IMPLICIT EXCLUSIONS
Info: NONBONDED TABLE R-SQUARED SPACING: 0.0625
Info: NONBONDED TABLE SIZE: 705 POINTS
Info: REMOVING COM VELOCITY -0.0396627 -0.283698 0.108557
Info: Use 3D box decompostion in PME FFT.
Info: Updated CUDA force table with 4096 elements.
Info: Updated CUDA LJ table with 6 x 6 elements.
Info: Found 10 unique exclusion lists needing 12 bytes
TCL: Running for 1500000 steps
ETITLE: TS BOND ANGLE DIHED IMPRP ELECT VDW BOUNDARY MISC KINETIC TOTAL TEMP POTENTIAL TOTALAVG TEMPAVG PRESSURE GPRESSURE VOLUME PRESSAVG GPRESSAVG
ENERGY: 0 0.5885 2.3508 0.1882 0.0000 -10745.6847 1486.9976 0.0000 0.0000 1752.3198 -7503.2399 294.3282 -9255.5597 -7503.2399 294.3282 270.0910 359.7300 31265.3941 270.0910 359.7300
ENERGY: 300000 1.3050 2.2269 0.4389 0.0000 -10972.7524 1548.4641 0.0000 0.0000 1802.4042 -7617.9134 302.7407 -9420.3176 -7611.0590 300.5745 725.0289 759.4898 30515.5492 407.8092 445.5173
ENERGY: 600000 0.0886 1.6355 0.9003 0.0000 -10889.0062 1489.1373 0.0000 0.0000 1757.5670 -7639.6775 295.2096 -9397.2445 -7614.0751 298.5315 115.7701 116.7259 31024.8576 278.5625 332.1809
ENERGY: 900000 0.0570 1.0308 0.0204 0.0000 -10849.0282 1476.3003 0.0000 0.0000 1747.9462 -7623.6735 293.5936 -9371.6197 -7621.6264 298.9018 159.6859 178.8798 30899.9483 179.4021 227.7985
ENERGY: 1200000 1.3582 1.5353 0.4108 0.0000 -10986.0924 1528.1617 0.0000 0.0000 1815.9706 -7638.6557 305.0194 -9454.6263 -7616.2422 299.9079 233.5622 316.8016 30972.7194 132.9278 189.2646
ENERGY: 1500000 0.4604 5.7626 0.3062 0.0000 -10904.4856 1473.9227 0.0000 0.0000 1758.2640 -7665.7698 295.3267 -9424.0338 -7611.7763 300.5149 -31.4127 23.8267 30891.6168 98.4979 159.3642
TCL: Running FEP window   2: Lambda1 0.95   Lambda2 0.8999999999999999 [dLambda -0.050000000000000044]
TCL: Setting parameter firsttimestep to 0
TCL: Setting parameter alchLambda to 0.95
Info: NONBONDED TABLE R-SQUARED SPACING: 0.0625
Info: NONBONDED TABLE SIZE: 705 POINTS
TCL: Setting parameter alchLambda2 to 0.8999999999999999
Info: NONBONDED TABLE R-SQUARED SPACING: 0.0625
Info: NONBONDED TABLE SIZE: 705 POINTS
TCL: Running for 1500000 steps
ETITLE: TS BOND ANGLE DIHED IMPRP ELECT VDW BOUNDARY MISC KINETIC TOTAL TEMP POTENTIAL TOTALAVG TEMPAVG PRESSURE GPRESSURE VOLUME PRESSAVG GPRESSAVG
ENERGY: 0 0.4604 5.7626 0.3062 0.0000 -10903.2669 1473.6929 0.0000 0.0000 1757.3473 -7665.6976 295.1727 -9423.0448 -7665.6976 295.1727 -51.8326 20.6004 30891.6168 -51.8326 20.6004
ENERGY: 300000 0.1087 4.5489 0.1673 0.0000 -11009.9620 1563.2236 0.0000 0.0000 1784.1459 -7657.7676 299.6739 -9441.9135 -7659.7106 297.3547 538.5141 617.4911 30942.5117 -5.8084 56.5865
ENERGY: 600000 2.4725 2.3579 0.0333 0.0000 -10765.5074 1430.8340 0.0000 0.0000 1860.3951 -7469.4145 312.4811 -9329.8096 -7618.6891 298.8671 38.4253 103.6737 30661.1009 -179.9521 -109.3905
ENERGY: 900000 0.0500 2.6508 0.0890 0.0000 -10902.5379 1478.5132 0.0000 0.0000 1821.9221 -7599.3127 306.0190 -9421.2348 -7621.9328 300.1055 436.0821 553.8407 29995.5976 -69.3120 -1.2037
ENERGY: 1200000 0.1051 2.8242 0.1034 0.0000 -10890.5399 1468.0973 0.0000 0.0000 1725.0393 -7694.3706 289.7461 -9419.4099 -7635.1130 299.2017 -31.5275 90.8815 30609.3931 -154.5422 -88.8720
ENERGY: 1500000 0.0119 2.0010 0.5490 0.0000 -10827.7280 1502.4343 0.0000 0.0000 1806.5325 -7516.1993 303.4341 -9322.7318 -7628.7813 298.7759 295.8858 396.2864 31105.9886 -165.8417 -89.5653
TCL: Running FEP window   3: Lambda1 0.8999999999999999 Lambda2 0.8499999999999999 [dLambda -0.050000000000000044]
TCL: Setting parameter firsttimestep to 0
TCL: Setting parameter alchLambda to 0.8999999999999999
Info: NONBONDED TABLE R-SQUARED SPACING: 0.0625
Info: NONBONDED TABLE SIZE: 705 POINTS
TCL: Setting parameter alchLambda2 to 0.8499999999999999
Info: NONBONDED TABLE R-SQUARED SPACING: 0.0625
Info: NONBONDED TABLE SIZE: 705 POINTS
TCL: Running for 1500000 steps
ETITLE: TS BOND ANGLE DIHED IMPRP ELECT VDW BOUNDARY MISC KINETIC TOTAL TEMP POTENTIAL TOTALAVG TEMPAVG PRESSURE GPRESSURE VOLUME PRESSAVG GPRESSAVG
ENERGY: 0 0.0119 2.0010 0.5490 0.0000 -10825.7871 1501.6370 0.0000 0.0000 1805.6103 -7515.9779 303.2792 -9321.5882 -7515.9779 303.2792 296.9483 386.3909 31105.9886 296.9483 386.3909
ENERGY: 300000 0.0016 2.9338 0.3687 0.0000 -10883.4435 1446.1663 0.0000 0.0000 1772.5485 -7661.4245 297.7260 -9433.9730 -7611.7651 300.2094 -251.3827 -224.9590 30923.5962 -339.5004 -254.1944
ENERGY: 600000 0.2022 2.3893 0.0341 0.0000 -11031.2149 1516.9274 0.0000 0.0000 1802.1152 -7709.5467 302.6921 -9511.6620 -7641.5946 300.5404 123.3933 200.0930 30727.5589 -148.0278 -56.0205
ENERGY: 900000 0.0824 3.7247 0.2768 0.0000 -10803.0655 1428.4810 0.0000 0.0000 1823.6045 -7546.8960 306.3016 -9370.5005 -7631.8150 300.9103 -39.2716 8.2780 30720.0408 -93.2741 -4.6009
ENERGY: 1200000 1.7228 2.5983 0.2805 0.0000 -10972.6525 1547.5876 0.0000 0.0000 1783.9247 -7636.5386 299.6368 -9420.4633 -7652.2810 299.7405 690.8875 753.4685 30632.6956 -24.3016 60.3323
ENERGY: 1500000 0.0492 2.8079 1.8402 0.0000 -11056.6722 1576.7490 0.0000 0.0000 1776.7056 -7698.5203 298.4242 -9475.2259 -7659.6986 299.9055 593.8294 663.8613 30875.1742 47.5868 128.8907
TCL: Running FEP window   4: Lambda1 0.8499999999999999 Lambda2 0.7999999999999998 [dLambda -0.050000000000000044]
TCL: Setting parameter firsttimestep to 0
TCL: Setting parameter alchLambda to 0.8499999999999999
Info: NONBONDED TABLE R-SQUARED SPACING: 0.0625
Info: NONBONDED TABLE SIZE: 705 POINTS
TCL: Setting parameter alchLambda2 to 0.7999999999999998
Info: NONBONDED TABLE R-SQUARED SPACING: 0.0625
Info: NONBONDED TABLE SIZE: 705 POINTS
TCL: Running for 1500000 steps
ETITLE: TS BOND ANGLE DIHED IMPRP ELECT VDW BOUNDARY MISC KINETIC TOTAL TEMP POTENTIAL TOTALAVG TEMPAVG PRESSURE GPRESSURE VOLUME PRESSAVG GPRESSAVG
ENERGY: 0 0.0492 2.8079 1.8402 0.0000 -11055.2406 1575.9027 0.0000 0.0000 1775.7863 -7698.8544 298.2698 -9474.6406 -7698.8544 298.2698 568.7413 650.2886 30875.1742 568.7413 650.2886
ENERGY: 300000 1.3722 2.2961 1.0288 0.0000 -10934.0008 1550.5090 0.0000 0.0000 1824.1013 -7554.6933 306.3850 -9378.7946 -7628.2275 303.4753 967.9648 1038.8037 30146.9337 491.6104 567.6221
ENERGY: 600000 0.1698 3.5015 0.3588 0.0000 -10754.7643 1383.1352 0.0000 0.0000 1775.2713 -7592.3278 298.1833 -9367.5990 -7622.4305 301.9462 -406.7569 -331.5549 30568.3804 200.5873 275.2349
ENERGY: 900000 0.2507 2.2843 1.0434 0.0000 -10839.4120 1376.0270 0.0000 0.0000 1778.2297 -7681.5768 298.6802 -9459.8065 -7623.1632 301.5124 -1038.4109 -966.9078 31343.7541 88.1827 166.8524
ENERGY: 1200000 0.1913 4.2817 0.8287 0.0000 -10849.2081 1403.3526 0.0000 0.0000 1850.9575 -7589.5965 310.8959 -9440.5539 -7625.0737 302.1356 -465.9094 -428.8402 30541.0381 217.1573 287.0549
ENERGY: 1500000 0.0957 1.5953 0.1929 0.0000 -10909.8689 1435.0766 0.0000 0.0000 1702.9972 -7769.9113 286.0438 -9472.9085 -7636.4325 301.4746 -508.2888 -407.4457 30686.3915 206.2318 276.2419
TCL: Running FEP window   5: Lambda1 0.7999999999999998 Lambda2 0.7499999999999998 [dLambda -0.050000000000000044]
TCL: Setting parameter firsttimestep to 0
TCL: Setting parameter alchLambda to 0.7999999999999998
Info: NONBONDED TABLE R-SQUARED SPACING: 0.0625
Info: NONBONDED TABLE SIZE: 705 POINTS
TCL: Setting parameter alchLambda2 to 0.7499999999999998
Info: NONBONDED TABLE R-SQUARED SPACING: 0.0625
Info: NONBONDED TABLE SIZE: 705 POINTS
TCL: Running for 1500000 steps
ETITLE: TS BOND ANGLE DIHED IMPRP ELECT VDW BOUNDARY MISC KINETIC TOTAL TEMP POTENTIAL TOTALAVG TEMPAVG PRESSURE GPRESSURE VOLUME PRESSAVG GPRESSAVG
ENERGY: 0 0.0957 1.5953 0.1929 0.0000 -10908.3573 1434.0227 0.0000 0.0000 1702.1130 -7770.3377 285.8953 -9472.4508 -7770.3377 285.8953 -496.8504 -417.7216 30686.3915 -496.8504 -417.7216
ENERGY: 300000 0.0899 0.5569 0.2238 0.0000 -10886.6230 1431.4271 0.0000 0.0000 1838.4528 -7615.8724 308.7956 -9454.3252 -7664.1741 298.2437 -393.6724 -301.0963 30855.6440 69.0643 130.3975
ENERGY: 600000 1.0619 3.3543 0.1848 0.0000 -10911.5975 1505.4930 0.0000 0.0000 1806.0889 -7595.4147 303.3596 -9401.5036 -7629.2983 299.4550 361.8433 463.4576 30352.4048 55.1053 128.7819
ENERGY: 900000 0.8345 2.9476 0.4528 0.0000 -10832.2139 1398.3804 0.0000 0.0000 1865.9087 -7563.6900 313.4072 -9429.5986 -7636.9497 299.4793 -768.9190 -708.4785 31340.3175 -49.1536 27.9572
ENERGY: 1200000 0.0007 0.6528 0.0792 0.0000 -10912.3852 1462.1402 0.0000 0.0000 1795.4543 -7654.0580 301.5733 -9449.5123 -7621.8049 300.6160 -264.9967 -183.0769 31018.4498 93.8065 168.0730
ENERGY: 1500000 1.9515 3.6763 0.1947 0.0000 -10819.3869 1408.8693 0.0000 0.0000 1863.4645 -7541.2305 312.9967 -9404.6950 -7624.9968 300.3515 -449.4756 -382.7913 30820.3838 48.4544 123.0200
TCL: Running FEP window   6: Lambda1 0.7499999999999998 Lambda2 0.6999999999999997 [dLambda -0.050000000000000044]
TCL: Setting parameter firsttimestep to 0
TCL: Setting parameter alchLambda to 0.7499999999999998
Info: NONBONDED TABLE R-SQUARED SPACING: 0.0625
Info: NONBONDED TABLE SIZE: 705 POINTS
TCL: Setting parameter alchLambda2 to 0.6999999999999997
Info: NONBONDED TABLE R-SQUARED SPACING: 0.0625
Info: NONBONDED TABLE SIZE: 705 POINTS
TCL: Running for 1500000 steps
ETITLE: TS BOND ANGLE DIHED IMPRP ELECT VDW BOUNDARY MISC KINETIC TOTAL TEMP POTENTIAL TOTALAVG TEMPAVG PRESSURE GPRESSURE VOLUME PRESSAVG GPRESSAVG
ENERGY: 0 1.9515 3.6763 0.1947 0.0000 -10818.4764 1409.0067 0.0000 0.0000 1862.5807 -7541.0663 312.8482 -9403.6471 -7541.0663 312.8482 -458.1569 -381.0535 30820.3838 -458.1569 -381.0535
ENERGY: 300000 0.2124 1.8966 0.1442 0.0000 -10934.4156 1482.1819 0.0000 0.0000 1842.8756 -7607.1049 309.5384 -9449.9805 -7578.4434 305.1433 183.0165 205.3805 30660.3960 -304.5062 -269.4694
ENERGY: 600000 0.0991 2.0959 0.3790 0.0000 -10951.9056 1506.3076 0.0000 0.0000 1795.3883 -7647.6357 301.5622 -9443.0240 -7604.1017 303.3231 340.3322 368.8843 30326.9812 -118.8744 -75.6885
ENERGY: 900000 0.0189 3.8460 0.0597 0.0000 -10872.8888 1427.0104 0.0000 0.0000 1782.5785 -7659.3754 299.4106 -9441.9539 -7610.9652 302.0974 -212.8902 -172.0419 30543.4087 -186.7540 -145.2571
ENERGY: 1200000 0.1158 2.8126 0.5377 0.0000 -11066.8213 1587.0469 0.0000 0.0000 1756.5178 -7719.7904 295.0334 -9476.3082 -7619.8383 300.9632 511.8944 588.1755 30999.1934 -171.0971 -127.7952
ENERGY: 1500000 0.2776 2.4274 0.3249 0.0000 -10717.2389 1365.0597 0.0000 0.0000 1809.6586 -7539.4907 303.9591 -9349.1493 -7617.7208 301.1084 -786.1296 -803.6611 31212.6777 -174.0864 -126.7212
TCL: Running FEP window   7: Lambda1 0.6999999999999997 Lambda2 0.6499999999999997 [dLambda -0.050000000000000044]
TCL: Setting parameter firsttimestep to 0
TCL: Setting parameter alchLambda to 0.6999999999999997
Info: NONBONDED TABLE R-SQUARED SPACING: 0.0625
Info: NONBONDED TABLE SIZE: 705 POINTS
TCL: Setting parameter alchLambda2 to 0.6499999999999997
Info: NONBONDED TABLE R-SQUARED SPACING: 0.0625
Info: NONBONDED TABLE SIZE: 705 POINTS
TCL: Running for 1500000 steps
ETITLE: TS BOND ANGLE DIHED IMPRP ELECT VDW BOUNDARY MISC KINETIC TOTAL TEMP POTENTIAL TOTALAVG TEMPAVG PRESSURE GPRESSURE VOLUME PRESSAVG GPRESSAVG
ENERGY: 0 0.2776 2.4274 0.3249 0.0000 -10716.7449 1364.8650 0.0000 0.0000 1808.7126 -7540.1374 303.8003 -9348.8500 -7540.1374 303.8003 -874.8836 -807.6658 31212.6777 -874.8836 -807.6658
ENERGY: 300000 1.2375 0.8592 1.0017 0.0000 -10852.7993 1435.5172 0.0000 0.0000 1802.6910 -7611.4927 302.7888 -9414.1837 -7613.2550 301.2165 -247.0069 -214.8502 30758.8325 -347.7695 -277.4362
ENERGY: 600000 0.1414 2.7334 0.0995 0.0000 -10932.5580 1480.8233 0.0000 0.0000 1768.6101 -7680.1502 297.0645 -9448.7604 -7623.0053 301.3454 14.6511 45.3652 30740.4204 -108.8748 -50.6836
ENERGY: 900000 0.0323 2.7208 0.0920 0.0000 -10858.9663 1424.7788 0.0000 0.0000 1760.7990 -7670.5434 295.7524 -9431.3424 -7627.5320 300.5550 -750.6674 -714.6088 31707.7596 -226.5755 -176.6885
ENERGY: 1200000 0.1744 2.6532 0.5979 0.0000 -10853.1154 1453.6492 0.0000 0.0000 1830.7705 -7565.2703 307.5052 -9396.0408 -7625.1751 301.1794 -110.5221 12.4342 30978.3508 -254.3887 -192.2830
ENERGY: 1500000 0.0646 4.7715 0.8602 0.0000 -10772.4350 1391.2564 0.0000 0.0000 1813.8328 -7561.6495 304.6603 -9375.4823 -7620.8512 301.5971 -395.2720 -285.1162 30376.4795 -223.6639 -158.8860
TCL: Running FEP window   8: Lambda1 0.6499999999999997 Lambda2 0.5999999999999996 [dLambda -0.050000000000000044]
TCL: Setting parameter firsttimestep to 0
TCL: Setting parameter alchLambda to 0.6499999999999997
Info: NONBONDED TABLE R-SQUARED SPACING: 0.0625
Info: NONBONDED TABLE SIZE: 705 POINTS
TCL: Setting parameter alchLambda2 to 0.5999999999999996
Info: NONBONDED TABLE R-SQUARED SPACING: 0.0625
Info: NONBONDED TABLE SIZE: 705 POINTS
TCL: Running for 1500000 steps
ETITLE: TS BOND ANGLE DIHED IMPRP ELECT VDW BOUNDARY MISC KINETIC TOTAL TEMP POTENTIAL TOTALAVG TEMPAVG PRESSURE GPRESSURE VOLUME PRESSAVG GPRESSAVG
ENERGY: 0 0.0646 4.7715 0.8602 0.0000 -10771.2890 1391.1389 0.0000 0.0000 1812.9133 -7561.5404 304.5058 -9374.4538 -7561.5404 304.5058 -372.1187 -286.7742 30376.4795 -372.1187 -286.7742
ENERGY: 300000 0.3065 3.0036 0.0877 0.0000 -10905.8801 1532.6448 0.0000 0.0000 1749.0097 -7620.8278 293.7723 -9369.8375 -7589.9630 300.0963 855.9351 941.6661 30393.0040 -73.9508 -10.8710
ENERGY: 600000 0.0415 2.8284 0.1229 0.0000 -10900.5675 1488.7042 0.0000 0.0000 1838.5985 -7570.2719 308.8200 -9408.8704 -7579.2050 303.0889 288.0433 375.4495 30544.4884 -209.4775 -138.1291
ENERGY: 900000 0.0175 2.8742 0.1013 0.0000 -10841.4694 1404.9529 0.0000 0.0000 1828.2528 -7605.2707 307.0823 -9433.5235 -7597.9700 303.0447 -512.2766 -441.9737 30637.7018 -219.5113 -149.8951
ENERGY: 1200000 0.0167 1.4939 0.0860 0.0000 -10880.9905 1452.0195 0.0000 0.0000 1794.9711 -7632.4033 301.4922 -9427.3744 -7601.3795 302.9900 80.3920 67.3770 30602.8299 -39.6505 22.5994
ENERGY: 1500000 0.4354 3.5716 0.0436 0.0000 -10889.3899 1481.3960 0.0000 0.0000 1792.5442 -7611.3991 301.0845 -9403.9433 -7611.3689 302.3216 331.2513 395.7551 30636.8322 31.7954 95.0586
TCL: Running FEP window   9: Lambda1 0.5999999999999996 Lambda2 0.5499999999999996 [dLambda -0.050000000000000044]
TCL: Setting parameter firsttimestep to 0
TCL: Setting parameter alchLambda to 0.5999999999999996
Info: NONBONDED TABLE R-SQUARED SPACING: 0.0625
Info: NONBONDED TABLE SIZE: 705 POINTS
TCL: Setting parameter alchLambda2 to 0.5499999999999996
Info: NONBONDED TABLE R-SQUARED SPACING: 0.0625
Info: NONBONDED TABLE SIZE: 705 POINTS
TCL: Running for 1500000 steps
ETITLE: TS BOND ANGLE DIHED IMPRP ELECT VDW BOUNDARY MISC KINETIC TOTAL TEMP POTENTIAL TOTALAVG TEMPAVG PRESSURE GPRESSURE VOLUME PRESSAVG GPRESSAVG
ENERGY: 0 0.4354 3.5716 0.0436 0.0000 -10887.6528 1480.4865 0.0000 0.0000 1791.6640 -7611.4517 300.9367 -9403.1157 -7611.4517 300.9367 296.5622 387.8757 30636.8322 296.5622 387.8757
ENERGY: 300000 0.3128 3.1542 0.4165 0.0000 -10929.9383 1447.7465 0.0000 0.0000 1746.0198 -7732.2885 293.2701 -9478.3083 -7650.9883 296.9544 -363.6430 -352.7561 30575.2178 -188.2216 -133.1020
ENERGY: 600000 0.0980 3.2691 0.0571 0.0000 -10711.6037 1355.2400 0.0000 0.0000 1811.2064 -7541.7331 304.2191 -9352.9395 -7624.6087 298.7472 -724.6779 -667.2018 31067.8025 -305.4801 -244.6659
ENERGY: 900000 0.0002 2.6769 0.4915 0.0000 -10933.7894 1568.9594 0.0000 0.0000 1773.1609 -7588.5005 297.8288 -9361.6614 -7637.4541 297.8248 909.1143 956.2828 30809.5464 -253.9314 -187.0425
ENERGY: 1200000 0.4064 2.8676 0.3196 0.0000 -10932.6383 1514.9091 0.0000 0.0000 1838.2737 -7575.8619 308.7655 -9414.1355 -7621.4422 299.5146 201.5521 331.9228 30983.0099 -245.8103 -174.1049
ENERGY: 1500000 0.3736 2.1983 0.4480 0.0000 -10982.1029 1507.4811 0.0000 0.0000 1766.0236 -7705.5783 296.6300 -9471.6019 -7620.4310 300.4021 257.4859 344.0585 30482.5347 -146.8080 -76.0775
TCL: Running FEP window  10: Lambda1 0.5499999999999996 Lambda2 0.4999999999999996 [dLambda -0.04999999999999999]
TCL: Setting parameter firsttimestep to 0
TCL: Setting parameter alchLambda to 0.5499999999999996
Info: NONBONDED TABLE R-SQUARED SPACING: 0.0625
Info: NONBONDED TABLE SIZE: 705 POINTS
TCL: Setting parameter alchLambda2 to 0.4999999999999996
Info: NONBONDED TABLE R-SQUARED SPACING: 0.0625
Info: NONBONDED TABLE SIZE: 705 POINTS
TCL: Running for 1500000 steps
ETITLE: TS BOND ANGLE DIHED IMPRP ELECT VDW BOUNDARY MISC KINETIC TOTAL TEMP POTENTIAL TOTALAVG TEMPAVG PRESSURE GPRESSURE VOLUME PRESSAVG GPRESSAVG
ENERGY: 0 0.3736 2.1983 0.4480 0.0000 -10981.6361 1507.6272 0.0000 0.0000 1765.0836 -7705.9053 296.4721 -9470.9890 -7705.9053 296.4721 255.2323 343.0554 30482.5347 255.2323 343.0554
ENERGY: 300000 0.1085 1.7620 2.8764 0.0000 -10872.6109 1481.3903 0.0000 0.0000 1799.3544 -7587.1193 302.2284 -9386.4736 -7650.5020 299.3904 83.1577 182.6510 30879.6462 126.9290 206.6237
ENERGY: 600000 0.0713 2.1909 0.0451 0.0000 -10993.6784 1525.4526 0.0000 0.0000 1843.4158 -7622.5027 309.6292 -9465.9185 -7632.3907 301.0335 307.4204 371.5495 30714.0294 85.5685 146.6841
ENERGY: 900000 0.1483 2.0163 0.1170 0.0000 -10911.5600 1468.4751 0.0000 0.0000 1782.3157 -7658.4876 299.3665 -9440.8033 -7634.0781 300.0791 -67.3830 -40.0664 30957.5621 -4.3810 49.4243
ENERGY: 1200000 1.0892 4.1459 0.0204 0.0000 -10890.1382 1460.2319 0.0000 0.0000 1806.3550 -7618.2960 303.4043 -9424.6509 -7622.8212 300.3461 -393.7123 -256.6041 30954.1307 -14.7423 43.9402
ENERGY: 1500000 0.1324 1.6713 0.0766 0.0000 -10922.8747 1482.4773 0.0000 0.0000 1737.1137 -7701.4034 291.7742 -9438.5171 -7625.4049 299.9438 248.8198 276.7883 30438.2949 -61.6165 -7.3579
TCL: Running FEP window  11: Lambda1 0.4999999999999996 Lambda2 0.4499999999999996 [dLambda -0.04999999999999999]
TCL: Setting parameter firsttimestep to 0
TCL: Setting parameter alchLambda to 0.4999999999999996
Info: NONBONDED TABLE R-SQUARED SPACING: 0.0625
Info: NONBONDED TABLE SIZE: 705 POINTS
TCL: Setting parameter alchLambda2 to 0.4499999999999996
Info: NONBONDED TABLE R-SQUARED SPACING: 0.0625
Info: NONBONDED TABLE SIZE: 705 POINTS
TCL: Running for 1500000 steps
ETITLE: TS BOND ANGLE DIHED IMPRP ELECT VDW BOUNDARY MISC KINETIC TOTAL TEMP POTENTIAL TOTALAVG TEMPAVG PRESSURE GPRESSURE VOLUME PRESSAVG GPRESSAVG
ENERGY: 0 0.1324 1.6713 0.0766 0.0000 -10923.3398 1482.4205 0.0000 0.0000 1736.2064 -7702.8325 291.6218 -9439.0390 -7702.8325 291.6218 190.2819 272.0292 30438.2949 190.2819 272.0292
ENERGY: 300000 0.1607 0.2810 0.0343 0.0000 -10868.8457 1444.0661 0.0000 0.0000 1831.7455 -7592.5581 307.6690 -9424.3036 -7622.5088 299.1825 -368.5654 -303.0568 31077.5159 -25.1659 47.7218
ENERGY: 600000 0.2777 2.5208 0.6428 0.0000 -10817.0189 1374.0535 0.0000 0.0000 1767.8791 -7671.6450 296.9417 -9439.5240 -7653.1013 296.6251 -1001.1040 -928.3026 30886.1587 -92.3027 -29.9588
ENERGY: 900000 0.0929 1.6491 0.3027 0.0000 -10925.7072 1492.9307 0.0000 0.0000 1746.9326 -7683.7992 293.4234 -9430.7318 -7644.4717 296.7639 76.3040 177.9312 30538.6859 -110.4579 -36.5386
ENERGY: 1200000 0.0325 3.0786 0.0747 0.0000 -10872.3291 1442.2699 0.0000 0.0000 1840.2473 -7586.6260 309.0970 -9426.8734 -7642.6118 298.0090 -499.9940 -391.3515 31320.7462 -90.6331 -13.0371
ENERGY: 1500000 0.0071 3.2560 0.0852 0.0000 -10815.0610 1462.4064 0.0000 0.0000 1776.4364 -7572.8698 298.3790 -9349.3062 -7633.3845 298.5758 36.1398 62.9731 31010.5456 -73.7468 2.7882
TCL: Running FEP window  12: Lambda1 0.4499999999999996 Lambda2 0.39999999999999963 [dLambda -0.04999999999999999]
TCL: Setting parameter firsttimestep to 0
TCL: Setting parameter alchLambda to 0.4499999999999996
Info: NONBONDED TABLE R-SQUARED SPACING: 0.0625
Info: NONBONDED TABLE SIZE: 705 POINTS
TCL: Setting parameter alchLambda2 to 0.39999999999999963
Info: NONBONDED TABLE R-SQUARED SPACING: 0.0625
Info: NONBONDED TABLE SIZE: 705 POINTS
TCL: Running for 1500000 steps
ETITLE: TS BOND ANGLE DIHED IMPRP ELECT VDW BOUNDARY MISC KINETIC TOTAL TEMP POTENTIAL TOTALAVG TEMPAVG PRESSURE GPRESSURE VOLUME PRESSAVG GPRESSAVG
ENERGY: 0 0.0071 3.2560 0.0852 0.0000 -10815.0610 1462.5853 0.0000 0.0000 1775.5316 -7573.5958 298.2270 -9349.1274 -7573.5958 298.2270 -24.4071 61.4097 31010.5456 -24.4071 61.4097
ENERGY: 300000 0.2115 1.4674 0.5922 0.0000 -10670.5335 1325.7612 0.0000 0.0000 1800.8761 -7541.6251 302.4840 -9342.5012 -7566.5865 302.5455 -1020.4087 -958.0988 31095.9493 384.6611 430.8503
ENERGY: 600000 0.1881 1.8322 0.1501 0.0000 -10971.8562 1507.1313 0.0000 0.0000 1780.6695 -7681.8850 299.0900 -9462.5545 -7600.0082 302.2999 -28.0947 88.3954 30971.8171 58.2280 134.5826
ENERGY: 900000 0.2131 4.1029 0.1022 0.0000 -10981.4085 1550.9754 0.0000 0.0000 1802.6579 -7623.3569 302.7833 -9426.0149 -7608.6081 301.0450 605.4582 682.9178 30667.4956 137.8776 209.0652
ENERGY: 1200000 0.0299 1.6730 0.1421 0.0000 -10913.9981 1469.5156 0.0000 0.0000 1813.3168 -7629.3207 304.5736 -9442.6375 -7607.7993 301.8720 358.9282 340.2575 30271.7538 116.4645 179.8102
ENERGY: 1500000 0.9295 3.1978 0.0427 0.0000 -10724.1179 1414.2975 0.0000 0.0000 1794.2924 -7511.3580 301.3782 -9305.6504 -7603.4033 301.4159 -14.3570 119.4377 30966.1674 115.6168 185.5141
TCL: Running FEP window  13: Lambda1 0.39999999999999963 Lambda2 0.34999999999999964 [dLambda -0.04999999999999999]
TCL: Setting parameter firsttimestep to 0
TCL: Setting parameter alchLambda to 0.39999999999999963
Info: NONBONDED TABLE R-SQUARED SPACING: 0.0625
Info: NONBONDED TABLE SIZE: 705 POINTS
TCL: Setting parameter alchLambda2 to 0.34999999999999964
Info: NONBONDED TABLE R-SQUARED SPACING: 0.0625
Info: NONBONDED TABLE SIZE: 705 POINTS
TCL: Running for 1500000 steps
ETITLE: TS BOND ANGLE DIHED IMPRP ELECT VDW BOUNDARY MISC KINETIC TOTAL TEMP POTENTIAL TOTALAVG TEMPAVG PRESSURE GPRESSURE VOLUME PRESSAVG GPRESSAVG
ENERGY: 0 0.9295 3.1978 0.0427 0.0000 -10724.1175 1414.1547 0.0000 0.0000 1793.3911 -7512.4017 301.2268 -9305.7928 -7512.4017 301.2268 18.4518 115.3314 30966.1674 18.4518 115.3314
ENERGY: 300000 0.9268 3.7696 0.1930 0.0000 -10910.7502 1488.6858 0.0000 0.0000 1756.2120 -7660.9629 294.9820 -9417.1750 -7626.0973 301.1685 66.2077 123.2670 30801.3040 48.0747 134.5006
ENERGY: 600000 0.5363 3.5296 0.5071 0.0000 -10763.9458 1348.8197 0.0000 0.0000 1790.7141 -7619.8390 300.7771 -9410.5531 -7626.0714 301.2834 -741.2381 -660.2823 30470.7454 -87.3004 -2.0796
ENERGY: 900000 0.0709 2.7319 0.5142 0.0000 -10989.2739 1556.9959 0.0000 0.0000 1823.3074 -7605.6537 306.2517 -9428.9610 -7636.1407 301.3088 761.5690 771.2502 30687.3373 -51.5661 25.1439
ENERGY: 1200000 0.0097 3.6850 0.0405 0.0000 -10894.2286 1455.6833 0.0000 0.0000 1805.8371 -7628.9731 303.3173 -9434.8101 -7618.4923 301.9356 -97.7248 -25.5994 30839.0599 45.5455 123.9900
ENERGY: 1500000 0.0030 2.1059 0.0034 0.0000 -10858.3019 1404.9486 0.0000 0.0000 1765.8363 -7685.4048 296.5985 -9451.2411 -7619.5721 301.6270 -824.4909 -766.4051 31152.0525 -55.0788 19.9026
TCL: Running FEP window  14: Lambda1 0.34999999999999964 Lambda2 0.29999999999999966 [dLambda -0.04999999999999999]
TCL: Setting parameter firsttimestep to 0
TCL: Setting parameter alchLambda to 0.34999999999999964
Info: NONBONDED TABLE R-SQUARED SPACING: 0.0625
Info: NONBONDED TABLE SIZE: 705 POINTS
TCL: Setting parameter alchLambda2 to 0.29999999999999966
Info: NONBONDED TABLE R-SQUARED SPACING: 0.0625
Info: NONBONDED TABLE SIZE: 705 POINTS
TCL: Running for 1500000 steps
ETITLE: TS BOND ANGLE DIHED IMPRP ELECT VDW BOUNDARY MISC KINETIC TOTAL TEMP POTENTIAL TOTALAVG TEMPAVG PRESSURE GPRESSURE VOLUME PRESSAVG GPRESSAVG
ENERGY: 0 0.0030 2.1059 0.0034 0.0000 -10858.3031 1405.1206 0.0000 0.0000 1764.9456 -7686.1247 296.4489 -9451.0703 -7686.1247 296.4489 -851.8274 -766.0056 31152.0525 -851.8274 -766.0056
ENERGY: 300000 0.1196 2.6357 0.1863 0.0000 -10875.7528 1501.6845 0.0000 0.0000 1737.8184 -7633.3084 291.8925 -9371.1267 -7609.8910 300.3120 417.8799 425.4627 30764.8269 -110.2583 -31.3788
ENERGY: 600000 0.0860 3.2752 0.3096 0.0000 -10887.2315 1521.4521 0.0000 0.0000 1751.3073 -7610.8013 294.1582 -9362.1086 -7614.8868 299.0965 476.0831 524.9713 31024.7554 -103.1620 -20.4846
ENERGY: 900000 0.1657 2.1831 0.1529 0.0000 -11000.6118 1556.8633 0.0000 0.0000 1803.2476 -7637.9992 302.8823 -9441.2468 -7621.2026 299.7726 573.6940 669.2559 30732.3061 -60.2710 24.8914
ENERGY: 1200000 0.0132 0.8194 0.0719 0.0000 -10822.5589 1458.0098 0.0000 0.0000 1802.5589 -7561.0859 302.7666 -9363.6448 -7608.1070 299.9073 -81.6985 -13.0501 31291.0476 -38.8399 40.5807
ENERGY: 1500000 0.2309 4.0345 0.3671 0.0000 -10902.2337 1468.4030 0.0000 0.0000 1715.1948 -7714.0034 288.0925 -9429.1982 -7606.3105 299.2173 -4.2014 2.0194 30491.1244 -97.2542 -25.0645
TCL: Running FEP window  15: Lambda1 0.29999999999999966 Lambda2 0.24999999999999967 [dLambda -0.04999999999999999]
TCL: Setting parameter firsttimestep to 0
TCL: Setting parameter alchLambda to 0.29999999999999966
Info: NONBONDED TABLE R-SQUARED SPACING: 0.0625
Info: NONBONDED TABLE SIZE: 705 POINTS
TCL: Setting parameter alchLambda2 to 0.24999999999999967
Info: NONBONDED TABLE R-SQUARED SPACING: 0.0625
Info: NONBONDED TABLE SIZE: 705 POINTS
TCL: Running for 1500000 steps
ETITLE: TS BOND ANGLE DIHED IMPRP ELECT VDW BOUNDARY MISC KINETIC TOTAL TEMP POTENTIAL TOTALAVG TEMPAVG PRESSURE GPRESSURE VOLUME PRESSAVG GPRESSAVG
ENERGY: 0 0.2309 4.0345 0.3671 0.0000 -10902.2328 1468.3578 0.0000 0.0000 1714.3117 -7714.9307 287.9442 -9429.2424 -7714.9307 287.9442 -85.9180 4.4014 30491.1244 -85.9180 4.4014
ENERGY: 300000 0.1181 3.0062 0.1505 0.0000 -10922.2594 1445.3362 0.0000 0.0000 1838.3624 -7635.2860 308.7804 -9473.6485 -7641.2643 302.5395 -332.9288 -243.0502 30774.6593 -305.1661 -212.8078
ENERGY: 600000 0.0957 2.4291 1.8899 0.0000 -10960.2358 1506.8015 0.0000 0.0000 1784.9126 -7664.1070 299.8027 -9449.0196 -7639.4980 301.6805 282.2131 319.4515 30803.9590 -127.6175 -57.6663
ENERGY: 900000 0.2259 2.6492 0.1311 0.0000 -10849.2100 1418.7206 0.0000 0.0000 1793.1579 -7634.3254 301.1876 -9427.4833 -7642.1223 299.9561 -295.1911 -275.7133 30532.4624 -122.6512 -48.4896
ENERGY: 1200000 0.3092 1.7266 0.0207 0.0000 -10913.7921 1516.4746 0.0000 0.0000 1784.1579 -7611.1032 299.6759 -9395.2610 -7636.0020 299.8674 89.5835 216.1979 31406.6064 -4.3658 65.1110
ENERGY: 1500000 1.0714 3.3940 0.2515 0.0000 -10708.0215 1374.7008 0.0000 0.0000 1805.8706 -7522.7333 303.3229 -9328.6038 -7625.8388 300.2985 -602.1956 -501.2238 30862.7530 -89.6666 -20.5756
TCL: Running FEP window  16: Lambda1 0.24999999999999967 Lambda2 0.19999999999999968 [dLambda -0.04999999999999999]
TCL: Setting parameter firsttimestep to 0
TCL: Setting parameter alchLambda to 0.24999999999999967
Info: NONBONDED TABLE R-SQUARED SPACING: 0.0625
Info: NONBONDED TABLE SIZE: 705 POINTS
TCL: Setting parameter alchLambda2 to 0.19999999999999968
Info: NONBONDED TABLE R-SQUARED SPACING: 0.0625
Info: NONBONDED TABLE SIZE: 705 POINTS
TCL: Running for 1500000 steps
ETITLE: TS BOND ANGLE DIHED IMPRP ELECT VDW BOUNDARY MISC KINETIC TOTAL TEMP POTENTIAL TOTALAVG TEMPAVG PRESSURE GPRESSURE VOLUME PRESSAVG GPRESSAVG
ENERGY: 0 1.0714 3.3940 0.2515 0.0000 -10708.0217 1374.4716 0.0000 0.0000 1804.9466 -7523.8866 303.1677 -9328.8332 -7523.8866 303.1677 -591.0744 -507.3822 30862.7530 -591.0744 -507.3822
ENERGY: 300000 0.3737 0.7701 0.5546 0.0000 -10767.8071 1410.3330 0.0000 0.0000 1864.5447 -7491.2311 313.1781 -9355.7758 -7570.4637 301.8632 -398.0204 -302.2503 31095.5087 131.9680 211.4649
ENERGY: 600000 0.4688 2.1108 1.7407 0.0000 -10636.0322 1331.9938 0.0000 0.0000 1828.0230 -7471.6950 307.0437 -9299.7180 -7570.5692 301.6608 -858.8171 -810.4147 31266.3320 -133.3275 -65.4544
ENERGY: 900000 0.0115 2.5279 0.2050 0.0000 -10778.1039 1424.3891 0.0000 0.0000 1772.8571 -7578.1133 297.7778 -9350.9704 -7585.9979 300.3472 -337.0759 -291.7904 31015.5632 -192.7983 -132.5968
ENERGY: 1200000 0.0209 1.6044 0.1427 0.0000 -10889.5519 1435.0554 0.0000 0.0000 1800.3343 -7652.3942 302.3930 -9452.7286 -7594.9435 300.6386 -356.6286 -304.7959 30863.5633 -189.2370 -131.6141
ENERGY: 1500000 0.1526 3.7777 0.3043 0.0000 -10816.4866 1460.8240 0.0000 0.0000 1776.6445 -7574.7834 298.4139 -9351.4279 -7588.7307 300.9024 -55.2302 56.3543 30841.2680 -193.5439 -135.4804
TCL: Running FEP window  17: Lambda1 0.19999999999999968 Lambda2 0.1499999999999997 [dLambda -0.04999999999999999]
TCL: Setting parameter firsttimestep to 0
TCL: Setting parameter alchLambda to 0.19999999999999968
Info: NONBONDED TABLE R-SQUARED SPACING: 0.0625
Info: NONBONDED TABLE SIZE: 705 POINTS
TCL: Setting parameter alchLambda2 to 0.1499999999999997
Info: NONBONDED TABLE R-SQUARED SPACING: 0.0625
Info: NONBONDED TABLE SIZE: 705 POINTS
TCL: Running for 1500000 steps
ETITLE: TS BOND ANGLE DIHED IMPRP ELECT VDW BOUNDARY MISC KINETIC TOTAL TEMP POTENTIAL TOTALAVG TEMPAVG PRESSURE GPRESSURE VOLUME PRESSAVG GPRESSAVG
ENERGY: 0 0.1526 3.7777 0.3043 0.0000 -10816.4865 1460.5631 0.0000 0.0000 1775.7360 -7575.9528 298.2613 -9351.6888 -7575.9528 298.2613 -30.7636 53.9749 30841.2680 -30.7636 53.9749
ENERGY: 300000 0.0311 0.5182 0.1477 0.0000 -10900.1908 1408.1800 0.0000 0.0000 1782.1997 -7709.1140 299.3470 -9491.3137 -7648.0881 298.0908 -648.4194 -661.9913 30842.7723 40.6987 81.0364
ENERGY: 600000 0.0002 1.4360 0.2053 0.0000 -10947.3507 1481.8897 0.0000 0.0000 1767.4868 -7696.3328 296.8758 -9463.8196 -7655.3929 297.9358 -20.8616 -48.7436 30646.1907 -107.1545 -76.6107
ENERGY: 900000 0.0045 4.6023 0.7058 0.0000 -10732.1107 1369.8247 0.0000 0.0000 1774.6531 -7582.3204 298.0795 -9356.9735 -7630.7999 298.6585 -669.2858 -662.5629 31007.0700 -152.6720 -121.6982
ENERGY: 1200000 0.0006 6.1448 0.4995 0.0000 -10835.7288 1377.8592 0.0000 0.0000 1793.2227 -7658.0020 301.1985 -9451.2247 -7628.6044 299.2480 -806.1002 -654.6683 30576.5576 -203.4702 -157.1507
ENERGY: 1500000 0.2834 1.9549 0.4158 0.0000 -10869.2879 1452.6453 0.0000 0.0000 1804.3563 -7609.6322 303.0686 -9413.9885 -7624.3621 299.5879 14.7771 32.8817 30541.6925 -79.1075 -31.7365
TCL: Running FEP window  18: Lambda1 0.1499999999999997 Lambda2 0.09999999999999969 [dLambda -0.05 ]
TCL: Setting parameter firsttimestep to 0
TCL: Setting parameter alchLambda to 0.1499999999999997
Info: NONBONDED TABLE R-SQUARED SPACING: 0.0625
Info: NONBONDED TABLE SIZE: 705 POINTS
TCL: Setting parameter alchLambda2 to 0.09999999999999969
Info: NONBONDED TABLE R-SQUARED SPACING: 0.0625
Info: NONBONDED TABLE SIZE: 705 POINTS
TCL: Running for 1500000 steps
ETITLE: TS BOND ANGLE DIHED IMPRP ELECT VDW BOUNDARY MISC KINETIC TOTAL TEMP POTENTIAL TOTALAVG TEMPAVG PRESSURE GPRESSURE VOLUME PRESSAVG GPRESSAVG
ENERGY: 0 0.2834 1.9549 0.4158 0.0000 -10869.2872 1452.5799 0.0000 0.0000 1803.4575 -7610.5957 302.9176 -9414.0532 -7610.5957 302.9176 -55.6296 30.3641 30541.6925 -55.6296 30.3641
ENERGY: 300000 0.0340 1.9185 0.1762 0.0000 -10809.0324 1441.1966 0.0000 0.0000 1829.5383 -7536.1687 307.2982 -9365.7070 -7612.4787 303.4086 -130.5455 -46.9883 30848.8215 37.6147 117.7073
ENERGY: 600000 0.0303 2.3529 0.4811 0.0000 -10844.6997 1455.0192 0.0000 0.0000 1750.9223 -7635.8938 294.0935 -9386.8162 -7620.3137 301.3194 -144.5909 -91.0501 30939.2256 33.4058 104.4191
ENERGY: 900000 0.2365 2.6336 0.6278 0.0000 -10743.1669 1414.7990 0.0000 0.0000 1730.8187 -7594.0514 290.7168 -9324.8701 -7624.7031 299.2667 -309.0337 -276.9794 31026.6705 39.0591 110.7110
ENERGY: 1200000 0.0027 1.7169 0.1420 0.0000 -10791.4023 1467.6671 0.0000 0.0000 1775.8151 -7546.0586 298.2746 -9321.8737 -7630.7855 298.1338 125.9889 133.9570 30927.6238 67.2027 139.8540
ENERGY: 1500000 0.2403 6.2689 1.0620 0.0000 -10919.9550 1480.1825 0.0000 0.0000 1822.6941 -7609.5073 306.1487 -9432.2013 -7632.9801 298.5337 165.6907 194.1870 30521.2381 83.2527 150.0200
TCL: Running FEP window  19: Lambda1 0.09999999999999969 Lambda2 0.049999999999999684 [dLambda -0.05 ]
TCL: Setting parameter firsttimestep to 0
TCL: Setting parameter alchLambda to 0.09999999999999969
Info: NONBONDED TABLE R-SQUARED SPACING: 0.0625
Info: NONBONDED TABLE SIZE: 705 POINTS
TCL: Setting parameter alchLambda2 to 0.049999999999999684
Info: NONBONDED TABLE R-SQUARED SPACING: 0.0625
Info: NONBONDED TABLE SIZE: 705 POINTS
TCL: Running for 1500000 steps
ETITLE: TS BOND ANGLE DIHED IMPRP ELECT VDW BOUNDARY MISC KINETIC TOTAL TEMP POTENTIAL TOTALAVG TEMPAVG PRESSURE GPRESSURE VOLUME PRESSAVG GPRESSAVG
ENERGY: 0 0.2403 6.2688 1.0620 0.0000 -10919.9544 1480.3235 0.0000 0.0000 1821.7545 -7610.3053 305.9908 -9432.0597 -7610.3053 305.9908 113.5727 197.0335 30521.2381 113.5727 197.0335
ENERGY: 300000 0.0150 1.3119 0.8794 0.0000 -11003.9645 1562.1452 0.0000 0.0000 1793.6484 -7645.9646 301.2700 -9439.6130 -7622.1932 302.6981 484.6890 484.7259 30989.7882 -149.1289 -87.0779
ENERGY: 600000 0.0319 1.6559 0.4410 0.0000 -10942.6583 1554.2839 0.0000 0.0000 1784.2055 -7602.0402 299.6839 -9386.2456 -7619.5287 302.6016 708.0229 709.7645 30867.1369 -3.6186 59.1387
ENERGY: 900000 0.2671 1.1730 0.1978 0.0000 -10864.6452 1500.8482 0.0000 0.0000 1789.4240 -7572.7351 300.5605 -9362.1591 -7624.6291 301.9591 300.3857 370.3567 30790.3295 63.7767 126.6294
ENERGY: 1200000 0.5613 1.0328 0.1897 0.0000 -10802.1625 1419.3347 0.0000 0.0000 1803.1874 -7577.8566 302.8722 -9381.0440 -7615.2929 302.4075 -558.6607 -519.4488 31360.3553 29.4428 93.9780
ENERGY: 1500000 0.0740 2.0634 0.1773 0.0000 -10806.1870 1424.5478 0.0000 0.0000 1793.1300 -7586.1946 301.1829 -9379.3246 -7617.2613 301.7461 -175.5513 -116.9701 30675.5113 -8.6071 51.3274
TCL: Running FEP window  20: Lambda1 0.049999999999999684 Lambda2 0.0    [dLambda -0.049999999999999684]
TCL: Setting parameter firsttimestep to 0
TCL: Setting parameter alchLambda to 0.049999999999999684
Info: NONBONDED TABLE R-SQUARED SPACING: 0.0625
Info: NONBONDED TABLE SIZE: 705 POINTS
TCL: Setting parameter alchLambda2 to 0.0
Info: NONBONDED TABLE R-SQUARED SPACING: 0.0625
Info: NONBONDED TABLE SIZE: 705 POINTS
TCL: Running for 1500000 steps
ETITLE: TS BOND ANGLE DIHED IMPRP ELECT VDW BOUNDARY MISC KINETIC TOTAL TEMP POTENTIAL TOTALAVG TEMPAVG PRESSURE GPRESSURE VOLUME PRESSAVG GPRESSAVG
ENERGY: 0 0.0740 2.0634 0.1773 0.0000 -10806.1879 1423.8006 0.0000 0.0000 1792.2566 -7587.8160 301.0362 -9380.0726 -7587.8160 301.0362 -209.9775 -120.9681 30675.5113 -209.9775 -120.9681
ENERGY: 300000 0.0637 2.8375 0.6470 0.0000 -10956.2394 1465.0058 0.0000 0.0000 1729.8541 -7757.8313 290.5548 -9487.6854 -7629.7475 302.3441 -245.7836 -263.4093 30859.2817 -142.5879 -64.6448
ENERGY: 600000 0.7235 0.9744 0.1718 0.0000 -10791.8255 1400.9919 0.0000 0.0000 1762.0098 -7626.9541 295.9558 -9388.9639 -7620.5775 302.6135 -415.4873 -388.1866 30862.5269 -74.5420 -5.5688
ENERGY: 900000 0.0475 3.3208 0.0732 0.0000 -10893.1957 1466.5185 0.0000 0.0000 1764.2465 -7658.9890 296.3315 -9423.2356 -7642.9926 301.0143 -63.5175 -14.9783 30886.8601 -70.6806 -5.4986
ENERGY: 1200000 0.1772 2.5791 0.4670 0.0000 -10767.9687 1353.0642 0.0000 0.0000 1773.4876 -7638.1935 297.8837 -9411.6812 -7651.3259 299.0731 -567.0635 -637.1012 30285.6557 -121.2465 -65.7669
ENERGY: 1500000 0.8872 2.2835 0.9573 0.0000 -10796.8234 1370.8796 0.0000 0.0000 1848.9478 -7572.8679 310.5584 -9421.8158 -7642.3571 299.2592 -857.6545 -813.3088 31219.7695 -143.3216 -85.2900
TCL: Exiting due to exit command.
