Info: SIMULATION PARAMETERS:
Info: TIMESTEP               2
Info: NUMBER OF STEPS        0
Info: STEPS PER CYCLE        10
Info: PERIODIC CELL BASIS 1  31.6558 0 0
Info: PERIODIC CELL BASIS 2  0 30.0769 0
Info: PERIODIC CELL BASIS 3  0 0 32.267
Info: PERIODIC CELL CENTER   0 0 0
Info: WRAPPING WATERS AROUND PERIODIC BOUNDARIES ON OUTPUT.
Info: WRAPPING ALL CLUSTERS AROUND PERIODIC BOUNDARIES ON OUTPUT.
Info: FIRST LDB TIMESTEP     50
Info: LAST LDB TIMESTEP     -1
Info: HOM BACKGROUND SCALING 1
Info: PME BACKGROUND SCALING 1
Info: MIN ATOMS PER PATCH    40
Info: EMPTY PATCH LOAD       40 ATOMS
Info: VELOCITY FILE          mobley_3053621_equil.vel
Info: CENTER OF MASS MOVING INITIALLY? NO
Info: DIELECTRIC             1
Info: EXCLUDE                SCALED ONE-FOUR
Info: 1-4 ELECTROSTATICS SCALED BY 0.833333
Info: MODIFIED 1-4 VDW PARAMETERS WILL BE USED
Info: DCD FILENAME           mobley_3053621_prod.dcd
Info: DCD FREQUENCY          100000
Info: DCD FIRST STEP         100000
Info: DCD FILE WILL CONTAIN UNIT CELL DATA
Info: XST FILENAME           mobley_3053621_prod.xst
Info: XST FREQUENCY          100000
Info: NO VELOCITY DCD OUTPUT
Info: NO FORCE DCD OUTPUT
Info: OUTPUT FILENAME        mobley_3053621_prod
Info: BINARY OUTPUT FILES WILL BE USED
Info: RESTART FILENAME       mobley_3053621_prod.restart
Info: RESTART FREQUENCY      100000
Info: BINARY RESTART FILES WILL BE USED
Info: CUTOFF                 9
Info: PAIRLIST DISTANCE      11
Info: PAIRLIST SHRINK RATE   0.01
Info: PAIRLIST GROW RATE     0.01
Info: PAIRLIST TRIGGER       0.3
Info: PAIRLISTS PER CYCLE    2
Info: PAIRLISTS ENABLED
Info: MARGIN                 2
Info: HYDROGEN GROUP CUTOFF  2.5
Info: PATCH DIMENSION        15.5
Info: ENERGY OUTPUT STEPS    100000
Info: ENERGY EVALUATION STEPS    100000
Info: OUTPUT ENERGY PRECISION 4
Info: CROSSTERM ENERGY INCLUDED IN DIHEDRAL
Info: TIMING OUTPUT STEPS    1000000
Info: PRESSURE OUTPUT STEPS  100000
Info: ALCHEMICAL FEP ON
Info: FEP CURRENT LAMBDA VALUE     0
Info: FEP COMPARISON LAMBDA VALUE  0.05
Info: FEP INTRA-ALCHEMICAL NON-BONDED INTERACTIONS WILL BE RETAINED
Info: FEP INTRA-ALCHEMICAL BONDED INTERACTIONS WILL BE RETAINED
Info: FEP VDW SHIFTING COEFFICIENT 5
Info: FEP ELEC. ACTIVE FOR ANNIHILATED PARTICLES BETWEEN LAMBDA = 0 AND LAMBDA = 0.5
Info: FEP ELEC. ACTIVE FOR EXNIHILATED PARTICLES BETWEEN LAMBDA = 0.5 AND LAMBDA = 1
Info: FEP VDW ACTIVE FOR ANNIHILATED PARTICLES BETWEEN LAMBDA = 0 AND LAMBDA = 1
Info: FEP VDW ACTIVE FOR EXNIHILATED PARTICLES BETWEEN LAMBDA = 0 AND LAMBDA = 1
Info: FEP BOND ACTIVE FOR ANNIHILATED PARTICLES BETWEEN LAMBDA = 1 AND LAMBDA = 1
Info: FEP BOND ACTIVE FOR EXNIHILATED PARTICLES BETWEEN LAMBDA = 0 AND LAMBDA = 0
Info: LANGEVIN DYNAMICS ACTIVE
Info: LANGEVIN TEMPERATURE   300
Info: LANGEVIN USING BBK INTEGRATOR
Info: LANGEVIN DAMPING COEFFICIENT IS 1 INVERSE PS
Info: LANGEVIN DYNAMICS APPLIED TO HYDROGENS
Info: LANGEVIN PISTON PRESSURE CONTROL ACTIVE
Info:        TARGET PRESSURE IS 1.01325 BAR
Info:     OSCILLATION PERIOD IS 50 FS
Info:             DECAY TIME IS 25 FS
Info:     PISTON TEMPERATURE IS 300 K
Info:       PRESSURE CONTROL IS GROUP-BASED
Info:    INITIAL STRAIN RATE IS 0.0003359 0.0003359 0.0003359
Info:       CELL FLUCTUATION IS ISOTROPIC
Info: PARTICLE MESH EWALD (PME) ACTIVE
Info: PME TOLERANCE               1e-06
Info: PME EWALD COEFFICIENT       0.348832
Info: PME INTERPOLATION ORDER     4
Info: PME GRID DIMENSIONS         32 32 36
Info: PME MAXIMUM GRID SPACING    1
Info: PME CALCULATION WILL BE PERFORMED ON GPU
Info: FULL ELECTROSTATIC EVALUATION FREQUENCY      2
Info: USING VERLET I (r-RESPA) MTS SCHEME.
Info: C1 SPLITTING OF LONG RANGE ELECTROSTATICS
Info: PLACING ATOMS IN PATCHES BY HYDROGEN GROUPS
Info: RIGID BONDS TO HYDROGEN : ALL
Info:         ERROR TOLERANCE : 1e-08
Info:          MAX ITERATIONS : 100
Info: RIGID WATER USING SETTLE ALGORITHM
Info: RANDOM NUMBER SEED     1742156960
Info: USE HYDROGEN BONDS?    NO
Info: Using AMBER format force field!
Info: AMBER PARM FILE        mobley_3053621.prmtop
Info: COORDINATE PDB         mobley_3053621.pdb
Info: Exclusions will be read from PARM file!
Info: SCNB (VDW SCALING)     2
Info: USING ARITHMETIC MEAN TO COMBINE L-J SIGMA PARAMETERS
Info: BINARY COORDINATES     mobley_3053621_equil.coor
Info: SUMMARY OF PARAMETERS:
Info: 4 BONDS
Info: 2 ANGLES
Info:   2 HARMONIC
Info:   0 COSINE-BASED
Info: 2 DIHEDRAL
Info: 0 IMPROPER
Info: 0 CROSSTERM
Info: 0 VDW
Info: 10 VDW_PAIRS
Info: 0 NBTHOLE_PAIRS
Info: To read alchdata from file: mobley_3053621.pdb
Info: To read alchflag data from column: 5
Info: STRUCTURE SUMMARY:
Info: 2976 ATOMS
Info: 2976 BONDS
Info: 18 ANGLES
Info: 30 DIHEDRALS
Info: 0 IMPROPERS
Info: 0 CROSSTERMS
Info: 3015 EXCLUSIONS
Info: 2970 RIGID BONDS
Info: ALCH: 0 ATOMS TO DISAPPEAR IN FINAL STATE
Info: ALCH: 12 ATOMS TO APPEAR IN FINAL STATE
Info: 5958 DEGREES OF FREEDOM
Info: 994 HYDROGEN GROUPS
Info: 3 ATOMS IN LARGEST HYDROGEN GROUP
Info: 994 MIGRATION GROUPS
Info: 3 ATOMS IN LARGEST MIGRATION GROUP
Info: TOTAL MASS = 17877.9 amu
Info: TOTAL CHARGE = -0.000100002 e
Info: MASS DENSITY = 0.966342 g/cm^3
Info: ATOM DENSITY = 0.0968696 atoms/A^3
Info: ADDED 0 IMPLICIT EXCLUSIONS
Info: NONBONDED TABLE R-SQUARED SPACING: 0.0625
Info: NONBONDED TABLE SIZE: 705 POINTS
Info: REMOVING COM VELOCITY 0.172457 0.154857 -0.0440523
Info: Use 3D box decompostion in PME FFT.
Info: Updated CUDA force table with 4096 elements.
Info: Updated CUDA LJ table with 4 x 4 elements.
Info: Found 11 unique exclusion lists needing 20 bytes
TCL: Running for 1500000 steps
ETITLE: TS BOND ANGLE DIHED IMPRP ELECT VDW BOUNDARY MISC KINETIC TOTAL TEMP POTENTIAL TOTALAVG TEMPAVG PRESSURE GPRESSURE VOLUME PRESSAVG GPRESSAVG
ENERGY: 0 2.9794 1.5866 2.4637 0.0000 -10661.6881 1404.6475 0.0000 0.0000 1764.3915 -7485.6195 298.0471 -9250.0109 -7485.6195 298.0471 -274.6823 -195.4481 30721.7077 -274.6823 -195.4481
ENERGY: 300000 3.9817 2.1477 0.8747 0.0000 -10821.4504 1495.0870 0.0000 0.0000 1766.5783 -7552.7810 298.4165 -9319.3593 -7499.3260 300.7563 202.6734 268.1716 30413.7350 -160.7115 -92.3032
ENERGY: 600000 0.6848 2.6563 0.8278 0.0000 -10736.7112 1454.7336 0.0000 0.0000 1768.8448 -7508.9639 298.7993 -9277.8086 -7518.6850 300.2853 222.9963 264.9348 30329.5065 -104.7176 -32.9618
ENERGY: 900000 1.9747 1.6386 4.3058 0.0000 -10805.5500 1493.3751 0.0000 0.0000 1768.6094 -7535.6464 298.7596 -9304.2559 -7522.5475 301.7143 46.6895 138.7013 30932.9121 -65.5469 7.5341
ENERGY: 1200000 3.3765 4.2037 1.4151 0.0000 -10765.3544 1434.3561 0.0000 0.0000 1731.4116 -7590.5914 292.4760 -9322.0031 -7536.1725 300.9047 -405.1221 -349.5591 30795.5416 -71.8466 -5.3480
ENERGY: 1500000 2.8621 2.2046 0.8422 0.0000 -10684.0182 1404.9531 0.0000 0.0000 1780.1559 -7493.0003 300.7100 -9273.1562 -7532.2962 301.0373 -122.9152 -88.0987 30286.6147 -22.5610 37.7265
TCL: Running FEP window   2: Lambda1 0.05   Lambda2 0.1    [dLambda 0.05  ]
TCL: Setting parameter firsttimestep to 0
TCL: Setting parameter alchLambda to 0.05
Info: NONBONDED TABLE R-SQUARED SPACING: 0.0625
Info: NONBONDED TABLE SIZE: 705 POINTS
TCL: Setting parameter alchLambda2 to 0.1
Info: NONBONDED TABLE R-SQUARED SPACING: 0.0625
Info: NONBONDED TABLE SIZE: 705 POINTS
TCL: Running for 1500000 steps
ETITLE: TS BOND ANGLE DIHED IMPRP ELECT VDW BOUNDARY MISC KINETIC TOTAL TEMP POTENTIAL TOTALAVG TEMPAVG PRESSURE GPRESSURE VOLUME PRESSAVG GPRESSAVG
ENERGY: 0 2.8621 2.2046 0.8422 0.0000 -10684.0186 1406.8069 0.0000 0.0000 1779.2546 -7492.0482 300.5578 -9271.3029 -7492.0482 300.5578 -169.6746 -84.0372 30286.6147 -169.6746 -84.0372
ENERGY: 300000 3.9003 3.5375 3.9398 0.0000 -10880.7153 1496.6528 0.0000 0.0000 1780.3296 -7592.3553 300.7394 -9372.6849 -7536.1122 299.1969 0.3449 79.3821 30417.9441 92.8716 166.8253
ENERGY: 600000 4.0121 3.9292 2.6415 0.0000 -10820.3954 1499.3240 0.0000 0.0000 1805.1485 -7505.3401 304.9319 -9310.4885 -7530.9841 301.5233 587.6874 675.4414 30265.0863 147.9128 223.0923
ENERGY: 900000 1.6943 4.4574 5.0745 0.0000 -10862.3399 1439.3651 0.0000 0.0000 1723.8941 -7687.8545 291.2061 -9411.7485 -7552.8804 299.6737 -615.2851 -538.4922 30771.5302 -93.1802 -32.4062
ENERGY: 1200000 1.4077 3.5269 5.6902 0.0000 -10820.3588 1524.3860 0.0000 0.0000 1803.4161 -7481.9319 304.6392 -9285.3480 -7548.8486 299.3902 544.7893 612.5793 30611.4243 -73.9025 -14.8438
ENERGY: 1500000 1.9998 1.2344 1.2148 0.0000 -10718.3841 1512.0814 0.0000 0.0000 1777.6946 -7424.1590 300.2943 -9201.8537 -7546.7871 299.1012 740.0206 739.8017 30570.2923 -58.4458 -2.6848
TCL: Running FEP window   3: Lambda1 0.1    Lambda2 0.15000000000000002 [dLambda 0.05000000000000002]
TCL: Setting parameter firsttimestep to 0
TCL: Setting parameter alchLambda to 0.1
Info: NONBONDED TABLE R-SQUARED SPACING: 0.0625
Info: NONBONDED TABLE SIZE: 705 POINTS
TCL: Setting parameter alchLambda2 to 0.15000000000000002
Info: NONBONDED TABLE R-SQUARED SPACING: 0.0625
Info: NONBONDED TABLE SIZE: 705 POINTS
TCL: Running for 1500000 steps
ETITLE: TS BOND ANGLE DIHED IMPRP ELECT VDW BOUNDARY MISC KINETIC TOTAL TEMP POTENTIAL TOTALAVG TEMPAVG PRESSURE GPRESSURE VOLUME PRESSAVG GPRESSAVG
ENERGY: 0 1.9998 1.2344 1.2148 0.0000 -10718.3854 1515.3856 0.0000 0.0000 1776.8261 -7421.7247 300.1476 -9198.5508 -7421.7247 300.1476 663.3247 747.4886 30570.2923 663.3247 747.4886
ENERGY: 300000 1.0465 2.5821 3.0413 0.0000 -10722.3902 1431.8472 0.0000 0.0000 1712.4659 -7571.4071 289.2756 -9283.8730 -7549.2106 295.3196 -381.6091 -324.2454 30907.2569 -170.8226 -90.7104
ENERGY: 600000 0.8252 3.7910 1.9508 0.0000 -10774.6979 1403.7109 0.0000 0.0000 1772.4846 -7591.9353 299.4142 -9364.4199 -7542.8692 298.6851 -632.3012 -593.7212 30715.8054 -359.8531 -294.4833
ENERGY: 900000 1.6985 2.7992 7.1274 0.0000 -10714.3118 1437.5774 0.0000 0.0000 1791.5139 -7473.5954 302.6287 -9265.1093 -7524.9809 299.1947 -83.5746 -24.7298 30730.4796 -231.6537 -172.6936
ENERGY: 1200000 4.7481 2.3271 4.3427 0.0000 -10772.0422 1447.7631 0.0000 0.0000 1744.8575 -7568.0037 294.7473 -9312.8613 -7530.3509 299.1223 -125.5962 -45.4940 30407.0248 -216.1441 -153.7699
ENERGY: 1500000 1.9936 1.7033 0.6435 0.0000 -10821.7546 1454.1433 0.0000 0.0000 1825.3071 -7537.9638 308.3371 -9363.2709 -7533.5422 299.9072 -201.1524 -120.6429 30805.0335 -186.1506 -123.2502
TCL: Running FEP window   4: Lambda1 0.15000000000000002 Lambda2 0.2    [dLambda 0.04999999999999999]
TCL: Setting parameter firsttimestep to 0
TCL: Setting parameter alchLambda to 0.15000000000000002
Info: NONBONDED TABLE R-SQUARED SPACING: 0.0625
Info: NONBONDED TABLE SIZE: 705 POINTS
TCL: Setting parameter alchLambda2 to 0.2
Info: NONBONDED TABLE R-SQUARED SPACING: 0.0625
Info: NONBONDED TABLE SIZE: 705 POINTS
TCL: Running for 1500000 steps
ETITLE: TS BOND ANGLE DIHED IMPRP ELECT VDW BOUNDARY MISC KINETIC TOTAL TEMP POTENTIAL TOTALAVG TEMPAVG PRESSURE GPRESSURE VOLUME PRESSAVG GPRESSAVG
ENERGY: 0 1.9936 1.7033 0.6435 0.0000 -10821.7550 1455.5027 0.0000 0.0000 1824.4109 -7537.5010 308.1857 -9361.9119 -7537.5010 308.1857 -182.4338 -115.2187 30805.0335 -182.4338 -115.2187
ENERGY: 300000 0.8821 2.5567 1.7598 0.0000 -10844.3224 1482.3581 0.0000 0.0000 1763.8638 -7592.9019 297.9579 -9356.7658 -7561.6007 300.4585 271.8636 268.5670 30271.5485 -197.6025 -159.2498
ENERGY: 600000 1.5842 4.2275 3.0367 0.0000 -10696.7994 1382.7011 0.0000 0.0000 1871.1296 -7434.1203 316.0776 -9305.2499 -7541.7136 303.8793 -502.0510 -443.7404 30573.8813 -299.0094 -265.3190
ENERGY: 900000 1.3762 3.1521 4.2589 0.0000 -10762.9331 1516.0674 0.0000 0.0000 1750.9542 -7487.1244 295.7772 -9238.0787 -7541.7026 302.1184 557.4154 602.1663 30514.5241 -135.4005 -93.2028
ENERGY: 1200000 3.1401 3.4060 1.2367 0.0000 -10820.2840 1502.8860 0.0000 0.0000 1791.6160 -7517.9993 302.6459 -9309.6152 -7543.3647 301.6413 153.5639 188.3340 30709.8326 -21.0729 23.0935
ENERGY: 1500000 1.6871 2.0925 1.8863 0.0000 -10762.3258 1413.9984 0.0000 0.0000 1762.7088 -7579.9526 297.7628 -9342.6614 -7548.5305 301.0098 -565.4864 -522.4266 30662.4023 -90.0404 -37.2755
TCL: Running FEP window   5: Lambda1 0.2    Lambda2 0.25   [dLambda 0.04999999999999999]
TCL: Setting parameter firsttimestep to 0
TCL: Setting parameter alchLambda to 0.2
Info: NONBONDED TABLE R-SQUARED SPACING: 0.0625
Info: NONBONDED TABLE SIZE: 705 POINTS
TCL: Setting parameter alchLambda2 to 0.25
Info: NONBONDED TABLE R-SQUARED SPACING: 0.0625
Info: NONBONDED TABLE SIZE: 705 POINTS
TCL: Running for 1500000 steps
ETITLE: TS BOND ANGLE DIHED IMPRP ELECT VDW BOUNDARY MISC KINETIC TOTAL TEMP POTENTIAL TOTALAVG TEMPAVG PRESSURE GPRESSURE VOLUME PRESSAVG GPRESSAVG
ENERGY: 0 1.6871 2.0925 1.8863 0.0000 -10762.3259 1413.6262 0.0000 0.0000 1761.8153 -7581.2185 297.6119 -9343.0338 -7581.2185 297.6119 -601.4052 -523.9506 30662.4023 -601.4052 -523.9506
ENERGY: 300000 4.2317 3.4050 2.3339 0.0000 -10807.9159 1438.3433 0.0000 0.0000 1788.4609 -7571.1412 302.1129 -9359.6020 -7562.6588 298.4412 -596.9505 -496.0584 30832.3278 -235.7013 -173.9713
ENERGY: 600000 1.2622 2.6858 4.7982 0.0000 -10868.5379 1478.7953 0.0000 0.0000 1824.6261 -7556.3703 308.2221 -9380.9964 -7559.7803 301.7174 -13.4757 15.6683 30569.9591 -36.0393 28.8255
ENERGY: 900000 1.4845 2.1789 2.4835 0.0000 -10831.5494 1478.5364 0.0000 0.0000 1843.3335 -7503.5326 311.3822 -9346.8661 -7555.2803 302.0765 391.0173 406.8961 30275.1344 38.4452 96.4937
ENERGY: 1200000 3.6253 2.5714 2.9842 0.0000 -10887.9255 1555.4705 0.0000 0.0000 1839.9902 -7483.2839 310.8175 -9323.2741 -7546.2102 301.8687 869.7811 931.9534 30192.4276 72.0044 128.9013
ENERGY: 1500000 1.4877 0.8504 5.4311 0.0000 -10665.7068 1358.1094 0.0000 0.0000 1786.9416 -7512.8865 301.8563 -9299.8281 -7539.8717 301.4639 -754.8924 -712.1366 30543.4170 38.7389 97.0756
TCL: Running FEP window   6: Lambda1 0.25   Lambda2 0.3    [dLambda 0.04999999999999999]
TCL: Setting parameter firsttimestep to 0
TCL: Setting parameter alchLambda to 0.25
Info: NONBONDED TABLE R-SQUARED SPACING: 0.0625
Info: NONBONDED TABLE SIZE: 705 POINTS
TCL: Setting parameter alchLambda2 to 0.3
Info: NONBONDED TABLE R-SQUARED SPACING: 0.0625
Info: NONBONDED TABLE SIZE: 705 POINTS
TCL: Running for 1500000 steps
ETITLE: TS BOND ANGLE DIHED IMPRP ELECT VDW BOUNDARY MISC KINETIC TOTAL TEMP POTENTIAL TOTALAVG TEMPAVG PRESSURE GPRESSURE VOLUME PRESSAVG GPRESSAVG
ENERGY: 0 1.4877 0.8504 5.4311 0.0000 -10665.7068 1358.8766 0.0000 0.0000 1786.0139 -7513.0471 301.6996 -9299.0609 -7513.0471 301.6996 -795.8797 -709.0052 30543.4170 -795.8797 -709.0052
ENERGY: 300000 0.5276 2.5140 5.8189 0.0000 -10851.5719 1488.4480 0.0000 0.0000 1773.6139 -7580.6495 299.6049 -9354.2634 -7511.8338 303.7319 425.5082 463.4687 30258.8917 29.0014 75.3161
ENERGY: 600000 2.9675 1.7753 7.2892 0.0000 -10798.8245 1447.8232 0.0000 0.0000 1768.9597 -7570.0097 298.8187 -9338.9693 -7550.5014 301.4143 -51.7277 -62.8799 30441.2261 37.4328 69.2131
ENERGY: 900000 0.9270 3.1498 1.4206 0.0000 -10741.8801 1450.1519 0.0000 0.0000 1734.8500 -7551.3809 293.0568 -9286.2308 -7557.2490 299.7942 -119.4249 -5.9082 30838.1700 28.3905 64.6427
ENERGY: 1200000 0.4958 0.8816 3.2039 0.0000 -10817.2621 1474.1020 0.0000 0.0000 1814.9285 -7523.6502 306.5839 -9338.5787 -7563.4998 299.0562 90.5019 159.5554 30768.8103 8.8373 61.6496
ENERGY: 1500000 1.2666 4.6814 3.2468 0.0000 -10784.1968 1481.0851 0.0000 0.0000 1780.7119 -7513.2050 300.8040 -9293.9169 -7549.2142 299.5111 -41.8657 -13.9005 30789.5987 -92.6097 -38.7235
TCL: Running FEP window   7: Lambda1 0.3    Lambda2 0.35   [dLambda 0.04999999999999999]
TCL: Setting parameter firsttimestep to 0
TCL: Setting parameter alchLambda to 0.3
Info: NONBONDED TABLE R-SQUARED SPACING: 0.0625
Info: NONBONDED TABLE SIZE: 705 POINTS
TCL: Setting parameter alchLambda2 to 0.35
Info: NONBONDED TABLE R-SQUARED SPACING: 0.0625
Info: NONBONDED TABLE SIZE: 705 POINTS
TCL: Running for 1500000 steps
ETITLE: TS BOND ANGLE DIHED IMPRP ELECT VDW BOUNDARY MISC KINETIC TOTAL TEMP POTENTIAL TOTALAVG TEMPAVG PRESSURE GPRESSURE VOLUME PRESSAVG GPRESSAVG
ENERGY: 0 1.2666 4.6814 3.2468 0.0000 -10784.1973 1481.6086 0.0000 0.0000 1779.8357 -7513.5582 300.6560 -9293.3939 -7513.5582 300.6560 -96.4420 -5.1224 30789.5987 -96.4420 -5.1224
ENERGY: 300000 1.8595 3.7930 4.5631 0.0000 -10790.2567 1495.6258 0.0000 0.0000 1795.1525 -7489.2628 303.2433 -9284.4152 -7533.2509 303.5494 387.2356 517.4373 30660.3068 12.0401 114.4980
ENERGY: 600000 2.4644 2.9617 1.4059 0.0000 -10703.9160 1415.6393 0.0000 0.0000 1775.9830 -7505.4617 300.0051 -9281.4447 -7509.4808 303.8402 -252.9145 -151.3931 30644.6114 -99.1924 -10.6179
ENERGY: 900000 0.9292 3.2946 1.7932 0.0000 -10854.8327 1492.5012 0.0000 0.0000 1736.9239 -7619.3905 293.4071 -9356.3144 -7537.2817 301.8118 299.8418 383.0101 30195.9168 22.6265 106.0938
ENERGY: 1200000 0.7947 1.0142 1.2438 0.0000 -10842.9081 1502.3974 0.0000 0.0000 1789.8062 -7547.6518 302.3402 -9337.4580 -7537.1731 301.5185 190.6128 293.3648 30782.4919 8.7369 86.3456
ENERGY: 1500000 1.0761 3.4391 3.2523 0.0000 -10793.9470 1499.6122 0.0000 0.0000 1763.7707 -7522.7966 297.9422 -9286.5674 -7536.8463 301.0301 386.1004 465.8064 30363.8136 28.1485 100.3214
TCL: Running FEP window   8: Lambda1 0.35   Lambda2 0.39999999999999997 [dLambda 0.04999999999999999]
TCL: Setting parameter firsttimestep to 0
TCL: Setting parameter alchLambda to 0.35
Info: NONBONDED TABLE R-SQUARED SPACING: 0.0625
Info: NONBONDED TABLE SIZE: 705 POINTS
TCL: Setting parameter alchLambda2 to 0.39999999999999997
Info: NONBONDED TABLE R-SQUARED SPACING: 0.0625
Info: NONBONDED TABLE SIZE: 705 POINTS
TCL: Running for 1500000 steps
ETITLE: TS BOND ANGLE DIHED IMPRP ELECT VDW BOUNDARY MISC KINETIC TOTAL TEMP POTENTIAL TOTALAVG TEMPAVG PRESSURE GPRESSURE VOLUME PRESSAVG GPRESSAVG
ENERGY: 0 1.0761 3.4391 3.2523 0.0000 -10793.9485 1499.1889 0.0000 0.0000 1762.9170 -7524.0751 297.7980 -9286.9921 -7524.0751 297.7980 392.8647 465.4448 30363.8136 392.8647 465.4448
ENERGY: 300000 2.7963 4.1427 2.7887 0.0000 -10646.9610 1375.9008 0.0000 0.0000 1787.1432 -7474.1891 301.8904 -9261.3324 -7516.4552 299.1932 -444.5224 -410.2304 30787.5378 185.0266 247.0387
ENERGY: 600000 0.8412 3.0669 4.0758 0.0000 -10955.3934 1535.0109 0.0000 0.0000 1790.4150 -7621.9835 302.4430 -9412.3985 -7539.6702 300.1985 711.8845 820.8772 29819.2492 153.7733 235.4178
ENERGY: 900000 1.5807 0.7914 3.9758 0.0000 -10822.6231 1439.3163 0.0000 0.0000 1794.9814 -7581.9776 303.2144 -9376.9590 -7550.2077 300.9495 -320.5376 -293.7415 30655.5416 3.9443 72.1522
ENERGY: 1200000 4.6246 5.0791 1.3336 0.0000 -10845.2152 1500.2208 0.0000 0.0000 1763.9489 -7570.0082 297.9723 -9333.9572 -7552.0222 300.7025 -57.3169 10.0479 30967.5500 8.6663 73.7152
ENERGY: 1500000 1.5871 3.8368 2.5134 0.0000 -10741.5697 1382.5009 0.0000 0.0000 1744.9935 -7606.1379 294.7703 -9351.1315 -7553.1715 300.6318 -626.6988 -601.9728 30518.2729 -118.7006 -59.0162
TCL: Running FEP window   9: Lambda1 0.39999999999999997 Lambda2 0.44999999999999996 [dLambda 0.04999999999999999]
TCL: Setting parameter firsttimestep to 0
TCL: Setting parameter alchLambda to 0.39999999999999997
Info: NONBONDED TABLE R-SQUARED SPACING: 0.0625
Info: NONBONDED TABLE SIZE: 705 POINTS
TCL: Setting parameter alchLambda2 to 0.44999999999999996
Info: NONBONDED TABLE R-SQUARED SPACING: 0.0625
Info: NONBONDED TABLE SIZE: 705 POINTS
TCL: Running for 1500000 steps
ETITLE: TS BOND ANGLE DIHED IMPRP ELECT VDW BOUNDARY MISC KINETIC TOTAL TEMP POTENTIAL TOTALAVG TEMPAVG PRESSURE GPRESSURE VOLUME PRESSAVG GPRESSAVG
ENERGY: 0 1.5871 3.8368 2.5134 0.0000 -10741.5701 1382.2893 0.0000 0.0000 1744.0914 -7607.2522 294.6179 -9351.3436 -7607.2522 294.6179 -678.1761 -599.7164 30518.2729 -678.1761 -599.7164
ENERGY: 300000 0.6368 3.4357 3.0904 0.0000 -10893.8721 1513.3164 0.0000 0.0000 1765.3080 -7608.0848 298.2019 -9373.3928 -7581.3365 297.1069 360.4730 430.4843 30528.0201 -248.7835 -146.5838
ENERGY: 600000 2.4646 1.2466 1.1657 0.0000 -10857.5782 1495.6670 0.0000 0.0000 1768.5607 -7588.4736 298.7513 -9357.0343 -7574.2311 298.8319 178.8145 256.3253 30552.5691 -119.7193 -25.4077
ENERGY: 900000 2.1203 4.8028 3.8730 0.0000 -10817.4628 1468.3311 0.0000 0.0000 1763.1971 -7575.1386 297.8453 -9338.3357 -7562.9624 300.2115 26.2273 100.5223 30360.1263 -156.3345 -74.8594
ENERGY: 1200000 0.6656 1.6952 1.9347 0.0000 -10894.0884 1550.5974 0.0000 0.0000 1755.8077 -7583.3879 296.5971 -9339.1956 -7565.5222 300.3770 920.0675 962.3115 30003.2943 -129.7258 -58.3570
ENERGY: 1500000 1.4537 2.9950 3.1076 0.0000 -10883.3198 1532.0557 0.0000 0.0000 1774.5633 -7569.1444 299.7653 -9343.7078 -7562.8715 299.5591 349.1473 356.2119 30809.0268 -109.1812 -46.5172
TCL: Running FEP window  10: Lambda1 0.44999999999999996 Lambda2 0.49999999999999994 [dLambda 0.04999999999999999]
TCL: Setting parameter firsttimestep to 0
TCL: Setting parameter alchLambda to 0.44999999999999996
Info: NONBONDED TABLE R-SQUARED SPACING: 0.0625
Info: NONBONDED TABLE SIZE: 705 POINTS
TCL: Setting parameter alchLambda2 to 0.49999999999999994
Info: NONBONDED TABLE R-SQUARED SPACING: 0.0625
Info: NONBONDED TABLE SIZE: 705 POINTS
TCL: Running for 1500000 steps
ETITLE: TS BOND ANGLE DIHED IMPRP ELECT VDW BOUNDARY MISC KINETIC TOTAL TEMP POTENTIAL TOTALAVG TEMPAVG PRESSURE GPRESSURE VOLUME PRESSAVG GPRESSAVG
ENERGY: 0 1.4537 2.9950 3.1076 0.0000 -10883.3209 1532.2433 0.0000 0.0000 1773.6782 -7569.8432 299.6158 -9343.5214 -7569.8432 299.6158 287.0800 359.1341 30809.0268 287.0800 359.1341
ENERGY: 300000 1.2066 1.5104 1.4566 0.0000 -10789.6172 1481.3289 0.0000 0.0000 1762.9831 -7541.1317 297.8091 -9304.1148 -7567.1269 299.9610 276.6280 273.7819 30944.4283 -9.7407 50.3797
ENERGY: 600000 1.3784 4.8819 4.5596 0.0000 -10770.4544 1452.9854 0.0000 0.0000 1799.8859 -7506.7633 304.0429 -9306.6492 -7563.7770 300.1398 -49.0060 46.2824 30706.9033 -117.1584 -45.0586
ENERGY: 900000 0.5496 3.1752 0.9026 0.0000 -10767.2059 1452.2460 0.0000 0.0000 1767.8090 -7542.5235 298.6244 -9310.3325 -7555.4469 300.2466 -197.8219 -93.5712 31097.0144 -129.0838 -48.0245
ENERGY: 1200000 2.3507 0.6217 2.2945 0.0000 -10814.4133 1432.0774 0.0000 0.0000 1773.2943 -7603.7747 299.5510 -9377.0690 -7567.9464 300.4742 -517.4161 -482.5824 30871.7532 -116.3224 -42.6473
ENERGY: 1500000 2.9153 1.9276 0.5627 0.0000 -10769.2501 1412.4092 0.0000 0.0000 1796.2662 -7555.1690 303.4314 -9351.4352 -7560.5001 300.7249 -454.6655 -361.6068 30602.0100 -103.5367 -35.3969
TCL: Running FEP window  11: Lambda1 0.49999999999999994 Lambda2 0.5499999999999999 [dLambda 0.04999999999999999]
TCL: Setting parameter firsttimestep to 0
TCL: Setting parameter alchLambda to 0.49999999999999994
Info: NONBONDED TABLE R-SQUARED SPACING: 0.0625
Info: NONBONDED TABLE SIZE: 705 POINTS
TCL: Setting parameter alchLambda2 to 0.5499999999999999
Info: NONBONDED TABLE R-SQUARED SPACING: 0.0625
Info: NONBONDED TABLE SIZE: 705 POINTS
TCL: Running for 1500000 steps
ETITLE: TS BOND ANGLE DIHED IMPRP ELECT VDW BOUNDARY MISC KINETIC TOTAL TEMP POTENTIAL TOTALAVG TEMPAVG PRESSURE GPRESSURE VOLUME PRESSAVG GPRESSAVG
ENERGY: 0 2.9153 1.9276 0.5627 0.0000 -10769.2497 1413.2563 0.0000 0.0000 1795.4030 -7555.1847 303.2856 -9350.5877 -7555.1847 303.2856 -448.7223 -351.8053 30602.0100 -448.7223 -351.8053
ENERGY: 300000 1.2607 2.2559 3.9095 0.0000 -10679.6265 1303.9134 0.0000 0.0000 1776.3964 -7591.8906 300.0750 -9368.2870 -7564.8348 300.7378 -1405.9167 -1344.7766 31170.1254 -149.5584 -79.9760
ENERGY: 600000 2.6707 1.3789 2.5410 0.0000 -11012.8479 1621.5824 0.0000 0.0000 1721.2274 -7663.4474 290.7556 -9384.6749 -7579.1241 300.9220 1121.4376 1154.1380 30491.5041 -87.4040 -16.2110
ENERGY: 900000 1.5573 4.1353 1.9998 0.0000 -10710.4468 1402.6521 0.0000 0.0000 1693.6030 -7606.4993 286.0892 -9300.1023 -7560.8235 300.3527 -454.3915 -365.8002 30877.8876 -94.1668 -28.5164
ENERGY: 1200000 1.6069 1.5675 2.1745 0.0000 -10701.7335 1380.7369 0.0000 0.0000 1807.3892 -7508.2585 305.3104 -9315.6477 -7547.4470 300.5815 -638.1603 -631.2831 30831.8651 23.2707 83.2371
ENERGY: 1500000 0.5050 2.0868 2.7910 0.0000 -10743.8100 1428.9902 0.0000 0.0000 1780.2865 -7529.1505 300.7321 -9309.4370 -7539.1502 300.8816 -375.0140 -285.0598 30978.3969 -50.6648 13.8394
TCL: Running FEP window  12: Lambda1 0.5499999999999999 Lambda2 0.6    [dLambda 0.050000000000000044]
TCL: Setting parameter firsttimestep to 0
TCL: Setting parameter alchLambda to 0.5499999999999999
Info: NONBONDED TABLE R-SQUARED SPACING: 0.0625
Info: NONBONDED TABLE SIZE: 705 POINTS
TCL: Setting parameter alchLambda2 to 0.6
Info: NONBONDED TABLE R-SQUARED SPACING: 0.0625
Info: NONBONDED TABLE SIZE: 705 POINTS
TCL: Running for 1500000 steps
ETITLE: TS BOND ANGLE DIHED IMPRP ELECT VDW BOUNDARY MISC KINETIC TOTAL TEMP POTENTIAL TOTALAVG TEMPAVG PRESSURE GPRESSURE VOLUME PRESSAVG GPRESSAVG
ENERGY: 0 0.5050 2.0868 2.7910 0.0000 -10743.6853 1429.5466 0.0000 0.0000 1779.4033 -7529.3526 300.5829 -9308.7558 -7529.3526 300.5829 -355.9242 -274.4299 30978.3969 -355.9242 -274.4299
ENERGY: 300000 1.1386 4.4182 1.6127 0.0000 -10747.6696 1407.7282 0.0000 0.0000 1733.6103 -7599.1617 292.8474 -9332.7720 -7520.7924 299.2051 -471.6122 -398.1903 30744.0115 -23.5778 56.8669
ENERGY: 600000 1.0482 2.7036 2.4382 0.0000 -10734.3445 1437.6463 0.0000 0.0000 1741.6225 -7548.8858 294.2008 -9290.5083 -7542.3896 298.0608 -109.6005 -38.5051 30709.7414 59.5263 132.7197
ENERGY: 900000 3.0256 3.1307 2.2002 0.0000 -10640.7953 1383.2078 0.0000 0.0000 1776.0700 -7473.1611 300.0198 -9249.2310 -7539.6545 298.6522 -310.2441 -262.0780 30458.8594 -40.1392 29.0888
ENERGY: 1200000 2.5779 3.6645 1.2900 0.0000 -10859.0475 1468.7123 0.0000 0.0000 1762.4715 -7620.3313 297.7227 -9382.8028 -7539.7888 299.1687 47.4195 31.5976 30508.3463 -25.4860 38.3709
ENERGY: 1500000 6.0462 3.1141 1.1784 0.0000 -10788.5052 1452.5876 0.0000 0.0000 1785.3995 -7540.1794 301.5958 -9325.5789 -7549.9585 298.9541 -327.6886 -304.5613 31051.6970 -3.3123 57.3896
TCL: Running FEP window  13: Lambda1 0.6    Lambda2 0.65   [dLambda 0.050000000000000044]
TCL: Setting parameter firsttimestep to 0
TCL: Setting parameter alchLambda to 0.6
Info: NONBONDED TABLE R-SQUARED SPACING: 0.0625
Info: NONBONDED TABLE SIZE: 705 POINTS
TCL: Setting parameter alchLambda2 to 0.65
Info: NONBONDED TABLE R-SQUARED SPACING: 0.0625
Info: NONBONDED TABLE SIZE: 705 POINTS
TCL: Running for 1500000 steps
ETITLE: TS BOND ANGLE DIHED IMPRP ELECT VDW BOUNDARY MISC KINETIC TOTAL TEMP POTENTIAL TOTALAVG TEMPAVG PRESSURE GPRESSURE VOLUME PRESSAVG GPRESSAVG
ENERGY: 0 6.0462 3.1141 1.1784 0.0000 -10788.2213 1452.3644 0.0000 0.0000 1784.5269 -7540.9913 301.4484 -9325.5181 -7540.9913 301.4484 -393.7478 -304.5199 31051.6970 -393.7478 -304.5199
ENERGY: 300000 0.3283 2.9649 1.4344 0.0000 -10806.8850 1497.2363 0.0000 0.0000 1750.4370 -7554.4842 295.6898 -9304.9212 -7573.6502 296.0096 381.3497 440.2526 30458.0128 82.5508 159.2735
ENERGY: 600000 1.2839 2.0034 3.8943 0.0000 -10859.5550 1488.7647 0.0000 0.0000 1781.8499 -7581.7588 300.9962 -9363.6086 -7584.8838 298.0518 219.6711 188.9509 30767.4114 189.3053 247.8915
ENERGY: 900000 1.4784 1.1814 0.7080 0.0000 -10984.3637 1557.7316 0.0000 0.0000 1768.9664 -7654.2979 298.8199 -9423.2642 -7581.3964 298.9833 728.6538 791.0447 30375.3127 335.6024 398.4018
ENERGY: 1200000 1.2065 3.0371 2.8060 0.0000 -10749.5384 1404.9254 0.0000 0.0000 1787.7497 -7549.8138 301.9928 -9337.5635 -7569.5847 299.1325 -391.6305 -311.9230 30587.8064 215.6717 275.7875
ENERGY: 1500000 3.4430 2.4271 2.5995 0.0000 -10753.5706 1425.1490 0.0000 0.0000 1753.5016 -7566.4504 296.2075 -9319.9521 -7559.0607 299.4431 -340.9387 -346.7098 30971.8292 156.7641 212.8128
TCL: Running FEP window  14: Lambda1 0.65   Lambda2 0.7000000000000001 [dLambda 0.050000000000000044]
TCL: Setting parameter firsttimestep to 0
TCL: Setting parameter alchLambda to 0.65
Info: NONBONDED TABLE R-SQUARED SPACING: 0.0625
Info: NONBONDED TABLE SIZE: 705 POINTS
TCL: Setting parameter alchLambda2 to 0.7000000000000001
Info: NONBONDED TABLE R-SQUARED SPACING: 0.0625
Info: NONBONDED TABLE SIZE: 705 POINTS
TCL: Running for 1500000 steps
ETITLE: TS BOND ANGLE DIHED IMPRP ELECT VDW BOUNDARY MISC KINETIC TOTAL TEMP POTENTIAL TOTALAVG TEMPAVG PRESSURE GPRESSURE VOLUME PRESSAVG GPRESSAVG
ENERGY: 0 3.4429 2.4271 2.5995 0.0000 -10753.9251 1425.2122 0.0000 0.0000 1752.6131 -7567.6304 296.0574 -9320.2434 -7567.6304 296.0574 -430.5263 -340.3656 30971.8292 -430.5263 -340.3656
ENERGY: 300000 1.8857 3.7470 1.6872 0.0000 -10767.0004 1366.6967 0.0000 0.0000 1813.2684 -7579.7153 306.3035 -9392.9837 -7537.7160 299.2460 -763.2726 -686.9254 30512.9801 -262.5511 -174.8970
ENERGY: 600000 1.3838 3.6914 0.8288 0.0000 -10814.8058 1460.8831 0.0000 0.0000 1735.1739 -7612.8449 293.1115 -9348.0188 -7551.7549 297.8042 62.2093 110.7299 30599.6274 -139.3295 -58.5764
ENERGY: 900000 1.0708 2.5391 2.4406 0.0000 -10855.4202 1464.5244 0.0000 0.0000 1804.6243 -7580.2210 304.8433 -9384.8454 -7555.5978 298.2746 -151.0437 -74.1307 30699.8983 -108.3021 -29.1905
ENERGY: 1200000 1.1148 3.3259 3.5449 0.0000 -10863.0017 1461.2773 0.0000 0.0000 1770.3657 -7623.3731 299.0563 -9393.7388 -7562.5624 297.5861 143.0466 122.0915 30331.5694 -33.4443 33.4166
ENERGY: 1500000 1.3911 2.6896 2.5131 0.0000 -10773.3122 1446.6162 0.0000 0.0000 1765.1087 -7554.9934 298.1682 -9320.1021 -7560.7560 297.5989 -104.9096 -33.3171 30450.1070 0.8605 59.2108
TCL: Running FEP window  15: Lambda1 0.7000000000000001 Lambda2 0.7500000000000001 [dLambda 0.050000000000000044]
TCL: Setting parameter firsttimestep to 0
TCL: Setting parameter alchLambda to 0.7000000000000001
Info: NONBONDED TABLE R-SQUARED SPACING: 0.0625
Info: NONBONDED TABLE SIZE: 705 POINTS
TCL: Setting parameter alchLambda2 to 0.7500000000000001
Info: NONBONDED TABLE R-SQUARED SPACING: 0.0625
Info: NONBONDED TABLE SIZE: 705 POINTS
TCL: Running for 1500000 steps
ETITLE: TS BOND ANGLE DIHED IMPRP ELECT VDW BOUNDARY MISC KINETIC TOTAL TEMP POTENTIAL TOTALAVG TEMPAVG PRESSURE GPRESSURE VOLUME PRESSAVG GPRESSAVG
ENERGY: 0 1.3911 2.6896 2.5131 0.0000 -10773.3522 1447.1032 0.0000 0.0000 1764.2343 -7555.4209 298.0205 -9319.6552 -7555.4209 298.0205 -108.9428 -21.9905 30450.1070 -108.9428 -21.9905
ENERGY: 300000 3.4289 2.1912 1.8484 0.0000 -10622.6794 1368.7761 0.0000 0.0000 1777.8457 -7468.5891 300.3198 -9246.4348 -7530.0557 302.4386 -432.8539 -409.0124 30857.1500 -103.5779 -57.4685
ENERGY: 600000 1.2601 3.1053 1.7574 0.0000 -10830.7267 1492.6665 0.0000 0.0000 1785.3383 -7546.5990 301.5855 -9331.9373 -7544.0606 301.0403 377.7222 444.5712 30722.7529 -226.9346 -176.2671
ENERGY: 900000 0.7843 4.3053 5.1310 0.0000 -10787.2744 1437.1437 0.0000 0.0000 1821.3082 -7518.6018 307.6616 -9339.9101 -7551.2465 301.3717 -67.9697 6.4425 30870.7444 -196.3195 -142.7642
ENERGY: 1200000 0.8380 1.7196 1.3890 0.0000 -10843.1776 1435.8152 0.0000 0.0000 1756.4053 -7647.0104 296.6980 -9403.4157 -7551.4951 300.5823 -147.5233 -148.4842 30428.4616 -146.9620 -99.6178
ENERGY: 1500000 0.5527 4.7927 2.2793 0.0000 -10769.7064 1478.2129 0.0000 0.0000 1729.2253 -7554.6436 292.1067 -9283.8688 -7555.7559 300.4711 179.2352 242.1558 30947.1018 -134.1996 -85.9421
TCL: Running FEP window  16: Lambda1 0.7500000000000001 Lambda2 0.8000000000000002 [dLambda 0.050000000000000044]
TCL: Setting parameter firsttimestep to 0
TCL: Setting parameter alchLambda to 0.7500000000000001
Info: NONBONDED TABLE R-SQUARED SPACING: 0.0625
Info: NONBONDED TABLE SIZE: 705 POINTS
TCL: Setting parameter alchLambda2 to 0.8000000000000002
Info: NONBONDED TABLE R-SQUARED SPACING: 0.0625
Info: NONBONDED TABLE SIZE: 705 POINTS
TCL: Running for 1500000 steps
ETITLE: TS BOND ANGLE DIHED IMPRP ELECT VDW BOUNDARY MISC KINETIC TOTAL TEMP POTENTIAL TOTALAVG TEMPAVG PRESSURE GPRESSURE VOLUME PRESSAVG GPRESSAVG
ENERGY: 0 0.5527 4.7927 2.2793 0.0000 -10770.7015 1478.0867 0.0000 0.0000 1728.3274 -7556.6628 291.9550 -9284.9901 -7556.6628 291.9550 162.4832 242.9215 30947.1018 162.4832 242.9215
ENERGY: 300000 1.3358 4.4118 3.6096 0.0000 -10813.2699 1437.1725 0.0000 0.0000 1862.0536 -7504.6865 314.5445 -9366.7401 -7557.2051 299.4326 192.7550 177.3440 30457.6272 119.3188 154.3064
ENERGY: 600000 3.2681 2.3327 2.4309 0.0000 -10728.4378 1388.3102 0.0000 0.0000 1817.2984 -7514.7976 306.9843 -9332.0959 -7566.4206 299.4060 -681.9191 -592.8412 31169.1588 -197.0758 -135.6288
ENERGY: 900000 0.8122 1.8686 2.3707 0.0000 -10807.4721 1416.6663 0.0000 0.0000 1712.8400 -7672.9144 289.3388 -9385.7544 -7565.7831 298.4401 -333.8475 -262.1781 30285.4031 -243.7747 -177.9897
ENERGY: 1200000 1.6703 2.0068 0.9161 0.0000 -10786.8275 1448.5403 0.0000 0.0000 1748.0581 -7585.6359 295.2880 -9333.6940 -7572.0725 299.0667 -60.7097 11.8116 30858.6892 -265.5456 -199.1244
ENERGY: 1500000 1.4655 1.5158 3.5580 0.0000 -10820.6213 1415.5355 0.0000 0.0000 1812.4191 -7586.1275 306.1600 -9398.5466 -7566.8795 299.7235 -704.1357 -609.5038 30941.3118 -280.1540 -206.8271
TCL: Running FEP window  17: Lambda1 0.8000000000000002 Lambda2 0.8500000000000002 [dLambda 0.050000000000000044]
TCL: Setting parameter firsttimestep to 0
TCL: Setting parameter alchLambda to 0.8000000000000002
Info: NONBONDED TABLE R-SQUARED SPACING: 0.0625
Info: NONBONDED TABLE SIZE: 705 POINTS
TCL: Setting parameter alchLambda2 to 0.8500000000000002
Info: NONBONDED TABLE R-SQUARED SPACING: 0.0625
Info: NONBONDED TABLE SIZE: 705 POINTS
TCL: Running for 1500000 steps
ETITLE: TS BOND ANGLE DIHED IMPRP ELECT VDW BOUNDARY MISC KINETIC TOTAL TEMP POTENTIAL TOTALAVG TEMPAVG PRESSURE GPRESSURE VOLUME PRESSAVG GPRESSAVG
ENERGY: 0 1.4655 1.5158 3.5580 0.0000 -10820.6927 1415.2121 0.0000 0.0000 1811.5289 -7587.4124 306.0097 -9398.9413 -7587.4124 306.0097 -700.7414 -608.1991 30941.3118 -700.7414 -608.1991
ENERGY: 300000 1.5389 0.9511 3.8187 0.0000 -10712.4323 1407.8549 0.0000 0.0000 1725.3459 -7572.9228 291.4513 -9298.2688 -7580.9796 298.4474 -4.4580 93.6334 30021.8910 -119.3799 -51.0653
ENERGY: 600000 2.9567 2.5043 3.1829 0.0000 -10769.1250 1397.8585 0.0000 0.0000 1757.2528 -7605.3698 296.8412 -9362.6226 -7593.8595 296.2496 -510.3321 -444.3509 30454.3749 -33.1428 18.8598
ENERGY: 900000 2.9216 2.3902 2.5381 0.0000 -10708.2717 1431.9861 0.0000 0.0000 1808.4325 -7460.0032 305.4866 -9268.4357 -7581.8597 296.7410 0.2624 93.0558 30498.4363 35.6192 95.5978
ENERGY: 1200000 3.3095 2.5238 0.5747 0.0000 -10782.9013 1528.3731 0.0000 0.0000 1810.9059 -7437.2143 305.9044 -9248.1202 -7568.3067 298.3170 999.5690 1050.4558 30408.4005 140.0272 188.8202
ENERGY: 1500000 2.3222 2.1924 1.4853 0.0000 -10669.2009 1378.6893 0.0000 0.0000 1831.8630 -7452.6488 309.4446 -9284.5118 -7555.0252 299.2492 -540.7237 -459.8557 30934.8882 54.7477 107.8292
TCL: Running FEP window  18: Lambda1 0.8500000000000002 Lambda2 0.9000000000000002 [dLambda 0.050000000000000044]
TCL: Setting parameter firsttimestep to 0
TCL: Setting parameter alchLambda to 0.8500000000000002
Info: NONBONDED TABLE R-SQUARED SPACING: 0.0625
Info: NONBONDED TABLE SIZE: 705 POINTS
TCL: Setting parameter alchLambda2 to 0.9000000000000002
Info: NONBONDED TABLE R-SQUARED SPACING: 0.0625
Info: NONBONDED TABLE SIZE: 705 POINTS
TCL: Running for 1500000 steps
ETITLE: TS BOND ANGLE DIHED IMPRP ELECT VDW BOUNDARY MISC KINETIC TOTAL TEMP POTENTIAL TOTALAVG TEMPAVG PRESSURE GPRESSURE VOLUME PRESSAVG GPRESSAVG
ENERGY: 0 2.3222 2.1924 1.4853 0.0000 -10669.5410 1379.0486 0.0000 0.0000 1830.9879 -7453.5047 309.2968 -9284.4926 -7453.5047 309.2968 -533.3398 -446.8765 30934.8882 -533.3398 -446.8765
ENERGY: 300000 0.7886 4.8003 2.7368 0.0000 -10852.6987 1493.9145 0.0000 0.0000 1810.7514 -7539.7070 305.8783 -9350.4585 -7508.3227 303.7158 280.5003 337.5323 30634.0946 181.9415 249.5800
ENERGY: 600000 1.0732 1.7936 3.9044 0.0000 -10658.1865 1399.2543 0.0000 0.0000 1790.1162 -7462.0449 302.3926 -9252.1610 -7531.0335 302.2942 -266.3166 -217.2318 30856.5359 22.9942 84.7040
ENERGY: 900000 1.1675 1.8158 1.7443 0.0000 -10653.6200 1306.5155 0.0000 0.0000 1818.0561 -7524.3209 307.1123 -9342.3770 -7537.7473 302.1871 -1063.9136 -1007.3197 30685.9177 -209.5451 -143.8902
ENERGY: 1200000 0.9648 3.2501 0.9816 0.0000 -10844.0789 1515.1951 0.0000 0.0000 1753.0153 -7570.6720 296.1254 -9323.6873 -7548.1756 301.1760 459.2281 558.4361 30709.0652 -104.0982 -42.0855
ENERGY: 1500000 0.5569 1.9524 2.5816 0.0000 -10712.8747 1386.2566 0.0000 0.0000 1750.8977 -7570.6296 295.7676 -9321.5273 -7547.0465 300.2414 -483.0724 -474.3953 30755.7779 -128.9619 -69.2130
TCL: Running FEP window  19: Lambda1 0.9000000000000002 Lambda2 0.9500000000000003 [dLambda 0.050000000000000044]
TCL: Setting parameter firsttimestep to 0
TCL: Setting parameter alchLambda to 0.9000000000000002
Info: NONBONDED TABLE R-SQUARED SPACING: 0.0625
Info: NONBONDED TABLE SIZE: 705 POINTS
TCL: Setting parameter alchLambda2 to 0.9500000000000003
Info: NONBONDED TABLE R-SQUARED SPACING: 0.0625
Info: NONBONDED TABLE SIZE: 705 POINTS
TCL: Running for 1500000 steps
ETITLE: TS BOND ANGLE DIHED IMPRP ELECT VDW BOUNDARY MISC KINETIC TOTAL TEMP POTENTIAL TOTALAVG TEMPAVG PRESSURE GPRESSURE VOLUME PRESSAVG GPRESSAVG
ENERGY: 0 0.5569 1.9524 2.5816 0.0000 -10713.4036 1386.9950 0.0000 0.0000 1749.9874 -7571.3304 295.6139 -9321.3178 -7571.3304 295.6139 -541.9208 -459.8348 30755.7779 -541.9208 -459.8348
ENERGY: 300000 2.1937 3.8743 1.8605 0.0000 -10746.9802 1470.7667 0.0000 0.0000 1754.7949 -7513.4901 296.4260 -9268.2850 -7574.7334 299.1497 415.6081 458.5507 30689.8747 47.7967 105.6746
ENERGY: 600000 2.3384 1.2475 1.1456 0.0000 -10852.5067 1464.9006 0.0000 0.0000 1774.3140 -7608.5605 299.7232 -9382.8745 -7572.8117 299.3382 129.9311 169.0600 30419.3467 50.6836 115.8439
ENERGY: 900000 1.7973 4.7128 4.8143 0.0000 -10757.1485 1429.3147 0.0000 0.0000 1754.4487 -7562.0608 296.3675 -9316.5094 -7575.7996 299.1363 -316.8785 -306.2364 30917.0246 49.6900 95.6844
ENERGY: 1200000 1.4279 3.7078 1.7449 0.0000 -10783.2740 1454.6394 0.0000 0.0000 1837.0940 -7484.6599 310.3282 -9321.7539 -7558.6301 299.6474 155.0156 195.5648 30687.6233 124.1348 172.4958
ENERGY: 1500000 1.0700 1.0244 3.3479 0.0000 -10887.3441 1517.3880 0.0000 0.0000 1799.6863 -7564.8275 304.0092 -9364.5138 -7560.5363 300.2382 712.8243 708.8490 30174.3140 166.9642 216.5094
TCL: Running FEP window  20: Lambda1 0.9500000000000003 Lambda2 1.0    [dLambda 0.04999999999999971]
TCL: Setting parameter firsttimestep to 0
TCL: Setting parameter alchLambda to 0.9500000000000003
Info: NONBONDED TABLE R-SQUARED SPACING: 0.0625
Info: NONBONDED TABLE SIZE: 705 POINTS
TCL: Setting parameter alchLambda2 to 1.0
Info: NONBONDED TABLE R-SQUARED SPACING: 0.0625
Info: NONBONDED TABLE SIZE: 705 POINTS
TCL: Running for 1500000 steps
ETITLE: TS BOND ANGLE DIHED IMPRP ELECT VDW BOUNDARY MISC KINETIC TOTAL TEMP POTENTIAL TOTALAVG TEMPAVG PRESSURE GPRESSURE VOLUME PRESSAVG GPRESSAVG
ENERGY: 0 1.0700 1.0244 3.3479 0.0000 -10887.8694 1518.1245 0.0000 0.0000 1798.7880 -7565.5146 303.8574 -9364.3027 -7565.5146 303.8574 649.7041 731.8709 30174.3140 649.7041 731.8709
ENERGY: 300000 2.3334 3.7857 1.8298 0.0000 -10843.1859 1522.4749 0.0000 0.0000 1776.5275 -7536.2345 300.0971 -9312.7621 -7543.9608 300.6481 733.8189 765.8963 30332.9935 496.9632 564.9811
ENERGY: 600000 0.7820 1.1114 2.2476 0.0000 -10784.0507 1455.6929 0.0000 0.0000 1727.3732 -7596.8436 291.7938 -9324.2168 -7555.9744 298.7228 -195.9224 -38.6043 30851.8697 122.2143 220.4509
ENERGY: 900000 0.7615 1.7537 5.5403 0.0000 -10695.8671 1390.4470 0.0000 0.0000 1758.4620 -7538.9026 297.0454 -9297.3646 -7555.4599 298.4805 -434.3293 -354.8474 30680.0325 69.3894 176.6971
ENERGY: 1200000 1.9471 2.9092 3.0584 0.0000 -10848.7358 1470.5061 0.0000 0.0000 1724.1209 -7646.1942 291.2444 -9370.3151 -7563.5183 298.0319 -11.1088 57.2728 30572.5034 113.9609 211.6128
ENERGY: 1500000 0.9168 3.2504 1.8174 0.0000 -10758.2550 1476.2282 0.0000 0.0000 1738.7754 -7537.2666 293.7199 -9276.0421 -7562.5948 297.7064 479.4881 543.8504 30356.0252 48.9332 140.6782
TCL: Exiting due to exit command.
