Info: SIMULATION PARAMETERS:
Info: TIMESTEP               2
Info: NUMBER OF STEPS        0
Info: STEPS PER CYCLE        10
Info: PERIODIC CELL BASIS 1  39.806 0 0
Info: PERIODIC CELL BASIS 2  0 37.835 0
Info: PERIODIC CELL BASIS 3  0 0 42.04
Info: PERIODIC CELL CENTER   0 0 0
Info: WRAPPING WATERS AROUND PERIODIC BOUNDARIES ON OUTPUT.
Info: WRAPPING ALL CLUSTERS AROUND PERIODIC BOUNDARIES ON OUTPUT.
Info: FIRST LDB TIMESTEP     50
Info: LAST LDB TIMESTEP     -1
Info: HOM BACKGROUND SCALING 1
Info: PME BACKGROUND SCALING 1
Info: MIN ATOMS PER PATCH    40
Info: EMPTY PATCH LOAD       40 ATOMS
Info: INITIAL TEMPERATURE    300
Info: CENTER OF MASS MOVING INITIALLY? NO
Info: DIELECTRIC             1
Info: EXCLUDE                SCALED ONE-FOUR
Info: 1-4 ELECTROSTATICS SCALED BY 0.833333
Info: MODIFIED 1-4 VDW PARAMETERS WILL BE USED
Info: DCD FILENAME           mobley_7608462_min.dcd
Info: DCD FREQUENCY          5000
Info: DCD FIRST STEP         5000
Info: DCD FILE WILL CONTAIN UNIT CELL DATA
Info: XST FILENAME           mobley_7608462_min.xst
Info: XST FREQUENCY          5000
Info: NO VELOCITY DCD OUTPUT
Info: NO FORCE DCD OUTPUT
Info: OUTPUT FILENAME        mobley_7608462_min
Info: BINARY OUTPUT FILES WILL BE USED
Info: RESTART FILENAME       mobley_7608462_min.restart
Info: RESTART FREQUENCY      5000
Info: BINARY RESTART FILES WILL BE USED
Info: CUTOFF                 9
Info: PAIRLIST DISTANCE      11
Info: PAIRLIST SHRINK RATE   0.01
Info: PAIRLIST GROW RATE     0.01
Info: PAIRLIST TRIGGER       0.3
Info: PAIRLISTS PER CYCLE    2
Info: PAIRLISTS ENABLED
Info: MARGIN                 8
Info: HYDROGEN GROUP CUTOFF  2.5
Info: PATCH DIMENSION        21.5
Info: ENERGY OUTPUT STEPS    5000
Info: ENERGY EVALUATION STEPS    5000
Info: OUTPUT ENERGY PRECISION 4
Info: CROSSTERM ENERGY INCLUDED IN DIHEDRAL
Info: TIMING OUTPUT STEPS    50000
Info: PRESSURE OUTPUT STEPS  5000
Info: LANGEVIN DYNAMICS ACTIVE
Info: LANGEVIN TEMPERATURE   300
Info: LANGEVIN USING BBK INTEGRATOR
Info: LANGEVIN DAMPING COEFFICIENT IS 1 INVERSE PS
Info: LANGEVIN DYNAMICS APPLIED TO HYDROGENS
Info: LANGEVIN PISTON PRESSURE CONTROL ACTIVE
Info:        TARGET PRESSURE IS 1.01325 BAR
Info:     OSCILLATION PERIOD IS 50 FS
Info:             DECAY TIME IS 25 FS
Info:     PISTON TEMPERATURE IS 300 K
Info:       PRESSURE CONTROL IS GROUP-BASED
Info:    INITIAL STRAIN RATE IS 0 0 0
Info:       CELL FLUCTUATION IS ISOTROPIC
Info: PARTICLE MESH EWALD (PME) ACTIVE
Info: PME TOLERANCE               1e-06
Info: PME EWALD COEFFICIENT       0.348832
Info: PME INTERPOLATION ORDER     4
Info: PME GRID DIMENSIONS         40 40 44
Info: PME MAXIMUM GRID SPACING    1
Info: FULL ELECTROSTATIC EVALUATION FREQUENCY      2
Info: USING VERLET I (r-RESPA) MTS SCHEME.
Info: C1 SPLITTING OF LONG RANGE ELECTROSTATICS
Info: PLACING ATOMS IN PATCHES BY HYDROGEN GROUPS
Info: RIGID BONDS TO HYDROGEN : ALL
Info:         ERROR TOLERANCE : 1e-08
Info:          MAX ITERATIONS : 100
Info: RIGID WATER USING SETTLE ALGORITHM
Info: RANDOM NUMBER SEED     1741395400
Info: USE HYDROGEN BONDS?    NO
Info: Using AMBER format force field!
Info: AMBER PARM FILE        mobley_7608462.prmtop
Info: COORDINATE PDB         mobley_7608462.pdb
Info: Exclusions will be read from PARM file!
Info: SCNB (VDW SCALING)     2
Info: USING ARITHMETIC MEAN TO COMBINE L-J SIGMA PARAMETERS
Info: SUMMARY OF PARAMETERS:
Info: 5 BONDS
Info: 3 ANGLES
Info:   3 HARMONIC
Info:   0 COSINE-BASED
Info: 2 DIHEDRAL
Info: 0 IMPROPER
Info: 0 CROSSTERM
Info: 0 VDW
Info: 15 VDW_PAIRS
Info: 0 NBTHOLE_PAIRS
Info: STRUCTURE SUMMARY:
Info: 4578 ATOMS
Info: 4578 BONDS
Info: 18 ANGLES
Info: 30 DIHEDRALS
Info: 0 IMPROPERS
Info: 0 CROSSTERMS
Info: 4617 EXCLUSIONS
Info: 4571 RIGID BONDS
Info: 9163 DEGREES OF FREEDOM
Info: 1529 HYDROGEN GROUPS
Info: 3 ATOMS IN LARGEST HYDROGEN GROUP
Info: 1529 MIGRATION GROUPS
Info: 3 ATOMS IN LARGEST MIGRATION GROUP
Info: TOTAL MASS = 27532.9 amu
Info: TOTAL CHARGE = 9.99775e-05 e
Info: MASS DENSITY = 0.722115 g/cm^3
Info: ATOM DENSITY = 0.0723054 atoms/A^3
Info: ADDED 0 IMPLICIT EXCLUSIONS
Info: NONBONDED TABLE R-SQUARED SPACING: 0.0625
Info: NONBONDED TABLE SIZE: 705 POINTS
Info: REMOVING COM VELOCITY 0.0131948 0.0678741 0.163472
TCL: Minimizing for 2000 steps
ETITLE: TS BOND ANGLE DIHED IMPRP ELECT VDW BOUNDARY MISC KINETIC TOTAL TEMP POTENTIAL TOTAL3 TEMPAVG PRESSURE GPRESSURE VOLUME PRESSAVG GPRESSAVG
ENERGY: 0 0.2778 0.0556 0.0001 0.0000 -14261.9064 1653.5974 0.0000 0.0000 0.0000 -12607.9755 0.0000 -12607.9755 -12607.9755 0.0000 11299.3670 -15647.1306 63314.7628 11299.3670 -15647.1306
ENERGY: 400 2.2364 1.1572 0.0347 0.0000 -18978.4727 2656.8253 0.0000 0.0000 0.0000 -16318.2191 0.0000 -16318.2191 -16318.2191 0.0000 15085.1540 14949.7008 63314.7628 15085.1540 14949.7008
ENERGY: 800 1.3476 0.2749 0.0285 0.0000 -20094.2779 3198.8896 0.0000 0.0000 0.0000 -16893.7373 0.0000 -16893.7373 -16893.7373 0.0000 17779.2096 17528.7423 63314.7628 17779.2096 17528.7423
ENERGY: 1200 0.5390 0.2058 0.1181 0.0000 -20523.7698 3364.7719 0.0000 0.0000 0.0000 -17158.1349 0.0000 -17158.1349 -17158.1349 0.0000 18619.6462 18324.3811 63314.7628 18619.6462 18324.3811
ENERGY: 1600 0.2292 0.1333 0.0657 0.0000 -20770.3144 3469.9625 0.0000 0.0000 0.0000 -17299.9238 0.0000 -17299.9238 -17299.9238 0.0000 19227.3873 18956.1520 63314.7628 19227.3873 18956.1520
ENERGY: 2000 0.2710 0.1008 0.0503 0.0000 -20928.8033 3540.6209 0.0000 0.0000 0.0000 -17387.7604 0.0000 -17387.7604 -17387.7604 0.0000 19632.1184 19381.3208 63314.7628 19632.1184 19381.3208
TCL: Exiting due to exit command.
Info: NAMD 3.0.1 for Linux-x86_64-multicore
Info: Please visit http://www.ks.uiuc.edu/Research/namd/
Info: for updates, documentation, and support information.
Info: Please cite Phillips et al., J. Chem. Phys. 153:044130 (2020) doi:10.1063/5.0014475
Info: in all publications reporting results obtained with NAMD.
Info: Based on Charm++/Converse 80000 for multicore-linux-x86_64-gcc
Info: Built Mon Oct 14 11:11:06 CDT 2024 by dhardy on athine.ks.uiuc.edu
Info: 1 NAMD  3.0.1  Linux-x86_64-multicore  16    k012  z5358697
Info: Running on 16 processors, 1 nodes, 1 physical nodes.
Info: CPU topology information available.
Info: Charm++/Converse parallel runtime startup completed at 0.00949804 s
Info: 1043.45 MB of memory in use based on /proc/self/stat
Info: Configuration file is mobley_7608462_equil.namd
Info: Working in the current directory /srv/scratch/z5358697/prod_prep_9/7608462
TCL: Running 25000 steps at 30 kelvin.
TCL: Suspending until startup complete.
Info: SIMULATION PARAMETERS:
Info: TIMESTEP               2
Info: NUMBER OF STEPS        0
Info: STEPS PER CYCLE        10
Info: PERIODIC CELL BASIS 1  39.806 0 0
Info: PERIODIC CELL BASIS 2  0 37.835 0
Info: PERIODIC CELL BASIS 3  0 0 42.04
Info: PERIODIC CELL CENTER   0 0 0
Info: WRAPPING WATERS AROUND PERIODIC BOUNDARIES ON OUTPUT.
Info: WRAPPING ALL CLUSTERS AROUND PERIODIC BOUNDARIES ON OUTPUT.
Info: FIRST LDB TIMESTEP     50
Info: LAST LDB TIMESTEP     -1
Info: HOM BACKGROUND SCALING 1
Info: PME BACKGROUND SCALING 1
Info: MIN ATOMS PER PATCH    40
Info: EMPTY PATCH LOAD       40 ATOMS
Info: INITIAL TEMPERATURE    300
Info: CENTER OF MASS MOVING INITIALLY? NO
Info: DIELECTRIC             1
Info: EXCLUDE                SCALED ONE-FOUR
Info: 1-4 ELECTROSTATICS SCALED BY 0.833333
Info: MODIFIED 1-4 VDW PARAMETERS WILL BE USED
Info: DCD FILENAME           mobley_7608462_equil.dcd
Info: DCD FREQUENCY          5000
Info: DCD FIRST STEP         5000
Info: DCD FILE WILL CONTAIN UNIT CELL DATA
Info: XST FILENAME           mobley_7608462_equil.xst
Info: XST FREQUENCY          5000
Info: NO VELOCITY DCD OUTPUT
Info: NO FORCE DCD OUTPUT
Info: OUTPUT FILENAME        mobley_7608462_equil
Info: BINARY OUTPUT FILES WILL BE USED
Info: RESTART FILENAME       mobley_7608462_equil.restart
Info: RESTART FREQUENCY      5000
Info: BINARY RESTART FILES WILL BE USED
Info: CUTOFF                 9
Info: PAIRLIST DISTANCE      11
Info: PAIRLIST SHRINK RATE   0.01
Info: PAIRLIST GROW RATE     0.01
Info: PAIRLIST TRIGGER       0.3
Info: PAIRLISTS PER CYCLE    2
Info: PAIRLISTS ENABLED
Info: MARGIN                 8
Info: HYDROGEN GROUP CUTOFF  2.5
Info: PATCH DIMENSION        21.5
Info: ENERGY OUTPUT STEPS    5000
Info: ENERGY EVALUATION STEPS    5000
Info: OUTPUT ENERGY PRECISION 4
Info: CROSSTERM ENERGY INCLUDED IN DIHEDRAL
Info: TIMING OUTPUT STEPS    50000
Info: PRESSURE OUTPUT STEPS  5000
Info: LANGEVIN DYNAMICS ACTIVE
Info: LANGEVIN TEMPERATURE   30
Info: LANGEVIN USING BBK INTEGRATOR
Info: LANGEVIN DAMPING COEFFICIENT IS 1 INVERSE PS
Info: LANGEVIN DYNAMICS APPLIED TO HYDROGENS
Info: LANGEVIN PISTON PRESSURE CONTROL ACTIVE
Info:        TARGET PRESSURE IS 1.01325 BAR
Info:     OSCILLATION PERIOD IS 50 FS
Info:             DECAY TIME IS 25 FS
Info:     PISTON TEMPERATURE IS 300 K
Info:       PRESSURE CONTROL IS GROUP-BASED
Info:    INITIAL STRAIN RATE IS 0 0 0
Info:       CELL FLUCTUATION IS ISOTROPIC
Info: PARTICLE MESH EWALD (PME) ACTIVE
Info: PME TOLERANCE               1e-06
Info: PME EWALD COEFFICIENT       0.348832
Info: PME INTERPOLATION ORDER     4
Info: PME GRID DIMENSIONS         40 40 44
Info: PME MAXIMUM GRID SPACING    1
Info: FULL ELECTROSTATIC EVALUATION FREQUENCY      2
Info: USING VERLET I (r-RESPA) MTS SCHEME.
Info: C1 SPLITTING OF LONG RANGE ELECTROSTATICS
Info: PLACING ATOMS IN PATCHES BY HYDROGEN GROUPS
Info: RIGID BONDS TO HYDROGEN : ALL
Info:         ERROR TOLERANCE : 1e-08
Info:          MAX ITERATIONS : 100
Info: RIGID WATER USING SETTLE ALGORITHM
Info: RANDOM NUMBER SEED     1741395413
Info: USE HYDROGEN BONDS?    NO
Info: Using AMBER format force field!
Info: AMBER PARM FILE        mobley_7608462.prmtop
Info: COORDINATE PDB         mobley_7608462.pdb
Info: Exclusions will be read from PARM file!
Info: SCNB (VDW SCALING)     2
Info: USING ARITHMETIC MEAN TO COMBINE L-J SIGMA PARAMETERS
Info: BINARY COORDINATES     mobley_7608462_min.coor
Info: SUMMARY OF PARAMETERS:
Info: 5 BONDS
Info: 3 ANGLES
Info:   3 HARMONIC
Info:   0 COSINE-BASED
Info: 2 DIHEDRAL
Info: 0 IMPROPER
Info: 0 CROSSTERM
Info: 0 VDW
Info: 15 VDW_PAIRS
Info: 0 NBTHOLE_PAIRS
Info: STRUCTURE SUMMARY:
Info: 4578 ATOMS
Info: 4578 BONDS
Info: 18 ANGLES
Info: 30 DIHEDRALS
Info: 0 IMPROPERS
Info: 0 CROSSTERMS
Info: 4617 EXCLUSIONS
Info: 4571 RIGID BONDS
Info: 9163 DEGREES OF FREEDOM
Info: 1529 HYDROGEN GROUPS
Info: 3 ATOMS IN LARGEST HYDROGEN GROUP
Info: 1529 MIGRATION GROUPS
Info: 3 ATOMS IN LARGEST MIGRATION GROUP
Info: TOTAL MASS = 27532.9 amu
Info: TOTAL CHARGE = 9.99775e-05 e
Info: MASS DENSITY = 0.722115 g/cm^3
Info: ATOM DENSITY = 0.0723054 atoms/A^3
Info: ADDED 0 IMPLICIT EXCLUSIONS
Info: NONBONDED TABLE R-SQUARED SPACING: 0.0625
Info: NONBONDED TABLE SIZE: 705 POINTS
Info: REMOVING COM VELOCITY -0.109777 0.0250193 -0.124116
TCL: Running for 25000 steps
ETITLE: TS BOND ANGLE DIHED IMPRP ELECT VDW BOUNDARY MISC KINETIC TOTAL TEMP POTENTIAL TOTAL3 TEMPAVG PRESSURE GPRESSURE VOLUME PRESSAVG GPRESSAVG
ENERGY: 0 0.2710 0.1008 0.0503 0.0000 -20928.8033 3540.6209 0.0000 0.0000 2693.5591 -14694.2013 295.8552 -17387.7604 -14693.6769 295.8552 -91.4225 -66.0747 63314.7628 -91.4225 -66.0747
ENERGY: 5000 0.3608 0.3768 0.1496 0.0000 -22026.6422 3835.2916 0.0000 0.0000 281.0742 -17909.3892 30.8726 -18190.4634 -17908.4777 47.5480 267.0070 309.4218 44018.6752 2.8861 3.0808
ENERGY: 10000 0.6636 0.2295 0.2652 0.0000 -21918.0569 3679.9363 0.0000 0.0000 277.8307 -17959.1317 30.5164 -18236.9624 -17958.2257 30.3628 -689.5647 -642.3434 44098.7247 5.4605 5.4475
ENERGY: 15000 0.3962 0.0913 0.4044 0.0000 -22069.4506 3811.2137 0.0000 0.0000 279.7357 -17977.6092 30.7256 -18257.3450 -17976.5477 30.2346 56.7758 108.7550 43733.1729 -5.3711 -5.3427
ENERGY: 20000 0.4166 0.2283 0.3384 0.0000 -21940.4592 3682.5582 0.0000 0.0000 274.2974 -17982.6203 30.1283 -18256.9177 -17981.8845 29.9455 -738.0043 -673.3635 44055.3429 0.0181 0.0409
ENERGY: 25000 0.2209 0.2003 0.3983 0.0000 -22165.6383 3903.8659 0.0000 0.0000 266.1725 -17994.7804 29.2359 -18260.9529 -17993.7861 29.8437 521.2475 601.7915 43587.1445 3.7255 3.6980
TCL: Running 25000 steps at 60 kelvin.
TCL: Setting parameter langevinTemp to 60
TCL: Running for 25000 steps
ETITLE: TS BOND ANGLE DIHED IMPRP ELECT VDW BOUNDARY MISC KINETIC TOTAL TEMP POTENTIAL TOTAL3 TEMPAVG PRESSURE GPRESSURE VOLUME PRESSAVG GPRESSAVG
ENERGY: 25000 0.2209 0.2003 0.3983 0.0000 -22165.6383 3903.8659 0.0000 0.0000 266.0339 -17994.9190 29.2206 -18260.9529 -17994.4287 29.2206 549.4931 601.8838 43587.1445 549.4931 601.8838
ENERGY: 30000 0.4508 0.5247 1.0343 0.0000 -21667.4645 3659.9293 0.0000 0.0000 537.9815 -17467.5438 59.0908 -18005.5254 -17466.1913 57.3759 -215.4378 -157.9025 44018.0012 5.1126 4.8937
ENERGY: 35000 0.8175 0.4718 0.2812 0.0000 -21656.6242 3588.1987 0.0000 0.0000 564.5484 -17502.3066 62.0089 -18066.8550 -17500.1364 60.4148 -690.4853 -633.4499 43959.4546 -0.5149 -0.7149
ENERGY: 40000 0.1163 0.4491 0.5678 0.0000 -21927.9281 3847.0141 0.0000 0.0000 553.1808 -17526.5999 60.7603 -18079.7807 -17525.3001 60.2468 733.6696 793.7783 43612.3051 2.5752 2.7178
ENERGY: 45000 0.6083 0.4521 0.5377 0.0000 -21903.3836 3809.2083 0.0000 0.0000 557.7872 -17534.7900 61.2662 -18092.5772 -17533.2956 59.8179 510.9666 571.0760 43529.9954 -1.2473 -1.1073
ENERGY: 50000 0.4897 0.6535 0.3971 0.0000 -21719.5689 3616.6170 0.0000 0.0000 553.0476 -17548.3639 60.7457 -18101.4115 -17546.6491 59.9980 -697.3106 -638.8306 44020.1038 2.4374 2.5854
TCL: Running 25000 steps at 90 kelvin.
TCL: Setting parameter langevinTemp to 90
TCL: Running for 25000 steps
ETITLE: TS BOND ANGLE DIHED IMPRP ELECT VDW BOUNDARY MISC KINETIC TOTAL TEMP POTENTIAL TOTAL3 TEMPAVG PRESSURE GPRESSURE VOLUME PRESSAVG GPRESSAVG
ENERGY: 50000 0.4897 0.6535 0.3971 0.0000 -21719.5689 3616.6170 0.0000 0.0000 552.7713 -17548.6402 60.7153 -18101.4115 -17547.5205 60.7153 -692.5944 -638.6193 44020.1038 -692.5944 -638.6193
ENERGY: 55000 1.0730 0.8166 0.9533 0.0000 -21224.2080 3392.3829 0.0000 0.0000 821.8305 -17007.1517 90.2682 -17828.9821 -17003.6036 87.1244 -1244.0981 -1191.4541 44379.2164 -2.8048 -3.0782
ENERGY: 60000 0.7777 0.4200 1.5920 0.0000 -21644.7293 3762.8575 0.0000 0.0000 838.4027 -17040.6795 92.0885 -17879.0822 -17038.7536 89.8802 774.8806 825.7582 43943.0326 5.1997 4.7031
ENERGY: 65000 0.6895 0.3491 0.5627 0.0000 -21566.6377 3684.0279 0.0000 0.0000 838.8907 -17042.1177 92.1421 -17881.0083 -17040.0183 90.1678 212.2545 307.8613 44087.0660 3.9345 3.6876
ENERGY: 70000 0.6927 0.6676 0.8066 0.0000 -21495.4481 3598.5005 0.0000 0.0000 827.4262 -17067.3544 90.8829 -17894.7807 -17065.5371 90.3328 -179.7927 -128.7670 44024.2476 -0.1031 0.0337
ENERGY: 75000 0.8096 1.2551 0.4881 0.0000 -21411.2846 3500.4904 0.0000 0.0000 822.1647 -17086.0767 90.3049 -17908.2414 -17084.5928 89.8699 -808.4389 -743.1178 44110.6461 5.0380 5.0817
TCL: Running 25000 steps at 120 kelvin.
TCL: Setting parameter langevinTemp to 120
TCL: Running for 25000 steps
ETITLE: TS BOND ANGLE DIHED IMPRP ELECT VDW BOUNDARY MISC KINETIC TOTAL TEMP POTENTIAL TOTAL3 TEMPAVG PRESSURE GPRESSURE VOLUME PRESSAVG GPRESSAVG
ENERGY: 75000 0.8096 1.2551 0.4881 0.0000 -21411.2846 3500.4904 0.0000 0.0000 821.7574 -17086.4840 90.2602 -17908.2414 -17084.7398 90.2602 -811.1224 -743.2045 44110.6461 -811.1224 -743.2045
ENERGY: 80000 0.6888 0.9299 2.0402 0.0000 -21297.8013 3683.6437 0.0000 0.0000 1103.5139 -16506.9847 121.2078 -17610.4986 -16503.3440 117.0467 987.9209 1023.1879 44063.9178 2.6891 2.5428
ENERGY: 85000 0.9217 0.2868 2.0759 0.0000 -21095.8652 3442.8395 0.0000 0.0000 1071.0306 -16578.7107 117.6399 -17649.7413 -16576.0014 119.6437 -556.4559 -514.4357 44402.5970 3.1501 3.4490
ENERGY: 90000 1.7077 1.0579 0.9467 0.0000 -21151.8688 3508.4844 0.0000 0.0000 1080.7162 -16558.9558 118.7037 -17639.6720 -16555.0465 120.7349 -272.3626 -174.6985 44401.6069 6.6375 6.9270
ENERGY: 95000 1.0994 0.5053 1.3076 0.0000 -21198.9808 3533.8848 0.0000 0.0000 1080.2469 -16581.9369 118.6522 -17662.1837 -16580.2009 120.1595 -114.8443 -43.9598 44471.7931 3.2999 3.6799
ENERGY: 100000 0.7542 1.4785 1.0498 0.0000 -21284.3366 3595.3172 0.0000 0.0000 1068.8303 -16616.9065 117.3982 -17685.7368 -16614.2518 119.8432 196.6382 251.2837 44323.9273 3.6297 3.4316
TCL: Running 25000 steps at 150 kelvin.
TCL: Setting parameter langevinTemp to 150
TCL: Running for 25000 steps
ETITLE: TS BOND ANGLE DIHED IMPRP ELECT VDW BOUNDARY MISC KINETIC TOTAL TEMP POTENTIAL TOTAL3 TEMPAVG PRESSURE GPRESSURE VOLUME PRESSAVG GPRESSAVG
ENERGY: 100000 0.7542 1.4785 1.0498 0.0000 -21284.3366 3595.3172 0.0000 0.0000 1068.2864 -16617.4504 117.3385 -17685.7368 -16615.4208 117.3385 194.3141 251.6516 44323.9273 194.3141 251.6516
ENERGY: 105000 0.5666 1.0244 1.3927 0.0000 -20711.6486 3396.0145 0.0000 0.0000 1377.6485 -15935.0020 151.3182 -17312.6504 -15931.9590 146.8415 10.1024 84.7808 44469.5734 0.8980 1.4170
ENERGY: 110000 0.3107 1.3150 2.1792 0.0000 -20720.2173 3376.5855 0.0000 0.0000 1379.2928 -15960.5342 151.4988 -17339.8270 -15958.1761 149.7352 -120.2153 -60.0024 44521.7428 1.8658 1.3896
ENERGY: 115000 0.7289 1.6497 0.6015 0.0000 -20884.8228 3507.8319 0.0000 0.0000 1383.2420 -15990.7689 151.9326 -17374.0108 -15988.7524 150.7852 488.1879 546.8803 44494.1201 1.2947 1.1011
ENERGY: 120000 0.8952 1.5906 1.7789 0.0000 -20853.6548 3459.7427 0.0000 0.0000 1367.2138 -16022.4336 150.1721 -17389.6474 -16018.8441 150.5238 173.8093 224.0298 44515.6811 3.0829 2.7494
ENERGY: 125000 1.3843 0.7064 0.6336 0.0000 -20882.9972 3464.4415 0.0000 0.0000 1418.7962 -15997.0353 155.8378 -17415.8315 -15994.5587 151.2836 241.7316 311.4809 44321.3338 3.2384 3.5709
TCL: Running 50000 steps at 180 kelvin.
TCL: Setting parameter langevinTemp to 180
TCL: Running for 50000 steps
ETITLE: TS BOND ANGLE DIHED IMPRP ELECT VDW BOUNDARY MISC KINETIC TOTAL TEMP POTENTIAL TOTAL3 TEMPAVG PRESSURE GPRESSURE VOLUME PRESSAVG GPRESSAVG
ENERGY: 125000 1.3843 0.7064 0.6336 0.0000 -20882.9972 3464.4415 0.0000 0.0000 1418.1362 -15997.6952 155.7653 -17415.8315 -15995.4053 155.7653 252.5653 311.1292 44321.3338 252.5653 311.1292
ENERGY: 135000 2.8881 1.3551 2.0076 0.0000 -20262.7951 3229.1808 0.0000 0.0000 1625.9941 -15401.3693 178.5960 -17027.3634 -15396.3490 180.0539 -206.9191 -119.0330 44767.8668 1.4818 1.1618
ENERGY: 145000 1.4723 1.6437 1.9144 0.0000 -20170.8703 3162.8603 0.0000 0.0000 1674.9092 -15328.0704 183.9687 -17002.9796 -15323.5298 179.3535 -560.4882 -509.5748 44866.7244 4.0964 3.7343
ENERGY: 155000 0.8815 2.6668 0.4351 0.0000 -20261.5822 3268.9363 0.0000 0.0000 1644.4602 -15344.2023 180.6242 -16988.6625 -15339.6093 179.4698 -24.9538 56.3949 44834.3379 1.8898 1.6935
ENERGY: 165000 1.8046 1.8622 0.3962 0.0000 -20426.7688 3347.8232 0.0000 0.0000 1675.9404 -15398.9422 184.0820 -17074.8826 -15394.2073 179.9312 138.0939 204.3944 45072.5237 9.6030 9.8612
ENERGY: 175000 3.2809 0.6597 0.5264 0.0000 -20415.0919 3329.1922 0.0000 0.0000 1605.0342 -15476.3985 176.2938 -17081.4327 -15472.7287 181.0396 -44.7842 35.7215 45114.7738 2.4497 2.4309
TCL: Running 50000 steps at 210 kelvin.
TCL: Setting parameter langevinTemp to 210
TCL: Running for 50000 steps
ETITLE: TS BOND ANGLE DIHED IMPRP ELECT VDW BOUNDARY MISC KINETIC TOTAL TEMP POTENTIAL TOTAL3 TEMPAVG PRESSURE GPRESSURE VOLUME PRESSAVG GPRESSAVG
ENERGY: 175000 3.2809 0.6597 0.5264 0.0000 -20415.0919 3329.1922 0.0000 0.0000 1604.2062 -15477.2265 176.2028 -17081.4327 -15474.6869 176.2028 -18.7004 34.6945 45114.7738 -18.7004 34.6945
ENERGY: 185000 0.7650 2.0794 2.3103 0.0000 -19354.4707 2938.2256 0.0000 0.0000 1928.3644 -14482.7261 211.8077 -16411.0905 -14477.9289 209.3956 -244.6868 -209.6475 45031.0696 1.1431 0.7789
ENERGY: 195000 1.6108 2.1352 1.0477 0.0000 -19299.1690 2977.9636 0.0000 0.0000 1891.8031 -14424.6087 207.7919 -16316.4118 -14419.2549 209.7282 109.9201 244.2159 44664.7407 5.6437 5.4978
ENERGY: 205000 2.1960 2.3041 2.3975 0.0000 -19219.4891 2880.0793 0.0000 0.0000 1906.6135 -14425.8987 209.4187 -16332.5122 -14421.4338 210.0261 -201.8180 -162.6129 44430.6860 -4.2464 -4.3420
ENERGY: 215000 0.6757 0.7552 2.5420 0.0000 -19164.1606 2867.5758 0.0000 0.0000 1965.7631 -14326.8488 215.9155 -16292.6119 -14322.7795 212.2932 -398.2730 -317.5610 44963.3360 -5.0626 -4.6984
ENERGY: 225000 1.3541 1.2514 2.3351 0.0000 -19255.8396 2942.5058 0.0000 0.0000 1890.8268 -14417.5665 207.6847 -16308.3933 -14413.8087 210.2442 -150.5817 -77.6064 45102.8639 1.3392 0.8767
TCL: Running 50000 steps at 240 kelvin.
TCL: Setting parameter langevinTemp to 240
TCL: Running for 50000 steps
ETITLE: TS BOND ANGLE DIHED IMPRP ELECT VDW BOUNDARY MISC KINETIC TOTAL TEMP POTENTIAL TOTAL3 TEMPAVG PRESSURE GPRESSURE VOLUME PRESSAVG GPRESSAVG
ENERGY: 225000 1.3541 1.2514 2.3351 0.0000 -19255.8396 2942.5058 0.0000 0.0000 1889.8661 -14418.5272 207.5791 -16308.3933 -14415.2806 207.5791 -148.8537 -78.5305 45102.8639 -148.8537 -78.5305
ENERGY: 235000 1.8148 1.8600 1.4880 0.0000 -18288.7943 2674.9643 0.0000 0.0000 2180.8689 -13427.7982 239.5423 -15608.6671 -13424.5620 242.2822 180.0196 165.4212 45190.8557 2.7502 3.0779
ENERGY: 245000 2.4606 3.4346 2.1085 0.0000 -18400.3620 2737.5224 0.0000 0.0000 2155.3312 -13499.5046 236.7373 -15654.8358 -13494.8358 241.5708 363.1805 394.2710 44924.7392 3.2827 2.5101
ENERGY: 255000 2.8179 3.0980 1.0496 0.0000 -18230.2242 2514.2545 0.0000 0.0000 2205.8529 -13503.1513 242.2865 -15709.0042 -13496.0046 238.4702 -916.7836 -841.6501 45029.7420 2.2195 1.6460
ENERGY: 265000 1.6986 2.0292 2.4351 0.0000 -18456.4312 2755.3004 0.0000 0.0000 2177.8483 -13517.1196 239.2105 -15694.9679 -13514.8112 239.3304 198.8747 295.5912 45307.9892 -2.2742 -2.3113
ENERGY: 275000 2.4252 2.0905 3.8369 0.0000 -18485.1138 2777.8022 0.0000 0.0000 2183.5147 -13515.4444 239.8329 -15698.9591 -13510.1146 237.6035 289.9704 399.6897 45277.4518 4.5691 4.1610
TCL: Running 50000 steps at 270 kelvin.
TCL: Setting parameter langevinTemp to 270
TCL: Running for 50000 steps
ETITLE: TS BOND ANGLE DIHED IMPRP ELECT VDW BOUNDARY MISC KINETIC TOTAL TEMP POTENTIAL TOTAL3 TEMPAVG PRESSURE GPRESSURE VOLUME PRESSAVG GPRESSAVG
ENERGY: 275000 2.4252 2.0905 3.8369 0.0000 -18485.1138 2777.8022 0.0000 0.0000 2182.3899 -13516.5692 239.7094 -15698.9591 -13512.4404 239.7094 319.9031 398.6096 45277.4518 319.9031 398.6096
ENERGY: 285000 3.6693 2.4747 1.1798 0.0000 -17400.9451 2389.8189 0.0000 0.0000 2487.5361 -12516.2663 273.2260 -15003.8024 -12510.2943 271.5601 -335.7534 -277.2321 46195.7845 -1.5563 -1.7679
ENERGY: 295000 3.7455 1.8779 2.4451 0.0000 -17633.2931 2561.9265 0.0000 0.0000 2475.2144 -12588.0837 271.8726 -15063.2980 -12585.6034 271.8358 435.6412 536.6473 45834.6130 4.9207 5.0381
ENERGY: 305000 1.3595 1.7175 2.1472 0.0000 -17322.5137 2306.5225 0.0000 0.0000 2460.9884 -12549.7786 270.3101 -15010.7670 -12543.7784 270.9329 -588.9806 -562.1380 45685.6844 -4.6214 -4.5401
ENERGY: 315000 1.3394 4.5273 1.3431 0.0000 -17416.4947 2422.6049 0.0000 0.0000 2420.0184 -12566.6616 265.8100 -14986.6799 -12561.8760 270.4966 -166.3831 -95.5595 46366.0074 2.1423 2.0378
ENERGY: 325000 1.5333 1.5696 2.1833 0.0000 -17459.8317 2439.4998 0.0000 0.0000 2529.8104 -12485.2352 277.8694 -15015.0456 -12477.1012 270.8695 114.2874 265.8907 45365.3046 2.7356 2.5053
TCL: Running 1000000 steps at 300 kelvin.
TCL: Setting parameter langevinTemp to 300
TCL: Running for 1000000 steps
ETITLE: TS BOND ANGLE DIHED IMPRP ELECT VDW BOUNDARY MISC KINETIC TOTAL TEMP POTENTIAL TOTAL3 TEMPAVG PRESSURE GPRESSURE VOLUME PRESSAVG GPRESSAVG
ENERGY: 325000 1.5333 1.5696 2.1833 0.0000 -17459.8317 2439.4998 0.0000 0.0000 2528.6189 -12486.4268 277.7385 -15015.0456 -12482.7954 277.7385 176.5844 268.5141 45365.3046 176.5844 268.5141
ENERGY: 525000 1.4025 5.6309 3.6601 0.0000 -16591.5275 2228.4916 0.0000 0.0000 2728.3276 -11624.0149 299.6741 -14352.3425 -11619.5393 300.0476 -172.4304 -42.1988 47459.8715 -2.2063 -2.6489
ENERGY: 725000 1.1038 2.7278 3.4623 0.0000 -16695.0644 2276.4835 0.0000 0.0000 2760.1008 -11651.1862 303.1640 -14411.2870 -11646.5048 299.7320 341.8680 401.9216 46711.7493 7.1982 6.7446
ENERGY: 925000 5.3345 3.2162 2.5471 0.0000 -16821.8032 2307.1223 0.0000 0.0000 2695.8252 -11807.7579 296.1041 -14503.5831 -11803.7123 300.9461 417.1358 491.5248 46354.2313 -0.8048 -0.9636
ENERGY: 1125000 0.8001 2.2027 3.6626 0.0000 -16496.3346 2134.1224 0.0000 0.0000 2663.5982 -11691.9486 292.5644 -14355.5468 -11685.3910 298.6589 -552.4578 -444.3044 47265.1342 5.3040 4.7726
ENERGY: 1325000 1.9301 2.8650 1.1854 0.0000 -16574.6421 2220.2316 0.0000 0.0000 2683.1074 -11665.3227 294.7072 -14348.4300 -11663.1203 300.7418 -63.3617 18.4272 46961.1695 3.0981 2.9531
TCL: Exiting due to exit command.
