Info: SIMULATION PARAMETERS:
Info: TIMESTEP               2
Info: NUMBER OF STEPS        0
Info: STEPS PER CYCLE        10
Info: PERIODIC CELL BASIS 1  84.8511 0 0
Info: PERIODIC CELL BASIS 2  0 84.8511 0
Info: PERIODIC CELL BASIS 3  0 0 84.8511
Info: PERIODIC CELL CENTER   39.984 39.984 39.984
Info: WRAPPING ALL CLUSTERS AROUND PERIODIC BOUNDARIES ON OUTPUT.
Info: FIRST LDB TIMESTEP     50
Info: LAST LDB TIMESTEP     -1
Info: HOM BACKGROUND SCALING 1
Info: PME BACKGROUND SCALING 1
Info: MIN ATOMS PER PATCH    40
Info: EMPTY PATCH LOAD       40 ATOMS
Info: VELOCITY FILE          mobley_9460824_equilibrated.vel
Info: CENTER OF MASS MOVING INITIALLY? NO
Info: DIELECTRIC             1
Info: EXCLUDE                SCALED ONE-FOUR
Info: 1-4 ELECTROSTATICS SCALED BY 1
Info: MODIFIED 1-4 VDW PARAMETERS WILL BE USED
Info: DCD FILENAME           mobley_9460824_backwards.dcd
Info: DCD FREQUENCY          500
Info: DCD FIRST STEP         500
Info: DCD FILE WILL CONTAIN UNIT CELL DATA
Info: NO EXTENDED SYSTEM TRAJECTORY OUTPUT
Info: NO VELOCITY DCD OUTPUT
Info: NO FORCE DCD OUTPUT
Info: OUTPUT FILENAME        mobley_9460824_backwards
Info: BINARY OUTPUT FILES WILL BE USED
Info: NO RESTART FILE
Info: SWITCHING ACTIVE
Info: SWITCHING ON           10
Info: SWITCHING OFF          12
Info: PAIRLIST DISTANCE      14
Info: PAIRLIST SHRINK RATE   0.01
Info: PAIRLIST GROW RATE     0.01
Info: PAIRLIST TRIGGER       0.3
Info: PAIRLISTS PER CYCLE    2
Info: PAIRLISTS ENABLED
Info: MARGIN                 8
Info: HYDROGEN GROUP CUTOFF  2.5
Info: PATCH DIMENSION        24.5
Info: ENERGY OUTPUT STEPS    500
Info: ENERGY EVALUATION STEPS    500
Info: OUTPUT ENERGY PRECISION 4
Info: CROSSTERM ENERGY INCLUDED IN DIHEDRAL
Info: TIMING OUTPUT STEPS    500
Info: PRESSURE OUTPUT STEPS  500
Info: ALCHEMICAL FEP ON
Info: FEP CURRENT LAMBDA VALUE     1
Info: FEP COMPARISON LAMBDA VALUE  0.9375
Info: FEP INTRA-ALCHEMICAL NON-BONDED INTERACTIONS WILL BE DECOUPLED
Info: FEP INTRA-ALCHEMICAL BONDED INTERACTIONS WILL BE RETAINED
Info: FEP VDW SHIFTING COEFFICIENT 6
Info: FEP ELEC. ACTIVE FOR ANNIHILATED PARTICLES BETWEEN LAMBDA = 0 AND LAMBDA = 0.5
Info: FEP ELEC. ACTIVE FOR EXNIHILATED PARTICLES BETWEEN LAMBDA = 0.5 AND LAMBDA = 1
Info: FEP VDW ACTIVE FOR ANNIHILATED PARTICLES BETWEEN LAMBDA = 0 AND LAMBDA = 1
Info: FEP VDW ACTIVE FOR EXNIHILATED PARTICLES BETWEEN LAMBDA = 0 AND LAMBDA = 1
Info: FEP BOND ACTIVE FOR ANNIHILATED PARTICLES BETWEEN LAMBDA = 1 AND LAMBDA = 1
Info: FEP BOND ACTIVE FOR EXNIHILATED PARTICLES BETWEEN LAMBDA = 0 AND LAMBDA = 0
Info: LANGEVIN DYNAMICS ACTIVE
Info: LANGEVIN TEMPERATURE   298
Info: LANGEVIN USING BBK INTEGRATOR
Info: LANGEVIN DAMPING COEFFICIENT IS 1 INVERSE PS
Info: LANGEVIN DYNAMICS NOT APPLIED TO HYDROGENS
Info: LANGEVIN PISTON PRESSURE CONTROL ACTIVE
Info:        TARGET PRESSURE IS 1.01325 BAR
Info:     OSCILLATION PERIOD IS 100 FS
Info:             DECAY TIME IS 50 FS
Info:     PISTON TEMPERATURE IS 298 K
Info:       PRESSURE CONTROL IS GROUP-BASED
Info:    INITIAL STRAIN RATE IS -4.94482e-05 -4.94482e-05 -4.94482e-05
Info:       CELL FLUCTUATION IS ISOTROPIC
Info: PARTICLE MESH EWALD (PME) ACTIVE
Info: PME TOLERANCE               1e-05
Info: PME EWALD COEFFICIENT       0.226635
Info: PME INTERPOLATION ORDER     4
Info: PME GRID DIMENSIONS         88 88 88
Info: PME MAXIMUM GRID SPACING    1
Info: FULL ELECTROSTATIC EVALUATION FREQUENCY      1
Info: USING VERLET I (r-RESPA) MTS SCHEME.
Info: C1 SPLITTING OF LONG RANGE ELECTROSTATICS
Info: PLACING ATOMS IN PATCHES BY HYDROGEN GROUPS
Info: RIGID BONDS TO HYDROGEN : ALL
Info:         ERROR TOLERANCE : 1e-08
Info:          MAX ITERATIONS : 100
Info: RIGID WATER USING SETTLE ALGORITHM
Info: RANDOM NUMBER SEED     1740653647
Info: USE HYDROGEN BONDS?    NO
Info: COORDINATE PDB         mobley_9460824.pdb
Info: STRUCTURE FILE         mobley_9460824.psf
Info: PARAMETER file: CHARMM format!
Info: PARAMETERS             ../common/par_all27_prot_lipid.inp
Info: PARAMETERS             mobley_9460824.prm
Info: USING ARITHMETIC MEAN TO COMBINE L-J SIGMA PARAMETERS
Info: BINARY COORDINATES     mobley_9460824_equilibrated.coor
Info: SUMMARY OF PARAMETERS:
Info: 189 BONDS
Info: 465 ANGLES
Info: 584 DIHEDRAL
Info: 46 IMPROPER
Info: 6 CROSSTERM
Info: 127 VDW
Info: 0 VDW_PAIRS
Info: 0 NBTHOLE_PAIRS
Info: To read alchdata from file: mobley_9460824.pdb
Info: To read alchflag data from column: 5
Info: STRUCTURE SUMMARY:
Info: 6396 ATOMS
Info: 4273 BONDS
Info: 2174 ANGLES
Info: 51 DIHEDRALS
Info: 0 IMPROPERS
Info: 0 CROSSTERMS
Info: 0 EXCLUSIONS
Info: 6383 RIGID BONDS
Info: ALCH: 0 ATOMS TO DISAPPEAR IN FINAL STATE
Info: ALCH: 30 ATOMS TO APPEAR IN FINAL STATE
Info: 12805 DEGREES OF FREEDOM
Info: 2135 HYDROGEN GROUPS
Info: 4 ATOMS IN LARGEST HYDROGEN GROUP
Info: 2135 MIGRATION GROUPS
Info: 4 ATOMS IN LARGEST MIGRATION GROUP
Info: TOTAL MASS = 38489 amu
Info: TOTAL CHARGE = 1.03191e-06 e
Info: MASS DENSITY = 0.104622 g/cm^3
Info: ATOM DENSITY = 0.0104697 atoms/A^3
Info: ADDED 6498 IMPLICIT EXCLUSIONS
Info: NONBONDED TABLE R-SQUARED SPACING: 0.0625
Info: NONBONDED TABLE SIZE: 769 POINTS
Info: REMOVING COM VELOCITY 0.13833 -0.111317 -0.0354018
TCL: Running for 5000 steps
ETITLE: TS BOND ANGLE DIHED IMPRP ELECT VDW BOUNDARY MISC KINETIC TOTAL TEMP POTENTIAL TOTAL3 TEMPAVG PRESSURE GPRESSURE VOLUME PRESSAVG GPRESSAVG
ENERGY: 0 3.5185 14.7743 21.2870 0.0000 -22184.2602 2302.0433 0.0000 0.0000 3713.7692 -16128.8678 291.8944 -19842.6370 -16121.6016 291.8944 -12.9971 -12.7905 610903.4632 -12.9971 -12.7905
ENERGY: 1000 3.7468 10.6018 18.9179 0.0000 -22372.2006 2428.2909 0.0000 0.0000 3796.3442 -16114.2990 298.3846 -19910.6432 -16109.3285 296.7262 56.3544 56.4905 620713.4357 0.9592 0.9331
ENERGY: 2000 2.9639 12.3612 19.0702 0.0000 -22193.2457 2280.9642 0.0000 0.0000 3736.4502 -16141.4359 293.6770 -19877.8861 -16134.3802 297.6556 -13.1931 -13.4965 626778.2161 0.8656 0.8539
ENERGY: 3000 1.8305 16.4351 21.5660 0.0000 -22191.5767 2291.7123 0.0000 0.0000 3880.4401 -15979.5927 304.9943 -19860.0328 -15968.8492 300.8833 -1.0781 -1.2131 629020.3495 0.7986 0.7925
ENERGY: 4000 4.5769 12.6342 18.7589 0.0000 -22257.8746 2364.9074 0.0000 0.0000 3759.8929 -16097.1042 295.5196 -19856.9971 -16089.6660 297.4031 28.5635 28.3184 618680.9862 1.2556 1.2473
ENERGY: 5000 3.2266 15.3328 18.0276 0.0000 -22195.9980 2303.4282 0.0000 0.0000 3728.2159 -16127.7668 293.0298 -19855.9827 -16123.8071 295.7071 -16.9355 -15.7608 630460.5774 1.6977 1.7155
TCL: Running FEP window   2: Lambda1 0.9375 Lambda2 0.875  [dLambda -0.0625]
TCL: Setting parameter firsttimestep to 0
TCL: Setting parameter alchLambda to 0.9375
Info: NONBONDED TABLE R-SQUARED SPACING: 0.0625
Info: NONBONDED TABLE SIZE: 769 POINTS
TCL: Setting parameter alchLambda2 to 0.875
Info: NONBONDED TABLE R-SQUARED SPACING: 0.0625
Info: NONBONDED TABLE SIZE: 769 POINTS
TCL: Running for 5000 steps
ETITLE: TS BOND ANGLE DIHED IMPRP ELECT VDW BOUNDARY MISC KINETIC TOTAL TEMP POTENTIAL TOTAL3 TEMPAVG PRESSURE GPRESSURE VOLUME PRESSAVG GPRESSAVG
ENERGY: 0 3.2266 15.3328 18.0276 0.0000 -22184.6099 2302.2862 0.0000 0.0000 3728.1054 -16117.6312 293.0212 -19845.7366 -16110.3076 293.0212 -18.3858 -18.2150 630460.5774 -18.3858 -18.2150
ENERGY: 1000 9.8321 15.9125 24.4089 0.0000 -22291.1277 2356.9198 0.0000 0.0000 3674.2542 -16209.8001 288.7886 -19884.0543 -16204.0993 294.5035 3.8689 3.6846 674683.2256 0.8627 0.8807
ENERGY: 2000 5.0702 15.1627 19.7020 0.0000 -22158.9404 2279.0555 0.0000 0.0000 3718.7576 -16121.1924 292.2864 -19839.9500 -16113.6834 293.4577 -22.9211 -24.0578 695283.4550 1.5315 1.5553
ENERGY: 3000 3.4812 18.9501 17.5931 0.0000 -22152.0796 2338.4682 0.0000 0.0000 3749.4929 -16024.0940 294.7022 -19773.5869 -16016.6557 297.3117 6.8082 6.6973 682957.1005 1.6472 1.6384
ENERGY: 4000 2.5728 13.8081 20.3327 0.0000 -22019.9444 2250.5491 0.0000 0.0000 3733.0286 -15999.6530 293.4081 -19732.6816 -15991.9155 300.1043 -15.5947 -15.5982 679711.9792 2.0226 2.0210
ENERGY: 5000 4.9508 13.4592 18.3159 0.0000 -22221.5830 2350.7984 0.0000 0.0000 3825.5574 -16008.5014 300.6807 -19834.0588 -16001.0264 299.5343 25.6968 25.9641 695220.4076 1.9395 1.9373
TCL: Running FEP window   3: Lambda1 0.875  Lambda2 0.8125 [dLambda -0.0625]
TCL: Setting parameter firsttimestep to 0
TCL: Setting parameter alchLambda to 0.875
Info: NONBONDED TABLE R-SQUARED SPACING: 0.0625
Info: NONBONDED TABLE SIZE: 769 POINTS
TCL: Setting parameter alchLambda2 to 0.8125
Info: NONBONDED TABLE R-SQUARED SPACING: 0.0625
Info: NONBONDED TABLE SIZE: 769 POINTS
TCL: Running for 5000 steps
ETITLE: TS BOND ANGLE DIHED IMPRP ELECT VDW BOUNDARY MISC KINETIC TOTAL TEMP POTENTIAL TOTAL3 TEMPAVG PRESSURE GPRESSURE VOLUME PRESSAVG GPRESSAVG
ENERGY: 0 4.9508 13.4592 18.3159 0.0000 -22211.3613 2349.4566 0.0000 0.0000 3825.4391 -15999.7398 300.6714 -19825.1789 -15992.3500 300.6714 23.6924 23.7502 695220.4076 23.6924 23.7502
ENERGY: 1000 5.3478 12.4997 20.9799 0.0000 -22142.6632 2266.5567 0.0000 0.0000 3783.8410 -16053.4380 297.4019 -19837.2790 -16044.4178 298.0774 -13.0208 -13.4129 693591.7745 1.5845 1.5861
ENERGY: 2000 4.4637 18.6155 20.7084 0.0000 -22075.5624 2219.2872 0.0000 0.0000 3714.4131 -16098.0746 291.9450 -19812.4876 -16091.6046 298.4001 -29.6401 -29.3834 668618.9700 0.4298 0.3996
ENERGY: 3000 4.4642 16.0031 17.3950 0.0000 -22057.9877 2222.9773 0.0000 0.0000 3813.3206 -15983.8275 299.7189 -19797.1481 -15976.4807 298.2329 -9.4310 -9.1258 653494.6959 2.5280 2.5036
ENERGY: 4000 4.8984 11.2489 18.1091 0.0000 -22098.0604 2298.5719 0.0000 0.0000 3834.6364 -15930.5958 301.3943 -19765.2322 -15922.3145 300.2439 1.6399 1.5016 644177.1584 1.6885 1.7107
ENERGY: 5000 1.4424 14.5838 20.7483 0.0000 -21998.6577 2310.7640 0.0000 0.0000 3812.3986 -15838.7204 299.6464 -19651.1191 -15833.7230 301.3741 16.7089 16.8443 655808.6737 0.9366 0.9651
TCL: Running FEP window   4: Lambda1 0.8125 Lambda2 0.75   [dLambda -0.0625]
TCL: Setting parameter firsttimestep to 0
TCL: Setting parameter alchLambda to 0.8125
Info: NONBONDED TABLE R-SQUARED SPACING: 0.0625
Info: NONBONDED TABLE SIZE: 769 POINTS
TCL: Setting parameter alchLambda2 to 0.75
Info: NONBONDED TABLE R-SQUARED SPACING: 0.0625
Info: NONBONDED TABLE SIZE: 769 POINTS
TCL: Running for 5000 steps
ETITLE: TS BOND ANGLE DIHED IMPRP ELECT VDW BOUNDARY MISC KINETIC TOTAL TEMP POTENTIAL TOTAL3 TEMPAVG PRESSURE GPRESSURE VOLUME PRESSAVG GPRESSAVG
ENERGY: 0 1.4424 14.5838 20.7483 0.0000 -21987.7155 2310.7579 0.0000 0.0000 3812.2822 -15827.9009 299.6373 -19640.1831 -15820.8943 299.6373 15.7183 15.8137 655808.6737 15.7183 15.8137
ENERGY: 1000 2.6180 15.7759 18.4343 0.0000 -22102.3440 2292.9484 0.0000 0.0000 3839.0102 -15933.5571 301.7380 -19772.5674 -15926.1556 299.7714 -1.5228 -1.9440 666229.3746 2.0437 2.0134
ENERGY: 2000 2.5372 16.1869 19.3245 0.0000 -22255.2523 2386.7037 0.0000 0.0000 3844.5544 -15985.9456 302.1738 -19830.5000 -15978.3439 298.2596 29.8063 29.3586 658203.3052 1.0774 1.0716
ENERGY: 3000 2.4825 11.8115 19.0338 0.0000 -22242.0405 2361.0795 0.0000 0.0000 3756.1595 -16091.4738 295.2262 -19847.6332 -16083.2505 296.6046 35.3047 35.3078 656623.0087 4.2958 4.3095
ENERGY: 4000 5.5398 13.8185 17.6269 0.0000 -22162.9577 2313.0370 0.0000 0.0000 3649.9799 -16162.9556 286.8807 -19812.9355 -16158.0099 293.1310 6.2257 6.5869 669769.1960 -0.2159 -0.2238
ENERGY: 5000 3.6809 16.3256 21.2006 0.0000 -22259.6560 2352.5129 0.0000 0.0000 3749.6484 -16116.2876 294.7144 -19865.9360 -16109.1660 296.4928 -1.7731 -2.4702 673334.6918 0.9092 0.9282
TCL: Running FEP window   5: Lambda1 0.75   Lambda2 0.6875 [dLambda -0.0625]
TCL: Setting parameter firsttimestep to 0
TCL: Setting parameter alchLambda to 0.75
Info: NONBONDED TABLE R-SQUARED SPACING: 0.0625
Info: NONBONDED TABLE SIZE: 769 POINTS
TCL: Setting parameter alchLambda2 to 0.6875
Info: NONBONDED TABLE R-SQUARED SPACING: 0.0625
Info: NONBONDED TABLE SIZE: 769 POINTS
TCL: Running for 5000 steps
ETITLE: TS BOND ANGLE DIHED IMPRP ELECT VDW BOUNDARY MISC KINETIC TOTAL TEMP POTENTIAL TOTAL3 TEMPAVG PRESSURE GPRESSURE VOLUME PRESSAVG GPRESSAVG
ENERGY: 0 3.6809 16.3256 21.2006 0.0000 -22250.0683 2352.7854 0.0000 0.0000 3749.5314 -16106.5443 294.7052 -19856.0757 -16099.2834 294.7052 -3.2085 -3.2782 673334.6918 -3.2085 -3.2782
ENERGY: 1000 2.4469 14.2731 18.0512 0.0000 -22167.6776 2269.2298 0.0000 0.0000 3807.9927 -16055.6839 299.3001 -19863.6766 -16048.8279 296.2850 -30.3184 -30.2177 676628.5955 -0.4089 -0.4065
ENERGY: 2000 3.7110 18.5935 21.1849 0.0000 -22192.8428 2338.4644 0.0000 0.0000 3818.0501 -15992.8388 300.0906 -19810.8890 -15986.1151 295.2855 21.8782 22.4406 652186.9805 -0.6464 -0.6765
ENERGY: 3000 2.9197 12.2407 19.8020 0.0000 -21923.5592 2103.2940 0.0000 0.0000 3786.2795 -15999.0233 297.5935 -19785.3028 -15989.8070 298.0292 -71.9991 -72.5291 634304.9153 -0.7083 -0.7320
ENERGY: 4000 5.2297 14.2951 19.4212 0.0000 -22138.6719 2293.6884 0.0000 0.0000 3806.8692 -15999.1684 299.2118 -19806.0376 -15991.3439 299.8681 -4.9419 -4.7054 607632.6443 -1.5297 -1.5394
ENERGY: 5000 6.1004 15.6815 16.5892 0.0000 -22308.1375 2416.1311 0.0000 0.0000 3816.2008 -16037.4345 299.9453 -19853.6353 -16030.4462 296.1487 56.5469 55.9813 592220.5744 0.6575 0.6589
TCL: Running FEP window   6: Lambda1 0.6875 Lambda2 0.625  [dLambda -0.0625]
TCL: Setting parameter firsttimestep to 0
TCL: Setting parameter alchLambda to 0.6875
Info: NONBONDED TABLE R-SQUARED SPACING: 0.0625
Info: NONBONDED TABLE SIZE: 769 POINTS
TCL: Setting parameter alchLambda2 to 0.625
Info: NONBONDED TABLE R-SQUARED SPACING: 0.0625
Info: NONBONDED TABLE SIZE: 769 POINTS
TCL: Running for 5000 steps
ETITLE: TS BOND ANGLE DIHED IMPRP ELECT VDW BOUNDARY MISC KINETIC TOTAL TEMP POTENTIAL TOTAL3 TEMPAVG PRESSURE GPRESSURE VOLUME PRESSAVG GPRESSAVG
ENERGY: 0 6.1004 15.6815 16.5892 0.0000 -22298.3928 2414.6552 0.0000 0.0000 3816.0869 -16029.2796 299.9363 -19845.3665 -16022.0107 299.9363 53.5840 53.8674 592220.5744 53.5840 53.8674
ENERGY: 1000 0.7903 21.2568 20.6710 0.0000 -22191.9358 2277.0519 0.0000 0.0000 3754.7654 -16117.4004 295.1166 -19872.1658 -16109.3293 296.2297 -22.0642 -22.7237 587917.5171 2.7562 2.7599
ENERGY: 2000 2.8346 19.7141 20.7172 0.0000 -22357.1354 2425.5764 0.0000 0.0000 3775.6208 -16112.6724 296.7558 -19888.2931 -16105.7538 296.0517 45.5665 46.4956 597817.9089 1.3686 1.3778
ENERGY: 3000 4.2234 19.8548 18.7492 0.0000 -22175.9034 2260.3894 0.0000 0.0000 3747.1142 -16125.5725 294.5152 -19872.6867 -16116.5436 294.4622 -37.5729 -36.8831 586978.6397 1.9611 2.0331
ENERGY: 4000 2.9785 23.3176 19.5680 0.0000 -22020.1575 2245.5581 0.0000 0.0000 3728.4124 -16000.3229 293.0453 -19728.7353 -15992.1754 298.6561 2.4151 2.5657 562001.1558 -0.5815 -0.5928
ENERGY: 5000 6.6213 11.3081 21.5094 0.0000 -22184.6454 2291.3333 0.0000 0.0000 3858.1145 -15995.7588 303.2396 -19853.8733 -15989.0535 299.3717 -13.1823 -13.4723 571018.4609 -0.4655 -0.4446
TCL: Running FEP window   7: Lambda1 0.625  Lambda2 0.5625 [dLambda -0.0625]
TCL: Setting parameter firsttimestep to 0
TCL: Setting parameter alchLambda to 0.625
Info: NONBONDED TABLE R-SQUARED SPACING: 0.0625
Info: NONBONDED TABLE SIZE: 769 POINTS
TCL: Setting parameter alchLambda2 to 0.5625
Info: NONBONDED TABLE R-SQUARED SPACING: 0.0625
Info: NONBONDED TABLE SIZE: 769 POINTS
TCL: Running for 5000 steps
ETITLE: TS BOND ANGLE DIHED IMPRP ELECT VDW BOUNDARY MISC KINETIC TOTAL TEMP POTENTIAL TOTAL3 TEMPAVG PRESSURE GPRESSURE VOLUME PRESSAVG GPRESSAVG
ENERGY: 0 6.6213 11.3081 21.5094 0.0000 -22175.9148 2291.6450 0.0000 0.0000 3857.9931 -15986.8378 303.2301 -19844.8309 -15979.3828 303.2301 -14.5135 -14.3369 571018.4609 -14.5135 -14.3369
ENERGY: 1000 1.8278 17.0123 20.1451 0.0000 -22114.9659 2329.1035 0.0000 0.0000 3730.5806 -16016.2965 293.2157 -19746.8772 -16009.5218 296.5407 -1.6741 0.0769 584104.7027 4.2514 4.2278
ENERGY: 2000 5.2358 15.0700 18.5103 0.0000 -22235.5609 2385.2647 0.0000 0.0000 3810.9586 -16000.5216 299.5332 -19811.4801 -15995.6842 296.3612 38.3774 37.3387 583964.1361 1.1728 1.1125
ENERGY: 3000 2.2989 9.7196 18.7014 0.0000 -22013.6659 2224.0889 0.0000 0.0000 3797.8727 -15960.9844 298.5047 -19758.8570 -15952.2822 299.2639 -38.1728 -37.3266 578189.5133 1.1323 1.1281
ENERGY: 4000 3.3690 14.3545 16.3597 0.0000 -22098.9036 2327.8016 0.0000 0.0000 3782.4796 -15954.5392 297.2949 -19737.0188 -15947.6028 300.2503 19.5508 19.9276 567165.9490 1.9420 1.9704
ENERGY: 5000 0.8169 15.8212 21.9053 0.0000 -22095.5092 2220.6496 0.0000 0.0000 3700.2114 -16136.1049 290.8287 -19836.3163 -16130.4125 295.7186 -57.1874 -56.9559 561295.3642 1.5069 1.5363
TCL: Running FEP window   8: Lambda1 0.5625 Lambda2 0.5    [dLambda -0.0625]
TCL: Setting parameter firsttimestep to 0
TCL: Setting parameter alchLambda to 0.5625
Info: NONBONDED TABLE R-SQUARED SPACING: 0.0625
Info: NONBONDED TABLE SIZE: 769 POINTS
TCL: Setting parameter alchLambda2 to 0.5
Info: NONBONDED TABLE R-SQUARED SPACING: 0.0625
Info: NONBONDED TABLE SIZE: 769 POINTS
TCL: Running for 5000 steps
ETITLE: TS BOND ANGLE DIHED IMPRP ELECT VDW BOUNDARY MISC KINETIC TOTAL TEMP POTENTIAL TOTAL3 TEMPAVG PRESSURE GPRESSURE VOLUME PRESSAVG GPRESSAVG
ENERGY: 0 0.8169 15.8212 21.9053 0.0000 -22085.2925 2221.3558 0.0000 0.0000 3700.0968 -16125.2965 290.8197 -19825.3934 -16118.4806 290.8197 -57.4896 -57.3363 561295.3642 -57.4896 -57.3363
ENERGY: 1000 5.7876 11.0240 20.1056 0.0000 -22196.3274 2297.3234 0.0000 0.0000 3837.8821 -16024.2047 301.6494 -19862.0868 -16014.7575 298.6016 -21.3483 -21.2096 558605.9169 -0.2441 -0.2399
ENERGY: 2000 4.2719 14.4373 18.9805 0.0000 -22276.9625 2367.8703 0.0000 0.0000 3815.8505 -16055.5519 299.9177 -19871.4025 -16050.7958 298.8407 33.5289 34.1715 560561.2866 0.4028 0.3921
ENERGY: 3000 2.8589 22.8285 19.7622 0.0000 -22183.8904 2399.4122 0.0000 0.0000 3751.3272 -15987.7015 294.8463 -19739.0287 -15980.9966 297.3852 31.6470 32.2521 572952.2727 2.9654 3.0074
ENERGY: 4000 2.7368 16.5021 19.2038 0.0000 -22150.9777 2316.4314 0.0000 0.0000 3775.2378 -16020.8659 296.7257 -19796.1036 -16013.6175 297.7177 5.7996 5.1022 548487.1726 0.3095 0.2922
ENERGY: 5000 3.2600 12.8121 21.5702 0.0000 -22243.4685 2328.1219 0.0000 0.0000 3801.1827 -16076.5216 298.7649 -19877.7044 -16069.3448 296.2467 1.4516 1.5525 539502.8236 0.3035 0.2641
TCL: Running FEP window   9: Lambda1 0.5    Lambda2 0.4375 [dLambda -0.0625]
TCL: Setting parameter firsttimestep to 0
TCL: Setting parameter alchLambda to 0.5
Info: NONBONDED TABLE R-SQUARED SPACING: 0.0625
Info: NONBONDED TABLE SIZE: 769 POINTS
TCL: Setting parameter alchLambda2 to 0.4375
Info: NONBONDED TABLE R-SQUARED SPACING: 0.0625
Info: NONBONDED TABLE SIZE: 769 POINTS
TCL: Running for 5000 steps
ETITLE: TS BOND ANGLE DIHED IMPRP ELECT VDW BOUNDARY MISC KINETIC TOTAL TEMP POTENTIAL TOTAL3 TEMPAVG PRESSURE GPRESSURE VOLUME PRESSAVG GPRESSAVG
ENERGY: 0 3.2600 12.8121 21.5702 0.0000 -22235.8907 2328.8114 0.0000 0.0000 3801.0660 -16068.3710 298.7557 -19869.4370 -16060.2356 298.7557 0.9811 0.9720 539502.8236 0.9811 0.9720
ENERGY: 1000 4.5125 14.0252 20.0589 0.0000 -22141.9393 2317.9206 0.0000 0.0000 3801.3036 -15984.1185 298.7744 -19785.4222 -15975.8558 296.5126 22.7091 22.4138 546742.3726 2.3109 2.3145
ENERGY: 2000 3.5508 13.1410 20.0629 0.0000 -22149.1401 2410.5947 0.0000 0.0000 3809.6605 -15892.1303 299.4312 -19701.7908 -15883.7439 297.6803 32.2762 32.1509 578729.5744 0.1119 0.1359
ENERGY: 3000 7.6509 13.7423 23.5548 0.0000 -22148.2071 2311.4444 0.0000 0.0000 3820.4772 -15971.3375 300.2814 -19791.8147 -15964.4505 297.9606 0.7780 0.9179 582816.8965 0.8407 0.8768
ENERGY: 4000 3.4789 16.9495 21.7556 0.0000 -22239.0216 2408.1405 0.0000 0.0000 3866.7266 -15921.9704 303.9165 -19788.6970 -15916.4134 298.0064 52.3484 52.7985 577649.9497 3.6573 3.6749
ENERGY: 5000 3.3078 18.6486 20.0244 0.0000 -22245.0605 2426.0845 0.0000 0.0000 3846.0170 -15930.9783 302.2888 -19776.9953 -15926.0192 299.7128 47.4790 47.8189 566142.8219 1.9659 1.9657
TCL: Running FEP window  10: Lambda1 0.4375 Lambda2 0.375  [dLambda -0.0625]
TCL: Setting parameter firsttimestep to 0
TCL: Setting parameter alchLambda to 0.4375
Info: NONBONDED TABLE R-SQUARED SPACING: 0.0625
Info: NONBONDED TABLE SIZE: 769 POINTS
TCL: Setting parameter alchLambda2 to 0.375
Info: NONBONDED TABLE R-SQUARED SPACING: 0.0625
Info: NONBONDED TABLE SIZE: 769 POINTS
TCL: Running for 5000 steps
ETITLE: TS BOND ANGLE DIHED IMPRP ELECT VDW BOUNDARY MISC KINETIC TOTAL TEMP POTENTIAL TOTAL3 TEMPAVG PRESSURE GPRESSURE VOLUME PRESSAVG GPRESSAVG
ENERGY: 0 3.3078 18.6486 20.0244 0.0000 -22245.0605 2426.7836 0.0000 0.0000 3845.9033 -15930.3928 302.2798 -19776.2962 -15923.1932 302.2798 46.9670 46.9149 566142.8219 46.9670 46.9149
ENERGY: 1000 4.0068 18.3040 21.6023 0.0000 -22058.3127 2313.8690 0.0000 0.0000 3792.6176 -15907.9130 298.0917 -19700.5307 -15900.6573 300.4496 -9.0858 -8.4781 551127.5825 1.8228 1.8579
ENERGY: 2000 5.2492 14.3896 19.8317 0.0000 -22056.0681 2250.4680 0.0000 0.0000 3843.5712 -15922.5583 302.0965 -19766.1295 -15916.5487 298.5395 -20.1756 -19.9084 541116.6926 1.2030 1.1415
ENERGY: 3000 1.6736 14.5964 19.8432 0.0000 -21977.8479 2226.0438 0.0000 0.0000 3743.9901 -15971.7009 294.2697 -19715.6909 -15963.1901 296.6396 -50.1806 -49.1437 539765.2420 1.4608 1.4808
ENERGY: 4000 2.4352 12.8828 21.9491 0.0000 -22263.5834 2405.7740 0.0000 0.0000 3790.8912 -16029.6511 297.9560 -19820.5423 -16023.9196 296.3028 44.9583 45.7716 545309.5070 3.6563 3.7151
ENERGY: 5000 3.0892 13.6125 17.7997 0.0000 -22162.0706 2388.7428 0.0000 0.0000 3766.1423 -15972.6841 296.0108 -19738.8264 -15965.2658 298.1578 46.7451 46.4657 541976.2125 2.4546 2.4853
TCL: Running FEP window  11: Lambda1 0.375  Lambda2 0.3125 [dLambda -0.0625]
TCL: Setting parameter firsttimestep to 0
TCL: Setting parameter alchLambda to 0.375
Info: NONBONDED TABLE R-SQUARED SPACING: 0.0625
Info: NONBONDED TABLE SIZE: 769 POINTS
TCL: Setting parameter alchLambda2 to 0.3125
Info: NONBONDED TABLE R-SQUARED SPACING: 0.0625
Info: NONBONDED TABLE SIZE: 769 POINTS
TCL: Running for 5000 steps
ETITLE: TS BOND ANGLE DIHED IMPRP ELECT VDW BOUNDARY MISC KINETIC TOTAL TEMP POTENTIAL TOTAL3 TEMPAVG PRESSURE GPRESSURE VOLUME PRESSAVG GPRESSAVG
ENERGY: 0 3.0892 13.6125 17.7997 0.0000 -22162.0706 2388.4416 0.0000 0.0000 3766.0318 -15973.0958 296.0021 -19739.1275 -15966.2950 296.0021 45.1379 45.3685 541976.2125 45.1379 45.3685
ENERGY: 1000 1.7700 15.4338 18.2296 0.0000 -22128.1076 2335.1342 0.0000 0.0000 3724.7566 -16032.7834 292.7580 -19757.5400 -16026.6847 296.9061 12.2017 12.2059 531600.3669 1.7593 1.7391
ENERGY: 2000 3.1865 14.6669 21.7124 0.0000 -22017.9531 2275.5341 0.0000 0.0000 3645.0758 -16057.7774 286.4952 -19702.8533 -16050.7237 294.9912 -12.4861 -11.7137 507224.9326 0.1372 0.1491
ENERGY: 3000 5.0526 13.9739 17.5068 0.0000 -22324.9294 2350.1933 0.0000 0.0000 3802.6315 -16135.5714 298.8788 -19938.2029 -16128.1680 294.1329 16.2880 15.4717 510748.0089 2.4230 2.3758
ENERGY: 4000 3.0199 11.6215 18.8428 0.0000 -22210.6100 2337.5954 0.0000 0.0000 3715.8552 -16123.6751 292.0583 -19839.5303 -16115.7495 295.2677 12.5882 12.1556 493675.4495 2.3865 2.4123
ENERGY: 5000 2.3875 12.0946 18.8976 0.0000 -22260.0184 2349.9695 0.0000 0.0000 3712.4887 -16164.1805 291.7937 -19876.6693 -16156.4587 292.8101 15.0392 14.7174 487256.5693 -0.0964 -0.1111
TCL: Running FEP window  12: Lambda1 0.3125 Lambda2 0.25   [dLambda -0.0625]
TCL: Setting parameter firsttimestep to 0
TCL: Setting parameter alchLambda to 0.3125
Info: NONBONDED TABLE R-SQUARED SPACING: 0.0625
Info: NONBONDED TABLE SIZE: 769 POINTS
TCL: Setting parameter alchLambda2 to 0.25
Info: NONBONDED TABLE R-SQUARED SPACING: 0.0625
Info: NONBONDED TABLE SIZE: 769 POINTS
TCL: Running for 5000 steps
ETITLE: TS BOND ANGLE DIHED IMPRP ELECT VDW BOUNDARY MISC KINETIC TOTAL TEMP POTENTIAL TOTAL3 TEMPAVG PRESSURE GPRESSURE VOLUME PRESSAVG GPRESSAVG
ENERGY: 0 2.3875 12.0946 18.8976 0.0000 -22260.0184 2351.2604 0.0000 0.0000 3712.3730 -16163.0053 291.7846 -19875.3783 -16155.5245 291.7846 14.3348 14.4006 487256.5693 14.3348 14.4006
ENERGY: 1000 2.5275 12.0859 17.6387 0.0000 -22209.4246 2326.1428 0.0000 0.0000 3698.1359 -16152.8939 290.6656 -19851.0298 -16144.1219 292.4065 16.1443 16.3658 482447.2742 3.7018 3.6419
ENERGY: 2000 3.9673 15.6001 19.7019 0.0000 -22147.5398 2309.0495 0.0000 0.0000 3741.4068 -16057.8142 294.0666 -19799.2210 -16050.5063 295.6833 -33.9905 -34.6788 476804.7114 1.2794 1.2507
ENERGY: 3000 5.1695 14.6882 19.2454 0.0000 -22072.3809 2250.1829 0.0000 0.0000 3770.2975 -16012.7973 296.3374 -19783.0948 -16006.4828 296.3253 -57.8664 -57.3739 465516.8795 1.8015 1.8252
ENERGY: 4000 1.8373 10.7652 21.4985 0.0000 -22107.7230 2270.2874 0.0000 0.0000 3796.8482 -16006.4865 298.4242 -19803.3346 -15998.1238 294.9627 -16.6189 -15.0787 443886.1515 1.9300 1.9334
ENERGY: 5000 3.2297 16.2470 17.5153 0.0000 -22273.8600 2360.5912 0.0000 0.0000 3816.0509 -16060.2259 299.9335 -19876.2768 -16054.2121 296.9789 27.5353 27.4152 426687.0700 1.7744 1.7704
TCL: Running FEP window  13: Lambda1 0.25   Lambda2 0.1875 [dLambda -0.0625]
TCL: Setting parameter firsttimestep to 0
TCL: Setting parameter alchLambda to 0.25
Info: NONBONDED TABLE R-SQUARED SPACING: 0.0625
Info: NONBONDED TABLE SIZE: 769 POINTS
TCL: Setting parameter alchLambda2 to 0.1875
Info: NONBONDED TABLE R-SQUARED SPACING: 0.0625
Info: NONBONDED TABLE SIZE: 769 POINTS
TCL: Running for 5000 steps
ETITLE: TS BOND ANGLE DIHED IMPRP ELECT VDW BOUNDARY MISC KINETIC TOTAL TEMP POTENTIAL TOTAL3 TEMPAVG PRESSURE GPRESSURE VOLUME PRESSAVG GPRESSAVG
ENERGY: 0 3.2297 16.2470 17.5153 0.0000 -22273.8600 2360.9263 0.0000 0.0000 3815.9270 -16060.0147 299.9238 -19875.9417 -16052.9245 299.9238 26.7072 26.5071 426687.0700 26.7072 26.5071
ENERGY: 1000 2.6213 15.1529 23.0693 0.0000 -22015.6135 2273.8605 0.0000 0.0000 3739.9128 -15960.9966 293.9492 -19700.9094 -15953.0473 298.6471 -38.5467 -38.4125 431901.8623 2.5577 2.6052
ENERGY: 2000 3.1863 9.9204 19.2869 0.0000 -21992.5224 2240.6602 0.0000 0.0000 3676.3817 -16043.0868 288.9558 -19719.4685 -16037.1736 297.1715 -75.4897 -74.7492 437408.7440 1.3544 1.3373
ENERGY: 3000 1.9236 9.5729 19.2836 0.0000 -22321.5357 2397.0300 0.0000 0.0000 3694.2121 -16199.5135 290.3572 -19893.7257 -16191.9791 292.3165 55.2908 56.4044 412131.4459 0.8479 0.9101
ENERGY: 4000 3.1246 7.7082 16.6203 0.0000 -22177.3368 2316.6562 0.0000 0.0000 3746.7854 -16086.4421 294.4894 -19833.2275 -16079.8061 295.1871 22.6005 22.0930 408956.0013 -0.9673 -0.9129
ENERGY: 5000 2.9343 10.4159 19.6661 0.0000 -22216.1917 2338.4425 0.0000 0.0000 3745.4908 -16099.2420 294.3876 -19844.7328 -16091.2809 294.9224 4.0976 2.9354 407706.8955 1.1406 1.1259
TCL: Running FEP window  14: Lambda1 0.1875 Lambda2 0.125  [dLambda -0.0625]
TCL: Setting parameter firsttimestep to 0
TCL: Setting parameter alchLambda to 0.1875
Info: NONBONDED TABLE R-SQUARED SPACING: 0.0625
Info: NONBONDED TABLE SIZE: 769 POINTS
TCL: Setting parameter alchLambda2 to 0.125
Info: NONBONDED TABLE R-SQUARED SPACING: 0.0625
Info: NONBONDED TABLE SIZE: 769 POINTS
TCL: Running for 5000 steps
ETITLE: TS BOND ANGLE DIHED IMPRP ELECT VDW BOUNDARY MISC KINETIC TOTAL TEMP POTENTIAL TOTAL3 TEMPAVG PRESSURE GPRESSURE VOLUME PRESSAVG GPRESSAVG
ENERGY: 0 2.9343 10.4159 19.6661 0.0000 -22216.1917 2339.1527 0.0000 0.0000 3745.3786 -16098.6439 294.3788 -19844.0226 -16091.4329 294.3788 2.7751 2.7183 407706.8955 2.7751 2.7183
ENERGY: 1000 5.0005 10.4598 17.1335 0.0000 -22225.4963 2431.7301 0.0000 0.0000 3784.5397 -15976.6327 297.4568 -19761.1724 -15969.3855 296.1076 111.4246 110.5512 399071.6079 -1.3656 -1.2924
ENERGY: 2000 1.5344 12.8584 21.4555 0.0000 -22115.0903 2306.5961 0.0000 0.0000 3759.9794 -16012.6666 295.5264 -19772.6460 -16006.5196 293.9804 -2.5292 -2.5901 411747.7351 1.9694 1.9982
ENERGY: 3000 6.8767 16.6253 20.9544 0.0000 -22344.7439 2413.7242 0.0000 0.0000 3769.7492 -16116.8141 296.2943 -19886.5633 -16109.2068 294.8859 26.4684 25.9213 421030.4908 0.3748 0.3957
ENERGY: 4000 5.6875 11.3668 19.6909 0.0000 -22030.6675 2251.3923 0.0000 0.0000 3742.6923 -15999.8378 294.1677 -19742.5301 -15992.3737 297.1182 -39.5536 -39.6906 415829.9114 0.0674 0.0836
ENERGY: 5000 6.7867 14.1871 18.4615 0.0000 -22074.1639 2231.6682 0.0000 0.0000 3738.0317 -16065.0287 293.8013 -19803.0604 -16060.2025 295.4603 -44.9504 -45.6403 423012.5393 -0.2778 -0.3305
TCL: Running FEP window  15: Lambda1 0.125  Lambda2 0.0625 [dLambda -0.0625]
TCL: Setting parameter firsttimestep to 0
TCL: Setting parameter alchLambda to 0.125
Info: NONBONDED TABLE R-SQUARED SPACING: 0.0625
Info: NONBONDED TABLE SIZE: 769 POINTS
TCL: Setting parameter alchLambda2 to 0.0625
Info: NONBONDED TABLE R-SQUARED SPACING: 0.0625
Info: NONBONDED TABLE SIZE: 769 POINTS
TCL: Running for 5000 steps
ETITLE: TS BOND ANGLE DIHED IMPRP ELECT VDW BOUNDARY MISC KINETIC TOTAL TEMP POTENTIAL TOTAL3 TEMPAVG PRESSURE GPRESSURE VOLUME PRESSAVG GPRESSAVG
ENERGY: 0 6.7867 14.1871 18.4615 0.0000 -22074.1639 2231.3415 0.0000 0.0000 3737.9156 -16065.4715 293.7922 -19803.3871 -16058.1116 293.7922 -46.5811 -46.5843 423012.5393 -46.5811 -46.5843
ENERGY: 1000 2.9437 14.0706 17.9888 0.0000 -22183.3179 2322.6956 0.0000 0.0000 3833.3900 -15992.2292 301.2963 -19825.6192 -15984.2195 298.0316 -20.3570 -20.0549 425663.7799 2.0817 2.1095
ENERGY: 2000 2.9126 14.7930 16.7708 0.0000 -22317.7875 2459.4464 0.0000 0.0000 3833.6660 -15990.1988 301.3180 -19823.8648 -15980.8815 295.2849 98.3387 97.9309 410060.1588 1.0855 1.0632
ENERGY: 3000 2.9018 16.1295 20.0490 0.0000 -22068.6154 2323.4961 0.0000 0.0000 3831.0887 -15874.9503 301.1154 -19706.0390 -15865.8071 299.1527 31.8710 31.9228 411526.7021 1.1021 1.0643
ENERGY: 4000 5.4278 13.4693 17.5288 0.0000 -21938.9694 2273.8971 0.0000 0.0000 3830.4803 -15798.1662 301.0676 -19628.6465 -15791.3982 300.6592 1.2709 0.9348 426725.6514 0.8465 0.8243
ENERGY: 5000 4.3220 13.2450 18.9211 0.0000 -21888.6460 2278.2945 0.0000 0.0000 3765.0710 -15808.7923 295.9266 -19573.8633 -15800.1543 300.5445 -30.1311 -29.5128 440541.6049 -2.9382 -2.9444
TCL: Running FEP window  16: Lambda1 0.0625 Lambda2 0.0    [dLambda -0.0625]
TCL: Setting parameter firsttimestep to 0
TCL: Setting parameter alchLambda to 0.0625
Info: NONBONDED TABLE R-SQUARED SPACING: 0.0625
Info: NONBONDED TABLE SIZE: 769 POINTS
TCL: Setting parameter alchLambda2 to 0.0
Info: NONBONDED TABLE R-SQUARED SPACING: 0.0625
Info: NONBONDED TABLE SIZE: 769 POINTS
TCL: Running for 5000 steps
ETITLE: TS BOND ANGLE DIHED IMPRP ELECT VDW BOUNDARY MISC KINETIC TOTAL TEMP POTENTIAL TOTAL3 TEMPAVG PRESSURE GPRESSURE VOLUME PRESSAVG GPRESSAVG
ENERGY: 0 4.3220 13.2450 18.9211 0.0000 -21888.6460 2277.5535 0.0000 0.0000 3764.9547 -15809.6496 295.9174 -19574.6043 -15801.8247 295.9174 -30.1029 -29.7455 440541.6049 -30.1029 -29.7455
ENERGY: 1000 4.6008 14.6288 21.6540 0.0000 -22222.6679 2437.5668 0.0000 0.0000 3839.0353 -15905.1822 301.7400 -19744.2175 -15895.6244 299.6697 62.0180 61.7865 418893.4794 -0.0197 0.0282
ENERGY: 2000 2.6377 17.4488 19.2004 0.0000 -22014.5833 2314.8011 0.0000 0.0000 3849.8810 -15810.6143 302.5925 -19660.4953 -15802.0208 300.7185 23.9128 23.3982 423713.0095 2.7449 2.6852
ENERGY: 3000 3.9411 11.6821 17.9168 0.0000 -22107.9706 2361.8157 0.0000 0.0000 3798.2008 -15914.4140 298.5305 -19712.6148 -15908.5664 300.0911 31.9936 31.0629 425322.3069 1.0560 1.0497
ENERGY: 4000 4.5709 14.4575 18.4113 0.0000 -22249.5262 2360.9518 0.0000 0.0000 3846.7251 -16004.4096 302.3444 -19851.1346 -15997.8185 296.7209 34.7053 33.9263 423954.4846 -0.1115 -0.1302
ENERGY: 5000 2.7492 16.6711 18.9121 0.0000 -22095.1666 2371.6885 0.0000 0.0000 3738.2531 -15946.8925 293.8187 -19685.1457 -15938.7144 298.5918 30.7528 30.9208 428183.2609 0.3868 0.3454
