Info: SIMULATION PARAMETERS:
Info: TIMESTEP               2
Info: NUMBER OF STEPS        0
Info: STEPS PER CYCLE        10
Info: PERIODIC CELL BASIS 1  84.3312 0 0
Info: PERIODIC CELL BASIS 2  0 84.3312 0
Info: PERIODIC CELL BASIS 3  0 0 84.3312
Info: PERIODIC CELL CENTER   41.428 41.428 41.428
Info: WRAPPING ALL CLUSTERS AROUND PERIODIC BOUNDARIES ON OUTPUT.
Info: FIRST LDB TIMESTEP     50
Info: LAST LDB TIMESTEP     -1
Info: HOM BACKGROUND SCALING 1
Info: PME BACKGROUND SCALING 1
Info: MIN ATOMS PER PATCH    40
Info: EMPTY PATCH LOAD       40 ATOMS
Info: VELOCITY FILE          mobley_7829570_equilibrated.vel
Info: CENTER OF MASS MOVING INITIALLY? NO
Info: DIELECTRIC             1
Info: EXCLUDE                SCALED ONE-FOUR
Info: 1-4 ELECTROSTATICS SCALED BY 1
Info: MODIFIED 1-4 VDW PARAMETERS WILL BE USED
Info: DCD FILENAME           mobley_7829570_forwards.dcd
Info: DCD FREQUENCY          500
Info: DCD FIRST STEP         500
Info: DCD FILE WILL CONTAIN UNIT CELL DATA
Info: NO EXTENDED SYSTEM TRAJECTORY OUTPUT
Info: NO VELOCITY DCD OUTPUT
Info: NO FORCE DCD OUTPUT
Info: OUTPUT FILENAME        mobley_7829570_forwards
Info: BINARY OUTPUT FILES WILL BE USED
Info: NO RESTART FILE
Info: SWITCHING ACTIVE
Info: SWITCHING ON           10
Info: SWITCHING OFF          12
Info: PAIRLIST DISTANCE      14
Info: PAIRLIST SHRINK RATE   0.01
Info: PAIRLIST GROW RATE     0.01
Info: PAIRLIST TRIGGER       0.3
Info: PAIRLISTS PER CYCLE    2
Info: PAIRLISTS ENABLED
Info: MARGIN                 8
Info: HYDROGEN GROUP CUTOFF  2.5
Info: PATCH DIMENSION        24.5
Info: ENERGY OUTPUT STEPS    500
Info: ENERGY EVALUATION STEPS    500
Info: OUTPUT ENERGY PRECISION 4
Info: CROSSTERM ENERGY INCLUDED IN DIHEDRAL
Info: TIMING OUTPUT STEPS    500
Info: PRESSURE OUTPUT STEPS  500
Info: ALCHEMICAL FEP ON
Info: FEP CURRENT LAMBDA VALUE     0
Info: FEP COMPARISON LAMBDA VALUE  0.0625
Info: FEP INTRA-ALCHEMICAL NON-BONDED INTERACTIONS WILL BE DECOUPLED
Info: FEP INTRA-ALCHEMICAL BONDED INTERACTIONS WILL BE RETAINED
Info: FEP VDW SHIFTING COEFFICIENT 6
Info: FEP ELEC. ACTIVE FOR ANNIHILATED PARTICLES BETWEEN LAMBDA = 0 AND LAMBDA = 0.5
Info: FEP ELEC. ACTIVE FOR EXNIHILATED PARTICLES BETWEEN LAMBDA = 0.5 AND LAMBDA = 1
Info: FEP VDW ACTIVE FOR ANNIHILATED PARTICLES BETWEEN LAMBDA = 0 AND LAMBDA = 1
Info: FEP VDW ACTIVE FOR EXNIHILATED PARTICLES BETWEEN LAMBDA = 0 AND LAMBDA = 1
Info: FEP BOND ACTIVE FOR ANNIHILATED PARTICLES BETWEEN LAMBDA = 1 AND LAMBDA = 1
Info: FEP BOND ACTIVE FOR EXNIHILATED PARTICLES BETWEEN LAMBDA = 0 AND LAMBDA = 0
Info: LANGEVIN DYNAMICS ACTIVE
Info: LANGEVIN TEMPERATURE   298
Info: LANGEVIN USING BBK INTEGRATOR
Info: LANGEVIN DAMPING COEFFICIENT IS 1 INVERSE PS
Info: LANGEVIN DYNAMICS NOT APPLIED TO HYDROGENS
Info: LANGEVIN PISTON PRESSURE CONTROL ACTIVE
Info:        TARGET PRESSURE IS 1.01325 BAR
Info:     OSCILLATION PERIOD IS 100 FS
Info:             DECAY TIME IS 50 FS
Info:     PISTON TEMPERATURE IS 298 K
Info:       PRESSURE CONTROL IS GROUP-BASED
Info:    INITIAL STRAIN RATE IS -2.52318e-06 -2.52318e-06 -2.52318e-06
Info:       CELL FLUCTUATION IS ISOTROPIC
Info: PARTICLE MESH EWALD (PME) ACTIVE
Info: PME TOLERANCE               1e-05
Info: PME EWALD COEFFICIENT       0.226635
Info: PME INTERPOLATION ORDER     4
Info: PME GRID DIMENSIONS         88 88 88
Info: PME MAXIMUM GRID SPACING    1
Info: FULL ELECTROSTATIC EVALUATION FREQUENCY      1
Info: USING VERLET I (r-RESPA) MTS SCHEME.
Info: C1 SPLITTING OF LONG RANGE ELECTROSTATICS
Info: PLACING ATOMS IN PATCHES BY HYDROGEN GROUPS
Info: RIGID BONDS TO HYDROGEN : ALL
Info:         ERROR TOLERANCE : 1e-08
Info:          MAX ITERATIONS : 100
Info: RIGID WATER USING SETTLE ALGORITHM
Info: RANDOM NUMBER SEED     1740650593
Info: USE HYDROGEN BONDS?    NO
Info: COORDINATE PDB         mobley_7829570.pdb
Info: STRUCTURE FILE         mobley_7829570.psf
Info: PARAMETER file: CHARMM format!
Info: PARAMETERS             ../common/par_all27_prot_lipid.inp
Info: PARAMETERS             mobley_7829570.prm
Info: USING ARITHMETIC MEAN TO COMBINE L-J SIGMA PARAMETERS
Info: BINARY COORDINATES     mobley_7829570_equilibrated.coor
Info: SUMMARY OF PARAMETERS:
Info: 191 BONDS
Info: 465 ANGLES
Info: 590 DIHEDRAL
Info: 51 IMPROPER
Info: 6 CROSSTERM
Info: 128 VDW
Info: 0 VDW_PAIRS
Info: 0 NBTHOLE_PAIRS
Info: To read alchdata from file: mobley_7829570.pdb
Info: To read alchflag data from column: 5
Info: STRUCTURE SUMMARY:
Info: 6942 ATOMS
Info: 4641 BONDS
Info: 2370 ANGLES
Info: 90 DIHEDRALS
Info: 7 IMPROPERS
Info: 0 CROSSTERMS
Info: 0 EXCLUSIONS
Info: 6919 RIGID BONDS
Info: ALCH: 0 ATOMS TO DISAPPEAR IN FINAL STATE
Info: ALCH: 39 ATOMS TO APPEAR IN FINAL STATE
Info: 13907 DEGREES OF FREEDOM
Info: 2324 HYDROGEN GROUPS
Info: 4 ATOMS IN LARGEST HYDROGEN GROUP
Info: 2324 MIGRATION GROUPS
Info: 4 ATOMS IN LARGEST MIGRATION GROUP
Info: TOTAL MASS = 41788.7 amu
Info: TOTAL CHARGE = 4.47035e-08 e
Info: MASS DENSITY = 0.115705 g/cm^3
Info: ATOM DENSITY = 0.011575 atoms/A^3
Info: ADDED 7098 IMPLICIT EXCLUSIONS
Info: NONBONDED TABLE R-SQUARED SPACING: 0.0625
Info: NONBONDED TABLE SIZE: 769 POINTS
Info: REMOVING COM VELOCITY 0.0560844 0.0348354 -0.0373077
TCL: Running for 5000 steps
ETITLE: TS BOND ANGLE DIHED IMPRP ELECT VDW BOUNDARY MISC KINETIC TOTAL TEMP POTENTIAL TOTAL3 TEMPAVG PRESSURE GPRESSURE VOLUME PRESSAVG GPRESSAVG
ENERGY: 0 8.1275 15.3445 16.0825 0.2645 -24005.9450 2467.2182 0.0000 0.0000 4094.2266 -17404.6811 296.2981 -21498.9077 -17396.6429 296.2981 -47.5840 -47.4644 599743.2555 -47.5840 -47.4644
ENERGY: 1000 7.6200 14.3765 8.0917 0.9204 -24150.6657 2615.2943 0.0000 0.0000 4119.1348 -17385.2279 298.1007 -21504.3627 -17377.9197 297.0598 30.1479 30.1985 577510.9652 2.1374 2.1598
ENERGY: 2000 6.6196 21.6872 4.2583 0.1430 -24033.8050 2482.5125 0.0000 0.0000 4048.1788 -17470.4057 292.9656 -21518.5844 -17463.1816 294.1371 -22.1495 -20.9009 579755.3698 0.6753 0.6738
ENERGY: 3000 8.0796 12.6841 4.1945 0.4790 -24304.8501 2670.4266 0.0000 0.0000 4083.7377 -17525.2486 295.5390 -21608.9864 -17516.2662 294.4787 43.7077 43.0077 593230.6718 1.4173 1.4436
ENERGY: 4000 6.0798 14.3396 6.5113 0.9681 -24159.5489 2626.2555 0.0000 0.0000 4098.5738 -17406.8208 296.6127 -21505.3947 -17399.3895 295.9482 10.7862 10.6221 609967.0237 1.9783 1.9817
ENERGY: 5000 7.1927 15.1080 5.3215 0.1141 -24142.3443 2622.8917 0.0000 0.0000 4124.5461 -17367.1702 298.4923 -21491.7163 -17358.8200 295.9869 44.1024 43.9153 602921.4545 0.2386 0.2065
TCL: Running FEP window   2: Lambda1 0.0625 Lambda2 0.125  [dLambda 0.0625]
TCL: Setting parameter firsttimestep to 0
TCL: Setting parameter alchLambda to 0.0625
Info: NONBONDED TABLE R-SQUARED SPACING: 0.0625
Info: NONBONDED TABLE SIZE: 769 POINTS
TCL: Setting parameter alchLambda2 to 0.125
Info: NONBONDED TABLE R-SQUARED SPACING: 0.0625
Info: NONBONDED TABLE SIZE: 769 POINTS
TCL: Running for 5000 steps
ETITLE: TS BOND ANGLE DIHED IMPRP ELECT VDW BOUNDARY MISC KINETIC TOTAL TEMP POTENTIAL TOTAL3 TEMPAVG PRESSURE GPRESSURE VOLUME PRESSAVG GPRESSAVG
ENERGY: 0 7.1927 15.1080 5.3215 0.1141 -24142.3443 2626.0324 0.0000 0.0000 4124.4193 -17364.1562 298.4831 -21488.5755 -17356.4149 298.4831 44.2996 44.2021 602921.4545 44.2996 44.2021
ENERGY: 1000 4.9284 15.6428 4.1400 0.1194 -23832.6148 2413.7905 0.0000 0.0000 4054.8539 -17339.1398 293.4487 -21393.9937 -17330.4753 298.1206 -23.5091 -23.6948 583439.7628 1.7156 1.7232
ENERGY: 2000 6.4269 17.2765 5.3766 0.2805 -23781.8616 2373.5725 0.0000 0.0000 4085.4244 -17293.5042 295.6610 -21378.9286 -17285.5255 299.0198 -70.8172 -70.5697 588568.3313 -0.8635 -0.8754
ENERGY: 3000 8.5698 13.9320 5.1251 0.4737 -23879.1976 2428.8906 0.0000 0.0000 4144.6577 -17277.5486 299.9477 -21422.2064 -17269.8561 298.6616 -22.8877 -23.3791 569573.3721 2.2169 2.1893
ENERGY: 4000 8.8806 19.4746 5.1358 0.7541 -24009.2435 2547.9553 0.0000 0.0000 4168.5772 -17258.4659 301.6788 -21427.0431 -17249.6910 301.4923 12.4924 12.6016 569946.8956 0.2189 0.2124
ENERGY: 5000 4.5281 17.9296 6.0205 0.7731 -24100.7521 2521.8270 0.0000 0.0000 4157.6553 -17392.0184 300.8884 -21549.6737 -17383.1764 297.2163 -10.4031 -10.5595 583679.6826 -0.9169 -0.9120
TCL: Running FEP window   3: Lambda1 0.125  Lambda2 0.1875 [dLambda 0.0625]
TCL: Setting parameter firsttimestep to 0
TCL: Setting parameter alchLambda to 0.125
Info: NONBONDED TABLE R-SQUARED SPACING: 0.0625
Info: NONBONDED TABLE SIZE: 769 POINTS
TCL: Setting parameter alchLambda2 to 0.1875
Info: NONBONDED TABLE R-SQUARED SPACING: 0.0625
Info: NONBONDED TABLE SIZE: 769 POINTS
TCL: Running for 5000 steps
ETITLE: TS BOND ANGLE DIHED IMPRP ELECT VDW BOUNDARY MISC KINETIC TOTAL TEMP POTENTIAL TOTAL3 TEMPAVG PRESSURE GPRESSURE VOLUME PRESSAVG GPRESSAVG
ENERGY: 0 4.5281 17.9296 6.0205 0.7731 -24100.7521 2524.3380 0.0000 0.0000 4157.5215 -17389.6412 300.8787 -21547.1627 -17381.0640 300.8787 -9.8318 -9.9322 583679.6826 -9.8318 -9.9322
ENERGY: 1000 5.4086 19.2836 6.3873 0.8201 -24157.2405 2609.5238 0.0000 0.0000 4065.3885 -17450.4285 294.2111 -21515.8170 -17444.0127 295.0642 49.9590 50.7878 591642.0698 3.5545 3.5393
ENERGY: 2000 4.0755 16.0435 7.3863 0.2049 -24148.8616 2605.2053 0.0000 0.0000 4157.9068 -17358.0392 300.9066 -21515.9460 -17348.5876 297.5075 57.8006 57.7742 586820.5498 0.8388 0.8259
ENERGY: 3000 9.0292 12.4606 6.1709 0.5237 -23912.8068 2465.2266 0.0000 0.0000 4117.6380 -17301.7578 297.9923 -21419.3958 -17292.1202 299.3649 -2.6686 -2.6225 589707.9514 2.6311 2.6267
ENERGY: 4000 6.8444 15.2176 6.0732 0.3716 -23988.9427 2477.4008 0.0000 0.0000 4109.8961 -17373.1390 297.4321 -21483.0351 -17363.0642 298.2039 -5.1580 -5.4234 575953.3434 -0.3914 -0.4270
ENERGY: 5000 4.3763 17.2657 5.2323 0.5253 -24067.0249 2475.8592 0.0000 0.0000 4164.9686 -17398.7976 301.4176 -21563.7661 -17392.2396 296.9321 -37.4850 -36.0582 576334.2894 2.9178 2.8965
TCL: Running FEP window   4: Lambda1 0.1875 Lambda2 0.25   [dLambda 0.0625]
TCL: Setting parameter firsttimestep to 0
TCL: Setting parameter alchLambda to 0.1875
Info: NONBONDED TABLE R-SQUARED SPACING: 0.0625
Info: NONBONDED TABLE SIZE: 769 POINTS
TCL: Setting parameter alchLambda2 to 0.25
Info: NONBONDED TABLE R-SQUARED SPACING: 0.0625
Info: NONBONDED TABLE SIZE: 769 POINTS
TCL: Running for 5000 steps
ETITLE: TS BOND ANGLE DIHED IMPRP ELECT VDW BOUNDARY MISC KINETIC TOTAL TEMP POTENTIAL TOTAL3 TEMPAVG PRESSURE GPRESSURE VOLUME PRESSAVG GPRESSAVG
ENERGY: 0 4.3763 17.2657 5.2323 0.5253 -24067.0249 2481.8103 0.0000 0.0000 4164.8458 -17392.9693 301.4088 -21557.8151 -17384.4900 301.4088 -34.6251 -34.7985 576334.2894 -34.6251 -34.7985
ENERGY: 1000 8.5358 16.4487 5.9132 0.3258 -24114.4924 2548.3266 0.0000 0.0000 4109.7398 -17425.2024 297.4207 -21534.9422 -17419.3586 296.6076 27.8489 28.0255 567883.7660 1.7306 1.6934
ENERGY: 2000 6.5910 16.6731 6.6464 0.3662 -24095.1054 2597.6415 0.0000 0.0000 4119.6431 -17347.5441 298.1374 -21467.1872 -17342.9760 297.1636 26.0116 26.6398 564336.1333 1.7188 1.7447
ENERGY: 3000 8.5290 14.0086 6.0847 0.1547 -23966.5473 2471.3436 0.0000 0.0000 4111.9088 -17354.5179 297.5777 -21466.4266 -17345.7412 297.2963 -19.8237 -19.2339 551533.5229 1.9189 1.9718
ENERGY: 4000 8.7492 17.5170 6.5188 0.2354 -24098.8531 2533.6250 0.0000 0.0000 4153.2520 -17378.9558 300.5697 -21532.2078 -17371.4825 297.0413 15.5878 15.0505 535847.1493 2.0040 1.9840
ENERGY: 5000 5.8296 18.7571 7.2291 0.3933 -23959.8889 2462.3957 0.0000 0.0000 4148.1294 -17317.1547 300.1990 -21465.2841 -17308.5413 296.8252 -3.8975 -4.4513 539072.9296 1.2063 1.2371
TCL: Running FEP window   5: Lambda1 0.25   Lambda2 0.3125 [dLambda 0.0625]
TCL: Setting parameter firsttimestep to 0
TCL: Setting parameter alchLambda to 0.25
Info: NONBONDED TABLE R-SQUARED SPACING: 0.0625
Info: NONBONDED TABLE SIZE: 769 POINTS
TCL: Setting parameter alchLambda2 to 0.3125
Info: NONBONDED TABLE R-SQUARED SPACING: 0.0625
Info: NONBONDED TABLE SIZE: 769 POINTS
TCL: Running for 5000 steps
ETITLE: TS BOND ANGLE DIHED IMPRP ELECT VDW BOUNDARY MISC KINETIC TOTAL TEMP POTENTIAL TOTAL3 TEMPAVG PRESSURE GPRESSURE VOLUME PRESSAVG GPRESSAVG
ENERGY: 0 5.8296 18.7571 7.2291 0.3933 -23959.8889 2468.6990 0.0000 0.0000 4148.0051 -17310.9758 300.1900 -21458.9808 -17303.3346 300.1900 -2.5328 -2.7293 539072.9296 -2.5328 -2.7293
ENERGY: 1000 4.3286 23.5540 7.5192 0.4569 -24007.8273 2545.6970 0.0000 0.0000 4171.5847 -17254.6868 301.8964 -21426.2715 -17246.9452 299.4436 13.9059 13.8008 544743.4078 2.7238 2.7351
ENERGY: 2000 10.4425 18.0890 10.4088 0.7976 -24169.5671 2694.2237 0.0000 0.0000 4129.5725 -17306.0329 298.8560 -21435.6054 -17299.6666 297.5488 117.1881 117.1099 541318.9111 1.0772 1.1031
ENERGY: 3000 10.1069 19.0680 9.2010 0.4121 -23966.1787 2526.6747 0.0000 0.0000 4108.1713 -17292.5448 297.3072 -21400.7160 -17283.9774 298.2458 27.1064 26.2776 543048.5524 1.2522 1.2455
ENERGY: 4000 7.8236 18.7580 6.3474 0.2216 -24101.2684 2556.9513 0.0000 0.0000 4166.2746 -17344.8918 301.5122 -21511.1665 -17336.5931 297.6224 20.1563 19.3770 544975.1343 -0.4687 -0.4627
ENERGY: 5000 7.6061 16.0658 8.2588 0.7587 -24070.4715 2539.8401 0.0000 0.0000 4106.0615 -17391.8805 297.1545 -21497.9420 -17382.4942 297.2835 -2.2514 -1.0473 557126.3572 0.4521 0.4359
TCL: Running FEP window   6: Lambda1 0.3125 Lambda2 0.375  [dLambda 0.0625]
TCL: Setting parameter firsttimestep to 0
TCL: Setting parameter alchLambda to 0.3125
Info: NONBONDED TABLE R-SQUARED SPACING: 0.0625
Info: NONBONDED TABLE SIZE: 769 POINTS
TCL: Setting parameter alchLambda2 to 0.375
Info: NONBONDED TABLE R-SQUARED SPACING: 0.0625
Info: NONBONDED TABLE SIZE: 769 POINTS
TCL: Running for 5000 steps
ETITLE: TS BOND ANGLE DIHED IMPRP ELECT VDW BOUNDARY MISC KINETIC TOTAL TEMP POTENTIAL TOTAL3 TEMPAVG PRESSURE GPRESSURE VOLUME PRESSAVG GPRESSAVG
ENERGY: 0 7.6061 16.0658 8.2588 0.7587 -24070.4715 2543.8063 0.0000 0.0000 4105.9330 -17388.0428 297.1452 -21493.9758 -17379.8845 297.1452 0.6622 0.8723 557126.3572 0.6622 0.8723
ENERGY: 1000 6.2341 17.7273 7.7543 0.4941 -24204.2118 2529.1078 0.0000 0.0000 4178.3238 -17464.5703 302.3841 -21642.8940 -17455.6665 295.0252 -0.3471 -0.5123 564306.5606 -0.3796 -0.3685
ENERGY: 2000 5.8305 20.6428 10.2377 0.4601 -24134.9933 2581.6937 0.0000 0.0000 4034.3908 -17481.7377 291.9678 -21516.1285 -17476.0595 294.3465 26.2191 26.3620 583801.3684 4.3740 4.3733
ENERGY: 3000 8.8467 20.1800 5.1234 0.2097 -24273.9141 2652.8032 0.0000 0.0000 4086.0975 -17500.6537 295.7098 -21586.7511 -17494.7863 294.1950 54.3217 55.1826 571160.9796 0.0775 0.0646
ENERGY: 4000 6.7758 19.7022 9.8233 0.1642 -24057.6950 2465.7848 0.0000 0.0000 4084.6296 -17470.8151 295.6035 -21555.4447 -17463.9728 294.9410 3.5410 3.4570 556611.0333 -0.1988 -0.1508
ENERGY: 5000 4.3407 23.8877 8.5035 0.4080 -24028.3324 2539.3390 0.0000 0.0000 4058.2855 -17393.5680 293.6970 -21451.8535 -17384.9007 295.9059 26.6260 26.4097 558205.0378 3.0726 3.0521
TCL: Running FEP window   7: Lambda1 0.375  Lambda2 0.4375 [dLambda 0.0625]
TCL: Setting parameter firsttimestep to 0
TCL: Setting parameter alchLambda to 0.375
Info: NONBONDED TABLE R-SQUARED SPACING: 0.0625
Info: NONBONDED TABLE SIZE: 769 POINTS
TCL: Setting parameter alchLambda2 to 0.4375
Info: NONBONDED TABLE R-SQUARED SPACING: 0.0625
Info: NONBONDED TABLE SIZE: 769 POINTS
TCL: Running for 5000 steps
ETITLE: TS BOND ANGLE DIHED IMPRP ELECT VDW BOUNDARY MISC KINETIC TOTAL TEMP POTENTIAL TOTAL3 TEMPAVG PRESSURE GPRESSURE VOLUME PRESSAVG GPRESSAVG
ENERGY: 0 4.3407 23.8877 8.5035 0.4080 -24028.3324 2541.7250 0.0000 0.0000 4058.1579 -17391.3096 293.6878 -21449.4675 -17384.0530 293.6878 28.2691 28.2871 558205.0378 28.2691 28.2871
ENERGY: 1000 6.5438 15.8811 14.4763 0.6008 -24115.5524 2585.9840 0.0000 0.0000 4100.1886 -17391.8778 296.7295 -21492.0664 -17383.9716 297.3882 17.4407 18.1383 559989.8454 0.0400 0.0082
ENERGY: 2000 8.2106 17.7988 12.0253 0.2451 -23987.0420 2521.1121 0.0000 0.0000 4024.7906 -17402.8595 291.2730 -21427.6501 -17395.0635 295.9840 14.2675 14.7661 585711.9687 1.3023 1.2722
ENERGY: 3000 6.3865 21.2738 7.3374 0.2561 -24026.5970 2518.2868 0.0000 0.0000 4166.3767 -17306.6796 301.5195 -21473.0563 -17298.7766 297.7634 10.7185 10.8547 585807.3550 0.9249 0.8824
ENERGY: 4000 11.2482 10.5961 8.1534 0.2636 -24133.6728 2604.2650 0.0000 0.0000 4150.3562 -17348.7904 300.3601 -21499.1466 -17339.8418 299.0196 58.1638 58.4896 575828.9922 0.9113 0.8871
ENERGY: 5000 9.2451 14.1832 12.9678 1.0982 -24104.7493 2578.1367 0.0000 0.0000 4122.9741 -17366.1441 298.3785 -21489.1182 -17356.1917 297.1025 8.2262 7.8043 576094.4110 1.6099 1.6223
TCL: Running FEP window   8: Lambda1 0.4375 Lambda2 0.5    [dLambda 0.0625]
TCL: Setting parameter firsttimestep to 0
TCL: Setting parameter alchLambda to 0.4375
Info: NONBONDED TABLE R-SQUARED SPACING: 0.0625
Info: NONBONDED TABLE SIZE: 769 POINTS
TCL: Setting parameter alchLambda2 to 0.5
Info: NONBONDED TABLE R-SQUARED SPACING: 0.0625
Info: NONBONDED TABLE SIZE: 769 POINTS
TCL: Running for 5000 steps
ETITLE: TS BOND ANGLE DIHED IMPRP ELECT VDW BOUNDARY MISC KINETIC TOTAL TEMP POTENTIAL TOTAL3 TEMPAVG PRESSURE GPRESSURE VOLUME PRESSAVG GPRESSAVG
ENERGY: 0 9.2451 14.1832 12.9678 1.0982 -24104.7493 2577.6098 0.0000 0.0000 4122.8516 -17366.7935 298.3696 -21489.6451 -17357.7777 298.3696 8.4213 8.7264 576094.4110 8.4213 8.7264
ENERGY: 1000 9.0644 17.5962 11.3668 0.8340 -24134.0869 2569.0160 0.0000 0.0000 4053.0005 -17473.2090 293.3145 -21526.2095 -17464.5333 293.9930 44.6231 44.6527 568749.1935 -0.8074 -0.8272
ENERGY: 2000 9.3101 15.5093 7.0633 0.0629 -23950.8262 2392.7659 0.0000 0.0000 4092.4193 -17433.6953 296.1673 -21526.1146 -17426.7014 296.2108 -61.5750 -61.9988 581475.6906 2.3992 2.3569
ENERGY: 3000 6.3845 17.1616 10.2941 0.3692 -23813.2678 2418.9221 0.0000 0.0000 4109.2059 -17250.9305 297.3821 -21360.1364 -17243.1579 298.3750 -31.0840 -30.6946 590442.5397 1.3361 1.3651
ENERGY: 4000 6.4201 13.1773 9.7830 0.4394 -24070.4690 2529.5999 0.0000 0.0000 4113.9009 -17397.1485 297.7219 -21511.0493 -17388.1999 297.2590 -9.6097 -9.0367 577153.0816 1.5195 1.5496
ENERGY: 5000 9.4588 19.7783 5.1482 0.4858 -24039.0697 2494.6116 0.0000 0.0000 4155.4005 -17354.1865 300.7252 -21509.5870 -17347.5047 297.7866 14.2269 13.9938 551782.0563 1.8110 1.8214
TCL: Running FEP window   9: Lambda1 0.5    Lambda2 0.5625 [dLambda 0.0625]
TCL: Setting parameter firsttimestep to 0
TCL: Setting parameter alchLambda to 0.5
Info: NONBONDED TABLE R-SQUARED SPACING: 0.0625
Info: NONBONDED TABLE SIZE: 769 POINTS
TCL: Setting parameter alchLambda2 to 0.5625
Info: NONBONDED TABLE R-SQUARED SPACING: 0.0625
Info: NONBONDED TABLE SIZE: 769 POINTS
TCL: Running for 5000 steps
ETITLE: TS BOND ANGLE DIHED IMPRP ELECT VDW BOUNDARY MISC KINETIC TOTAL TEMP POTENTIAL TOTAL3 TEMPAVG PRESSURE GPRESSURE VOLUME PRESSAVG GPRESSAVG
ENERGY: 0 9.4588 19.7783 5.1482 0.4858 -24039.0697 2500.4811 0.0000 0.0000 4155.2775 -17348.4400 300.7163 -21503.7175 -17340.2185 300.7163 17.5392 17.6986 551782.0563 17.5392 17.6986
ENERGY: 1000 7.1906 10.7389 11.6651 1.1697 -24062.6570 2498.1378 0.0000 0.0000 4079.5368 -17454.2180 295.2350 -21533.7548 -17445.9261 295.4009 -9.5482 -9.7767 555695.0668 0.6697 0.6582
ENERGY: 2000 5.5076 17.2097 16.3409 1.0124 -24058.0878 2502.0303 0.0000 0.0000 4109.5914 -17406.3955 297.4100 -21515.9869 -17399.8586 297.3804 0.3047 -0.1079 546270.1998 1.4806 1.4347
ENERGY: 3000 8.1777 21.5292 10.0929 0.7574 -24234.3803 2613.6395 0.0000 0.0000 4145.4650 -17434.7186 300.0062 -21580.1836 -17425.8298 296.0662 40.8530 40.6883 548397.8226 2.2706 2.2473
ENERGY: 4000 8.0743 17.2609 7.4102 0.7425 -23957.4605 2445.8640 0.0000 0.0000 4092.0895 -17386.0190 296.1434 -21478.1085 -17379.4660 296.6223 -16.1678 -17.9467 552882.1089 -0.2676 -0.2790
ENERGY: 5000 4.9774 15.7084 15.1758 1.0455 -23936.2170 2377.9155 0.0000 0.0000 4062.9645 -17458.4299 294.0356 -21521.3943 -17450.4180 294.7628 -72.4776 -71.6998 552836.6105 1.0946 1.0824
TCL: Running FEP window  10: Lambda1 0.5625 Lambda2 0.625  [dLambda 0.0625]
TCL: Setting parameter firsttimestep to 0
TCL: Setting parameter alchLambda to 0.5625
Info: NONBONDED TABLE R-SQUARED SPACING: 0.0625
Info: NONBONDED TABLE SIZE: 769 POINTS
TCL: Setting parameter alchLambda2 to 0.625
Info: NONBONDED TABLE R-SQUARED SPACING: 0.0625
Info: NONBONDED TABLE SIZE: 769 POINTS
TCL: Running for 5000 steps
ETITLE: TS BOND ANGLE DIHED IMPRP ELECT VDW BOUNDARY MISC KINETIC TOTAL TEMP POTENTIAL TOTAL3 TEMPAVG PRESSURE GPRESSURE VOLUME PRESSAVG GPRESSAVG
ENERGY: 0 4.9774 15.7084 15.1758 1.0455 -23941.7647 2377.5900 0.0000 0.0000 4062.8369 -17464.4306 294.0264 -21527.2675 -17456.0570 294.0264 -70.3387 -70.5132 552836.6105 -70.3387 -70.5132
ENERGY: 1000 4.5903 17.5772 9.9903 0.3108 -24204.8971 2556.5394 0.0000 0.0000 4079.1178 -17536.7714 295.2046 -21615.8892 -17529.3462 293.0631 13.0432 12.4665 543791.7566 0.2530 0.2503
ENERGY: 2000 5.9416 14.5940 12.0197 0.3052 -24128.1066 2548.3851 0.0000 0.0000 4140.6228 -17406.2381 299.6557 -21546.8609 -17397.2485 296.8480 39.8772 40.0874 531650.9495 0.9008 0.9308
ENERGY: 3000 8.1547 18.4932 7.5573 0.0924 -24180.9745 2597.8706 0.0000 0.0000 4157.4713 -17391.3349 300.8751 -21548.8062 -17381.4556 297.7933 39.6264 40.5573 516844.1993 0.4943 0.5462
ENERGY: 4000 5.6337 12.4655 12.7031 0.2581 -24073.9786 2488.6845 0.0000 0.0000 4047.7494 -17506.4843 292.9345 -21554.2337 -17496.7368 294.1180 -3.3830 -3.2293 500515.9201 -0.4773 -0.4786
ENERGY: 5000 10.0750 15.2657 10.7164 0.9081 -24134.1620 2572.8983 0.0000 0.0000 4041.8062 -17482.4923 292.5044 -21524.2985 -17473.0073 295.1655 29.8290 28.4909 509388.6165 -0.3668 -0.4050
TCL: Running FEP window  11: Lambda1 0.625  Lambda2 0.6875 [dLambda 0.0625]
TCL: Setting parameter firsttimestep to 0
TCL: Setting parameter alchLambda to 0.625
Info: NONBONDED TABLE R-SQUARED SPACING: 0.0625
Info: NONBONDED TABLE SIZE: 769 POINTS
TCL: Setting parameter alchLambda2 to 0.6875
Info: NONBONDED TABLE R-SQUARED SPACING: 0.0625
Info: NONBONDED TABLE SIZE: 769 POINTS
TCL: Running for 5000 steps
ETITLE: TS BOND ANGLE DIHED IMPRP ELECT VDW BOUNDARY MISC KINETIC TOTAL TEMP POTENTIAL TOTAL3 TEMPAVG PRESSURE GPRESSURE VOLUME PRESSAVG GPRESSAVG
ENERGY: 0 10.0750 15.2657 10.7164 0.9081 -24140.4916 2573.1197 0.0000 0.0000 4041.6814 -17488.7254 292.4954 -21530.4068 -17481.1843 292.4954 30.1448 30.2450 509388.6165 30.1448 30.2450
ENERGY: 1000 7.4762 12.0374 14.3284 0.3588 -23986.6289 2449.5697 0.0000 0.0000 4125.1833 -17377.6751 298.5384 -21502.8583 -17369.4368 296.4573 -32.9430 -32.1580 520837.6851 -0.1975 -0.1909
ENERGY: 2000 10.3343 13.0199 16.0757 0.4692 -23886.2664 2410.3826 0.0000 0.0000 4104.5489 -17331.4358 297.0451 -21435.9847 -17323.6215 299.4663 -54.0539 -54.8179 517955.9749 0.2545 0.2500
ENERGY: 3000 6.9609 10.8698 12.0502 0.1905 -23913.2648 2432.4147 0.0000 0.0000 4192.5647 -17258.2140 303.4148 -21450.7787 -17249.5405 299.8078 -39.5733 -40.4183 510301.1237 1.1064 1.1066
ENERGY: 4000 5.4736 11.6273 13.1066 0.9375 -24000.4494 2518.6384 0.0000 0.0000 4191.7898 -17258.8763 303.3587 -21450.6661 -17248.9902 299.3808 13.6053 12.3058 507088.3876 1.2265 1.1875
ENERGY: 5000 5.6742 12.4239 11.7734 0.7345 -23761.5197 2362.5482 0.0000 0.0000 4164.7727 -17203.5928 301.4035 -21368.3655 -17194.6693 300.3205 -43.4631 -42.6118 502748.5595 2.6462 2.6603
TCL: Running FEP window  12: Lambda1 0.6875 Lambda2 0.75   [dLambda 0.0625]
TCL: Setting parameter firsttimestep to 0
TCL: Setting parameter alchLambda to 0.6875
Info: NONBONDED TABLE R-SQUARED SPACING: 0.0625
Info: NONBONDED TABLE SIZE: 769 POINTS
TCL: Setting parameter alchLambda2 to 0.75
Info: NONBONDED TABLE R-SQUARED SPACING: 0.0625
Info: NONBONDED TABLE SIZE: 769 POINTS
TCL: Running for 5000 steps
ETITLE: TS BOND ANGLE DIHED IMPRP ELECT VDW BOUNDARY MISC KINETIC TOTAL TEMP POTENTIAL TOTAL3 TEMPAVG PRESSURE GPRESSURE VOLUME PRESSAVG GPRESSAVG
ENERGY: 0 5.6742 12.4239 11.7734 0.7345 -23768.1609 2363.0673 0.0000 0.0000 4164.6479 -17209.8396 301.3944 -21374.4875 -17201.0087 301.3944 -40.3625 -40.6364 502748.5595 -40.3625 -40.6364
ENERGY: 1000 7.6105 20.4060 15.1739 0.7286 -23828.7964 2471.4795 0.0000 0.0000 4099.6979 -17213.6999 296.6940 -21313.3978 -17203.4403 301.7053 -0.3426 0.5813 503705.1100 3.4847 3.4546
ENERGY: 2000 14.5134 16.3558 11.1506 0.2623 -23841.5632 2422.7585 0.0000 0.0000 4109.7421 -17266.7803 297.4209 -21376.5225 -17258.9845 297.4891 -3.8172 -3.5283 495326.8243 -2.2947 -2.2270
ENERGY: 3000 7.1198 14.2172 15.9883 0.7033 -23994.9705 2539.8138 0.0000 0.0000 4028.4139 -17388.7143 291.5352 -21417.1281 -17380.2373 297.6105 25.9107 25.7027 495391.6026 1.7474 1.7402
ENERGY: 4000 6.0683 16.1972 13.9587 0.3883 -24101.9891 2508.6093 0.0000 0.0000 4179.1669 -17377.6004 302.4452 -21556.7672 -17369.9846 299.0633 -3.2837 -2.9285 486999.4778 1.1081 1.1020
ENERGY: 5000 11.9350 18.8245 14.5113 0.3294 -23956.0674 2478.4730 0.0000 0.0000 4124.2986 -17307.6956 298.4744 -21431.9942 -17298.3511 297.1503 -18.5641 -18.9018 486085.2162 2.2185 2.1975
TCL: Running FEP window  13: Lambda1 0.75   Lambda2 0.8125 [dLambda 0.0625]
TCL: Setting parameter firsttimestep to 0
TCL: Setting parameter alchLambda to 0.75
Info: NONBONDED TABLE R-SQUARED SPACING: 0.0625
Info: NONBONDED TABLE SIZE: 769 POINTS
TCL: Setting parameter alchLambda2 to 0.8125
Info: NONBONDED TABLE R-SQUARED SPACING: 0.0625
Info: NONBONDED TABLE SIZE: 769 POINTS
TCL: Running for 5000 steps
ETITLE: TS BOND ANGLE DIHED IMPRP ELECT VDW BOUNDARY MISC KINETIC TOTAL TEMP POTENTIAL TOTAL3 TEMPAVG PRESSURE GPRESSURE VOLUME PRESSAVG GPRESSAVG
ENERGY: 0 11.9350 18.8245 14.5113 0.3294 -23962.3793 2480.5660 0.0000 0.0000 4124.1699 -17312.0432 298.4650 -21436.2131 -17304.0832 298.4650 -15.6556 -15.5644 486085.2162 -15.6556 -15.5644
ENERGY: 1000 5.9879 17.3979 13.4817 0.1442 -23955.8330 2490.1813 0.0000 0.0000 4178.2954 -17250.3446 302.3821 -21428.6400 -17240.3988 300.3567 10.7258 10.6300 483363.9397 3.1439 3.0859
ENERGY: 2000 5.4200 15.2430 11.7915 0.1882 -23952.8334 2518.3845 0.0000 0.0000 4133.5142 -17268.2920 299.1413 -21401.8062 -17257.8498 301.6374 30.2408 30.9332 464367.0092 0.3261 0.3567
ENERGY: 3000 7.2351 12.9314 17.4363 0.2111 -24019.8595 2467.5164 0.0000 0.0000 4102.3573 -17412.1720 296.8865 -21514.5293 -17399.6390 296.6027 -25.2597 -25.0247 462037.0913 1.4805 1.4466
ENERGY: 4000 9.2430 14.0589 10.1809 0.1292 -24163.1129 2640.0853 0.0000 0.0000 4120.7876 -17368.6279 298.2203 -21489.4155 -17363.4066 297.7036 91.8204 91.2542 457934.9730 -0.1597 -0.1567
ENERGY: 5000 8.7876 15.0352 12.4001 0.4440 -24075.6895 2496.6664 0.0000 0.0000 4121.7025 -17420.6537 298.2865 -21542.3563 -17412.2325 295.6417 18.3572 18.6153 464052.7387 2.6583 2.7361
TCL: Running FEP window  14: Lambda1 0.8125 Lambda2 0.875  [dLambda 0.0625]
TCL: Setting parameter firsttimestep to 0
TCL: Setting parameter alchLambda to 0.8125
Info: NONBONDED TABLE R-SQUARED SPACING: 0.0625
Info: NONBONDED TABLE SIZE: 769 POINTS
TCL: Setting parameter alchLambda2 to 0.875
Info: NONBONDED TABLE R-SQUARED SPACING: 0.0625
Info: NONBONDED TABLE SIZE: 769 POINTS
TCL: Running for 5000 steps
ETITLE: TS BOND ANGLE DIHED IMPRP ELECT VDW BOUNDARY MISC KINETIC TOTAL TEMP POTENTIAL TOTAL3 TEMPAVG PRESSURE GPRESSURE VOLUME PRESSAVG GPRESSAVG
ENERGY: 0 8.7876 15.0352 12.4001 0.4440 -24082.1499 2499.0669 0.0000 0.0000 4121.5751 -17424.8410 298.2773 -21546.4161 -17417.3731 298.2773 22.0962 22.1595 464052.7387 22.0962 22.1595
ENERGY: 1000 3.5486 17.7821 15.0415 0.5932 -23953.8379 2396.4036 0.0000 0.0000 4103.8910 -17416.5779 296.9975 -21520.4689 -17407.6008 298.1944 -75.5797 -75.4628 461983.8041 1.6675 1.6426
ENERGY: 2000 6.7470 13.1785 15.0684 0.3345 -24015.3422 2500.9925 0.0000 0.0000 4191.8720 -17287.1494 303.3646 -21479.0214 -17279.4986 299.7072 29.8510 29.1535 447905.5044 3.4100 3.4513
ENERGY: 3000 7.3229 14.2749 15.7001 0.8342 -23789.2619 2475.0676 0.0000 0.0000 4118.1081 -17157.9541 298.0264 -21276.0622 -17151.4563 302.8622 59.7043 61.1805 435419.0479 -2.0161 -2.0332
ENERGY: 4000 5.2614 13.1175 15.2098 0.6873 -23859.3891 2482.7720 0.0000 0.0000 4243.4134 -17098.9277 307.0947 -21342.3412 -17092.9262 304.4744 46.0975 46.1680 421760.5787 2.0063 2.0595
ENERGY: 5000 8.2828 17.8631 17.2213 0.6315 -23756.6550 2408.8235 0.0000 0.0000 4173.0547 -17130.7782 302.0028 -21303.8329 -17123.5738 303.4324 1.9549 2.4580 406245.4218 5.6374 5.6165
TCL: Running FEP window  15: Lambda1 0.875  Lambda2 0.9375 [dLambda 0.0625]
TCL: Setting parameter firsttimestep to 0
TCL: Setting parameter alchLambda to 0.875
Info: NONBONDED TABLE R-SQUARED SPACING: 0.0625
Info: NONBONDED TABLE SIZE: 769 POINTS
TCL: Setting parameter alchLambda2 to 0.9375
Info: NONBONDED TABLE R-SQUARED SPACING: 0.0625
Info: NONBONDED TABLE SIZE: 769 POINTS
TCL: Running for 5000 steps
ETITLE: TS BOND ANGLE DIHED IMPRP ELECT VDW BOUNDARY MISC KINETIC TOTAL TEMP POTENTIAL TOTAL3 TEMPAVG PRESSURE GPRESSURE VOLUME PRESSAVG GPRESSAVG
ENERGY: 0 8.2828 17.8631 17.2213 0.6315 -23763.4329 2411.6488 0.0000 0.0000 4172.9302 -17134.8553 301.9938 -21307.7855 -17126.7067 301.9938 6.4536 6.4432 406245.4218 6.4536 6.4432
ENERGY: 1000 7.7702 15.1967 14.9092 0.3458 -23853.0048 2464.3344 0.0000 0.0000 4142.2630 -17208.1856 299.7744 -21350.4485 -17200.9901 301.9686 -3.4220 -3.1340 413126.3556 1.8099 1.7778
ENERGY: 2000 7.3721 13.7434 17.6350 0.8253 -24117.6176 2613.4920 0.0000 0.0000 4124.2802 -17340.2697 298.4730 -21464.5499 -17331.7750 299.7454 85.5915 86.0969 411773.6490 0.9175 0.9304
ENERGY: 3000 7.4926 13.3366 21.3978 0.1470 -24179.7633 2538.7772 0.0000 0.0000 4151.4566 -17447.1556 300.4398 -21598.6121 -17436.7403 295.6524 18.1477 18.3295 401775.7493 2.1823 2.1580
ENERGY: 4000 10.6819 17.4057 20.0906 0.5073 -24098.8935 2537.3525 0.0000 0.0000 4037.3338 -17475.5218 292.1807 -21512.8556 -17466.8970 295.8492 43.7402 44.7497 403344.6627 2.2610 2.2843
ENERGY: 5000 13.5613 19.4088 18.6225 0.4459 -24096.7234 2552.5021 0.0000 0.0000 4042.1266 -17450.0561 292.5276 -21492.1828 -17440.4434 296.4389 -21.6524 -22.1375 412877.4102 -0.8157 -0.8019
TCL: Running FEP window  16: Lambda1 0.9375 Lambda2 1.0    [dLambda 0.0625]
TCL: Setting parameter firsttimestep to 0
TCL: Setting parameter alchLambda to 0.9375
Info: NONBONDED TABLE R-SQUARED SPACING: 0.0625
Info: NONBONDED TABLE SIZE: 769 POINTS
TCL: Setting parameter alchLambda2 to 1.0
Info: NONBONDED TABLE R-SQUARED SPACING: 0.0625
Info: NONBONDED TABLE SIZE: 769 POINTS
TCL: Running for 5000 steps
ETITLE: TS BOND ANGLE DIHED IMPRP ELECT VDW BOUNDARY MISC KINETIC TOTAL TEMP POTENTIAL TOTAL3 TEMPAVG PRESSURE GPRESSURE VOLUME PRESSAVG GPRESSAVG
ENERGY: 0 13.5613 19.4088 18.6225 0.4459 -24102.9275 2557.9289 0.0000 0.0000 4042.0028 -17450.9573 292.5186 -21492.9601 -17442.8772 292.5186 -15.1026 -15.2730 412877.4102 -15.1026 -15.2730
ENERGY: 1000 12.4491 14.8449 22.3815 0.9162 -24283.7240 2662.0723 0.0000 0.0000 4128.3838 -17442.6762 298.7700 -21571.0600 -17434.7374 297.5110 49.4474 50.2325 401936.8973 2.7100 2.7009
ENERGY: 2000 7.3909 15.2169 21.1560 0.4272 -23906.8606 2390.1826 0.0000 0.0000 4091.7056 -17380.7814 296.1156 -21472.4871 -17374.6717 297.5941 -72.4852 -71.9080 395874.6504 3.7963 3.8163
ENERGY: 3000 9.1209 19.6965 18.1150 0.7375 -24271.8427 2570.6952 0.0000 0.0000 4218.7528 -17434.7247 305.3100 -21653.4775 -17426.1055 296.8410 13.1550 11.8320 390815.1070 -0.4188 -0.4073
ENERGY: 4000 8.3047 13.6514 19.7372 0.7178 -23789.5529 2298.9504 0.0000 0.0000 3984.8777 -17463.3138 288.3845 -21448.1915 -17455.8708 294.7312 -142.0331 -143.7958 386028.8515 3.3810 3.3630
ENERGY: 5000 6.0517 21.5534 19.5442 0.3453 -24158.1956 2528.4778 0.0000 0.0000 4150.0803 -17432.1429 300.3402 -21582.2232 -17422.9415 296.8686 -7.8928 -7.6240 373176.6873 2.1664 2.1561
