Info: SIMULATION PARAMETERS:
Info: TIMESTEP               2
Info: NUMBER OF STEPS        0
Info: STEPS PER CYCLE        10
Info: PERIODIC CELL BASIS 1  39.806 0 0
Info: PERIODIC CELL BASIS 2  0 37.835 0
Info: PERIODIC CELL BASIS 3  0 0 43.222
Info: PERIODIC CELL CENTER   0 0 0
Info: WRAPPING WATERS AROUND PERIODIC BOUNDARIES ON OUTPUT.
Info: WRAPPING ALL CLUSTERS AROUND PERIODIC BOUNDARIES ON OUTPUT.
Info: FIRST LDB TIMESTEP     50
Info: LAST LDB TIMESTEP     -1
Info: HOM BACKGROUND SCALING 1
Info: PME BACKGROUND SCALING 1
Info: MIN ATOMS PER PATCH    40
Info: EMPTY PATCH LOAD       40 ATOMS
Info: INITIAL TEMPERATURE    300
Info: CENTER OF MASS MOVING INITIALLY? NO
Info: DIELECTRIC             1
Info: EXCLUDE                SCALED ONE-FOUR
Info: 1-4 ELECTROSTATICS SCALED BY 0.833333
Info: MODIFIED 1-4 VDW PARAMETERS WILL BE USED
Info: DCD FILENAME           mobley_4494568_min.dcd
Info: DCD FREQUENCY          5000
Info: DCD FIRST STEP         5000
Info: DCD FILE WILL CONTAIN UNIT CELL DATA
Info: XST FILENAME           mobley_4494568_min.xst
Info: XST FREQUENCY          5000
Info: NO VELOCITY DCD OUTPUT
Info: NO FORCE DCD OUTPUT
Info: OUTPUT FILENAME        mobley_4494568_min
Info: BINARY OUTPUT FILES WILL BE USED
Info: RESTART FILENAME       mobley_4494568_min.restart
Info: RESTART FREQUENCY      5000
Info: BINARY RESTART FILES WILL BE USED
Info: CUTOFF                 9
Info: PAIRLIST DISTANCE      11
Info: PAIRLIST SHRINK RATE   0.01
Info: PAIRLIST GROW RATE     0.01
Info: PAIRLIST TRIGGER       0.3
Info: PAIRLISTS PER CYCLE    2
Info: PAIRLISTS ENABLED
Info: MARGIN                 8
Info: HYDROGEN GROUP CUTOFF  2.5
Info: PATCH DIMENSION        21.5
Info: ENERGY OUTPUT STEPS    5000
Info: ENERGY EVALUATION STEPS    5000
Info: OUTPUT ENERGY PRECISION 4
Info: CROSSTERM ENERGY INCLUDED IN DIHEDRAL
Info: TIMING OUTPUT STEPS    50000
Info: PRESSURE OUTPUT STEPS  5000
Info: LANGEVIN DYNAMICS ACTIVE
Info: LANGEVIN TEMPERATURE   300
Info: LANGEVIN USING BBK INTEGRATOR
Info: LANGEVIN DAMPING COEFFICIENT IS 1 INVERSE PS
Info: LANGEVIN DYNAMICS APPLIED TO HYDROGENS
Info: LANGEVIN PISTON PRESSURE CONTROL ACTIVE
Info:        TARGET PRESSURE IS 1.01325 BAR
Info:     OSCILLATION PERIOD IS 50 FS
Info:             DECAY TIME IS 25 FS
Info:     PISTON TEMPERATURE IS 300 K
Info:       PRESSURE CONTROL IS GROUP-BASED
Info:    INITIAL STRAIN RATE IS 0 0 0
Info:       CELL FLUCTUATION IS ISOTROPIC
Info: PARTICLE MESH EWALD (PME) ACTIVE
Info: PME TOLERANCE               1e-06
Info: PME EWALD COEFFICIENT       0.348832
Info: PME INTERPOLATION ORDER     4
Info: PME GRID DIMENSIONS         40 40 44
Info: PME MAXIMUM GRID SPACING    1
Info: FULL ELECTROSTATIC EVALUATION FREQUENCY      2
Info: USING VERLET I (r-RESPA) MTS SCHEME.
Info: C1 SPLITTING OF LONG RANGE ELECTROSTATICS
Info: PLACING ATOMS IN PATCHES BY HYDROGEN GROUPS
Info: RIGID BONDS TO HYDROGEN : ALL
Info:         ERROR TOLERANCE : 1e-08
Info:          MAX ITERATIONS : 100
Info: RIGID WATER USING SETTLE ALGORITHM
Info: RANDOM NUMBER SEED     1741342383
Info: USE HYDROGEN BONDS?    NO
Info: Using AMBER format force field!
Info: AMBER PARM FILE        mobley_4494568.prmtop
Info: COORDINATE PDB         mobley_4494568.pdb
Info: Exclusions will be read from PARM file!
Info: SCNB (VDW SCALING)     2
Info: USING ARITHMETIC MEAN TO COMBINE L-J SIGMA PARAMETERS
Info: SUMMARY OF PARAMETERS:
Info: 7 BONDS
Info: 6 ANGLES
Info:   6 HARMONIC
Info:   0 COSINE-BASED
Info: 3 DIHEDRAL
Info: 0 IMPROPER
Info: 0 CROSSTERM
Info: 0 VDW
Info: 28 VDW_PAIRS
Info: 0 NBTHOLE_PAIRS
Info: STRUCTURE SUMMARY:
Info: 4728 ATOMS
Info: 4728 BONDS
Info: 24 ANGLES
Info: 36 DIHEDRALS
Info: 0 IMPROPERS
Info: 0 CROSSTERMS
Info: 4779 EXCLUSIONS
Info: 4720 RIGID BONDS
Info: 9464 DEGREES OF FREEDOM
Info: 1579 HYDROGEN GROUPS
Info: 4 ATOMS IN LARGEST HYDROGEN GROUP
Info: 1579 MIGRATION GROUPS
Info: 4 ATOMS IN LARGEST MIGRATION GROUP
Info: TOTAL MASS = 28474.2 amu
Info: TOTAL CHARGE = 0.000200011 e
Info: MASS DENSITY = 0.726379 g/cm^3
Info: ATOM DENSITY = 0.0726324 atoms/A^3
Info: ADDED 0 IMPLICIT EXCLUSIONS
Info: NONBONDED TABLE R-SQUARED SPACING: 0.0625
Info: NONBONDED TABLE SIZE: 705 POINTS
Info: REMOVING COM VELOCITY -0.0643066 0.0125357 0.191166
TCL: Minimizing for 2000 steps
ETITLE: TS BOND ANGLE DIHED IMPRP ELECT VDW BOUNDARY MISC KINETIC TOTAL TEMP POTENTIAL TOTAL3 TEMPAVG PRESSURE GPRESSURE VOLUME PRESSAVG GPRESSAVG
ENERGY: 0 0.2333 0.1477 0.0002 0.0000 -14652.7153 1687.6092 0.0000 0.0000 0.0000 -12964.7249 0.0000 -12964.7249 -12964.7249 0.0000 11271.2382 -15488.3047 65094.9258 11271.2382 -15488.3047
ENERGY: 400 2.5791 4.1697 0.6016 0.0000 -19664.2752 2830.8491 0.0000 0.0000 0.0000 -16826.0758 0.0000 -16826.0758 -16826.0758 0.0000 15548.2106 10173.2137 65094.9258 15548.2106 10173.2137
ENERGY: 800 1.2009 0.6327 0.1359 0.0000 -20857.1608 3406.9858 0.0000 0.0000 0.0000 -17448.2055 0.0000 -17448.2055 -17448.2055 0.0000 18299.9482 12960.9373 65094.9258 18299.9482 12960.9373
ENERGY: 1200 0.7000 0.4269 0.0193 0.0000 -21319.8149 3618.1895 0.0000 0.0000 0.0000 -17700.4792 0.0000 -17700.4792 -17700.4792 0.0000 19410.5526 13918.2901 65094.9258 19410.5526 13918.2901
ENERGY: 1600 3.3501 1.6301 0.1958 0.0000 -21565.5615 3718.2466 0.0000 0.0000 0.0000 -17842.1390 0.0000 -17842.1390 -17842.1390 0.0000 19908.8253 14323.2360 65094.9258 19908.8253 14323.2360
ENERGY: 2000 0.3277 0.1230 0.0076 0.0000 -21707.8571 3772.5850 0.0000 0.0000 0.0000 -17934.8138 0.0000 -17934.8138 -17934.8138 0.0000 20211.8615 14535.2294 65094.9258 20211.8615 14535.2294
TCL: Exiting due to exit command.
Info: NAMD 3.0.1 for Linux-x86_64-multicore
Info: Please visit http://www.ks.uiuc.edu/Research/namd/
Info: for updates, documentation, and support information.
Info: Please cite Phillips et al., J. Chem. Phys. 153:044130 (2020) doi:10.1063/5.0014475
Info: in all publications reporting results obtained with NAMD.
Info: Based on Charm++/Converse 80000 for multicore-linux-x86_64-gcc
Info: Built Mon Oct 14 11:11:06 CDT 2024 by dhardy on athine.ks.uiuc.edu
Info: 1 NAMD  3.0.1  Linux-x86_64-multicore  16    k014  z5358697
Info: Running on 16 processors, 1 nodes, 1 physical nodes.
Info: CPU topology information available.
Info: Charm++/Converse parallel runtime startup completed at 0.00975539 s
Info: 1043.45 MB of memory in use based on /proc/self/stat
Info: Configuration file is mobley_4494568_equil.namd
Info: Working in the current directory /srv/scratch/z5358697/prod_prep_5/4494568
TCL: Running 25000 steps at 30 kelvin.
TCL: Suspending until startup complete.
Info: SIMULATION PARAMETERS:
Info: TIMESTEP               2
Info: NUMBER OF STEPS        0
Info: STEPS PER CYCLE        10
Info: PERIODIC CELL BASIS 1  39.806 0 0
Info: PERIODIC CELL BASIS 2  0 37.835 0
Info: PERIODIC CELL BASIS 3  0 0 43.222
Info: PERIODIC CELL CENTER   0 0 0
Info: WRAPPING WATERS AROUND PERIODIC BOUNDARIES ON OUTPUT.
Info: WRAPPING ALL CLUSTERS AROUND PERIODIC BOUNDARIES ON OUTPUT.
Info: FIRST LDB TIMESTEP     50
Info: LAST LDB TIMESTEP     -1
Info: HOM BACKGROUND SCALING 1
Info: PME BACKGROUND SCALING 1
Info: MIN ATOMS PER PATCH    40
Info: EMPTY PATCH LOAD       40 ATOMS
Info: INITIAL TEMPERATURE    300
Info: CENTER OF MASS MOVING INITIALLY? NO
Info: DIELECTRIC             1
Info: EXCLUDE                SCALED ONE-FOUR
Info: 1-4 ELECTROSTATICS SCALED BY 0.833333
Info: MODIFIED 1-4 VDW PARAMETERS WILL BE USED
Info: DCD FILENAME           mobley_4494568_equil.dcd
Info: DCD FREQUENCY          5000
Info: DCD FIRST STEP         5000
Info: DCD FILE WILL CONTAIN UNIT CELL DATA
Info: XST FILENAME           mobley_4494568_equil.xst
Info: XST FREQUENCY          5000
Info: NO VELOCITY DCD OUTPUT
Info: NO FORCE DCD OUTPUT
Info: OUTPUT FILENAME        mobley_4494568_equil
Info: BINARY OUTPUT FILES WILL BE USED
Info: RESTART FILENAME       mobley_4494568_equil.restart
Info: RESTART FREQUENCY      5000
Info: BINARY RESTART FILES WILL BE USED
Info: CUTOFF                 9
Info: PAIRLIST DISTANCE      11
Info: PAIRLIST SHRINK RATE   0.01
Info: PAIRLIST GROW RATE     0.01
Info: PAIRLIST TRIGGER       0.3
Info: PAIRLISTS PER CYCLE    2
Info: PAIRLISTS ENABLED
Info: MARGIN                 8
Info: HYDROGEN GROUP CUTOFF  2.5
Info: PATCH DIMENSION        21.5
Info: ENERGY OUTPUT STEPS    5000
Info: ENERGY EVALUATION STEPS    5000
Info: OUTPUT ENERGY PRECISION 4
Info: CROSSTERM ENERGY INCLUDED IN DIHEDRAL
Info: TIMING OUTPUT STEPS    50000
Info: PRESSURE OUTPUT STEPS  5000
Info: LANGEVIN DYNAMICS ACTIVE
Info: LANGEVIN TEMPERATURE   30
Info: LANGEVIN USING BBK INTEGRATOR
Info: LANGEVIN DAMPING COEFFICIENT IS 1 INVERSE PS
Info: LANGEVIN DYNAMICS APPLIED TO HYDROGENS
Info: LANGEVIN PISTON PRESSURE CONTROL ACTIVE
Info:        TARGET PRESSURE IS 1.01325 BAR
Info:     OSCILLATION PERIOD IS 50 FS
Info:             DECAY TIME IS 25 FS
Info:     PISTON TEMPERATURE IS 300 K
Info:       PRESSURE CONTROL IS GROUP-BASED
Info:    INITIAL STRAIN RATE IS 0 0 0
Info:       CELL FLUCTUATION IS ISOTROPIC
Info: PARTICLE MESH EWALD (PME) ACTIVE
Info: PME TOLERANCE               1e-06
Info: PME EWALD COEFFICIENT       0.348832
Info: PME INTERPOLATION ORDER     4
Info: PME GRID DIMENSIONS         40 40 44
Info: PME MAXIMUM GRID SPACING    1
Info: FULL ELECTROSTATIC EVALUATION FREQUENCY      2
Info: USING VERLET I (r-RESPA) MTS SCHEME.
Info: C1 SPLITTING OF LONG RANGE ELECTROSTATICS
Info: PLACING ATOMS IN PATCHES BY HYDROGEN GROUPS
Info: RIGID BONDS TO HYDROGEN : ALL
Info:         ERROR TOLERANCE : 1e-08
Info:          MAX ITERATIONS : 100
Info: RIGID WATER USING SETTLE ALGORITHM
Info: RANDOM NUMBER SEED     1741342396
Info: USE HYDROGEN BONDS?    NO
Info: Using AMBER format force field!
Info: AMBER PARM FILE        mobley_4494568.prmtop
Info: COORDINATE PDB         mobley_4494568.pdb
Info: Exclusions will be read from PARM file!
Info: SCNB (VDW SCALING)     2
Info: USING ARITHMETIC MEAN TO COMBINE L-J SIGMA PARAMETERS
Info: BINARY COORDINATES     mobley_4494568_min.coor
Info: SUMMARY OF PARAMETERS:
Info: 7 BONDS
Info: 6 ANGLES
Info:   6 HARMONIC
Info:   0 COSINE-BASED
Info: 3 DIHEDRAL
Info: 0 IMPROPER
Info: 0 CROSSTERM
Info: 0 VDW
Info: 28 VDW_PAIRS
Info: 0 NBTHOLE_PAIRS
Info: STRUCTURE SUMMARY:
Info: 4728 ATOMS
Info: 4728 BONDS
Info: 24 ANGLES
Info: 36 DIHEDRALS
Info: 0 IMPROPERS
Info: 0 CROSSTERMS
Info: 4779 EXCLUSIONS
Info: 4720 RIGID BONDS
Info: 9464 DEGREES OF FREEDOM
Info: 1579 HYDROGEN GROUPS
Info: 4 ATOMS IN LARGEST HYDROGEN GROUP
Info: 1579 MIGRATION GROUPS
Info: 4 ATOMS IN LARGEST MIGRATION GROUP
Info: TOTAL MASS = 28474.2 amu
Info: TOTAL CHARGE = 0.000200011 e
Info: MASS DENSITY = 0.726379 g/cm^3
Info: ATOM DENSITY = 0.0726324 atoms/A^3
Info: ADDED 0 IMPLICIT EXCLUSIONS
Info: NONBONDED TABLE R-SQUARED SPACING: 0.0625
Info: NONBONDED TABLE SIZE: 705 POINTS
Info: REMOVING COM VELOCITY -0.143684 0.121155 0.094379
TCL: Running for 25000 steps
ETITLE: TS BOND ANGLE DIHED IMPRP ELECT VDW BOUNDARY MISC KINETIC TOTAL TEMP POTENTIAL TOTAL3 TEMPAVG PRESSURE GPRESSURE VOLUME PRESSAVG GPRESSAVG
ENERGY: 0 0.3277 0.1230 0.0076 0.0000 -21707.8571 3772.5850 0.0000 0.0000 2858.3396 -15076.4742 303.9691 -17934.8138 -15075.8569 303.9691 281.4857 315.4548 65094.9258 281.4857 315.4548
ENERGY: 5000 0.5836 0.3122 0.2242 0.0000 -22659.0782 3892.9877 0.0000 0.0000 283.6442 -18481.3263 30.1640 -18764.9705 -18480.4431 47.8575 -404.6608 -320.1860 46538.8520 2.0143 2.2818
ENERGY: 10000 0.5197 0.3343 0.2728 0.0000 -22771.9218 3985.8119 0.0000 0.0000 284.4543 -18500.5288 30.2502 -18784.9831 -18499.6497 30.1709 57.4310 118.0088 46437.2983 4.5866 4.3780
ENERGY: 15000 0.7850 0.6343 0.2448 0.0000 -22654.6834 3865.4726 0.0000 0.0000 280.4457 -18507.1009 29.8239 -18787.5467 -18506.3727 30.0183 -616.1831 -543.9319 46615.5069 10.6577 10.6291
ENERGY: 20000 0.6765 0.3764 0.1823 0.0000 -22565.7185 3776.0827 0.0000 0.0000 290.2166 -18498.1841 30.8630 -18788.4007 -18497.4940 30.0578 -1072.8785 -1027.2819 46833.6592 2.1631 2.1616
ENERGY: 25000 0.3990 0.5536 0.4593 0.0000 -22645.2493 3840.6373 0.0000 0.0000 283.0171 -18520.1830 30.0974 -18803.2001 -18519.4194 30.2112 -738.0253 -688.8412 46637.5433 3.3625 3.2813
TCL: Running 25000 steps at 60 kelvin.
TCL: Setting parameter langevinTemp to 60
TCL: Running for 25000 steps
ETITLE: TS BOND ANGLE DIHED IMPRP ELECT VDW BOUNDARY MISC KINETIC TOTAL TEMP POTENTIAL TOTAL3 TEMPAVG PRESSURE GPRESSURE VOLUME PRESSAVG GPRESSAVG
ENERGY: 25000 0.3990 0.5536 0.4593 0.0000 -22645.2493 3840.6373 0.0000 0.0000 282.8805 -18520.3197 30.0828 -18803.2001 -18519.6235 30.0828 -748.1341 -688.8629 46637.5433 -748.1341 -688.8629
ENERGY: 30000 0.4875 1.0358 0.3262 0.0000 -22389.7833 3804.9143 0.0000 0.0000 582.4443 -18000.5752 61.9398 -18583.0195 -17998.8089 57.4681 -292.6929 -227.1660 46454.5483 3.4373 3.4182
ENERGY: 35000 1.1187 1.1782 0.3867 0.0000 -22593.5466 3956.6178 0.0000 0.0000 569.0661 -18065.1791 60.5171 -18634.2452 -18063.6250 60.3021 300.7664 366.7047 46253.9448 0.4611 0.1745
ENERGY: 40000 0.4851 0.8084 0.5773 0.0000 -22585.3983 3933.9248 0.0000 0.0000 569.0002 -18080.6024 60.5101 -18649.6026 -18078.7871 59.7266 181.5438 261.0119 46292.1406 0.4430 0.5739
ENERGY: 45000 0.6523 0.4391 0.5696 0.0000 -22477.6148 3828.2916 0.0000 0.0000 575.4533 -18072.2088 61.1964 -18647.6621 -18070.5268 60.0722 -368.4813 -329.3033 46393.6852 1.7372 1.6952
ENERGY: 50000 0.5698 1.1447 0.4947 0.0000 -22431.0073 3766.0760 0.0000 0.0000 564.1546 -18098.5674 59.9948 -18662.7221 -18097.4146 60.0779 -720.7893 -685.0523 46535.1075 5.4049 5.4972
TCL: Running 25000 steps at 90 kelvin.
TCL: Setting parameter langevinTemp to 90
TCL: Running for 25000 steps
ETITLE: TS BOND ANGLE DIHED IMPRP ELECT VDW BOUNDARY MISC KINETIC TOTAL TEMP POTENTIAL TOTAL3 TEMPAVG PRESSURE GPRESSURE VOLUME PRESSAVG GPRESSAVG
ENERGY: 50000 0.5698 1.1447 0.4947 0.0000 -22431.0073 3766.0760 0.0000 0.0000 563.8777 -18098.8444 59.9654 -18662.7221 -18097.6527 59.9654 -747.3861 -685.0261 46535.1075 -747.3861 -685.0261
ENERGY: 55000 1.1056 0.6950 0.8725 0.0000 -22061.6210 3674.4987 0.0000 0.0000 847.0993 -17537.3499 90.0845 -18384.4492 -17536.0726 87.2466 -627.0697 -577.5811 46699.6267 2.6480 3.1013
ENERGY: 60000 0.7806 0.9588 0.7559 0.0000 -22255.2270 3815.9794 0.0000 0.0000 850.9487 -17585.8035 90.4938 -18436.7522 -17583.4814 89.3981 88.0130 141.8366 46316.7621 2.7342 2.9496
ENERGY: 65000 2.1807 0.9469 1.2892 0.0000 -21973.6467 3534.3881 0.0000 0.0000 853.7165 -17581.1253 90.7882 -18434.8418 -17577.8990 91.2333 -1493.7610 -1455.2280 46784.7982 7.7361 7.6942
ENERGY: 70000 0.4983 1.7340 1.3257 0.0000 -22305.0463 3836.3082 0.0000 0.0000 853.6541 -17611.5260 90.7815 -18465.1800 -17609.1548 89.7093 3.1141 113.7322 46435.4591 1.6045 1.4773
ENERGY: 75000 1.0778 2.2125 0.6319 0.0000 -22364.9014 3888.0521 0.0000 0.0000 851.1472 -17621.7800 90.5150 -18472.9272 -17620.1673 89.9408 318.1141 373.6049 46327.3579 5.2281 5.3363
TCL: Running 25000 steps at 120 kelvin.
TCL: Setting parameter langevinTemp to 120
TCL: Running for 25000 steps
ETITLE: TS BOND ANGLE DIHED IMPRP ELECT VDW BOUNDARY MISC KINETIC TOTAL TEMP POTENTIAL TOTAL3 TEMPAVG PRESSURE GPRESSURE VOLUME PRESSAVG GPRESSAVG
ENERGY: 75000 1.0778 2.2125 0.6319 0.0000 -22364.9014 3888.0521 0.0000 0.0000 850.7143 -17622.2129 90.4689 -18472.9272 -17620.5049 90.4689 314.9150 373.5459 46327.3579 314.9150 373.5459
ENERGY: 80000 1.0121 1.3305 0.9668 0.0000 -21883.2844 3721.5539 0.0000 0.0000 1140.4637 -17017.9575 121.2822 -18158.4212 -17014.9684 116.6288 176.0647 232.2558 46736.2420 4.4024 4.0814
ENERGY: 85000 0.9334 2.6444 1.2622 0.0000 -21871.3257 3695.2514 0.0000 0.0000 1134.2506 -17036.9836 120.6215 -18171.2342 -17034.3885 120.5560 70.6334 117.4334 46515.0652 2.2340 2.0245
ENERGY: 90000 0.5553 1.8660 1.1986 0.0000 -21904.5681 3676.5771 0.0000 0.0000 1127.7686 -17096.6025 119.9322 -18224.3711 -17094.3162 120.2279 -248.0114 -175.7376 46818.9289 0.9398 1.5674
ENERGY: 95000 0.7636 2.4686 1.9247 0.0000 -21784.7774 3535.7324 0.0000 0.0000 1138.2884 -17105.5997 121.0509 -18243.8881 -17102.2127 119.8907 -1002.8637 -935.5159 46827.3212 1.1224 1.3355
ENERGY: 100000 1.1021 0.8915 0.9881 0.0000 -21952.9121 3727.5932 0.0000 0.0000 1152.3344 -17070.0028 122.5446 -18222.3372 -17066.7674 119.6092 6.8700 89.0672 46701.5810 0.1958 0.5844
TCL: Running 25000 steps at 150 kelvin.
TCL: Setting parameter langevinTemp to 150
TCL: Running for 25000 steps
ETITLE: TS BOND ANGLE DIHED IMPRP ELECT VDW BOUNDARY MISC KINETIC TOTAL TEMP POTENTIAL TOTAL3 TEMPAVG PRESSURE GPRESSURE VOLUME PRESSAVG GPRESSAVG
ENERGY: 100000 1.1021 0.8915 0.9881 0.0000 -21952.9121 3727.5932 0.0000 0.0000 1151.7577 -17070.5795 122.4833 -18222.3372 -17068.2506 122.4833 34.8636 88.8627 46701.5810 34.8636 88.8627
ENERGY: 105000 1.6688 2.0633 0.5234 0.0000 -21476.0336 3565.0131 0.0000 0.0000 1419.9496 -16486.8153 151.0041 -17906.7650 -16484.3322 146.6215 -38.1041 21.7037 46717.2442 2.0691 1.8563
ENERGY: 110000 1.3087 1.8025 1.8825 0.0000 -21436.1928 3486.3315 0.0000 0.0000 1387.8814 -16556.9862 147.5938 -17944.8676 -16553.9705 149.6755 -522.8001 -466.6109 46633.4310 4.9259 5.0929
ENERGY: 115000 1.2943 2.7558 1.0105 0.0000 -21747.4215 3774.8296 0.0000 0.0000 1405.0179 -16562.5133 149.4161 -17967.5313 -16559.5444 149.8028 1084.7128 1152.3865 45997.7720 2.7791 3.0989
ENERGY: 120000 0.4981 2.9781 0.6741 0.0000 -21560.9245 3592.6924 0.0000 0.0000 1350.8285 -16613.2532 143.6534 -17964.0817 -16609.8937 150.0152 83.6753 124.7755 46356.9208 -0.0943 -0.1806
ENERGY: 125000 2.1965 3.6520 1.7093 0.0000 -21648.0209 3606.2182 0.0000 0.0000 1400.0059 -16634.2391 148.8831 -18034.2450 -16631.0723 149.4377 -88.1464 -6.6429 46356.3753 2.1121 2.4321
TCL: Running 50000 steps at 180 kelvin.
TCL: Setting parameter langevinTemp to 180
TCL: Running for 50000 steps
ETITLE: TS BOND ANGLE DIHED IMPRP ELECT VDW BOUNDARY MISC KINETIC TOTAL TEMP POTENTIAL TOTAL3 TEMPAVG PRESSURE GPRESSURE VOLUME PRESSAVG GPRESSAVG
ENERGY: 125000 2.1965 3.6520 1.7093 0.0000 -21648.0209 3606.2182 0.0000 0.0000 1399.2780 -16634.9670 148.8057 -18034.2450 -16631.9867 148.8057 -60.3968 -7.0482 46356.3753 -60.3968 -7.0482
ENERGY: 135000 1.4141 1.9873 1.5492 0.0000 -20867.2061 3306.1701 0.0000 0.0000 1735.7489 -15820.3366 184.5876 -17556.0855 -15816.4427 179.8427 -383.9312 -350.8417 46639.9692 3.7303 3.3969
ENERGY: 145000 0.4408 2.0125 1.4121 0.0000 -20985.6294 3426.2025 0.0000 0.0000 1730.4920 -15825.0694 184.0286 -17555.5614 -15821.7924 180.5813 145.3726 193.6423 46529.4812 1.5054 1.4874
ENERGY: 155000 2.0877 2.2263 1.2655 0.0000 -20877.3679 3307.2437 0.0000 0.0000 1642.5917 -15921.9530 174.6808 -17564.5447 -15916.4344 179.2465 -391.5390 -351.1034 46411.6556 5.3136 5.2803
ENERGY: 165000 1.9262 3.4523 0.7305 0.0000 -21054.5121 3419.2003 0.0000 0.0000 1709.3273 -15919.8754 181.7778 -17629.2027 -15914.4919 179.9680 44.1839 93.9508 46298.2992 -0.3543 -0.3913
ENERGY: 175000 1.8216 2.0594 0.5664 0.0000 -20947.4580 3367.7032 0.0000 0.0000 1714.8050 -15860.5024 182.3603 -17575.3074 -15855.7557 180.8680 -171.3994 -111.5148 46422.3107 4.4875 3.9249
TCL: Running 50000 steps at 210 kelvin.
TCL: Setting parameter langevinTemp to 210
TCL: Running for 50000 steps
ETITLE: TS BOND ANGLE DIHED IMPRP ELECT VDW BOUNDARY MISC KINETIC TOTAL TEMP POTENTIAL TOTAL3 TEMPAVG PRESSURE GPRESSURE VOLUME PRESSAVG GPRESSAVG
ENERGY: 175000 1.8216 2.0594 0.5664 0.0000 -20947.4580 3367.7032 0.0000 0.0000 1713.9638 -15861.3436 182.2709 -17575.3074 -15857.9935 182.2709 -180.7016 -110.9882 46422.3107 -180.7016 -110.9882
ENERGY: 185000 0.8246 2.1454 1.6493 0.0000 -20025.6695 3061.5987 0.0000 0.0000 2044.1691 -14915.2824 217.3865 -16959.4515 -14911.4427 208.3246 1.0448 83.0103 45911.2982 2.4075 2.5278
ENERGY: 195000 3.1052 2.7706 1.5683 0.0000 -19748.7576 2858.4607 0.0000 0.0000 1996.1708 -14886.6820 212.2821 -16882.8528 -14883.2875 208.6706 -1143.2490 -1045.6887 46466.5612 0.6131 0.9446
ENERGY: 205000 0.8890 1.6504 1.1094 0.0000 -19845.8620 3025.4940 0.0000 0.0000 1914.4405 -14902.2788 203.5905 -16816.7193 -14899.8928 211.0242 -207.4562 -123.7414 46587.9783 2.3161 2.4773
ENERGY: 215000 2.3285 3.2190 3.2509 0.0000 -20150.5631 3180.0867 0.0000 0.0000 1989.3302 -14972.3479 211.5546 -16961.6780 -14966.9672 210.6843 907.7375 968.0810 45129.5695 -0.7275 -0.8132
ENERGY: 225000 2.6663 2.9096 1.1195 0.0000 -19809.2424 2937.6262 0.0000 0.0000 2000.3748 -14864.5459 212.7292 -16864.9207 -14862.7838 210.7643 -504.2519 -414.1384 45991.0303 4.0173 3.7377
TCL: Running 50000 steps at 240 kelvin.
TCL: Setting parameter langevinTemp to 240
TCL: Running for 50000 steps
ETITLE: TS BOND ANGLE DIHED IMPRP ELECT VDW BOUNDARY MISC KINETIC TOTAL TEMP POTENTIAL TOTAL3 TEMPAVG PRESSURE GPRESSURE VOLUME PRESSAVG GPRESSAVG
ENERGY: 225000 2.6663 2.9096 1.1195 0.0000 -19809.2424 2937.6262 0.0000 0.0000 1999.4057 -14865.5150 212.6261 -16864.9207 -14862.4993 212.6261 -489.7711 -414.9375 45991.0303 -489.7711 -414.9375
ENERGY: 235000 2.4643 1.6878 3.7624 0.0000 -18889.2944 2734.3852 0.0000 0.0000 2246.2920 -13900.7028 238.8811 -16146.9948 -13894.6678 240.1181 -295.1213 -191.5088 46884.5434 2.1620 1.9893
ENERGY: 245000 2.8051 2.8750 1.4154 0.0000 -18928.7230 2767.4038 0.0000 0.0000 2265.9006 -13888.3231 240.9664 -16154.2237 -13882.8938 238.4274 90.1553 129.1830 46548.8370 1.0969 1.9133
ENERGY: 255000 1.9081 1.8536 0.9725 0.0000 -18925.1126 2743.2888 0.0000 0.0000 2321.3832 -13855.7064 246.8667 -16177.0895 -13849.1069 237.6048 -218.9240 -123.0741 46741.5877 0.7772 1.3709
ENERGY: 265000 3.3645 2.9291 3.8706 0.0000 -18810.0055 2661.1200 0.0000 0.0000 2270.9729 -13867.7485 241.5058 -16138.7214 -13864.3145 239.1645 -505.5616 -399.2530 46683.2137 0.2987 0.1754
ENERGY: 275000 0.2462 1.2005 1.0696 0.0000 -18779.3278 2621.0204 0.0000 0.0000 2278.1985 -13877.5925 242.2742 -16155.7910 -13874.0968 240.1102 -674.2199 -599.5167 46823.3088 -1.8987 -1.5405
TCL: Running 50000 steps at 270 kelvin.
TCL: Setting parameter langevinTemp to 270
TCL: Running for 50000 steps
ETITLE: TS BOND ANGLE DIHED IMPRP ELECT VDW BOUNDARY MISC KINETIC TOTAL TEMP POTENTIAL TOTAL3 TEMPAVG PRESSURE GPRESSURE VOLUME PRESSAVG GPRESSAVG
ENERGY: 275000 0.2462 1.2005 1.0696 0.0000 -18779.3278 2621.0204 0.0000 0.0000 2277.0862 -13878.7049 242.1559 -16155.7910 -13874.3385 242.1559 -687.2547 -601.7642 46823.3088 -687.2547 -601.7642
ENERGY: 285000 2.9094 3.9617 1.3459 0.0000 -18245.4113 2669.0961 0.0000 0.0000 2562.5100 -13005.5883 272.5092 -15568.0982 -13002.5871 271.3425 725.4396 787.3138 47037.1843 2.2949 1.8804
ENERGY: 295000 0.5960 2.7267 2.0679 0.0000 -18029.0610 2517.1116 0.0000 0.0000 2515.3025 -12991.2562 267.4890 -15506.5587 -12986.2163 270.1206 -188.0682 -68.7604 47620.6273 0.2793 0.0890
ENERGY: 305000 2.4175 0.9182 1.2956 0.0000 -17897.8895 2497.5201 0.0000 0.0000 2586.7401 -12808.9980 275.0860 -15395.7382 -12803.0155 268.8120 85.6281 205.1039 47360.5723 -2.0997 -2.2956
ENERGY: 315000 3.3386 2.2624 2.9712 0.0000 -18161.7253 2572.3489 0.0000 0.0000 2628.7327 -12952.0715 279.5517 -15580.8042 -12947.1920 269.5300 116.7535 219.6640 47247.0916 0.6417 0.7865
ENERGY: 325000 1.5482 3.4144 1.1960 0.0000 -17938.0501 2483.9726 0.0000 0.0000 2496.8874 -12951.0315 265.5306 -15447.9188 -12947.5067 271.7370 -74.8677 11.2657 47334.5984 2.5897 2.3248
TCL: Running 1000000 steps at 300 kelvin.
TCL: Setting parameter langevinTemp to 300
TCL: Running for 1000000 steps
ETITLE: TS BOND ANGLE DIHED IMPRP ELECT VDW BOUNDARY MISC KINETIC TOTAL TEMP POTENTIAL TOTAL3 TEMPAVG PRESSURE GPRESSURE VOLUME PRESSAVG GPRESSAVG
ENERGY: 325000 1.5482 3.4144 1.1960 0.0000 -17938.0501 2483.9726 0.0000 0.0000 2495.6488 -12952.2700 265.3989 -15447.9188 -12948.8819 265.3989 -73.4461 9.9937 47334.5984 -73.4461 9.9937
ENERGY: 525000 2.9225 4.8664 4.5885 0.0000 -17258.3536 2381.3776 0.0000 0.0000 2836.9384 -12027.6603 301.6932 -14864.5987 -12025.2153 300.6967 217.4242 295.0251 48948.8616 1.7940 1.6906
ENERGY: 725000 3.4801 6.1100 2.4997 0.0000 -17158.8975 2246.6735 0.0000 0.0000 2810.3792 -12089.7550 298.8688 -14900.1342 -12084.4656 298.1444 -488.5760 -384.0595 48951.5435 0.5403 -0.1063
ENERGY: 925000 2.5292 3.0384 1.9685 0.0000 -16905.9677 2265.9861 0.0000 0.0000 2858.5094 -11773.9361 303.9872 -14632.4455 -11769.8232 301.7860 244.0256 335.4404 48626.8726 3.6242 3.4928
ENERGY: 1125000 1.3770 4.7295 2.9867 0.0000 -17115.0788 2378.3404 0.0000 0.0000 2860.5334 -11867.1119 304.2024 -14727.6453 -11860.4503 301.8606 667.6626 726.3783 48678.6883 1.0079 0.8976
ENERGY: 1325000 2.2904 5.0248 2.7042 0.0000 -16976.2099 2183.9277 0.0000 0.0000 2800.3363 -11981.9265 297.8008 -14782.2627 -11974.8956 299.7106 -389.3270 -261.4575 48319.6229 3.3684 3.1917
TCL: Exiting due to exit command.
