Info: SIMULATION PARAMETERS:
Info: TIMESTEP               2
Info: NUMBER OF STEPS        0
Info: STEPS PER CYCLE        10
Info: PERIODIC CELL BASIS 1  37.968 0 0
Info: PERIODIC CELL BASIS 2  0 39.115 0
Info: PERIODIC CELL BASIS 3  0 0 38.379
Info: PERIODIC CELL CENTER   0 0 0
Info: WRAPPING WATERS AROUND PERIODIC BOUNDARIES ON OUTPUT.
Info: WRAPPING ALL CLUSTERS AROUND PERIODIC BOUNDARIES ON OUTPUT.
Info: FIRST LDB TIMESTEP     50
Info: LAST LDB TIMESTEP     -1
Info: HOM BACKGROUND SCALING 1
Info: PME BACKGROUND SCALING 1
Info: MIN ATOMS PER PATCH    40
Info: EMPTY PATCH LOAD       40 ATOMS
Info: INITIAL TEMPERATURE    300
Info: CENTER OF MASS MOVING INITIALLY? NO
Info: DIELECTRIC             1
Info: EXCLUDE                SCALED ONE-FOUR
Info: 1-4 ELECTROSTATICS SCALED BY 0.833333
Info: MODIFIED 1-4 VDW PARAMETERS WILL BE USED
Info: DCD FILENAME           mobley_525934_min.dcd
Info: DCD FREQUENCY          5000
Info: DCD FIRST STEP         5000
Info: DCD FILE WILL CONTAIN UNIT CELL DATA
Info: XST FILENAME           mobley_525934_min.xst
Info: XST FREQUENCY          5000
Info: NO VELOCITY DCD OUTPUT
Info: NO FORCE DCD OUTPUT
Info: OUTPUT FILENAME        mobley_525934_min
Info: BINARY OUTPUT FILES WILL BE USED
Info: RESTART FILENAME       mobley_525934_min.restart
Info: RESTART FREQUENCY      5000
Info: BINARY RESTART FILES WILL BE USED
Info: CUTOFF                 9
Info: PAIRLIST DISTANCE      11
Info: PAIRLIST SHRINK RATE   0.01
Info: PAIRLIST GROW RATE     0.01
Info: PAIRLIST TRIGGER       0.3
Info: PAIRLISTS PER CYCLE    2
Info: PAIRLISTS ENABLED
Info: MARGIN                 8
Info: HYDROGEN GROUP CUTOFF  2.5
Info: PATCH DIMENSION        21.5
Info: ENERGY OUTPUT STEPS    5000
Info: ENERGY EVALUATION STEPS    5000
Info: OUTPUT ENERGY PRECISION 4
Info: CROSSTERM ENERGY INCLUDED IN DIHEDRAL
Info: TIMING OUTPUT STEPS    50000
Info: PRESSURE OUTPUT STEPS  5000
Info: LANGEVIN DYNAMICS ACTIVE
Info: LANGEVIN TEMPERATURE   300
Info: LANGEVIN USING BBK INTEGRATOR
Info: LANGEVIN DAMPING COEFFICIENT IS 1 INVERSE PS
Info: LANGEVIN DYNAMICS APPLIED TO HYDROGENS
Info: LANGEVIN PISTON PRESSURE CONTROL ACTIVE
Info:        TARGET PRESSURE IS 1.01325 BAR
Info:     OSCILLATION PERIOD IS 50 FS
Info:             DECAY TIME IS 25 FS
Info:     PISTON TEMPERATURE IS 300 K
Info:       PRESSURE CONTROL IS GROUP-BASED
Info:    INITIAL STRAIN RATE IS 0 0 0
Info:       CELL FLUCTUATION IS ISOTROPIC
Info: PARTICLE MESH EWALD (PME) ACTIVE
Info: PME TOLERANCE               1e-06
Info: PME EWALD COEFFICIENT       0.348832
Info: PME INTERPOLATION ORDER     4
Info: PME GRID DIMENSIONS         40 40 40
Info: PME MAXIMUM GRID SPACING    1
Info: FULL ELECTROSTATIC EVALUATION FREQUENCY      2
Info: USING VERLET I (r-RESPA) MTS SCHEME.
Info: C1 SPLITTING OF LONG RANGE ELECTROSTATICS
Info: PLACING ATOMS IN PATCHES BY HYDROGEN GROUPS
Info: RIGID BONDS TO HYDROGEN : ALL
Info:         ERROR TOLERANCE : 1e-08
Info:          MAX ITERATIONS : 100
Info: RIGID WATER USING SETTLE ALGORITHM
Info: RANDOM NUMBER SEED     1741354299
Info: USE HYDROGEN BONDS?    NO
Info: Using AMBER format force field!
Info: AMBER PARM FILE        mobley_525934.prmtop
Info: COORDINATE PDB         mobley_525934.pdb
Info: Exclusions will be read from PARM file!
Info: SCNB (VDW SCALING)     2
Info: USING ARITHMETIC MEAN TO COMBINE L-J SIGMA PARAMETERS
Info: SUMMARY OF PARAMETERS:
Info: 5 BONDS
Info: 3 ANGLES
Info:   3 HARMONIC
Info:   0 COSINE-BASED
Info: 1 DIHEDRAL
Info: 0 IMPROPER
Info: 0 CROSSTERM
Info: 0 VDW
Info: 21 VDW_PAIRS
Info: 0 NBTHOLE_PAIRS
Info: STRUCTURE SUMMARY:
Info: 3999 ATOMS
Info: 3998 BONDS
Info: 7 ANGLES
Info: 3 DIHEDRALS
Info: 0 IMPROPERS
Info: 0 CROSSTERMS
Info: 4008 EXCLUSIONS
Info: 3997 RIGID BONDS
Info: 8000 DEGREES OF FREEDOM
Info: 1333 HYDROGEN GROUPS
Info: 4 ATOMS IN LARGEST HYDROGEN GROUP
Info: 1333 MIGRATION GROUPS
Info: 4 ATOMS IN LARGEST MIGRATION GROUP
Info: TOTAL MASS = 24027.4 amu
Info: TOTAL CHARGE = 1.86265e-08 e
Info: MASS DENSITY = 0.700021 g/cm^3
Info: ATOM DENSITY = 0.0701611 atoms/A^3
Info: ADDED 0 IMPLICIT EXCLUSIONS
Info: NONBONDED TABLE R-SQUARED SPACING: 0.0625
Info: NONBONDED TABLE SIZE: 705 POINTS
Info: REMOVING COM VELOCITY -0.0316727 -0.106828 -0.0280079
TCL: Minimizing for 2000 steps
ETITLE: TS BOND ANGLE DIHED IMPRP ELECT VDW BOUNDARY MISC KINETIC TOTAL TEMP POTENTIAL TOTAL3 TEMPAVG PRESSURE GPRESSURE VOLUME PRESSAVG GPRESSAVG
ENERGY: 0 0.3062 0.0978 0.0000 0.0000 -12143.3313 1385.2979 0.0000 0.0000 0.0000 -10757.6293 0.0000 -10757.6293 -10757.6293 0.0000 10544.3472 -14908.8278 56997.3560 10544.3472 -14908.8278
ENERGY: 400 0.1316 0.3674 0.0184 0.0000 -17151.9242 2688.8842 0.0000 0.0000 0.0000 -14462.5226 0.0000 -14462.5226 -14462.5226 0.0000 16610.0640 16725.6554 56997.3560 16610.0640 16725.6554
ENERGY: 800 0.8254 0.4707 0.0074 0.0000 -18040.4145 3065.2694 0.0000 0.0000 0.0000 -14973.8417 0.0000 -14973.8417 -14973.8417 0.0000 18763.5966 18854.7603 56997.3560 18763.5966 18854.7603
ENERGY: 1200 0.2263 0.1462 0.0003 0.0000 -18307.6345 3166.1048 0.0000 0.0000 0.0000 -15141.1569 0.0000 -15141.1569 -15141.1569 0.0000 19334.1719 19425.7897 56997.3560 19334.1719 19425.7897
ENERGY: 1600 0.0317 0.2194 0.0006 0.0000 -18462.4380 3245.4053 0.0000 0.0000 0.0000 -15216.7809 0.0000 -15216.7809 -15216.7809 0.0000 19823.6570 19892.3091 56997.3560 19823.6570 19892.3091
ENERGY: 2000 0.0260 0.1317 0.0008 0.0000 -18504.6316 3249.9541 0.0000 0.0000 0.0000 -15254.5191 0.0000 -15254.5191 -15254.5191 0.0000 19860.4807 19932.9226 56997.3560 19860.4807 19932.9226
TCL: Exiting due to exit command.
Info: NAMD 3.0.1 for Linux-x86_64-multicore
Info: Please visit http://www.ks.uiuc.edu/Research/namd/
Info: for updates, documentation, and support information.
Info: Please cite Phillips et al., J. Chem. Phys. 153:044130 (2020) doi:10.1063/5.0014475
Info: in all publications reporting results obtained with NAMD.
Info: Based on Charm++/Converse 80000 for multicore-linux-x86_64-gcc
Info: Built Mon Oct 14 11:11:06 CDT 2024 by dhardy on athine.ks.uiuc.edu
Info: 1 NAMD  3.0.1  Linux-x86_64-multicore  16    k018  z5358697
Info: Running on 16 processors, 1 nodes, 1 physical nodes.
Info: CPU topology information available.
Info: Charm++/Converse parallel runtime startup completed at 0.00556786 s
Info: 1043.46 MB of memory in use based on /proc/self/stat
Info: Configuration file is mobley_525934_equil.namd
Info: Working in the current directory /srv/scratch/z5358697/prod_prep_6/525934
TCL: Running 25000 steps at 30 kelvin.
TCL: Suspending until startup complete.
Info: SIMULATION PARAMETERS:
Info: TIMESTEP               2
Info: NUMBER OF STEPS        0
Info: STEPS PER CYCLE        10
Info: PERIODIC CELL BASIS 1  37.968 0 0
Info: PERIODIC CELL BASIS 2  0 39.115 0
Info: PERIODIC CELL BASIS 3  0 0 38.379
Info: PERIODIC CELL CENTER   0 0 0
Info: WRAPPING WATERS AROUND PERIODIC BOUNDARIES ON OUTPUT.
Info: WRAPPING ALL CLUSTERS AROUND PERIODIC BOUNDARIES ON OUTPUT.
Info: FIRST LDB TIMESTEP     50
Info: LAST LDB TIMESTEP     -1
Info: HOM BACKGROUND SCALING 1
Info: PME BACKGROUND SCALING 1
Info: MIN ATOMS PER PATCH    40
Info: EMPTY PATCH LOAD       40 ATOMS
Info: INITIAL TEMPERATURE    300
Info: CENTER OF MASS MOVING INITIALLY? NO
Info: DIELECTRIC             1
Info: EXCLUDE                SCALED ONE-FOUR
Info: 1-4 ELECTROSTATICS SCALED BY 0.833333
Info: MODIFIED 1-4 VDW PARAMETERS WILL BE USED
Info: DCD FILENAME           mobley_525934_equil.dcd
Info: DCD FREQUENCY          5000
Info: DCD FIRST STEP         5000
Info: DCD FILE WILL CONTAIN UNIT CELL DATA
Info: XST FILENAME           mobley_525934_equil.xst
Info: XST FREQUENCY          5000
Info: NO VELOCITY DCD OUTPUT
Info: NO FORCE DCD OUTPUT
Info: OUTPUT FILENAME        mobley_525934_equil
Info: BINARY OUTPUT FILES WILL BE USED
Info: RESTART FILENAME       mobley_525934_equil.restart
Info: RESTART FREQUENCY      5000
Info: BINARY RESTART FILES WILL BE USED
Info: CUTOFF                 9
Info: PAIRLIST DISTANCE      11
Info: PAIRLIST SHRINK RATE   0.01
Info: PAIRLIST GROW RATE     0.01
Info: PAIRLIST TRIGGER       0.3
Info: PAIRLISTS PER CYCLE    2
Info: PAIRLISTS ENABLED
Info: MARGIN                 8
Info: HYDROGEN GROUP CUTOFF  2.5
Info: PATCH DIMENSION        21.5
Info: ENERGY OUTPUT STEPS    5000
Info: ENERGY EVALUATION STEPS    5000
Info: OUTPUT ENERGY PRECISION 4
Info: CROSSTERM ENERGY INCLUDED IN DIHEDRAL
Info: TIMING OUTPUT STEPS    50000
Info: PRESSURE OUTPUT STEPS  5000
Info: LANGEVIN DYNAMICS ACTIVE
Info: LANGEVIN TEMPERATURE   30
Info: LANGEVIN USING BBK INTEGRATOR
Info: LANGEVIN DAMPING COEFFICIENT IS 1 INVERSE PS
Info: LANGEVIN DYNAMICS APPLIED TO HYDROGENS
Info: LANGEVIN PISTON PRESSURE CONTROL ACTIVE
Info:        TARGET PRESSURE IS 1.01325 BAR
Info:     OSCILLATION PERIOD IS 50 FS
Info:             DECAY TIME IS 25 FS
Info:     PISTON TEMPERATURE IS 300 K
Info:       PRESSURE CONTROL IS GROUP-BASED
Info:    INITIAL STRAIN RATE IS 0 0 0
Info:       CELL FLUCTUATION IS ISOTROPIC
Info: PARTICLE MESH EWALD (PME) ACTIVE
Info: PME TOLERANCE               1e-06
Info: PME EWALD COEFFICIENT       0.348832
Info: PME INTERPOLATION ORDER     4
Info: PME GRID DIMENSIONS         40 40 40
Info: PME MAXIMUM GRID SPACING    1
Info: FULL ELECTROSTATIC EVALUATION FREQUENCY      2
Info: USING VERLET I (r-RESPA) MTS SCHEME.
Info: C1 SPLITTING OF LONG RANGE ELECTROSTATICS
Info: PLACING ATOMS IN PATCHES BY HYDROGEN GROUPS
Info: RIGID BONDS TO HYDROGEN : ALL
Info:         ERROR TOLERANCE : 1e-08
Info:          MAX ITERATIONS : 100
Info: RIGID WATER USING SETTLE ALGORITHM
Info: RANDOM NUMBER SEED     1741354314
Info: USE HYDROGEN BONDS?    NO
Info: Using AMBER format force field!
Info: AMBER PARM FILE        mobley_525934.prmtop
Info: COORDINATE PDB         mobley_525934.pdb
Info: Exclusions will be read from PARM file!
Info: SCNB (VDW SCALING)     2
Info: USING ARITHMETIC MEAN TO COMBINE L-J SIGMA PARAMETERS
Info: BINARY COORDINATES     mobley_525934_min.coor
Info: SUMMARY OF PARAMETERS:
Info: 5 BONDS
Info: 3 ANGLES
Info:   3 HARMONIC
Info:   0 COSINE-BASED
Info: 1 DIHEDRAL
Info: 0 IMPROPER
Info: 0 CROSSTERM
Info: 0 VDW
Info: 21 VDW_PAIRS
Info: 0 NBTHOLE_PAIRS
Info: STRUCTURE SUMMARY:
Info: 3999 ATOMS
Info: 3998 BONDS
Info: 7 ANGLES
Info: 3 DIHEDRALS
Info: 0 IMPROPERS
Info: 0 CROSSTERMS
Info: 4008 EXCLUSIONS
Info: 3997 RIGID BONDS
Info: 8000 DEGREES OF FREEDOM
Info: 1333 HYDROGEN GROUPS
Info: 4 ATOMS IN LARGEST HYDROGEN GROUP
Info: 1333 MIGRATION GROUPS
Info: 4 ATOMS IN LARGEST MIGRATION GROUP
Info: TOTAL MASS = 24027.4 amu
Info: TOTAL CHARGE = 1.86265e-08 e
Info: MASS DENSITY = 0.700021 g/cm^3
Info: ATOM DENSITY = 0.0701611 atoms/A^3
Info: ADDED 0 IMPLICIT EXCLUSIONS
Info: NONBONDED TABLE R-SQUARED SPACING: 0.0625
Info: NONBONDED TABLE SIZE: 705 POINTS
Info: REMOVING COM VELOCITY -0.0841793 -0.00530437 -0.0883408
TCL: Running for 25000 steps
ETITLE: TS BOND ANGLE DIHED IMPRP ELECT VDW BOUNDARY MISC KINETIC TOTAL TEMP POTENTIAL TOTAL3 TEMPAVG PRESSURE GPRESSURE VOLUME PRESSAVG GPRESSAVG
ENERGY: 0 0.0260 0.1317 0.0008 0.0000 -18504.6316 3249.9541 0.0000 0.0000 2388.2771 -12866.2420 300.4589 -15254.5191 -12865.7639 300.4589 385.0620 422.0928 56997.3560 385.0620 422.0928
ENERGY: 5000 0.1825 0.3542 0.1029 0.0000 -19064.6419 3220.5225 0.0000 0.0000 247.1632 -15596.3167 31.0945 -15843.4799 -15595.8820 47.2027 -626.5379 -577.1905 39208.7617 7.3379 7.3363
ENERGY: 10000 0.0220 0.2238 0.0331 0.0000 -19263.5935 3362.7745 0.0000 0.0000 234.2999 -15666.2402 29.4763 -15900.5401 -15665.5269 30.1780 120.2560 193.6212 38908.1451 2.1439 2.2706
ENERGY: 15000 0.0376 0.2582 0.0855 0.0000 -19299.8053 3395.4961 0.0000 0.0000 241.3679 -15662.5600 30.3655 -15903.9279 -15661.7948 30.1609 355.7827 410.9692 38884.7977 7.0579 7.0434
ENERGY: 20000 0.1074 0.3620 0.0192 0.0000 -19394.3502 3475.2062 0.0000 0.0000 236.4741 -15682.1814 29.7498 -15918.6554 -15681.5937 30.1724 827.3905 885.9325 38782.7335 3.0088 3.3970
ENERGY: 25000 0.0004 0.4710 0.0563 0.0000 -19230.9805 3309.1614 0.0000 0.0000 236.6219 -15684.6696 29.7684 -15921.2914 -15683.9443 29.8550 -206.4560 -113.0829 38864.2235 2.2106 2.3593
TCL: Running 25000 steps at 60 kelvin.
TCL: Setting parameter langevinTemp to 60
TCL: Running for 25000 steps
ETITLE: TS BOND ANGLE DIHED IMPRP ELECT VDW BOUNDARY MISC KINETIC TOTAL TEMP POTENTIAL TOTAL3 TEMPAVG PRESSURE GPRESSURE VOLUME PRESSAVG GPRESSAVG
ENERGY: 25000 0.0004 0.4710 0.0563 0.0000 -19230.9805 3309.1614 0.0000 0.0000 236.5074 -15684.7841 29.7540 -15921.2914 -15684.2960 29.7540 -172.5928 -113.1243 38864.2235 -172.5928 -113.1243
ENERGY: 30000 0.0065 0.4455 0.2913 0.0000 -18726.2948 3031.9299 0.0000 0.0000 480.6623 -15212.9592 60.4701 -15693.6215 -15211.4752 56.7884 -1360.0059 -1326.8534 39505.5917 -0.4772 -0.3614
ENERGY: 35000 0.0905 0.1925 0.0004 0.0000 -19074.6680 3312.8819 0.0000 0.0000 480.6360 -15280.8668 60.4668 -15761.5028 -15278.9515 60.1020 238.0562 298.1817 38908.2112 9.7181 9.8756
ENERGY: 40000 0.0313 0.3942 0.3646 0.0000 -19165.6280 3365.9909 0.0000 0.0000 476.8699 -15321.9771 59.9930 -15798.8471 -15320.9348 59.4816 547.4239 608.7962 38745.8905 6.4395 6.2987
ENERGY: 45000 0.0084 1.4719 0.0027 0.0000 -18956.7458 3159.1791 0.0000 0.0000 485.0783 -15311.0053 61.0256 -15796.0836 -15309.0379 60.3741 -720.4752 -664.6184 39020.3467 1.6762 1.6211
ENERGY: 50000 0.0000 0.3546 0.1076 0.0000 -19023.6195 3225.4108 0.0000 0.0000 477.0566 -15320.6898 60.0165 -15797.7464 -15318.9076 60.0753 -285.1458 -229.4561 38878.1065 -3.5546 -3.3320
TCL: Running 25000 steps at 90 kelvin.
TCL: Setting parameter langevinTemp to 90
TCL: Running for 25000 steps
ETITLE: TS BOND ANGLE DIHED IMPRP ELECT VDW BOUNDARY MISC KINETIC TOTAL TEMP POTENTIAL TOTAL3 TEMPAVG PRESSURE GPRESSURE VOLUME PRESSAVG GPRESSAVG
ENERGY: 50000 0.0000 0.3546 0.1076 0.0000 -19023.6195 3225.4108 0.0000 0.0000 476.8271 -15320.9193 59.9876 -15797.7464 -15320.0395 59.9876 -285.7376 -229.0182 38878.1065 -285.7376 -229.0182
ENERGY: 55000 0.0240 0.1464 0.0047 0.0000 -18772.0611 3188.8633 0.0000 0.0000 731.0365 -14851.9862 91.9686 -15583.0226 -14850.8339 87.2514 21.6085 86.2989 39123.0831 1.5072 1.5398
ENERGY: 60000 0.0169 0.4282 0.0731 0.0000 -18719.9159 3108.1126 0.0000 0.0000 718.2976 -14892.9874 90.3660 -15611.2851 -14892.0677 90.9342 -573.6114 -500.7191 39178.9443 -2.3694 -1.7594
ENERGY: 65000 0.4569 0.7991 0.1350 0.0000 -18645.0227 3057.7979 0.0000 0.0000 729.8629 -14855.9710 91.8209 -15585.8339 -14853.9217 90.6112 -829.3988 -770.8800 39229.4773 5.3322 5.5736
ENERGY: 70000 0.0240 1.3050 0.1305 0.0000 -18741.9047 3135.7401 0.0000 0.0000 707.4441 -14897.2611 89.0005 -15604.7053 -14894.5557 90.8340 -290.4475 -261.3977 38902.6496 0.5642 0.3091
ENERGY: 75000 0.0854 0.4093 0.0139 0.0000 -18628.8409 2993.6273 0.0000 0.0000 719.0298 -14915.6751 90.4581 -15634.7049 -14913.3196 90.6794 -1311.5600 -1279.4211 39293.2050 -1.0790 -1.1990
TCL: Running 25000 steps at 120 kelvin.
TCL: Setting parameter langevinTemp to 120
TCL: Running for 25000 steps
ETITLE: TS BOND ANGLE DIHED IMPRP ELECT VDW BOUNDARY MISC KINETIC TOTAL TEMP POTENTIAL TOTAL3 TEMPAVG PRESSURE GPRESSURE VOLUME PRESSAVG GPRESSAVG
ENERGY: 75000 0.0854 0.4093 0.0139 0.0000 -18628.8409 2993.6273 0.0000 0.0000 718.6649 -14916.0400 90.4122 -15634.7049 -14914.3744 90.4122 -1329.9309 -1279.1538 39293.2050 -1329.9309 -1279.1538
ENERGY: 80000 0.0046 1.0655 0.1150 0.0000 -18500.8764 3115.8695 0.0000 0.0000 927.9003 -14455.9215 116.7352 -15383.8218 -14452.9776 116.3945 268.5931 336.0118 38795.5529 6.1981 6.6060
ENERGY: 85000 0.0228 0.5119 0.0019 0.0000 -18477.8990 3078.6730 0.0000 0.0000 981.5048 -14417.1846 123.4789 -15398.6894 -14413.6023 120.8016 -59.8028 -28.4450 38950.3047 2.4088 2.3358
ENERGY: 90000 0.1721 0.4056 0.0524 0.0000 -18534.7845 3098.5511 0.0000 0.0000 952.5597 -14483.0435 119.8375 -15435.6032 -14479.8093 119.8970 -147.1447 -139.8150 39274.0006 3.5407 3.2980
ENERGY: 95000 0.1353 0.6838 0.2992 0.0000 -18567.7389 3120.5375 0.0000 0.0000 966.4715 -14479.6117 121.5876 -15446.0832 -14476.3486 120.0907 -12.2071 6.6587 39259.8275 7.5962 7.4319
ENERGY: 100000 0.0035 1.0171 0.2775 0.0000 -18385.2284 2943.8289 0.0000 0.0000 923.7487 -14516.3527 116.2129 -15440.1014 -14514.5094 119.2897 -1176.4175 -1134.8262 39599.3286 2.1120 2.3931
TCL: Running 25000 steps at 150 kelvin.
TCL: Setting parameter langevinTemp to 150
TCL: Running for 25000 steps
ETITLE: TS BOND ANGLE DIHED IMPRP ELECT VDW BOUNDARY MISC KINETIC TOTAL TEMP POTENTIAL TOTAL3 TEMPAVG PRESSURE GPRESSURE VOLUME PRESSAVG GPRESSAVG
ENERGY: 100000 0.0035 1.0171 0.2775 0.0000 -18385.2284 2943.8289 0.0000 0.0000 923.2859 -14516.8155 116.1546 -15440.1014 -14514.5001 116.1546 -1187.1018 -1135.2894 39599.3286 -1187.1018 -1135.2894
ENERGY: 105000 0.8502 1.0397 0.0289 0.0000 -18165.5706 3010.3513 0.0000 0.0000 1192.9525 -13960.3480 150.0802 -15153.3004 -13955.9611 147.1678 61.0784 62.3792 39283.1179 3.2448 3.3170
ENERGY: 110000 0.0014 1.3018 0.5059 0.0000 -18126.6206 2969.2473 0.0000 0.0000 1186.7644 -13968.7998 149.3018 -15155.5642 -13966.1606 151.0187 -289.9210 -259.6108 39809.6245 3.0703 2.6907
ENERGY: 115000 0.0166 0.5005 0.0083 0.0000 -18190.7257 3006.0118 0.0000 0.0000 1189.8330 -13994.3554 149.6878 -15184.1884 -13991.6104 150.0412 -16.1282 36.8858 39275.6224 4.0768 4.2855
ENERGY: 120000 0.3295 1.7139 0.0288 0.0000 -18311.3399 3067.6723 0.0000 0.0000 1190.0129 -14051.5825 149.7104 -15241.5954 -14049.6090 150.6351 200.8320 221.0176 39345.5250 -0.7830 -0.8514
ENERGY: 125000 0.0017 1.6257 0.1301 0.0000 -18157.8211 2932.3071 0.0000 0.0000 1217.7359 -14006.0206 153.1981 -15223.7565 -14002.8447 151.6960 -509.9164 -493.3796 39479.2766 -0.0214 -0.1491
TCL: Running 50000 steps at 180 kelvin.
TCL: Setting parameter langevinTemp to 180
TCL: Running for 50000 steps
ETITLE: TS BOND ANGLE DIHED IMPRP ELECT VDW BOUNDARY MISC KINETIC TOTAL TEMP POTENTIAL TOTAL3 TEMPAVG PRESSURE GPRESSURE VOLUME PRESSAVG GPRESSAVG
ENERGY: 125000 0.0017 1.6257 0.1301 0.0000 -18157.8211 2932.3071 0.0000 0.0000 1217.1173 -14006.6392 153.1203 -15223.7565 -14004.1700 153.1203 -554.2216 -493.8843 39479.2766 -554.2216 -493.8843
ENERGY: 135000 0.9961 0.9149 0.0272 0.0000 -17951.2201 3042.4343 0.0000 0.0000 1463.4943 -13443.3532 184.1160 -14906.8475 -13439.1290 179.8180 1122.2884 1184.1490 38949.1217 0.4742 0.8013
ENERGY: 145000 0.0054 1.2502 0.0576 0.0000 -17654.6505 2779.0062 0.0000 0.0000 1417.6092 -13456.7220 178.3434 -14874.3312 -13454.1439 180.5029 -797.4107 -753.4053 39785.3257 7.6151 7.4149
ENERGY: 155000 0.2735 0.1517 0.1402 0.0000 -17819.1443 2966.9180 0.0000 0.0000 1441.5129 -13410.1481 181.3506 -14851.6610 -13407.5317 179.1446 709.9657 721.1075 39337.2877 1.6133 1.9334
ENERGY: 165000 0.3315 0.3715 0.0201 0.0000 -17898.7405 3017.8123 0.0000 0.0000 1458.1474 -13422.0578 183.4433 -14880.2052 -13419.9671 181.1734 1011.6688 1079.6051 38818.3252 5.8970 5.4673
ENERGY: 175000 0.0798 1.7034 0.0026 0.0000 -17922.9127 2985.6687 0.0000 0.0000 1420.0197 -13515.4386 178.6466 -14935.4582 -13513.0601 180.0934 569.8262 633.3451 39061.3045 7.5980 8.1340
TCL: Running 50000 steps at 210 kelvin.
TCL: Setting parameter langevinTemp to 210
TCL: Running for 50000 steps
ETITLE: TS BOND ANGLE DIHED IMPRP ELECT VDW BOUNDARY MISC KINETIC TOTAL TEMP POTENTIAL TOTAL3 TEMPAVG PRESSURE GPRESSURE VOLUME PRESSAVG GPRESSAVG
ENERGY: 175000 0.0798 1.7034 0.0026 0.0000 -17922.9127 2985.6687 0.0000 0.0000 1419.3217 -13516.1365 178.5588 -14935.4582 -13513.8355 178.5588 584.3679 632.2325 39061.3045 584.3679 632.2325
ENERGY: 185000 0.9137 1.3534 0.3570 0.0000 -16773.2557 2503.3181 0.0000 0.0000 1662.9814 -12604.3321 209.2126 -14267.3135 -12598.4348 210.2316 -600.5325 -522.7043 39167.3327 -2.2497 -1.5853
ENERGY: 195000 0.1380 1.1323 0.6159 0.0000 -16922.9564 2647.9492 0.0000 0.0000 1680.4683 -12592.6528 211.4125 -14273.1211 -12589.3518 210.4943 551.0186 624.4123 38675.5945 2.8101 2.9267
ENERGY: 205000 0.1718 1.4729 0.0484 0.0000 -16717.5981 2555.1200 0.0000 0.0000 1625.4595 -12535.3254 204.4921 -14160.7849 -12531.7016 209.8096 253.5818 344.1140 38613.6031 1.3351 1.6924
ENERGY: 215000 0.0138 1.4882 0.0222 0.0000 -16913.8204 2599.5350 0.0000 0.0000 1649.5326 -12663.2286 207.5206 -14312.7613 -12659.6626 210.6980 -54.8818 -31.7104 39190.7643 -2.7068 -3.5077
ENERGY: 225000 0.4821 1.1257 0.8451 0.0000 -16984.7972 2647.3476 0.0000 0.0000 1673.3003 -12661.6965 210.5107 -14334.9968 -12659.5459 209.4776 214.6582 246.8695 39049.6679 2.6226 3.5099
TCL: Running 50000 steps at 240 kelvin.
TCL: Setting parameter langevinTemp to 240
TCL: Running for 50000 steps
ETITLE: TS BOND ANGLE DIHED IMPRP ELECT VDW BOUNDARY MISC KINETIC TOTAL TEMP POTENTIAL TOTAL3 TEMPAVG PRESSURE GPRESSURE VOLUME PRESSAVG GPRESSAVG
ENERGY: 225000 0.4821 1.1257 0.8451 0.0000 -16984.7972 2647.3476 0.0000 0.0000 1672.4517 -12662.5451 210.4040 -14334.9968 -12658.8700 210.4040 171.3500 244.9944 39049.6679 171.3500 244.9944
ENERGY: 235000 0.1351 3.0975 0.1633 0.0000 -15888.5782 2165.5190 0.0000 0.0000 1910.2418 -11809.4216 240.3193 -13719.6634 -11802.1088 239.9505 -1191.4069 -1022.2387 39278.8404 0.8294 1.0918
ENERGY: 245000 0.0821 2.1001 0.0251 0.0000 -15979.7762 2309.9202 0.0000 0.0000 1887.7677 -11779.8810 237.4920 -13667.6486 -11775.5569 240.4793 -166.2349 -58.5447 39370.1101 8.5864 8.0041
ENERGY: 255000 0.1676 3.5804 0.4882 0.0000 -15943.0484 2263.4513 0.0000 0.0000 1949.0554 -11726.3054 245.2023 -13675.3608 -11720.0442 240.1223 -412.7438 -324.6618 39540.9204 -0.5725 -1.4021
ENERGY: 265000 0.1485 1.6271 0.2039 0.0000 -15815.0393 2235.6110 0.0000 0.0000 1920.2890 -11657.1598 241.5833 -13577.4488 -11651.1866 240.2820 -413.3473 -352.1365 39689.4734 3.8852 4.3454
ENERGY: 275000 0.0686 0.5596 0.3607 0.0000 -15939.4093 2297.1357 0.0000 0.0000 1904.7180 -11736.5667 239.6244 -13641.2847 -11733.0192 242.2059 -86.2659 -27.9231 39221.2936 -0.9593 -0.4780
TCL: Running 50000 steps at 270 kelvin.
TCL: Setting parameter langevinTemp to 270
TCL: Running for 50000 steps
ETITLE: TS BOND ANGLE DIHED IMPRP ELECT VDW BOUNDARY MISC KINETIC TOTAL TEMP POTENTIAL TOTAL3 TEMPAVG PRESSURE GPRESSURE VOLUME PRESSAVG GPRESSAVG
ENERGY: 275000 0.0686 0.5596 0.3607 0.0000 -15939.4093 2297.1357 0.0000 0.0000 1903.7615 -11737.5231 239.5041 -13641.2847 -11734.3497 239.5041 -113.5529 -29.0983 39221.2936 -113.5529 -29.0983
ENERGY: 285000 0.0098 1.7128 0.0136 0.0000 -15260.7113 2195.5294 0.0000 0.0000 2153.0444 -10910.4013 270.8653 -13063.4457 -10904.9165 271.4623 425.6618 457.9465 40456.4204 6.0776 6.0179
ENERGY: 295000 0.0062 2.1434 0.0201 0.0000 -15222.6325 2128.3329 0.0000 0.0000 2117.8471 -10974.2830 266.4373 -13092.1300 -10972.3691 270.8198 -140.5623 -52.7245 40274.5378 -0.7685 -0.3000
ENERGY: 305000 0.0824 1.6350 0.3126 0.0000 -15126.9641 2032.5684 0.0000 0.0000 2123.8150 -10968.5506 267.1881 -13092.3656 -10963.9047 270.2414 -472.3435 -379.3358 39940.8427 6.5759 6.3926
ENERGY: 315000 0.0739 2.1287 0.0163 0.0000 -15364.0335 2223.6581 0.0000 0.0000 2148.6914 -10989.4651 270.3177 -13138.1565 -10985.2093 271.1803 343.4906 384.5504 40503.9115 0.0783 0.8742
ENERGY: 325000 0.2556 1.4459 0.0553 0.0000 -15272.2244 2150.8415 0.0000 0.0000 2157.6685 -10961.9576 271.4470 -13119.6261 -10955.8261 270.0943 97.5264 186.7424 40008.8821 3.2433 3.4109
TCL: Running 1000000 steps at 300 kelvin.
TCL: Setting parameter langevinTemp to 300
TCL: Running for 1000000 steps
ETITLE: TS BOND ANGLE DIHED IMPRP ELECT VDW BOUNDARY MISC KINETIC TOTAL TEMP POTENTIAL TOTAL3 TEMPAVG PRESSURE GPRESSURE VOLUME PRESSAVG GPRESSAVG
ENERGY: 325000 0.2556 1.4459 0.0553 0.0000 -15272.2244 2150.8415 0.0000 0.0000 2156.6083 -10963.0178 271.3137 -13119.6261 -10960.1384 271.3137 103.7648 188.0986 40008.8821 103.7648 188.0986
ENERGY: 525000 1.4136 0.8477 0.8561 0.0000 -14438.5496 1954.3692 0.0000 0.0000 2400.7402 -10080.3229 302.0269 -12481.0631 -10077.5459 299.3665 100.8204 174.1686 41179.9836 4.1863 4.7236
ENERGY: 725000 0.3500 0.9075 0.7690 0.0000 -14457.6281 1914.4476 0.0000 0.0000 2365.8904 -10175.2635 297.6425 -12541.1539 -10168.2854 298.2291 120.7962 198.2942 40533.8135 -5.6552 -5.5172
ENERGY: 925000 0.3794 2.4168 0.0272 0.0000 -14444.7597 1906.6255 0.0000 0.0000 2391.9049 -10143.4059 300.9153 -12535.3108 -10140.9213 298.0487 -292.6790 -207.3043 41421.5653 5.4333 5.8990
ENERGY: 1125000 0.2630 0.6827 0.0516 0.0000 -14734.0040 2046.2336 0.0000 0.0000 2398.2902 -10288.4830 301.7186 -12686.7731 -10284.7259 298.8912 408.4710 539.9372 40537.6242 -0.4291 -0.6640
ENERGY: 1325000 0.6522 2.3796 0.5809 0.0000 -14486.6178 1894.3424 0.0000 0.0000 2407.8385 -10180.8241 302.9199 -12588.6626 -10174.7152 300.3763 -488.7635 -370.1975 41178.5034 4.8339 5.1724
TCL: Exiting due to exit command.
