Info: SIMULATION PARAMETERS:
Info: TIMESTEP               2
Info: NUMBER OF STEPS        0
Info: STEPS PER CYCLE        10
Info: PERIODIC CELL BASIS 1  34.986 0 0
Info: PERIODIC CELL BASIS 2  0 34.457 0
Info: PERIODIC CELL BASIS 3  0 0 35.723
Info: PERIODIC CELL CENTER   0 0 0
Info: WRAPPING WATERS AROUND PERIODIC BOUNDARIES ON OUTPUT.
Info: WRAPPING ALL CLUSTERS AROUND PERIODIC BOUNDARIES ON OUTPUT.
Info: FIRST LDB TIMESTEP     50
Info: LAST LDB TIMESTEP     -1
Info: HOM BACKGROUND SCALING 1
Info: PME BACKGROUND SCALING 1
Info: MIN ATOMS PER PATCH    40
Info: EMPTY PATCH LOAD       40 ATOMS
Info: INITIAL TEMPERATURE    300
Info: CENTER OF MASS MOVING INITIALLY? NO
Info: DIELECTRIC             1
Info: EXCLUDE                SCALED ONE-FOUR
Info: 1-4 ELECTROSTATICS SCALED BY 0.833333
Info: MODIFIED 1-4 VDW PARAMETERS WILL BE USED
Info: DCD FILENAME           mobley_7732703_equil.dcd
Info: DCD FREQUENCY          100000
Info: DCD FIRST STEP         100000
Info: DCD FILE WILL CONTAIN UNIT CELL DATA
Info: XST FILENAME           mobley_7732703_equil.xst
Info: XST FREQUENCY          100000
Info: NO VELOCITY DCD OUTPUT
Info: NO FORCE DCD OUTPUT
Info: OUTPUT FILENAME        mobley_7732703_equil
Info: BINARY OUTPUT FILES WILL BE USED
Info: RESTART FILENAME       mobley_7732703_equil.restart
Info: RESTART FREQUENCY      100000
Info: BINARY RESTART FILES WILL BE USED
Info: CUTOFF                 9
Info: PAIRLIST DISTANCE      11
Info: PAIRLIST SHRINK RATE   0.01
Info: PAIRLIST GROW RATE     0.01
Info: PAIRLIST TRIGGER       0.3
Info: PAIRLISTS PER CYCLE    2
Info: PAIRLISTS ENABLED
Info: MARGIN                 8
Info: HYDROGEN GROUP CUTOFF  2.5
Info: PATCH DIMENSION        21.5
Info: ENERGY OUTPUT STEPS    100000
Info: ENERGY EVALUATION STEPS    100000
Info: OUTPUT ENERGY PRECISION 4
Info: CROSSTERM ENERGY INCLUDED IN DIHEDRAL
Info: TIMING OUTPUT STEPS    1000000
Info: PRESSURE OUTPUT STEPS  100000
Info: FIXED ATOMS ACTIVE
Info: LANGEVIN DYNAMICS ACTIVE
Info: LANGEVIN TEMPERATURE   30
Info: LANGEVIN USING BBK INTEGRATOR
Info: LANGEVIN DAMPING COEFFICIENT IS 1 INVERSE PS
Info: LANGEVIN DYNAMICS APPLIED TO HYDROGENS
Info: LANGEVIN PISTON PRESSURE CONTROL ACTIVE
Info:        TARGET PRESSURE IS 1.01325 BAR
Info:     OSCILLATION PERIOD IS 50 FS
Info:             DECAY TIME IS 25 FS
Info:     PISTON TEMPERATURE IS 300 K
Info:       PRESSURE CONTROL IS GROUP-BASED
Info:    INITIAL STRAIN RATE IS 0 0 0
Info:       CELL FLUCTUATION IS ISOTROPIC
Info: PARTICLE MESH EWALD (PME) ACTIVE
Info: PME TOLERANCE               1e-06
Info: PME EWALD COEFFICIENT       0.348832
Info: PME INTERPOLATION ORDER     4
Info: PME GRID DIMENSIONS         36 36 36
Info: PME MAXIMUM GRID SPACING    1
Info: FULL ELECTROSTATIC EVALUATION FREQUENCY      2
Info: USING VERLET I (r-RESPA) MTS SCHEME.
Info: C1 SPLITTING OF LONG RANGE ELECTROSTATICS
Info: PLACING ATOMS IN PATCHES BY HYDROGEN GROUPS
Info: RIGID BONDS TO HYDROGEN : ALL
Info:         ERROR TOLERANCE : 1e-08
Info:          MAX ITERATIONS : 100
Info: RIGID WATER USING SETTLE ALGORITHM
Info: RANDOM NUMBER SEED     1741917009
Info: USE HYDROGEN BONDS?    NO
Info: Using AMBER format force field!
Info: AMBER PARM FILE        mobley_7732703.prmtop
Info: COORDINATE PDB         mobley_7732703.pdb
Info: Exclusions will be read from PARM file!
Info: SCNB (VDW SCALING)     2
Info: USING ARITHMETIC MEAN TO COMBINE L-J SIGMA PARAMETERS
Info: BINARY COORDINATES     mobley_7732703_min.coor
Info: SUMMARY OF PARAMETERS:
Info: 4 BONDS
Info: 2 ANGLES
Info:   2 HARMONIC
Info:   0 COSINE-BASED
Info: 0 DIHEDRAL
Info: 0 IMPROPER
Info: 0 CROSSTERM
Info: 0 VDW
Info: 15 VDW_PAIRS
Info: 0 NBTHOLE_PAIRS
Info: STRUCTURE SUMMARY:
Info: 2921 ATOMS
Info: 2920 BONDS
Info: 6 ANGLES
Info: 0 DIHEDRALS
Info: 0 IMPROPERS
Info: 0 CROSSTERMS
Info: 2926 EXCLUSIONS
Info: 5 FIXED ATOMS
Info: 2916 RIGID BONDS
Info: 0 RIGID BONDS BETWEEN FIXED ATOMS
Info: 5832 DEGREES OF FREEDOM
Info: 977 HYDROGEN GROUPS
Info: 3 ATOMS IN LARGEST HYDROGEN GROUP
Info: 977 MIGRATION GROUPS
Info: 3 ATOMS IN LARGEST MIGRATION GROUP
Info: 5 HYDROGEN GROUPS WITH ALL ATOMS FIXED
Info: TOTAL MASS = 17660.5 amu
Info: TOTAL CHARGE = 9.99942e-05 e
Info: MASS DENSITY = 0.680991 g/cm^3
Info: ATOM DENSITY = 0.0678284 atoms/A^3
Info: ADDED 0 IMPLICIT EXCLUSIONS
Info: NONBONDED TABLE R-SQUARED SPACING: 0.0625
Info: NONBONDED TABLE SIZE: 705 POINTS
Info: REMOVING COM VELOCITY 0.192871 0.172906 0.245638
TCL: Running for 100000 steps
ETITLE: TS BOND ANGLE DIHED IMPRP ELECT VDW BOUNDARY MISC KINETIC TOTAL TEMP POTENTIAL TOTAL3 TEMPAVG PRESSURE GPRESSURE VOLUME PRESSAVG GPRESSAVG
ENERGY: 0 0.0000 0.0000 0.0000 0.0000 -13560.6762 2384.8492 0.0000 0.0000 1733.8694 -9441.9575 299.2191 -11175.8270 -9441.6325 299.2191 519.9555 555.6846 43064.5267 519.9555 555.6846
ENERGY: 100000 0.0000 0.0000 0.0000 0.0000 -14154.7614 2430.8872 0.0000 0.0000 177.4400 -11546.4342 30.6214 -11723.8742 -11545.9873 30.8945 -213.0512 -166.4943 28353.5098 3.5505 3.5553
TCL: Running 100000 steps at 60 kelvin.
TCL: Setting parameter langevinTemp to 60
TCL: Running for 100000 steps
ETITLE: TS BOND ANGLE DIHED IMPRP ELECT VDW BOUNDARY MISC KINETIC TOTAL TEMP POTENTIAL TOTAL3 TEMPAVG PRESSURE GPRESSURE VOLUME PRESSAVG GPRESSAVG
ENERGY: 100000 0.0000 0.0000 0.0000 0.0000 -14154.7614 2430.8872 0.0000 0.0000 177.3523 -11546.5219 30.6062 -11723.8742 -11546.1329 30.6062 -206.9174 -166.3861 28353.5098 -206.9174 -166.3861
ENERGY: 200000 0.0000 0.0000 0.0000 0.0000 -14091.9002 2442.7829 0.0000 0.0000 350.2646 -11298.8526 60.4462 -11649.1173 -11298.1881 59.8610 257.0951 283.0558 28366.3909 2.4335 2.5252
TCL: Running 100000 steps at 90 kelvin.
TCL: Setting parameter langevinTemp to 90
TCL: Running for 100000 steps
ETITLE: TS BOND ANGLE DIHED IMPRP ELECT VDW BOUNDARY MISC KINETIC TOTAL TEMP POTENTIAL TOTAL3 TEMPAVG PRESSURE GPRESSURE VOLUME PRESSAVG GPRESSAVG
ENERGY: 200000 0.0000 0.0000 0.0000 0.0000 -14091.9002 2442.7829 0.0000 0.0000 350.0910 -11299.0263 60.4163 -11649.1173 -11298.2636 60.4163 236.6906 282.8607 28366.3909 236.6906 282.8607
ENERGY: 300000 0.0000 0.0000 0.0000 0.0000 -13887.2032 2318.8447 0.0000 0.0000 530.7093 -11037.6492 91.5861 -11568.3586 -11036.0951 90.0124 -564.3535 -502.3911 28429.8836 3.7768 3.8293
TCL: Running 100000 steps at 120 kelvin.
TCL: Setting parameter langevinTemp to 120
TCL: Running for 100000 steps
ETITLE: TS BOND ANGLE DIHED IMPRP ELECT VDW BOUNDARY MISC KINETIC TOTAL TEMP POTENTIAL TOTAL3 TEMPAVG PRESSURE GPRESSURE VOLUME PRESSAVG GPRESSAVG
ENERGY: 300000 0.0000 0.0000 0.0000 0.0000 -13887.2032 2318.8447 0.0000 0.0000 530.4487 -11037.9098 91.5411 -11568.3586 -11036.7058 91.5411 -547.7905 -502.6799 28429.8836 -547.7905 -502.6799
ENERGY: 400000 0.0000 0.0000 0.0000 0.0000 -13932.2208 2530.7454 0.0000 0.0000 691.5593 -10709.9161 119.3445 -11401.4754 -10708.3695 119.9662 1840.5231 1858.9602 28274.8856 3.8667 4.0036
TCL: Running 100000 steps at 150 kelvin.
TCL: Setting parameter langevinTemp to 150
TCL: Running for 100000 steps
ETITLE: TS BOND ANGLE DIHED IMPRP ELECT VDW BOUNDARY MISC KINETIC TOTAL TEMP POTENTIAL TOTAL3 TEMPAVG PRESSURE GPRESSURE VOLUME PRESSAVG GPRESSAVG
ENERGY: 400000 0.0000 0.0000 0.0000 0.0000 -13932.2208 2530.7454 0.0000 0.0000 691.2196 -10710.2558 119.2859 -11401.4754 -10709.0309 119.2859 1814.3332 1859.4673 28274.8856 1814.3332 1859.4673
ENERGY: 500000 0.0000 0.0000 0.0000 0.0000 -13454.3911 2246.8410 0.0000 0.0000 873.0939 -10334.4562 150.6724 -11207.5501 -10331.6146 150.0403 130.1801 161.7527 28840.9496 3.1807 3.4261
TCL: Running 100000 steps at 180 kelvin.
TCL: Setting parameter langevinTemp to 180
TCL: Running for 100000 steps
ETITLE: TS BOND ANGLE DIHED IMPRP ELECT VDW BOUNDARY MISC KINETIC TOTAL TEMP POTENTIAL TOTAL3 TEMPAVG PRESSURE GPRESSURE VOLUME PRESSAVG GPRESSAVG
ENERGY: 500000 0.0000 0.0000 0.0000 0.0000 -13454.3911 2246.8410 0.0000 0.0000 872.6650 -10334.8850 150.5984 -11207.5501 -10332.9222 150.5984 109.3268 162.7095 28840.9496 109.3268 162.7095
ENERGY: 600000 0.0000 0.0000 0.0000 0.0000 -12990.8453 2045.6066 0.0000 0.0000 1075.3378 -9869.9008 185.5743 -10945.2387 -9866.7624 179.8367 -508.0047 -514.1968 28841.4123 4.1094 3.9879
TCL: Running 100000 steps at 210 kelvin.
TCL: Setting parameter langevinTemp to 210
TCL: Running for 100000 steps
ETITLE: TS BOND ANGLE DIHED IMPRP ELECT VDW BOUNDARY MISC KINETIC TOTAL TEMP POTENTIAL TOTAL3 TEMPAVG PRESSURE GPRESSURE VOLUME PRESSAVG GPRESSAVG
ENERGY: 600000 0.0000 0.0000 0.0000 0.0000 -12990.8453 2045.6066 0.0000 0.0000 1074.8054 -9870.4332 185.4824 -10945.2387 -9868.0605 185.4824 -574.3241 -514.1559 28841.4123 -574.3241 -514.1559
ENERGY: 700000 0.0000 0.0000 0.0000 0.0000 -12085.7943 1731.7570 0.0000 0.0000 1214.2644 -9139.7729 209.5493 -10354.0374 -9136.5386 210.2103 -871.8479 -772.3690 28649.2543 3.2367 3.3652
TCL: Running 100000 steps at 240 kelvin.
TCL: Setting parameter langevinTemp to 240
TCL: Running for 100000 steps
ETITLE: TS BOND ANGLE DIHED IMPRP ELECT VDW BOUNDARY MISC KINETIC TOTAL TEMP POTENTIAL TOTAL3 TEMPAVG PRESSURE GPRESSURE VOLUME PRESSAVG GPRESSAVG
ENERGY: 700000 0.0000 0.0000 0.0000 0.0000 -12085.7943 1731.7570 0.0000 0.0000 1213.6526 -9140.3848 209.4437 -10354.0374 -9138.2997 209.4437 -858.1723 -772.2357 28649.2543 -858.1723 -772.2357
ENERGY: 800000 0.0000 0.0000 0.0000 0.0000 -11792.6581 1715.8090 0.0000 0.0000 1341.2413 -8735.6078 231.4620 -10076.8490 -8734.9291 239.3608 -245.7557 -161.8427 29093.8132 2.8716 2.9929
TCL: Running 100000 steps at 270 kelvin.
TCL: Setting parameter langevinTemp to 270
TCL: Running for 100000 steps
ETITLE: TS BOND ANGLE DIHED IMPRP ELECT VDW BOUNDARY MISC KINETIC TOTAL TEMP POTENTIAL TOTAL3 TEMPAVG PRESSURE GPRESSURE VOLUME PRESSAVG GPRESSAVG
ENERGY: 800000 0.0000 0.0000 0.0000 0.0000 -11792.6581 1715.8090 0.0000 0.0000 1340.5284 -8736.3207 231.3390 -10076.8490 -8734.8940 231.3390 -240.1408 -164.1495 29093.8132 -240.1408 -164.1495
ENERGY: 900000 0.0000 0.0000 0.0000 0.0000 -11217.4203 1569.1645 0.0000 0.0000 1609.2645 -8038.9913 277.7156 -9648.2558 -8037.5999 270.2990 35.7102 55.1291 29571.2826 3.9713 4.0065
TCL: Running 1000000 steps at 300 kelvin.
TCL: Setting parameter langevinTemp to 300
TCL: Running for 1000000 steps
ETITLE: TS BOND ANGLE DIHED IMPRP ELECT VDW BOUNDARY MISC KINETIC TOTAL TEMP POTENTIAL TOTAL3 TEMPAVG PRESSURE GPRESSURE VOLUME PRESSAVG GPRESSAVG
ENERGY: 900000 0.0000 0.0000 0.0000 0.0000 -11217.4203 1569.1645 0.0000 0.0000 1608.5189 -8039.7369 277.5869 -9648.2558 -8037.4061 277.5869 -19.3622 53.5856 29571.2826 -19.3622 53.5856
ENERGY: 1100000 0.0000 0.0000 0.0000 0.0000 -10522.7418 1337.6492 0.0000 0.0000 1766.1775 -7418.9151 304.7946 -9185.0926 -7414.4997 299.9111 -761.3221 -702.8260 30628.5725 2.7953 2.6107
ENERGY: 1300000 0.0000 0.0000 0.0000 0.0000 -10536.0106 1394.0062 0.0000 0.0000 1751.0615 -7390.9428 302.1860 -9142.0044 -7388.0605 300.5639 -194.8748 -96.4815 30499.0415 3.1780 3.1834
ENERGY: 1500000 0.0000 0.0000 0.0000 0.0000 -10680.3236 1456.7104 0.0000 0.0000 1715.1499 -7508.4633 295.9886 -9223.6132 -7503.7963 300.1640 35.8495 95.6207 30499.4704 3.6727 3.7340
ENERGY: 1700000 0.0000 0.0000 0.0000 0.0000 -10700.2049 1452.7590 0.0000 0.0000 1692.2236 -7555.2223 292.0321 -9247.4459 -7551.4819 300.1686 0.1311 129.0561 30100.9779 2.5723 2.5634
ENERGY: 1900000 0.0000 0.0000 0.0000 0.0000 -10721.8485 1487.6350 0.0000 0.0000 1746.7194 -7487.4941 301.4366 -9234.2135 -7482.0557 300.0306 534.0117 628.8287 29816.6757 4.8440 4.9332
TCL: Exiting due to exit command.
