Info: SIMULATION PARAMETERS:
Info: TIMESTEP               2
Info: NUMBER OF STEPS        0
Info: STEPS PER CYCLE        10
Info: PERIODIC CELL BASIS 1  41.545 0 0
Info: PERIODIC CELL BASIS 2  0 42.118 0
Info: PERIODIC CELL BASIS 3  0 0 42.04
Info: PERIODIC CELL CENTER   0 0 0
Info: WRAPPING WATERS AROUND PERIODIC BOUNDARIES ON OUTPUT.
Info: WRAPPING ALL CLUSTERS AROUND PERIODIC BOUNDARIES ON OUTPUT.
Info: FIRST LDB TIMESTEP     50
Info: LAST LDB TIMESTEP     -1
Info: HOM BACKGROUND SCALING 1
Info: PME BACKGROUND SCALING 1
Info: MIN ATOMS PER PATCH    40
Info: EMPTY PATCH LOAD       40 ATOMS
Info: INITIAL TEMPERATURE    300
Info: CENTER OF MASS MOVING INITIALLY? NO
Info: DIELECTRIC             1
Info: EXCLUDE                SCALED ONE-FOUR
Info: 1-4 ELECTROSTATICS SCALED BY 0.833333
Info: MODIFIED 1-4 VDW PARAMETERS WILL BE USED
Info: DCD FILENAME           mobley_468867_min.dcd
Info: DCD FREQUENCY          5000
Info: DCD FIRST STEP         5000
Info: DCD FILE WILL CONTAIN UNIT CELL DATA
Info: XST FILENAME           mobley_468867_min.xst
Info: XST FREQUENCY          5000
Info: NO VELOCITY DCD OUTPUT
Info: NO FORCE DCD OUTPUT
Info: OUTPUT FILENAME        mobley_468867_min
Info: BINARY OUTPUT FILES WILL BE USED
Info: RESTART FILENAME       mobley_468867_min.restart
Info: RESTART FREQUENCY      5000
Info: BINARY RESTART FILES WILL BE USED
Info: CUTOFF                 9
Info: PAIRLIST DISTANCE      11
Info: PAIRLIST SHRINK RATE   0.01
Info: PAIRLIST GROW RATE     0.01
Info: PAIRLIST TRIGGER       0.3
Info: PAIRLISTS PER CYCLE    2
Info: PAIRLISTS ENABLED
Info: MARGIN                 8
Info: HYDROGEN GROUP CUTOFF  2.5
Info: PATCH DIMENSION        21.5
Info: ENERGY OUTPUT STEPS    5000
Info: ENERGY EVALUATION STEPS    5000
Info: OUTPUT ENERGY PRECISION 4
Info: CROSSTERM ENERGY INCLUDED IN DIHEDRAL
Info: TIMING OUTPUT STEPS    50000
Info: PRESSURE OUTPUT STEPS  5000
Info: LANGEVIN DYNAMICS ACTIVE
Info: LANGEVIN TEMPERATURE   300
Info: LANGEVIN USING BBK INTEGRATOR
Info: LANGEVIN DAMPING COEFFICIENT IS 1 INVERSE PS
Info: LANGEVIN DYNAMICS APPLIED TO HYDROGENS
Info: LANGEVIN PISTON PRESSURE CONTROL ACTIVE
Info:        TARGET PRESSURE IS 1.01325 BAR
Info:     OSCILLATION PERIOD IS 50 FS
Info:             DECAY TIME IS 25 FS
Info:     PISTON TEMPERATURE IS 300 K
Info:       PRESSURE CONTROL IS GROUP-BASED
Info:    INITIAL STRAIN RATE IS 0 0 0
Info:       CELL FLUCTUATION IS ISOTROPIC
Info: PARTICLE MESH EWALD (PME) ACTIVE
Info: PME TOLERANCE               1e-06
Info: PME EWALD COEFFICIENT       0.348832
Info: PME INTERPOLATION ORDER     4
Info: PME GRID DIMENSIONS         44 44 44
Info: PME MAXIMUM GRID SPACING    1
Info: FULL ELECTROSTATIC EVALUATION FREQUENCY      2
Info: USING VERLET I (r-RESPA) MTS SCHEME.
Info: C1 SPLITTING OF LONG RANGE ELECTROSTATICS
Info: PLACING ATOMS IN PATCHES BY HYDROGEN GROUPS
Info: RIGID BONDS TO HYDROGEN : ALL
Info:         ERROR TOLERANCE : 1e-08
Info:          MAX ITERATIONS : 100
Info: RIGID WATER USING SETTLE ALGORITHM
Info: RANDOM NUMBER SEED     1741335647
Info: USE HYDROGEN BONDS?    NO
Info: Using AMBER format force field!
Info: AMBER PARM FILE        mobley_468867.prmtop
Info: COORDINATE PDB         mobley_468867.pdb
Info: Exclusions will be read from PARM file!
Info: SCNB (VDW SCALING)     2
Info: USING ARITHMETIC MEAN TO COMBINE L-J SIGMA PARAMETERS
Info: SUMMARY OF PARAMETERS:
Info: 10 BONDS
Info: 15 ANGLES
Info:   15 HARMONIC
Info:   0 COSINE-BASED
Info: 12 DIHEDRAL
Info: 0 IMPROPER
Info: 0 CROSSTERM
Info: 0 VDW
Info: 36 VDW_PAIRS
Info: 0 NBTHOLE_PAIRS
Info: STRUCTURE SUMMARY:
Info: 5374 ATOMS
Info: 5376 BONDS
Info: 48 ANGLES
Info: 90 DIHEDRALS
Info: 0 IMPROPERS
Info: 0 CROSSTERMS
Info: 5493 EXCLUSIONS
Info: 5357 RIGID BONDS
Info: 10765 DEGREES OF FREEDOM
Info: 1801 HYDROGEN GROUPS
Info: 3 ATOMS IN LARGEST HYDROGEN GROUP
Info: 1801 MIGRATION GROUPS
Info: 3 ATOMS IN LARGEST MIGRATION GROUP
Info: TOTAL MASS = 32513.8 amu
Info: TOTAL CHARGE = 9.99968e-05 e
Info: MASS DENSITY = 0.73397 g/cm^3
Info: ATOM DENSITY = 0.0730547 atoms/A^3
Info: ADDED 0 IMPLICIT EXCLUSIONS
Info: NONBONDED TABLE R-SQUARED SPACING: 0.0625
Info: NONBONDED TABLE SIZE: 705 POINTS
Info: REMOVING COM VELOCITY -0.00557943 -0.0744135 -0.0121051
TCL: Minimizing for 2000 steps
ETITLE: TS BOND ANGLE DIHED IMPRP ELECT VDW BOUNDARY MISC KINETIC TOTAL TEMP POTENTIAL TOTAL3 TEMPAVG PRESSURE GPRESSURE VOLUME PRESSAVG GPRESSAVG
ENERGY: 0 3.5478 56.3241 9.3934 0.0000 -16757.3685 1866.7212 0.0000 0.0000 0.0000 -14821.3819 0.0000 -14821.3819 -14821.3819 0.0000 11236.2763 -16042.2239 73561.2687 11236.2763 -16042.2239
ENERGY: 400 3.1787 54.5194 9.5869 0.0000 -22649.1265 3240.9012 0.0000 0.0000 0.0000 -19340.9404 0.0000 -19340.9404 -19340.9404 0.0000 15794.5757 15930.8164 73561.2687 15794.5757 15930.8164
ENERGY: 800 2.2864 54.4992 9.5596 0.0000 -23683.8185 3761.1141 0.0000 0.0000 0.0000 -19856.3592 0.0000 -19856.3592 -19856.3592 0.0000 17918.6942 18035.8659 73561.2687 17918.6942 18035.8659
ENERGY: 1200 1.1168 54.7145 9.5362 0.0000 -24151.3864 3956.2938 0.0000 0.0000 0.0000 -20129.7251 0.0000 -20129.7251 -20129.7251 0.0000 18787.7581 18891.7094 73561.2687 18787.7581 18891.7094
ENERGY: 1600 1.8894 53.7575 9.5563 0.0000 -24417.0337 4075.1766 0.0000 0.0000 0.0000 -20276.6538 0.0000 -20276.6538 -20276.6538 0.0000 19339.3366 19442.2128 73561.2687 19339.3366 19442.2128
ENERGY: 2000 1.1864 54.3237 9.5321 0.0000 -24552.5718 4136.7317 0.0000 0.0000 0.0000 -20350.7979 0.0000 -20350.7979 -20350.7979 0.0000 19645.4633 19745.5490 73561.2687 19645.4633 19745.5490
TCL: Exiting due to exit command.
Info: NAMD 3.0.1 for Linux-x86_64-multicore
Info: Please visit http://www.ks.uiuc.edu/Research/namd/
Info: for updates, documentation, and support information.
Info: Please cite Phillips et al., J. Chem. Phys. 153:044130 (2020) doi:10.1063/5.0014475
Info: in all publications reporting results obtained with NAMD.
Info: Based on Charm++/Converse 80000 for multicore-linux-x86_64-gcc
Info: Built Mon Oct 14 11:11:06 CDT 2024 by dhardy on athine.ks.uiuc.edu
Info: 1 NAMD  3.0.1  Linux-x86_64-multicore  16    k005  z5358697
Info: Running on 16 processors, 1 nodes, 1 physical nodes.
Info: CPU topology information available.
Info: Charm++/Converse parallel runtime startup completed at 0.0101051 s
Info: 1043.45 MB of memory in use based on /proc/self/stat
Info: Configuration file is mobley_468867_equil.namd
Info: Working in the current directory /srv/scratch/z5358697/prod_prep_5/468867
TCL: Running 25000 steps at 30 kelvin.
TCL: Suspending until startup complete.
Info: SIMULATION PARAMETERS:
Info: TIMESTEP               2
Info: NUMBER OF STEPS        0
Info: STEPS PER CYCLE        10
Info: PERIODIC CELL BASIS 1  41.545 0 0
Info: PERIODIC CELL BASIS 2  0 42.118 0
Info: PERIODIC CELL BASIS 3  0 0 42.04
Info: PERIODIC CELL CENTER   0 0 0
Info: WRAPPING WATERS AROUND PERIODIC BOUNDARIES ON OUTPUT.
Info: WRAPPING ALL CLUSTERS AROUND PERIODIC BOUNDARIES ON OUTPUT.
Info: FIRST LDB TIMESTEP     50
Info: LAST LDB TIMESTEP     -1
Info: HOM BACKGROUND SCALING 1
Info: PME BACKGROUND SCALING 1
Info: MIN ATOMS PER PATCH    40
Info: EMPTY PATCH LOAD       40 ATOMS
Info: INITIAL TEMPERATURE    300
Info: CENTER OF MASS MOVING INITIALLY? NO
Info: DIELECTRIC             1
Info: EXCLUDE                SCALED ONE-FOUR
Info: 1-4 ELECTROSTATICS SCALED BY 0.833333
Info: MODIFIED 1-4 VDW PARAMETERS WILL BE USED
Info: DCD FILENAME           mobley_468867_equil.dcd
Info: DCD FREQUENCY          5000
Info: DCD FIRST STEP         5000
Info: DCD FILE WILL CONTAIN UNIT CELL DATA
Info: XST FILENAME           mobley_468867_equil.xst
Info: XST FREQUENCY          5000
Info: NO VELOCITY DCD OUTPUT
Info: NO FORCE DCD OUTPUT
Info: OUTPUT FILENAME        mobley_468867_equil
Info: BINARY OUTPUT FILES WILL BE USED
Info: RESTART FILENAME       mobley_468867_equil.restart
Info: RESTART FREQUENCY      5000
Info: BINARY RESTART FILES WILL BE USED
Info: CUTOFF                 9
Info: PAIRLIST DISTANCE      11
Info: PAIRLIST SHRINK RATE   0.01
Info: PAIRLIST GROW RATE     0.01
Info: PAIRLIST TRIGGER       0.3
Info: PAIRLISTS PER CYCLE    2
Info: PAIRLISTS ENABLED
Info: MARGIN                 8
Info: HYDROGEN GROUP CUTOFF  2.5
Info: PATCH DIMENSION        21.5
Info: ENERGY OUTPUT STEPS    5000
Info: ENERGY EVALUATION STEPS    5000
Info: OUTPUT ENERGY PRECISION 4
Info: CROSSTERM ENERGY INCLUDED IN DIHEDRAL
Info: TIMING OUTPUT STEPS    50000
Info: PRESSURE OUTPUT STEPS  5000
Info: LANGEVIN DYNAMICS ACTIVE
Info: LANGEVIN TEMPERATURE   30
Info: LANGEVIN USING BBK INTEGRATOR
Info: LANGEVIN DAMPING COEFFICIENT IS 1 INVERSE PS
Info: LANGEVIN DYNAMICS APPLIED TO HYDROGENS
Info: LANGEVIN PISTON PRESSURE CONTROL ACTIVE
Info:        TARGET PRESSURE IS 1.01325 BAR
Info:     OSCILLATION PERIOD IS 50 FS
Info:             DECAY TIME IS 25 FS
Info:     PISTON TEMPERATURE IS 300 K
Info:       PRESSURE CONTROL IS GROUP-BASED
Info:    INITIAL STRAIN RATE IS 0 0 0
Info:       CELL FLUCTUATION IS ISOTROPIC
Info: PARTICLE MESH EWALD (PME) ACTIVE
Info: PME TOLERANCE               1e-06
Info: PME EWALD COEFFICIENT       0.348832
Info: PME INTERPOLATION ORDER     4
Info: PME GRID DIMENSIONS         44 44 44
Info: PME MAXIMUM GRID SPACING    1
Info: FULL ELECTROSTATIC EVALUATION FREQUENCY      2
Info: USING VERLET I (r-RESPA) MTS SCHEME.
Info: C1 SPLITTING OF LONG RANGE ELECTROSTATICS
Info: PLACING ATOMS IN PATCHES BY HYDROGEN GROUPS
Info: RIGID BONDS TO HYDROGEN : ALL
Info:         ERROR TOLERANCE : 1e-08
Info:          MAX ITERATIONS : 100
Info: RIGID WATER USING SETTLE ALGORITHM
Info: RANDOM NUMBER SEED     1741335663
Info: USE HYDROGEN BONDS?    NO
Info: Using AMBER format force field!
Info: AMBER PARM FILE        mobley_468867.prmtop
Info: COORDINATE PDB         mobley_468867.pdb
Info: Exclusions will be read from PARM file!
Info: SCNB (VDW SCALING)     2
Info: USING ARITHMETIC MEAN TO COMBINE L-J SIGMA PARAMETERS
Info: BINARY COORDINATES     mobley_468867_min.coor
Info: SUMMARY OF PARAMETERS:
Info: 10 BONDS
Info: 15 ANGLES
Info:   15 HARMONIC
Info:   0 COSINE-BASED
Info: 12 DIHEDRAL
Info: 0 IMPROPER
Info: 0 CROSSTERM
Info: 0 VDW
Info: 36 VDW_PAIRS
Info: 0 NBTHOLE_PAIRS
Info: STRUCTURE SUMMARY:
Info: 5374 ATOMS
Info: 5376 BONDS
Info: 48 ANGLES
Info: 90 DIHEDRALS
Info: 0 IMPROPERS
Info: 0 CROSSTERMS
Info: 5493 EXCLUSIONS
Info: 5357 RIGID BONDS
Info: 10765 DEGREES OF FREEDOM
Info: 1801 HYDROGEN GROUPS
Info: 3 ATOMS IN LARGEST HYDROGEN GROUP
Info: 1801 MIGRATION GROUPS
Info: 3 ATOMS IN LARGEST MIGRATION GROUP
Info: TOTAL MASS = 32513.8 amu
Info: TOTAL CHARGE = 9.99968e-05 e
Info: MASS DENSITY = 0.73397 g/cm^3
Info: ATOM DENSITY = 0.0730547 atoms/A^3
Info: ADDED 0 IMPLICIT EXCLUSIONS
Info: NONBONDED TABLE R-SQUARED SPACING: 0.0625
Info: NONBONDED TABLE SIZE: 705 POINTS
Info: REMOVING COM VELOCITY -0.132432 0.0148859 -0.0242216
TCL: Running for 25000 steps
ETITLE: TS BOND ANGLE DIHED IMPRP ELECT VDW BOUNDARY MISC KINETIC TOTAL TEMP POTENTIAL TOTAL3 TEMPAVG PRESSURE GPRESSURE VOLUME PRESSAVG GPRESSAVG
ENERGY: 0 1.1864 54.3237 9.5321 0.0000 -24552.5718 4136.7317 0.0000 0.0000 3204.6179 -17146.1799 299.6075 -20350.7979 -17145.5544 299.6075 -273.0751 -227.0291 73561.2687 -273.0751 -227.0291
ENERGY: 5000 1.7399 55.0951 9.7252 0.0000 -25787.8344 4515.7281 0.0000 0.0000 331.1005 -20874.4457 30.9554 -21205.5462 -20873.4046 47.3530 150.0392 220.3807 53120.3091 2.7663 2.6258
ENERGY: 10000 2.0437 54.4102 9.7881 0.0000 -25817.4863 4501.3426 0.0000 0.0000 313.6644 -20936.2373 29.3252 -21249.9017 -20935.1046 30.0781 52.1994 106.2352 52976.9148 3.0333 2.8427
ENERGY: 15000 0.9676 55.0229 9.8328 0.0000 -25895.3746 4573.8401 0.0000 0.0000 319.9184 -20935.7928 29.9099 -21255.7112 -20934.8445 30.0738 399.1597 458.0760 53003.5845 5.6191 5.7988
ENERGY: 20000 1.4562 54.8415 9.5040 0.0000 -25927.0195 4594.0182 0.0000 0.0000 315.1950 -20952.0047 29.4683 -21267.1997 -20951.1474 29.7977 475.0177 539.7977 52974.5268 3.2624 3.1636
ENERGY: 25000 1.8076 55.2047 9.5976 0.0000 -25900.0061 4547.3795 0.0000 0.0000 316.4936 -20969.5231 29.5897 -21286.0167 -20968.4606 29.8474 198.2088 246.9945 53002.3922 1.0917 1.0182
TCL: Running 25000 steps at 60 kelvin.
TCL: Setting parameter langevinTemp to 60
TCL: Running for 25000 steps
ETITLE: TS BOND ANGLE DIHED IMPRP ELECT VDW BOUNDARY MISC KINETIC TOTAL TEMP POTENTIAL TOTAL3 TEMPAVG PRESSURE GPRESSURE VOLUME PRESSAVG GPRESSAVG
ENERGY: 25000 1.8076 55.2047 9.5976 0.0000 -25900.0061 4547.3795 0.0000 0.0000 316.3329 -20969.6838 29.5747 -21286.0167 -20969.0677 29.5747 183.7985 247.1987 53002.3922 183.7985 247.1987
ENERGY: 30000 2.8072 56.2434 9.8020 0.0000 -25423.7392 4379.0842 0.0000 0.0000 647.4840 -20328.3183 60.5348 -20975.8023 -20327.1532 57.4853 34.2156 85.3673 53254.6241 4.2149 4.2396
ENERGY: 35000 1.7824 55.5877 9.6528 0.0000 -25462.0850 4366.2166 0.0000 0.0000 653.1243 -20375.7211 61.0622 -21028.8455 -20373.7248 60.4684 -125.6412 -47.1840 53119.1767 5.6494 5.8760
ENERGY: 40000 2.5797 56.0160 9.9054 0.0000 -25356.6617 4268.4494 0.0000 0.0000 636.2551 -20383.4561 59.4850 -21019.7112 -20381.9732 60.1717 -549.2858 -486.1438 53147.1805 2.5025 2.3125
ENERGY: 45000 1.6425 56.4978 9.9861 0.0000 -25520.7689 4417.7881 0.0000 0.0000 626.7950 -20408.0594 58.6006 -21034.8544 -20406.7220 60.0530 178.8714 246.7843 52830.3781 -2.6400 -2.2779
ENERGY: 50000 1.7812 56.4474 9.7231 0.0000 -25642.7128 4512.7770 0.0000 0.0000 627.4358 -20434.5484 58.6605 -21061.9842 -20432.9955 59.8798 588.0277 662.1029 52588.3593 6.4420 6.8873
TCL: Running 25000 steps at 90 kelvin.
TCL: Setting parameter langevinTemp to 90
TCL: Running for 25000 steps
ETITLE: TS BOND ANGLE DIHED IMPRP ELECT VDW BOUNDARY MISC KINETIC TOTAL TEMP POTENTIAL TOTAL3 TEMPAVG PRESSURE GPRESSURE VOLUME PRESSAVG GPRESSAVG
ENERGY: 50000 1.7812 56.4474 9.7231 0.0000 -25642.7128 4512.7770 0.0000 0.0000 627.1206 -20434.8636 58.6310 -21061.9842 -20433.6492 58.6310 598.1392 661.9230 52588.3593 598.1392 661.9230
ENERGY: 55000 2.9066 56.6823 9.7883 0.0000 -25029.3616 4223.5582 0.0000 0.0000 958.5253 -19777.9010 89.6148 -20736.4263 -19776.2467 87.1502 -25.6671 47.4650 52873.9722 -0.4679 -0.6324
ENERGY: 60000 2.3215 55.7603 9.8025 0.0000 -25007.0013 4186.6718 0.0000 0.0000 959.2623 -19793.1830 89.6837 -20752.4453 -19790.7654 89.5130 -246.0605 -178.2041 52881.2995 3.2806 3.2962
ENERGY: 65000 3.0323 58.5894 10.2012 0.0000 -25033.4801 4153.2781 0.0000 0.0000 954.1500 -19854.2290 89.2058 -20808.3790 -19851.8302 90.2374 -500.8715 -441.2790 52888.0157 1.0901 1.3567
ENERGY: 70000 1.9752 56.4194 10.5733 0.0000 -25133.5780 4232.6535 0.0000 0.0000 979.5929 -19852.3638 91.5845 -20831.9567 -19849.7865 90.1692 -138.1568 -79.9524 52849.8136 2.9471 2.8444
ENERGY: 75000 1.1991 58.0825 9.7668 0.0000 -25058.8893 4156.8001 0.0000 0.0000 946.7802 -19886.2606 88.5168 -20833.0408 -19883.1818 89.8521 -529.8291 -485.2411 52909.7881 6.9461 6.8755
TCL: Running 25000 steps at 120 kelvin.
TCL: Setting parameter langevinTemp to 120
TCL: Running for 25000 steps
ETITLE: TS BOND ANGLE DIHED IMPRP ELECT VDW BOUNDARY MISC KINETIC TOTAL TEMP POTENTIAL TOTAL3 TEMPAVG PRESSURE GPRESSURE VOLUME PRESSAVG GPRESSAVG
ENERGY: 75000 1.1991 58.0825 9.7668 0.0000 -25058.8893 4156.8001 0.0000 0.0000 946.3065 -19886.7343 88.4725 -20833.0408 -19885.0819 88.4725 -533.6515 -484.8389 52909.7881 -533.6515 -484.8389
ENERGY: 80000 4.6390 57.5543 10.6227 0.0000 -24505.9950 3973.0408 0.0000 0.0000 1320.2355 -19139.9027 123.4320 -20460.1382 -19136.6573 117.2523 -632.3860 -580.6397 53075.4404 0.0349 -0.0235
ENERGY: 85000 4.0895 57.5565 10.2664 0.0000 -24653.0761 4045.1201 0.0000 0.0000 1268.4753 -19267.5683 118.5928 -20536.0435 -19264.9265 120.2602 -419.5631 -365.8759 52965.8235 -1.8581 -1.8336
ENERGY: 90000 4.2893 59.1974 10.6692 0.0000 -24822.5749 4159.1628 0.0000 0.0000 1265.1132 -19324.1429 118.2785 -20589.2562 -19321.6967 119.7913 58.0683 121.7350 52651.2133 1.7779 1.7803
ENERGY: 95000 4.2949 57.0141 11.8484 0.0000 -24805.9566 4110.3440 0.0000 0.0000 1251.4512 -19371.0039 117.0012 -20622.4551 -19368.1854 119.7442 -226.4850 -184.8070 52570.8566 1.9998 2.0236
ENERGY: 100000 7.1631 55.5391 10.2964 0.0000 -24653.4170 3943.6295 0.0000 0.0000 1283.3646 -19353.4244 119.9848 -20636.7889 -19350.2911 119.1027 -1054.0938 -1011.2917 52732.5649 7.2837 7.1087
TCL: Running 25000 steps at 150 kelvin.
TCL: Setting parameter langevinTemp to 150
TCL: Running for 25000 steps
ETITLE: TS BOND ANGLE DIHED IMPRP ELECT VDW BOUNDARY MISC KINETIC TOTAL TEMP POTENTIAL TOTAL3 TEMPAVG PRESSURE GPRESSURE VOLUME PRESSAVG GPRESSAVG
ENERGY: 100000 7.1631 55.5391 10.2964 0.0000 -24653.4170 3943.6295 0.0000 0.0000 1282.7274 -19354.0615 119.9253 -20636.7889 -19351.6783 119.9253 -1075.1746 -1011.4328 52732.5649 -1075.1746 -1011.4328
ENERGY: 105000 2.1000 57.9904 11.2247 0.0000 -24198.7281 3923.8770 0.0000 0.0000 1586.0007 -18617.5353 148.2790 -20203.5360 -18612.9662 146.3392 -170.4425 -134.6836 52877.7536 0.9271 0.8019
ENERGY: 110000 4.1932 56.3649 11.2427 0.0000 -24458.9376 4124.2324 0.0000 0.0000 1616.1987 -18646.7057 151.1023 -20262.9044 -18643.5169 149.1680 667.8371 710.3702 52471.9459 2.5156 2.3828
ENERGY: 115000 3.3989 59.0866 10.6468 0.0000 -24316.0424 3932.3589 0.0000 0.0000 1612.7872 -18697.7641 150.7834 -20310.5513 -18692.3688 150.3594 -359.5251 -318.6831 52622.8145 3.3603 3.7694
ENERGY: 120000 5.3786 57.6668 10.0225 0.0000 -24324.9309 3936.0489 0.0000 0.0000 1596.1795 -18719.6347 149.2307 -20315.8142 -18716.3510 149.7156 -508.2430 -423.5909 52857.9771 -2.4593 -2.6667
ENERGY: 125000 5.9152 57.0381 10.2289 0.0000 -24463.3332 4093.6825 0.0000 0.0000 1604.4760 -18691.9924 150.0063 -20296.4684 -18687.8426 149.3222 276.1253 302.4430 52690.7228 3.0833 3.2307
TCL: Running 50000 steps at 180 kelvin.
TCL: Setting parameter langevinTemp to 180
TCL: Running for 50000 steps
ETITLE: TS BOND ANGLE DIHED IMPRP ELECT VDW BOUNDARY MISC KINETIC TOTAL TEMP POTENTIAL TOTAL3 TEMPAVG PRESSURE GPRESSURE VOLUME PRESSAVG GPRESSAVG
ENERGY: 125000 5.9152 57.0381 10.2289 0.0000 -24463.3332 4093.6825 0.0000 0.0000 1603.6906 -18692.7778 149.9329 -20296.4684 -18689.9800 149.9329 244.0767 302.3819 52690.7228 244.0767 302.3819
ENERGY: 135000 3.2364 57.2544 10.1444 0.0000 -23626.8770 3782.0035 0.0000 0.0000 1940.0949 -17834.1433 181.3841 -19774.2382 -17829.1578 179.6757 -27.8064 39.8203 52669.2910 -3.4955 -3.6335
ENERGY: 145000 7.3716 58.5157 11.6484 0.0000 -23599.4510 3676.0215 0.0000 0.0000 1884.3752 -17961.5186 176.1748 -19845.8938 -17956.7038 178.8375 -648.0748 -592.5768 52618.3614 5.1148 5.2628
ENERGY: 155000 4.2247 60.8366 10.1904 0.0000 -23869.1032 3860.5509 0.0000 0.0000 1899.2003 -18034.1003 177.5608 -19933.3006 -18030.2614 180.2483 133.8945 171.6103 52555.4888 2.0703 2.2441
ENERGY: 165000 5.1608 58.0275 11.8875 0.0000 -23962.7319 3930.5521 0.0000 0.0000 1928.5368 -18028.5673 180.3035 -19957.1040 -18023.0716 179.7645 182.4892 223.3648 52869.5778 1.4128 1.3653
ENERGY: 175000 3.3380 60.8093 9.6029 0.0000 -23990.9661 3968.7043 0.0000 0.0000 1947.1893 -18001.3223 182.0474 -19948.5116 -17997.2717 179.7688 466.0515 550.3322 52760.0458 6.5119 6.3773
TCL: Running 50000 steps at 210 kelvin.
TCL: Setting parameter langevinTemp to 210
TCL: Running for 50000 steps
ETITLE: TS BOND ANGLE DIHED IMPRP ELECT VDW BOUNDARY MISC KINETIC TOTAL TEMP POTENTIAL TOTAL3 TEMPAVG PRESSURE GPRESSURE VOLUME PRESSAVG GPRESSAVG
ENERGY: 175000 3.3380 60.8093 9.6029 0.0000 -23990.9661 3968.7043 0.0000 0.0000 1946.2720 -18002.2396 181.9617 -19948.5116 -17998.6624 181.9617 482.9825 549.6799 52760.0458 482.9825 549.6799
ENERGY: 185000 4.9873 62.9109 12.5708 0.0000 -22855.4116 3667.4172 0.0000 0.0000 2201.5093 -16906.0162 205.8244 -19107.5254 -16900.3802 207.7449 891.0213 1000.8102 52428.2663 3.8384 4.3179
ENERGY: 195000 2.5737 60.6882 10.8663 0.0000 -22789.0331 3550.5327 0.0000 0.0000 2215.9154 -16948.4569 207.1713 -19164.3723 -16942.6847 208.5767 342.6929 434.5219 52275.5276 5.4591 5.2709
ENERGY: 205000 4.3595 59.0046 10.1284 0.0000 -22559.6593 3384.8250 0.0000 0.0000 2270.1798 -16831.1620 212.2446 -19101.3419 -16826.8196 209.4825 -188.8298 -134.5037 51850.8098 5.6128 5.4839
ENERGY: 215000 1.4655 62.2300 11.2653 0.0000 -22698.0307 3505.6772 0.0000 0.0000 2283.1965 -16834.1961 213.4615 -19117.3926 -16829.8222 209.7797 376.8039 458.4938 52185.4791 -4.0268 -3.8201
ENERGY: 225000 4.9261 59.7510 11.0808 0.0000 -22688.0219 3500.3271 0.0000 0.0000 2204.5907 -16907.3462 206.1125 -19111.9369 -16902.7763 209.7076 213.8090 259.6655 52623.3375 2.8883 2.3214
TCL: Running 50000 steps at 240 kelvin.
TCL: Setting parameter langevinTemp to 240
TCL: Running for 50000 steps
ETITLE: TS BOND ANGLE DIHED IMPRP ELECT VDW BOUNDARY MISC KINETIC TOTAL TEMP POTENTIAL TOTAL3 TEMPAVG PRESSURE GPRESSURE VOLUME PRESSAVG GPRESSAVG
ENERGY: 225000 4.9261 59.7510 11.0808 0.0000 -22688.0219 3500.3271 0.0000 0.0000 2203.4729 -16908.4641 206.0080 -19111.9369 -16905.1700 206.0080 179.2004 259.5464 52623.3375 179.2004 259.5464
ENERGY: 235000 5.3438 62.1383 11.7036 0.0000 -21319.6272 3006.1990 0.0000 0.0000 2614.2448 -15619.9977 244.4120 -18234.2425 -15615.1643 239.5409 -438.2940 -344.7592 53234.4310 4.3654 4.7589
ENERGY: 245000 3.3882 60.5904 11.9390 0.0000 -21430.4720 3051.5489 0.0000 0.0000 2522.8163 -15780.1892 235.8642 -18303.0055 -15776.2960 239.1687 -363.1070 -259.6371 53271.2633 6.0584 6.2830
ENERGY: 255000 6.0366 58.9683 11.1907 0.0000 -21518.1752 3122.6987 0.0000 0.0000 2530.3028 -15788.9781 236.5641 -18319.2809 -15784.4890 239.6621 -109.1662 -62.4577 53260.1417 4.4840 4.1218
ENERGY: 265000 5.1817 60.6937 10.9261 0.0000 -21150.1479 2876.0835 0.0000 0.0000 2646.3999 -15550.8629 247.4183 -18197.2628 -15545.4424 242.0126 -1123.7827 -1048.2542 53761.0826 4.8260 5.3919
ENERGY: 275000 5.1107 59.3163 10.7829 0.0000 -21571.5176 3181.4977 0.0000 0.0000 2563.1911 -15751.6189 239.6389 -18314.8100 -15747.7622 239.1205 247.4599 318.9606 52717.3424 2.9925 2.0800
TCL: Running 50000 steps at 270 kelvin.
TCL: Setting parameter langevinTemp to 270
TCL: Running for 50000 steps
ETITLE: TS BOND ANGLE DIHED IMPRP ELECT VDW BOUNDARY MISC KINETIC TOTAL TEMP POTENTIAL TOTAL3 TEMPAVG PRESSURE GPRESSURE VOLUME PRESSAVG GPRESSAVG
ENERGY: 275000 5.1107 59.3163 10.7829 0.0000 -21571.5176 3181.4977 0.0000 0.0000 2561.9408 -15752.8692 239.5220 -18314.8100 -15748.8598 239.5220 249.0303 317.8819 52717.3424 249.0303 317.8819
ENERGY: 285000 7.1313 60.2554 11.1817 0.0000 -20499.0224 2841.7144 0.0000 0.0000 2882.7663 -14695.9734 269.5168 -17578.7397 -14689.7802 269.4329 -88.8273 -35.0310 54046.7448 1.8729 1.9720
ENERGY: 295000 3.7530 61.0813 11.7341 0.0000 -20463.7683 2862.7090 0.0000 0.0000 2827.6757 -14696.8151 264.3662 -17524.4909 -14689.1930 269.9208 -37.6056 15.5835 54392.0007 3.6832 3.4558
ENERGY: 305000 7.7714 62.3993 11.2115 0.0000 -20263.8130 2785.0993 0.0000 0.0000 2926.5679 -14470.7635 273.6119 -17397.3314 -14463.8487 269.1534 2.1425 27.9781 54306.0434 -0.7801 -1.0121
ENERGY: 315000 5.0499 63.6124 10.1274 0.0000 -20607.7984 2974.3642 0.0000 0.0000 2919.8829 -14634.7616 272.9869 -17554.6445 -14625.5831 271.5861 446.6895 568.7054 54098.5527 0.5062 0.7117
ENERGY: 325000 4.0683 63.4809 12.0215 0.0000 -20429.0741 2790.4373 0.0000 0.0000 2934.0099 -14625.0561 274.3077 -17559.0660 -14618.5536 271.6548 -267.0034 -232.8747 54103.1705 -1.8423 -1.6957
TCL: Running 1000000 steps at 300 kelvin.
TCL: Setting parameter langevinTemp to 300
TCL: Running for 1000000 steps
ETITLE: TS BOND ANGLE DIHED IMPRP ELECT VDW BOUNDARY MISC KINETIC TOTAL TEMP POTENTIAL TOTAL3 TEMPAVG PRESSURE GPRESSURE VOLUME PRESSAVG GPRESSAVG
ENERGY: 325000 4.0683 63.4809 12.0215 0.0000 -20429.0741 2790.4373 0.0000 0.0000 2932.5549 -14626.5111 274.1716 -17559.0660 -14622.1265 274.1716 -311.6268 -232.2816 54103.1705 -311.6268 -232.2816
ENERGY: 525000 4.3277 62.7043 10.5724 0.0000 -19317.3193 2552.2524 0.0000 0.0000 3250.1823 -13437.2802 303.8674 -16687.4626 -13426.1348 297.4805 -244.4666 -193.0123 55956.3329 -0.5968 -0.2145
ENERGY: 725000 3.8903 60.2628 12.7540 0.0000 -19367.2144 2575.7133 0.0000 0.0000 3165.8241 -13548.7698 295.9805 -16714.5940 -13542.3144 300.2112 112.8519 168.3040 55208.1062 1.2414 1.5924
ENERGY: 925000 5.0233 62.7466 11.2529 0.0000 -19598.2898 2605.5350 0.0000 0.0000 3176.8663 -13736.8657 297.0129 -16913.7320 -13729.0012 300.9607 -202.3889 -101.3142 55336.4853 -1.2835 -1.2133
ENERGY: 1125000 4.6457 63.4549 12.4727 0.0000 -19682.3793 2765.1046 0.0000 0.0000 3121.3455 -13715.3559 291.8221 -16836.7014 -13707.9897 300.2336 657.7862 713.1427 55098.7438 0.1522 -0.1347
ENERGY: 1325000 3.8728 61.2570 11.2907 0.0000 -19616.4804 2699.0319 0.0000 0.0000 3238.8113 -13602.2166 302.8043 -16841.0279 -13596.1914 300.4988 479.7842 596.7010 55127.6730 2.1433 1.5453
TCL: Exiting due to exit command.
