Info: SIMULATION PARAMETERS:
Info: TIMESTEP               2
Info: NUMBER OF STEPS        0
Info: STEPS PER CYCLE        10
Info: PERIODIC CELL BASIS 1  35.89 0 0
Info: PERIODIC CELL BASIS 2  0 35.411 0
Info: PERIODIC CELL BASIS 3  0 0 35.644
Info: PERIODIC CELL CENTER   0 0 0
Info: WRAPPING WATERS AROUND PERIODIC BOUNDARIES ON OUTPUT.
Info: WRAPPING ALL CLUSTERS AROUND PERIODIC BOUNDARIES ON OUTPUT.
Info: FIRST LDB TIMESTEP     50
Info: LAST LDB TIMESTEP     -1
Info: HOM BACKGROUND SCALING 1
Info: PME BACKGROUND SCALING 1
Info: MIN ATOMS PER PATCH    40
Info: EMPTY PATCH LOAD       40 ATOMS
Info: INITIAL TEMPERATURE    300
Info: CENTER OF MASS MOVING INITIALLY? NO
Info: DIELECTRIC             1
Info: EXCLUDE                SCALED ONE-FOUR
Info: 1-4 ELECTROSTATICS SCALED BY 0.833333
Info: MODIFIED 1-4 VDW PARAMETERS WILL BE USED
Info: DCD FILENAME           mobley_2481002_equil.dcd
Info: DCD FREQUENCY          100000
Info: DCD FIRST STEP         100000
Info: DCD FILE WILL CONTAIN UNIT CELL DATA
Info: XST FILENAME           mobley_2481002_equil.xst
Info: XST FREQUENCY          100000
Info: NO VELOCITY DCD OUTPUT
Info: NO FORCE DCD OUTPUT
Info: OUTPUT FILENAME        mobley_2481002_equil
Info: BINARY OUTPUT FILES WILL BE USED
Info: RESTART FILENAME       mobley_2481002_equil.restart
Info: RESTART FREQUENCY      100000
Info: BINARY RESTART FILES WILL BE USED
Info: CUTOFF                 9
Info: PAIRLIST DISTANCE      11
Info: PAIRLIST SHRINK RATE   0.01
Info: PAIRLIST GROW RATE     0.01
Info: PAIRLIST TRIGGER       0.3
Info: PAIRLISTS PER CYCLE    2
Info: PAIRLISTS ENABLED
Info: MARGIN                 8
Info: HYDROGEN GROUP CUTOFF  2.5
Info: PATCH DIMENSION        21.5
Info: ENERGY OUTPUT STEPS    100000
Info: ENERGY EVALUATION STEPS    100000
Info: OUTPUT ENERGY PRECISION 4
Info: CROSSTERM ENERGY INCLUDED IN DIHEDRAL
Info: TIMING OUTPUT STEPS    1000000
Info: PRESSURE OUTPUT STEPS  100000
Info: FIXED ATOMS ACTIVE
Info: LANGEVIN DYNAMICS ACTIVE
Info: LANGEVIN TEMPERATURE   30
Info: LANGEVIN USING BBK INTEGRATOR
Info: LANGEVIN DAMPING COEFFICIENT IS 1 INVERSE PS
Info: LANGEVIN DYNAMICS APPLIED TO HYDROGENS
Info: LANGEVIN PISTON PRESSURE CONTROL ACTIVE
Info:        TARGET PRESSURE IS 1.01325 BAR
Info:     OSCILLATION PERIOD IS 50 FS
Info:             DECAY TIME IS 25 FS
Info:     PISTON TEMPERATURE IS 300 K
Info:       PRESSURE CONTROL IS GROUP-BASED
Info:    INITIAL STRAIN RATE IS 0 0 0
Info:       CELL FLUCTUATION IS ISOTROPIC
Info: PARTICLE MESH EWALD (PME) ACTIVE
Info: PME TOLERANCE               1e-06
Info: PME EWALD COEFFICIENT       0.348832
Info: PME INTERPOLATION ORDER     4
Info: PME GRID DIMENSIONS         36 36 36
Info: PME MAXIMUM GRID SPACING    1
Info: FULL ELECTROSTATIC EVALUATION FREQUENCY      2
Info: USING VERLET I (r-RESPA) MTS SCHEME.
Info: C1 SPLITTING OF LONG RANGE ELECTROSTATICS
Info: PLACING ATOMS IN PATCHES BY HYDROGEN GROUPS
Info: RIGID BONDS TO HYDROGEN : ALL
Info:         ERROR TOLERANCE : 1e-08
Info:          MAX ITERATIONS : 100
Info: RIGID WATER USING SETTLE ALGORITHM
Info: RANDOM NUMBER SEED     1741925383
Info: USE HYDROGEN BONDS?    NO
Info: Using AMBER format force field!
Info: AMBER PARM FILE        mobley_2481002.prmtop
Info: COORDINATE PDB         mobley_2481002.pdb
Info: Exclusions will be read from PARM file!
Info: SCNB (VDW SCALING)     2
Info: USING ARITHMETIC MEAN TO COMBINE L-J SIGMA PARAMETERS
Info: BINARY COORDINATES     mobley_2481002_min.coor
Info: SUMMARY OF PARAMETERS:
Info: 5 BONDS
Info: 4 ANGLES
Info:   4 HARMONIC
Info:   0 COSINE-BASED
Info: 1 DIHEDRAL
Info: 0 IMPROPER
Info: 0 CROSSTERM
Info: 0 VDW
Info: 21 VDW_PAIRS
Info: 0 NBTHOLE_PAIRS
Info: STRUCTURE SUMMARY:
Info: 2971 ATOMS
Info: 2970 BONDS
Info: 9 ANGLES
Info: 6 DIHEDRALS
Info: 0 IMPROPERS
Info: 0 CROSSTERMS
Info: 2985 EXCLUSIONS
Info: 7 FIXED ATOMS
Info: 2964 RIGID BONDS
Info: 0 RIGID BONDS BETWEEN FIXED ATOMS
Info: 5928 DEGREES OF FREEDOM
Info: 995 HYDROGEN GROUPS
Info: 3 ATOMS IN LARGEST HYDROGEN GROUP
Info: 995 MIGRATION GROUPS
Info: 3 ATOMS IN LARGEST MIGRATION GROUP
Info: 7 HYDROGEN GROUPS WITH ALL ATOMS FIXED
Info: TOTAL MASS = 17964.2 amu
Info: TOTAL CHARGE = 1.11759e-08 e
Info: MASS DENSITY = 0.658519 g/cm^3
Info: ATOM DENSITY = 0.065585 atoms/A^3
Info: ADDED 0 IMPLICIT EXCLUSIONS
Info: NONBONDED TABLE R-SQUARED SPACING: 0.0625
Info: NONBONDED TABLE SIZE: 705 POINTS
Info: REMOVING COM VELOCITY -0.0100389 -0.0558728 -0.0568415
TCL: Running for 100000 steps
ETITLE: TS BOND ANGLE DIHED IMPRP ELECT VDW BOUNDARY MISC KINETIC TOTAL TEMP POTENTIAL TOTAL3 TEMPAVG PRESSURE GPRESSURE VOLUME PRESSAVG GPRESSAVG
ENERGY: 0 0.0000 0.0000 0.0000 0.0000 -13813.0341 2459.5969 0.0000 0.0000 1770.9231 -9582.5142 300.6643 -11353.4372 -9582.1914 300.6643 615.4064 640.4978 45299.9878 615.4064 640.4978
ENERGY: 100000 0.0000 0.0000 0.0000 0.0000 -14470.9666 2644.7425 0.0000 0.0000 179.9143 -11646.3098 30.5455 -11826.2241 -11646.0886 30.9125 1233.4151 1299.3785 29372.7298 2.0612 2.0899
TCL: Running 100000 steps at 60 kelvin.
TCL: Setting parameter langevinTemp to 60
TCL: Running for 100000 steps
ETITLE: TS BOND ANGLE DIHED IMPRP ELECT VDW BOUNDARY MISC KINETIC TOTAL TEMP POTENTIAL TOTAL3 TEMPAVG PRESSURE GPRESSURE VOLUME PRESSAVG GPRESSAVG
ENERGY: 100000 0.0000 0.0000 0.0000 0.0000 -14470.9666 2644.7425 0.0000 0.0000 179.8269 -11646.3973 30.5307 -11826.2241 -11646.0686 30.5307 1237.0807 1299.2466 29372.7298 1237.0807 1299.2466
ENERGY: 200000 0.0000 0.0000 0.0000 0.0000 -14278.2968 2483.8178 0.0000 0.0000 354.4481 -11440.0308 60.1776 -11794.4790 -11439.6600 59.9529 61.0532 108.3133 29161.0603 5.0289 5.0680
TCL: Running 100000 steps at 90 kelvin.
TCL: Setting parameter langevinTemp to 90
TCL: Running for 100000 steps
ETITLE: TS BOND ANGLE DIHED IMPRP ELECT VDW BOUNDARY MISC KINETIC TOTAL TEMP POTENTIAL TOTAL3 TEMPAVG PRESSURE GPRESSURE VOLUME PRESSAVG GPRESSAVG
ENERGY: 200000 0.0000 0.0000 0.0000 0.0000 -14278.2968 2483.8178 0.0000 0.0000 354.2708 -11440.2082 60.1475 -11794.4790 -11439.5928 60.1475 59.7299 107.9431 29161.0603 59.7299 107.9431
ENERGY: 300000 0.0000 0.0000 0.0000 0.0000 -13995.0899 2267.2533 0.0000 0.0000 508.4913 -11219.3454 86.3308 -11727.8366 -11217.9224 90.0959 -1368.5150 -1316.0638 29129.3750 3.4944 3.4867
TCL: Running 100000 steps at 120 kelvin.
TCL: Setting parameter langevinTemp to 120
TCL: Running for 100000 steps
ETITLE: TS BOND ANGLE DIHED IMPRP ELECT VDW BOUNDARY MISC KINETIC TOTAL TEMP POTENTIAL TOTAL3 TEMPAVG PRESSURE GPRESSURE VOLUME PRESSAVG GPRESSAVG
ENERGY: 300000 0.0000 0.0000 0.0000 0.0000 -13995.0899 2267.2533 0.0000 0.0000 508.2298 -11219.6069 86.2864 -11727.8366 -11218.5825 86.2864 -1364.5842 -1315.8331 29129.3750 -1364.5842 -1315.8331
ENERGY: 400000 0.0000 0.0000 0.0000 0.0000 -14066.5958 2486.7255 0.0000 0.0000 719.7191 -10860.1512 122.1927 -11579.8703 -10858.7819 120.0035 1184.7323 1167.5295 28822.2972 4.2300 4.0147
TCL: Running 100000 steps at 150 kelvin.
TCL: Setting parameter langevinTemp to 150
TCL: Running for 100000 steps
ETITLE: TS BOND ANGLE DIHED IMPRP ELECT VDW BOUNDARY MISC KINETIC TOTAL TEMP POTENTIAL TOTAL3 TEMPAVG PRESSURE GPRESSURE VOLUME PRESSAVG GPRESSAVG
ENERGY: 400000 0.0000 0.0000 0.0000 0.0000 -14066.5958 2486.7255 0.0000 0.0000 719.3529 -10860.5174 122.1305 -11579.8703 -10859.3155 122.1305 1127.1891 1167.7859 28822.2972 1127.1891 1167.7859
ENERGY: 500000 0.0000 0.0000 0.0000 0.0000 -13720.9012 2307.8768 0.0000 0.0000 893.4047 -10519.6197 151.6807 -11413.0244 -10517.6662 150.3349 117.8049 180.9987 29251.6112 4.2287 4.2603
TCL: Running 100000 steps at 180 kelvin.
TCL: Setting parameter langevinTemp to 180
TCL: Running for 100000 steps
ETITLE: TS BOND ANGLE DIHED IMPRP ELECT VDW BOUNDARY MISC KINETIC TOTAL TEMP POTENTIAL TOTAL3 TEMPAVG PRESSURE GPRESSURE VOLUME PRESSAVG GPRESSAVG
ENERGY: 500000 0.0000 0.0000 0.0000 0.0000 -13720.9012 2307.8768 0.0000 0.0000 892.9732 -10520.0511 151.6075 -11413.0244 -10518.3811 151.6075 128.4806 181.2740 29251.6112 128.4806 181.2740
ENERGY: 600000 0.0000 0.0000 0.0000 0.0000 -13224.0578 2113.7435 0.0000 0.0000 1097.6761 -10012.6382 186.3616 -11110.3143 -10011.5645 179.6085 -170.8620 -135.3823 29050.1078 5.3705 5.4637
TCL: Running 100000 steps at 210 kelvin.
TCL: Setting parameter langevinTemp to 210
TCL: Running for 100000 steps
ETITLE: TS BOND ANGLE DIHED IMPRP ELECT VDW BOUNDARY MISC KINETIC TOTAL TEMP POTENTIAL TOTAL3 TEMPAVG PRESSURE GPRESSURE VOLUME PRESSAVG GPRESSAVG
ENERGY: 600000 0.0000 0.0000 0.0000 0.0000 -13224.0578 2113.7435 0.0000 0.0000 1097.1705 -10013.1438 186.2758 -11110.3143 -10010.9955 186.2758 -203.4758 -136.2325 29050.1078 -203.4758 -136.2325
ENERGY: 700000 0.0000 0.0000 0.0000 0.0000 -12396.1512 1820.2476 0.0000 0.0000 1249.3400 -9326.5635 212.1108 -10575.9036 -9323.5761 209.7067 -646.4831 -550.4827 29361.4106 2.7788 3.0518
TCL: Running 100000 steps at 240 kelvin.
TCL: Setting parameter langevinTemp to 240
TCL: Running for 100000 steps
ETITLE: TS BOND ANGLE DIHED IMPRP ELECT VDW BOUNDARY MISC KINETIC TOTAL TEMP POTENTIAL TOTAL3 TEMPAVG PRESSURE GPRESSURE VOLUME PRESSAVG GPRESSAVG
ENERGY: 700000 0.0000 0.0000 0.0000 0.0000 -12396.1512 1820.2476 0.0000 0.0000 1248.7102 -9327.1934 212.0039 -10575.9036 -9324.6997 212.0039 -636.9477 -550.4569 29361.4106 -636.9477 -550.4569
ENERGY: 800000 0.0000 0.0000 0.0000 0.0000 -12056.7899 1824.2741 0.0000 0.0000 1391.7680 -8840.7477 236.2920 -10232.5158 -8839.1533 239.7608 673.8351 717.5787 29066.8280 2.7191 2.6462
TCL: Running 100000 steps at 270 kelvin.
TCL: Setting parameter langevinTemp to 270
TCL: Running for 100000 steps
ETITLE: TS BOND ANGLE DIHED IMPRP ELECT VDW BOUNDARY MISC KINETIC TOTAL TEMP POTENTIAL TOTAL3 TEMPAVG PRESSURE GPRESSURE VOLUME PRESSAVG GPRESSAVG
ENERGY: 800000 0.0000 0.0000 0.0000 0.0000 -12056.7899 1824.2741 0.0000 0.0000 1391.0968 -8841.4190 236.1780 -10232.5158 -8839.2598 236.1780 642.7305 718.4423 29066.8280 642.7305 718.4423
ENERGY: 900000 0.0000 0.0000 0.0000 0.0000 -11394.7089 1630.7656 0.0000 0.0000 1577.7434 -8186.2000 267.8666 -9763.9434 -8183.5048 269.8672 473.9086 557.5423 29768.3938 3.5557 3.6583
TCL: Running 1000000 steps at 300 kelvin.
TCL: Setting parameter langevinTemp to 300
TCL: Running for 1000000 steps
ETITLE: TS BOND ANGLE DIHED IMPRP ELECT VDW BOUNDARY MISC KINETIC TOTAL TEMP POTENTIAL TOTAL3 TEMPAVG PRESSURE GPRESSURE VOLUME PRESSAVG GPRESSAVG
ENERGY: 900000 0.0000 0.0000 0.0000 0.0000 -11394.7089 1630.7656 0.0000 0.0000 1576.9411 -8187.0023 267.7304 -9763.9434 -8184.5603 267.7304 460.0101 556.1104 29768.3938 460.0101 556.1104
ENERGY: 1100000 0.0000 0.0000 0.0000 0.0000 -10926.2031 1522.0699 0.0000 0.0000 1790.6973 -7613.4359 304.0216 -9404.1332 -7611.9623 299.9544 353.7403 424.2630 30639.6080 1.3365 1.4289
ENERGY: 1300000 0.0000 0.0000 0.0000 0.0000 -10749.8234 1395.2755 0.0000 0.0000 1787.4103 -7567.1375 303.4635 -9354.5479 -7565.7105 300.0713 -547.3850 -464.0472 30906.3512 2.6424 2.8158
ENERGY: 1500000 0.0000 0.0000 0.0000 0.0000 -10675.8864 1396.8102 0.0000 0.0000 1766.6457 -7512.4305 299.9381 -9279.0761 -7508.1434 300.2410 -529.4429 -392.2047 31208.8114 4.1843 4.2505
ENERGY: 1700000 0.0000 0.0000 0.0000 0.0000 -10747.0624 1378.0260 0.0000 0.0000 1764.5407 -7604.4958 299.5807 -9369.0365 -7602.5092 300.4134 -579.2653 -484.4394 30671.2598 2.7096 2.6875
ENERGY: 1900000 0.0000 0.0000 0.0000 0.0000 -10615.9315 1336.8864 0.0000 0.0000 1752.9692 -7526.0759 297.6161 -9279.0450 -7522.2684 300.3951 -647.5205 -577.3785 30658.7620 3.0635 3.1220
TCL: Exiting due to exit command.
