Info: SIMULATION PARAMETERS:
Info: TIMESTEP               2
Info: NUMBER OF STEPS        0
Info: STEPS PER CYCLE        10
Info: PERIODIC CELL BASIS 1  40.176 0 0
Info: PERIODIC CELL BASIS 2  0 42.118 0
Info: PERIODIC CELL BASIS 3  0 0 42.851
Info: PERIODIC CELL CENTER   0 0 0
Info: WRAPPING WATERS AROUND PERIODIC BOUNDARIES ON OUTPUT.
Info: WRAPPING ALL CLUSTERS AROUND PERIODIC BOUNDARIES ON OUTPUT.
Info: FIRST LDB TIMESTEP     50
Info: LAST LDB TIMESTEP     -1
Info: HOM BACKGROUND SCALING 1
Info: PME BACKGROUND SCALING 1
Info: MIN ATOMS PER PATCH    40
Info: EMPTY PATCH LOAD       40 ATOMS
Info: INITIAL TEMPERATURE    300
Info: CENTER OF MASS MOVING INITIALLY? NO
Info: DIELECTRIC             1
Info: EXCLUDE                SCALED ONE-FOUR
Info: 1-4 ELECTROSTATICS SCALED BY 0.833333
Info: MODIFIED 1-4 VDW PARAMETERS WILL BE USED
Info: DCD FILENAME           mobley_8467917_min.dcd
Info: DCD FREQUENCY          5000
Info: DCD FIRST STEP         5000
Info: DCD FILE WILL CONTAIN UNIT CELL DATA
Info: XST FILENAME           mobley_8467917_min.xst
Info: XST FREQUENCY          5000
Info: NO VELOCITY DCD OUTPUT
Info: NO FORCE DCD OUTPUT
Info: OUTPUT FILENAME        mobley_8467917_min
Info: BINARY OUTPUT FILES WILL BE USED
Info: RESTART FILENAME       mobley_8467917_min.restart
Info: RESTART FREQUENCY      5000
Info: BINARY RESTART FILES WILL BE USED
Info: CUTOFF                 9
Info: PAIRLIST DISTANCE      11
Info: PAIRLIST SHRINK RATE   0.01
Info: PAIRLIST GROW RATE     0.01
Info: PAIRLIST TRIGGER       0.3
Info: PAIRLISTS PER CYCLE    2
Info: PAIRLISTS ENABLED
Info: MARGIN                 8
Info: HYDROGEN GROUP CUTOFF  2.5
Info: PATCH DIMENSION        21.5
Info: ENERGY OUTPUT STEPS    5000
Info: ENERGY EVALUATION STEPS    5000
Info: OUTPUT ENERGY PRECISION 4
Info: CROSSTERM ENERGY INCLUDED IN DIHEDRAL
Info: TIMING OUTPUT STEPS    50000
Info: PRESSURE OUTPUT STEPS  5000
Info: LANGEVIN DYNAMICS ACTIVE
Info: LANGEVIN TEMPERATURE   300
Info: LANGEVIN USING BBK INTEGRATOR
Info: LANGEVIN DAMPING COEFFICIENT IS 1 INVERSE PS
Info: LANGEVIN DYNAMICS APPLIED TO HYDROGENS
Info: LANGEVIN PISTON PRESSURE CONTROL ACTIVE
Info:        TARGET PRESSURE IS 1.01325 BAR
Info:     OSCILLATION PERIOD IS 50 FS
Info:             DECAY TIME IS 25 FS
Info:     PISTON TEMPERATURE IS 300 K
Info:       PRESSURE CONTROL IS GROUP-BASED
Info:    INITIAL STRAIN RATE IS 0 0 0
Info:       CELL FLUCTUATION IS ISOTROPIC
Info: PARTICLE MESH EWALD (PME) ACTIVE
Info: PME TOLERANCE               1e-06
Info: PME EWALD COEFFICIENT       0.348832
Info: PME INTERPOLATION ORDER     4
Info: PME GRID DIMENSIONS         44 44 44
Info: PME MAXIMUM GRID SPACING    1
Info: FULL ELECTROSTATIC EVALUATION FREQUENCY      2
Info: USING VERLET I (r-RESPA) MTS SCHEME.
Info: C1 SPLITTING OF LONG RANGE ELECTROSTATICS
Info: PLACING ATOMS IN PATCHES BY HYDROGEN GROUPS
Info: RIGID BONDS TO HYDROGEN : ALL
Info:         ERROR TOLERANCE : 1e-08
Info:          MAX ITERATIONS : 100
Info: RIGID WATER USING SETTLE ALGORITHM
Info: RANDOM NUMBER SEED     1741407790
Info: USE HYDROGEN BONDS?    NO
Info: Using AMBER format force field!
Info: AMBER PARM FILE        mobley_8467917.prmtop
Info: COORDINATE PDB         mobley_8467917.pdb
Info: Exclusions will be read from PARM file!
Info: SCNB (VDW SCALING)     2
Info: USING ARITHMETIC MEAN TO COMBINE L-J SIGMA PARAMETERS
Info: SUMMARY OF PARAMETERS:
Info: 7 BONDS
Info: 8 ANGLES
Info:   8 HARMONIC
Info:   0 COSINE-BASED
Info: 10 DIHEDRAL
Info: 0 IMPROPER
Info: 0 CROSSTERM
Info: 0 VDW
Info: 21 VDW_PAIRS
Info: 0 NBTHOLE_PAIRS
Info: STRUCTURE SUMMARY:
Info: 5301 ATOMS
Info: 5300 BONDS
Info: 36 ANGLES
Info: 45 DIHEDRALS
Info: 0 IMPROPERS
Info: 0 CROSSTERMS
Info: 5379 EXCLUSIONS
Info: 5294 RIGID BONDS
Info: 10609 DEGREES OF FREEDOM
Info: 1767 HYDROGEN GROUPS
Info: 4 ATOMS IN LARGEST HYDROGEN GROUP
Info: 1767 MIGRATION GROUPS
Info: 4 ATOMS IN LARGEST MIGRATION GROUP
Info: TOTAL MASS = 31806.3 amu
Info: TOTAL CHARGE = -0.000200003 e
Info: MASS DENSITY = 0.728413 g/cm^3
Info: ATOM DENSITY = 0.0731076 atoms/A^3
Info: ADDED 0 IMPLICIT EXCLUSIONS
Info: NONBONDED TABLE R-SQUARED SPACING: 0.0625
Info: NONBONDED TABLE SIZE: 705 POINTS
Info: REMOVING COM VELOCITY -0.0158796 -0.100306 -0.0185069
TCL: Minimizing for 2000 steps
ETITLE: TS BOND ANGLE DIHED IMPRP ELECT VDW BOUNDARY MISC KINETIC TOTAL TEMP POTENTIAL TOTAL3 TEMPAVG PRESSURE GPRESSURE VOLUME PRESSAVG GPRESSAVG
ENERGY: 0 0.1412 0.4946 3.4527 0.0000 -16617.2404 1869.1674 0.0000 0.0000 0.0000 -14743.9844 0.0000 -14743.9844 -14743.9844 0.0000 11312.6339 -16150.4472 72509.5812 11312.6339 -16150.4472
ENERGY: 400 4.4509 2.5060 3.1029 0.0000 -21938.7846 3131.0026 0.0000 0.0000 0.0000 -18797.7223 0.0000 -18797.7223 -18797.7223 0.0000 15573.5252 15728.0638 72509.5812 15573.5252 15728.0638
ENERGY: 800 33.0095 10.6226 4.9017 0.0000 -23206.1233 3692.1705 0.0000 0.0000 0.0000 -19465.4190 0.0000 -19465.4190 -19465.4190 0.0000 17949.1865 18038.8506 72509.5812 17949.1865 18038.8506
ENERGY: 1200 13.7298 5.6593 2.7901 0.0000 -23767.8298 3944.7272 0.0000 0.0000 0.0000 -19800.9234 0.0000 -19800.9234 -19800.9234 0.0000 19101.9141 19207.6323 72509.5812 19101.9141 19207.6323
ENERGY: 1600 0.3879 0.3579 2.7208 0.0000 -24077.6078 4090.1511 0.0000 0.0000 0.0000 -19983.9901 0.0000 -19983.9901 -19983.9901 0.0000 19778.2044 19883.3380 72509.5812 19778.2044 19883.3380
ENERGY: 2000 1.2362 0.5863 2.6917 0.0000 -24218.8217 4137.6099 0.0000 0.0000 0.0000 -20076.6976 0.0000 -20076.6976 -20076.6976 0.0000 20023.2359 20124.4182 72509.5812 20023.2359 20124.4182
TCL: Exiting due to exit command.
Info: NAMD 3.0.1 for Linux-x86_64-multicore
Info: Please visit http://www.ks.uiuc.edu/Research/namd/
Info: for updates, documentation, and support information.
Info: Please cite Phillips et al., J. Chem. Phys. 153:044130 (2020) doi:10.1063/5.0014475
Info: in all publications reporting results obtained with NAMD.
Info: Based on Charm++/Converse 80000 for multicore-linux-x86_64-gcc
Info: Built Mon Oct 14 11:11:06 CDT 2024 by dhardy on athine.ks.uiuc.edu
Info: 1 NAMD  3.0.1  Linux-x86_64-multicore  16    k135  z5358697
Info: Running on 16 processors, 1 nodes, 1 physical nodes.
Info: CPU topology information available.
Info: Charm++/Converse parallel runtime startup completed at 0.00498746 s
Info: 1043.48 MB of memory in use based on /proc/self/stat
Info: Configuration file is mobley_8467917_equil.namd
Info: Working in the current directory /srv/scratch/z5358697/prod_prep_10/8467917
TCL: Running 25000 steps at 30 kelvin.
TCL: Suspending until startup complete.
Info: SIMULATION PARAMETERS:
Info: TIMESTEP               2
Info: NUMBER OF STEPS        0
Info: STEPS PER CYCLE        10
Info: PERIODIC CELL BASIS 1  40.176 0 0
Info: PERIODIC CELL BASIS 2  0 42.118 0
Info: PERIODIC CELL BASIS 3  0 0 42.851
Info: PERIODIC CELL CENTER   0 0 0
Info: WRAPPING WATERS AROUND PERIODIC BOUNDARIES ON OUTPUT.
Info: WRAPPING ALL CLUSTERS AROUND PERIODIC BOUNDARIES ON OUTPUT.
Info: FIRST LDB TIMESTEP     50
Info: LAST LDB TIMESTEP     -1
Info: HOM BACKGROUND SCALING 1
Info: PME BACKGROUND SCALING 1
Info: MIN ATOMS PER PATCH    40
Info: EMPTY PATCH LOAD       40 ATOMS
Info: INITIAL TEMPERATURE    300
Info: CENTER OF MASS MOVING INITIALLY? NO
Info: DIELECTRIC             1
Info: EXCLUDE                SCALED ONE-FOUR
Info: 1-4 ELECTROSTATICS SCALED BY 0.833333
Info: MODIFIED 1-4 VDW PARAMETERS WILL BE USED
Info: DCD FILENAME           mobley_8467917_equil.dcd
Info: DCD FREQUENCY          5000
Info: DCD FIRST STEP         5000
Info: DCD FILE WILL CONTAIN UNIT CELL DATA
Info: XST FILENAME           mobley_8467917_equil.xst
Info: XST FREQUENCY          5000
Info: NO VELOCITY DCD OUTPUT
Info: NO FORCE DCD OUTPUT
Info: OUTPUT FILENAME        mobley_8467917_equil
Info: BINARY OUTPUT FILES WILL BE USED
Info: RESTART FILENAME       mobley_8467917_equil.restart
Info: RESTART FREQUENCY      5000
Info: BINARY RESTART FILES WILL BE USED
Info: CUTOFF                 9
Info: PAIRLIST DISTANCE      11
Info: PAIRLIST SHRINK RATE   0.01
Info: PAIRLIST GROW RATE     0.01
Info: PAIRLIST TRIGGER       0.3
Info: PAIRLISTS PER CYCLE    2
Info: PAIRLISTS ENABLED
Info: MARGIN                 8
Info: HYDROGEN GROUP CUTOFF  2.5
Info: PATCH DIMENSION        21.5
Info: ENERGY OUTPUT STEPS    5000
Info: ENERGY EVALUATION STEPS    5000
Info: OUTPUT ENERGY PRECISION 4
Info: CROSSTERM ENERGY INCLUDED IN DIHEDRAL
Info: TIMING OUTPUT STEPS    50000
Info: PRESSURE OUTPUT STEPS  5000
Info: LANGEVIN DYNAMICS ACTIVE
Info: LANGEVIN TEMPERATURE   30
Info: LANGEVIN USING BBK INTEGRATOR
Info: LANGEVIN DAMPING COEFFICIENT IS 1 INVERSE PS
Info: LANGEVIN DYNAMICS APPLIED TO HYDROGENS
Info: LANGEVIN PISTON PRESSURE CONTROL ACTIVE
Info:        TARGET PRESSURE IS 1.01325 BAR
Info:     OSCILLATION PERIOD IS 50 FS
Info:             DECAY TIME IS 25 FS
Info:     PISTON TEMPERATURE IS 300 K
Info:       PRESSURE CONTROL IS GROUP-BASED
Info:    INITIAL STRAIN RATE IS 0 0 0
Info:       CELL FLUCTUATION IS ISOTROPIC
Info: PARTICLE MESH EWALD (PME) ACTIVE
Info: PME TOLERANCE               1e-06
Info: PME EWALD COEFFICIENT       0.348832
Info: PME INTERPOLATION ORDER     4
Info: PME GRID DIMENSIONS         44 44 44
Info: PME MAXIMUM GRID SPACING    1
Info: FULL ELECTROSTATIC EVALUATION FREQUENCY      2
Info: USING VERLET I (r-RESPA) MTS SCHEME.
Info: C1 SPLITTING OF LONG RANGE ELECTROSTATICS
Info: PLACING ATOMS IN PATCHES BY HYDROGEN GROUPS
Info: RIGID BONDS TO HYDROGEN : ALL
Info:         ERROR TOLERANCE : 1e-08
Info:          MAX ITERATIONS : 100
Info: RIGID WATER USING SETTLE ALGORITHM
Info: RANDOM NUMBER SEED     1741407804
Info: USE HYDROGEN BONDS?    NO
Info: Using AMBER format force field!
Info: AMBER PARM FILE        mobley_8467917.prmtop
Info: COORDINATE PDB         mobley_8467917.pdb
Info: Exclusions will be read from PARM file!
Info: SCNB (VDW SCALING)     2
Info: USING ARITHMETIC MEAN TO COMBINE L-J SIGMA PARAMETERS
Info: BINARY COORDINATES     mobley_8467917_min.coor
Info: SUMMARY OF PARAMETERS:
Info: 7 BONDS
Info: 8 ANGLES
Info:   8 HARMONIC
Info:   0 COSINE-BASED
Info: 10 DIHEDRAL
Info: 0 IMPROPER
Info: 0 CROSSTERM
Info: 0 VDW
Info: 21 VDW_PAIRS
Info: 0 NBTHOLE_PAIRS
Info: STRUCTURE SUMMARY:
Info: 5301 ATOMS
Info: 5300 BONDS
Info: 36 ANGLES
Info: 45 DIHEDRALS
Info: 0 IMPROPERS
Info: 0 CROSSTERMS
Info: 5379 EXCLUSIONS
Info: 5294 RIGID BONDS
Info: 10609 DEGREES OF FREEDOM
Info: 1767 HYDROGEN GROUPS
Info: 4 ATOMS IN LARGEST HYDROGEN GROUP
Info: 1767 MIGRATION GROUPS
Info: 4 ATOMS IN LARGEST MIGRATION GROUP
Info: TOTAL MASS = 31806.3 amu
Info: TOTAL CHARGE = -0.000200003 e
Info: MASS DENSITY = 0.728413 g/cm^3
Info: ATOM DENSITY = 0.0731076 atoms/A^3
Info: ADDED 0 IMPLICIT EXCLUSIONS
Info: NONBONDED TABLE R-SQUARED SPACING: 0.0625
Info: NONBONDED TABLE SIZE: 705 POINTS
Info: REMOVING COM VELOCITY -0.0996961 0.0634477 0.100249
TCL: Running for 25000 steps
ETITLE: TS BOND ANGLE DIHED IMPRP ELECT VDW BOUNDARY MISC KINETIC TOTAL TEMP POTENTIAL TOTAL3 TEMPAVG PRESSURE GPRESSURE VOLUME PRESSAVG GPRESSAVG
ENERGY: 0 1.2362 0.5863 2.6917 0.0000 -24218.8217 4137.6099 0.0000 0.0000 3212.0498 -16864.6478 304.7181 -20076.6976 -16863.9542 304.7181 73.8781 112.7239 72509.5812 73.8781 112.7239
ENERGY: 5000 0.2861 0.7551 2.7992 0.0000 -25298.6611 4293.4489 0.0000 0.0000 314.6156 -20686.7562 29.8467 -21001.3719 -20686.1582 47.9855 -268.7792 -242.6635 50895.5199 -1.9180 -1.9826
ENERGY: 10000 0.2399 0.8399 3.0135 0.0000 -25385.8138 4326.3482 0.0000 0.0000 319.2380 -20736.1343 30.2852 -21055.3723 -20735.4234 30.2705 -253.7740 -208.7323 50808.9685 5.5636 5.6206
ENERGY: 15000 0.1239 1.2402 2.8658 0.0000 -25342.9232 4263.9021 0.0000 0.0000 322.8392 -20751.9521 30.6268 -21074.7913 -20750.7928 30.1384 -614.3450 -561.0338 50899.7448 0.7499 0.6290
ENERGY: 20000 0.1568 0.9351 2.8421 0.0000 -25502.6304 4423.8207 0.0000 0.0000 318.2643 -20756.6115 30.1928 -21074.8758 -20755.8258 30.1370 132.7434 192.5303 50799.7349 3.5537 3.5057
ENERGY: 25000 0.4180 0.7300 2.8713 0.0000 -25381.3944 4290.5798 0.0000 0.0000 313.8225 -20772.9729 29.7714 -21086.7953 -20771.8524 30.1080 -536.3166 -465.4323 50854.2653 -0.0591 -0.0562
TCL: Running 25000 steps at 60 kelvin.
TCL: Setting parameter langevinTemp to 60
TCL: Running for 25000 steps
ETITLE: TS BOND ANGLE DIHED IMPRP ELECT VDW BOUNDARY MISC KINETIC TOTAL TEMP POTENTIAL TOTAL3 TEMPAVG PRESSURE GPRESSURE VOLUME PRESSAVG GPRESSAVG
ENERGY: 25000 0.4180 0.7300 2.8713 0.0000 -25381.3944 4290.5798 0.0000 0.0000 313.6656 -20773.1298 29.7566 -21086.7953 -20772.4186 29.7566 -518.7340 -465.1840 50854.2653 -518.7340 -465.1840
ENERGY: 30000 0.4102 1.8135 3.1226 0.0000 -25051.0841 4233.8307 0.0000 0.0000 631.2632 -20180.6438 59.8862 -20811.9070 -20178.2912 57.4378 -275.3968 -240.4434 51297.1047 -0.0611 -0.1197
ENERGY: 35000 0.3560 1.8430 3.0170 0.0000 -25176.2688 4296.4057 0.0000 0.0000 630.3851 -20244.2619 59.8028 -20874.6470 -20242.5125 59.9336 -106.7753 -74.2937 51257.7667 6.1069 5.8264
ENERGY: 40000 0.2599 1.9918 3.1211 0.0000 -25172.1478 4249.1093 0.0000 0.0000 635.9156 -20281.7501 60.3275 -20917.6657 -20280.5693 60.2832 -412.7637 -362.4063 51265.0900 5.1223 5.3901
ENERGY: 45000 0.2330 2.1454 3.1113 0.0000 -25170.1658 4247.8993 0.0000 0.0000 617.2414 -20299.5354 58.5559 -20916.7768 -20297.6988 59.7578 -493.7982 -451.4807 51428.2450 -1.1116 -1.2809
ENERGY: 50000 0.1556 1.7620 3.7507 0.0000 -25342.5517 4420.1176 0.0000 0.0000 639.8914 -20276.8744 60.7047 -20916.7658 -20275.2680 59.8289 375.4225 429.0587 50997.5880 -0.8720 -0.9004
TCL: Running 25000 steps at 90 kelvin.
TCL: Setting parameter langevinTemp to 90
TCL: Running for 25000 steps
ETITLE: TS BOND ANGLE DIHED IMPRP ELECT VDW BOUNDARY MISC KINETIC TOTAL TEMP POTENTIAL TOTAL3 TEMPAVG PRESSURE GPRESSURE VOLUME PRESSAVG GPRESSAVG
ENERGY: 50000 0.1556 1.7620 3.7507 0.0000 -25342.5517 4420.1176 0.0000 0.0000 639.5760 -20277.1897 60.6748 -20916.7658 -20276.2294 60.6748 376.5970 429.5859 50997.5880 376.5970 429.5859
ENERGY: 55000 1.0252 2.0672 4.5546 0.0000 -24783.1629 4177.6750 0.0000 0.0000 947.6821 -19650.1588 89.9039 -20597.8409 -19647.9481 86.9121 -143.9222 -53.9744 51579.1094 2.7895 2.5065
ENERGY: 60000 0.4304 2.9319 3.7838 0.0000 -24900.7025 4223.0408 0.0000 0.0000 937.9818 -19732.5339 88.9837 -20670.5157 -19730.6824 90.1228 21.3142 74.6435 51264.7388 2.1661 2.5249
ENERGY: 65000 0.9714 2.2784 3.6609 0.0000 -24932.9025 4218.1751 0.0000 0.0000 945.8519 -19761.9647 89.7303 -20707.8166 -19758.5019 89.7704 -139.0077 -106.3050 51395.1039 1.4175 1.4846
ENERGY: 70000 0.4043 2.6951 3.2232 0.0000 -24844.2970 4151.2394 0.0000 0.0000 965.0783 -19721.6568 91.5542 -20686.7351 -19718.3306 90.0671 -482.3834 -421.1773 51639.6025 3.1984 3.3363
ENERGY: 75000 0.6572 3.2546 3.3393 0.0000 -25075.6540 4354.3064 0.0000 0.0000 958.3292 -19755.7673 90.9140 -20714.0965 -19753.2938 89.8804 557.4413 617.3869 51007.7872 4.0760 4.1786
TCL: Running 25000 steps at 120 kelvin.
TCL: Setting parameter langevinTemp to 120
TCL: Running for 25000 steps
ETITLE: TS BOND ANGLE DIHED IMPRP ELECT VDW BOUNDARY MISC KINETIC TOTAL TEMP POTENTIAL TOTAL3 TEMPAVG PRESSURE GPRESSURE VOLUME PRESSAVG GPRESSAVG
ENERGY: 75000 0.6572 3.2546 3.3393 0.0000 -25075.6540 4354.3064 0.0000 0.0000 957.8548 -19756.2416 90.8690 -20714.0965 -19754.3634 90.8690 550.3454 617.4702 51007.7872 550.3454 617.4702
ENERGY: 80000 1.3210 4.3851 3.5176 0.0000 -24390.5470 4057.1473 0.0000 0.0000 1266.4656 -19057.7105 120.1460 -20324.1761 -19055.2199 116.4464 -157.7478 -103.3719 51844.3732 6.1914 6.0906
ENERGY: 85000 0.5698 2.8089 3.9376 0.0000 -24529.7056 4137.1309 0.0000 0.0000 1256.1485 -19129.1099 119.1672 -20385.2584 -19126.8574 120.1530 138.9299 171.1524 51640.1277 1.1800 1.1413
ENERGY: 90000 0.5624 4.1004 3.9870 0.0000 -24502.7040 4055.4817 0.0000 0.0000 1283.3727 -19155.1998 121.7499 -20438.5726 -19150.3136 119.1747 -417.4959 -346.4947 51834.4930 -0.3588 -0.0266
ENERGY: 95000 0.2956 2.8984 3.9636 0.0000 -24552.2519 4099.3315 0.0000 0.0000 1260.0156 -19185.7472 119.5341 -20445.7628 -19182.9340 120.0967 -148.5542 -75.5898 51537.5541 4.7766 4.9206
ENERGY: 100000 0.5201 3.2516 3.3232 0.0000 -24720.0471 4225.3247 0.0000 0.0000 1264.3772 -19223.2503 119.9479 -20487.6276 -19220.4593 120.2933 310.5100 386.7072 51426.2807 4.2943 3.8723
TCL: Running 25000 steps at 150 kelvin.
TCL: Setting parameter langevinTemp to 150
TCL: Running for 25000 steps
ETITLE: TS BOND ANGLE DIHED IMPRP ELECT VDW BOUNDARY MISC KINETIC TOTAL TEMP POTENTIAL TOTAL3 TEMPAVG PRESSURE GPRESSURE VOLUME PRESSAVG GPRESSAVG
ENERGY: 100000 0.5201 3.2516 3.3232 0.0000 -24720.0471 4225.3247 0.0000 0.0000 1263.7388 -19223.8887 119.8873 -20487.6276 -19221.1703 119.8873 339.6693 386.6004 51426.2807 339.6693 386.6004
ENERGY: 105000 0.8694 3.6163 2.9575 0.0000 -24031.5852 3960.3462 0.0000 0.0000 1574.0436 -18489.7522 149.3251 -20063.7958 -18484.7286 146.1245 -2.0577 26.9006 51908.2191 2.9199 2.5637
ENERGY: 110000 1.0461 6.2854 4.1477 0.0000 -24109.2043 4010.5017 0.0000 0.0000 1620.7046 -18466.5188 153.7517 -20087.2234 -18462.0457 150.6020 125.6400 175.8307 51973.2085 3.3639 3.1509
ENERGY: 115000 1.2433 4.3081 4.8771 0.0000 -23940.0834 3830.5710 0.0000 0.0000 1578.9305 -18520.1533 149.7887 -20099.0838 -18516.8387 150.7763 -671.1601 -636.0386 51906.8546 3.9608 3.5873
ENERGY: 120000 0.8796 2.9634 5.0990 0.0000 -24373.7777 4234.0070 0.0000 0.0000 1574.8699 -18555.9589 149.4034 -20130.8288 -18551.2632 149.0652 1191.0716 1231.0825 51342.1127 5.7724 6.1464
ENERGY: 125000 0.4058 3.4448 4.5223 0.0000 -24074.5967 3898.5388 0.0000 0.0000 1598.2442 -18569.4409 151.6209 -20167.6850 -18566.2226 149.5547 -544.1600 -496.0485 52052.2740 3.8623 3.9645
TCL: Running 50000 steps at 180 kelvin.
TCL: Setting parameter langevinTemp to 180
TCL: Running for 50000 steps
ETITLE: TS BOND ANGLE DIHED IMPRP ELECT VDW BOUNDARY MISC KINETIC TOTAL TEMP POTENTIAL TOTAL3 TEMPAVG PRESSURE GPRESSURE VOLUME PRESSAVG GPRESSAVG
ENERGY: 125000 0.4058 3.4448 4.5223 0.0000 -24074.5967 3898.5388 0.0000 0.0000 1597.4550 -18570.2301 151.5460 -20167.6850 -18566.7001 151.5460 -548.9105 -496.1785 52052.2740 -548.9105 -496.1785
ENERGY: 135000 1.1441 6.3216 4.0858 0.0000 -23483.3952 3748.5291 0.0000 0.0000 1873.8708 -17849.4438 177.7688 -19723.3146 -17844.3277 179.2876 -284.6905 -226.9437 51854.7666 -1.0794 -1.2220
ENERGY: 145000 1.5368 7.5502 4.6893 0.0000 -23476.4147 3729.6552 0.0000 0.0000 1928.9126 -17804.0706 182.9905 -19732.9831 -17801.8728 180.4860 -542.1735 -502.5469 52268.7477 6.7131 7.2396
ENERGY: 155000 0.2660 3.8870 3.4200 0.0000 -23352.1133 3661.9396 0.0000 0.0000 1914.0019 -17768.5987 181.5759 -19682.6007 -17763.2525 181.4422 -532.3183 -464.9430 51765.1386 4.7567 4.7822
ENERGY: 165000 1.0910 4.4381 4.8475 0.0000 -23411.4199 3754.3407 0.0000 0.0000 1903.8876 -17742.8151 180.6164 -19646.7027 -17737.5072 180.8043 -75.3253 -15.0598 51780.8333 4.3099 3.9909
ENERGY: 175000 0.5650 4.7922 4.1864 0.0000 -23479.8513 3754.0724 0.0000 0.0000 1915.8083 -17800.4270 181.7473 -19716.2353 -17796.9899 180.8900 -55.2794 -2.8622 51498.4339 4.5400 4.7723
TCL: Running 50000 steps at 210 kelvin.
TCL: Setting parameter langevinTemp to 210
TCL: Running for 50000 steps
ETITLE: TS BOND ANGLE DIHED IMPRP ELECT VDW BOUNDARY MISC KINETIC TOTAL TEMP POTENTIAL TOTAL3 TEMPAVG PRESSURE GPRESSURE VOLUME PRESSAVG GPRESSAVG
ENERGY: 175000 0.5650 4.7922 4.1864 0.0000 -23479.8513 3754.0724 0.0000 0.0000 1914.8890 -17801.3463 181.6601 -19716.2353 -17797.7213 181.6601 -75.6556 -3.6491 51498.4339 -75.6556 -3.6491
ENERGY: 185000 1.1549 4.3924 3.8731 0.0000 -22346.9340 3378.4013 0.0000 0.0000 2206.9865 -16752.1258 209.3706 -18959.1123 -16745.8638 208.5223 -287.6711 -204.7827 51762.1053 0.3327 0.7334
ENERGY: 195000 0.6591 3.4855 6.2722 0.0000 -22193.9177 3247.7345 0.0000 0.0000 2230.1507 -16705.6157 211.5681 -18935.7664 -16700.3030 209.4965 -935.5164 -893.2225 51983.9875 0.0621 -0.0333
ENERGY: 205000 2.4771 8.3619 3.9740 0.0000 -22271.0502 3360.7135 0.0000 0.0000 2217.8976 -16677.6262 210.4057 -18895.5238 -16671.9423 208.4325 -435.5156 -320.5288 52042.4952 -2.2424 -2.4451
ENERGY: 215000 0.7970 6.4856 3.9234 0.0000 -22358.9264 3478.9618 0.0000 0.0000 2217.0435 -16651.7150 210.3246 -18868.7584 -16645.8719 208.6600 315.2955 384.4774 51587.9771 2.6293 2.7692
ENERGY: 225000 3.1015 4.9107 3.7688 0.0000 -22275.0289 3377.1130 0.0000 0.0000 2247.0426 -16639.0922 213.1706 -18886.1348 -16633.7425 209.2033 -128.6826 -93.2545 51916.5877 5.8345 5.9139
TCL: Running 50000 steps at 240 kelvin.
TCL: Setting parameter langevinTemp to 240
TCL: Running for 50000 steps
ETITLE: TS BOND ANGLE DIHED IMPRP ELECT VDW BOUNDARY MISC KINETIC TOTAL TEMP POTENTIAL TOTAL3 TEMPAVG PRESSURE GPRESSURE VOLUME PRESSAVG GPRESSAVG
ENERGY: 225000 3.1015 4.9107 3.7688 0.0000 -22275.0289 3377.1130 0.0000 0.0000 2245.9520 -16640.1829 213.0671 -18886.1348 -16636.7431 213.0671 -164.4136 -92.5825 51916.5877 -164.4136 -92.5825
ENERGY: 235000 1.7222 6.2888 2.9727 0.0000 -21292.4812 3135.4647 0.0000 0.0000 2465.7353 -15680.2974 233.9173 -18146.0328 -15675.5373 237.7491 137.6752 215.3115 51900.4399 5.5266 5.7537
ENERGY: 245000 1.6627 5.8929 4.5943 0.0000 -21268.1675 3107.7253 0.0000 0.0000 2562.1647 -15586.1275 243.0653 -18148.2923 -15582.4481 240.6270 -5.0889 136.9812 52044.0208 3.1729 3.6317
ENERGY: 255000 0.4120 5.8021 4.6358 0.0000 -21163.0926 3059.9440 0.0000 0.0000 2510.6626 -15581.6361 238.1794 -18092.2987 -15576.1436 239.4402 -378.4922 -250.9322 52885.5330 0.5675 0.6845
ENERGY: 265000 2.2957 5.1783 4.3959 0.0000 -21030.5955 2931.7452 0.0000 0.0000 2519.8894 -15567.0910 239.0548 -18086.9803 -15562.2846 238.0822 -778.5539 -682.6133 52368.0592 3.3542 3.3246
ENERGY: 275000 1.5473 6.6474 6.2496 0.0000 -21156.4023 3079.3638 0.0000 0.0000 2611.3909 -15451.2032 247.7353 -18062.5941 -15446.7944 239.0927 36.1188 88.2310 52311.4371 3.3951 3.2909
TCL: Running 50000 steps at 270 kelvin.
TCL: Setting parameter langevinTemp to 270
TCL: Running for 50000 steps
ETITLE: TS BOND ANGLE DIHED IMPRP ELECT VDW BOUNDARY MISC KINETIC TOTAL TEMP POTENTIAL TOTAL3 TEMPAVG PRESSURE GPRESSURE VOLUME PRESSAVG GPRESSAVG
ENERGY: 275000 1.5473 6.6474 6.2496 0.0000 -21156.4023 3079.3638 0.0000 0.0000 2610.1123 -15452.4818 247.6140 -18062.5941 -15448.4512 247.6140 3.2507 87.4512 52311.4371 3.2507 87.4512
ENERGY: 285000 0.8868 7.9549 4.6001 0.0000 -19919.3677 2606.4557 0.0000 0.0000 2807.8517 -14491.6185 266.3729 -17299.4702 -14483.3904 268.3344 -1067.6022 -969.9524 53855.5945 -1.1769 -1.0658
ENERGY: 295000 1.4101 10.9607 4.4751 0.0000 -20170.3376 2726.6197 0.0000 0.0000 2819.3989 -14607.4731 267.4684 -17426.8721 -14601.1527 271.9734 -566.5750 -478.5048 53260.5256 1.9009 2.2371
ENERGY: 305000 1.3402 7.9456 5.7821 0.0000 -20318.9189 2978.8525 0.0000 0.0000 2850.4336 -14474.5650 270.4126 -17324.9986 -14468.2350 271.1783 856.0540 908.2310 52663.1112 5.1442 5.0321
ENERGY: 315000 2.4811 10.0376 4.1750 0.0000 -20179.3597 2808.7267 0.0000 0.0000 2905.1738 -14448.7654 275.6056 -17353.9392 -14444.2059 271.0682 1.4126 65.7067 53457.4338 4.1165 3.7613
ENERGY: 325000 1.3967 6.9714 3.8302 0.0000 -20437.6966 2989.1275 0.0000 0.0000 2873.0846 -14563.2862 272.5614 -17436.3708 -14557.8550 271.3889 676.0270 717.4903 53032.9866 1.2979 0.9514
TCL: Running 1000000 steps at 300 kelvin.
TCL: Setting parameter langevinTemp to 300
TCL: Running for 1000000 steps
ETITLE: TS BOND ANGLE DIHED IMPRP ELECT VDW BOUNDARY MISC KINETIC TOTAL TEMP POTENTIAL TOTAL3 TEMPAVG PRESSURE GPRESSURE VOLUME PRESSAVG GPRESSAVG
ENERGY: 325000 1.3967 6.9714 3.8302 0.0000 -20437.6966 2989.1275 0.0000 0.0000 2871.6906 -14564.6802 272.4292 -17436.3708 -14560.5219 272.4292 648.9418 718.1895 53032.9866 648.9418 718.1895
ENERGY: 525000 3.4207 7.4990 4.8235 0.0000 -19378.6300 2703.3679 0.0000 0.0000 3120.3287 -13539.1902 296.0167 -16659.5188 -13534.2814 299.0915 404.2407 487.8512 54376.0330 2.2587 2.2708
ENERGY: 725000 2.2240 9.5736 4.7785 0.0000 -19125.2713 2544.7595 0.0000 0.0000 3157.2691 -13406.6666 299.5212 -16563.9357 -13398.2021 300.6032 -341.1602 -246.5532 55380.1841 5.9594 5.8180
ENERGY: 925000 0.9112 12.1155 4.3491 0.0000 -19147.1873 2531.6636 0.0000 0.0000 3157.9979 -13440.1499 299.5903 -16598.1478 -13436.1822 300.8501 -71.1386 -13.9875 54259.9271 4.1112 3.9694
ENERGY: 1125000 0.6957 9.9601 4.5189 0.0000 -19379.0712 2611.7591 0.0000 0.0000 3167.0961 -13585.0415 300.4534 -16752.1375 -13580.8291 299.0214 -23.3998 32.9163 54387.2900 3.8383 3.7767
ENERGY: 1325000 0.3694 9.1075 4.3512 0.0000 -19247.7704 2576.6575 0.0000 0.0000 3176.5396 -13480.7452 301.3493 -16657.2848 -13472.4192 299.9104 -54.9934 23.5983 54394.2230 2.6862 3.1381
TCL: Exiting due to exit command.
