Info: SIMULATION PARAMETERS:
Info: TIMESTEP               2
Info: NUMBER OF STEPS        0
Info: STEPS PER CYCLE        10
Info: PERIODIC CELL BASIS 1  30.3452 0 0
Info: PERIODIC CELL BASIS 2  0 31.7398 0
Info: PERIODIC CELL BASIS 3  0 0 31.8444
Info: PERIODIC CELL CENTER   0 0 0
Info: WRAPPING WATERS AROUND PERIODIC BOUNDARIES ON OUTPUT.
Info: WRAPPING ALL CLUSTERS AROUND PERIODIC BOUNDARIES ON OUTPUT.
Info: FIRST LDB TIMESTEP     50
Info: LAST LDB TIMESTEP     -1
Info: HOM BACKGROUND SCALING 1
Info: PME BACKGROUND SCALING 1
Info: MIN ATOMS PER PATCH    40
Info: EMPTY PATCH LOAD       40 ATOMS
Info: VELOCITY FILE          mobley_4506634_equil.vel
Info: CENTER OF MASS MOVING INITIALLY? NO
Info: DIELECTRIC             1
Info: EXCLUDE                SCALED ONE-FOUR
Info: 1-4 ELECTROSTATICS SCALED BY 0.833333
Info: MODIFIED 1-4 VDW PARAMETERS WILL BE USED
Info: DCD FILENAME           mobley_4506634_prod.dcd
Info: DCD FREQUENCY          100000
Info: DCD FIRST STEP         100000
Info: DCD FILE WILL CONTAIN UNIT CELL DATA
Info: XST FILENAME           mobley_4506634_prod.xst
Info: XST FREQUENCY          100000
Info: NO VELOCITY DCD OUTPUT
Info: NO FORCE DCD OUTPUT
Info: OUTPUT FILENAME        mobley_4506634_prod
Info: BINARY OUTPUT FILES WILL BE USED
Info: RESTART FILENAME       mobley_4506634_prod.restart
Info: RESTART FREQUENCY      100000
Info: BINARY RESTART FILES WILL BE USED
Info: CUTOFF                 9
Info: PAIRLIST DISTANCE      11
Info: PAIRLIST SHRINK RATE   0.01
Info: PAIRLIST GROW RATE     0.01
Info: PAIRLIST TRIGGER       0.3
Info: PAIRLISTS PER CYCLE    2
Info: PAIRLISTS ENABLED
Info: MARGIN                 2
Info: HYDROGEN GROUP CUTOFF  2.5
Info: PATCH DIMENSION        15.5
Info: ENERGY OUTPUT STEPS    100000
Info: ENERGY EVALUATION STEPS    100000
Info: OUTPUT ENERGY PRECISION 4
Info: CROSSTERM ENERGY INCLUDED IN DIHEDRAL
Info: TIMING OUTPUT STEPS    1000000
Info: PRESSURE OUTPUT STEPS  100000
Info: ALCHEMICAL FEP ON
Info: FEP CURRENT LAMBDA VALUE     0
Info: FEP COMPARISON LAMBDA VALUE  0.05
Info: FEP INTRA-ALCHEMICAL NON-BONDED INTERACTIONS WILL BE RETAINED
Info: FEP INTRA-ALCHEMICAL BONDED INTERACTIONS WILL BE RETAINED
Info: FEP VDW SHIFTING COEFFICIENT 5
Info: FEP ELEC. ACTIVE FOR ANNIHILATED PARTICLES BETWEEN LAMBDA = 0 AND LAMBDA = 0.5
Info: FEP ELEC. ACTIVE FOR EXNIHILATED PARTICLES BETWEEN LAMBDA = 0.5 AND LAMBDA = 1
Info: FEP VDW ACTIVE FOR ANNIHILATED PARTICLES BETWEEN LAMBDA = 0 AND LAMBDA = 1
Info: FEP VDW ACTIVE FOR EXNIHILATED PARTICLES BETWEEN LAMBDA = 0 AND LAMBDA = 1
Info: FEP BOND ACTIVE FOR ANNIHILATED PARTICLES BETWEEN LAMBDA = 1 AND LAMBDA = 1
Info: FEP BOND ACTIVE FOR EXNIHILATED PARTICLES BETWEEN LAMBDA = 0 AND LAMBDA = 0
Info: LANGEVIN DYNAMICS ACTIVE
Info: LANGEVIN TEMPERATURE   300
Info: LANGEVIN USING BBK INTEGRATOR
Info: LANGEVIN DAMPING COEFFICIENT IS 1 INVERSE PS
Info: LANGEVIN DYNAMICS APPLIED TO HYDROGENS
Info: LANGEVIN PISTON PRESSURE CONTROL ACTIVE
Info:        TARGET PRESSURE IS 1.01325 BAR
Info:     OSCILLATION PERIOD IS 50 FS
Info:             DECAY TIME IS 25 FS
Info:     PISTON TEMPERATURE IS 300 K
Info:       PRESSURE CONTROL IS GROUP-BASED
Info:    INITIAL STRAIN RATE IS 0.000501032 0.000501032 0.000501032
Info:       CELL FLUCTUATION IS ISOTROPIC
Info: PARTICLE MESH EWALD (PME) ACTIVE
Info: PME TOLERANCE               1e-06
Info: PME EWALD COEFFICIENT       0.348832
Info: PME INTERPOLATION ORDER     4
Info: PME GRID DIMENSIONS         32 32 32
Info: PME MAXIMUM GRID SPACING    1
Info: PME CALCULATION WILL BE PERFORMED ON GPU
Info: FULL ELECTROSTATIC EVALUATION FREQUENCY      2
Info: USING VERLET I (r-RESPA) MTS SCHEME.
Info: C1 SPLITTING OF LONG RANGE ELECTROSTATICS
Info: PLACING ATOMS IN PATCHES BY HYDROGEN GROUPS
Info: RIGID BONDS TO HYDROGEN : ALL
Info:         ERROR TOLERANCE : 1e-08
Info:          MAX ITERATIONS : 100
Info: RIGID WATER USING SETTLE ALGORITHM
Info: RANDOM NUMBER SEED     1742091261
Info: USE HYDROGEN BONDS?    NO
Info: Using AMBER format force field!
Info: AMBER PARM FILE        mobley_4506634.prmtop
Info: COORDINATE PDB         mobley_4506634.pdb
Info: Exclusions will be read from PARM file!
Info: SCNB (VDW SCALING)     2
Info: USING ARITHMETIC MEAN TO COMBINE L-J SIGMA PARAMETERS
Info: BINARY COORDINATES     mobley_4506634_equil.coor
Info: SUMMARY OF PARAMETERS:
Info: 7 BONDS
Info: 8 ANGLES
Info:   8 HARMONIC
Info:   0 COSINE-BASED
Info: 1 DIHEDRAL
Info: 0 IMPROPER
Info: 0 CROSSTERM
Info: 0 VDW
Info: 28 VDW_PAIRS
Info: 0 NBTHOLE_PAIRS
Info: To read alchdata from file: mobley_4506634.pdb
Info: To read alchflag data from column: 5
Info: STRUCTURE SUMMARY:
Info: 2972 ATOMS
Info: 2971 BONDS
Info: 12 ANGLES
Info: 9 DIHEDRALS
Info: 0 IMPROPERS
Info: 0 CROSSTERMS
Info: 2992 EXCLUSIONS
Info: 2965 RIGID BONDS
Info: ALCH: 0 ATOMS TO DISAPPEAR IN FINAL STATE
Info: ALCH: 8 ATOMS TO APPEAR IN FINAL STATE
Info: 5951 DEGREES OF FREEDOM
Info: 995 HYDROGEN GROUPS
Info: 3 ATOMS IN LARGEST HYDROGEN GROUP
Info: 995 MIGRATION GROUPS
Info: 3 ATOMS IN LARGEST MIGRATION GROUP
Info: TOTAL MASS = 17997.2 amu
Info: TOTAL CHARGE = 9.99905e-05 e
Info: MASS DENSITY = 0.974398 g/cm^3
Info: ATOM DENSITY = 0.0968995 atoms/A^3
Info: ADDED 0 IMPLICIT EXCLUSIONS
Info: NONBONDED TABLE R-SQUARED SPACING: 0.0625
Info: NONBONDED TABLE SIZE: 705 POINTS
Info: REMOVING COM VELOCITY -0.0869321 -0.0864738 0.0338104
Info: Use 3D box decompostion in PME FFT.
Info: Updated CUDA force table with 4096 elements.
Info: Updated CUDA LJ table with 7 x 7 elements.
Info: Found 11 unique exclusion lists needing 16 bytes
TCL: Running for 1500000 steps
ETITLE: TS BOND ANGLE DIHED IMPRP ELECT VDW BOUNDARY MISC KINETIC TOTAL TEMP POTENTIAL TOTALAVG TEMPAVG PRESSURE GPRESSURE VOLUME PRESSAVG GPRESSAVG
ENERGY: 0 3.5635 3.5085 0.0273 0.0000 -10711.2007 1362.5058 0.0000 0.0000 1699.6096 -7641.9860 287.4416 -9341.5956 -7641.9860 287.4416 -778.4270 -697.0783 30670.9546 -778.4270 -697.0783
ENERGY: 300000 1.6249 2.5007 0.8083 0.0000 -10934.5308 1491.4084 0.0000 0.0000 1778.7077 -7659.4807 300.8188 -9438.1884 -7621.1087 296.6211 -118.5370 16.8404 30444.0920 -228.7069 -144.1633
ENERGY: 600000 1.5433 2.3443 0.0468 0.0000 -10700.3481 1388.6393 0.0000 0.0000 1746.8323 -7560.9421 295.4280 -9307.7744 -7578.7445 297.7916 -449.7689 -326.9577 30404.1567 -127.0671 -47.8085
ENERGY: 900000 1.5578 2.4982 0.0247 0.0000 -10669.3315 1394.5799 0.0000 0.0000 1813.6067 -7457.0642 306.7210 -9270.6709 -7566.2225 300.2145 -336.9199 -333.5456 30826.1584 -173.6908 -96.9043
ENERGY: 1200000 1.4396 2.4021 0.0486 0.0000 -10831.5835 1472.4466 0.0000 0.0000 1769.1707 -7586.0758 299.2059 -9355.2466 -7568.3027 300.8555 101.4500 173.5417 30565.7118 -132.9414 -64.0258
ENERGY: 1500000 0.9000 9.5199 0.6199 0.0000 -10935.7980 1566.8373 0.0000 0.0000 1823.7367 -7534.1843 308.4342 -9357.9210 -7566.4928 301.3097 526.5367 637.4335 31036.6473 -6.0902 69.2876
TCL: Running FEP window   2: Lambda1 0.05   Lambda2 0.1    [dLambda 0.05  ]
TCL: Setting parameter firsttimestep to 0
TCL: Setting parameter alchLambda to 0.05
Info: NONBONDED TABLE R-SQUARED SPACING: 0.0625
Info: NONBONDED TABLE SIZE: 705 POINTS
TCL: Setting parameter alchLambda2 to 0.1
Info: NONBONDED TABLE R-SQUARED SPACING: 0.0625
Info: NONBONDED TABLE SIZE: 705 POINTS
TCL: Running for 1500000 steps
ETITLE: TS BOND ANGLE DIHED IMPRP ELECT VDW BOUNDARY MISC KINETIC TOTAL TEMP POTENTIAL TOTALAVG TEMPAVG PRESSURE GPRESSURE VOLUME PRESSAVG GPRESSAVG
ENERGY: 0 0.9000 9.5199 0.6199 0.0000 -10935.7977 1569.1535 0.0000 0.0000 1822.8761 -7532.7282 308.2887 -9355.6044 -7532.7282 308.2887 556.6264 644.3940 31036.6473 556.6264 644.3940
ENERGY: 300000 2.8772 1.0817 0.0147 0.0000 -10684.7890 1419.0407 0.0000 0.0000 1793.7596 -7468.0150 303.3644 -9261.7746 -7526.2990 304.3082 -213.4070 -105.8146 30846.4503 490.6610 577.5671
ENERGY: 600000 1.7492 4.5745 1.1371 0.0000 -10684.8406 1410.1155 0.0000 0.0000 1810.1673 -7457.0969 306.1393 -9267.2642 -7517.3982 303.0799 -367.8914 -254.0747 30859.3316 259.6035 348.2765
ENERGY: 900000 1.6126 2.3681 0.1035 0.0000 -10848.4454 1414.8932 0.0000 0.0000 1759.4732 -7669.9948 297.5658 -9429.4679 -7537.7360 301.5374 -761.9322 -619.4718 30470.9192 -113.7817 -21.3826
ENERGY: 1200000 2.9082 3.8890 0.0606 0.0000 -10970.1284 1589.4618 0.0000 0.0000 1809.0433 -7564.7655 305.9493 -9373.8088 -7541.3277 301.5324 1002.1751 1107.4984 30214.9348 -47.0112 34.1805
ENERGY: 1500000 0.7826 1.4246 0.2889 0.0000 -10847.4301 1404.7638 0.0000 0.0000 1771.1438 -7669.0264 299.5396 -9440.1702 -7558.0626 301.2618 -538.2464 -513.4707 30283.8853 -32.0526 43.3729
TCL: Running FEP window   3: Lambda1 0.1    Lambda2 0.15000000000000002 [dLambda 0.05000000000000002]
TCL: Setting parameter firsttimestep to 0
TCL: Setting parameter alchLambda to 0.1
Info: NONBONDED TABLE R-SQUARED SPACING: 0.0625
Info: NONBONDED TABLE SIZE: 705 POINTS
TCL: Setting parameter alchLambda2 to 0.15000000000000002
Info: NONBONDED TABLE R-SQUARED SPACING: 0.0625
Info: NONBONDED TABLE SIZE: 705 POINTS
TCL: Running for 1500000 steps
ETITLE: TS BOND ANGLE DIHED IMPRP ELECT VDW BOUNDARY MISC KINETIC TOTAL TEMP POTENTIAL TOTALAVG TEMPAVG PRESSURE GPRESSURE VOLUME PRESSAVG GPRESSAVG
ENERGY: 0 0.7826 1.4246 0.2889 0.0000 -10847.4305 1405.2342 0.0000 0.0000 1770.2399 -7669.4603 299.3867 -9439.7002 -7669.4603 299.3867 -588.3780 -508.8922 30283.8853 -588.3780 -508.8922
ENERGY: 300000 2.6836 2.6163 0.1923 0.0000 -10728.6264 1411.7983 0.0000 0.0000 1776.6913 -7534.6445 300.4778 -9311.3358 -7531.1908 302.4756 -344.8061 -233.9682 30378.6928 -176.8919 -87.6175
ENERGY: 600000 2.7282 3.6467 0.4404 0.0000 -10825.2940 1517.9210 0.0000 0.0000 1751.6456 -7548.9121 296.2420 -9300.5577 -7519.3143 302.1021 316.9182 361.3371 30732.7217 19.8026 97.6657
ENERGY: 900000 0.3631 2.7887 0.0469 0.0000 -10704.0002 1403.0623 0.0000 0.0000 1811.3179 -7486.4212 306.3339 -9297.7392 -7532.1066 301.5898 -285.1186 -242.8502 30311.7038 -58.6704 15.4325
ENERGY: 1200000 3.5052 3.1540 0.0415 0.0000 -10868.5658 1553.4189 0.0000 0.0000 1801.0294 -7507.4167 304.5939 -9308.4461 -7520.9902 302.4661 806.6207 833.9882 30448.0522 -10.0566 55.3325
ENERGY: 1500000 1.9420 4.8840 0.0627 0.0000 -10855.8898 1505.7712 0.0000 0.0000 1825.9089 -7517.3210 308.8016 -9343.2298 -7525.7114 301.9641 184.0995 247.1408 30612.1281 30.1840 98.9625
TCL: Running FEP window   4: Lambda1 0.15000000000000002 Lambda2 0.2    [dLambda 0.04999999999999999]
TCL: Setting parameter firsttimestep to 0
TCL: Setting parameter alchLambda to 0.15000000000000002
Info: NONBONDED TABLE R-SQUARED SPACING: 0.0625
Info: NONBONDED TABLE SIZE: 705 POINTS
TCL: Setting parameter alchLambda2 to 0.2
Info: NONBONDED TABLE R-SQUARED SPACING: 0.0625
Info: NONBONDED TABLE SIZE: 705 POINTS
TCL: Running for 1500000 steps
ETITLE: TS BOND ANGLE DIHED IMPRP ELECT VDW BOUNDARY MISC KINETIC TOTAL TEMP POTENTIAL TOTALAVG TEMPAVG PRESSURE GPRESSURE VOLUME PRESSAVG GPRESSAVG
ENERGY: 0 1.9420 4.8840 0.0627 0.0000 -10855.8880 1507.3747 0.0000 0.0000 1825.0543 -7516.5703 308.6571 -9341.6246 -7516.5703 308.6571 164.6382 254.2745 30612.1281 164.6382 254.2745
ENERGY: 300000 1.0558 2.7213 0.0886 0.0000 -10764.4444 1427.6356 0.0000 0.0000 1796.1218 -7536.8214 303.7639 -9332.9432 -7505.1522 302.5992 -197.6168 -143.8131 30640.4115 -122.9112 -40.1859
ENERGY: 600000 0.7456 2.0004 0.0923 0.0000 -10794.9165 1424.8039 0.0000 0.0000 1731.3042 -7635.9701 292.8019 -9367.2744 -7535.0899 299.1795 -413.6913 -294.6483 30493.7403 -139.2419 -60.8683
ENERGY: 900000 1.9645 1.3361 0.1374 0.0000 -10786.4359 1441.5514 0.0000 0.0000 1825.8499 -7515.5965 308.7916 -9341.4464 -7531.2919 300.8925 -139.6934 -58.5375 30614.7704 -30.4495 60.7829
ENERGY: 1200000 0.5895 2.4952 0.0570 0.0000 -10667.2394 1366.6094 0.0000 0.0000 1765.8963 -7531.5920 298.6521 -9297.4882 -7532.2026 300.6148 -654.7205 -585.3901 30786.3590 -55.2954 29.1065
ENERGY: 1500000 1.1795 1.5462 0.0915 0.0000 -10715.7526 1467.3327 0.0000 0.0000 1786.4156 -7459.1871 302.1224 -9245.6026 -7538.0035 300.4893 172.5925 228.9755 30990.4788 -38.2441 39.8452
TCL: Running FEP window   5: Lambda1 0.2    Lambda2 0.25   [dLambda 0.04999999999999999]
TCL: Setting parameter firsttimestep to 0
TCL: Setting parameter alchLambda to 0.2
Info: NONBONDED TABLE R-SQUARED SPACING: 0.0625
Info: NONBONDED TABLE SIZE: 705 POINTS
TCL: Setting parameter alchLambda2 to 0.25
Info: NONBONDED TABLE R-SQUARED SPACING: 0.0625
Info: NONBONDED TABLE SIZE: 705 POINTS
TCL: Running for 1500000 steps
ETITLE: TS BOND ANGLE DIHED IMPRP ELECT VDW BOUNDARY MISC KINETIC TOTAL TEMP POTENTIAL TOTALAVG TEMPAVG PRESSURE GPRESSURE VOLUME PRESSAVG GPRESSAVG
ENERGY: 0 1.1795 1.5462 0.0915 0.0000 -10715.7512 1467.2688 0.0000 0.0000 1785.5147 -7460.1506 301.9700 -9245.6653 -7460.1506 301.9700 154.0779 231.2077 30990.4788 154.0779 231.2077
ENERGY: 300000 2.8966 5.7089 0.6129 0.0000 -10873.2772 1550.7700 0.0000 0.0000 1786.3376 -7526.9512 302.1092 -9313.2888 -7531.3445 302.8045 700.0721 783.8686 30473.4059 -17.9756 43.2643
ENERGY: 600000 1.5322 2.7041 0.1978 0.0000 -10854.9986 1468.0967 0.0000 0.0000 1814.9823 -7567.4856 306.9537 -9382.4679 -7538.9432 304.0790 101.3914 149.4055 30483.0577 187.0974 247.4642
ENERGY: 900000 0.8908 3.2504 0.0704 0.0000 -10738.7955 1418.4262 0.0000 0.0000 1749.7324 -7566.4252 295.9185 -9316.1577 -7538.3161 303.6402 -128.4024 -42.5064 30301.8238 265.0857 320.0871
ENERGY: 1200000 1.9732 2.4848 0.0773 0.0000 -10733.0724 1437.3926 0.0000 0.0000 1746.6794 -7544.4651 295.4021 -9291.1445 -7546.0302 301.0377 -56.1721 -27.6019 30554.7689 130.0559 187.8979
ENERGY: 1500000 3.1471 3.0029 0.0335 0.0000 -10925.1167 1531.3294 0.0000 0.0000 1789.0397 -7598.5641 302.5662 -9387.6038 -7548.0084 301.3917 154.0423 215.8811 30547.9227 87.6298 146.0754
TCL: Running FEP window   6: Lambda1 0.25   Lambda2 0.3    [dLambda 0.04999999999999999]
TCL: Setting parameter firsttimestep to 0
TCL: Setting parameter alchLambda to 0.25
Info: NONBONDED TABLE R-SQUARED SPACING: 0.0625
Info: NONBONDED TABLE SIZE: 705 POINTS
TCL: Setting parameter alchLambda2 to 0.3
Info: NONBONDED TABLE R-SQUARED SPACING: 0.0625
Info: NONBONDED TABLE SIZE: 705 POINTS
TCL: Running for 1500000 steps
ETITLE: TS BOND ANGLE DIHED IMPRP ELECT VDW BOUNDARY MISC KINETIC TOTAL TEMP POTENTIAL TOTALAVG TEMPAVG PRESSURE GPRESSURE VOLUME PRESSAVG GPRESSAVG
ENERGY: 0 3.1471 3.0029 0.0335 0.0000 -10925.1154 1531.5144 0.0000 0.0000 1788.1746 -7599.2429 302.4199 -9387.4175 -7599.2429 302.4199 126.8746 220.3927 30547.9227 126.8746 220.3927
ENERGY: 300000 0.9702 2.1767 0.0946 0.0000 -10799.5013 1481.9813 0.0000 0.0000 1738.9850 -7575.2936 294.1008 -9314.2785 -7621.0683 298.8409 202.8016 254.7966 30614.8930 69.6000 142.3708
ENERGY: 600000 1.7001 1.2964 0.1897 0.0000 -10851.5887 1528.8236 0.0000 0.0000 1768.1991 -7551.3799 299.0416 -9319.5790 -7597.1734 299.2511 790.7321 871.4896 30402.1426 42.5702 111.5336
ENERGY: 900000 1.4638 3.0430 0.0809 0.0000 -10870.0999 1496.6234 0.0000 0.0000 1745.1893 -7623.6996 295.1501 -9368.8889 -7582.1904 299.6461 215.1039 263.9107 30457.2685 17.7435 77.4833
ENERGY: 1200000 0.9678 2.5194 0.4149 0.0000 -10729.6567 1403.1437 0.0000 0.0000 1792.2064 -7530.4046 303.1018 -9322.6110 -7583.1106 299.0925 -186.7482 -119.7544 30173.0874 16.8860 81.6204
ENERGY: 1500000 1.3858 2.3664 0.1398 0.0000 -10718.0091 1369.3983 0.0000 0.0000 1724.6147 -7620.1041 291.6705 -9344.7188 -7590.9893 297.9274 -754.3659 -619.9455 30543.5788 -97.2802 -27.3266
TCL: Running FEP window   7: Lambda1 0.3    Lambda2 0.35   [dLambda 0.04999999999999999]
TCL: Setting parameter firsttimestep to 0
TCL: Setting parameter alchLambda to 0.3
Info: NONBONDED TABLE R-SQUARED SPACING: 0.0625
Info: NONBONDED TABLE SIZE: 705 POINTS
TCL: Setting parameter alchLambda2 to 0.35
Info: NONBONDED TABLE R-SQUARED SPACING: 0.0625
Info: NONBONDED TABLE SIZE: 705 POINTS
TCL: Running for 1500000 steps
ETITLE: TS BOND ANGLE DIHED IMPRP ELECT VDW BOUNDARY MISC KINETIC TOTAL TEMP POTENTIAL TOTALAVG TEMPAVG PRESSURE GPRESSURE VOLUME PRESSAVG GPRESSAVG
ENERGY: 0 1.3858 2.3664 0.1398 0.0000 -10718.0106 1369.9105 0.0000 0.0000 1723.7268 -7620.4813 291.5204 -9344.2082 -7620.4813 291.5204 -705.0368 -613.8093 30543.5788 -705.0368 -613.8093
ENERGY: 300000 0.8415 4.1466 0.1865 0.0000 -10721.9184 1502.5671 0.0000 0.0000 1783.9639 -7430.2128 301.7078 -9214.1767 -7548.3539 300.1769 603.5230 686.8902 30699.9798 15.7562 82.0948
ENERGY: 600000 1.9450 2.2447 0.0462 0.0000 -10729.9388 1417.5588 0.0000 0.0000 1802.2233 -7505.9208 304.7958 -9308.1441 -7544.7418 301.8291 -381.4348 -291.2229 30848.7818 -59.5912 17.1587
ENERGY: 900000 2.2101 2.4311 0.1399 0.0000 -10882.5503 1505.7915 0.0000 0.0000 1766.8109 -7605.1668 298.8068 -9371.9777 -7562.7250 300.4933 268.1140 261.3049 30493.4674 -109.1848 -51.7339
ENERGY: 1200000 1.7973 0.9059 0.0472 0.0000 -10800.7010 1456.4844 0.0000 0.0000 1723.0460 -7618.4202 291.4052 -9341.4662 -7559.9846 300.3191 183.5448 198.0061 30083.6200 -42.4290 8.6363
ENERGY: 1500000 1.0362 3.3658 0.2673 0.0000 -10847.2045 1450.0335 0.0000 0.0000 1757.0696 -7635.4321 297.1593 -9392.5017 -7571.1573 299.6777 24.7512 134.6053 30111.3504 -45.0049 7.1643
TCL: Running FEP window   8: Lambda1 0.35   Lambda2 0.39999999999999997 [dLambda 0.04999999999999999]
TCL: Setting parameter firsttimestep to 0
TCL: Setting parameter alchLambda to 0.35
Info: NONBONDED TABLE R-SQUARED SPACING: 0.0625
Info: NONBONDED TABLE SIZE: 705 POINTS
TCL: Setting parameter alchLambda2 to 0.39999999999999997
Info: NONBONDED TABLE R-SQUARED SPACING: 0.0625
Info: NONBONDED TABLE SIZE: 705 POINTS
TCL: Running for 1500000 steps
ETITLE: TS BOND ANGLE DIHED IMPRP ELECT VDW BOUNDARY MISC KINETIC TOTAL TEMP POTENTIAL TOTALAVG TEMPAVG PRESSURE GPRESSURE VOLUME PRESSAVG GPRESSAVG
ENERGY: 0 1.0362 3.3658 0.2673 0.0000 -10847.2043 1450.3002 0.0000 0.0000 1756.1742 -7636.0606 297.0079 -9392.2348 -7636.0606 297.0079 55.2172 141.7229 30111.3504 55.2172 141.7229
ENERGY: 300000 2.5163 4.4043 0.6433 0.0000 -10889.0869 1500.9565 0.0000 0.0000 1832.5707 -7547.9957 309.9283 -9380.5664 -7559.4343 304.5812 387.0078 452.4369 30419.5290 76.2180 132.3696
ENERGY: 600000 2.0724 2.7779 0.1273 0.0000 -10716.1772 1410.2136 0.0000 0.0000 1811.3197 -7489.6662 306.3342 -9300.9860 -7539.5581 304.4939 -550.3726 -378.1778 30993.0609 67.6507 129.6718
ENERGY: 900000 1.2184 2.1273 0.0709 0.0000 -10894.4309 1481.1723 0.0000 0.0000 1795.8852 -7613.9568 303.7239 -9409.8419 -7554.9947 303.7300 -67.6417 -14.8387 30740.8862 -72.9666 -9.8924
ENERGY: 1200000 1.3114 2.2161 0.1251 0.0000 -10847.0777 1491.8947 0.0000 0.0000 1720.3947 -7631.1358 290.9568 -9351.5304 -7558.5973 302.7024 258.1907 335.0310 30459.2664 -87.8165 -24.9611
ENERGY: 1500000 1.5047 1.5638 0.0898 0.0000 -10842.9750 1474.2425 0.0000 0.0000 1740.3648 -7625.2094 294.3342 -9365.5742 -7568.9131 301.3950 -141.4561 -54.9665 30704.5740 -99.6380 -36.7743
TCL: Running FEP window   9: Lambda1 0.39999999999999997 Lambda2 0.44999999999999996 [dLambda 0.04999999999999999]
TCL: Setting parameter firsttimestep to 0
TCL: Setting parameter alchLambda to 0.39999999999999997
Info: NONBONDED TABLE R-SQUARED SPACING: 0.0625
Info: NONBONDED TABLE SIZE: 705 POINTS
TCL: Setting parameter alchLambda2 to 0.44999999999999996
Info: NONBONDED TABLE R-SQUARED SPACING: 0.0625
Info: NONBONDED TABLE SIZE: 705 POINTS
TCL: Running for 1500000 steps
ETITLE: TS BOND ANGLE DIHED IMPRP ELECT VDW BOUNDARY MISC KINETIC TOTAL TEMP POTENTIAL TOTALAVG TEMPAVG PRESSURE GPRESSURE VOLUME PRESSAVG GPRESSAVG
ENERGY: 0 1.5047 1.5638 0.0898 0.0000 -10842.9757 1473.8916 0.0000 0.0000 1739.4982 -7626.4277 294.1876 -9365.9259 -7626.4277 294.1876 -146.0275 -51.6389 30704.5740 -146.0275 -51.6389
ENERGY: 300000 0.9748 1.6356 0.2602 0.0000 -10857.1854 1482.2784 0.0000 0.0000 1782.0861 -7589.9504 301.3902 -9372.0365 -7572.5710 299.0996 131.1044 140.5255 30495.7391 50.7358 96.0368
ENERGY: 600000 2.2765 3.3258 0.0388 0.0000 -10732.1338 1377.7762 0.0000 0.0000 1761.3935 -7587.3231 297.8906 -9348.7165 -7574.6963 298.5035 -625.5144 -576.2593 30581.6426 114.9906 158.2198
ENERGY: 900000 1.7447 4.5246 0.0805 0.0000 -10750.4468 1459.2615 0.0000 0.0000 1748.7956 -7536.0400 295.7600 -9284.8356 -7560.6304 299.0620 35.0350 76.8349 30914.1107 41.2288 81.7001
ENERGY: 1200000 2.4868 2.1219 0.1027 0.0000 -10877.8032 1542.8689 0.0000 0.0000 1804.7810 -7525.4419 305.2284 -9330.2229 -7551.4549 299.9022 827.0754 922.0117 30373.2918 75.1167 123.3433
ENERGY: 1500000 1.4642 4.1312 0.1367 0.0000 -10781.2501 1460.0803 0.0000 0.0000 1821.2485 -7494.1892 308.0134 -9315.4377 -7550.0161 301.1256 -30.0826 36.0664 30801.6920 55.9071 110.1934
TCL: Running FEP window  10: Lambda1 0.44999999999999996 Lambda2 0.49999999999999994 [dLambda 0.04999999999999999]
TCL: Setting parameter firsttimestep to 0
TCL: Setting parameter alchLambda to 0.44999999999999996
Info: NONBONDED TABLE R-SQUARED SPACING: 0.0625
Info: NONBONDED TABLE SIZE: 705 POINTS
TCL: Setting parameter alchLambda2 to 0.49999999999999994
Info: NONBONDED TABLE R-SQUARED SPACING: 0.0625
Info: NONBONDED TABLE SIZE: 705 POINTS
TCL: Running for 1500000 steps
ETITLE: TS BOND ANGLE DIHED IMPRP ELECT VDW BOUNDARY MISC KINETIC TOTAL TEMP POTENTIAL TOTALAVG TEMPAVG PRESSURE GPRESSURE VOLUME PRESSAVG GPRESSAVG
ENERGY: 0 1.4642 4.1312 0.1367 0.0000 -10781.2493 1459.9321 0.0000 0.0000 1820.3265 -7495.2585 307.8575 -9315.5850 -7495.2585 307.8575 -49.3624 40.2363 30801.6920 -49.3624 40.2363
ENERGY: 300000 1.8941 3.3006 0.0586 0.0000 -10657.1741 1344.8911 0.0000 0.0000 1794.6444 -7512.3852 303.5141 -9307.0296 -7531.2184 303.5669 -697.8663 -612.6597 30740.0266 -78.6615 -7.0205
ENERGY: 600000 0.4641 4.2252 0.0439 0.0000 -10773.8077 1452.0585 0.0000 0.0000 1745.0304 -7571.9855 295.1233 -9317.0159 -7551.0422 301.0513 256.1067 375.1268 30252.1237 28.5015 92.1618
ENERGY: 900000 0.6788 1.7182 0.1579 0.0000 -10946.5884 1564.3871 0.0000 0.0000 1742.3750 -7637.2715 294.6742 -9379.6464 -7558.9868 299.1228 912.0971 919.8119 30193.0799 -5.0344 61.8782
ENERGY: 1200000 2.1937 2.2285 0.1059 0.0000 -10752.1006 1478.1967 0.0000 0.0000 1785.6527 -7483.7231 301.9934 -9269.3757 -7550.6607 300.9109 374.9962 457.1351 30641.7718 39.4590 103.6271
ENERGY: 1500000 0.7999 1.7403 0.0638 0.0000 -10887.3345 1555.7445 0.0000 0.0000 1821.9626 -7507.0233 308.1342 -9328.9859 -7544.9305 301.4138 1115.5577 1147.7872 30042.7734 183.6071 247.2199
TCL: Running FEP window  11: Lambda1 0.49999999999999994 Lambda2 0.5499999999999999 [dLambda 0.04999999999999999]
TCL: Setting parameter firsttimestep to 0
TCL: Setting parameter alchLambda to 0.49999999999999994
Info: NONBONDED TABLE R-SQUARED SPACING: 0.0625
Info: NONBONDED TABLE SIZE: 705 POINTS
TCL: Setting parameter alchLambda2 to 0.5499999999999999
Info: NONBONDED TABLE R-SQUARED SPACING: 0.0625
Info: NONBONDED TABLE SIZE: 705 POINTS
TCL: Running for 1500000 steps
ETITLE: TS BOND ANGLE DIHED IMPRP ELECT VDW BOUNDARY MISC KINETIC TOTAL TEMP POTENTIAL TOTALAVG TEMPAVG PRESSURE GPRESSURE VOLUME PRESSAVG GPRESSAVG
ENERGY: 0 0.7999 1.7403 0.0638 0.0000 -10887.3342 1555.7837 0.0000 0.0000 1821.0742 -7507.8722 307.9840 -9328.9464 -7507.8722 307.9840 1059.6359 1158.5959 30042.7734 1059.6359 1158.5959
ENERGY: 300000 0.6289 3.2591 0.1628 0.0000 -10774.2463 1431.7327 0.0000 0.0000 1770.1198 -7568.3430 299.3664 -9338.4628 -7539.4319 301.0037 -312.9947 -224.0145 30654.1511 106.0417 188.1556
ENERGY: 600000 1.3816 1.9066 0.0529 0.0000 -10894.6285 1499.0929 0.0000 0.0000 1776.7679 -7615.4267 300.4908 -9392.1946 -7567.6048 300.0586 148.7077 189.7911 30580.3184 111.1827 162.9410
ENERGY: 900000 1.8872 2.7386 0.0480 0.0000 -10563.7061 1358.8060 0.0000 0.0000 1762.4377 -7437.7887 298.0672 -9200.2263 -7542.5585 301.5940 -619.3747 -508.3021 31075.4058 5.1536 68.2051
ENERGY: 1200000 2.0047 4.3028 0.0327 0.0000 -10694.5007 1374.5543 0.0000 0.0000 1792.8562 -7520.7500 303.2117 -9313.6062 -7548.5008 301.4846 -785.8764 -762.9103 31166.0672 7.2685 66.3069
ENERGY: 1500000 1.7193 2.0609 0.0662 0.0000 -10843.2899 1429.5574 0.0000 0.0000 1792.4391 -7617.4470 303.1411 -9409.8861 -7559.8900 300.7663 -381.6558 -256.8394 30441.6418 -47.6001 17.3194
TCL: Running FEP window  12: Lambda1 0.5499999999999999 Lambda2 0.6    [dLambda 0.050000000000000044]
TCL: Setting parameter firsttimestep to 0
TCL: Setting parameter alchLambda to 0.5499999999999999
Info: NONBONDED TABLE R-SQUARED SPACING: 0.0625
Info: NONBONDED TABLE SIZE: 705 POINTS
TCL: Setting parameter alchLambda2 to 0.6
Info: NONBONDED TABLE R-SQUARED SPACING: 0.0625
Info: NONBONDED TABLE SIZE: 705 POINTS
TCL: Running for 1500000 steps
ETITLE: TS BOND ANGLE DIHED IMPRP ELECT VDW BOUNDARY MISC KINETIC TOTAL TEMP POTENTIAL TOTALAVG TEMPAVG PRESSURE GPRESSURE VOLUME PRESSAVG GPRESSAVG
ENERGY: 0 1.7193 2.0609 0.0662 0.0000 -10843.4136 1429.5164 0.0000 0.0000 1791.5326 -7618.5181 302.9878 -9410.0507 -7618.5181 302.9878 -334.4367 -251.1832 30441.6418 -334.4367 -251.1832
ENERGY: 300000 1.2438 1.4577 0.1237 0.0000 -10799.6078 1473.0447 0.0000 0.0000 1774.9803 -7548.7576 300.1885 -9323.7379 -7575.4040 300.5372 140.7002 206.9451 30530.4254 100.0332 156.3017
ENERGY: 600000 1.6784 3.2577 0.0192 0.0000 -10675.5722 1367.4960 0.0000 0.0000 1791.9806 -7511.1402 303.0636 -9303.1208 -7561.4900 300.7644 -763.5465 -667.0084 31178.9359 -156.4091 -93.9798
ENERGY: 900000 1.9508 3.7820 0.0175 0.0000 -10650.0882 1384.1250 0.0000 0.0000 1780.6429 -7479.5700 301.1461 -9260.2128 -7555.9461 299.7452 -244.5143 -178.3516 30493.3853 -126.8654 -67.0230
ENERGY: 1200000 3.7058 1.6669 0.0830 0.0000 -10758.2737 1414.7786 0.0000 0.0000 1782.3395 -7555.6999 301.4331 -9338.0395 -7560.0487 299.4598 -382.0918 -309.5441 30662.6638 -203.5798 -141.5148
ENERGY: 1500000 1.9275 3.4603 0.0935 0.0000 -10716.6122 1355.9217 0.0000 0.0000 1737.9436 -7617.2656 293.9247 -9355.2092 -7566.4242 298.8039 -957.5933 -924.9273 30877.6026 -195.6600 -135.5697
TCL: Running FEP window  13: Lambda1 0.6    Lambda2 0.65   [dLambda 0.050000000000000044]
TCL: Setting parameter firsttimestep to 0
TCL: Setting parameter alchLambda to 0.6
Info: NONBONDED TABLE R-SQUARED SPACING: 0.0625
Info: NONBONDED TABLE SIZE: 705 POINTS
TCL: Setting parameter alchLambda2 to 0.65
Info: NONBONDED TABLE R-SQUARED SPACING: 0.0625
Info: NONBONDED TABLE SIZE: 705 POINTS
TCL: Running for 1500000 steps
ETITLE: TS BOND ANGLE DIHED IMPRP ELECT VDW BOUNDARY MISC KINETIC TOTAL TEMP POTENTIAL TOTALAVG TEMPAVG PRESSURE GPRESSURE VOLUME PRESSAVG GPRESSAVG
ENERGY: 0 1.9275 3.4603 0.0935 0.0000 -10716.4266 1355.7218 0.0000 0.0000 1737.0421 -7618.1814 293.7723 -9355.2235 -7618.1814 293.7723 -1016.1654 -924.0702 30877.6026 -1016.1654 -924.0702
ENERGY: 300000 2.6361 3.8728 0.0404 0.0000 -10830.7854 1488.1414 0.0000 0.0000 1708.5005 -7627.5943 288.9452 -9336.0947 -7576.1452 297.5035 100.6476 155.2181 30604.1735 -386.5678 -335.3589
ENERGY: 600000 1.7424 2.3280 0.0641 0.0000 -10887.6136 1521.5984 0.0000 0.0000 1762.8289 -7599.0519 298.1334 -9361.8808 -7588.3951 300.4362 552.9492 624.6075 30377.3192 -214.4067 -156.7252
ENERGY: 900000 1.9796 4.5138 0.0401 0.0000 -10695.4200 1404.8940 0.0000 0.0000 1771.2207 -7512.7717 299.5526 -9283.9924 -7560.3687 301.5268 -241.9825 -217.8422 30779.3008 -142.6578 -83.1020
ENERGY: 1200000 1.4819 5.2051 0.0976 0.0000 -10696.7430 1451.5108 0.0000 0.0000 1752.9459 -7485.5016 296.4619 -9238.4475 -7557.5162 300.7828 252.8141 277.0052 30862.1031 -176.2143 -125.1147
ENERGY: 1500000 1.7431 4.0664 0.0841 0.0000 -10710.0231 1438.6620 0.0000 0.0000 1802.1405 -7463.3271 304.7818 -9265.4676 -7550.4656 300.4619 266.3904 322.3897 30417.8015 -156.4631 -100.5893
TCL: Running FEP window  14: Lambda1 0.65   Lambda2 0.7000000000000001 [dLambda 0.050000000000000044]
TCL: Setting parameter firsttimestep to 0
TCL: Setting parameter alchLambda to 0.65
Info: NONBONDED TABLE R-SQUARED SPACING: 0.0625
Info: NONBONDED TABLE SIZE: 705 POINTS
TCL: Setting parameter alchLambda2 to 0.7000000000000001
Info: NONBONDED TABLE R-SQUARED SPACING: 0.0625
Info: NONBONDED TABLE SIZE: 705 POINTS
TCL: Running for 1500000 steps
ETITLE: TS BOND ANGLE DIHED IMPRP ELECT VDW BOUNDARY MISC KINETIC TOTAL TEMP POTENTIAL TOTALAVG TEMPAVG PRESSURE GPRESSURE VOLUME PRESSAVG GPRESSAVG
ENERGY: 0 1.7431 4.0664 0.0841 0.0000 -10710.3676 1438.6596 0.0000 0.0000 1801.2925 -7464.5219 304.6384 -9265.8144 -7464.5219 304.6384 252.8758 330.0164 30417.8015 252.8758 330.0164
ENERGY: 300000 2.0992 3.9059 0.0629 0.0000 -10981.0403 1519.1847 0.0000 0.0000 1727.0340 -7728.7536 292.0797 -9455.7875 -7561.9453 301.9520 462.3633 513.1113 29956.9153 135.6983 195.9558
ENERGY: 600000 2.1125 3.2392 0.1576 0.0000 -10693.1551 1371.3388 0.0000 0.0000 1765.8882 -7550.4188 298.6508 -9316.3070 -7584.2455 300.6887 -577.6277 -507.8976 30809.9062 -107.9225 -38.3077
ENERGY: 900000 2.6197 2.1262 0.0208 0.0000 -10853.2129 1521.3568 0.0000 0.0000 1767.6801 -7559.4093 298.9538 -9327.0895 -7587.2483 299.6763 483.7539 518.8023 30584.6393 -6.2340 60.0179
ENERGY: 1200000 0.9133 3.5120 0.0780 0.0000 -10841.4867 1438.2228 0.0000 0.0000 1748.9597 -7649.8010 295.7878 -9398.7607 -7587.3330 299.3927 44.6186 35.4057 30140.3719 68.1190 124.2962
ENERGY: 1500000 2.1184 4.6948 0.2692 0.0000 -10703.5445 1395.0564 0.0000 0.0000 1752.2241 -7549.1816 296.3399 -9301.4057 -7581.7610 299.3385 -450.2752 -389.0791 30910.8924 82.9427 141.3565
TCL: Running FEP window  15: Lambda1 0.7000000000000001 Lambda2 0.7500000000000001 [dLambda 0.050000000000000044]
TCL: Setting parameter firsttimestep to 0
TCL: Setting parameter alchLambda to 0.7000000000000001
Info: NONBONDED TABLE R-SQUARED SPACING: 0.0625
Info: NONBONDED TABLE SIZE: 705 POINTS
TCL: Setting parameter alchLambda2 to 0.7500000000000001
Info: NONBONDED TABLE R-SQUARED SPACING: 0.0625
Info: NONBONDED TABLE SIZE: 705 POINTS
TCL: Running for 1500000 steps
ETITLE: TS BOND ANGLE DIHED IMPRP ELECT VDW BOUNDARY MISC KINETIC TOTAL TEMP POTENTIAL TOTALAVG TEMPAVG PRESSURE GPRESSURE VOLUME PRESSAVG GPRESSAVG
ENERGY: 0 2.1184 4.6948 0.2692 0.0000 -10703.8230 1394.8418 0.0000 0.0000 1751.3345 -7550.5643 296.1894 -9301.8988 -7550.5643 296.1894 -477.8604 -383.9201 30910.8924 -477.8604 -383.9201
ENERGY: 300000 2.9242 3.0149 0.0549 0.0000 -10858.7545 1482.3481 0.0000 0.0000 1814.3407 -7556.0716 306.8452 -9370.4123 -7554.4748 300.9029 283.3412 352.2039 30334.7720 118.1784 177.0442
ENERGY: 600000 1.7567 4.0605 0.0430 0.0000 -10726.4628 1427.8616 0.0000 0.0000 1780.1864 -7512.5547 301.0689 -9292.7411 -7542.9905 298.9599 -10.9951 152.6707 30411.5124 28.9000 98.1301
ENERGY: 900000 0.7135 1.3701 0.0263 0.0000 -10796.5913 1439.1472 0.0000 0.0000 1709.9744 -7645.3599 289.1945 -9355.3343 -7560.6239 297.9255 -103.4838 6.3546 30332.0028 -75.5792 -1.3114
ENERGY: 1200000 0.7393 1.3571 0.1148 0.0000 -10818.5025 1506.5140 0.0000 0.0000 1795.0319 -7514.7453 303.5796 -9309.7772 -7552.6294 299.5307 443.1023 563.6332 30579.9649 -48.5274 22.0367
ENERGY: 1500000 2.3276 0.7365 0.2742 0.0000 -10924.2757 1520.7304 0.0000 0.0000 1807.5489 -7592.6581 305.6965 -9400.2069 -7559.7991 300.0647 308.4545 398.1017 30802.0981 -69.8408 -3.7833
TCL: Running FEP window  16: Lambda1 0.7500000000000001 Lambda2 0.8000000000000002 [dLambda 0.050000000000000044]
TCL: Setting parameter firsttimestep to 0
TCL: Setting parameter alchLambda to 0.7500000000000001
Info: NONBONDED TABLE R-SQUARED SPACING: 0.0625
Info: NONBONDED TABLE SIZE: 705 POINTS
TCL: Setting parameter alchLambda2 to 0.8000000000000002
Info: NONBONDED TABLE R-SQUARED SPACING: 0.0625
Info: NONBONDED TABLE SIZE: 705 POINTS
TCL: Running for 1500000 steps
ETITLE: TS BOND ANGLE DIHED IMPRP ELECT VDW BOUNDARY MISC KINETIC TOTAL TEMP POTENTIAL TOTALAVG TEMPAVG PRESSURE GPRESSURE VOLUME PRESSAVG GPRESSAVG
ENERGY: 0 2.3276 0.7365 0.2742 0.0000 -10924.4239 1520.7001 0.0000 0.0000 1806.7250 -7593.6604 305.5572 -9400.3854 -7593.6604 305.5572 326.8776 407.9422 30802.0981 326.8776 407.9422
ENERGY: 300000 0.9563 3.3392 0.0786 0.0000 -10804.1053 1504.0433 0.0000 0.0000 1711.7386 -7583.9493 289.4929 -9295.6879 -7568.2281 301.6623 120.2430 220.1366 31054.8042 358.6857 428.1444
ENERGY: 600000 1.0032 4.6844 0.2324 0.0000 -10757.4621 1484.6548 0.0000 0.0000 1825.8407 -7441.0466 308.7901 -9266.8873 -7544.4435 301.6294 338.7599 396.1646 30934.5506 151.9304 207.4963
ENERGY: 900000 4.5952 2.8780 0.0273 0.0000 -10840.6358 1544.7337 0.0000 0.0000 1829.0083 -7459.3933 309.3258 -9288.4017 -7527.5543 302.9022 941.6120 880.6788 30709.2723 132.1944 179.3763
ENERGY: 1200000 2.1960 2.7366 0.2335 0.0000 -10678.4548 1433.8242 0.0000 0.0000 1789.8625 -7449.6021 302.7054 -9239.4646 -7535.2131 302.5565 240.5203 301.4913 30620.6032 173.6977 223.9456
ENERGY: 1500000 2.5441 3.4766 0.1845 0.0000 -10821.8560 1452.8836 0.0000 0.0000 1758.7560 -7604.0111 297.4446 -9362.7671 -7539.2316 303.1328 103.1774 158.9665 30305.6392 211.3173 264.5254
TCL: Running FEP window  17: Lambda1 0.8000000000000002 Lambda2 0.8500000000000002 [dLambda 0.050000000000000044]
TCL: Setting parameter firsttimestep to 0
TCL: Setting parameter alchLambda to 0.8000000000000002
Info: NONBONDED TABLE R-SQUARED SPACING: 0.0625
Info: NONBONDED TABLE SIZE: 705 POINTS
TCL: Setting parameter alchLambda2 to 0.8500000000000002
Info: NONBONDED TABLE R-SQUARED SPACING: 0.0625
Info: NONBONDED TABLE SIZE: 705 POINTS
TCL: Running for 1500000 steps
ETITLE: TS BOND ANGLE DIHED IMPRP ELECT VDW BOUNDARY MISC KINETIC TOTAL TEMP POTENTIAL TOTALAVG TEMPAVG PRESSURE GPRESSURE VOLUME PRESSAVG GPRESSAVG
ENERGY: 0 2.5441 3.4766 0.1845 0.0000 -10822.3242 1453.8024 0.0000 0.0000 1757.8693 -7604.4473 297.2946 -9362.3166 -7604.4473 297.2946 99.1500 177.6134 30305.6392 99.1500 177.6134
ENERGY: 300000 0.6206 5.4865 0.1265 0.0000 -10821.7158 1426.6287 0.0000 0.0000 1827.1100 -7561.7435 309.0047 -9388.8535 -7551.9185 305.4734 -244.8301 -212.4777 30564.4537 -151.2622 -110.0029
ENERGY: 600000 2.3057 1.9954 0.0328 0.0000 -10794.4282 1456.8058 0.0000 0.0000 1796.0096 -7537.2788 303.7450 -9333.2885 -7562.8184 304.2370 3.1448 57.0695 31034.9529 -21.0879 14.1842
ENERGY: 900000 3.7070 3.4775 0.0717 0.0000 -10829.9143 1468.2737 0.0000 0.0000 1744.6170 -7609.7674 295.0533 -9354.3843 -7561.8700 301.9882 -30.0903 -1.5677 30940.5177 -10.7931 27.5654
ENERGY: 1200000 0.7750 2.5211 0.0175 0.0000 -10685.9068 1350.1582 0.0000 0.0000 1814.6642 -7517.7708 306.8999 -9332.4350 -7554.6919 301.9510 -836.5349 -786.8646 30832.9916 -65.5489 -33.8483
ENERGY: 1500000 1.8766 1.6856 0.0601 0.0000 -10903.4319 1519.0818 0.0000 0.0000 1766.1945 -7614.5333 298.7026 -9380.7278 -7557.3160 302.0023 498.5872 577.6816 30120.2277 11.3136 50.0985
TCL: Running FEP window  18: Lambda1 0.8500000000000002 Lambda2 0.9000000000000002 [dLambda 0.050000000000000044]
TCL: Setting parameter firsttimestep to 0
TCL: Setting parameter alchLambda to 0.8500000000000002
Info: NONBONDED TABLE R-SQUARED SPACING: 0.0625
Info: NONBONDED TABLE SIZE: 705 POINTS
TCL: Setting parameter alchLambda2 to 0.9000000000000002
Info: NONBONDED TABLE R-SQUARED SPACING: 0.0625
Info: NONBONDED TABLE SIZE: 705 POINTS
TCL: Running for 1500000 steps
ETITLE: TS BOND ANGLE DIHED IMPRP ELECT VDW BOUNDARY MISC KINETIC TOTAL TEMP POTENTIAL TOTALAVG TEMPAVG PRESSURE GPRESSURE VOLUME PRESSAVG GPRESSAVG
ENERGY: 0 1.8767 1.6856 0.0601 0.0000 -10903.8643 1519.0963 0.0000 0.0000 1765.3107 -7615.8350 298.5531 -9381.1457 -7615.8350 298.5531 521.5098 589.9352 30120.2277 521.5098 589.9352
ENERGY: 300000 0.6958 2.4078 0.0281 0.0000 -10802.3321 1490.9868 0.0000 0.0000 1813.7305 -7494.4831 306.7420 -9308.2136 -7585.6840 300.9438 323.2995 330.0595 30888.0385 63.4420 98.6454
ENERGY: 600000 0.4915 5.7000 0.8577 0.0000 -10901.7992 1541.1892 0.0000 0.0000 1812.0211 -7541.5397 306.4529 -9353.5609 -7566.7645 300.2757 730.6855 750.7508 30550.4942 70.7963 104.1386
ENERGY: 900000 0.9163 5.0877 0.0702 0.0000 -10697.0778 1414.5794 0.0000 0.0000 1785.0697 -7491.3545 301.8948 -9276.4242 -7563.1982 300.0328 -56.7134 0.9199 30692.9000 41.8537 78.8103
ENERGY: 1200000 1.1568 2.3051 0.0849 0.0000 -10879.8501 1530.3495 0.0000 0.0000 1781.1770 -7564.7767 301.2364 -9345.9537 -7559.1401 300.4779 815.2331 921.0963 30226.3256 55.2875 100.3709
ENERGY: 1500000 2.3202 2.5748 0.0195 0.0000 -10755.5399 1464.6561 0.0000 0.0000 1763.9989 -7521.9705 298.3312 -9285.9694 -7563.6933 299.7589 203.7659 232.1408 30827.4528 95.8552 146.0857
TCL: Running FEP window  19: Lambda1 0.9000000000000002 Lambda2 0.9500000000000003 [dLambda 0.050000000000000044]
TCL: Setting parameter firsttimestep to 0
TCL: Setting parameter alchLambda to 0.9000000000000002
Info: NONBONDED TABLE R-SQUARED SPACING: 0.0625
Info: NONBONDED TABLE SIZE: 705 POINTS
TCL: Setting parameter alchLambda2 to 0.9500000000000003
Info: NONBONDED TABLE R-SQUARED SPACING: 0.0625
Info: NONBONDED TABLE SIZE: 705 POINTS
TCL: Running for 1500000 steps
ETITLE: TS BOND ANGLE DIHED IMPRP ELECT VDW BOUNDARY MISC KINETIC TOTAL TEMP POTENTIAL TOTALAVG TEMPAVG PRESSURE GPRESSURE VOLUME PRESSAVG GPRESSAVG
ENERGY: 0 2.3202 2.5748 0.0195 0.0000 -10755.7479 1464.7161 0.0000 0.0000 1763.1291 -7522.9884 298.1841 -9286.1174 -7522.9884 298.1841 167.4576 239.2630 30827.4528 167.4576 239.2630
ENERGY: 300000 0.6389 3.1631 0.0601 0.0000 -10795.2526 1427.5083 0.0000 0.0000 1761.7269 -7602.1552 297.9470 -9363.8822 -7580.8383 297.5151 -354.5604 -294.4164 30873.4737 143.4118 215.1899
ENERGY: 600000 2.3315 6.1889 0.0488 0.0000 -10774.1144 1427.1257 0.0000 0.0000 1770.5054 -7567.9141 299.4316 -9338.4194 -7572.6987 295.8883 -118.5715 -75.2309 30747.4760 -33.2596 28.5002
ENERGY: 900000 1.7304 3.5493 0.7360 0.0000 -10684.6475 1322.8477 0.0000 0.0000 1819.5099 -7536.2742 307.7194 -9355.7841 -7566.7084 297.8512 -971.5795 -938.3382 30855.1770 -131.0138 -75.7328
ENERGY: 1200000 3.3540 1.1842 0.0331 0.0000 -10852.6618 1462.5918 0.0000 0.0000 1729.6250 -7655.8738 292.5179 -9385.4988 -7574.1186 297.6153 -274.3549 -193.3048 30867.2454 -254.2635 -195.2349
ENERGY: 1500000 2.0056 1.3744 0.1606 0.0000 -10804.6994 1442.5857 0.0000 0.0000 1748.4001 -7610.1729 295.6932 -9358.5731 -7581.0513 298.1938 -80.1478 -25.4532 30634.5903 -266.7133 -206.9096
TCL: Running FEP window  20: Lambda1 0.9500000000000003 Lambda2 1.0    [dLambda 0.04999999999999971]
TCL: Setting parameter firsttimestep to 0
TCL: Setting parameter alchLambda to 0.9500000000000003
Info: NONBONDED TABLE R-SQUARED SPACING: 0.0625
Info: NONBONDED TABLE SIZE: 705 POINTS
TCL: Setting parameter alchLambda2 to 1.0
Info: NONBONDED TABLE R-SQUARED SPACING: 0.0625
Info: NONBONDED TABLE SIZE: 705 POINTS
TCL: Running for 1500000 steps
ETITLE: TS BOND ANGLE DIHED IMPRP ELECT VDW BOUNDARY MISC KINETIC TOTAL TEMP POTENTIAL TOTALAVG TEMPAVG PRESSURE GPRESSURE VOLUME PRESSAVG GPRESSAVG
ENERGY: 0 2.0056 1.3744 0.1606 0.0000 -10805.0497 1442.6536 0.0000 0.0000 1747.4966 -7611.3589 295.5404 -9358.8556 -7611.3589 295.5404 -89.6876 -11.6246 30634.5903 -89.6876 -11.6246
ENERGY: 300000 3.8513 2.5458 0.0216 0.0000 -10967.2483 1534.2720 0.0000 0.0000 1704.5607 -7721.9969 288.2789 -9426.5577 -7609.1908 297.5367 771.5820 838.8795 30020.3550 -18.3282 56.4197
ENERGY: 600000 3.5346 1.4541 0.1599 0.0000 -10784.0308 1469.5701 0.0000 0.0000 1782.6980 -7526.6141 301.4937 -9309.3121 -7590.9093 298.5601 178.1558 228.5516 30908.5526 -13.3040 51.9315
ENERGY: 900000 1.4411 3.0383 0.1600 0.0000 -10714.1529 1407.2385 0.0000 0.0000 1751.3461 -7550.9289 296.1914 -9302.2750 -7598.8629 298.0267 -334.8596 -230.0325 30655.0323 -69.5620 0.1325
ENERGY: 1200000 4.8789 3.1995 0.0396 0.0000 -10700.3991 1355.1960 0.0000 0.0000 1830.9447 -7506.1405 309.6533 -9337.0852 -7587.7513 299.3406 -898.1521 -785.7236 30963.6103 -149.4569 -81.4700
ENERGY: 1500000 1.4797 0.6126 0.0138 0.0000 -10644.1641 1377.1442 0.0000 0.0000 1792.7568 -7472.1571 303.1948 -9264.9139 -7590.8186 299.0593 -498.2383 -408.3558 31036.4175 -172.9667 -108.1496
TCL: Exiting due to exit command.
