Info: SIMULATION PARAMETERS:
Info: TIMESTEP               2
Info: NUMBER OF STEPS        0
Info: STEPS PER CYCLE        10
Info: PERIODIC CELL BASIS 1  39.456 0 0
Info: PERIODIC CELL BASIS 2  0 40.343 0
Info: PERIODIC CELL BASIS 3  0 0 39.527
Info: PERIODIC CELL CENTER   0 0 0
Info: WRAPPING WATERS AROUND PERIODIC BOUNDARIES ON OUTPUT.
Info: WRAPPING ALL CLUSTERS AROUND PERIODIC BOUNDARIES ON OUTPUT.
Info: FIRST LDB TIMESTEP     50
Info: LAST LDB TIMESTEP     -1
Info: HOM BACKGROUND SCALING 1
Info: PME BACKGROUND SCALING 1
Info: MIN ATOMS PER PATCH    40
Info: EMPTY PATCH LOAD       40 ATOMS
Info: INITIAL TEMPERATURE    300
Info: CENTER OF MASS MOVING INITIALLY? NO
Info: DIELECTRIC             1
Info: EXCLUDE                SCALED ONE-FOUR
Info: 1-4 ELECTROSTATICS SCALED BY 0.833333
Info: MODIFIED 1-4 VDW PARAMETERS WILL BE USED
Info: DCD FILENAME           mobley_8427539_min.dcd
Info: DCD FREQUENCY          5000
Info: DCD FIRST STEP         5000
Info: DCD FILE WILL CONTAIN UNIT CELL DATA
Info: XST FILENAME           mobley_8427539_min.xst
Info: XST FREQUENCY          5000
Info: NO VELOCITY DCD OUTPUT
Info: NO FORCE DCD OUTPUT
Info: OUTPUT FILENAME        mobley_8427539_min
Info: BINARY OUTPUT FILES WILL BE USED
Info: RESTART FILENAME       mobley_8427539_min.restart
Info: RESTART FREQUENCY      5000
Info: BINARY RESTART FILES WILL BE USED
Info: CUTOFF                 9
Info: PAIRLIST DISTANCE      11
Info: PAIRLIST SHRINK RATE   0.01
Info: PAIRLIST GROW RATE     0.01
Info: PAIRLIST TRIGGER       0.3
Info: PAIRLISTS PER CYCLE    2
Info: PAIRLISTS ENABLED
Info: MARGIN                 8
Info: HYDROGEN GROUP CUTOFF  2.5
Info: PATCH DIMENSION        21.5
Info: ENERGY OUTPUT STEPS    5000
Info: ENERGY EVALUATION STEPS    5000
Info: OUTPUT ENERGY PRECISION 4
Info: CROSSTERM ENERGY INCLUDED IN DIHEDRAL
Info: TIMING OUTPUT STEPS    50000
Info: PRESSURE OUTPUT STEPS  5000
Info: LANGEVIN DYNAMICS ACTIVE
Info: LANGEVIN TEMPERATURE   300
Info: LANGEVIN USING BBK INTEGRATOR
Info: LANGEVIN DAMPING COEFFICIENT IS 1 INVERSE PS
Info: LANGEVIN DYNAMICS APPLIED TO HYDROGENS
Info: LANGEVIN PISTON PRESSURE CONTROL ACTIVE
Info:        TARGET PRESSURE IS 1.01325 BAR
Info:     OSCILLATION PERIOD IS 50 FS
Info:             DECAY TIME IS 25 FS
Info:     PISTON TEMPERATURE IS 300 K
Info:       PRESSURE CONTROL IS GROUP-BASED
Info:    INITIAL STRAIN RATE IS 0 0 0
Info:       CELL FLUCTUATION IS ISOTROPIC
Info: PARTICLE MESH EWALD (PME) ACTIVE
Info: PME TOLERANCE               1e-06
Info: PME EWALD COEFFICIENT       0.348832
Info: PME INTERPOLATION ORDER     4
Info: PME GRID DIMENSIONS         40 44 40
Info: PME MAXIMUM GRID SPACING    1
Info: FULL ELECTROSTATIC EVALUATION FREQUENCY      2
Info: USING VERLET I (r-RESPA) MTS SCHEME.
Info: C1 SPLITTING OF LONG RANGE ELECTROSTATICS
Info: PLACING ATOMS IN PATCHES BY HYDROGEN GROUPS
Info: RIGID BONDS TO HYDROGEN : ALL
Info:         ERROR TOLERANCE : 1e-08
Info:          MAX ITERATIONS : 100
Info: RIGID WATER USING SETTLE ALGORITHM
Info: RANDOM NUMBER SEED     1741396531
Info: USE HYDROGEN BONDS?    NO
Info: Using AMBER format force field!
Info: AMBER PARM FILE        mobley_8427539.prmtop
Info: COORDINATE PDB         mobley_8427539.pdb
Info: Exclusions will be read from PARM file!
Info: SCNB (VDW SCALING)     2
Info: USING ARITHMETIC MEAN TO COMBINE L-J SIGMA PARAMETERS
Info: SUMMARY OF PARAMETERS:
Info: 8 BONDS
Info: 9 ANGLES
Info:   9 HARMONIC
Info:   0 COSINE-BASED
Info: 14 DIHEDRAL
Info: 0 IMPROPER
Info: 0 CROSSTERM
Info: 0 VDW
Info: 36 VDW_PAIRS
Info: 0 NBTHOLE_PAIRS
Info: STRUCTURE SUMMARY:
Info: 4503 ATOMS
Info: 4502 BONDS
Info: 18 ANGLES
Info: 28 DIHEDRALS
Info: 0 IMPROPERS
Info: 0 CROSSTERMS
Info: 4539 EXCLUSIONS
Info: 4498 RIGID BONDS
Info: 9011 DEGREES OF FREEDOM
Info: 1502 HYDROGEN GROUPS
Info: 4 ATOMS IN LARGEST HYDROGEN GROUP
Info: 1502 MIGRATION GROUPS
Info: 4 ATOMS IN LARGEST MIGRATION GROUP
Info: TOTAL MASS = 27043 amu
Info: TOTAL CHARGE = 0.00019991 e
Info: MASS DENSITY = 0.71374 g/cm^3
Info: ATOM DENSITY = 0.0715693 atoms/A^3
Info: ADDED 0 IMPLICIT EXCLUSIONS
Info: NONBONDED TABLE R-SQUARED SPACING: 0.0625
Info: NONBONDED TABLE SIZE: 705 POINTS
Info: REMOVING COM VELOCITY -0.0894685 -0.13829 -0.223931
TCL: Minimizing for 2000 steps
ETITLE: TS BOND ANGLE DIHED IMPRP ELECT VDW BOUNDARY MISC KINETIC TOTAL TEMP POTENTIAL TOTAL3 TEMPAVG PRESSURE GPRESSURE VOLUME PRESSAVG GPRESSAVG
ENERGY: 0 0.2656 1.1406 19.8580 0.0000 -14055.5196 1592.2359 0.0000 0.0000 0.0000 -12442.0195 0.0000 -12442.0195 -12442.0195 0.0000 10897.6378 -15684.9513 62918.0275 10897.6378 -15684.9513
ENERGY: 400 2.2385 6.0929 16.7154 0.0000 -18830.5202 2736.8534 0.0000 0.0000 0.0000 -16068.6199 0.0000 -16068.6199 -16068.6199 0.0000 15564.7197 15664.8028 62918.0275 15564.7197 15664.8028
ENERGY: 800 8.1180 4.4049 18.7766 0.0000 -19904.2226 3216.6512 0.0000 0.0000 0.0000 -16656.2719 0.0000 -16656.2719 -16656.2719 0.0000 17928.5396 18036.0832 62918.0275 17928.5396 18036.0832
ENERGY: 1200 0.5014 1.7481 18.2082 0.0000 -20323.6590 3404.9879 0.0000 0.0000 0.0000 -16898.2133 0.0000 -16898.2133 -16898.2133 0.0000 18970.3274 19075.7700 62918.0275 18970.3274 19075.7700
ENERGY: 1600 0.4236 1.3798 18.5311 0.0000 -20525.6385 3509.4538 0.0000 0.0000 0.0000 -16995.8503 0.0000 -16995.8503 -16995.8503 0.0000 19504.2603 19609.0415 62918.0275 19504.2603 19609.0415
ENERGY: 2000 0.7346 1.5812 18.4485 0.0000 -20673.1590 3571.0544 0.0000 0.0000 0.0000 -17081.3403 0.0000 -17081.3403 -17081.3403 0.0000 19833.9679 19932.3448 62918.0275 19833.9679 19932.3448
TCL: Exiting due to exit command.
Info: NAMD 3.0.1 for Linux-x86_64-multicore
Info: Please visit http://www.ks.uiuc.edu/Research/namd/
Info: for updates, documentation, and support information.
Info: Please cite Phillips et al., J. Chem. Phys. 153:044130 (2020) doi:10.1063/5.0014475
Info: in all publications reporting results obtained with NAMD.
Info: Based on Charm++/Converse 80000 for multicore-linux-x86_64-gcc
Info: Built Mon Oct 14 11:11:06 CDT 2024 by dhardy on athine.ks.uiuc.edu
Info: 1 NAMD  3.0.1  Linux-x86_64-multicore  16    k061  z5358697
Info: Running on 16 processors, 1 nodes, 1 physical nodes.
Info: CPU topology information available.
Info: Charm++/Converse parallel runtime startup completed at 0.01734 s
Info: 1043.46 MB of memory in use based on /proc/self/stat
Info: Configuration file is mobley_8427539_equil.namd
Info: Working in the current directory /srv/scratch/z5358697/prod_prep_10/8427539
TCL: Running 25000 steps at 30 kelvin.
TCL: Suspending until startup complete.
Info: SIMULATION PARAMETERS:
Info: TIMESTEP               2
Info: NUMBER OF STEPS        0
Info: STEPS PER CYCLE        10
Info: PERIODIC CELL BASIS 1  39.456 0 0
Info: PERIODIC CELL BASIS 2  0 40.343 0
Info: PERIODIC CELL BASIS 3  0 0 39.527
Info: PERIODIC CELL CENTER   0 0 0
Info: WRAPPING WATERS AROUND PERIODIC BOUNDARIES ON OUTPUT.
Info: WRAPPING ALL CLUSTERS AROUND PERIODIC BOUNDARIES ON OUTPUT.
Info: FIRST LDB TIMESTEP     50
Info: LAST LDB TIMESTEP     -1
Info: HOM BACKGROUND SCALING 1
Info: PME BACKGROUND SCALING 1
Info: MIN ATOMS PER PATCH    40
Info: EMPTY PATCH LOAD       40 ATOMS
Info: INITIAL TEMPERATURE    300
Info: CENTER OF MASS MOVING INITIALLY? NO
Info: DIELECTRIC             1
Info: EXCLUDE                SCALED ONE-FOUR
Info: 1-4 ELECTROSTATICS SCALED BY 0.833333
Info: MODIFIED 1-4 VDW PARAMETERS WILL BE USED
Info: DCD FILENAME           mobley_8427539_equil.dcd
Info: DCD FREQUENCY          5000
Info: DCD FIRST STEP         5000
Info: DCD FILE WILL CONTAIN UNIT CELL DATA
Info: XST FILENAME           mobley_8427539_equil.xst
Info: XST FREQUENCY          5000
Info: NO VELOCITY DCD OUTPUT
Info: NO FORCE DCD OUTPUT
Info: OUTPUT FILENAME        mobley_8427539_equil
Info: BINARY OUTPUT FILES WILL BE USED
Info: RESTART FILENAME       mobley_8427539_equil.restart
Info: RESTART FREQUENCY      5000
Info: BINARY RESTART FILES WILL BE USED
Info: CUTOFF                 9
Info: PAIRLIST DISTANCE      11
Info: PAIRLIST SHRINK RATE   0.01
Info: PAIRLIST GROW RATE     0.01
Info: PAIRLIST TRIGGER       0.3
Info: PAIRLISTS PER CYCLE    2
Info: PAIRLISTS ENABLED
Info: MARGIN                 8
Info: HYDROGEN GROUP CUTOFF  2.5
Info: PATCH DIMENSION        21.5
Info: ENERGY OUTPUT STEPS    5000
Info: ENERGY EVALUATION STEPS    5000
Info: OUTPUT ENERGY PRECISION 4
Info: CROSSTERM ENERGY INCLUDED IN DIHEDRAL
Info: TIMING OUTPUT STEPS    50000
Info: PRESSURE OUTPUT STEPS  5000
Info: LANGEVIN DYNAMICS ACTIVE
Info: LANGEVIN TEMPERATURE   30
Info: LANGEVIN USING BBK INTEGRATOR
Info: LANGEVIN DAMPING COEFFICIENT IS 1 INVERSE PS
Info: LANGEVIN DYNAMICS APPLIED TO HYDROGENS
Info: LANGEVIN PISTON PRESSURE CONTROL ACTIVE
Info:        TARGET PRESSURE IS 1.01325 BAR
Info:     OSCILLATION PERIOD IS 50 FS
Info:             DECAY TIME IS 25 FS
Info:     PISTON TEMPERATURE IS 300 K
Info:       PRESSURE CONTROL IS GROUP-BASED
Info:    INITIAL STRAIN RATE IS 0 0 0
Info:       CELL FLUCTUATION IS ISOTROPIC
Info: PARTICLE MESH EWALD (PME) ACTIVE
Info: PME TOLERANCE               1e-06
Info: PME EWALD COEFFICIENT       0.348832
Info: PME INTERPOLATION ORDER     4
Info: PME GRID DIMENSIONS         40 44 40
Info: PME MAXIMUM GRID SPACING    1
Info: FULL ELECTROSTATIC EVALUATION FREQUENCY      2
Info: USING VERLET I (r-RESPA) MTS SCHEME.
Info: C1 SPLITTING OF LONG RANGE ELECTROSTATICS
Info: PLACING ATOMS IN PATCHES BY HYDROGEN GROUPS
Info: RIGID BONDS TO HYDROGEN : ALL
Info:         ERROR TOLERANCE : 1e-08
Info:          MAX ITERATIONS : 100
Info: RIGID WATER USING SETTLE ALGORITHM
Info: RANDOM NUMBER SEED     1741396551
Info: USE HYDROGEN BONDS?    NO
Info: Using AMBER format force field!
Info: AMBER PARM FILE        mobley_8427539.prmtop
Info: COORDINATE PDB         mobley_8427539.pdb
Info: Exclusions will be read from PARM file!
Info: SCNB (VDW SCALING)     2
Info: USING ARITHMETIC MEAN TO COMBINE L-J SIGMA PARAMETERS
Info: BINARY COORDINATES     mobley_8427539_min.coor
Info: SUMMARY OF PARAMETERS:
Info: 8 BONDS
Info: 9 ANGLES
Info:   9 HARMONIC
Info:   0 COSINE-BASED
Info: 14 DIHEDRAL
Info: 0 IMPROPER
Info: 0 CROSSTERM
Info: 0 VDW
Info: 36 VDW_PAIRS
Info: 0 NBTHOLE_PAIRS
Info: STRUCTURE SUMMARY:
Info: 4503 ATOMS
Info: 4502 BONDS
Info: 18 ANGLES
Info: 28 DIHEDRALS
Info: 0 IMPROPERS
Info: 0 CROSSTERMS
Info: 4539 EXCLUSIONS
Info: 4498 RIGID BONDS
Info: 9011 DEGREES OF FREEDOM
Info: 1502 HYDROGEN GROUPS
Info: 4 ATOMS IN LARGEST HYDROGEN GROUP
Info: 1502 MIGRATION GROUPS
Info: 4 ATOMS IN LARGEST MIGRATION GROUP
Info: TOTAL MASS = 27043 amu
Info: TOTAL CHARGE = 0.00019991 e
Info: MASS DENSITY = 0.71374 g/cm^3
Info: ATOM DENSITY = 0.0715693 atoms/A^3
Info: ADDED 0 IMPLICIT EXCLUSIONS
Info: NONBONDED TABLE R-SQUARED SPACING: 0.0625
Info: NONBONDED TABLE SIZE: 705 POINTS
Info: REMOVING COM VELOCITY 0.03697 -0.00106151 0.0917965
TCL: Running for 25000 steps
ETITLE: TS BOND ANGLE DIHED IMPRP ELECT VDW BOUNDARY MISC KINETIC TOTAL TEMP POTENTIAL TOTAL3 TEMPAVG PRESSURE GPRESSURE VOLUME PRESSAVG GPRESSAVG
ENERGY: 0 0.7346 1.5812 18.4485 0.0000 -20673.1590 3571.0544 0.0000 0.0000 2692.4828 -14388.8576 300.7255 -17081.3403 -14388.2861 300.7255 200.1696 235.8200 62918.0275 200.1696 235.8200
ENERGY: 5000 0.1566 1.1803 18.8406 0.0000 -21697.4257 3792.3145 0.0000 0.0000 275.7378 -17609.1959 30.7974 -17884.9338 -17608.4016 47.8070 147.2309 198.9571 44091.0903 2.8931 2.8117
ENERGY: 10000 0.2768 0.9441 19.0657 0.0000 -21757.3128 3824.4446 0.0000 0.0000 268.2896 -17644.2920 29.9655 -17912.5816 -17643.5335 29.9154 324.7458 387.2792 43839.0096 -3.0239 -2.7431
ENERGY: 15000 0.3213 1.1007 19.1061 0.0000 -21676.0561 3720.7705 0.0000 0.0000 258.5944 -17676.1633 28.8826 -17934.7576 -17675.4888 30.0804 -334.1873 -294.1156 44080.7984 -0.6683 -0.6346
ENERGY: 20000 0.4390 0.9175 18.9381 0.0000 -21691.0532 3734.1903 0.0000 0.0000 271.2766 -17665.2917 30.2991 -17936.5683 -17664.6183 29.8208 -287.9498 -206.3800 44043.6694 5.0276 5.0183
ENERGY: 25000 0.3175 1.0873 18.8976 0.0000 -21753.4911 3788.7501 0.0000 0.0000 264.1998 -17680.2388 29.5087 -17944.4386 -17679.3639 30.1694 82.4340 133.0394 43882.3741 3.0656 3.0335
TCL: Running 25000 steps at 60 kelvin.
TCL: Setting parameter langevinTemp to 60
TCL: Running for 25000 steps
ETITLE: TS BOND ANGLE DIHED IMPRP ELECT VDW BOUNDARY MISC KINETIC TOTAL TEMP POTENTIAL TOTAL3 TEMPAVG PRESSURE GPRESSURE VOLUME PRESSAVG GPRESSAVG
ENERGY: 25000 0.3175 1.0873 18.8976 0.0000 -21753.4911 3788.7501 0.0000 0.0000 264.0641 -17680.3745 29.4935 -17944.4386 -17679.7369 29.4935 73.7281 133.2176 43882.3741 73.7281 133.2176
ENERGY: 30000 0.3181 1.2367 19.1187 0.0000 -21423.0073 3702.0023 0.0000 0.0000 533.8231 -17166.5084 59.6231 -17700.3315 -17165.1234 56.6218 185.8507 254.0277 44023.2214 5.1179 4.9766
ENERGY: 35000 0.1191 1.7034 18.9232 0.0000 -21507.4335 3756.2030 0.0000 0.0000 542.4659 -17188.0189 60.5885 -17730.4848 -17186.9445 60.2529 463.5323 521.4948 43767.4422 3.2676 3.4858
ENERGY: 40000 0.6616 2.0915 19.1513 0.0000 -21361.7612 3581.0183 0.0000 0.0000 535.5018 -17223.3366 59.8106 -17758.8384 -17221.2734 60.5175 -635.8791 -587.3134 44059.3533 4.9903 5.1401
ENERGY: 45000 0.4902 1.8294 18.5477 0.0000 -21475.1691 3672.8921 0.0000 0.0000 540.2996 -17241.1102 60.3465 -17781.4098 -17239.8275 60.0116 -68.8989 8.3437 43662.3460 4.8994 5.0911
ENERGY: 50000 0.4800 1.9342 18.2460 0.0000 -21408.4768 3579.6491 0.0000 0.0000 526.9608 -17281.2068 58.8567 -17808.1677 -17279.9340 60.2236 -633.0786 -556.4594 43734.4259 5.8217 5.8417
TCL: Running 25000 steps at 90 kelvin.
TCL: Setting parameter langevinTemp to 90
TCL: Running for 25000 steps
ETITLE: TS BOND ANGLE DIHED IMPRP ELECT VDW BOUNDARY MISC KINETIC TOTAL TEMP POTENTIAL TOTAL3 TEMPAVG PRESSURE GPRESSURE VOLUME PRESSAVG GPRESSAVG
ENERGY: 50000 0.4800 1.9342 18.2460 0.0000 -21408.4768 3579.6491 0.0000 0.0000 526.6985 -17281.4692 58.8274 -17808.1677 -17280.3667 58.8274 -624.4274 -556.4376 43734.4259 -624.4274 -556.4376
ENERGY: 55000 0.6522 2.0462 19.4269 0.0000 -20981.2745 3414.9972 0.0000 0.0000 810.6488 -16733.5032 90.5420 -17544.1520 -16732.0092 86.9643 -975.0743 -923.3767 44121.4347 5.9615 6.1803
ENERGY: 60000 0.7103 1.0716 18.7195 0.0000 -21208.2731 3577.4516 0.0000 0.0000 800.5064 -16809.8136 89.4092 -17610.3200 -16806.9823 90.3777 -132.6860 -32.5861 43764.5817 -0.4626 -0.2384
ENERGY: 65000 0.7852 2.2268 18.7809 0.0000 -21174.2577 3553.0190 0.0000 0.0000 821.9608 -16777.4850 91.8055 -17599.4458 -16775.4060 90.5710 -316.4092 -247.8533 43833.4151 2.3184 2.1765
ENERGY: 70000 0.2323 1.6505 19.0723 0.0000 -21389.8696 3723.4864 0.0000 0.0000 802.5611 -16842.8670 89.6387 -17645.4281 -16841.1314 90.2948 552.0196 633.3154 43577.0583 0.8528 0.9356
ENERGY: 75000 0.3664 1.4338 18.8721 0.0000 -21382.5980 3699.3458 0.0000 0.0000 799.6288 -16862.9512 89.3112 -17662.5799 -16860.8762 90.2542 409.4030 458.4646 43565.4272 2.5868 2.4032
TCL: Running 25000 steps at 120 kelvin.
TCL: Setting parameter langevinTemp to 120
TCL: Running for 25000 steps
ETITLE: TS BOND ANGLE DIHED IMPRP ELECT VDW BOUNDARY MISC KINETIC TOTAL TEMP POTENTIAL TOTAL3 TEMPAVG PRESSURE GPRESSURE VOLUME PRESSAVG GPRESSAVG
ENERGY: 75000 0.3664 1.4338 18.8721 0.0000 -21382.5980 3699.3458 0.0000 0.0000 799.2286 -16863.3514 89.2665 -17662.5799 -16861.4621 89.2665 393.3333 458.3068 43565.4272 393.3333 458.3068
ENERGY: 80000 1.9528 2.3345 19.5118 0.0000 -20698.5955 3331.0213 0.0000 0.0000 1076.4678 -16267.3073 120.2316 -17343.7751 -16264.9820 116.8716 -885.1879 -820.4664 44339.3718 3.1640 2.6220
ENERGY: 85000 0.7147 2.3775 18.9456 0.0000 -20935.5846 3525.2037 0.0000 0.0000 1081.7273 -16306.6158 120.8190 -17388.3432 -16304.5526 120.8324 234.2925 267.2821 43734.8729 3.8803 3.8675
ENERGY: 90000 1.2643 2.2296 19.0362 0.0000 -20936.6290 3482.4612 0.0000 0.0000 1059.4571 -16372.1806 118.3316 -17431.6377 -16370.3792 119.4835 -41.2619 -4.1898 43708.1687 4.7966 4.3717
ENERGY: 95000 1.0247 2.9776 19.3859 0.0000 -20976.6934 3520.2055 0.0000 0.0000 1068.4508 -16364.6488 119.3361 -17433.0997 -16360.9595 119.5201 -0.5734 71.4521 43734.9326 3.9855 3.5544
ENERGY: 100000 0.2732 2.7694 17.8716 0.0000 -21160.7854 3682.1542 0.0000 0.0000 1083.9502 -16373.7669 121.0673 -17457.7170 -16370.1067 119.9524 1083.1970 1139.8327 43063.0501 6.8250 6.8173
TCL: Running 25000 steps at 150 kelvin.
TCL: Setting parameter langevinTemp to 150
TCL: Running for 25000 steps
ETITLE: TS BOND ANGLE DIHED IMPRP ELECT VDW BOUNDARY MISC KINETIC TOTAL TEMP POTENTIAL TOTAL3 TEMPAVG PRESSURE GPRESSURE VOLUME PRESSAVG GPRESSAVG
ENERGY: 100000 0.2732 2.7694 17.8716 0.0000 -21160.7854 3682.1542 0.0000 0.0000 1083.4041 -16374.3129 121.0063 -17457.7170 -16372.0930 121.0063 1085.7274 1140.4678 43063.0501 1085.7274 1140.4678
ENERGY: 105000 0.9218 3.3173 19.9720 0.0000 -20558.4559 3388.0381 0.0000 0.0000 1326.8757 -15819.3309 148.1998 -17146.2066 -15818.6455 146.8643 109.3839 142.6850 43730.0651 2.8961 2.9109
ENERGY: 110000 0.4414 1.6827 19.0169 0.0000 -20523.4857 3397.9535 0.0000 0.0000 1345.5415 -15758.8497 150.2846 -17104.3912 -15756.2086 150.8621 98.1214 121.6316 44134.1364 4.4519 4.5959
ENERGY: 115000 0.1458 2.1426 18.9798 0.0000 -20622.4911 3435.0462 0.0000 0.0000 1330.9311 -15835.2454 148.6528 -17166.1765 -15830.2758 150.2367 195.9997 268.7034 43895.6405 0.0488 -0.1894
ENERGY: 120000 0.4698 2.5143 18.6389 0.0000 -20674.1774 3492.3544 0.0000 0.0000 1359.6159 -15800.5842 151.8566 -17160.2001 -15796.5639 150.5780 504.7224 606.9980 43821.9999 1.9752 1.6971
ENERGY: 125000 1.1812 2.9562 19.2959 0.0000 -20611.5271 3385.5998 0.0000 0.0000 1342.6346 -15859.8595 149.9599 -17202.4940 -15856.4047 150.6450 -217.6462 -147.0456 44189.7334 3.7175 3.9324
TCL: Running 50000 steps at 180 kelvin.
TCL: Setting parameter langevinTemp to 180
TCL: Running for 50000 steps
ETITLE: TS BOND ANGLE DIHED IMPRP ELECT VDW BOUNDARY MISC KINETIC TOTAL TEMP POTENTIAL TOTAL3 TEMPAVG PRESSURE GPRESSURE VOLUME PRESSAVG GPRESSAVG
ENERGY: 125000 1.1812 2.9562 19.2959 0.0000 -20611.5271 3385.5998 0.0000 0.0000 1341.9888 -15860.5052 149.8878 -17202.4940 -15857.9303 149.8878 -201.6296 -146.6072 44189.7334 -201.6296 -146.6072
ENERGY: 135000 1.5100 2.8230 19.1826 0.0000 -19948.2753 3149.7905 0.0000 0.0000 1609.0199 -15165.9493 179.7127 -16774.9691 -15161.9695 180.1760 -439.2513 -397.0658 44345.7626 0.4593 0.6625
ENERGY: 145000 0.8330 2.6149 19.2212 0.0000 -20023.0757 3296.5550 0.0000 0.0000 1612.0906 -15091.7611 180.0557 -16703.8517 -15089.8289 179.3024 401.8404 452.3360 44351.4417 -2.8055 -2.9334
ENERGY: 155000 0.4645 3.5382 19.4391 0.0000 -20083.8083 3260.4928 0.0000 0.0000 1603.8501 -15196.0236 179.1353 -16799.8737 -15191.3065 179.4052 -255.0722 -168.3436 44936.0352 -5.7379 -6.3972
ENERGY: 165000 0.3883 1.9794 18.6048 0.0000 -20231.5388 3353.0900 0.0000 0.0000 1608.2648 -15249.2115 179.6284 -16857.4763 -15244.2930 179.7665 335.6506 408.0503 44387.7460 -0.1522 -0.1869
ENERGY: 175000 1.5581 2.6663 19.5396 0.0000 -20172.3155 3264.3848 0.0000 0.0000 1583.2403 -15300.9264 176.8334 -16884.1667 -15298.3106 180.0490 -258.0007 -186.3812 44469.0591 5.2090 5.4102
TCL: Running 50000 steps at 210 kelvin.
TCL: Setting parameter langevinTemp to 210
TCL: Running for 50000 steps
ETITLE: TS BOND ANGLE DIHED IMPRP ELECT VDW BOUNDARY MISC KINETIC TOTAL TEMP POTENTIAL TOTAL3 TEMPAVG PRESSURE GPRESSURE VOLUME PRESSAVG GPRESSAVG
ENERGY: 175000 1.5581 2.6663 19.5396 0.0000 -20172.3155 3264.3848 0.0000 0.0000 1582.4710 -15301.6958 176.7474 -16884.1667 -15298.5730 176.7474 -263.9726 -186.7760 44469.0591 -263.9726 -186.7760
ENERGY: 185000 2.1442 6.0359 18.5215 0.0000 -19057.6988 2900.3259 0.0000 0.0000 1947.6396 -14183.0316 217.5334 -16130.6713 -14178.3266 210.1969 -204.1904 -112.3621 44299.4370 1.2515 1.1645
ENERGY: 195000 1.3872 6.4295 18.1411 0.0000 -19149.0084 2970.2760 0.0000 0.0000 1883.8792 -14268.8954 210.4120 -16152.7746 -14265.8494 210.7447 186.0049 270.1431 43922.7780 4.6861 4.8695
ENERGY: 205000 0.2039 4.6191 20.2780 0.0000 -19083.6290 2881.8149 0.0000 0.0000 1920.6394 -14256.0738 214.5177 -16176.7132 -14251.5053 209.5191 -435.3990 -382.0219 44231.7844 0.0541 -0.3186
ENERGY: 215000 0.2252 3.6792 21.1054 0.0000 -19052.2614 2975.3677 0.0000 0.0000 1879.0524 -14172.8314 209.8729 -16051.8839 -14168.4983 209.5086 319.7806 437.1298 44202.1711 5.1057 5.2753
ENERGY: 225000 1.1458 1.8657 20.0788 0.0000 -18806.4501 2737.7134 0.0000 0.0000 1859.0538 -14186.5926 207.6392 -16045.6464 -14181.5138 210.0250 -629.4359 -525.5244 43607.7444 6.7225 6.3577
TCL: Running 50000 steps at 240 kelvin.
TCL: Setting parameter langevinTemp to 240
TCL: Running for 50000 steps
ETITLE: TS BOND ANGLE DIHED IMPRP ELECT VDW BOUNDARY MISC KINETIC TOTAL TEMP POTENTIAL TOTAL3 TEMPAVG PRESSURE GPRESSURE VOLUME PRESSAVG GPRESSAVG
ENERGY: 225000 1.1458 1.8657 20.0788 0.0000 -18806.4501 2737.7134 0.0000 0.0000 1858.1370 -14187.5094 207.5368 -16045.6464 -14184.1940 207.5368 -597.5145 -524.8543 43607.7444 -597.5145 -524.8543
ENERGY: 235000 0.2544 5.8136 18.8145 0.0000 -18075.1932 2673.2265 0.0000 0.0000 2123.0529 -13254.0311 237.1255 -15377.0841 -13251.0157 242.6165 -16.0921 81.5308 45020.3438 2.0937 1.9218
ENERGY: 245000 2.2756 3.7400 19.4770 0.0000 -18002.2184 2518.4305 0.0000 0.0000 2112.5308 -13345.7644 235.9503 -15458.2952 -13340.4883 239.4614 -748.9312 -660.9933 44401.9239 1.7764 1.9404
ENERGY: 255000 0.7707 2.6798 20.0876 0.0000 -17985.8569 2500.2208 0.0000 0.0000 2140.8197 -13321.2783 239.1099 -15462.0980 -13316.9742 238.9598 -934.1622 -846.2753 44928.0764 6.6837 6.6478
ENERGY: 265000 0.7037 4.5931 21.1848 0.0000 -18055.2616 2632.4582 0.0000 0.0000 2141.7592 -13254.5626 239.2148 -15396.3218 -13253.0991 239.4831 60.3686 137.0441 44589.9596 -0.8977 -1.0820
ENERGY: 275000 2.0529 3.5489 21.6543 0.0000 -18211.2447 2704.0401 0.0000 0.0000 2127.6050 -13352.3434 237.6339 -15479.9485 -13346.6854 239.4531 354.6786 477.1249 43971.8603 5.4567 4.8137
TCL: Running 50000 steps at 270 kelvin.
TCL: Setting parameter langevinTemp to 270
TCL: Running for 50000 steps
ETITLE: TS BOND ANGLE DIHED IMPRP ELECT VDW BOUNDARY MISC KINETIC TOTAL TEMP POTENTIAL TOTAL3 TEMPAVG PRESSURE GPRESSURE VOLUME PRESSAVG GPRESSAVG
ENERGY: 275000 2.0529 3.5489 21.6543 0.0000 -18211.2447 2704.0401 0.0000 0.0000 2126.5059 -13353.4426 237.5111 -15479.9485 -13350.4910 237.5111 395.7936 478.2692 43971.8603 395.7936 478.2692
ENERGY: 285000 0.9572 2.4499 18.7178 0.0000 -17083.0888 2313.5014 0.0000 0.0000 2417.4697 -12329.9927 270.0091 -14747.4624 -12326.7266 268.5614 -297.7742 -197.9613 45000.7013 3.9085 3.8743
ENERGY: 295000 0.3316 1.6369 20.3190 0.0000 -17415.1974 2540.4212 0.0000 0.0000 2436.3624 -12416.1263 272.1193 -14852.4887 -12410.1353 270.4772 652.7907 739.2257 44924.2459 3.7094 3.2933
ENERGY: 305000 3.3221 4.1845 20.7509 0.0000 -17094.9091 2312.3439 0.0000 0.0000 2350.8298 -12403.4779 262.5661 -14754.3077 -12398.6748 269.5537 -463.4526 -396.7723 45274.5692 -1.7640 -1.6308
ENERGY: 315000 1.4292 2.7055 18.5072 0.0000 -17218.6453 2505.7682 0.0000 0.0000 2356.0834 -12334.1518 263.1528 -14690.2352 -12331.6085 270.0849 554.1169 636.3083 45651.6842 3.1093 3.0744
ENERGY: 325000 0.6701 4.4749 23.0841 0.0000 -17338.4297 2470.6074 0.0000 0.0000 2376.4505 -12463.1428 265.4277 -14839.5933 -12457.5243 271.2265 190.6066 261.0251 45399.5238 4.9931 4.6135
TCL: Running 1000000 steps at 300 kelvin.
TCL: Setting parameter langevinTemp to 300
TCL: Running for 1000000 steps
ETITLE: TS BOND ANGLE DIHED IMPRP ELECT VDW BOUNDARY MISC KINETIC TOTAL TEMP POTENTIAL TOTAL3 TEMPAVG PRESSURE GPRESSURE VOLUME PRESSAVG GPRESSAVG
ENERGY: 325000 0.6701 4.4749 23.0841 0.0000 -17338.4297 2470.6074 0.0000 0.0000 2375.2534 -12464.3399 265.2939 -14839.5933 -12460.6633 265.2939 174.9958 262.7677 45399.5238 174.9958 262.7677
ENERGY: 525000 4.5593 5.8849 21.3951 0.0000 -16414.9569 2176.5426 0.0000 0.0000 2720.4749 -11486.1002 303.8520 -14206.5751 -11481.1072 300.2457 -275.1637 -185.0616 46713.3863 4.1570 3.4729
ENERGY: 725000 1.1571 2.3651 20.2530 0.0000 -16524.8254 2225.9218 0.0000 0.0000 2686.9554 -11588.1730 300.1082 -14275.1284 -11585.6308 298.4499 -162.6886 -79.6352 46407.2848 5.3725 5.6891
ENERGY: 925000 1.9608 4.4793 21.2858 0.0000 -16488.4136 2209.6097 0.0000 0.0000 2706.9003 -11544.1778 302.3359 -14251.0780 -11539.1946 299.9868 -113.5239 35.7303 46170.4560 0.9778 1.1031
ENERGY: 1125000 0.9185 3.9940 19.9421 0.0000 -16396.7092 2229.4074 0.0000 0.0000 2629.7590 -11512.6881 293.7199 -14142.4471 -11505.2988 299.4333 160.9861 257.8172 46518.4303 3.1577 3.3652
ENERGY: 1325000 0.6120 5.2857 20.0522 0.0000 -16511.7307 2258.1184 0.0000 0.0000 2757.7197 -11469.9428 308.0119 -14227.6625 -11462.1783 300.8764 336.1275 416.3163 46126.7733 0.1621 0.9681
TCL: Exiting due to exit command.
