Info: SIMULATION PARAMETERS:
Info: TIMESTEP               2
Info: NUMBER OF STEPS        0
Info: STEPS PER CYCLE        10
Info: PERIODIC CELL BASIS 1  46.536 0 0
Info: PERIODIC CELL BASIS 2  0 45.969 0
Info: PERIODIC CELL BASIS 3  0 0 39.797
Info: PERIODIC CELL CENTER   0 0 0
Info: WRAPPING WATERS AROUND PERIODIC BOUNDARIES ON OUTPUT.
Info: WRAPPING ALL CLUSTERS AROUND PERIODIC BOUNDARIES ON OUTPUT.
Info: FIRST LDB TIMESTEP     50
Info: LAST LDB TIMESTEP     -1
Info: HOM BACKGROUND SCALING 1
Info: PME BACKGROUND SCALING 1
Info: MIN ATOMS PER PATCH    40
Info: EMPTY PATCH LOAD       40 ATOMS
Info: INITIAL TEMPERATURE    300
Info: CENTER OF MASS MOVING INITIALLY? NO
Info: DIELECTRIC             1
Info: EXCLUDE                SCALED ONE-FOUR
Info: 1-4 ELECTROSTATICS SCALED BY 0.833333
Info: MODIFIED 1-4 VDW PARAMETERS WILL BE USED
Info: DCD FILENAME           mobley_9821936_min.dcd
Info: DCD FREQUENCY          5000
Info: DCD FIRST STEP         5000
Info: DCD FILE WILL CONTAIN UNIT CELL DATA
Info: XST FILENAME           mobley_9821936_min.xst
Info: XST FREQUENCY          5000
Info: NO VELOCITY DCD OUTPUT
Info: NO FORCE DCD OUTPUT
Info: OUTPUT FILENAME        mobley_9821936_min
Info: BINARY OUTPUT FILES WILL BE USED
Info: RESTART FILENAME       mobley_9821936_min.restart
Info: RESTART FREQUENCY      5000
Info: BINARY RESTART FILES WILL BE USED
Info: CUTOFF                 9
Info: PAIRLIST DISTANCE      11
Info: PAIRLIST SHRINK RATE   0.01
Info: PAIRLIST GROW RATE     0.01
Info: PAIRLIST TRIGGER       0.3
Info: PAIRLISTS PER CYCLE    2
Info: PAIRLISTS ENABLED
Info: MARGIN                 8
Info: HYDROGEN GROUP CUTOFF  2.5
Info: PATCH DIMENSION        21.5
Info: ENERGY OUTPUT STEPS    5000
Info: ENERGY EVALUATION STEPS    5000
Info: OUTPUT ENERGY PRECISION 4
Info: CROSSTERM ENERGY INCLUDED IN DIHEDRAL
Info: TIMING OUTPUT STEPS    50000
Info: PRESSURE OUTPUT STEPS  5000
Info: LANGEVIN DYNAMICS ACTIVE
Info: LANGEVIN TEMPERATURE   300
Info: LANGEVIN USING BBK INTEGRATOR
Info: LANGEVIN DAMPING COEFFICIENT IS 1 INVERSE PS
Info: LANGEVIN DYNAMICS APPLIED TO HYDROGENS
Info: LANGEVIN PISTON PRESSURE CONTROL ACTIVE
Info:        TARGET PRESSURE IS 1.01325 BAR
Info:     OSCILLATION PERIOD IS 50 FS
Info:             DECAY TIME IS 25 FS
Info:     PISTON TEMPERATURE IS 300 K
Info:       PRESSURE CONTROL IS GROUP-BASED
Info:    INITIAL STRAIN RATE IS 0 0 0
Info:       CELL FLUCTUATION IS ISOTROPIC
Info: PARTICLE MESH EWALD (PME) ACTIVE
Info: PME TOLERANCE               1e-06
Info: PME EWALD COEFFICIENT       0.348832
Info: PME INTERPOLATION ORDER     4
Info: PME GRID DIMENSIONS         48 48 40
Info: PME MAXIMUM GRID SPACING    1
Info: FULL ELECTROSTATIC EVALUATION FREQUENCY      2
Info: USING VERLET I (r-RESPA) MTS SCHEME.
Info: C1 SPLITTING OF LONG RANGE ELECTROSTATICS
Info: PLACING ATOMS IN PATCHES BY HYDROGEN GROUPS
Info: RIGID BONDS TO HYDROGEN : ALL
Info:         ERROR TOLERANCE : 1e-08
Info:          MAX ITERATIONS : 100
Info: RIGID WATER USING SETTLE ALGORITHM
Info: RANDOM NUMBER SEED     1741401526
Info: USE HYDROGEN BONDS?    NO
Info: Using AMBER format force field!
Info: AMBER PARM FILE        mobley_9821936.prmtop
Info: COORDINATE PDB         mobley_9821936.pdb
Info: Exclusions will be read from PARM file!
Info: SCNB (VDW SCALING)     2
Info: USING ARITHMETIC MEAN TO COMBINE L-J SIGMA PARAMETERS
Info: SUMMARY OF PARAMETERS:
Info: 5 BONDS
Info: 4 ANGLES
Info:   4 HARMONIC
Info:   0 COSINE-BASED
Info: 3 DIHEDRAL
Info: 0 IMPROPER
Info: 0 CROSSTERM
Info: 0 VDW
Info: 15 VDW_PAIRS
Info: 0 NBTHOLE_PAIRS
Info: STRUCTURE SUMMARY:
Info: 6181 ATOMS
Info: 6183 BONDS
Info: 38 ANGLES
Info: 64 DIHEDRALS
Info: 0 IMPROPERS
Info: 0 CROSSTERMS
Info: 6268 EXCLUSIONS
Info: 6159 RIGID BONDS
Info: 12384 DEGREES OF FREEDOM
Info: 2075 HYDROGEN GROUPS
Info: 3 ATOMS IN LARGEST HYDROGEN GROUP
Info: 2075 MIGRATION GROUPS
Info: 3 ATOMS IN LARGEST MIGRATION GROUP
Info: TOTAL MASS = 37446.6 amu
Info: TOTAL CHARGE = 9.9998e-05 e
Info: MASS DENSITY = 0.73041 g/cm^3
Info: ATOM DENSITY = 0.072603 atoms/A^3
Info: ADDED 0 IMPLICIT EXCLUSIONS
Info: NONBONDED TABLE R-SQUARED SPACING: 0.0625
Info: NONBONDED TABLE SIZE: 705 POINTS
Info: REMOVING COM VELOCITY -0.13106 0.0333501 -0.0420694
TCL: Minimizing for 2000 steps
ETITLE: TS BOND ANGLE DIHED IMPRP ELECT VDW BOUNDARY MISC KINETIC TOTAL TEMP POTENTIAL TOTAL3 TEMPAVG PRESSURE GPRESSURE VOLUME PRESSAVG GPRESSAVG
ENERGY: 0 0.5141 2.4405 0.0002 0.0000 -19023.6155 2171.1777 0.0000 0.0000 0.0000 -16849.4830 0.0000 -16849.4830 -16849.4830 0.0000 11202.1365 -15760.5300 85134.2750 11202.1365 -15760.5300
ENERGY: 400 3.7190 0.8899 0.1795 0.0000 -25939.7728 3783.9343 0.0000 0.0000 0.0000 -22151.0500 0.0000 -22151.0500 -22151.0500 0.0000 15827.4446 15967.7398 85134.2750 15827.4446 15967.7398
ENERGY: 800 23.9129 10.9936 2.1828 0.0000 -27435.7562 4561.9163 0.0000 0.0000 0.0000 -22836.7507 0.0000 -22836.7507 -22836.7507 0.0000 18757.5317 18886.7078 85134.2750 18757.5317 18886.7078
ENERGY: 1200 1.2955 0.3749 0.0872 0.0000 -27819.8101 4670.2787 0.0000 0.0000 0.0000 -23147.7737 0.0000 -23147.7737 -23147.7737 0.0000 19192.5741 19321.4617 85134.2750 19192.5741 19321.4617
ENERGY: 1600 0.9957 0.5365 0.2901 0.0000 -28052.4645 4763.9193 0.0000 0.0000 0.0000 -23286.7230 0.0000 -23286.7230 -23286.7230 0.0000 19582.8013 19706.0401 85134.2750 19582.8013 19706.0401
ENERGY: 2000 0.9855 0.3393 0.3313 0.0000 -28189.5495 4810.1839 0.0000 0.0000 0.0000 -23377.7095 0.0000 -23377.7095 -23377.7095 0.0000 19790.0189 19911.0444 85134.2750 19790.0189 19911.0444
TCL: Exiting due to exit command.
Info: NAMD 3.0.1 for Linux-x86_64-multicore
Info: Please visit http://www.ks.uiuc.edu/Research/namd/
Info: for updates, documentation, and support information.
Info: Please cite Phillips et al., J. Chem. Phys. 153:044130 (2020) doi:10.1063/5.0014475
Info: in all publications reporting results obtained with NAMD.
Info: Based on Charm++/Converse 80000 for multicore-linux-x86_64-gcc
Info: Built Mon Oct 14 11:11:06 CDT 2024 by dhardy on athine.ks.uiuc.edu
Info: 1 NAMD  3.0.1  Linux-x86_64-multicore  16    k015  z5358697
Info: Running on 16 processors, 1 nodes, 1 physical nodes.
Info: CPU topology information available.
Info: Charm++/Converse parallel runtime startup completed at 0.00984106 s
Info: 1043.45 MB of memory in use based on /proc/self/stat
Info: Configuration file is mobley_9821936_equil.namd
Info: Working in the current directory /srv/scratch/z5358697/prod_prep_12/9821936
TCL: Running 25000 steps at 30 kelvin.
TCL: Suspending until startup complete.
Info: SIMULATION PARAMETERS:
Info: TIMESTEP               2
Info: NUMBER OF STEPS        0
Info: STEPS PER CYCLE        10
Info: PERIODIC CELL BASIS 1  46.536 0 0
Info: PERIODIC CELL BASIS 2  0 45.969 0
Info: PERIODIC CELL BASIS 3  0 0 39.797
Info: PERIODIC CELL CENTER   0 0 0
Info: WRAPPING WATERS AROUND PERIODIC BOUNDARIES ON OUTPUT.
Info: WRAPPING ALL CLUSTERS AROUND PERIODIC BOUNDARIES ON OUTPUT.
Info: FIRST LDB TIMESTEP     50
Info: LAST LDB TIMESTEP     -1
Info: HOM BACKGROUND SCALING 1
Info: PME BACKGROUND SCALING 1
Info: MIN ATOMS PER PATCH    40
Info: EMPTY PATCH LOAD       40 ATOMS
Info: INITIAL TEMPERATURE    300
Info: CENTER OF MASS MOVING INITIALLY? NO
Info: DIELECTRIC             1
Info: EXCLUDE                SCALED ONE-FOUR
Info: 1-4 ELECTROSTATICS SCALED BY 0.833333
Info: MODIFIED 1-4 VDW PARAMETERS WILL BE USED
Info: DCD FILENAME           mobley_9821936_equil.dcd
Info: DCD FREQUENCY          5000
Info: DCD FIRST STEP         5000
Info: DCD FILE WILL CONTAIN UNIT CELL DATA
Info: XST FILENAME           mobley_9821936_equil.xst
Info: XST FREQUENCY          5000
Info: NO VELOCITY DCD OUTPUT
Info: NO FORCE DCD OUTPUT
Info: OUTPUT FILENAME        mobley_9821936_equil
Info: BINARY OUTPUT FILES WILL BE USED
Info: RESTART FILENAME       mobley_9821936_equil.restart
Info: RESTART FREQUENCY      5000
Info: BINARY RESTART FILES WILL BE USED
Info: CUTOFF                 9
Info: PAIRLIST DISTANCE      11
Info: PAIRLIST SHRINK RATE   0.01
Info: PAIRLIST GROW RATE     0.01
Info: PAIRLIST TRIGGER       0.3
Info: PAIRLISTS PER CYCLE    2
Info: PAIRLISTS ENABLED
Info: MARGIN                 8
Info: HYDROGEN GROUP CUTOFF  2.5
Info: PATCH DIMENSION        21.5
Info: ENERGY OUTPUT STEPS    5000
Info: ENERGY EVALUATION STEPS    5000
Info: OUTPUT ENERGY PRECISION 4
Info: CROSSTERM ENERGY INCLUDED IN DIHEDRAL
Info: TIMING OUTPUT STEPS    50000
Info: PRESSURE OUTPUT STEPS  5000
Info: LANGEVIN DYNAMICS ACTIVE
Info: LANGEVIN TEMPERATURE   30
Info: LANGEVIN USING BBK INTEGRATOR
Info: LANGEVIN DAMPING COEFFICIENT IS 1 INVERSE PS
Info: LANGEVIN DYNAMICS APPLIED TO HYDROGENS
Info: LANGEVIN PISTON PRESSURE CONTROL ACTIVE
Info:        TARGET PRESSURE IS 1.01325 BAR
Info:     OSCILLATION PERIOD IS 50 FS
Info:             DECAY TIME IS 25 FS
Info:     PISTON TEMPERATURE IS 300 K
Info:       PRESSURE CONTROL IS GROUP-BASED
Info:    INITIAL STRAIN RATE IS 0 0 0
Info:       CELL FLUCTUATION IS ISOTROPIC
Info: PARTICLE MESH EWALD (PME) ACTIVE
Info: PME TOLERANCE               1e-06
Info: PME EWALD COEFFICIENT       0.348832
Info: PME INTERPOLATION ORDER     4
Info: PME GRID DIMENSIONS         48 48 40
Info: PME MAXIMUM GRID SPACING    1
Info: FULL ELECTROSTATIC EVALUATION FREQUENCY      2
Info: USING VERLET I (r-RESPA) MTS SCHEME.
Info: C1 SPLITTING OF LONG RANGE ELECTROSTATICS
Info: PLACING ATOMS IN PATCHES BY HYDROGEN GROUPS
Info: RIGID BONDS TO HYDROGEN : ALL
Info:         ERROR TOLERANCE : 1e-08
Info:          MAX ITERATIONS : 100
Info: RIGID WATER USING SETTLE ALGORITHM
Info: RANDOM NUMBER SEED     1741401550
Info: USE HYDROGEN BONDS?    NO
Info: Using AMBER format force field!
Info: AMBER PARM FILE        mobley_9821936.prmtop
Info: COORDINATE PDB         mobley_9821936.pdb
Info: Exclusions will be read from PARM file!
Info: SCNB (VDW SCALING)     2
Info: USING ARITHMETIC MEAN TO COMBINE L-J SIGMA PARAMETERS
Info: BINARY COORDINATES     mobley_9821936_min.coor
Info: SUMMARY OF PARAMETERS:
Info: 5 BONDS
Info: 4 ANGLES
Info:   4 HARMONIC
Info:   0 COSINE-BASED
Info: 3 DIHEDRAL
Info: 0 IMPROPER
Info: 0 CROSSTERM
Info: 0 VDW
Info: 15 VDW_PAIRS
Info: 0 NBTHOLE_PAIRS
Info: STRUCTURE SUMMARY:
Info: 6181 ATOMS
Info: 6183 BONDS
Info: 38 ANGLES
Info: 64 DIHEDRALS
Info: 0 IMPROPERS
Info: 0 CROSSTERMS
Info: 6268 EXCLUSIONS
Info: 6159 RIGID BONDS
Info: 12384 DEGREES OF FREEDOM
Info: 2075 HYDROGEN GROUPS
Info: 3 ATOMS IN LARGEST HYDROGEN GROUP
Info: 2075 MIGRATION GROUPS
Info: 3 ATOMS IN LARGEST MIGRATION GROUP
Info: TOTAL MASS = 37446.6 amu
Info: TOTAL CHARGE = 9.9998e-05 e
Info: MASS DENSITY = 0.73041 g/cm^3
Info: ATOM DENSITY = 0.072603 atoms/A^3
Info: ADDED 0 IMPLICIT EXCLUSIONS
Info: NONBONDED TABLE R-SQUARED SPACING: 0.0625
Info: NONBONDED TABLE SIZE: 705 POINTS
Info: REMOVING COM VELOCITY -0.0299374 -0.0794134 -0.0295083
TCL: Running for 25000 steps
ETITLE: TS BOND ANGLE DIHED IMPRP ELECT VDW BOUNDARY MISC KINETIC TOTAL TEMP POTENTIAL TOTAL3 TEMPAVG PRESSURE GPRESSURE VOLUME PRESSAVG GPRESSAVG
ENERGY: 0 0.9855 0.3393 0.3313 0.0000 -28189.5495 4810.1839 0.0000 0.0000 3726.0431 -19651.6663 302.8150 -23377.7095 -19650.8996 302.8150 19.5796 59.3971 85134.2750 19.5796 59.3971
ENERGY: 5000 1.7756 0.8330 0.8995 0.0000 -29608.6869 5129.3460 0.0000 0.0000 380.5926 -24095.2401 30.9307 -24475.8328 -24094.2387 47.9701 236.9960 290.5357 59768.8651 1.0933 0.9744
ENERGY: 10000 0.8503 0.9491 0.6975 0.0000 -29716.7221 5194.5109 0.0000 0.0000 363.3898 -24156.3246 29.5326 -24519.7144 -24155.2471 30.2095 392.6482 443.1365 59911.5244 7.1444 7.1237
ENERGY: 15000 1.1944 0.9396 0.9205 0.0000 -29688.4582 5148.0388 0.0000 0.0000 374.3685 -24162.9965 30.4249 -24537.3650 -24161.8142 30.0386 109.3272 158.9454 60065.9186 3.7572 3.7774
ENERGY: 20000 1.4009 1.3792 0.6491 0.0000 -29796.1880 5219.3535 0.0000 0.0000 371.2041 -24202.2011 30.1677 -24573.4052 -24200.8177 30.0780 355.8661 415.5442 59945.0535 3.0398 2.7947
ENERGY: 25000 1.0019 0.8355 0.9682 0.0000 -29894.3860 5315.0248 0.0000 0.0000 370.0565 -24206.4991 30.0744 -24576.5556 -24205.6566 30.1513 750.6762 812.4770 59809.7622 0.8237 0.7360
TCL: Running 25000 steps at 60 kelvin.
TCL: Setting parameter langevinTemp to 60
TCL: Running for 25000 steps
ETITLE: TS BOND ANGLE DIHED IMPRP ELECT VDW BOUNDARY MISC KINETIC TOTAL TEMP POTENTIAL TOTAL3 TEMPAVG PRESSURE GPRESSURE VOLUME PRESSAVG GPRESSAVG
ENERGY: 25000 1.0019 0.8355 0.9682 0.0000 -29894.3860 5315.0248 0.0000 0.0000 369.8725 -24206.6830 30.0595 -24576.5556 -24206.0251 30.0595 756.4477 812.4537 59809.7622 756.4477 812.4537
ENERGY: 30000 1.5465 0.9583 1.3917 0.0000 -29135.1151 4886.1568 0.0000 0.0000 734.6976 -23510.3641 59.7088 -24245.0617 -23508.0389 57.0498 -400.0742 -334.9568 60305.1872 1.5506 1.4757
ENERGY: 35000 1.7414 1.3020 1.1757 0.0000 -29171.2919 4903.8968 0.0000 0.0000 722.3986 -23540.7774 58.7092 -24263.1760 -23539.5689 60.1163 -312.6828 -255.6401 60198.4488 6.0473 5.8213
ENERGY: 40000 1.6286 0.6892 0.9743 0.0000 -29145.2167 4837.0673 0.0000 0.0000 757.9256 -23546.9318 61.5965 -24304.8573 -23545.0986 60.3278 -673.5901 -629.2129 60577.5993 0.9153 0.8825
ENERGY: 45000 1.4920 0.6467 1.2166 0.0000 -29390.1101 5039.7846 0.0000 0.0000 731.6516 -23615.3185 59.4612 -24346.9701 -23613.4338 60.3198 -9.5766 64.2073 60303.4639 2.8129 2.7645
ENERGY: 50000 1.9661 1.2015 1.5068 0.0000 -29395.7937 5012.4244 0.0000 0.0000 732.4517 -23646.2432 59.5262 -24378.6949 -23643.4069 60.0520 -93.3896 -51.8802 60205.7826 6.6916 6.7587
TCL: Running 25000 steps at 90 kelvin.
TCL: Setting parameter langevinTemp to 90
TCL: Running for 25000 steps
ETITLE: TS BOND ANGLE DIHED IMPRP ELECT VDW BOUNDARY MISC KINETIC TOTAL TEMP POTENTIAL TOTAL3 TEMPAVG PRESSURE GPRESSURE VOLUME PRESSAVG GPRESSAVG
ENERGY: 50000 1.9661 1.2015 1.5068 0.0000 -29395.7937 5012.4244 0.0000 0.0000 732.0907 -23646.6042 59.4969 -24378.6949 -23645.0151 59.4969 -100.6553 -51.1395 60205.7826 -100.6553 -51.1395
ENERGY: 55000 2.1103 1.5416 1.8358 0.0000 -28965.8613 4957.2304 0.0000 0.0000 1137.0663 -22866.0770 92.4092 -24003.1432 -22864.2808 87.6046 348.3119 400.7478 60387.7274 1.2933 1.1872
ENERGY: 60000 4.3452 1.2687 1.1617 0.0000 -28858.8339 4813.1569 0.0000 0.0000 1110.6418 -22928.2595 90.2617 -24038.9014 -22926.2195 90.3957 -400.6470 -349.8180 60473.1821 -2.7305 -2.9382
ENERGY: 65000 2.2913 2.2902 2.3248 0.0000 -28935.6602 4863.7096 0.0000 0.0000 1086.3214 -22978.7229 88.2852 -24065.0443 -22975.6979 89.6222 -114.8282 -103.2730 60197.7936 3.0993 2.9742
ENERGY: 70000 3.1891 1.2751 1.8752 0.0000 -29039.7071 4928.9750 0.0000 0.0000 1094.4041 -23009.9887 88.9421 -24104.3928 -23007.0893 89.8651 61.4664 81.1042 60032.7088 2.6885 2.4733
ENERGY: 75000 2.6188 1.5556 1.2310 0.0000 -29138.2791 5003.3186 0.0000 0.0000 1124.6433 -23004.9118 91.3996 -24129.5551 -23001.8111 90.0166 334.4858 383.9741 59822.0387 4.6474 4.6392
TCL: Running 25000 steps at 120 kelvin.
TCL: Setting parameter langevinTemp to 120
TCL: Running for 25000 steps
ETITLE: TS BOND ANGLE DIHED IMPRP ELECT VDW BOUNDARY MISC KINETIC TOTAL TEMP POTENTIAL TOTAL3 TEMPAVG PRESSURE GPRESSURE VOLUME PRESSAVG GPRESSAVG
ENERGY: 75000 2.6188 1.5556 1.2310 0.0000 -29138.2791 5003.3186 0.0000 0.0000 1124.0931 -23005.4620 91.3549 -24129.5551 -23003.1487 91.3549 329.0745 383.9535 59822.0387 329.0745 383.9535
ENERGY: 80000 3.4814 2.3622 2.3629 0.0000 -28447.3415 4727.9823 0.0000 0.0000 1502.7279 -22208.4248 122.1265 -23711.1526 -22203.9557 116.9165 -73.2199 10.5829 60307.2853 2.0276 1.9133
ENERGY: 85000 2.7516 1.2047 3.6451 0.0000 -28796.2735 5024.9331 0.0000 0.0000 1463.9822 -22299.7567 118.9776 -23763.7389 -22295.5771 120.5858 1063.1953 1143.2792 59703.3981 -0.5892 -0.5453
ENERGY: 90000 3.7959 2.8991 4.6492 0.0000 -28394.8468 4616.7528 0.0000 0.0000 1430.8784 -22335.8714 116.2873 -23766.7498 -22333.2410 120.2413 -583.4296 -506.4737 60146.1747 -0.8932 -1.1095
ENERGY: 95000 2.5879 1.7316 1.5923 0.0000 -28834.8228 5008.2246 0.0000 0.0000 1496.9793 -22323.7071 121.6593 -23820.6865 -22319.4119 120.2665 946.8938 1035.2584 59693.0093 0.8051 0.5816
ENERGY: 100000 2.9046 2.7425 2.3961 0.0000 -28687.0558 4816.4336 0.0000 0.0000 1480.2813 -22382.2978 120.3022 -23862.5790 -22379.1418 120.1793 66.8700 131.4477 60160.4272 4.6854 4.9252
TCL: Running 25000 steps at 150 kelvin.
TCL: Setting parameter langevinTemp to 150
TCL: Running for 25000 steps
ETITLE: TS BOND ANGLE DIHED IMPRP ELECT VDW BOUNDARY MISC KINETIC TOTAL TEMP POTENTIAL TOTAL3 TEMPAVG PRESSURE GPRESSURE VOLUME PRESSAVG GPRESSAVG
ENERGY: 100000 2.9046 2.7425 2.3961 0.0000 -28687.0558 4816.4336 0.0000 0.0000 1479.5443 -22383.0348 120.2423 -23862.5790 -22380.0236 120.2423 70.1582 131.7142 60160.4272 70.1582 131.7142
ENERGY: 105000 5.2710 2.8862 3.2792 0.0000 -27869.8542 4485.8364 0.0000 0.0000 1841.2141 -21531.3673 149.6352 -23372.5814 -21526.3607 147.6927 -488.7256 -443.3153 60471.8265 2.1228 2.4933
ENERGY: 110000 5.9288 2.1479 3.1772 0.0000 -28047.7831 4633.7413 0.0000 0.0000 1857.3242 -21545.4637 150.9445 -23402.7879 -21541.5715 150.5647 110.4040 179.8869 60096.2342 3.9697 3.8732
ENERGY: 115000 4.0341 1.2824 2.3447 0.0000 -28022.2952 4582.8029 0.0000 0.0000 1861.5945 -21570.2366 151.2915 -23431.8310 -21564.5909 150.3466 -138.5702 -56.9270 60382.0322 2.8815 2.7466
ENERGY: 120000 5.0961 3.6955 2.8021 0.0000 -28045.5632 4586.2037 0.0000 0.0000 1823.5864 -21624.1794 148.2026 -23447.7658 -21619.8267 149.3790 -257.4611 -165.1130 60580.9156 2.0931 1.9878
ENERGY: 125000 2.5366 3.5103 3.1914 0.0000 -28189.4503 4678.8471 0.0000 0.0000 1886.0800 -21615.2849 153.2814 -23501.3649 -21611.5124 150.2929 -11.1050 40.4212 60906.1981 2.2529 2.3055
TCL: Running 50000 steps at 180 kelvin.
TCL: Setting parameter langevinTemp to 180
TCL: Running for 50000 steps
ETITLE: TS BOND ANGLE DIHED IMPRP ELECT VDW BOUNDARY MISC KINETIC TOTAL TEMP POTENTIAL TOTAL3 TEMPAVG PRESSURE GPRESSURE VOLUME PRESSAVG GPRESSAVG
ENERGY: 125000 2.5366 3.5103 3.1914 0.0000 -28189.4503 4678.8471 0.0000 0.0000 1885.1655 -21616.1994 153.2071 -23501.3649 -21612.2512 153.2071 -21.6022 40.1941 60906.1981 -21.6022 40.1941
ENERGY: 135000 4.3940 2.1705 4.8710 0.0000 -27291.0009 4372.4702 0.0000 0.0000 2229.6377 -20677.4576 181.2023 -22907.0953 -20673.0947 178.9075 -132.3039 -35.0708 60659.9086 8.8983 8.7344
ENERGY: 145000 3.5379 2.2681 2.6440 0.0000 -27253.1631 4283.1156 0.0000 0.0000 2210.7223 -20750.8753 179.6651 -22961.5976 -20745.9772 180.0775 -515.1808 -497.4438 60890.6929 3.5389 3.2082
ENERGY: 155000 2.4821 2.4381 4.0310 0.0000 -27422.4250 4470.0677 0.0000 0.0000 2228.5440 -20714.8622 181.1134 -22943.4062 -20710.0033 179.9604 332.4222 400.2873 60418.6726 5.6564 5.4317
ENERGY: 165000 7.2747 4.4122 3.3194 0.0000 -27373.7386 4406.0233 0.0000 0.0000 2241.7646 -20710.9444 182.1879 -22952.7089 -20704.3696 181.2710 30.8134 72.9183 60554.7326 0.6271 0.2713
ENERGY: 175000 5.7327 4.3224 2.9180 0.0000 -27484.5681 4431.4473 0.0000 0.0000 2198.5944 -20841.5533 178.6794 -23040.1476 -20837.0385 178.9840 -36.7160 27.8977 60475.9715 3.8995 3.5757
TCL: Running 50000 steps at 210 kelvin.
TCL: Setting parameter langevinTemp to 210
TCL: Running for 50000 steps
ETITLE: TS BOND ANGLE DIHED IMPRP ELECT VDW BOUNDARY MISC KINETIC TOTAL TEMP POTENTIAL TOTAL3 TEMPAVG PRESSURE GPRESSURE VOLUME PRESSAVG GPRESSAVG
ENERGY: 175000 5.7327 4.3224 2.9180 0.0000 -27484.5681 4431.4473 0.0000 0.0000 2197.4982 -20842.6494 178.5903 -23040.1476 -20838.5826 178.5903 -36.3463 27.1904 60475.9715 -36.3463 27.1904
ENERGY: 185000 8.5250 4.1509 3.1170 0.0000 -26087.7860 3945.2058 0.0000 0.0000 2557.9734 -19568.8138 207.8861 -22126.7872 -19563.0464 207.8449 -546.9993 -485.3133 61003.2088 -0.4243 -0.3797
ENERGY: 195000 5.6870 4.9087 6.0014 0.0000 -25863.2824 3954.3992 0.0000 0.0000 2580.9758 -19311.3103 209.7555 -21892.2861 -19306.9869 210.5916 257.7723 338.3950 60037.9254 5.3070 5.5176
ENERGY: 205000 6.2738 2.4360 2.2868 0.0000 -25762.6394 3785.5980 0.0000 0.0000 2599.0795 -19366.9653 211.2268 -21966.0448 -19358.7060 210.1744 -681.4125 -590.2937 60315.1519 4.7762 4.6850
ENERGY: 215000 7.0202 3.3711 3.4637 0.0000 -25944.1430 3780.6323 0.0000 0.0000 2596.7886 -19552.8670 211.0406 -22149.6556 -19546.2261 210.8957 -1027.7056 -954.9084 60984.2886 4.5211 4.5522
ENERGY: 225000 6.3247 3.9172 4.0770 0.0000 -25959.6877 4000.3594 0.0000 0.0000 2561.7504 -19383.2590 208.1931 -21945.0094 -19376.2225 210.9752 286.0691 369.7558 60642.1490 3.7462 3.4523
TCL: Running 50000 steps at 240 kelvin.
TCL: Setting parameter langevinTemp to 240
TCL: Running for 50000 steps
ETITLE: TS BOND ANGLE DIHED IMPRP ELECT VDW BOUNDARY MISC KINETIC TOTAL TEMP POTENTIAL TOTAL3 TEMPAVG PRESSURE GPRESSURE VOLUME PRESSAVG GPRESSAVG
ENERGY: 225000 6.3247 3.9172 4.0770 0.0000 -25959.6877 4000.3594 0.0000 0.0000 2560.4497 -19384.5597 208.0874 -21945.0094 -19380.3287 208.0874 299.5100 371.3375 60642.1490 299.5100 371.3375
ENERGY: 235000 7.7306 4.8288 7.6879 0.0000 -24900.0911 3674.0654 0.0000 0.0000 2997.1785 -18208.5998 243.5802 -21205.7784 -18206.1426 240.6505 214.0644 317.3346 60662.1974 3.9977 3.5359
ENERGY: 245000 6.6690 1.7851 6.4111 0.0000 -24406.1853 3394.1851 0.0000 0.0000 3004.9479 -17992.1871 244.2117 -20997.1350 -17986.0351 239.9790 -690.3465 -622.8462 61542.7177 4.3969 4.7607
ENERGY: 255000 4.9919 5.2496 3.0628 0.0000 -24644.8363 3525.4593 0.0000 0.0000 2938.4884 -18167.5843 238.8105 -21106.0727 -18160.5706 240.0148 -383.3235 -316.3018 61447.9461 4.1016 4.2849
ENERGY: 265000 7.7517 3.2212 6.5247 0.0000 -24735.1703 3708.6004 0.0000 0.0000 2883.6768 -18125.3954 234.3560 -21009.0722 -18121.7265 240.2781 462.1535 567.3055 60988.4902 2.8285 2.6451
ENERGY: 275000 6.6929 4.2177 4.3132 0.0000 -24735.5910 3578.9134 0.0000 0.0000 2891.8761 -18249.5777 235.0223 -21141.4539 -18242.2585 240.1416 -74.2542 33.7592 60745.3395 0.4867 0.5735
TCL: Running 50000 steps at 270 kelvin.
TCL: Setting parameter langevinTemp to 270
TCL: Running for 50000 steps
ETITLE: TS BOND ANGLE DIHED IMPRP ELECT VDW BOUNDARY MISC KINETIC TOTAL TEMP POTENTIAL TOTAL3 TEMPAVG PRESSURE GPRESSURE VOLUME PRESSAVG GPRESSAVG
ENERGY: 275000 6.6929 4.2177 4.3132 0.0000 -24735.5910 3578.9134 0.0000 0.0000 2890.4117 -18251.0421 234.9033 -21141.4539 -18246.5016 234.9033 -64.3083 33.7352 60745.3395 -64.3083 33.7352
ENERGY: 285000 6.0923 4.4524 4.5137 0.0000 -23587.2731 3247.1579 0.0000 0.0000 3329.3999 -16995.6569 270.5798 -20325.0568 -16989.8735 271.2831 -335.1626 -238.9080 62048.6355 3.8425 4.2826
ENERGY: 295000 7.1964 3.8731 3.7817 0.0000 -23703.7825 3410.2846 0.0000 0.0000 3322.2208 -16956.4259 269.9964 -20278.6468 -16947.8622 270.9832 230.6539 337.7698 62398.4491 3.0919 3.2221
ENERGY: 305000 5.1989 4.0137 6.5292 0.0000 -23436.0167 3239.7233 0.0000 0.0000 3287.3738 -16893.1777 267.1644 -20180.5515 -16884.8557 269.8540 43.1477 100.9383 61768.7714 3.4829 3.1037
ENERGY: 315000 7.2925 2.7035 2.4875 0.0000 -23328.5689 3109.3937 0.0000 0.0000 3262.0190 -16944.6726 265.1038 -20206.6916 -16937.4287 269.4475 -667.3250 -566.7757 62378.0443 1.6815 1.2570
ENERGY: 325000 5.5867 6.0095 4.6091 0.0000 -23482.5974 3188.8825 0.0000 0.0000 3317.2501 -16960.2596 269.5924 -20277.5097 -16954.0482 269.4285 -444.6504 -378.7517 62353.3149 -0.1922 -0.1145
TCL: Running 1000000 steps at 300 kelvin.
TCL: Setting parameter langevinTemp to 300
TCL: Running for 1000000 steps
ETITLE: TS BOND ANGLE DIHED IMPRP ELECT VDW BOUNDARY MISC KINETIC TOTAL TEMP POTENTIAL TOTAL3 TEMPAVG PRESSURE GPRESSURE VOLUME PRESSAVG GPRESSAVG
ENERGY: 325000 5.5867 6.0095 4.6091 0.0000 -23482.5974 3188.8825 0.0000 0.0000 3315.6083 -16961.9014 269.4590 -20277.5097 -16956.4766 269.4590 -453.7851 -379.2800 62353.3149 -453.7851 -379.2800
ENERGY: 525000 8.8365 4.1120 5.9045 0.0000 -22459.5397 3012.9160 0.0000 0.0000 3645.6552 -15782.1155 296.2818 -19427.7707 -15777.1177 299.7864 -126.3637 -49.8499 64034.3138 2.9035 2.7844
ENERGY: 725000 4.2800 4.5383 3.7458 0.0000 -22423.7831 3012.4364 0.0000 0.0000 3711.3059 -15687.4768 301.6173 -19398.7826 -15678.2280 300.0353 -168.9352 -79.1853 64154.5630 2.1590 1.7845
ENERGY: 925000 5.7951 6.8643 6.8194 0.0000 -22342.3724 2938.0650 0.0000 0.0000 3661.6614 -15723.1670 297.5827 -19384.8284 -15717.0459 299.0689 -375.9258 -285.7559 63953.5408 -2.1448 -1.7896
ENERGY: 1125000 8.2727 4.3101 6.4831 0.0000 -22559.7821 3042.9977 0.0000 0.0000 3620.8835 -15876.8351 294.2686 -19497.7186 -15867.5113 298.4487 -191.9574 -89.0790 64158.6526 1.6462 2.1062
ENERGY: 1325000 6.5730 5.7267 4.5423 0.0000 -22579.4154 3050.8967 0.0000 0.0000 3777.0450 -15734.6316 306.9599 -19511.6766 -15723.8234 302.4939 249.7688 308.9465 63376.8633 -1.7443 -2.1979
TCL: Exiting due to exit command.
