Info: SIMULATION PARAMETERS:
Info: TIMESTEP               2
Info: NUMBER OF STEPS        0
Info: STEPS PER CYCLE        10
Info: PERIODIC CELL BASIS 1  43.207 0 0
Info: PERIODIC CELL BASIS 2  0 41.891 0
Info: PERIODIC CELL BASIS 3  0 0 40.862
Info: PERIODIC CELL CENTER   0 0 0
Info: WRAPPING WATERS AROUND PERIODIC BOUNDARIES ON OUTPUT.
Info: WRAPPING ALL CLUSTERS AROUND PERIODIC BOUNDARIES ON OUTPUT.
Info: FIRST LDB TIMESTEP     50
Info: LAST LDB TIMESTEP     -1
Info: HOM BACKGROUND SCALING 1
Info: PME BACKGROUND SCALING 1
Info: MIN ATOMS PER PATCH    40
Info: EMPTY PATCH LOAD       40 ATOMS
Info: INITIAL TEMPERATURE    300
Info: CENTER OF MASS MOVING INITIALLY? NO
Info: DIELECTRIC             1
Info: EXCLUDE                SCALED ONE-FOUR
Info: 1-4 ELECTROSTATICS SCALED BY 0.833333
Info: MODIFIED 1-4 VDW PARAMETERS WILL BE USED
Info: DCD FILENAME           mobley_9565165_min.dcd
Info: DCD FREQUENCY          5000
Info: DCD FIRST STEP         5000
Info: DCD FILE WILL CONTAIN UNIT CELL DATA
Info: XST FILENAME           mobley_9565165_min.xst
Info: XST FREQUENCY          5000
Info: NO VELOCITY DCD OUTPUT
Info: NO FORCE DCD OUTPUT
Info: OUTPUT FILENAME        mobley_9565165_min
Info: BINARY OUTPUT FILES WILL BE USED
Info: RESTART FILENAME       mobley_9565165_min.restart
Info: RESTART FREQUENCY      5000
Info: BINARY RESTART FILES WILL BE USED
Info: CUTOFF                 9
Info: PAIRLIST DISTANCE      11
Info: PAIRLIST SHRINK RATE   0.01
Info: PAIRLIST GROW RATE     0.01
Info: PAIRLIST TRIGGER       0.3
Info: PAIRLISTS PER CYCLE    2
Info: PAIRLISTS ENABLED
Info: MARGIN                 8
Info: HYDROGEN GROUP CUTOFF  2.5
Info: PATCH DIMENSION        21.5
Info: ENERGY OUTPUT STEPS    5000
Info: ENERGY EVALUATION STEPS    5000
Info: OUTPUT ENERGY PRECISION 4
Info: CROSSTERM ENERGY INCLUDED IN DIHEDRAL
Info: TIMING OUTPUT STEPS    50000
Info: PRESSURE OUTPUT STEPS  5000
Info: LANGEVIN DYNAMICS ACTIVE
Info: LANGEVIN TEMPERATURE   300
Info: LANGEVIN USING BBK INTEGRATOR
Info: LANGEVIN DAMPING COEFFICIENT IS 1 INVERSE PS
Info: LANGEVIN DYNAMICS APPLIED TO HYDROGENS
Info: LANGEVIN PISTON PRESSURE CONTROL ACTIVE
Info:        TARGET PRESSURE IS 1.01325 BAR
Info:     OSCILLATION PERIOD IS 50 FS
Info:             DECAY TIME IS 25 FS
Info:     PISTON TEMPERATURE IS 300 K
Info:       PRESSURE CONTROL IS GROUP-BASED
Info:    INITIAL STRAIN RATE IS 0 0 0
Info:       CELL FLUCTUATION IS ISOTROPIC
Info: PARTICLE MESH EWALD (PME) ACTIVE
Info: PME TOLERANCE               1e-06
Info: PME EWALD COEFFICIENT       0.348832
Info: PME INTERPOLATION ORDER     4
Info: PME GRID DIMENSIONS         44 44 44
Info: PME MAXIMUM GRID SPACING    1
Info: FULL ELECTROSTATIC EVALUATION FREQUENCY      2
Info: USING VERLET I (r-RESPA) MTS SCHEME.
Info: C1 SPLITTING OF LONG RANGE ELECTROSTATICS
Info: PLACING ATOMS IN PATCHES BY HYDROGEN GROUPS
Info: RIGID BONDS TO HYDROGEN : ALL
Info:         ERROR TOLERANCE : 1e-08
Info:          MAX ITERATIONS : 100
Info: RIGID WATER USING SETTLE ALGORITHM
Info: RANDOM NUMBER SEED     1741403131
Info: USE HYDROGEN BONDS?    NO
Info: Using AMBER format force field!
Info: AMBER PARM FILE        mobley_9565165.prmtop
Info: COORDINATE PDB         mobley_9565165.pdb
Info: Exclusions will be read from PARM file!
Info: SCNB (VDW SCALING)     2
Info: USING ARITHMETIC MEAN TO COMBINE L-J SIGMA PARAMETERS
Info: SUMMARY OF PARAMETERS:
Info: 8 BONDS
Info: 11 ANGLES
Info:   11 HARMONIC
Info:   0 COSINE-BASED
Info: 6 DIHEDRAL
Info: 0 IMPROPER
Info: 0 CROSSTERM
Info: 0 VDW
Info: 21 VDW_PAIRS
Info: 0 NBTHOLE_PAIRS
Info: STRUCTURE SUMMARY:
Info: 5327 ATOMS
Info: 5329 BONDS
Info: 42 ANGLES
Info: 72 DIHEDRALS
Info: 0 IMPROPERS
Info: 0 CROSSTERMS
Info: 5424 EXCLUSIONS
Info: 5314 RIGID BONDS
Info: 10667 DEGREES OF FREEDOM
Info: 1781 HYDROGEN GROUPS
Info: 3 ATOMS IN LARGEST HYDROGEN GROUP
Info: 1781 MIGRATION GROUPS
Info: 3 ATOMS IN LARGEST MIGRATION GROUP
Info: TOTAL MASS = 32018.5 amu
Info: TOTAL CHARGE = 0.000100026 e
Info: MASS DENSITY = 0.718895 g/cm^3
Info: ATOM DENSITY = 0.0720258 atoms/A^3
Info: ADDED 0 IMPLICIT EXCLUSIONS
Info: NONBONDED TABLE R-SQUARED SPACING: 0.0625
Info: NONBONDED TABLE SIZE: 705 POINTS
Info: REMOVING COM VELOCITY 0.120046 0.0193241 -0.000226685
TCL: Minimizing for 2000 steps
ETITLE: TS BOND ANGLE DIHED IMPRP ELECT VDW BOUNDARY MISC KINETIC TOTAL TEMP POTENTIAL TOTAL3 TEMPAVG PRESSURE GPRESSURE VOLUME PRESSAVG GPRESSAVG
ENERGY: 0 0.8690 19.3595 0.0003 0.0000 -16716.2885 1879.1631 0.0000 0.0000 0.0000 -14816.8967 0.0000 -14816.8967 -14816.8967 0.0000 11186.0781 -15469.9340 73959.5841 11186.0781 -15469.9340
ENERGY: 400 1.6006 20.7490 0.0312 0.0000 -22662.6729 3535.6604 0.0000 0.0000 0.0000 -19104.6318 0.0000 -19104.6318 -19104.6318 0.0000 16991.0043 16585.8110 73959.5841 16991.0043 16585.8110
ENERGY: 800 6.5729 21.3073 0.3990 0.0000 -23605.8092 3867.5139 0.0000 0.0000 0.0000 -19710.0161 0.0000 -19710.0161 -19710.0161 0.0000 18352.8675 17882.5857 73959.5841 18352.8675 17882.5857
ENERGY: 1200 0.5741 19.2959 0.0757 0.0000 -23997.9493 4050.0528 0.0000 0.0000 0.0000 -19927.9508 0.0000 -19927.9508 -19927.9508 0.0000 19187.2811 18681.4485 73959.5841 19187.2811 18681.4485
ENERGY: 1600 7.0612 26.7018 1.5419 0.0000 -24208.8445 4149.8868 0.0000 0.0000 0.0000 -20023.6528 0.0000 -20023.6528 -20023.6528 0.0000 19648.3428 19109.9385 73959.5841 19648.3428 19109.9385
ENERGY: 2000 2.1528 18.6556 0.1436 0.0000 -24310.1522 4189.8090 0.0000 0.0000 0.0000 -20099.3912 0.0000 -20099.3912 -20099.3912 0.0000 19842.7887 19353.7135 73959.5841 19842.7887 19353.7135
TCL: Exiting due to exit command.
Info: NAMD 3.0.1 for Linux-x86_64-multicore
Info: Please visit http://www.ks.uiuc.edu/Research/namd/
Info: for updates, documentation, and support information.
Info: Please cite Phillips et al., J. Chem. Phys. 153:044130 (2020) doi:10.1063/5.0014475
Info: in all publications reporting results obtained with NAMD.
Info: Based on Charm++/Converse 80000 for multicore-linux-x86_64-gcc
Info: Built Mon Oct 14 11:11:06 CDT 2024 by dhardy on athine.ks.uiuc.edu
Info: 1 NAMD  3.0.1  Linux-x86_64-multicore  16    k026  z5358697
Info: Running on 16 processors, 1 nodes, 1 physical nodes.
Info: CPU topology information available.
Info: Charm++/Converse parallel runtime startup completed at 0.0192624 s
Info: 1043.46 MB of memory in use based on /proc/self/stat
Info: Configuration file is mobley_9565165_equil.namd
Info: Working in the current directory /srv/scratch/z5358697/prod_prep_12/9565165
TCL: Running 25000 steps at 30 kelvin.
TCL: Suspending until startup complete.
Info: SIMULATION PARAMETERS:
Info: TIMESTEP               2
Info: NUMBER OF STEPS        0
Info: STEPS PER CYCLE        10
Info: PERIODIC CELL BASIS 1  43.207 0 0
Info: PERIODIC CELL BASIS 2  0 41.891 0
Info: PERIODIC CELL BASIS 3  0 0 40.862
Info: PERIODIC CELL CENTER   0 0 0
Info: WRAPPING WATERS AROUND PERIODIC BOUNDARIES ON OUTPUT.
Info: WRAPPING ALL CLUSTERS AROUND PERIODIC BOUNDARIES ON OUTPUT.
Info: FIRST LDB TIMESTEP     50
Info: LAST LDB TIMESTEP     -1
Info: HOM BACKGROUND SCALING 1
Info: PME BACKGROUND SCALING 1
Info: MIN ATOMS PER PATCH    40
Info: EMPTY PATCH LOAD       40 ATOMS
Info: INITIAL TEMPERATURE    300
Info: CENTER OF MASS MOVING INITIALLY? NO
Info: DIELECTRIC             1
Info: EXCLUDE                SCALED ONE-FOUR
Info: 1-4 ELECTROSTATICS SCALED BY 0.833333
Info: MODIFIED 1-4 VDW PARAMETERS WILL BE USED
Info: DCD FILENAME           mobley_9565165_equil.dcd
Info: DCD FREQUENCY          5000
Info: DCD FIRST STEP         5000
Info: DCD FILE WILL CONTAIN UNIT CELL DATA
Info: XST FILENAME           mobley_9565165_equil.xst
Info: XST FREQUENCY          5000
Info: NO VELOCITY DCD OUTPUT
Info: NO FORCE DCD OUTPUT
Info: OUTPUT FILENAME        mobley_9565165_equil
Info: BINARY OUTPUT FILES WILL BE USED
Info: RESTART FILENAME       mobley_9565165_equil.restart
Info: RESTART FREQUENCY      5000
Info: BINARY RESTART FILES WILL BE USED
Info: CUTOFF                 9
Info: PAIRLIST DISTANCE      11
Info: PAIRLIST SHRINK RATE   0.01
Info: PAIRLIST GROW RATE     0.01
Info: PAIRLIST TRIGGER       0.3
Info: PAIRLISTS PER CYCLE    2
Info: PAIRLISTS ENABLED
Info: MARGIN                 8
Info: HYDROGEN GROUP CUTOFF  2.5
Info: PATCH DIMENSION        21.5
Info: ENERGY OUTPUT STEPS    5000
Info: ENERGY EVALUATION STEPS    5000
Info: OUTPUT ENERGY PRECISION 4
Info: CROSSTERM ENERGY INCLUDED IN DIHEDRAL
Info: TIMING OUTPUT STEPS    50000
Info: PRESSURE OUTPUT STEPS  5000
Info: LANGEVIN DYNAMICS ACTIVE
Info: LANGEVIN TEMPERATURE   30
Info: LANGEVIN USING BBK INTEGRATOR
Info: LANGEVIN DAMPING COEFFICIENT IS 1 INVERSE PS
Info: LANGEVIN DYNAMICS APPLIED TO HYDROGENS
Info: LANGEVIN PISTON PRESSURE CONTROL ACTIVE
Info:        TARGET PRESSURE IS 1.01325 BAR
Info:     OSCILLATION PERIOD IS 50 FS
Info:             DECAY TIME IS 25 FS
Info:     PISTON TEMPERATURE IS 300 K
Info:       PRESSURE CONTROL IS GROUP-BASED
Info:    INITIAL STRAIN RATE IS 0 0 0
Info:       CELL FLUCTUATION IS ISOTROPIC
Info: PARTICLE MESH EWALD (PME) ACTIVE
Info: PME TOLERANCE               1e-06
Info: PME EWALD COEFFICIENT       0.348832
Info: PME INTERPOLATION ORDER     4
Info: PME GRID DIMENSIONS         44 44 44
Info: PME MAXIMUM GRID SPACING    1
Info: FULL ELECTROSTATIC EVALUATION FREQUENCY      2
Info: USING VERLET I (r-RESPA) MTS SCHEME.
Info: C1 SPLITTING OF LONG RANGE ELECTROSTATICS
Info: PLACING ATOMS IN PATCHES BY HYDROGEN GROUPS
Info: RIGID BONDS TO HYDROGEN : ALL
Info:         ERROR TOLERANCE : 1e-08
Info:          MAX ITERATIONS : 100
Info: RIGID WATER USING SETTLE ALGORITHM
Info: RANDOM NUMBER SEED     1741403148
Info: USE HYDROGEN BONDS?    NO
Info: Using AMBER format force field!
Info: AMBER PARM FILE        mobley_9565165.prmtop
Info: COORDINATE PDB         mobley_9565165.pdb
Info: Exclusions will be read from PARM file!
Info: SCNB (VDW SCALING)     2
Info: USING ARITHMETIC MEAN TO COMBINE L-J SIGMA PARAMETERS
Info: BINARY COORDINATES     mobley_9565165_min.coor
Info: SUMMARY OF PARAMETERS:
Info: 8 BONDS
Info: 11 ANGLES
Info: 6 DIHEDRAL
Info: 0 IMPROPER
Info: 0 CROSSTERM
Info: 0 VDW
Info: 21 VDW_PAIRS
Info: 0 NBTHOLE_PAIRS
Info: STRUCTURE SUMMARY:
Info: 5327 ATOMS
Info: 5329 BONDS
Info: 42 ANGLES
Info: 72 DIHEDRALS
Info: 0 IMPROPERS
Info: 0 CROSSTERMS
Info: 5424 EXCLUSIONS
Info: 5314 RIGID BONDS
Info: 10667 DEGREES OF FREEDOM
Info: 1781 HYDROGEN GROUPS
Info: 3 ATOMS IN LARGEST HYDROGEN GROUP
Info: 1781 MIGRATION GROUPS
Info: 3 ATOMS IN LARGEST MIGRATION GROUP
Info: TOTAL MASS = 32018.5 amu
Info: TOTAL CHARGE = 0.000100026 e
Info: MASS DENSITY = 0.718895 g/cm^3
Info: ATOM DENSITY = 0.0720258 atoms/A^3
Info: ADDED 0 IMPLICIT EXCLUSIONS
Info: NONBONDED TABLE R-SQUARED SPACING: 0.0625
Info: NONBONDED TABLE SIZE: 705 POINTS
Info: REMOVING COM VELOCITY -0.0654025 -0.216297 -0.0154806
TCL: Running for 25000 steps
ETITLE: TS BOND ANGLE DIHED IMPRP ELECT VDW BOUNDARY MISC KINETIC TOTAL TEMP POTENTIAL TOTAL3 TEMPAVG PRESSURE GPRESSURE VOLUME PRESSAVG GPRESSAVG
ENERGY: 0 2.1528 18.6556 0.1436 0.0000 -24310.1522 4189.8090 0.0000 0.0000 3204.8018 -16894.5895 302.3774 -20099.3912 -16893.8523 302.3774 204.4993 247.4674 73959.5841 204.4993 247.4674
ENERGY: 5000 0.7728 19.7119 0.3807 0.0000 -25465.3855 4412.4986 0.0000 0.0000 325.2894 -20706.7322 30.6915 -21032.0216 -20706.0395 47.6595 20.7515 80.3327 52249.9578 3.5556 3.6107
ENERGY: 10000 0.6427 19.4286 0.5882 0.0000 -25521.4616 4419.9407 0.0000 0.0000 322.6673 -20758.1942 30.4441 -21080.8615 -20757.5572 30.4199 35.3513 86.4505 52093.5759 5.9909 5.9372
ENERGY: 15000 0.6997 19.4489 0.5857 0.0000 -25543.6000 4419.6911 0.0000 0.0000 320.0363 -20783.1382 30.1959 -21103.1745 -20782.5742 30.1392 -0.4654 42.6812 51845.3301 2.6511 2.7932
ENERGY: 20000 0.9435 19.5720 0.5822 0.0000 -25692.3872 4555.6689 0.0000 0.0000 309.8480 -20805.7725 29.2346 -21115.6205 -20805.3484 30.0140 592.1475 629.9632 51717.3596 -0.9265 -0.8041
ENERGY: 25000 0.7237 19.3410 0.7038 0.0000 -25601.1556 4432.7246 0.0000 0.0000 319.1236 -20828.5388 30.1097 -21147.6624 -20828.1274 30.4220 -25.5425 24.1377 51748.2465 6.0486 6.0987
TCL: Running 25000 steps at 60 kelvin.
TCL: Setting parameter langevinTemp to 60
TCL: Running for 25000 steps
ETITLE: TS BOND ANGLE DIHED IMPRP ELECT VDW BOUNDARY MISC KINETIC TOTAL TEMP POTENTIAL TOTAL3 TEMPAVG PRESSURE GPRESSURE VOLUME PRESSAVG GPRESSAVG
ENERGY: 25000 0.7237 19.3410 0.7038 0.0000 -25601.1556 4432.7246 0.0000 0.0000 318.9645 -20828.6980 30.0947 -21147.6624 -20827.8415 30.0947 -27.0839 23.9739 51748.2465 -27.0839 23.9739
ENERGY: 30000 1.2730 19.9259 0.8029 0.0000 -25263.7974 4397.9685 0.0000 0.0000 646.2092 -20197.6179 60.9707 -20843.8272 -20195.7500 57.0692 320.1106 395.3479 51923.5933 5.9196 5.9969
ENERGY: 35000 1.5767 19.5413 1.5867 0.0000 -25158.0781 4228.1775 0.0000 0.0000 624.2698 -20282.9262 58.9007 -20907.1960 -20281.4334 60.5050 -536.8111 -485.6342 51828.2131 1.6578 1.4929
ENERGY: 40000 1.2699 20.1415 0.9268 0.0000 -25415.4772 4411.5097 0.0000 0.0000 615.8995 -20365.7298 58.1109 -20981.6293 -20364.1993 60.3899 305.6314 374.0310 51244.6850 3.3122 3.1828
ENERGY: 45000 2.0861 19.3687 1.4010 0.0000 -25326.3593 4315.1203 0.0000 0.0000 646.7891 -20341.5942 61.0254 -20988.3832 -20339.4113 60.1645 -132.2357 -76.8745 51256.1758 5.1411 4.8709
ENERGY: 50000 1.4286 20.1548 1.0828 0.0000 -25312.4881 4281.4479 0.0000 0.0000 646.7859 -20361.5881 61.0251 -21008.3739 -20360.1230 60.2462 -268.0237 -227.5270 51271.4608 9.7045 9.7497
TCL: Running 25000 steps at 90 kelvin.
TCL: Setting parameter langevinTemp to 90
TCL: Running for 25000 steps
ETITLE: TS BOND ANGLE DIHED IMPRP ELECT VDW BOUNDARY MISC KINETIC TOTAL TEMP POTENTIAL TOTAL3 TEMPAVG PRESSURE GPRESSURE VOLUME PRESSAVG GPRESSAVG
ENERGY: 50000 1.4286 20.1548 1.0828 0.0000 -25312.4881 4281.4479 0.0000 0.0000 646.4677 -20361.9062 60.9951 -21008.3739 -20360.3303 60.9951 -273.7130 -227.7264 51271.4608 -273.7130 -227.7264
ENERGY: 55000 1.4791 20.5641 3.0966 0.0000 -24920.1824 4207.0462 0.0000 0.0000 964.6887 -19723.3078 91.0197 -20687.9965 -19721.4326 86.8350 -115.5187 -75.1638 51900.4125 0.4420 0.3152
ENERGY: 60000 1.2660 20.0440 1.3832 0.0000 -25016.8462 4274.2428 0.0000 0.0000 961.7953 -19758.1150 90.7467 -20719.9103 -19755.8703 90.6539 270.8636 313.4563 51401.1196 3.6451 3.7749
ENERGY: 65000 3.2306 20.6349 1.6389 0.0000 -24851.3822 4044.7122 0.0000 0.0000 954.0611 -19827.1045 90.0169 -20781.1656 -19824.6865 89.6772 -1020.2121 -995.7501 51601.2099 2.3690 2.2671
ENERGY: 70000 2.6359 20.3497 3.3216 0.0000 -25081.4939 4261.4872 0.0000 0.0000 962.7161 -19830.9833 90.8336 -20793.6995 -19828.7175 89.5727 83.2652 151.9603 51305.3550 8.8979 8.7282
ENERGY: 75000 1.6680 21.1805 2.4090 0.0000 -25107.1424 4271.8805 0.0000 0.0000 960.8783 -19849.1261 90.6602 -20810.0045 -19846.3395 90.3283 12.4952 82.4389 51375.3292 2.0548 2.0762
TCL: Running 25000 steps at 120 kelvin.
TCL: Setting parameter langevinTemp to 120
TCL: Running for 25000 steps
ETITLE: TS BOND ANGLE DIHED IMPRP ELECT VDW BOUNDARY MISC KINETIC TOTAL TEMP POTENTIAL TOTAL3 TEMPAVG PRESSURE GPRESSURE VOLUME PRESSAVG GPRESSAVG
ENERGY: 75000 1.6680 21.1805 2.4090 0.0000 -25107.1424 4271.8805 0.0000 0.0000 960.4174 -19849.5871 90.6167 -20810.0045 -19847.6431 90.6167 29.8654 82.6617 51375.3292 29.8654 82.6617
ENERGY: 80000 1.8405 20.5139 2.3490 0.0000 -24590.6749 4106.2556 0.0000 0.0000 1269.4577 -19190.2581 119.7750 -20459.7158 -19186.9515 117.0573 -62.9457 -3.9896 51691.0473 5.3092 5.3403
ENERGY: 85000 2.5447 20.6374 4.6450 0.0000 -24606.3596 4135.7275 0.0000 0.0000 1275.3412 -19167.4637 120.3302 -20442.8049 -19163.7322 119.7720 173.8005 240.2651 51609.8653 2.9743 3.0998
ENERGY: 90000 2.4987 21.3577 2.2994 0.0000 -24616.8341 4109.8613 0.0000 0.0000 1265.1589 -19215.6581 119.3694 -20480.8171 -19213.2185 120.4169 -54.9306 5.4352 51769.1271 1.2971 0.9312
ENERGY: 95000 2.0615 22.6612 1.9432 0.0000 -24547.7005 4015.4097 0.0000 0.0000 1268.2954 -19237.3295 119.6654 -20505.6249 -19234.6352 120.1296 -579.1390 -526.4682 51771.2558 -1.4769 -1.6836
ENERGY: 100000 3.6240 21.4814 2.2440 0.0000 -24727.3426 4155.6571 0.0000 0.0000 1284.0697 -19260.2664 121.1537 -20544.3360 -19258.0826 119.5500 63.1829 118.3472 51552.4086 0.1690 0.1242
TCL: Running 25000 steps at 150 kelvin.
TCL: Setting parameter langevinTemp to 150
TCL: Running for 25000 steps
ETITLE: TS BOND ANGLE DIHED IMPRP ELECT VDW BOUNDARY MISC KINETIC TOTAL TEMP POTENTIAL TOTAL3 TEMPAVG PRESSURE GPRESSURE VOLUME PRESSAVG GPRESSAVG
ENERGY: 100000 3.6240 21.4814 2.2440 0.0000 -24727.3426 4155.6571 0.0000 0.0000 1283.4302 -19260.9059 121.0934 -20544.3360 -19258.7599 121.0934 71.4302 117.6061 51552.4086 71.4302 117.6061
ENERGY: 105000 2.5496 24.1900 4.1342 0.0000 -24245.4574 4062.9402 0.0000 0.0000 1555.4017 -18596.2417 146.7542 -20151.6434 -18592.2911 146.3069 514.6749 548.2780 51704.7390 0.5131 0.7894
ENERGY: 110000 2.9686 22.3081 2.9922 0.0000 -24241.2999 4022.0997 0.0000 0.0000 1617.4716 -18573.4597 152.6106 -20190.9313 -18570.4309 150.3246 284.6999 365.0407 51720.4416 -0.6688 -0.6831
ENERGY: 115000 1.9616 22.5072 4.6269 0.0000 -24187.4638 3966.3455 0.0000 0.0000 1592.8700 -18599.1526 150.2894 -20192.0226 -18594.2798 149.9681 -132.1461 -64.4375 51776.8075 4.1226 3.6326
ENERGY: 120000 3.9580 20.9998 3.3069 0.0000 -24344.9002 4058.8811 0.0000 0.0000 1582.6717 -18675.0828 149.3272 -20257.7544 -18672.4693 150.4683 153.4303 156.3931 51909.6270 3.1025 3.2070
ENERGY: 125000 1.7606 21.3387 2.6095 0.0000 -24218.6782 3945.3586 0.0000 0.0000 1595.9048 -18651.7060 150.5758 -20247.6108 -18648.6089 148.8884 -384.0006 -330.2516 52310.4341 8.1958 7.8061
TCL: Running 50000 steps at 180 kelvin.
TCL: Setting parameter langevinTemp to 180
TCL: Running for 50000 steps
ETITLE: TS BOND ANGLE DIHED IMPRP ELECT VDW BOUNDARY MISC KINETIC TOTAL TEMP POTENTIAL TOTAL3 TEMPAVG PRESSURE GPRESSURE VOLUME PRESSAVG GPRESSAVG
ENERGY: 125000 1.7606 21.3387 2.6095 0.0000 -24218.6782 3945.3586 0.0000 0.0000 1595.1054 -18652.5054 150.5003 -20247.6108 -18649.4267 150.5003 -382.6843 -330.6741 52310.4341 -382.6843 -330.6741
ENERGY: 135000 2.3128 21.6582 3.8952 0.0000 -23424.2882 3633.5470 0.0000 0.0000 1941.2180 -17821.6570 183.1565 -19762.8750 -17816.4415 180.6482 -791.8813 -688.3524 52328.0114 3.8981 4.0957
ENERGY: 145000 4.2904 26.6655 2.8765 0.0000 -23507.3507 3750.4376 0.0000 0.0000 1874.5806 -17848.5001 176.8692 -19723.0807 -17844.5092 179.8329 -170.9675 -75.9190 51897.9609 8.0981 8.0556
ENERGY: 155000 2.5290 23.1893 2.1589 0.0000 -23618.6246 3822.4379 0.0000 0.0000 1928.3664 -17839.9430 181.9440 -19768.3094 -17836.8082 179.8254 224.7903 273.9003 51726.5209 3.9282 3.8912
ENERGY: 165000 2.2790 21.1709 4.0034 0.0000 -23468.3042 3740.6094 0.0000 0.0000 1889.6415 -17810.6000 178.2902 -19700.2415 -17808.5028 180.4670 -235.2233 -149.2058 52170.9395 2.5505 2.4538
ENERGY: 175000 2.3155 20.9694 4.7507 0.0000 -23513.4636 3798.2447 0.0000 0.0000 1878.0864 -17809.0969 177.2000 -19687.1833 -17802.7088 180.2386 181.7880 239.5104 51918.2023 6.1890 6.7971
TCL: Running 50000 steps at 210 kelvin.
TCL: Setting parameter langevinTemp to 210
TCL: Running for 50000 steps
ETITLE: TS BOND ANGLE DIHED IMPRP ELECT VDW BOUNDARY MISC KINETIC TOTAL TEMP POTENTIAL TOTAL3 TEMPAVG PRESSURE GPRESSURE VOLUME PRESSAVG GPRESSAVG
ENERGY: 175000 2.3155 20.9694 4.7507 0.0000 -23513.4636 3798.2447 0.0000 0.0000 1877.1222 -17810.0610 177.1090 -19687.1833 -17806.8068 177.1090 167.6824 241.0546 51918.2023 167.6824 241.0546
ENERGY: 185000 3.9316 23.3770 3.5080 0.0000 -22510.9605 3461.9075 0.0000 0.0000 2237.5353 -16780.7011 211.1145 -19018.2364 -16773.6634 210.0942 -21.7510 56.2425 51759.2785 1.2295 1.3305
ENERGY: 195000 2.8908 21.6152 4.1954 0.0000 -22381.8702 3411.5125 0.0000 0.0000 2214.7023 -16726.9541 208.9601 -18941.6564 -16723.8351 211.3257 314.7090 392.1463 51250.0465 3.7619 3.6061
ENERGY: 205000 4.4753 25.4595 3.0285 0.0000 -22250.8752 3335.2976 0.0000 0.0000 2233.3399 -16649.2743 210.7186 -18882.6143 -16643.9012 212.1211 -143.3864 -103.7075 51778.5947 7.2672 6.6357
ENERGY: 215000 3.0488 23.1107 5.4115 0.0000 -22576.6558 3492.0609 0.0000 0.0000 2259.8695 -16793.1545 213.2217 -19053.0240 -16787.2988 209.8979 243.1659 322.8293 51605.4259 5.6714 5.6637
ENERGY: 225000 4.9713 23.8041 2.7287 0.0000 -22229.4660 3288.2289 0.0000 0.0000 2225.6776 -16684.0554 209.9957 -18909.7331 -16678.4920 210.9839 -648.7991 -578.5510 52261.2420 2.4874 2.0175
TCL: Running 50000 steps at 240 kelvin.
TCL: Setting parameter langevinTemp to 240
TCL: Running for 50000 steps
ETITLE: TS BOND ANGLE DIHED IMPRP ELECT VDW BOUNDARY MISC KINETIC TOTAL TEMP POTENTIAL TOTAL3 TEMPAVG PRESSURE GPRESSURE VOLUME PRESSAVG GPRESSAVG
ENERGY: 225000 4.9713 23.8041 2.7287 0.0000 -22229.4660 3288.2289 0.0000 0.0000 2224.5551 -16685.1780 209.8898 -18909.7331 -16680.8259 209.8898 -656.2150 -578.6668 52261.2420 -656.2150 -578.6668
ENERGY: 235000 3.7415 21.2173 3.3588 0.0000 -21216.6762 3075.2112 0.0000 0.0000 2566.3855 -15546.7618 242.1419 -18113.1472 -15541.6598 240.4326 51.0822 139.7561 52154.2887 0.2172 -0.2273
ENERGY: 245000 2.5352 24.4881 3.6313 0.0000 -21244.7709 3125.4319 0.0000 0.0000 2505.9597 -15582.7246 236.4407 -18088.6844 -15577.4251 240.3558 137.0630 253.2779 52650.2679 6.2961 5.5158
ENERGY: 255000 4.1944 22.9872 3.0839 0.0000 -21354.7355 3169.5232 0.0000 0.0000 2509.6965 -15645.2502 236.7932 -18154.9467 -15640.7680 239.9130 10.9405 85.7363 52816.1845 1.8721 1.6394
ENERGY: 265000 2.8596 23.0939 5.2523 0.0000 -21199.9464 2957.3198 0.0000 0.0000 2586.7208 -15624.7000 244.0606 -18211.4208 -15618.0222 241.2237 -609.2206 -513.6823 52059.8256 5.6453 6.0188
ENERGY: 275000 9.0485 22.8422 6.2371 0.0000 -21219.1968 2944.0600 0.0000 0.0000 2615.9126 -15621.0963 246.8149 -18237.0089 -15615.5196 240.1586 -738.6989 -691.0808 52169.7401 -1.0788 -1.8294
TCL: Running 50000 steps at 270 kelvin.
TCL: Setting parameter langevinTemp to 270
TCL: Running for 50000 steps
ETITLE: TS BOND ANGLE DIHED IMPRP ELECT VDW BOUNDARY MISC KINETIC TOTAL TEMP POTENTIAL TOTAL3 TEMPAVG PRESSURE GPRESSURE VOLUME PRESSAVG GPRESSAVG
ENERGY: 275000 9.0485 22.8422 6.2371 0.0000 -21219.1968 2944.0600 0.0000 0.0000 2614.6499 -15622.3590 246.6957 -18237.0089 -15618.4411 246.6957 -765.3612 -689.6771 52169.7401 -765.3612 -689.6771
ENERGY: 285000 6.1007 25.0709 4.2355 0.0000 -20330.4746 2873.8307 0.0000 0.0000 2847.2040 -14574.0327 268.6375 -17421.2368 -14570.7577 269.4955 166.1260 206.4229 53369.2011 2.1293 2.0796
ENERGY: 295000 6.7823 22.9789 8.8742 0.0000 -20441.7744 2960.8378 0.0000 0.0000 2858.5616 -14583.7397 269.7091 -17442.3013 -14583.1255 268.3746 630.3708 702.9668 53207.8968 2.3902 2.2444
ENERGY: 305000 4.8852 22.4652 7.3722 0.0000 -20183.9707 2765.6663 0.0000 0.0000 2796.1724 -14587.4094 263.8226 -17383.5818 -14581.6040 270.6299 -261.4752 -140.8644 53182.5317 4.0685 3.8549
ENERGY: 315000 3.3256 25.7905 5.3696 0.0000 -20114.2750 2728.4300 0.0000 0.0000 2832.9434 -14518.4161 267.2920 -17351.3595 -14512.6576 270.4669 -309.2548 -267.4478 53353.2232 6.1843 6.2120
ENERGY: 325000 4.9329 24.6875 4.4563 0.0000 -20443.1427 2935.5284 0.0000 0.0000 2837.5231 -14636.0145 267.7241 -17473.5376 -14628.8420 271.2000 480.9034 499.7194 52897.3469 1.4094 1.6815
TCL: Running 1000000 steps at 300 kelvin.
TCL: Setting parameter langevinTemp to 300
TCL: Running for 1000000 steps
ETITLE: TS BOND ANGLE DIHED IMPRP ELECT VDW BOUNDARY MISC KINETIC TOTAL TEMP POTENTIAL TOTAL3 TEMPAVG PRESSURE GPRESSURE VOLUME PRESSAVG GPRESSAVG
ENERGY: 325000 4.9329 24.6875 4.4563 0.0000 -20443.1427 2935.5284 0.0000 0.0000 2836.1222 -14637.4154 267.5919 -17473.5376 -14633.6003 267.5919 426.2623 500.4290 52897.3469 426.2623 500.4290
ENERGY: 525000 5.3390 27.2926 2.2795 0.0000 -19343.1303 2626.0418 0.0000 0.0000 3187.3087 -13494.8687 300.7269 -16682.1775 -13489.7030 299.8910 97.1904 215.8405 54579.8979 1.1363 1.2054
ENERGY: 725000 5.1788 24.1902 5.1879 0.0000 -19424.4497 2639.4911 0.0000 0.0000 3177.0142 -13573.3876 299.7556 -16750.4018 -13568.9737 300.1548 -16.6069 92.2263 54659.9656 -1.4839 -2.2006
ENERGY: 925000 4.3762 23.7510 6.8847 0.0000 -19405.0200 2616.1412 0.0000 0.0000 3244.8035 -13509.0633 306.1516 -16753.8668 -13499.3392 301.5583 12.4830 103.0761 54571.5872 2.0168 1.2361
ENERGY: 1125000 7.7913 22.1288 6.1237 0.0000 -19331.5001 2676.8445 0.0000 0.0000 3189.3186 -13429.2932 300.9165 -16618.6119 -13425.6539 301.2368 513.8313 614.8254 54780.4986 2.2928 2.6884
ENERGY: 1325000 7.9467 23.5350 2.9219 0.0000 -19211.0578 2539.6210 0.0000 0.0000 3061.0296 -13576.0037 288.8123 -16637.0333 -13568.6819 299.8972 -293.8643 -222.5669 55417.3140 0.6545 0.6429
TCL: Exiting due to exit command.
