Info: SIMULATION PARAMETERS:
Info: TIMESTEP               2
Info: NUMBER OF STEPS        0
Info: STEPS PER CYCLE        10
Info: PERIODIC CELL BASIS 1  41.545 0 0
Info: PERIODIC CELL BASIS 2  0 39.303 0
Info: PERIODIC CELL BASIS 3  0 0 41.374
Info: PERIODIC CELL CENTER   0 0 0
Info: WRAPPING WATERS AROUND PERIODIC BOUNDARIES ON OUTPUT.
Info: WRAPPING ALL CLUSTERS AROUND PERIODIC BOUNDARIES ON OUTPUT.
Info: FIRST LDB TIMESTEP     50
Info: LAST LDB TIMESTEP     -1
Info: HOM BACKGROUND SCALING 1
Info: PME BACKGROUND SCALING 1
Info: MIN ATOMS PER PATCH    40
Info: EMPTY PATCH LOAD       40 ATOMS
Info: INITIAL TEMPERATURE    300
Info: CENTER OF MASS MOVING INITIALLY? NO
Info: DIELECTRIC             1
Info: EXCLUDE                SCALED ONE-FOUR
Info: 1-4 ELECTROSTATICS SCALED BY 0.833333
Info: MODIFIED 1-4 VDW PARAMETERS WILL BE USED
Info: DCD FILENAME           mobley_3777264_min.dcd
Info: DCD FREQUENCY          5000
Info: DCD FIRST STEP         5000
Info: DCD FILE WILL CONTAIN UNIT CELL DATA
Info: XST FILENAME           mobley_3777264_min.xst
Info: XST FREQUENCY          5000
Info: NO VELOCITY DCD OUTPUT
Info: NO FORCE DCD OUTPUT
Info: OUTPUT FILENAME        mobley_3777264_min
Info: BINARY OUTPUT FILES WILL BE USED
Info: RESTART FILENAME       mobley_3777264_min.restart
Info: RESTART FREQUENCY      5000
Info: BINARY RESTART FILES WILL BE USED
Info: CUTOFF                 9
Info: PAIRLIST DISTANCE      11
Info: PAIRLIST SHRINK RATE   0.01
Info: PAIRLIST GROW RATE     0.01
Info: PAIRLIST TRIGGER       0.3
Info: PAIRLISTS PER CYCLE    2
Info: PAIRLISTS ENABLED
Info: MARGIN                 8
Info: HYDROGEN GROUP CUTOFF  2.5
Info: PATCH DIMENSION        21.5
Info: ENERGY OUTPUT STEPS    5000
Info: ENERGY EVALUATION STEPS    5000
Info: OUTPUT ENERGY PRECISION 4
Info: CROSSTERM ENERGY INCLUDED IN DIHEDRAL
Info: TIMING OUTPUT STEPS    50000
Info: PRESSURE OUTPUT STEPS  5000
Info: LANGEVIN DYNAMICS ACTIVE
Info: LANGEVIN TEMPERATURE   300
Info: LANGEVIN USING BBK INTEGRATOR
Info: LANGEVIN DAMPING COEFFICIENT IS 1 INVERSE PS
Info: LANGEVIN DYNAMICS APPLIED TO HYDROGENS
Info: LANGEVIN PISTON PRESSURE CONTROL ACTIVE
Info:        TARGET PRESSURE IS 1.01325 BAR
Info:     OSCILLATION PERIOD IS 50 FS
Info:             DECAY TIME IS 25 FS
Info:     PISTON TEMPERATURE IS 300 K
Info:       PRESSURE CONTROL IS GROUP-BASED
Info:    INITIAL STRAIN RATE IS 0 0 0
Info:       CELL FLUCTUATION IS ISOTROPIC
Info: PARTICLE MESH EWALD (PME) ACTIVE
Info: PME TOLERANCE               1e-06
Info: PME EWALD COEFFICIENT       0.348832
Info: PME INTERPOLATION ORDER     4
Info: PME GRID DIMENSIONS         44 40 44
Info: PME MAXIMUM GRID SPACING    1
Info: FULL ELECTROSTATIC EVALUATION FREQUENCY      2
Info: USING VERLET I (r-RESPA) MTS SCHEME.
Info: C1 SPLITTING OF LONG RANGE ELECTROSTATICS
Info: PLACING ATOMS IN PATCHES BY HYDROGEN GROUPS
Info: RIGID BONDS TO HYDROGEN : ALL
Info:         ERROR TOLERANCE : 1e-08
Info:          MAX ITERATIONS : 100
Info: RIGID WATER USING SETTLE ALGORITHM
Info: RANDOM NUMBER SEED     1741330469
Info: USE HYDROGEN BONDS?    NO
Info: Using AMBER format force field!
Info: AMBER PARM FILE        mobley_3777264.prmtop
Info: COORDINATE PDB         mobley_3777264.pdb
Info: Exclusions will be read from PARM file!
Info: SCNB (VDW SCALING)     2
Info: USING ARITHMETIC MEAN TO COMBINE L-J SIGMA PARAMETERS
Info: SUMMARY OF PARAMETERS:
Info: 8 BONDS
Info: 8 ANGLES
Info:   8 HARMONIC
Info:   0 COSINE-BASED
Info: 4 DIHEDRAL
Info: 0 IMPROPER
Info: 0 CROSSTERM
Info: 0 VDW
Info: 36 VDW_PAIRS
Info: 0 NBTHOLE_PAIRS
Info: STRUCTURE SUMMARY:
Info: 4915 ATOMS
Info: 4915 BONDS
Info: 24 ANGLES
Info: 36 DIHEDRALS
Info: 0 IMPROPERS
Info: 0 CROSSTERMS
Info: 4968 EXCLUSIONS
Info: 4905 RIGID BONDS
Info: 9840 DEGREES OF FREEDOM
Info: 1643 HYDROGEN GROUPS
Info: 3 ATOMS IN LARGEST HYDROGEN GROUP
Info: 1643 MIGRATION GROUPS
Info: 3 ATOMS IN LARGEST MIGRATION GROUP
Info: TOTAL MASS = 29558.3 amu
Info: TOTAL CHARGE = 0.000200003 e
Info: MASS DENSITY = 0.726551 g/cm^3
Info: ATOM DENSITY = 0.0727531 atoms/A^3
Info: ADDED 0 IMPLICIT EXCLUSIONS
Info: NONBONDED TABLE R-SQUARED SPACING: 0.0625
Info: NONBONDED TABLE SIZE: 705 POINTS
Info: REMOVING COM VELOCITY 0.016131 -0.0296008 -0.0715961
TCL: Minimizing for 2000 steps
ETITLE: TS BOND ANGLE DIHED IMPRP ELECT VDW BOUNDARY MISC KINETIC TOTAL TEMP POTENTIAL TOTAL3 TEMPAVG PRESSURE GPRESSURE VOLUME PRESSAVG GPRESSAVG
ENERGY: 0 1.0544 1.3168 0.0254 0.0000 -15416.6588 1761.2773 0.0000 0.0000 0.0000 -13652.9850 0.0000 -13652.9850 -13652.9850 0.0000 11310.9054 -15913.1271 67557.2519 11310.9054 -15913.1271
ENERGY: 400 3.1266 2.0999 0.3924 0.0000 -20927.2901 3161.4565 0.0000 0.0000 0.0000 -17760.2147 0.0000 -17760.2147 -17760.2147 0.0000 16612.3226 16746.8314 67557.2519 16612.3226 16746.8314
ENERGY: 800 0.5721 0.4874 1.5927 0.0000 -21819.2036 3553.0210 0.0000 0.0000 0.0000 -18263.5303 0.0000 -18263.5303 -18263.5303 0.0000 18484.3970 18596.5657 67557.2519 18484.3970 18596.5657
ENERGY: 1200 0.8507 0.5949 1.5962 0.0000 -22175.3932 3729.0976 0.0000 0.0000 0.0000 -18443.2538 0.0000 -18443.2538 -18443.2538 0.0000 19311.7334 19405.9279 67557.2519 19311.7334 19405.9279
ENERGY: 1600 0.5669 0.4874 1.9619 0.0000 -22406.6256 3839.3494 0.0000 0.0000 0.0000 -18564.2600 0.0000 -18564.2600 -18564.2600 0.0000 19848.0544 19947.3590 67557.2519 19848.0544 19947.3590
ENERGY: 2000 0.6259 0.4121 1.7703 0.0000 -22525.5655 3884.2862 0.0000 0.0000 0.0000 -18638.4710 0.0000 -18638.4710 -18638.4710 0.0000 20080.5608 20165.3624 67557.2519 20080.5608 20165.3624
TCL: Exiting due to exit command.
Info: NAMD 3.0.1 for Linux-x86_64-multicore
Info: Please visit http://www.ks.uiuc.edu/Research/namd/
Info: for updates, documentation, and support information.
Info: Please cite Phillips et al., J. Chem. Phys. 153:044130 (2020) doi:10.1063/5.0014475
Info: in all publications reporting results obtained with NAMD.
Info: Based on Charm++/Converse 80000 for multicore-linux-x86_64-gcc
Info: Built Mon Oct 14 11:11:06 CDT 2024 by dhardy on athine.ks.uiuc.edu
Info: 1 NAMD  3.0.1  Linux-x86_64-multicore  16    k018  z5358697
Info: Running on 16 processors, 1 nodes, 1 physical nodes.
Info: CPU topology information available.
Info: Charm++/Converse parallel runtime startup completed at 0.00535851 s
Info: 1043.45 MB of memory in use based on /proc/self/stat
Info: Configuration file is mobley_3777264_equil.namd
Info: Working in the current directory /srv/scratch/z5358697/prod_prep_4/3777264
TCL: Running 25000 steps at 30 kelvin.
TCL: Suspending until startup complete.
Info: SIMULATION PARAMETERS:
Info: TIMESTEP               2
Info: NUMBER OF STEPS        0
Info: STEPS PER CYCLE        10
Info: PERIODIC CELL BASIS 1  41.545 0 0
Info: PERIODIC CELL BASIS 2  0 39.303 0
Info: PERIODIC CELL BASIS 3  0 0 41.374
Info: PERIODIC CELL CENTER   0 0 0
Info: WRAPPING WATERS AROUND PERIODIC BOUNDARIES ON OUTPUT.
Info: WRAPPING ALL CLUSTERS AROUND PERIODIC BOUNDARIES ON OUTPUT.
Info: FIRST LDB TIMESTEP     50
Info: LAST LDB TIMESTEP     -1
Info: HOM BACKGROUND SCALING 1
Info: PME BACKGROUND SCALING 1
Info: MIN ATOMS PER PATCH    40
Info: EMPTY PATCH LOAD       40 ATOMS
Info: INITIAL TEMPERATURE    300
Info: CENTER OF MASS MOVING INITIALLY? NO
Info: DIELECTRIC             1
Info: EXCLUDE                SCALED ONE-FOUR
Info: 1-4 ELECTROSTATICS SCALED BY 0.833333
Info: MODIFIED 1-4 VDW PARAMETERS WILL BE USED
Info: DCD FILENAME           mobley_3777264_equil.dcd
Info: DCD FREQUENCY          5000
Info: DCD FIRST STEP         5000
Info: DCD FILE WILL CONTAIN UNIT CELL DATA
Info: XST FILENAME           mobley_3777264_equil.xst
Info: XST FREQUENCY          5000
Info: NO VELOCITY DCD OUTPUT
Info: NO FORCE DCD OUTPUT
Info: OUTPUT FILENAME        mobley_3777264_equil
Info: BINARY OUTPUT FILES WILL BE USED
Info: RESTART FILENAME       mobley_3777264_equil.restart
Info: RESTART FREQUENCY      5000
Info: BINARY RESTART FILES WILL BE USED
Info: CUTOFF                 9
Info: PAIRLIST DISTANCE      11
Info: PAIRLIST SHRINK RATE   0.01
Info: PAIRLIST GROW RATE     0.01
Info: PAIRLIST TRIGGER       0.3
Info: PAIRLISTS PER CYCLE    2
Info: PAIRLISTS ENABLED
Info: MARGIN                 8
Info: HYDROGEN GROUP CUTOFF  2.5
Info: PATCH DIMENSION        21.5
Info: ENERGY OUTPUT STEPS    5000
Info: ENERGY EVALUATION STEPS    5000
Info: OUTPUT ENERGY PRECISION 4
Info: CROSSTERM ENERGY INCLUDED IN DIHEDRAL
Info: TIMING OUTPUT STEPS    50000
Info: PRESSURE OUTPUT STEPS  5000
Info: LANGEVIN DYNAMICS ACTIVE
Info: LANGEVIN TEMPERATURE   30
Info: LANGEVIN USING BBK INTEGRATOR
Info: LANGEVIN DAMPING COEFFICIENT IS 1 INVERSE PS
Info: LANGEVIN DYNAMICS APPLIED TO HYDROGENS
Info: LANGEVIN PISTON PRESSURE CONTROL ACTIVE
Info:        TARGET PRESSURE IS 1.01325 BAR
Info:     OSCILLATION PERIOD IS 50 FS
Info:             DECAY TIME IS 25 FS
Info:     PISTON TEMPERATURE IS 300 K
Info:       PRESSURE CONTROL IS GROUP-BASED
Info:    INITIAL STRAIN RATE IS 0 0 0
Info:       CELL FLUCTUATION IS ISOTROPIC
Info: PARTICLE MESH EWALD (PME) ACTIVE
Info: PME TOLERANCE               1e-06
Info: PME EWALD COEFFICIENT       0.348832
Info: PME INTERPOLATION ORDER     4
Info: PME GRID DIMENSIONS         44 40 44
Info: PME MAXIMUM GRID SPACING    1
Info: FULL ELECTROSTATIC EVALUATION FREQUENCY      2
Info: USING VERLET I (r-RESPA) MTS SCHEME.
Info: C1 SPLITTING OF LONG RANGE ELECTROSTATICS
Info: PLACING ATOMS IN PATCHES BY HYDROGEN GROUPS
Info: RIGID BONDS TO HYDROGEN : ALL
Info:         ERROR TOLERANCE : 1e-08
Info:          MAX ITERATIONS : 100
Info: RIGID WATER USING SETTLE ALGORITHM
Info: RANDOM NUMBER SEED     1741330485
Info: USE HYDROGEN BONDS?    NO
Info: Using AMBER format force field!
Info: AMBER PARM FILE        mobley_3777264.prmtop
Info: COORDINATE PDB         mobley_3777264.pdb
Info: Exclusions will be read from PARM file!
Info: SCNB (VDW SCALING)     2
Info: USING ARITHMETIC MEAN TO COMBINE L-J SIGMA PARAMETERS
Info: BINARY COORDINATES     mobley_3777264_min.coor
Info: SUMMARY OF PARAMETERS:
Info: 8 BONDS
Info: 8 ANGLES
Info:   8 HARMONIC
Info:   0 COSINE-BASED
Info: 4 DIHEDRAL
Info: 0 IMPROPER
Info: 0 CROSSTERM
Info: 0 VDW
Info: 36 VDW_PAIRS
Info: 0 NBTHOLE_PAIRS
Info: STRUCTURE SUMMARY:
Info: 4915 ATOMS
Info: 4915 BONDS
Info: 24 ANGLES
Info: 36 DIHEDRALS
Info: 0 IMPROPERS
Info: 0 CROSSTERMS
Info: 4968 EXCLUSIONS
Info: 4905 RIGID BONDS
Info: 9840 DEGREES OF FREEDOM
Info: 1643 HYDROGEN GROUPS
Info: 3 ATOMS IN LARGEST HYDROGEN GROUP
Info: 1643 MIGRATION GROUPS
Info: 3 ATOMS IN LARGEST MIGRATION GROUP
Info: TOTAL MASS = 29558.3 amu
Info: TOTAL CHARGE = 0.000200003 e
Info: MASS DENSITY = 0.726551 g/cm^3
Info: ATOM DENSITY = 0.0727531 atoms/A^3
Info: ADDED 0 IMPLICIT EXCLUSIONS
Info: NONBONDED TABLE R-SQUARED SPACING: 0.0625
Info: NONBONDED TABLE SIZE: 705 POINTS
Info: REMOVING COM VELOCITY -0.0988321 0.0365207 -0.0528305
TCL: Running for 25000 steps
ETITLE: TS BOND ANGLE DIHED IMPRP ELECT VDW BOUNDARY MISC KINETIC TOTAL TEMP POTENTIAL TOTAL3 TEMPAVG PRESSURE GPRESSURE VOLUME PRESSAVG GPRESSAVG
ENERGY: 0 0.6259 0.4121 1.7703 0.0000 -22525.5655 3884.2862 0.0000 0.0000 2972.3733 -15666.0977 304.0175 -18638.4710 -15665.4606 304.0175 165.0266 207.2823 67557.2519 165.0266 207.2823
ENERGY: 5000 0.5683 0.9545 1.5399 0.0000 -23611.3020 4076.5043 0.0000 0.0000 294.7983 -19236.9367 30.1523 -19531.7350 -19236.1395 48.0503 -38.0028 27.2663 47637.7723 1.0328 1.0339
ENERGY: 10000 1.0528 0.6479 1.4404 0.0000 -23690.3870 4133.0170 0.0000 0.0000 301.2498 -19252.9791 30.8121 -19554.2288 -19252.1142 29.9942 226.6171 263.3895 47551.9843 -2.2478 -2.3101
ENERGY: 15000 0.8473 1.0328 1.5028 0.0000 -23581.3358 4019.6854 0.0000 0.0000 294.6177 -19263.6499 30.1338 -19558.2676 -19262.7132 29.9974 -422.0496 -356.3527 47776.1037 8.6011 8.4798
ENERGY: 20000 1.5486 1.3167 2.0664 0.0000 -23720.1153 4146.5162 0.0000 0.0000 301.3181 -19267.3493 30.8191 -19568.6674 -19266.4419 30.1383 228.8482 293.7810 47647.0093 -0.9587 -1.1655
ENERGY: 25000 0.2901 0.6727 1.6740 0.0000 -23751.8758 4173.3426 0.0000 0.0000 288.2192 -19287.6772 29.4794 -19575.8964 -19286.4783 30.0644 311.9349 368.4137 47592.7108 1.9749 1.9807
TCL: Running 25000 steps at 60 kelvin.
TCL: Setting parameter langevinTemp to 60
TCL: Running for 25000 steps
ETITLE: TS BOND ANGLE DIHED IMPRP ELECT VDW BOUNDARY MISC KINETIC TOTAL TEMP POTENTIAL TOTAL3 TEMPAVG PRESSURE GPRESSURE VOLUME PRESSAVG GPRESSAVG
ENERGY: 25000 0.2901 0.6727 1.6740 0.0000 -23751.8758 4173.3426 0.0000 0.0000 288.0691 -19287.8273 29.4640 -19575.8964 -19287.2749 29.4640 308.1647 368.6159 47592.7108 308.1647 368.6159
ENERGY: 30000 0.4910 1.6750 1.6636 0.0000 -23353.9942 4036.2030 0.0000 0.0000 580.8646 -18733.0971 59.4115 -19313.9616 -18731.2592 57.1938 240.4746 321.4568 47637.4717 -0.1564 -0.3738
ENERGY: 35000 1.2135 1.4679 2.5187 0.0000 -23327.4330 3973.1455 0.0000 0.0000 589.9419 -18759.1455 60.3399 -19349.0874 -18757.1393 59.7656 -185.9531 -105.3403 47727.9367 10.6962 10.2286
ENERGY: 40000 1.1568 0.6561 1.4218 0.0000 -23266.8856 3881.2715 0.0000 0.0000 587.0660 -18795.3134 60.0457 -19382.3793 -18794.4026 60.2592 -700.4353 -639.2525 47923.2974 1.0962 1.0221
ENERGY: 45000 0.5895 1.1498 2.0578 0.0000 -23409.3153 3993.2679 0.0000 0.0000 587.8149 -18824.4354 60.1223 -19412.2503 -18822.8687 59.9911 -218.0443 -162.1952 47805.9036 5.1873 5.2912
ENERGY: 50000 1.0349 0.8805 2.0543 0.0000 -23599.7138 4165.5685 0.0000 0.0000 602.0959 -18828.0797 61.5830 -19430.1755 -18826.5917 60.1130 765.8205 839.3566 47350.5223 3.8254 4.1989
TCL: Running 25000 steps at 90 kelvin.
TCL: Setting parameter langevinTemp to 90
TCL: Running for 25000 steps
ETITLE: TS BOND ANGLE DIHED IMPRP ELECT VDW BOUNDARY MISC KINETIC TOTAL TEMP POTENTIAL TOTAL3 TEMPAVG PRESSURE GPRESSURE VOLUME PRESSAVG GPRESSAVG
ENERGY: 50000 1.0349 0.8805 2.0543 0.0000 -23599.7138 4165.5685 0.0000 0.0000 601.8037 -18828.3719 61.5531 -19430.1755 -18827.0905 61.5531 770.7696 839.3746 47350.5223 770.7696 839.3746
ENERGY: 55000 1.2321 1.0147 1.4747 0.0000 -22957.3925 3814.3005 0.0000 0.0000 872.6931 -18266.6775 89.2600 -19139.3706 -18263.8901 87.0411 -487.8797 -405.1227 47865.3894 -0.2018 -0.5548
ENERGY: 60000 1.8394 1.3079 1.9766 0.0000 -23264.8834 4067.4635 0.0000 0.0000 896.0197 -18296.2763 91.6459 -19192.2960 -18293.3492 89.9552 716.1762 801.6168 47532.7758 0.8998 1.4996
ENERGY: 65000 1.4146 2.0694 2.7773 0.0000 -23195.2868 3999.1556 0.0000 0.0000 879.0816 -18310.7884 89.9134 -19189.8700 -18309.0097 90.2769 356.1555 439.9140 47608.0842 -1.7895 -1.3754
ENERGY: 70000 2.3413 1.5693 3.1860 0.0000 -23225.1258 3996.3099 0.0000 0.0000 872.8903 -18348.8289 89.2802 -19221.7193 -18347.1098 90.5002 186.1449 243.5577 47766.6647 7.5848 7.4397
ENERGY: 75000 0.7791 1.0762 2.6218 0.0000 -23329.5392 4084.6361 0.0000 0.0000 883.7422 -18356.6837 90.3901 -19240.4259 -18354.6251 90.1026 845.9913 872.3662 47243.7120 7.4079 7.2011
TCL: Running 25000 steps at 120 kelvin.
TCL: Setting parameter langevinTemp to 120
TCL: Running for 25000 steps
ETITLE: TS BOND ANGLE DIHED IMPRP ELECT VDW BOUNDARY MISC KINETIC TOTAL TEMP POTENTIAL TOTAL3 TEMPAVG PRESSURE GPRESSURE VOLUME PRESSAVG GPRESSAVG
ENERGY: 75000 0.7791 1.0762 2.6218 0.0000 -23329.5392 4084.6361 0.0000 0.0000 883.2964 -18357.1296 90.3445 -19240.4259 -18355.0940 90.3445 816.4474 871.9846 47243.7120 816.4474 871.9846
ENERGY: 80000 1.0104 1.4192 3.6127 0.0000 -22755.6307 3827.3520 0.0000 0.0000 1198.2969 -17723.9396 122.5631 -18922.2364 -17720.0990 116.6779 70.4675 127.7180 47943.0159 3.1509 2.9675
ENERGY: 85000 1.2202 1.9821 1.4969 0.0000 -22794.2303 3837.8415 0.0000 0.0000 1190.8020 -17760.8876 121.7965 -18951.6896 -17758.1988 120.7564 71.4047 166.1985 47859.9765 6.6892 6.5010
ENERGY: 90000 0.6813 2.5226 1.8054 0.0000 -22789.0984 3822.1610 0.0000 0.0000 1175.0361 -17786.8921 120.1840 -18961.9282 -17783.7355 120.7516 52.1689 129.7748 47683.3562 10.6299 10.7448
ENERGY: 95000 1.6703 1.7543 2.2853 0.0000 -22689.7327 3725.2447 0.0000 0.0000 1227.4975 -17731.2805 125.5498 -18958.7780 -17727.9704 120.1223 -490.3023 -436.1403 48036.6829 2.3120 1.8577
ENERGY: 100000 1.2139 0.9168 2.0290 0.0000 -22917.3261 3886.7743 0.0000 0.0000 1206.5615 -17819.8306 123.4084 -19026.3921 -17816.5296 121.4412 202.2614 228.1101 47935.8652 1.7683 1.4870
TCL: Running 25000 steps at 150 kelvin.
TCL: Setting parameter langevinTemp to 150
TCL: Running for 25000 steps
ETITLE: TS BOND ANGLE DIHED IMPRP ELECT VDW BOUNDARY MISC KINETIC TOTAL TEMP POTENTIAL TOTAL3 TEMPAVG PRESSURE GPRESSURE VOLUME PRESSAVG GPRESSAVG
ENERGY: 100000 1.2139 0.9168 2.0290 0.0000 -22917.3261 3886.7743 0.0000 0.0000 1205.9614 -17820.4307 123.3470 -19026.3921 -17817.8659 123.3470 181.5743 227.4899 47935.8652 181.5743 227.4899
ENERGY: 105000 1.4230 2.5852 3.2158 0.0000 -22305.2559 3617.0875 0.0000 0.0000 1429.1968 -17251.7476 146.1798 -18680.9444 -17248.3434 146.3486 -475.8991 -454.6213 48295.5324 -4.8554 -4.7726
ENERGY: 110000 2.5382 3.7423 3.5007 0.0000 -22402.7890 3696.8851 0.0000 0.0000 1455.7375 -17240.3852 148.8944 -18696.1227 -17236.9798 149.2314 -1.8740 58.0641 47842.4742 8.6609 8.8289
ENERGY: 115000 0.9035 3.8687 3.6871 0.0000 -22345.0468 3682.4890 0.0000 0.0000 1468.8020 -17185.2964 150.2306 -18654.0984 -17182.4761 150.2051 -87.1335 6.5217 47994.0240 7.6307 7.3968
ENERGY: 120000 3.5962 1.7397 1.9839 0.0000 -22367.6230 3651.9359 0.0000 0.0000 1474.3867 -17233.9806 150.8019 -18708.3673 -17229.5129 151.3599 -243.0810 -185.5849 47907.7143 4.4298 4.5234
ENERGY: 125000 2.6488 3.1948 2.7343 0.0000 -22394.7063 3686.3337 0.0000 0.0000 1477.1975 -17222.5973 151.0893 -18699.7948 -17218.7233 149.8703 -148.7143 -80.2590 47869.4042 2.4604 1.7309
TCL: Running 50000 steps at 180 kelvin.
TCL: Setting parameter langevinTemp to 180
TCL: Running for 50000 steps
ETITLE: TS BOND ANGLE DIHED IMPRP ELECT VDW BOUNDARY MISC KINETIC TOTAL TEMP POTENTIAL TOTAL3 TEMPAVG PRESSURE GPRESSURE VOLUME PRESSAVG GPRESSAVG
ENERGY: 125000 2.6488 3.1948 2.7343 0.0000 -22394.7063 3686.3337 0.0000 0.0000 1476.4623 -17223.3325 151.0141 -18699.7948 -17220.4581 151.0141 -152.4160 -79.6575 47869.4042 -152.4160 -79.6575
ENERGY: 135000 1.2351 2.9732 4.0479 0.0000 -21828.0370 3566.2343 0.0000 0.0000 1780.4059 -16473.1406 182.1018 -18253.5466 -16469.5261 180.9159 276.3137 324.2983 48033.8887 2.3962 2.1268
ENERGY: 145000 5.6427 2.8664 3.4505 0.0000 -21937.2160 3645.9345 0.0000 0.0000 1749.0094 -16530.3125 178.8906 -18279.3219 -16524.8977 179.3235 578.6217 633.2200 48112.5191 5.2023 5.0789
ENERGY: 155000 3.8276 2.3941 2.3930 0.0000 -21750.8614 3454.5681 0.0000 0.0000 1728.3077 -16559.3709 176.7732 -18287.6785 -16554.3701 179.8159 -390.4219 -319.7361 48302.5909 0.1255 -0.2821
ENERGY: 165000 2.7504 3.6269 2.1915 0.0000 -21949.2185 3586.2111 0.0000 0.0000 1749.1869 -16605.2517 178.9087 -18354.4386 -16599.7452 180.1431 -3.7271 54.9929 48421.4110 4.2034 4.6218
ENERGY: 175000 1.4920 1.5317 2.0144 0.0000 -21873.0766 3492.2569 0.0000 0.0000 1734.2231 -16641.5585 177.3782 -18375.7817 -16637.5948 180.6351 -540.5091 -450.7887 48681.5285 2.3527 2.3794
TCL: Running 50000 steps at 210 kelvin.
TCL: Setting parameter langevinTemp to 210
TCL: Running for 50000 steps
ETITLE: TS BOND ANGLE DIHED IMPRP ELECT VDW BOUNDARY MISC KINETIC TOTAL TEMP POTENTIAL TOTAL3 TEMPAVG PRESSURE GPRESSURE VOLUME PRESSAVG GPRESSAVG
ENERGY: 175000 1.4920 1.5317 2.0144 0.0000 -21873.0766 3492.2569 0.0000 0.0000 1733.3471 -16642.4346 177.2886 -18375.7817 -16638.7864 177.2886 -514.6999 -451.7087 48681.5285 -514.6999 -451.7087
ENERGY: 185000 1.4083 3.4073 3.3408 0.0000 -20871.4033 3196.8133 0.0000 0.0000 2047.0998 -15619.3338 209.3796 -17666.4336 -15615.2470 211.6933 -259.1168 -202.9286 48422.0910 3.2323 4.1145
ENERGY: 195000 2.0768 2.9782 4.3001 0.0000 -20588.6792 3071.8997 0.0000 0.0000 2065.1251 -15442.2993 211.2232 -17507.4244 -15436.4946 210.0691 -686.3430 -610.1217 48533.5010 -1.8565 -2.2439
ENERGY: 205000 2.7690 3.3968 4.1404 0.0000 -20797.3678 3221.9136 0.0000 0.0000 2104.6802 -15460.4679 215.2689 -17565.1480 -15455.0154 211.3079 131.7565 176.4168 48400.8447 4.1473 4.4257
ENERGY: 215000 1.2398 2.8737 3.1206 0.0000 -20613.1905 3112.4011 0.0000 0.0000 2120.0442 -15373.5112 216.8404 -17493.5553 -15367.3776 210.9962 -85.2746 2.4878 47883.1381 5.6456 5.8174
ENERGY: 225000 2.9020 3.8684 3.5991 0.0000 -20684.4660 3131.8241 0.0000 0.0000 2050.6467 -15491.6256 209.7424 -17542.2723 -15488.7952 209.9339 -165.0339 -39.4501 48045.5499 0.4845 0.5521
TCL: Running 50000 steps at 240 kelvin.
TCL: Setting parameter langevinTemp to 240
TCL: Running for 50000 steps
ETITLE: TS BOND ANGLE DIHED IMPRP ELECT VDW BOUNDARY MISC KINETIC TOTAL TEMP POTENTIAL TOTAL3 TEMPAVG PRESSURE GPRESSURE VOLUME PRESSAVG GPRESSAVG
ENERGY: 225000 2.9020 3.8684 3.5991 0.0000 -20684.4660 3131.8241 0.0000 0.0000 2049.6262 -15492.6461 209.6380 -17542.2723 -15488.4817 209.6380 -120.7636 -40.1832 48045.5499 -120.7636 -40.1832
ENERGY: 235000 2.4580 3.9043 2.7142 0.0000 -19525.8486 2827.4734 0.0000 0.0000 2318.7380 -14370.5608 237.1630 -16689.2988 -14368.3763 240.6489 127.3868 213.4724 47910.6731 2.2406 2.0525
ENERGY: 245000 4.7822 3.6675 4.1334 0.0000 -19471.9083 2749.4364 0.0000 0.0000 2317.7567 -14392.1321 237.0626 -16709.8888 -14389.3333 240.2771 -459.8599 -335.2087 48795.1025 1.4356 1.9901
ENERGY: 255000 2.2837 5.3022 3.7059 0.0000 -19718.8756 2925.1517 0.0000 0.0000 2300.8094 -14481.6227 235.3293 -16782.4321 -14477.6114 241.3198 216.3946 323.8726 48631.9922 -0.3005 -0.5283
ENERGY: 265000 5.1196 3.1658 2.5789 0.0000 -19629.8671 2767.6612 0.0000 0.0000 2318.8258 -14532.5158 237.1720 -16851.3416 -14524.7648 239.5585 -534.0178 -491.3026 48272.2074 1.4388 1.4643
ENERGY: 275000 1.7498 1.6194 3.9605 0.0000 -19418.7230 2672.9802 0.0000 0.0000 2388.0927 -14350.3204 244.2567 -16738.4131 -14344.2271 240.2992 -634.5374 -557.1989 48354.8283 -1.5403 -2.1527
TCL: Running 50000 steps at 270 kelvin.
TCL: Setting parameter langevinTemp to 270
TCL: Running for 50000 steps
ETITLE: TS BOND ANGLE DIHED IMPRP ELECT VDW BOUNDARY MISC KINETIC TOTAL TEMP POTENTIAL TOTAL3 TEMPAVG PRESSURE GPRESSURE VOLUME PRESSAVG GPRESSAVG
ENERGY: 275000 1.7498 1.6194 3.9605 0.0000 -19418.7230 2672.9802 0.0000 0.0000 2386.9399 -14351.4732 244.1388 -16738.4131 -14347.6479 244.1388 -645.1413 -555.6752 48354.8283 -645.1413 -555.6752
ENERGY: 285000 4.5550 2.8869 7.0089 0.0000 -18956.4858 2722.0391 0.0000 0.0000 2595.6948 -13624.3011 265.4905 -16219.9959 -13618.4356 270.2653 230.4691 376.7536 49087.0801 0.6441 1.5787
ENERGY: 295000 2.7129 4.5737 3.9611 0.0000 -18935.9435 2699.8471 0.0000 0.0000 2643.5875 -13581.2612 270.3890 -16224.8487 -13576.0138 269.9224 349.8771 457.6916 49013.7375 0.0723 0.1356
ENERGY: 305000 2.4179 4.8695 6.8223 0.0000 -18674.7130 2542.9014 0.0000 0.0000 2630.5805 -13487.1214 269.0586 -16117.7018 -13477.9479 270.0472 -115.3693 -76.8870 48765.4809 2.2832 2.7878
ENERGY: 315000 3.0339 2.9984 3.9995 0.0000 -18918.5432 2677.4677 0.0000 0.0000 2619.7754 -13611.2683 267.9534 -16231.0436 -13606.6390 270.8172 -74.0205 27.8908 49500.9802 0.6688 0.3855
ENERGY: 325000 2.4881 3.9708 2.7177 0.0000 -18706.0856 2585.8603 0.0000 0.0000 2635.9580 -13475.0908 269.6086 -16111.0488 -13468.8748 272.3594 -259.4176 -215.5093 49979.0672 2.1044 1.8122
TCL: Running 1000000 steps at 300 kelvin.
TCL: Setting parameter langevinTemp to 300
TCL: Running for 1000000 steps
ETITLE: TS BOND ANGLE DIHED IMPRP ELECT VDW BOUNDARY MISC KINETIC TOTAL TEMP POTENTIAL TOTAL3 TEMPAVG PRESSURE GPRESSURE VOLUME PRESSAVG GPRESSAVG
ENERGY: 325000 2.4881 3.9708 2.7177 0.0000 -18706.0856 2585.8603 0.0000 0.0000 2634.6265 -13476.4223 269.4724 -16111.0488 -13473.2183 269.4724 -291.3586 -213.1012 49979.0672 -291.3586 -213.1012
ENERGY: 525000 3.8588 4.0829 2.7980 0.0000 -17800.5744 2318.2422 0.0000 0.0000 2924.3114 -12547.2810 299.1017 -15471.5924 -12539.4803 301.4503 -483.7038 -400.4751 50869.2844 1.6502 1.4249
ENERGY: 725000 3.1598 5.5693 5.1019 0.0000 -17893.4265 2430.7846 0.0000 0.0000 2963.4304 -12485.3806 303.1028 -15448.8109 -12478.5419 300.8304 186.2335 282.8069 50248.7694 -1.8935 -2.2776
ENERGY: 925000 4.0052 4.6822 3.9569 0.0000 -17956.2572 2459.1761 0.0000 0.0000 3002.6957 -12481.7411 307.1189 -15484.4368 -12474.4917 300.6456 -7.9292 143.3965 51206.6586 4.2523 4.7791
ENERGY: 1125000 2.3181 4.5163 3.4840 0.0000 -17798.6346 2347.7446 0.0000 0.0000 2883.4553 -12557.1163 294.9229 -15440.5716 -12552.5206 298.4980 -172.0393 -90.5866 50621.5415 -3.8854 -3.9556
ENERGY: 1325000 2.1753 6.0076 5.1434 0.0000 -17557.6633 2186.2908 0.0000 0.0000 2919.3191 -12438.7271 298.5911 -15358.0462 -12432.3877 300.0329 -1057.5415 -979.4141 51380.0822 1.0786 0.7714
TCL: Exiting due to exit command.
