Info: SIMULATION PARAMETERS:
Info: TIMESTEP               2
Info: NUMBER OF STEPS        0
Info: STEPS PER CYCLE        10
Info: PERIODIC CELL BASIS 1  34.207 0 0
Info: PERIODIC CELL BASIS 2  0 35.411 0
Info: PERIODIC CELL BASIS 3  0 0 35.723
Info: PERIODIC CELL CENTER   0 0 0
Info: WRAPPING WATERS AROUND PERIODIC BOUNDARIES ON OUTPUT.
Info: WRAPPING ALL CLUSTERS AROUND PERIODIC BOUNDARIES ON OUTPUT.
Info: FIRST LDB TIMESTEP     50
Info: LAST LDB TIMESTEP     -1
Info: HOM BACKGROUND SCALING 1
Info: PME BACKGROUND SCALING 1
Info: MIN ATOMS PER PATCH    40
Info: EMPTY PATCH LOAD       40 ATOMS
Info: INITIAL TEMPERATURE    300
Info: CENTER OF MASS MOVING INITIALLY? NO
Info: DIELECTRIC             1
Info: EXCLUDE                SCALED ONE-FOUR
Info: 1-4 ELECTROSTATICS SCALED BY 0.833333
Info: MODIFIED 1-4 VDW PARAMETERS WILL BE USED
Info: DCD FILENAME           mobley_646007_equil.dcd
Info: DCD FREQUENCY          100000
Info: DCD FIRST STEP         100000
Info: DCD FILE WILL CONTAIN UNIT CELL DATA
Info: XST FILENAME           mobley_646007_equil.xst
Info: XST FREQUENCY          100000
Info: NO VELOCITY DCD OUTPUT
Info: NO FORCE DCD OUTPUT
Info: OUTPUT FILENAME        mobley_646007_equil
Info: BINARY OUTPUT FILES WILL BE USED
Info: RESTART FILENAME       mobley_646007_equil.restart
Info: RESTART FREQUENCY      100000
Info: BINARY RESTART FILES WILL BE USED
Info: CUTOFF                 9
Info: PAIRLIST DISTANCE      11
Info: PAIRLIST SHRINK RATE   0.01
Info: PAIRLIST GROW RATE     0.01
Info: PAIRLIST TRIGGER       0.3
Info: PAIRLISTS PER CYCLE    2
Info: PAIRLISTS ENABLED
Info: MARGIN                 8
Info: HYDROGEN GROUP CUTOFF  2.5
Info: PATCH DIMENSION        21.5
Info: ENERGY OUTPUT STEPS    100000
Info: ENERGY EVALUATION STEPS    100000
Info: OUTPUT ENERGY PRECISION 4
Info: CROSSTERM ENERGY INCLUDED IN DIHEDRAL
Info: TIMING OUTPUT STEPS    1000000
Info: PRESSURE OUTPUT STEPS  100000
Info: FIXED ATOMS ACTIVE
Info: LANGEVIN DYNAMICS ACTIVE
Info: LANGEVIN TEMPERATURE   30
Info: LANGEVIN USING BBK INTEGRATOR
Info: LANGEVIN DAMPING COEFFICIENT IS 1 INVERSE PS
Info: LANGEVIN DYNAMICS APPLIED TO HYDROGENS
Info: LANGEVIN PISTON PRESSURE CONTROL ACTIVE
Info:        TARGET PRESSURE IS 1.01325 BAR
Info:     OSCILLATION PERIOD IS 50 FS
Info:             DECAY TIME IS 25 FS
Info:     PISTON TEMPERATURE IS 300 K
Info:       PRESSURE CONTROL IS GROUP-BASED
Info:    INITIAL STRAIN RATE IS 0 0 0
Info:       CELL FLUCTUATION IS ISOTROPIC
Info: PARTICLE MESH EWALD (PME) ACTIVE
Info: PME TOLERANCE               1e-06
Info: PME EWALD COEFFICIENT       0.348832
Info: PME INTERPOLATION ORDER     4
Info: PME GRID DIMENSIONS         36 36 36
Info: PME MAXIMUM GRID SPACING    1
Info: FULL ELECTROSTATIC EVALUATION FREQUENCY      2
Info: USING VERLET I (r-RESPA) MTS SCHEME.
Info: C1 SPLITTING OF LONG RANGE ELECTROSTATICS
Info: PLACING ATOMS IN PATCHES BY HYDROGEN GROUPS
Info: RIGID BONDS TO HYDROGEN : ALL
Info:         ERROR TOLERANCE : 1e-08
Info:          MAX ITERATIONS : 100
Info: RIGID WATER USING SETTLE ALGORITHM
Info: RANDOM NUMBER SEED     1742209634
Info: USE HYDROGEN BONDS?    NO
Info: Using AMBER format force field!
Info: AMBER PARM FILE        mobley_646007.prmtop
Info: COORDINATE PDB         mobley_646007.pdb
Info: Exclusions will be read from PARM file!
Info: SCNB (VDW SCALING)     2
Info: USING ARITHMETIC MEAN TO COMBINE L-J SIGMA PARAMETERS
Info: BINARY COORDINATES     mobley_646007_min.coor
Info: SUMMARY OF PARAMETERS:
Info: 7 BONDS
Info: 9 ANGLES
Info:   9 HARMONIC
Info:   0 COSINE-BASED
Info: 10 DIHEDRAL
Info: 0 IMPROPER
Info: 0 CROSSTERM
Info: 0 VDW
Info: 28 VDW_PAIRS
Info: 0 NBTHOLE_PAIRS
Info: STRUCTURE SUMMARY:
Info: 2918 ATOMS
Info: 2918 BONDS
Info: 27 ANGLES
Info: 39 DIHEDRALS
Info: 0 IMPROPERS
Info: 0 CROSSTERMS
Info: 2979 EXCLUSIONS
Info: 14 FIXED ATOMS
Info: 2913 RIGID BONDS
Info: 9 RIGID BONDS BETWEEN FIXED ATOMS
Info: 5808 DEGREES OF FREEDOM
Info: 973 HYDROGEN GROUPS
Info: 3 ATOMS IN LARGEST HYDROGEN GROUP
Info: 973 MIGRATION GROUPS
Info: 3 ATOMS IN LARGEST MIGRATION GROUP
Info: 5 HYDROGEN GROUPS WITH ALL ATOMS FIXED
Info: TOTAL MASS = 17510.6 amu
Info: TOTAL CHARGE = -2.98023e-08 e
Info: MASS DENSITY = 0.671985 g/cm^3
Info: ATOM DENSITY = 0.0674348 atoms/A^3
Info: ADDED 0 IMPLICIT EXCLUSIONS
Info: NONBONDED TABLE R-SQUARED SPACING: 0.0625
Info: NONBONDED TABLE SIZE: 705 POINTS
Info: REMOVING COM VELOCITY -0.0734894 0.134338 -0.00487346
TCL: Running for 100000 steps
ETITLE: TS BOND ANGLE DIHED IMPRP ELECT VDW BOUNDARY MISC KINETIC TOTAL TEMP POTENTIAL TOTAL3 TEMPAVG PRESSURE GPRESSURE VOLUME PRESSAVG GPRESSAVG
ENERGY: 0 0.0000 0.0000 0.0000 0.0000 -13588.1675 2379.1221 0.0000 0.0000 1717.8692 -9491.1762 297.6829 -11209.0454 -9490.8557 297.6829 412.6437 453.5694 43271.4155 412.6437 453.5694
ENERGY: 100000 0.0000 0.0000 0.0000 0.0000 -14021.0198 2352.0090 0.0000 0.0000 171.1110 -11497.8998 29.6512 -11669.0109 -11497.3020 30.9322 -549.0782 -500.9408 28316.3990 3.8694 3.8826
TCL: Running 100000 steps at 60 kelvin.
TCL: Setting parameter langevinTemp to 60
TCL: Running for 100000 steps
ETITLE: TS BOND ANGLE DIHED IMPRP ELECT VDW BOUNDARY MISC KINETIC TOTAL TEMP POTENTIAL TOTAL3 TEMPAVG PRESSURE GPRESSURE VOLUME PRESSAVG GPRESSAVG
ENERGY: 100000 0.0000 0.0000 0.0000 0.0000 -14021.0198 2352.0090 0.0000 0.0000 171.0287 -11497.9822 29.6369 -11669.0109 -11497.5921 29.6369 -557.2113 -500.7724 28316.3990 -557.2113 -500.7724
ENERGY: 200000 0.0000 0.0000 0.0000 0.0000 -13981.4560 2348.8310 0.0000 0.0000 336.2056 -11296.4195 58.2598 -11632.6250 -11295.6045 60.0455 -571.2978 -513.9430 28133.5343 4.6673 4.6606
TCL: Running 100000 steps at 90 kelvin.
TCL: Setting parameter langevinTemp to 90
TCL: Running for 100000 steps
ETITLE: TS BOND ANGLE DIHED IMPRP ELECT VDW BOUNDARY MISC KINETIC TOTAL TEMP POTENTIAL TOTAL3 TEMPAVG PRESSURE GPRESSURE VOLUME PRESSAVG GPRESSAVG
ENERGY: 200000 0.0000 0.0000 0.0000 0.0000 -13981.4560 2348.8310 0.0000 0.0000 336.0339 -11296.5911 58.2300 -11632.6250 -11295.9055 58.2300 -568.8509 -513.9836 28133.5343 -568.8509 -513.9836
ENERGY: 300000 0.0000 0.0000 0.0000 0.0000 -13681.9599 2182.7399 0.0000 0.0000 534.2971 -10964.9228 92.5863 -11499.2199 -10963.0796 89.9937 -1351.6819 -1298.4412 28212.7674 1.9198 1.8909
TCL: Running 100000 steps at 120 kelvin.
TCL: Setting parameter langevinTemp to 120
TCL: Running for 100000 steps
ETITLE: TS BOND ANGLE DIHED IMPRP ELECT VDW BOUNDARY MISC KINETIC TOTAL TEMP POTENTIAL TOTAL3 TEMPAVG PRESSURE GPRESSURE VOLUME PRESSAVG GPRESSAVG
ENERGY: 300000 0.0000 0.0000 0.0000 0.0000 -13681.9599 2182.7399 0.0000 0.0000 534.0353 -10965.1846 92.5409 -11499.2199 -10963.6642 92.5409 -1356.3377 -1298.1074 28212.7674 -1356.3377 -1298.1074
ENERGY: 400000 0.0000 0.0000 0.0000 0.0000 -13692.0249 2300.0706 0.0000 0.0000 695.3980 -10696.5564 120.5028 -11391.9544 -10694.4543 119.8440 81.0174 155.0490 27947.9523 4.9581 4.9230
TCL: Running 100000 steps at 150 kelvin.
TCL: Setting parameter langevinTemp to 150
TCL: Running for 100000 steps
ETITLE: TS BOND ANGLE DIHED IMPRP ELECT VDW BOUNDARY MISC KINETIC TOTAL TEMP POTENTIAL TOTAL3 TEMPAVG PRESSURE GPRESSURE VOLUME PRESSAVG GPRESSAVG
ENERGY: 400000 0.0000 0.0000 0.0000 0.0000 -13692.0249 2300.0706 0.0000 0.0000 695.0611 -10696.8933 120.4444 -11391.9544 -10695.5521 120.4444 99.9697 155.3773 27947.9523 99.9697 155.3773
ENERGY: 500000 0.0000 0.0000 0.0000 0.0000 -13370.8793 2136.5192 0.0000 0.0000 887.0737 -10347.2864 153.7176 -11234.3601 -10346.0032 149.8296 -692.8906 -614.6805 28314.5102 3.6631 3.6571
TCL: Running 100000 steps at 180 kelvin.
TCL: Setting parameter langevinTemp to 180
TCL: Running for 100000 steps
ETITLE: TS BOND ANGLE DIHED IMPRP ELECT VDW BOUNDARY MISC KINETIC TOTAL TEMP POTENTIAL TOTAL3 TEMPAVG PRESSURE GPRESSURE VOLUME PRESSAVG GPRESSAVG
ENERGY: 500000 0.0000 0.0000 0.0000 0.0000 -13370.8793 2136.5192 0.0000 0.0000 886.6385 -10347.7216 153.6421 -11234.3601 -10345.5137 153.6421 -659.9369 -614.9593 28314.5102 -659.9369 -614.9593
ENERGY: 600000 0.0000 0.0000 0.0000 0.0000 -12945.1965 2043.1922 0.0000 0.0000 1031.5770 -9870.4274 178.7580 -10902.0043 -9868.0952 180.0079 -302.3147 -257.5680 28502.2873 3.7153 3.7604
TCL: Running 100000 steps at 210 kelvin.
TCL: Setting parameter langevinTemp to 210
TCL: Running for 100000 steps
ETITLE: TS BOND ANGLE DIHED IMPRP ELECT VDW BOUNDARY MISC KINETIC TOTAL TEMP POTENTIAL TOTAL3 TEMPAVG PRESSURE GPRESSURE VOLUME PRESSAVG GPRESSAVG
ENERGY: 600000 0.0000 0.0000 0.0000 0.0000 -12945.1965 2043.1922 0.0000 0.0000 1031.0416 -9870.9627 178.6652 -10902.0043 -9869.2733 178.6652 -319.0048 -256.8720 28502.2873 -319.0048 -256.8720
ENERGY: 700000 0.0000 0.0000 0.0000 0.0000 -12318.1229 1882.1024 0.0000 0.0000 1179.5769 -9256.4436 204.4043 -10436.0206 -9253.3069 209.9016 128.7287 225.9448 28334.3986 4.3010 4.1592
TCL: Running 100000 steps at 240 kelvin.
TCL: Setting parameter langevinTemp to 240
TCL: Running for 100000 steps
ETITLE: TS BOND ANGLE DIHED IMPRP ELECT VDW BOUNDARY MISC KINETIC TOTAL TEMP POTENTIAL TOTAL3 TEMPAVG PRESSURE GPRESSURE VOLUME PRESSAVG GPRESSAVG
ENERGY: 700000 0.0000 0.0000 0.0000 0.0000 -12318.1229 1882.1024 0.0000 0.0000 1178.9604 -9257.0602 204.2975 -10436.0206 -9255.2718 204.2975 149.9049 227.9141 28334.3986 149.9049 227.9141
ENERGY: 800000 0.0000 0.0000 0.0000 0.0000 -11738.6784 1711.9884 0.0000 0.0000 1396.4617 -8630.2283 241.9874 -10026.6900 -8626.0335 239.7820 -2.5235 62.6713 28736.5864 3.4975 3.5033
TCL: Running 100000 steps at 270 kelvin.
TCL: Setting parameter langevinTemp to 270
TCL: Running for 100000 steps
ETITLE: TS BOND ANGLE DIHED IMPRP ELECT VDW BOUNDARY MISC KINETIC TOTAL TEMP POTENTIAL TOTAL3 TEMPAVG PRESSURE GPRESSURE VOLUME PRESSAVG GPRESSAVG
ENERGY: 800000 0.0000 0.0000 0.0000 0.0000 -11738.6784 1711.9884 0.0000 0.0000 1395.8031 -8630.8869 241.8733 -10026.6900 -8628.6160 241.8733 -29.6971 63.1736 28736.5864 -29.6971 63.1736
ENERGY: 900000 0.0000 0.0000 0.0000 0.0000 -11065.2384 1532.5973 0.0000 0.0000 1558.9823 -7973.6588 270.1500 -9532.6411 -7970.1048 270.6678 159.4309 184.1110 29193.5329 3.9409 4.0187
TCL: Running 1000000 steps at 300 kelvin.
TCL: Setting parameter langevinTemp to 300
TCL: Running for 1000000 steps
ETITLE: TS BOND ANGLE DIHED IMPRP ELECT VDW BOUNDARY MISC KINETIC TOTAL TEMP POTENTIAL TOTAL3 TEMPAVG PRESSURE GPRESSURE VOLUME PRESSAVG GPRESSAVG
ENERGY: 900000 0.0000 0.0000 0.0000 0.0000 -11065.2384 1532.5973 0.0000 0.0000 1558.1559 -7974.4851 270.0068 -9532.6411 -7972.2084 270.0068 95.3855 184.7801 29193.5329 95.3855 184.7801
ENERGY: 1100000 0.0000 0.0000 0.0000 0.0000 -10591.2921 1395.5536 0.0000 0.0000 1703.8018 -7491.9368 295.2452 -9195.7385 -7489.8540 300.2032 -346.1839 -260.1328 30275.6413 3.4864 3.4462
ENERGY: 1300000 0.0000 0.0000 0.0000 0.0000 -10676.6714 1425.4923 0.0000 0.0000 1699.6912 -7551.4878 294.5329 -9251.1790 -7548.0921 300.6445 -37.9657 2.3508 29927.6551 3.3662 3.6001
ENERGY: 1500000 0.0000 0.0000 0.0000 0.0000 -10566.2063 1388.5004 0.0000 0.0000 1742.6905 -7435.0154 301.9841 -9177.7060 -7430.4997 300.4845 -506.8710 -388.9037 30575.2167 2.7061 2.7436
ENERGY: 1700000 0.0000 0.0000 0.0000 0.0000 -10760.1016 1447.8550 0.0000 0.0000 1722.9963 -7589.2504 298.5713 -9312.2466 -7584.5099 300.2371 -30.5068 -2.4268 30128.6486 3.9254 3.8475
ENERGY: 1900000 0.0000 0.0000 0.0000 0.0000 -10751.6906 1495.3786 0.0000 0.0000 1738.1569 -7518.1551 301.1985 -9256.3120 -7514.8545 300.5790 525.8897 603.4581 30103.9507 3.5151 3.6676
TCL: Exiting due to exit command.
