Info: SIMULATION PARAMETERS:
Info: TIMESTEP               2
Info: NUMBER OF STEPS        0
Info: STEPS PER CYCLE        10
Info: PERIODIC CELL BASIS 1  30.3212 0 0
Info: PERIODIC CELL BASIS 2  0 31.3884 0
Info: PERIODIC CELL BASIS 3  0 0 31.6649
Info: PERIODIC CELL CENTER   0 0 0
Info: WRAPPING WATERS AROUND PERIODIC BOUNDARIES ON OUTPUT.
Info: WRAPPING ALL CLUSTERS AROUND PERIODIC BOUNDARIES ON OUTPUT.
Info: FIRST LDB TIMESTEP     50
Info: LAST LDB TIMESTEP     -1
Info: HOM BACKGROUND SCALING 1
Info: PME BACKGROUND SCALING 1
Info: MIN ATOMS PER PATCH    40
Info: EMPTY PATCH LOAD       40 ATOMS
Info: VELOCITY FILE          mobley_646007_equil.vel
Info: CENTER OF MASS MOVING INITIALLY? NO
Info: DIELECTRIC             1
Info: EXCLUDE                SCALED ONE-FOUR
Info: 1-4 ELECTROSTATICS SCALED BY 0.833333
Info: MODIFIED 1-4 VDW PARAMETERS WILL BE USED
Info: DCD FILENAME           mobley_646007_prod.dcd
Info: DCD FREQUENCY          100000
Info: DCD FIRST STEP         100000
Info: DCD FILE WILL CONTAIN UNIT CELL DATA
Info: XST FILENAME           mobley_646007_prod.xst
Info: XST FREQUENCY          100000
Info: NO VELOCITY DCD OUTPUT
Info: NO FORCE DCD OUTPUT
Info: OUTPUT FILENAME        mobley_646007_prod
Info: BINARY OUTPUT FILES WILL BE USED
Info: RESTART FILENAME       mobley_646007_prod.restart
Info: RESTART FREQUENCY      100000
Info: BINARY RESTART FILES WILL BE USED
Info: CUTOFF                 9
Info: PAIRLIST DISTANCE      11
Info: PAIRLIST SHRINK RATE   0.01
Info: PAIRLIST GROW RATE     0.01
Info: PAIRLIST TRIGGER       0.3
Info: PAIRLISTS PER CYCLE    2
Info: PAIRLISTS ENABLED
Info: MARGIN                 2
Info: HYDROGEN GROUP CUTOFF  2.5
Info: PATCH DIMENSION        15.5
Info: ENERGY OUTPUT STEPS    100000
Info: ENERGY EVALUATION STEPS    100000
Info: OUTPUT ENERGY PRECISION 4
Info: CROSSTERM ENERGY INCLUDED IN DIHEDRAL
Info: TIMING OUTPUT STEPS    1000000
Info: PRESSURE OUTPUT STEPS  100000
Info: ALCHEMICAL FEP ON
Info: FEP CURRENT LAMBDA VALUE     0
Info: FEP COMPARISON LAMBDA VALUE  0.05
Info: FEP INTRA-ALCHEMICAL NON-BONDED INTERACTIONS WILL BE RETAINED
Info: FEP INTRA-ALCHEMICAL BONDED INTERACTIONS WILL BE RETAINED
Info: FEP VDW SHIFTING COEFFICIENT 5
Info: FEP ELEC. ACTIVE FOR ANNIHILATED PARTICLES BETWEEN LAMBDA = 0 AND LAMBDA = 0.5
Info: FEP ELEC. ACTIVE FOR EXNIHILATED PARTICLES BETWEEN LAMBDA = 0.5 AND LAMBDA = 1
Info: FEP VDW ACTIVE FOR ANNIHILATED PARTICLES BETWEEN LAMBDA = 0 AND LAMBDA = 1
Info: FEP VDW ACTIVE FOR EXNIHILATED PARTICLES BETWEEN LAMBDA = 0 AND LAMBDA = 1
Info: FEP BOND ACTIVE FOR ANNIHILATED PARTICLES BETWEEN LAMBDA = 1 AND LAMBDA = 1
Info: FEP BOND ACTIVE FOR EXNIHILATED PARTICLES BETWEEN LAMBDA = 0 AND LAMBDA = 0
Info: LANGEVIN DYNAMICS ACTIVE
Info: LANGEVIN TEMPERATURE   300
Info: LANGEVIN USING BBK INTEGRATOR
Info: LANGEVIN DAMPING COEFFICIENT IS 1 INVERSE PS
Info: LANGEVIN DYNAMICS APPLIED TO HYDROGENS
Info: LANGEVIN PISTON PRESSURE CONTROL ACTIVE
Info:        TARGET PRESSURE IS 1.01325 BAR
Info:     OSCILLATION PERIOD IS 50 FS
Info:             DECAY TIME IS 25 FS
Info:     PISTON TEMPERATURE IS 300 K
Info:       PRESSURE CONTROL IS GROUP-BASED
Info:    INITIAL STRAIN RATE IS 6.07883e-05 6.07883e-05 6.07883e-05
Info:       CELL FLUCTUATION IS ISOTROPIC
Info: PARTICLE MESH EWALD (PME) ACTIVE
Info: PME TOLERANCE               1e-06
Info: PME EWALD COEFFICIENT       0.348832
Info: PME INTERPOLATION ORDER     4
Info: PME GRID DIMENSIONS         32 32 32
Info: PME MAXIMUM GRID SPACING    1
Info: PME CALCULATION WILL BE PERFORMED ON GPU
Info: FULL ELECTROSTATIC EVALUATION FREQUENCY      2
Info: USING VERLET I (r-RESPA) MTS SCHEME.
Info: C1 SPLITTING OF LONG RANGE ELECTROSTATICS
Info: PLACING ATOMS IN PATCHES BY HYDROGEN GROUPS
Info: RIGID BONDS TO HYDROGEN : ALL
Info:         ERROR TOLERANCE : 1e-08
Info:          MAX ITERATIONS : 100
Info: RIGID WATER USING SETTLE ALGORITHM
Info: RANDOM NUMBER SEED     1742232340
Info: USE HYDROGEN BONDS?    NO
Info: Using AMBER format force field!
Info: AMBER PARM FILE        mobley_646007.prmtop
Info: COORDINATE PDB         mobley_646007.pdb
Info: Exclusions will be read from PARM file!
Info: SCNB (VDW SCALING)     2
Info: USING ARITHMETIC MEAN TO COMBINE L-J SIGMA PARAMETERS
Info: BINARY COORDINATES     mobley_646007_equil.coor
Info: SUMMARY OF PARAMETERS:
Info: 7 BONDS
Info: 9 ANGLES
Info:   9 HARMONIC
Info:   0 COSINE-BASED
Info: 10 DIHEDRAL
Info: 0 IMPROPER
Info: 0 CROSSTERM
Info: 0 VDW
Info: 28 VDW_PAIRS
Info: 0 NBTHOLE_PAIRS
Info: To read alchdata from file: mobley_646007.pdb
Info: To read alchflag data from column: 5
Info: STRUCTURE SUMMARY:
Info: 2918 ATOMS
Info: 2918 BONDS
Info: 27 ANGLES
Info: 39 DIHEDRALS
Info: 0 IMPROPERS
Info: 0 CROSSTERMS
Info: 2979 EXCLUSIONS
Info: 2913 RIGID BONDS
Info: ALCH: 0 ATOMS TO DISAPPEAR IN FINAL STATE
Info: ALCH: 14 ATOMS TO APPEAR IN FINAL STATE
Info: 5841 DEGREES OF FREEDOM
Info: 973 HYDROGEN GROUPS
Info: 3 ATOMS IN LARGEST HYDROGEN GROUP
Info: 973 MIGRATION GROUPS
Info: 3 ATOMS IN LARGEST MIGRATION GROUP
Info: TOTAL MASS = 17510.6 amu
Info: TOTAL CHARGE = -2.98023e-08 e
Info: MASS DENSITY = 0.964866 g/cm^3
Info: ATOM DENSITY = 0.096826 atoms/A^3
Info: ADDED 0 IMPLICIT EXCLUSIONS
Info: NONBONDED TABLE R-SQUARED SPACING: 0.0625
Info: NONBONDED TABLE SIZE: 705 POINTS
Info: REMOVING COM VELOCITY -0.14502 -0.0145662 -0.225781
Info: Use 3D box decompostion in PME FFT.
Info: Updated CUDA force table with 4096 elements.
Info: Updated CUDA LJ table with 7 x 7 elements.
Info: Found 17 unique exclusion lists needing 36 bytes
TCL: Running for 1500000 steps
ETITLE: TS BOND ANGLE DIHED IMPRP ELECT VDW BOUNDARY MISC KINETIC TOTAL TEMP POTENTIAL TOTALAVG TEMPAVG PRESSURE GPRESSURE VOLUME PRESSAVG GPRESSAVG
ENERGY: 0 0.2418 12.1738 6.7641 0.0000 -10601.1027 1420.0231 0.0000 0.0000 1720.4042 -7441.4957 296.4379 -9161.9000 -7441.4957 296.4379 -333.2558 -258.1889 30136.5482 -333.2558 -258.1889
ENERGY: 300000 2.8598 11.4480 11.1551 0.0000 -10650.7814 1482.2314 0.0000 0.0000 1666.7296 -7476.3576 287.1893 -9143.0872 -7406.2743 296.3259 150.5451 198.8208 30223.8490 -3.9389 46.5308
ENERGY: 600000 2.4052 12.2981 9.4715 0.0000 -10598.7633 1549.0981 0.0000 0.0000 1685.8177 -7339.6726 290.4784 -9025.4904 -7384.3706 295.6753 1243.1273 1332.7240 29996.3549 257.7534 319.1229
ENERGY: 900000 2.3685 15.2359 6.4170 0.0000 -10545.4732 1378.1234 0.0000 0.0000 1754.9737 -7388.3547 302.3944 -9143.3284 -7379.3627 299.1553 -513.6360 -400.9354 29959.5495 69.4954 132.8254
ENERGY: 1200000 1.8963 15.0207 9.4573 0.0000 -10527.3747 1375.8560 0.0000 0.0000 1753.5307 -7371.6137 302.1458 -9125.1445 -7369.2708 299.7756 -137.3624 -94.3470 29750.7470 24.8464 91.7514
ENERGY: 1500000 0.7389 12.2408 10.9718 0.0000 -10515.3539 1397.7611 0.0000 0.0000 1780.4452 -7313.1961 306.7834 -9093.6413 -7362.8813 301.2843 -188.3236 -114.3743 30153.8770 45.6409 112.6619
TCL: Running FEP window   2: Lambda1 0.05   Lambda2 0.1    [dLambda 0.05  ]
TCL: Setting parameter firsttimestep to 0
TCL: Setting parameter alchLambda to 0.05
Info: NONBONDED TABLE R-SQUARED SPACING: 0.0625
Info: NONBONDED TABLE SIZE: 705 POINTS
TCL: Setting parameter alchLambda2 to 0.1
Info: NONBONDED TABLE R-SQUARED SPACING: 0.0625
Info: NONBONDED TABLE SIZE: 705 POINTS
TCL: Running for 1500000 steps
ETITLE: TS BOND ANGLE DIHED IMPRP ELECT VDW BOUNDARY MISC KINETIC TOTAL TEMP POTENTIAL TOTALAVG TEMPAVG PRESSURE GPRESSURE VOLUME PRESSAVG GPRESSAVG
ENERGY: 0 0.7389 12.2408 10.9718 0.0000 -10515.3542 1399.2744 0.0000 0.0000 1779.5406 -7312.5877 306.6275 -9092.1283 -7312.5877 306.6275 -189.5066 -110.4815 30153.8770 -189.5066 -110.4815
ENERGY: 300000 0.2570 11.0956 9.5931 0.0000 -10564.9815 1452.6580 0.0000 0.0000 1711.3443 -7380.0335 294.8768 -9091.3778 -7348.4943 303.8224 325.4821 397.1733 29901.2312 30.9296 111.3781
ENERGY: 600000 1.4260 15.9729 6.2323 0.0000 -10648.7435 1481.7138 0.0000 0.0000 1822.8356 -7320.5630 314.0875 -9143.3987 -7357.9090 303.2852 645.2661 692.7385 29693.3304 16.4574 84.5544
ENERGY: 900000 1.2880 9.4408 11.1687 0.0000 -10590.2751 1415.8702 0.0000 0.0000 1736.2728 -7416.2345 299.1721 -9152.5073 -7365.5046 302.9524 -60.6238 58.2955 29613.8044 30.4994 107.6417
ENERGY: 1200000 2.1670 11.3845 11.0751 0.0000 -10505.4361 1422.1704 0.0000 0.0000 1762.0686 -7296.5705 303.6169 -9058.6392 -7351.7901 302.7638 161.2827 194.0355 29830.0595 -8.9295 58.9215
ENERGY: 1500000 2.1676 17.1410 10.3603 0.0000 -10632.6400 1439.7284 0.0000 0.0000 1743.3724 -7419.8702 300.3955 -9163.2426 -7358.2948 302.6143 -149.2870 -85.8571 30184.3800 -3.4693 62.8754
TCL: Running FEP window   3: Lambda1 0.1    Lambda2 0.15000000000000002 [dLambda 0.05000000000000002]
TCL: Setting parameter firsttimestep to 0
TCL: Setting parameter alchLambda to 0.1
Info: NONBONDED TABLE R-SQUARED SPACING: 0.0625
Info: NONBONDED TABLE SIZE: 705 POINTS
TCL: Setting parameter alchLambda2 to 0.15000000000000002
Info: NONBONDED TABLE R-SQUARED SPACING: 0.0625
Info: NONBONDED TABLE SIZE: 705 POINTS
TCL: Running for 1500000 steps
ETITLE: TS BOND ANGLE DIHED IMPRP ELECT VDW BOUNDARY MISC KINETIC TOTAL TEMP POTENTIAL TOTALAVG TEMPAVG PRESSURE GPRESSURE VOLUME PRESSAVG GPRESSAVG
ENERGY: 0 2.1676 17.1410 10.3603 0.0000 -10632.6390 1441.2608 0.0000 0.0000 1742.5138 -7419.1955 300.2475 -9161.7092 -7419.1955 300.2475 -163.4801 -80.6100 30184.3800 -163.4801 -80.6100
ENERGY: 300000 1.6810 9.2139 9.3331 0.0000 -10727.0881 1497.6847 0.0000 0.0000 1768.6772 -7440.4981 304.7556 -9209.1753 -7370.5832 302.9112 320.4586 368.2033 29820.4193 99.2919 168.7619
ENERGY: 600000 4.4547 10.6530 7.9926 0.0000 -10631.9324 1399.9068 0.0000 0.0000 1773.7035 -7435.2216 305.6217 -9208.9252 -7361.9391 303.3085 -457.3517 -415.3418 29811.6542 -120.7956 -52.6318
ENERGY: 900000 1.1887 12.3665 10.7416 0.0000 -10708.3061 1460.2301 0.0000 0.0000 1762.0134 -7461.7658 303.6074 -9223.7792 -7376.0280 304.1461 173.9037 270.2717 29520.9290 -146.9691 -75.7194
ENERGY: 1200000 1.0673 11.3102 8.2855 0.0000 -10561.1093 1436.1290 0.0000 0.0000 1761.9137 -7342.4035 303.5903 -9104.3173 -7377.6156 303.3703 -26.9192 62.0751 30239.1709 -122.9027 -48.8958
ENERGY: 1500000 0.7973 10.2607 10.4783 0.0000 -10588.5136 1453.2115 0.0000 0.0000 1756.9062 -7356.8596 302.7274 -9113.7658 -7371.0817 304.0046 149.6988 257.9503 30059.2890 -32.1492 40.4190
TCL: Running FEP window   4: Lambda1 0.15000000000000002 Lambda2 0.2    [dLambda 0.04999999999999999]
TCL: Setting parameter firsttimestep to 0
TCL: Setting parameter alchLambda to 0.15000000000000002
Info: NONBONDED TABLE R-SQUARED SPACING: 0.0625
Info: NONBONDED TABLE SIZE: 705 POINTS
TCL: Setting parameter alchLambda2 to 0.2
Info: NONBONDED TABLE R-SQUARED SPACING: 0.0625
Info: NONBONDED TABLE SIZE: 705 POINTS
TCL: Running for 1500000 steps
ETITLE: TS BOND ANGLE DIHED IMPRP ELECT VDW BOUNDARY MISC KINETIC TOTAL TEMP POTENTIAL TOTALAVG TEMPAVG PRESSURE GPRESSURE VOLUME PRESSAVG GPRESSAVG
ENERGY: 0 0.7973 10.2607 10.4783 0.0000 -10588.5130 1453.4217 0.0000 0.0000 1756.0397 -7357.5153 302.5781 -9113.5550 -7357.5153 302.5781 173.9783 263.1819 30059.2890 173.9783 263.1819
ENERGY: 300000 0.6254 12.7662 12.3316 0.0000 -10610.7192 1470.1073 0.0000 0.0000 1790.3725 -7324.5162 308.4939 -9114.8887 -7372.1982 299.9523 458.0945 501.5204 29889.2642 -50.8280 8.4453
ENERGY: 600000 0.4075 14.4975 9.5627 0.0000 -10628.4180 1447.9069 0.0000 0.0000 1747.2460 -7408.7974 301.0629 -9156.0434 -7382.6766 301.5043 -19.9616 55.4153 30167.7446 -95.0229 -33.3843
ENERGY: 900000 0.8316 13.1112 7.5443 0.0000 -10482.2661 1400.4447 0.0000 0.0000 1755.2197 -7305.1146 302.4368 -9060.3343 -7392.6786 299.4726 8.5551 71.4157 29892.0491 -64.7814 1.7059
ENERGY: 1200000 0.4276 13.6998 9.0989 0.0000 -10644.7832 1398.1539 0.0000 0.0000 1768.1312 -7455.2718 304.6616 -9223.4030 -7396.8474 300.3531 -357.6215 -311.3017 29572.7094 -68.3084 -2.3249
ENERGY: 1500000 0.3789 15.0860 8.5880 0.0000 -10530.9470 1435.0926 0.0000 0.0000 1705.2982 -7366.5033 293.8350 -9071.8015 -7393.3419 300.4693 235.6600 323.5349 29972.5610 -97.3225 -27.8158
TCL: Running FEP window   5: Lambda1 0.2    Lambda2 0.25   [dLambda 0.04999999999999999]
TCL: Setting parameter firsttimestep to 0
TCL: Setting parameter alchLambda to 0.2
Info: NONBONDED TABLE R-SQUARED SPACING: 0.0625
Info: NONBONDED TABLE SIZE: 705 POINTS
TCL: Setting parameter alchLambda2 to 0.25
Info: NONBONDED TABLE R-SQUARED SPACING: 0.0625
Info: NONBONDED TABLE SIZE: 705 POINTS
TCL: Running for 1500000 steps
ETITLE: TS BOND ANGLE DIHED IMPRP ELECT VDW BOUNDARY MISC KINETIC TOTAL TEMP POTENTIAL TOTALAVG TEMPAVG PRESSURE GPRESSURE VOLUME PRESSAVG GPRESSAVG
ENERGY: 0 0.3789 15.0860 8.5880 0.0000 -10530.9465 1435.4986 0.0000 0.0000 1704.3928 -7367.0022 293.6790 -9071.3950 -7367.0022 293.6790 248.7658 330.6008 29972.5610 248.7658 330.6008
ENERGY: 300000 0.5228 16.1327 7.0102 0.0000 -10491.8291 1388.7598 0.0000 0.0000 1736.9328 -7342.4708 299.2859 -9079.4036 -7379.0047 297.5884 -134.4273 -102.4202 30026.6359 -44.2216 20.6869
ENERGY: 600000 2.4524 16.3800 8.6108 0.0000 -10556.4589 1385.4917 0.0000 0.0000 1690.4253 -7453.0987 291.2723 -9143.5240 -7395.6681 297.1336 -589.6525 -534.9194 30073.9730 -95.2749 -33.6400
ENERGY: 900000 0.5824 15.5729 7.5498 0.0000 -10655.0907 1434.3967 0.0000 0.0000 1705.1303 -7491.8587 293.8061 -9196.9890 -7411.0689 297.0513 146.8281 147.1647 29363.8842 -72.7651 -19.2250
ENERGY: 1200000 2.1415 12.8026 8.6357 0.0000 -10517.2148 1346.4213 0.0000 0.0000 1722.8625 -7424.3514 296.8614 -9147.2139 -7407.9103 297.2750 -611.3093 -523.8511 29916.8868 -104.7735 -50.7632
ENERGY: 1500000 1.6804 12.1706 11.1413 0.0000 -10670.9540 1476.3208 0.0000 0.0000 1781.0692 -7388.5718 306.8909 -9169.6410 -7399.4783 298.2352 46.1082 175.7563 29989.6253 -110.0767 -52.1577
TCL: Running FEP window   6: Lambda1 0.25   Lambda2 0.3    [dLambda 0.04999999999999999]
TCL: Setting parameter firsttimestep to 0
TCL: Setting parameter alchLambda to 0.25
Info: NONBONDED TABLE R-SQUARED SPACING: 0.0625
Info: NONBONDED TABLE SIZE: 705 POINTS
TCL: Setting parameter alchLambda2 to 0.3
Info: NONBONDED TABLE R-SQUARED SPACING: 0.0625
Info: NONBONDED TABLE SIZE: 705 POINTS
TCL: Running for 1500000 steps
ETITLE: TS BOND ANGLE DIHED IMPRP ELECT VDW BOUNDARY MISC KINETIC TOTAL TEMP POTENTIAL TOTALAVG TEMPAVG PRESSURE GPRESSURE VOLUME PRESSAVG GPRESSAVG
ENERGY: 0 1.6804 12.1706 11.1413 0.0000 -10670.9535 1475.9667 0.0000 0.0000 1780.2027 -7389.7919 306.7416 -9169.9945 -7389.7919 306.7416 86.8318 174.4320 29989.6253 86.8318 174.4320
ENERGY: 300000 1.0212 14.0439 9.1714 0.0000 -10610.0375 1453.5557 0.0000 0.0000 1738.6519 -7393.5934 299.5821 -9132.2453 -7410.8011 303.3792 -80.0089 -84.4027 30579.0221 388.3030 421.6742
ENERGY: 600000 1.3703 10.3279 9.4678 0.0000 -10620.2451 1453.1432 0.0000 0.0000 1748.8932 -7397.0427 301.3467 -9145.9359 -7398.3476 303.9836 322.2828 373.5740 29608.1572 153.3553 189.9433
ENERGY: 900000 1.7178 12.3760 8.7648 0.0000 -10547.0693 1390.6183 0.0000 0.0000 1798.6194 -7334.9730 309.9149 -9133.5924 -7393.6763 302.1281 -386.3677 -269.0938 30148.3680 60.2901 118.4969
ENERGY: 1200000 1.1501 7.5120 11.3656 0.0000 -10599.1758 1366.2685 0.0000 0.0000 1762.5890 -7450.2906 303.7066 -9212.8796 -7399.1175 302.2474 -334.1206 -323.3146 29480.0847 44.1136 103.2399
ENERGY: 1500000 0.1148 13.8351 8.1448 0.0000 -10591.3764 1467.1684 0.0000 0.0000 1711.2539 -7390.8596 294.8612 -9102.1134 -7399.7872 301.6165 324.6632 343.0984 30191.1325 5.8407 64.3048
TCL: Running FEP window   7: Lambda1 0.3    Lambda2 0.35   [dLambda 0.04999999999999999]
TCL: Setting parameter firsttimestep to 0
TCL: Setting parameter alchLambda to 0.3
Info: NONBONDED TABLE R-SQUARED SPACING: 0.0625
Info: NONBONDED TABLE SIZE: 705 POINTS
TCL: Setting parameter alchLambda2 to 0.35
Info: NONBONDED TABLE R-SQUARED SPACING: 0.0625
Info: NONBONDED TABLE SIZE: 705 POINTS
TCL: Running for 1500000 steps
ETITLE: TS BOND ANGLE DIHED IMPRP ELECT VDW BOUNDARY MISC KINETIC TOTAL TEMP POTENTIAL TOTALAVG TEMPAVG PRESSURE GPRESSURE VOLUME PRESSAVG GPRESSAVG
ENERGY: 0 0.1148 13.8351 8.1448 0.0000 -10591.3767 1467.4353 0.0000 0.0000 1710.4003 -7391.4465 294.7141 -9101.8468 -7391.4465 294.7141 272.8170 351.4951 30191.1325 272.8170 351.4951
ENERGY: 300000 1.6882 14.5493 7.3800 0.0000 -10622.9743 1413.5867 0.0000 0.0000 1729.0349 -7456.7351 297.9250 -9185.7700 -7398.8650 296.0280 -298.4739 -187.2305 29631.8784 -245.7339 -158.6740
ENERGY: 600000 1.2717 12.8004 9.1503 0.0000 -10548.9348 1410.3620 0.0000 0.0000 1791.9563 -7323.3941 308.7668 -9115.3504 -7381.8760 299.3659 -116.7747 -38.2140 30080.7346 -165.8667 -84.1017
ENERGY: 900000 1.4674 13.9037 11.5552 0.0000 -10514.6320 1393.4542 0.0000 0.0000 1723.9647 -7370.2867 297.0514 -9094.2514 -7383.1974 297.9900 6.9506 81.0085 29943.2363 -217.2622 -136.9907
ENERGY: 1200000 1.1248 17.4238 7.4052 0.0000 -10328.1726 1296.2907 0.0000 0.0000 1715.7720 -7290.1562 295.6397 -9005.9282 -7381.9468 297.5967 -744.0636 -667.6920 30167.8313 -190.7155 -111.8527
ENERGY: 1500000 3.9439 14.1319 11.3360 0.0000 -10417.9569 1335.1276 0.0000 0.0000 1724.6852 -7328.7323 297.1755 -9053.4174 -7381.8302 297.3666 -467.9682 -412.1886 29760.5438 -205.1326 -128.1989
TCL: Running FEP window   8: Lambda1 0.35   Lambda2 0.39999999999999997 [dLambda 0.04999999999999999]
TCL: Setting parameter firsttimestep to 0
TCL: Setting parameter alchLambda to 0.35
Info: NONBONDED TABLE R-SQUARED SPACING: 0.0625
Info: NONBONDED TABLE SIZE: 705 POINTS
TCL: Setting parameter alchLambda2 to 0.39999999999999997
Info: NONBONDED TABLE R-SQUARED SPACING: 0.0625
Info: NONBONDED TABLE SIZE: 705 POINTS
TCL: Running for 1500000 steps
ETITLE: TS BOND ANGLE DIHED IMPRP ELECT VDW BOUNDARY MISC KINETIC TOTAL TEMP POTENTIAL TOTALAVG TEMPAVG PRESSURE GPRESSURE VOLUME PRESSAVG GPRESSAVG
ENERGY: 0 3.9439 14.1319 11.3360 0.0000 -10417.9569 1335.8017 0.0000 0.0000 1723.8342 -7328.9091 297.0289 -9052.7433 -7328.9091 297.0289 -473.1761 -401.5391 29760.5438 -473.1761 -401.5391
ENERGY: 300000 0.7816 9.5418 10.4940 0.0000 -10522.5843 1404.0434 0.0000 0.0000 1769.5518 -7328.1717 304.9063 -9097.7236 -7377.1355 300.6584 64.0163 135.6425 29738.9731 -44.4872 26.6552
ENERGY: 600000 3.5215 11.2804 8.6821 0.0000 -10658.0172 1458.0713 0.0000 0.0000 1728.3134 -7448.1485 297.8007 -9176.4619 -7398.8500 300.5141 86.9535 187.0400 29755.4423 19.2386 94.1225
ENERGY: 900000 0.7776 16.0613 8.5944 0.0000 -10632.6137 1462.1495 0.0000 0.0000 1766.4977 -7378.5332 304.3801 -9145.0309 -7394.7353 301.3114 335.9188 328.9049 29770.3718 102.7866 171.8630
ENERGY: 1200000 1.2594 12.4101 8.1815 0.0000 -10587.8998 1369.8639 0.0000 0.0000 1763.9847 -7432.2002 303.9471 -9196.1849 -7404.3556 300.3175 -688.2391 -647.5401 30130.2239 56.1537 112.4949
ENERGY: 1500000 0.8871 16.1979 7.5350 0.0000 -10661.6340 1449.8622 0.0000 0.0000 1713.5214 -7473.6304 295.2519 -9187.1518 -7409.4624 300.3806 202.0495 265.2230 29833.9808 58.6673 119.1275
TCL: Running FEP window   9: Lambda1 0.39999999999999997 Lambda2 0.44999999999999996 [dLambda 0.04999999999999999]
TCL: Setting parameter firsttimestep to 0
TCL: Setting parameter alchLambda to 0.39999999999999997
Info: NONBONDED TABLE R-SQUARED SPACING: 0.0625
Info: NONBONDED TABLE SIZE: 705 POINTS
TCL: Setting parameter alchLambda2 to 0.44999999999999996
Info: NONBONDED TABLE R-SQUARED SPACING: 0.0625
Info: NONBONDED TABLE SIZE: 705 POINTS
TCL: Running for 1500000 steps
ETITLE: TS BOND ANGLE DIHED IMPRP ELECT VDW BOUNDARY MISC KINETIC TOTAL TEMP POTENTIAL TOTALAVG TEMPAVG PRESSURE GPRESSURE VOLUME PRESSAVG GPRESSAVG
ENERGY: 0 0.8871 16.1979 7.5350 0.0000 -10661.6332 1449.4470 0.0000 0.0000 1712.6373 -7474.9289 295.0996 -9187.5662 -7474.9289 295.0996 198.8083 266.2611 29833.9808 198.8083 266.2611
ENERGY: 300000 0.8643 14.2291 6.8880 0.0000 -10445.3512 1358.5380 0.0000 0.0000 1774.3456 -7290.4861 305.7324 -9064.8318 -7368.2616 302.6803 -320.5021 -282.2042 30123.5852 -286.0721 -228.8600
ENERGY: 600000 1.1132 10.9627 9.4297 0.0000 -10461.2077 1381.4366 0.0000 0.0000 1783.7172 -7274.5483 307.3471 -9058.2655 -7350.0580 302.3594 -246.1962 -251.0957 30350.7952 -467.2540 -426.3180
ENERGY: 900000 2.1345 12.6456 8.8699 0.0000 -10578.5795 1437.7964 0.0000 0.0000 1755.2777 -7361.8554 302.4468 -9117.1330 -7355.8762 301.7191 108.0002 134.4892 30010.5947 -414.2081 -364.5636
ENERGY: 1200000 0.6464 11.8329 8.8279 0.0000 -10605.8304 1470.0408 0.0000 0.0000 1724.6326 -7389.8496 297.1664 -9114.4822 -7352.7781 302.4675 477.0260 503.5492 29890.9283 -146.1553 -100.3409
ENERGY: 1500000 1.0772 12.0985 8.5301 0.0000 -10682.7713 1480.7170 0.0000 0.0000 1730.8535 -7449.4950 298.2384 -9180.3485 -7366.3806 301.5660 388.0791 466.5485 29627.0916 -90.2127 -45.1732
TCL: Running FEP window  10: Lambda1 0.44999999999999996 Lambda2 0.49999999999999994 [dLambda 0.04999999999999999]
TCL: Setting parameter firsttimestep to 0
TCL: Setting parameter alchLambda to 0.44999999999999996
Info: NONBONDED TABLE R-SQUARED SPACING: 0.0625
Info: NONBONDED TABLE SIZE: 705 POINTS
TCL: Setting parameter alchLambda2 to 0.49999999999999994
Info: NONBONDED TABLE R-SQUARED SPACING: 0.0625
Info: NONBONDED TABLE SIZE: 705 POINTS
TCL: Running for 1500000 steps
ETITLE: TS BOND ANGLE DIHED IMPRP ELECT VDW BOUNDARY MISC KINETIC TOTAL TEMP POTENTIAL TOTALAVG TEMPAVG PRESSURE GPRESSURE VOLUME PRESSAVG GPRESSAVG
ENERGY: 0 1.0772 12.0985 8.5301 0.0000 -10682.7689 1480.7192 0.0000 0.0000 1729.9787 -7450.3653 298.0876 -9180.3439 -7450.3653 298.0876 384.1370 470.4738 29627.0916 384.1370 470.4738
ENERGY: 300000 0.7000 13.8279 8.9185 0.0000 -10478.4062 1337.8625 0.0000 0.0000 1763.4157 -7353.6816 303.8490 -9117.0973 -7420.3174 300.6640 -355.8740 -355.0125 29672.2923 131.0590 204.3177
ENERGY: 600000 0.7954 14.3494 8.5663 0.0000 -10663.9611 1504.5940 0.0000 0.0000 1742.5035 -7393.1525 300.2457 -9135.6560 -7396.8104 302.2276 713.0440 795.9491 29569.4492 307.5861 379.7685
ENERGY: 900000 2.1410 8.6157 11.7138 0.0000 -10606.9753 1400.9530 0.0000 0.0000 1713.2222 -7470.3297 295.2003 -9183.5518 -7400.4105 301.8842 -446.7050 -359.6515 29923.0806 190.3815 266.9150
ENERGY: 1200000 0.3481 10.9595 7.8937 0.0000 -10559.6522 1398.2076 0.0000 0.0000 1757.4184 -7384.8249 302.8157 -9142.2433 -7391.2825 301.1282 -92.8077 -66.1315 29854.2853 142.1130 207.4108
ENERGY: 1500000 2.0428 11.7784 9.5938 0.0000 -10405.1910 1322.0235 0.0000 0.0000 1792.8025 -7266.9499 308.9126 -9059.7524 -7388.1465 301.2337 -762.4565 -764.8631 30251.0033 20.5938 82.7169
TCL: Running FEP window  11: Lambda1 0.49999999999999994 Lambda2 0.5499999999999999 [dLambda 0.04999999999999999]
TCL: Setting parameter firsttimestep to 0
TCL: Setting parameter alchLambda to 0.49999999999999994
Info: NONBONDED TABLE R-SQUARED SPACING: 0.0625
Info: NONBONDED TABLE SIZE: 705 POINTS
TCL: Setting parameter alchLambda2 to 0.5499999999999999
Info: NONBONDED TABLE R-SQUARED SPACING: 0.0625
Info: NONBONDED TABLE SIZE: 705 POINTS
TCL: Running for 1500000 steps
ETITLE: TS BOND ANGLE DIHED IMPRP ELECT VDW BOUNDARY MISC KINETIC TOTAL TEMP POTENTIAL TOTALAVG TEMPAVG PRESSURE GPRESSURE VOLUME PRESSAVG GPRESSAVG
ENERGY: 0 2.0428 11.7784 9.5938 0.0000 -10405.1905 1321.9095 0.0000 0.0000 1791.9440 -7267.9220 308.7647 -9059.8659 -7267.9220 308.7647 -855.1069 -760.7162 30251.0033 -855.1069 -760.7162
ENERGY: 300000 2.0177 11.5173 11.1065 0.0000 -10451.1462 1329.6368 0.0000 0.0000 1741.7528 -7355.1151 300.1164 -9096.8679 -7379.8975 301.3753 -846.7262 -814.6573 30415.5301 -453.6637 -377.6148
ENERGY: 600000 3.6646 8.8573 11.0019 0.0000 -10539.7110 1426.9206 0.0000 0.0000 1773.0835 -7316.1831 305.5149 -9089.2665 -7379.7195 299.8995 93.9494 191.2038 29992.8812 -147.3563 -87.8285
ENERGY: 900000 0.6696 14.8134 8.1657 0.0000 -10722.9612 1531.4727 0.0000 0.0000 1743.6361 -7424.2038 300.4409 -9167.8399 -7385.7819 299.1186 1043.7866 1063.1044 29581.2338 113.8793 158.5955
ENERGY: 1200000 0.6890 13.1342 9.5092 0.0000 -10478.1633 1344.4070 0.0000 0.0000 1790.0372 -7320.3868 308.4361 -9110.4239 -7374.0396 301.1455 -478.5428 -389.2362 29637.2527 99.6411 155.0530
ENERGY: 1500000 2.4178 11.2877 9.0883 0.0000 -10625.2763 1469.6921 0.0000 0.0000 1717.3839 -7415.4064 295.9174 -9132.7903 -7373.4400 301.5157 343.9268 378.2922 29801.3104 70.5687 129.3125
TCL: Running FEP window  12: Lambda1 0.5499999999999999 Lambda2 0.6    [dLambda 0.050000000000000044]
TCL: Setting parameter firsttimestep to 0
TCL: Setting parameter alchLambda to 0.5499999999999999
Info: NONBONDED TABLE R-SQUARED SPACING: 0.0625
Info: NONBONDED TABLE SIZE: 705 POINTS
TCL: Setting parameter alchLambda2 to 0.6
Info: NONBONDED TABLE R-SQUARED SPACING: 0.0625
Info: NONBONDED TABLE SIZE: 705 POINTS
TCL: Running for 1500000 steps
ETITLE: TS BOND ANGLE DIHED IMPRP ELECT VDW BOUNDARY MISC KINETIC TOTAL TEMP POTENTIAL TOTALAVG TEMPAVG PRESSURE GPRESSURE VOLUME PRESSAVG GPRESSAVG
ENERGY: 0 2.4178 11.2877 9.0883 0.0000 -10625.1397 1470.7945 0.0000 0.0000 1716.5098 -7415.0416 295.7668 -9131.5513 -7415.0416 295.7668 305.5177 393.7335 29801.3104 305.5177 393.7335
ENERGY: 300000 1.6634 12.5519 8.3191 0.0000 -10509.8271 1387.1053 0.0000 0.0000 1706.0313 -7394.1562 293.9613 -9100.1875 -7403.7127 300.1890 -302.8305 -269.5105 30200.7172 -319.9778 -265.5443
ENERGY: 600000 1.9944 13.0277 8.3227 0.0000 -10452.8448 1382.8593 0.0000 0.0000 1733.1670 -7313.4737 298.6370 -9046.6407 -7376.9738 298.8522 -187.0573 -229.7143 30629.5903 -289.1984 -255.6678
ENERGY: 900000 0.8469 14.6612 8.9068 0.0000 -10481.2908 1385.2300 0.0000 0.0000 1809.9452 -7261.7006 311.8664 -9071.6458 -7378.6805 299.9969 23.3892 50.3969 29856.7232 -166.6721 -123.6376
ENERGY: 1200000 1.1125 8.8809 13.4540 0.0000 -10565.6083 1399.7302 0.0000 0.0000 1714.9737 -7427.4569 295.5022 -9142.4307 -7385.8160 298.8189 -83.8094 -62.6162 29624.1180 -156.6020 -106.8629
ENERGY: 1500000 2.7426 11.6577 9.8737 0.0000 -10403.9393 1261.7003 0.0000 0.0000 1738.6143 -7379.3506 299.5756 -9117.9649 -7394.5097 299.3714 -1296.9901 -1295.1691 30479.2799 -233.6823 -184.6315
TCL: Running FEP window  13: Lambda1 0.6    Lambda2 0.65   [dLambda 0.050000000000000044]
TCL: Setting parameter firsttimestep to 0
TCL: Setting parameter alchLambda to 0.6
Info: NONBONDED TABLE R-SQUARED SPACING: 0.0625
Info: NONBONDED TABLE SIZE: 705 POINTS
TCL: Setting parameter alchLambda2 to 0.65
Info: NONBONDED TABLE R-SQUARED SPACING: 0.0625
Info: NONBONDED TABLE SIZE: 705 POINTS
TCL: Running for 1500000 steps
ETITLE: TS BOND ANGLE DIHED IMPRP ELECT VDW BOUNDARY MISC KINETIC TOTAL TEMP POTENTIAL TOTALAVG TEMPAVG PRESSURE GPRESSURE VOLUME PRESSAVG GPRESSAVG
ENERGY: 0 2.7426 11.6577 9.8737 0.0000 -10403.7033 1261.6690 0.0000 0.0000 1737.7653 -7379.9949 299.4293 -9117.7602 -7379.9949 299.4293 -1368.2088 -1289.4280 30479.2799 -1368.2088 -1289.4280
ENERGY: 300000 1.1940 12.2971 7.9575 0.0000 -10728.3792 1542.1759 0.0000 0.0000 1673.7066 -7491.0481 288.3915 -9164.7546 -7421.5521 297.8862 754.0814 835.4531 29882.6010 -358.3103 -306.2382
ENERGY: 600000 0.4666 12.4256 8.5870 0.0000 -10584.6384 1406.5209 0.0000 0.0000 1766.2371 -7390.4012 304.3352 -9156.6384 -7406.1637 299.7937 -99.6620 -107.6773 29763.3771 -146.6094 -106.5775
ENERGY: 900000 1.1259 8.7316 10.1599 0.0000 -10546.2282 1340.6679 0.0000 0.0000 1777.0666 -7408.4763 306.2012 -9185.5430 -7406.1477 300.6368 -838.6579 -795.5666 29876.6747 -166.4496 -123.2256
ENERGY: 1200000 0.5459 13.6177 8.9326 0.0000 -10411.1021 1404.0508 0.0000 0.0000 1797.1777 -7186.7773 309.6665 -8983.9551 -7387.7139 301.1206 34.3658 80.4901 30739.9062 -176.9508 -136.0110
ENERGY: 1500000 1.5820 12.5937 7.4997 0.0000 -10556.9634 1466.6858 0.0000 0.0000 1761.3417 -7307.2604 303.4917 -9068.6022 -7375.2283 300.4336 717.0992 786.7847 29854.7249 -102.5423 -55.3400
TCL: Running FEP window  14: Lambda1 0.65   Lambda2 0.7000000000000001 [dLambda 0.050000000000000044]
TCL: Setting parameter firsttimestep to 0
TCL: Setting parameter alchLambda to 0.65
Info: NONBONDED TABLE R-SQUARED SPACING: 0.0625
Info: NONBONDED TABLE SIZE: 705 POINTS
TCL: Setting parameter alchLambda2 to 0.7000000000000001
Info: NONBONDED TABLE R-SQUARED SPACING: 0.0625
Info: NONBONDED TABLE SIZE: 705 POINTS
TCL: Running for 1500000 steps
ETITLE: TS BOND ANGLE DIHED IMPRP ELECT VDW BOUNDARY MISC KINETIC TOTAL TEMP POTENTIAL TOTALAVG TEMPAVG PRESSURE GPRESSURE VOLUME PRESSAVG GPRESSAVG
ENERGY: 0 1.5820 12.5937 7.4997 0.0000 -10558.0158 1467.0458 0.0000 0.0000 1760.5240 -7308.7706 303.3508 -9069.2946 -7308.7706 303.3508 713.1023 796.5361 29854.7249 713.1023 796.5361
ENERGY: 300000 0.1038 11.9371 10.6801 0.0000 -10730.7134 1499.9462 0.0000 0.0000 1729.2336 -7478.8126 297.9592 -9208.0462 -7386.6686 299.5065 259.9279 342.2202 29884.8650 506.1475 599.4823
ENERGY: 600000 1.6220 10.0448 12.0565 0.0000 -10554.8586 1421.2848 0.0000 0.0000 1769.1471 -7340.7035 304.8366 -9109.8505 -7376.1007 300.6894 343.9162 356.1175 29826.3193 289.1463 356.6748
ENERGY: 900000 1.4802 13.9008 8.9657 0.0000 -10567.0516 1405.6636 0.0000 0.0000 1718.0570 -7418.9842 296.0334 -9137.0413 -7397.8244 298.8917 -327.0758 -211.0033 29924.3158 201.8968 280.2337
ENERGY: 1200000 1.3533 12.7653 10.3647 0.0000 -10566.2919 1461.6426 0.0000 0.0000 1651.6001 -7428.5659 284.5824 -9080.1660 -7389.6217 299.5495 146.2904 278.8666 30218.4453 54.6342 134.9897
ENERGY: 1500000 0.5803 9.8067 9.5119 0.0000 -10504.1723 1395.4627 0.0000 0.0000 1801.5354 -7287.2752 310.4173 -9088.8106 -7387.4259 300.5263 271.1676 315.7783 29546.6377 66.4505 141.4034
TCL: Running FEP window  15: Lambda1 0.7000000000000001 Lambda2 0.7500000000000001 [dLambda 0.050000000000000044]
TCL: Setting parameter firsttimestep to 0
TCL: Setting parameter alchLambda to 0.7000000000000001
Info: NONBONDED TABLE R-SQUARED SPACING: 0.0625
Info: NONBONDED TABLE SIZE: 705 POINTS
TCL: Setting parameter alchLambda2 to 0.7500000000000001
Info: NONBONDED TABLE R-SQUARED SPACING: 0.0625
Info: NONBONDED TABLE SIZE: 705 POINTS
TCL: Running for 1500000 steps
ETITLE: TS BOND ANGLE DIHED IMPRP ELECT VDW BOUNDARY MISC KINETIC TOTAL TEMP POTENTIAL TOTALAVG TEMPAVG PRESSURE GPRESSURE VOLUME PRESSAVG GPRESSAVG
ENERGY: 0 0.5803 9.8067 9.5119 0.0000 -10505.0233 1395.9774 0.0000 0.0000 1800.6611 -7288.4858 310.2667 -9089.1469 -7288.4858 310.2667 241.3155 327.9355 29546.6377 241.3155 327.9355
ENERGY: 300000 1.1721 8.4406 11.5343 0.0000 -10449.1175 1288.7371 0.0000 0.0000 1743.8585 -7395.3750 300.4792 -9139.2334 -7366.7740 301.3790 -1026.1773 -1007.5289 30112.8824 -395.0782 -349.7028
ENERGY: 600000 5.3857 11.8604 8.9048 0.0000 -10384.1712 1293.3039 0.0000 0.0000 1757.6835 -7307.0328 302.8614 -9064.7163 -7361.3163 303.6851 -835.3568 -781.6359 30299.4579 -538.5036 -489.8881
ENERGY: 900000 1.9406 11.3789 8.7625 0.0000 -10609.3818 1430.6758 0.0000 0.0000 1755.8857 -7400.7384 302.5516 -9156.6240 -7374.5983 302.9747 16.2503 68.1345 30064.8361 -500.2787 -433.5449
ENERGY: 1200000 2.5804 10.8476 9.8306 0.0000 -10747.1091 1559.7276 0.0000 0.0000 1668.0421 -7496.0807 287.4155 -9164.1229 -7384.8527 301.1787 1103.2047 1166.5931 29783.4499 -349.3588 -286.6221
ENERGY: 1500000 0.4935 13.1810 7.4228 0.0000 -10462.7899 1355.8878 0.0000 0.0000 1756.3271 -7329.4777 302.6276 -9085.8048 -7380.5779 301.0211 -451.4706 -453.0756 30384.5200 -373.3860 -314.4242
TCL: Running FEP window  16: Lambda1 0.7500000000000001 Lambda2 0.8000000000000002 [dLambda 0.050000000000000044]
TCL: Setting parameter firsttimestep to 0
TCL: Setting parameter alchLambda to 0.7500000000000001
Info: NONBONDED TABLE R-SQUARED SPACING: 0.0625
Info: NONBONDED TABLE SIZE: 705 POINTS
TCL: Setting parameter alchLambda2 to 0.8000000000000002
Info: NONBONDED TABLE R-SQUARED SPACING: 0.0625
Info: NONBONDED TABLE SIZE: 705 POINTS
TCL: Running for 1500000 steps
ETITLE: TS BOND ANGLE DIHED IMPRP ELECT VDW BOUNDARY MISC KINETIC TOTAL TEMP POTENTIAL TOTALAVG TEMPAVG PRESSURE GPRESSURE VOLUME PRESSAVG GPRESSAVG
ENERGY: 0 0.4935 13.1810 7.4228 0.0000 -10462.8843 1355.5802 0.0000 0.0000 1755.4641 -7330.7427 302.4789 -9086.2068 -7330.7427 302.4789 -521.5427 -448.3439 30384.5200 -521.5427 -448.3439
ENERGY: 300000 0.2416 11.2682 8.3863 0.0000 -10586.6148 1438.4298 0.0000 0.0000 1756.2685 -7372.0205 302.6175 -9128.2890 -7403.3836 297.8393 470.6196 488.5995 29588.2931 384.1286 451.8323
ENERGY: 600000 1.0576 11.2203 9.2363 0.0000 -10563.4370 1392.1448 0.0000 0.0000 1729.4383 -7420.3398 297.9945 -9149.7781 -7407.2306 296.4694 -107.4142 -70.9627 29806.2644 98.8510 154.1307
ENERGY: 900000 0.3457 12.8739 10.0078 0.0000 -10547.8726 1449.6720 0.0000 0.0000 1717.6228 -7357.3504 295.9586 -9074.9732 -7401.0404 298.5155 362.4186 451.6465 29972.3483 179.6786 238.5089
ENERGY: 1200000 0.9045 15.9219 7.4539 0.0000 -10662.1157 1412.7946 0.0000 0.0000 1735.4998 -7489.5408 299.0389 -9225.0407 -7397.8667 298.8188 -42.1567 20.3865 29592.9626 79.0574 140.0643
ENERGY: 1500000 3.8061 10.0818 9.6573 0.0000 -10565.6692 1490.7553 0.0000 0.0000 1700.4899 -7350.8787 293.0065 -9051.3686 -7393.7132 298.9081 642.6621 654.6434 30068.9842 86.8099 144.6474
TCL: Running FEP window  17: Lambda1 0.8000000000000002 Lambda2 0.8500000000000002 [dLambda 0.050000000000000044]
TCL: Setting parameter firsttimestep to 0
TCL: Setting parameter alchLambda to 0.8000000000000002
Info: NONBONDED TABLE R-SQUARED SPACING: 0.0625
Info: NONBONDED TABLE SIZE: 705 POINTS
TCL: Setting parameter alchLambda2 to 0.8500000000000002
Info: NONBONDED TABLE R-SQUARED SPACING: 0.0625
Info: NONBONDED TABLE SIZE: 705 POINTS
TCL: Running for 1500000 steps
ETITLE: TS BOND ANGLE DIHED IMPRP ELECT VDW BOUNDARY MISC KINETIC TOTAL TEMP POTENTIAL TOTALAVG TEMPAVG PRESSURE GPRESSURE VOLUME PRESSAVG GPRESSAVG
ENERGY: 0 3.8061 10.0818 9.6573 0.0000 -10565.6532 1491.0020 0.0000 0.0000 1699.6311 -7351.4748 292.8585 -9051.1059 -7351.4748 292.8585 587.8618 667.6811 30068.9842 587.8618 667.6811
ENERGY: 300000 1.0831 16.5138 6.9833 0.0000 -10482.4616 1370.1915 0.0000 0.0000 1844.8249 -7242.8651 317.8764 -9087.6900 -7358.0593 301.7868 247.2559 240.0810 29775.5030 -42.9761 1.1657
ENERGY: 600000 2.4274 16.3600 10.3505 0.0000 -10673.1075 1449.8273 0.0000 0.0000 1723.9048 -7470.2375 297.0410 -9194.1423 -7393.7569 299.9405 -20.8550 0.2414 29778.5187 66.9913 117.2893
ENERGY: 900000 3.2853 13.7671 6.9173 0.0000 -10608.3703 1432.0910 0.0000 0.0000 1765.3321 -7386.9775 304.1793 -9152.3097 -7393.1961 300.7910 8.7329 113.0027 30165.7357 94.5382 141.0459
ENERGY: 1200000 1.0677 18.0639 8.1941 0.0000 -10531.2390 1378.2891 0.0000 0.0000 1773.8445 -7351.7797 305.6460 -9125.6242 -7392.8121 300.8201 -250.2760 -198.2163 29818.8894 46.3487 97.7669
ENERGY: 1500000 0.8822 11.6751 9.0209 0.0000 -10740.8063 1570.0300 0.0000 0.0000 1765.4043 -7383.7939 304.1917 -9149.1981 -7398.7460 300.2580 1149.3938 1157.6481 29817.0961 185.7988 235.5815
TCL: Running FEP window  18: Lambda1 0.8500000000000002 Lambda2 0.9000000000000002 [dLambda 0.050000000000000044]
TCL: Setting parameter firsttimestep to 0
TCL: Setting parameter alchLambda to 0.8500000000000002
Info: NONBONDED TABLE R-SQUARED SPACING: 0.0625
Info: NONBONDED TABLE SIZE: 705 POINTS
TCL: Setting parameter alchLambda2 to 0.9000000000000002
Info: NONBONDED TABLE R-SQUARED SPACING: 0.0625
Info: NONBONDED TABLE SIZE: 705 POINTS
TCL: Running for 1500000 steps
ETITLE: TS BOND ANGLE DIHED IMPRP ELECT VDW BOUNDARY MISC KINETIC TOTAL TEMP POTENTIAL TOTALAVG TEMPAVG PRESSURE GPRESSURE VOLUME PRESSAVG GPRESSAVG
ENERGY: 0 0.8822 11.6751 9.0209 0.0000 -10741.6214 1570.3673 0.0000 0.0000 1764.5289 -7385.1470 304.0409 -9149.6759 -7385.1470 304.0409 1098.8513 1168.5153 29817.0961 1098.8513 1168.5153
ENERGY: 300000 1.4155 8.5414 10.2220 0.0000 -10592.3508 1500.7960 0.0000 0.0000 1790.0388 -7281.3370 308.4364 -9071.3758 -7371.4169 303.2317 859.7431 887.7723 30063.7328 369.4117 423.3235
ENERGY: 600000 0.7101 13.3069 8.6260 0.0000 -10526.6960 1353.1842 0.0000 0.0000 1770.8516 -7380.0171 305.1303 -9150.8687 -7373.7341 303.4496 -463.9564 -408.4654 30106.2669 189.6848 240.0330
ENERGY: 900000 2.4696 11.1157 9.1320 0.0000 -10565.8140 1425.9401 0.0000 0.0000 1789.4777 -7327.6790 308.3397 -9117.1567 -7374.9176 302.9911 33.9768 31.7681 30018.0092 149.1494 192.5474
ENERGY: 1200000 1.7322 11.7574 8.5096 0.0000 -10617.2293 1434.1428 0.0000 0.0000 1758.0344 -7403.0528 302.9218 -9161.0872 -7383.4138 302.2838 74.5329 122.0494 29991.0266 217.7991 270.5057
ENERGY: 1500000 3.0449 10.4736 12.0053 0.0000 -10621.0195 1444.5754 0.0000 0.0000 1755.4028 -7395.5175 302.4684 -9150.9203 -7379.1506 302.9086 123.2143 147.7958 30121.1556 169.8571 218.2836
TCL: Running FEP window  19: Lambda1 0.9000000000000002 Lambda2 0.9500000000000003 [dLambda 0.050000000000000044]
TCL: Setting parameter firsttimestep to 0
TCL: Setting parameter alchLambda to 0.9000000000000002
Info: NONBONDED TABLE R-SQUARED SPACING: 0.0625
Info: NONBONDED TABLE SIZE: 705 POINTS
TCL: Setting parameter alchLambda2 to 0.9500000000000003
Info: NONBONDED TABLE R-SQUARED SPACING: 0.0625
Info: NONBONDED TABLE SIZE: 705 POINTS
TCL: Running for 1500000 steps
ETITLE: TS BOND ANGLE DIHED IMPRP ELECT VDW BOUNDARY MISC KINETIC TOTAL TEMP POTENTIAL TOTALAVG TEMPAVG PRESSURE GPRESSURE VOLUME PRESSAVG GPRESSAVG
ENERGY: 0 3.0449 10.4735 12.0053 0.0000 -10622.1688 1444.8895 0.0000 0.0000 1754.5469 -7397.2086 302.3209 -9151.7555 -7397.2086 302.3209 68.8216 155.6284 30121.1556 68.8216 155.6284
ENERGY: 300000 2.6583 13.1108 9.3916 0.0000 -10641.1385 1480.6278 0.0000 0.0000 1728.9076 -7406.4424 297.9031 -9135.3500 -7381.2935 301.0376 430.5836 510.0545 30011.0691 -84.4880 -19.3345
ENERGY: 600000 1.4587 13.9424 7.8814 0.0000 -10582.9823 1400.9964 0.0000 0.0000 1694.1616 -7464.5418 291.9161 -9158.7034 -7400.9022 299.8437 -244.2319 -174.5628 30243.0717 -147.0015 -81.1226
ENERGY: 900000 3.9549 16.8572 6.4137 0.0000 -10570.5907 1389.5331 0.0000 0.0000 1776.4931 -7377.3386 306.1024 -9153.8318 -7389.9188 301.0892 -291.6359 -264.6731 30005.8904 -209.3507 -152.8782
ENERGY: 1200000 1.0137 12.5731 9.6883 0.0000 -10639.3344 1541.5649 0.0000 0.0000 1725.0108 -7349.4835 297.2316 -9074.4943 -7389.4219 300.1969 1168.5700 1154.1555 30021.3370 -56.7153 -0.4041
ENERGY: 1500000 1.3691 10.2718 9.2613 0.0000 -10636.4170 1449.5080 0.0000 0.0000 1729.9767 -7436.0301 298.0873 -9166.0068 -7384.9521 300.5319 359.2750 404.1523 29529.5959 -70.8168 -13.9801
TCL: Running FEP window  20: Lambda1 0.9500000000000003 Lambda2 1.0    [dLambda 0.04999999999999971]
TCL: Setting parameter firsttimestep to 0
TCL: Setting parameter alchLambda to 0.9500000000000003
Info: NONBONDED TABLE R-SQUARED SPACING: 0.0625
Info: NONBONDED TABLE SIZE: 705 POINTS
TCL: Setting parameter alchLambda2 to 1.0
Info: NONBONDED TABLE R-SQUARED SPACING: 0.0625
Info: NONBONDED TABLE SIZE: 705 POINTS
TCL: Running for 1500000 steps
ETITLE: TS BOND ANGLE DIHED IMPRP ELECT VDW BOUNDARY MISC KINETIC TOTAL TEMP POTENTIAL TOTALAVG TEMPAVG PRESSURE GPRESSURE VOLUME PRESSAVG GPRESSAVG
ENERGY: 0 1.3691 10.2718 9.2613 0.0000 -10637.1991 1450.2965 0.0000 0.0000 1729.0913 -7436.9091 297.9347 -9166.0005 -7436.9091 297.9347 325.5042 425.1918 29529.5959 325.5042 425.1918
ENERGY: 300000 0.4201 11.3332 10.1197 0.0000 -10717.6872 1551.1744 0.0000 0.0000 1763.5275 -7381.1123 303.8683 -9144.6397 -7421.5348 299.7891 1130.3675 1211.6168 29644.8182 456.0605 527.3253
ENERGY: 600000 1.6951 8.8579 13.3995 0.0000 -10618.7424 1458.3708 0.0000 0.0000 1822.6428 -7313.7763 314.0543 -9136.4191 -7402.3012 304.2392 226.7887 304.5619 30054.5395 301.4234 363.5799
ENERGY: 900000 1.3262 17.6791 9.5558 0.0000 -10594.4301 1376.2517 0.0000 0.0000 1742.2581 -7447.3593 300.2034 -9189.6173 -7401.3126 303.0281 -532.0227 -516.7237 29931.7496 129.2133 191.4074
ENERGY: 1200000 1.2283 11.7749 8.7158 0.0000 -10681.7801 1412.7704 0.0000 0.0000 1705.9282 -7541.3625 293.9435 -9247.2907 -7418.8693 300.9647 -497.8855 -347.1131 29810.4371 19.6653 90.6480
ENERGY: 1500000 2.1452 8.4233 13.1559 0.0000 -10605.3830 1415.3003 0.0000 0.0000 1763.4369 -7402.9213 303.8527 -9166.3583 -7401.7801 301.4878 -191.2250 -97.1020 29987.8948 -25.4513 40.5251
TCL: Exiting due to exit command.
