Info: SIMULATION PARAMETERS:
Info: TIMESTEP               2
Info: NUMBER OF STEPS        0
Info: STEPS PER CYCLE        10
Info: PERIODIC CELL BASIS 1  39.456 0 0
Info: PERIODIC CELL BASIS 2  0 41.432 0
Info: PERIODIC CELL BASIS 3  0 0 39.797
Info: PERIODIC CELL CENTER   0 0 0
Info: WRAPPING WATERS AROUND PERIODIC BOUNDARIES ON OUTPUT.
Info: WRAPPING ALL CLUSTERS AROUND PERIODIC BOUNDARIES ON OUTPUT.
Info: FIRST LDB TIMESTEP     50
Info: LAST LDB TIMESTEP     -1
Info: HOM BACKGROUND SCALING 1
Info: PME BACKGROUND SCALING 1
Info: MIN ATOMS PER PATCH    40
Info: EMPTY PATCH LOAD       40 ATOMS
Info: INITIAL TEMPERATURE    300
Info: CENTER OF MASS MOVING INITIALLY? NO
Info: DIELECTRIC             1
Info: EXCLUDE                SCALED ONE-FOUR
Info: 1-4 ELECTROSTATICS SCALED BY 0.833333
Info: MODIFIED 1-4 VDW PARAMETERS WILL BE USED
Info: DCD FILENAME           mobley_5056289_min.dcd
Info: DCD FREQUENCY          5000
Info: DCD FIRST STEP         5000
Info: DCD FILE WILL CONTAIN UNIT CELL DATA
Info: XST FILENAME           mobley_5056289_min.xst
Info: XST FREQUENCY          5000
Info: NO VELOCITY DCD OUTPUT
Info: NO FORCE DCD OUTPUT
Info: OUTPUT FILENAME        mobley_5056289_min
Info: BINARY OUTPUT FILES WILL BE USED
Info: RESTART FILENAME       mobley_5056289_min.restart
Info: RESTART FREQUENCY      5000
Info: BINARY RESTART FILES WILL BE USED
Info: CUTOFF                 9
Info: PAIRLIST DISTANCE      11
Info: PAIRLIST SHRINK RATE   0.01
Info: PAIRLIST GROW RATE     0.01
Info: PAIRLIST TRIGGER       0.3
Info: PAIRLISTS PER CYCLE    2
Info: PAIRLISTS ENABLED
Info: MARGIN                 8
Info: HYDROGEN GROUP CUTOFF  2.5
Info: PATCH DIMENSION        21.5
Info: ENERGY OUTPUT STEPS    5000
Info: ENERGY EVALUATION STEPS    5000
Info: OUTPUT ENERGY PRECISION 4
Info: CROSSTERM ENERGY INCLUDED IN DIHEDRAL
Info: TIMING OUTPUT STEPS    50000
Info: PRESSURE OUTPUT STEPS  5000
Info: LANGEVIN DYNAMICS ACTIVE
Info: LANGEVIN TEMPERATURE   300
Info: LANGEVIN USING BBK INTEGRATOR
Info: LANGEVIN DAMPING COEFFICIENT IS 1 INVERSE PS
Info: LANGEVIN DYNAMICS APPLIED TO HYDROGENS
Info: LANGEVIN PISTON PRESSURE CONTROL ACTIVE
Info:        TARGET PRESSURE IS 1.01325 BAR
Info:     OSCILLATION PERIOD IS 50 FS
Info:             DECAY TIME IS 25 FS
Info:     PISTON TEMPERATURE IS 300 K
Info:       PRESSURE CONTROL IS GROUP-BASED
Info:    INITIAL STRAIN RATE IS 0 0 0
Info:       CELL FLUCTUATION IS ISOTROPIC
Info: PARTICLE MESH EWALD (PME) ACTIVE
Info: PME TOLERANCE               1e-06
Info: PME EWALD COEFFICIENT       0.348832
Info: PME INTERPOLATION ORDER     4
Info: PME GRID DIMENSIONS         40 44 40
Info: PME MAXIMUM GRID SPACING    1
Info: FULL ELECTROSTATIC EVALUATION FREQUENCY      2
Info: USING VERLET I (r-RESPA) MTS SCHEME.
Info: C1 SPLITTING OF LONG RANGE ELECTROSTATICS
Info: PLACING ATOMS IN PATCHES BY HYDROGEN GROUPS
Info: RIGID BONDS TO HYDROGEN : ALL
Info:         ERROR TOLERANCE : 1e-08
Info:          MAX ITERATIONS : 100
Info: RIGID WATER USING SETTLE ALGORITHM
Info: RANDOM NUMBER SEED     1741346890
Info: USE HYDROGEN BONDS?    NO
Info: Using AMBER format force field!
Info: AMBER PARM FILE        mobley_5056289.prmtop
Info: COORDINATE PDB         mobley_5056289.pdb
Info: Exclusions will be read from PARM file!
Info: SCNB (VDW SCALING)     2
Info: USING ARITHMETIC MEAN TO COMBINE L-J SIGMA PARAMETERS
Info: SUMMARY OF PARAMETERS:
Info: 6 BONDS
Info: 8 ANGLES
Info:   8 HARMONIC
Info:   0 COSINE-BASED
Info: 10 DIHEDRAL
Info: 0 IMPROPER
Info: 0 CROSSTERM
Info: 0 VDW
Info: 21 VDW_PAIRS
Info: 0 NBTHOLE_PAIRS
Info: STRUCTURE SUMMARY:
Info: 4621 ATOMS
Info: 4621 BONDS
Info: 31 ANGLES
Info: 55 DIHEDRALS
Info: 0 IMPROPERS
Info: 0 CROSSTERMS
Info: 4689 EXCLUSIONS
Info: 4615 RIGID BONDS
Info: 9248 DEGREES OF FREEDOM
Info: 1541 HYDROGEN GROUPS
Info: 4 ATOMS IN LARGEST HYDROGEN GROUP
Info: 1541 MIGRATION GROUPS
Info: 4 ATOMS IN LARGEST MIGRATION GROUP
Info: TOTAL MASS = 27740.7 amu
Info: TOTAL CHARGE = -9.99942e-05 e
Info: MASS DENSITY = 0.708072 g/cm^3
Info: ATOM DENSITY = 0.0710292 atoms/A^3
Info: ADDED 0 IMPLICIT EXCLUSIONS
Info: NONBONDED TABLE R-SQUARED SPACING: 0.0625
Info: NONBONDED TABLE SIZE: 705 POINTS
Info: REMOVING COM VELOCITY 0.168275 -0.000305021 0.0496022
TCL: Minimizing for 2000 steps
ETITLE: TS BOND ANGLE DIHED IMPRP ELECT VDW BOUNDARY MISC KINETIC TOTAL TEMP POTENTIAL TOTAL3 TEMPAVG PRESSURE GPRESSURE VOLUME PRESSAVG GPRESSAVG
ENERGY: 0 0.4731 6.4828 11.5838 0.0000 -14170.0402 1589.2532 0.0000 0.0000 0.0000 -12562.2472 0.0000 -12562.2472 -12562.2472 0.0000 10703.4263 -15367.6243 65057.7873 10703.4263 -15367.6243
ENERGY: 400 1.8572 5.7481 11.7475 0.0000 -19112.3950 2717.2145 0.0000 0.0000 0.0000 -16375.8276 0.0000 -16375.8276 -16375.8276 0.0000 15023.5576 15151.6858 65057.7873 15023.5576 15151.6858
ENERGY: 800 1.4376 5.7586 11.5059 0.0000 -20313.2667 3279.1998 0.0000 0.0000 0.0000 -17015.3649 0.0000 -17015.3649 -17015.3649 0.0000 17728.6613 17834.8480 65057.7873 17728.6613 17834.8480
ENERGY: 1200 0.2655 4.9208 11.5899 0.0000 -20808.1231 3495.7712 0.0000 0.0000 0.0000 -17295.5756 0.0000 -17295.5756 -17295.5756 0.0000 18792.0865 18891.0899 65057.7873 18792.0865 18891.0899
ENERGY: 1600 0.1753 4.1553 12.1006 0.0000 -21024.6362 3587.8478 0.0000 0.0000 0.0000 -17420.3573 0.0000 -17420.3573 -17420.3573 0.0000 19296.1252 19379.3700 65057.7873 19296.1252 19379.3700
ENERGY: 2000 0.0700 3.6699 12.4941 0.0000 -21121.8303 3615.0961 0.0000 0.0000 0.0000 -17490.5002 0.0000 -17490.5002 -17490.5002 0.0000 19434.1479 19527.1848 65057.7873 19434.1479 19527.1848
TCL: Exiting due to exit command.
Info: NAMD 3.0.1 for Linux-x86_64-multicore
Info: Please visit http://www.ks.uiuc.edu/Research/namd/
Info: for updates, documentation, and support information.
Info: Please cite Phillips et al., J. Chem. Phys. 153:044130 (2020) doi:10.1063/5.0014475
Info: in all publications reporting results obtained with NAMD.
Info: Based on Charm++/Converse 80000 for multicore-linux-x86_64-gcc
Info: Built Mon Oct 14 11:11:06 CDT 2024 by dhardy on athine.ks.uiuc.edu
Info: 1 NAMD  3.0.1  Linux-x86_64-multicore  16    k013  z5358697
Info: Running on 16 processors, 1 nodes, 1 physical nodes.
Info: CPU topology information available.
Info: Charm++/Converse parallel runtime startup completed at 0.00935633 s
Info: 1043.45 MB of memory in use based on /proc/self/stat
Info: Configuration file is mobley_5056289_equil.namd
Info: Working in the current directory /srv/scratch/z5358697/prod_prep_6/5056289
TCL: Running 25000 steps at 30 kelvin.
TCL: Suspending until startup complete.
Info: SIMULATION PARAMETERS:
Info: TIMESTEP               2
Info: NUMBER OF STEPS        0
Info: STEPS PER CYCLE        10
Info: PERIODIC CELL BASIS 1  39.456 0 0
Info: PERIODIC CELL BASIS 2  0 41.432 0
Info: PERIODIC CELL BASIS 3  0 0 39.797
Info: PERIODIC CELL CENTER   0 0 0
Info: WRAPPING WATERS AROUND PERIODIC BOUNDARIES ON OUTPUT.
Info: WRAPPING ALL CLUSTERS AROUND PERIODIC BOUNDARIES ON OUTPUT.
Info: FIRST LDB TIMESTEP     50
Info: LAST LDB TIMESTEP     -1
Info: HOM BACKGROUND SCALING 1
Info: PME BACKGROUND SCALING 1
Info: MIN ATOMS PER PATCH    40
Info: EMPTY PATCH LOAD       40 ATOMS
Info: INITIAL TEMPERATURE    300
Info: CENTER OF MASS MOVING INITIALLY? NO
Info: DIELECTRIC             1
Info: EXCLUDE                SCALED ONE-FOUR
Info: 1-4 ELECTROSTATICS SCALED BY 0.833333
Info: MODIFIED 1-4 VDW PARAMETERS WILL BE USED
Info: DCD FILENAME           mobley_5056289_equil.dcd
Info: DCD FREQUENCY          5000
Info: DCD FIRST STEP         5000
Info: DCD FILE WILL CONTAIN UNIT CELL DATA
Info: XST FILENAME           mobley_5056289_equil.xst
Info: XST FREQUENCY          5000
Info: NO VELOCITY DCD OUTPUT
Info: NO FORCE DCD OUTPUT
Info: OUTPUT FILENAME        mobley_5056289_equil
Info: BINARY OUTPUT FILES WILL BE USED
Info: RESTART FILENAME       mobley_5056289_equil.restart
Info: RESTART FREQUENCY      5000
Info: BINARY RESTART FILES WILL BE USED
Info: CUTOFF                 9
Info: PAIRLIST DISTANCE      11
Info: PAIRLIST SHRINK RATE   0.01
Info: PAIRLIST GROW RATE     0.01
Info: PAIRLIST TRIGGER       0.3
Info: PAIRLISTS PER CYCLE    2
Info: PAIRLISTS ENABLED
Info: MARGIN                 8
Info: HYDROGEN GROUP CUTOFF  2.5
Info: PATCH DIMENSION        21.5
Info: ENERGY OUTPUT STEPS    5000
Info: ENERGY EVALUATION STEPS    5000
Info: OUTPUT ENERGY PRECISION 4
Info: CROSSTERM ENERGY INCLUDED IN DIHEDRAL
Info: TIMING OUTPUT STEPS    50000
Info: PRESSURE OUTPUT STEPS  5000
Info: LANGEVIN DYNAMICS ACTIVE
Info: LANGEVIN TEMPERATURE   30
Info: LANGEVIN USING BBK INTEGRATOR
Info: LANGEVIN DAMPING COEFFICIENT IS 1 INVERSE PS
Info: LANGEVIN DYNAMICS APPLIED TO HYDROGENS
Info: LANGEVIN PISTON PRESSURE CONTROL ACTIVE
Info:        TARGET PRESSURE IS 1.01325 BAR
Info:     OSCILLATION PERIOD IS 50 FS
Info:             DECAY TIME IS 25 FS
Info:     PISTON TEMPERATURE IS 300 K
Info:       PRESSURE CONTROL IS GROUP-BASED
Info:    INITIAL STRAIN RATE IS 0 0 0
Info:       CELL FLUCTUATION IS ISOTROPIC
Info: PARTICLE MESH EWALD (PME) ACTIVE
Info: PME TOLERANCE               1e-06
Info: PME EWALD COEFFICIENT       0.348832
Info: PME INTERPOLATION ORDER     4
Info: PME GRID DIMENSIONS         40 44 40
Info: PME MAXIMUM GRID SPACING    1
Info: FULL ELECTROSTATIC EVALUATION FREQUENCY      2
Info: USING VERLET I (r-RESPA) MTS SCHEME.
Info: C1 SPLITTING OF LONG RANGE ELECTROSTATICS
Info: PLACING ATOMS IN PATCHES BY HYDROGEN GROUPS
Info: RIGID BONDS TO HYDROGEN : ALL
Info:         ERROR TOLERANCE : 1e-08
Info:          MAX ITERATIONS : 100
Info: RIGID WATER USING SETTLE ALGORITHM
Info: RANDOM NUMBER SEED     1741346910
Info: USE HYDROGEN BONDS?    NO
Info: Using AMBER format force field!
Info: AMBER PARM FILE        mobley_5056289.prmtop
Info: COORDINATE PDB         mobley_5056289.pdb
Info: Exclusions will be read from PARM file!
Info: SCNB (VDW SCALING)     2
Info: USING ARITHMETIC MEAN TO COMBINE L-J SIGMA PARAMETERS
Info: BINARY COORDINATES     mobley_5056289_min.coor
Info: SUMMARY OF PARAMETERS:
Info: 6 BONDS
Info: 8 ANGLES
Info:   8 HARMONIC
Info:   0 COSINE-BASED
Info: 10 DIHEDRAL
Info: 0 IMPROPER
Info: 0 CROSSTERM
Info: 0 VDW
Info: 21 VDW_PAIRS
Info: 0 NBTHOLE_PAIRS
Info: STRUCTURE SUMMARY:
Info: 4621 ATOMS
Info: 4621 BONDS
Info: 31 ANGLES
Info: 55 DIHEDRALS
Info: 0 IMPROPERS
Info: 0 CROSSTERMS
Info: 4689 EXCLUSIONS
Info: 4615 RIGID BONDS
Info: 9248 DEGREES OF FREEDOM
Info: 1541 HYDROGEN GROUPS
Info: 4 ATOMS IN LARGEST HYDROGEN GROUP
Info: 1541 MIGRATION GROUPS
Info: 4 ATOMS IN LARGEST MIGRATION GROUP
Info: TOTAL MASS = 27740.7 amu
Info: TOTAL CHARGE = -9.99942e-05 e
Info: MASS DENSITY = 0.708072 g/cm^3
Info: ATOM DENSITY = 0.0710292 atoms/A^3
Info: ADDED 0 IMPLICIT EXCLUSIONS
Info: NONBONDED TABLE R-SQUARED SPACING: 0.0625
Info: NONBONDED TABLE SIZE: 705 POINTS
Info: REMOVING COM VELOCITY 0.045937 0.025846 0.102714
TCL: Running for 25000 steps
ETITLE: TS BOND ANGLE DIHED IMPRP ELECT VDW BOUNDARY MISC KINETIC TOTAL TEMP POTENTIAL TOTAL3 TEMPAVG PRESSURE GPRESSURE VOLUME PRESSAVG GPRESSAVG
ENERGY: 0 0.0700 3.6699 12.4941 0.0000 -21121.8303 3615.0961 0.0000 0.0000 2797.1582 -14693.3420 304.4105 -17490.5002 -14692.7801 304.4105 74.2792 110.1140 65057.7873 74.2792 110.1140
ENERGY: 5000 0.0815 4.2061 11.5353 0.0000 -22140.4239 3819.4826 0.0000 0.0000 279.0691 -18026.0492 30.3707 -18305.1182 -18025.1756 47.9967 102.1318 165.6526 44330.4674 4.6530 4.7962
ENERGY: 10000 0.2481 5.0225 10.8190 0.0000 -22258.5428 3917.7844 0.0000 0.0000 274.8066 -18049.8621 29.9068 -18324.6687 -18049.2935 30.3760 665.2487 711.3951 43979.7336 -0.9336 -0.8228
ENERGY: 15000 0.1839 4.9661 10.6649 0.0000 -22099.5182 3746.5500 0.0000 0.0000 277.5692 -18059.5840 30.2074 -18337.1533 -18058.5218 30.0499 -421.3743 -360.1888 44343.3552 -3.8140 -3.9103
ENERGY: 20000 0.1664 3.8808 12.1013 0.0000 -22163.9976 3789.8732 0.0000 0.0000 279.6541 -18078.3218 30.4343 -18357.9759 -18077.4680 30.0987 -198.7293 -146.3383 44321.6342 0.7029 0.5923
ENERGY: 25000 0.2916 4.0290 12.2099 0.0000 -22204.7916 3827.0347 0.0000 0.0000 269.4231 -18091.8033 29.3209 -18361.2264 -18091.2746 30.2802 16.1998 69.7941 44206.8472 1.6654 1.5873
TCL: Running 25000 steps at 60 kelvin.
TCL: Setting parameter langevinTemp to 60
TCL: Running for 25000 steps
ETITLE: TS BOND ANGLE DIHED IMPRP ELECT VDW BOUNDARY MISC KINETIC TOTAL TEMP POTENTIAL TOTAL3 TEMPAVG PRESSURE GPRESSURE VOLUME PRESSAVG GPRESSAVG
ENERGY: 25000 0.2916 4.0290 12.2099 0.0000 -22204.7916 3827.0347 0.0000 0.0000 269.2814 -18091.9450 29.3055 -18361.2264 -18091.4339 29.3055 17.5014 69.6236 44206.8472 17.5014 69.6236
ENERGY: 30000 0.5615 5.8265 10.8950 0.0000 -21933.7681 3781.3249 0.0000 0.0000 561.4438 -17573.7164 61.1011 -18135.1602 -17572.1905 57.1407 246.3674 314.9743 44302.9850 4.9173 4.9314
ENERGY: 35000 0.1518 5.6861 11.3426 0.0000 -21887.0940 3711.9581 0.0000 0.0000 548.4423 -17609.5130 59.6861 -18157.9554 -17608.3117 60.0401 -95.6457 -33.5010 44350.7084 5.6472 5.6716
ENERGY: 40000 0.2336 6.6153 10.9866 0.0000 -21826.2285 3635.6815 0.0000 0.0000 561.2113 -17611.5002 61.0758 -18172.7115 -17609.5643 59.9922 -507.7649 -437.9260 44245.2828 6.1540 6.2369
ENERGY: 45000 0.5027 5.0940 10.8735 0.0000 -21826.2431 3614.5804 0.0000 0.0000 550.4066 -17644.7859 59.8999 -18195.1925 -17642.8584 60.1758 -708.5458 -648.6668 44259.6263 1.5805 1.6413
ENERGY: 50000 0.4784 5.2988 10.8611 0.0000 -21687.5377 3486.1416 0.0000 0.0000 554.8219 -17629.9359 60.3804 -18184.7578 -17628.8826 60.6498 -1353.2384 -1317.3606 44337.5465 -4.1660 -4.2455
TCL: Running 25000 steps at 90 kelvin.
TCL: Setting parameter langevinTemp to 90
TCL: Running for 25000 steps
ETITLE: TS BOND ANGLE DIHED IMPRP ELECT VDW BOUNDARY MISC KINETIC TOTAL TEMP POTENTIAL TOTAL3 TEMPAVG PRESSURE GPRESSURE VOLUME PRESSAVG GPRESSAVG
ENERGY: 50000 0.4784 5.2988 10.8611 0.0000 -21687.5377 3486.1416 0.0000 0.0000 554.5381 -17630.2197 60.3495 -18184.7578 -17628.9507 60.3495 -1386.7657 -1317.7641 44337.5465 -1386.7657 -1317.7641
ENERGY: 55000 0.5863 5.2193 12.0047 0.0000 -21514.7528 3564.9427 0.0000 0.0000 832.4323 -17099.5675 90.5923 -17931.9998 -17096.8603 87.2528 -307.5589 -217.6315 44164.7476 5.4894 5.4501
ENERGY: 60000 0.9520 5.5196 10.8938 0.0000 -21649.3784 3619.4521 0.0000 0.0000 825.4684 -17187.0926 89.8345 -18012.5610 -17184.8921 90.6839 -124.0881 -68.7102 44045.0240 6.9278 6.7383
ENERGY: 65000 0.9916 6.1426 10.3358 0.0000 -21657.6845 3643.9433 0.0000 0.0000 836.3753 -17159.8958 91.0215 -17996.2711 -17157.7396 90.1357 65.2280 138.0532 44074.3584 1.4722 1.5394
ENERGY: 70000 0.2248 5.0324 11.2568 0.0000 -21612.5406 3575.1094 0.0000 0.0000 820.7966 -17200.1206 89.3260 -18020.9172 -17197.5125 90.2382 -420.3589 -349.6115 44272.1831 -1.8836 -2.4436
ENERGY: 75000 0.5206 6.5866 10.3577 0.0000 -21694.5474 3620.8825 0.0000 0.0000 824.4824 -17231.7176 89.7272 -18056.2000 -17230.3171 90.8178 -340.8474 -272.0893 44406.0540 1.7007 2.1246
TCL: Running 25000 steps at 120 kelvin.
TCL: Setting parameter langevinTemp to 120
TCL: Running for 25000 steps
ETITLE: TS BOND ANGLE DIHED IMPRP ELECT VDW BOUNDARY MISC KINETIC TOTAL TEMP POTENTIAL TOTAL3 TEMPAVG PRESSURE GPRESSURE VOLUME PRESSAVG GPRESSAVG
ENERGY: 75000 0.5206 6.5866 10.3577 0.0000 -21694.5474 3620.8825 0.0000 0.0000 824.0659 -17232.1341 89.6818 -18056.2000 -17230.5931 89.6818 -340.2411 -271.9909 44406.0540 -340.2411 -271.9909
ENERGY: 80000 0.5985 4.9503 12.3743 0.0000 -21256.0634 3495.2923 0.0000 0.0000 1111.1626 -16631.6854 120.9261 -17742.8480 -16629.2916 117.2436 -202.7485 -168.3378 44583.4756 -0.9314 -0.9590
ENERGY: 85000 0.8399 8.5851 10.6860 0.0000 -21136.7262 3375.5348 0.0000 0.0000 1108.8904 -16632.1900 120.6789 -17741.0804 -16630.2314 120.6833 -927.1573 -875.5025 44797.2691 3.2879 3.2438
ENERGY: 90000 0.7688 6.8662 11.3363 0.0000 -21353.7966 3553.1812 0.0000 0.0000 1116.3627 -16665.2815 121.4921 -17781.6441 -16664.4847 120.6728 -119.7786 -39.5078 44614.4449 0.5003 0.4024
ENERGY: 95000 0.2243 6.5251 10.6489 0.0000 -21295.8955 3445.7824 0.0000 0.0000 1111.4290 -16721.2859 120.9551 -17832.7149 -16718.1917 120.3544 -829.4874 -783.1728 44934.7520 0.4723 0.2139
ENERGY: 100000 0.5012 6.7987 10.3712 0.0000 -21459.4588 3624.1311 0.0000 0.0000 1116.2657 -16701.3909 121.4815 -17817.6566 -16698.4145 120.0306 229.3114 286.9783 44508.7781 7.3127 7.4808
TCL: Running 25000 steps at 150 kelvin.
TCL: Setting parameter langevinTemp to 150
TCL: Running for 25000 steps
ETITLE: TS BOND ANGLE DIHED IMPRP ELECT VDW BOUNDARY MISC KINETIC TOTAL TEMP POTENTIAL TOTAL3 TEMPAVG PRESSURE GPRESSURE VOLUME PRESSAVG GPRESSAVG
ENERGY: 100000 0.5012 6.7987 10.3712 0.0000 -21459.4588 3624.1311 0.0000 0.0000 1115.7230 -16701.9336 121.4224 -17817.6566 -16699.4067 121.4224 234.3643 286.8800 44508.7781 234.3643 286.8800
ENERGY: 105000 0.4623 5.4907 12.7105 0.0000 -20948.6038 3432.6812 0.0000 0.0000 1372.4694 -16124.7897 149.3638 -17497.2591 -16121.4810 146.8251 -57.9611 4.6772 44822.8258 3.8431 3.7330
ENERGY: 110000 1.2094 10.8706 10.1848 0.0000 -20960.8641 3420.6134 0.0000 0.0000 1357.8798 -16160.1061 147.7760 -17517.9859 -16156.5675 150.5477 -330.7049 -288.3879 45150.9448 0.4716 0.7410
ENERGY: 115000 1.1387 7.2873 10.6797 0.0000 -20889.3199 3349.0701 0.0000 0.0000 1341.8809 -16179.2631 146.0349 -17521.1441 -16175.5115 149.5409 -526.7077 -449.7520 44756.7153 5.3518 4.9095
ENERGY: 120000 0.9458 7.3170 12.4066 0.0000 -21107.0870 3541.1619 0.0000 0.0000 1381.8942 -16163.3616 150.3894 -17545.2558 -16161.1465 150.6532 506.0829 550.8528 44529.8952 5.6700 5.7346
ENERGY: 125000 2.6504 7.2047 10.1150 0.0000 -20940.4369 3377.1445 0.0000 0.0000 1395.5527 -16147.7695 151.8759 -17543.3222 -16143.8698 150.7222 -410.1115 -369.8812 44927.1421 3.3099 3.8882
TCL: Running 50000 steps at 180 kelvin.
TCL: Setting parameter langevinTemp to 180
TCL: Running for 50000 steps
ETITLE: TS BOND ANGLE DIHED IMPRP ELECT VDW BOUNDARY MISC KINETIC TOTAL TEMP POTENTIAL TOTAL3 TEMPAVG PRESSURE GPRESSURE VOLUME PRESSAVG GPRESSAVG
ENERGY: 125000 2.6504 7.2047 10.1150 0.0000 -20940.4369 3377.1445 0.0000 0.0000 1394.8743 -16148.4480 151.8020 -17543.3222 -16145.9214 151.8020 -427.4592 -369.0836 44927.1421 -427.4592 -369.0836
ENERGY: 135000 0.8728 7.9458 13.0188 0.0000 -20453.6583 3278.5868 0.0000 0.0000 1663.4161 -15489.8180 181.0270 -17153.2341 -15486.7080 181.2469 -11.9889 65.6951 45005.3638 7.8132 7.9542
ENERGY: 145000 1.5281 8.2341 10.7080 0.0000 -20381.4194 3216.4644 0.0000 0.0000 1681.9668 -15462.5179 183.0459 -17144.4847 -15459.4750 180.0471 -337.5397 -257.0741 45074.5840 -1.5739 -1.1419
ENERGY: 155000 0.6527 11.3193 10.5231 0.0000 -20319.8517 3141.7151 0.0000 0.0000 1625.4781 -15530.1634 176.8983 -17155.6416 -15528.2646 180.0701 -785.2772 -731.6124 45284.0562 3.9677 3.9323
ENERGY: 165000 1.5883 9.7476 11.8368 0.0000 -20406.1711 3254.0390 0.0000 0.0000 1626.9719 -15501.9874 177.0609 -17128.9593 -15497.5967 180.0330 -198.1269 -141.0730 45172.1962 1.8722 1.7404
ENERGY: 175000 1.4592 8.6266 10.8582 0.0000 -20494.3837 3304.8467 0.0000 0.0000 1698.7299 -15469.8631 184.8702 -17168.5930 -15465.8043 180.8728 -99.7697 -37.1254 45412.5866 2.6400 2.5002
TCL: Running 50000 steps at 210 kelvin.
TCL: Setting parameter langevinTemp to 210
TCL: Running for 50000 steps
ETITLE: TS BOND ANGLE DIHED IMPRP ELECT VDW BOUNDARY MISC KINETIC TOTAL TEMP POTENTIAL TOTAL3 TEMPAVG PRESSURE GPRESSURE VOLUME PRESSAVG GPRESSAVG
ENERGY: 175000 1.4592 8.6266 10.8582 0.0000 -20494.3837 3304.8467 0.0000 0.0000 1697.9141 -15470.6789 184.7814 -17168.5930 -15468.5070 184.7814 -94.3847 -36.7901 45412.5866 -94.3847 -36.7901
ENERGY: 185000 2.1434 8.2598 12.0134 0.0000 -19577.4840 3001.7950 0.0000 0.0000 1947.1161 -14606.1563 211.9017 -16553.2724 -14603.0268 209.5552 -156.2847 -54.9302 45066.8615 0.8617 1.1570
ENERGY: 195000 1.0422 8.1100 11.2700 0.0000 -19653.5959 3195.5064 0.0000 0.0000 1940.3575 -14497.3098 211.1662 -16437.6673 -14495.8788 209.9000 1210.4763 1303.8553 44677.8830 1.6748 1.9877
ENERGY: 205000 0.7694 7.1506 10.2735 0.0000 -19304.7701 2816.0155 0.0000 0.0000 1937.3763 -14533.1848 210.8417 -16470.5612 -14528.5351 209.4844 -777.6373 -739.0711 45047.6070 7.5008 7.7176
ENERGY: 215000 1.2081 8.2185 12.3025 0.0000 -19428.2543 2923.3884 0.0000 0.0000 1924.1294 -14559.0074 209.4001 -16483.1368 -14555.8908 209.6600 -280.4586 -178.9880 45068.8286 4.0481 4.0451
ENERGY: 225000 1.4154 7.5908 12.2555 0.0000 -19518.8688 2970.5401 0.0000 0.0000 1949.9783 -14577.0888 212.2132 -16527.0671 -14573.2047 210.2759 -58.4984 11.3158 44822.3803 3.9438 3.9955
TCL: Running 50000 steps at 240 kelvin.
TCL: Setting parameter langevinTemp to 240
TCL: Running for 50000 steps
ETITLE: TS BOND ANGLE DIHED IMPRP ELECT VDW BOUNDARY MISC KINETIC TOTAL TEMP POTENTIAL TOTAL3 TEMPAVG PRESSURE GPRESSURE VOLUME PRESSAVG GPRESSAVG
ENERGY: 225000 1.4154 7.5908 12.2555 0.0000 -19518.8688 2970.5401 0.0000 0.0000 1949.0324 -14578.0347 212.1102 -16527.0671 -14573.8011 212.1102 -70.2180 10.4459 44822.3803 -70.2180 10.4459
ENERGY: 235000 1.2660 8.4618 11.9319 0.0000 -18623.1674 2826.0239 0.0000 0.0000 2180.6630 -13594.8209 237.3182 -15775.4839 -13590.2368 239.9663 497.0880 575.9057 45760.3375 5.3952 4.8958
ENERGY: 245000 1.4166 13.6450 13.7871 0.0000 -18388.6937 2616.1288 0.0000 0.0000 2151.2276 -13592.4886 234.1148 -15743.7162 -13586.2355 239.4492 -550.1689 -451.4762 46012.9043 0.9142 0.2154
ENERGY: 255000 1.8733 10.2443 9.8936 0.0000 -18526.4692 2701.2962 0.0000 0.0000 2166.9972 -13636.1646 235.8310 -15803.1618 -13632.0797 239.7637 -29.5446 60.1968 45472.4250 1.8270 0.8673
ENERGY: 265000 0.9181 8.5769 11.9690 0.0000 -18213.0508 2530.1247 0.0000 0.0000 2194.4779 -13466.9841 238.8217 -15661.4620 -13462.9734 242.0787 -778.7357 -678.4208 45944.6553 0.4228 0.4154
ENERGY: 275000 1.9762 10.8643 12.8980 0.0000 -18617.3015 2760.7308 0.0000 0.0000 2201.3312 -13629.5009 239.5675 -15830.8321 -13621.9593 240.7365 222.5737 391.3716 45277.0873 -2.6226 -2.8965
TCL: Running 50000 steps at 270 kelvin.
TCL: Setting parameter langevinTemp to 270
TCL: Running for 50000 steps
ETITLE: TS BOND ANGLE DIHED IMPRP ELECT VDW BOUNDARY MISC KINETIC TOTAL TEMP POTENTIAL TOTAL3 TEMPAVG PRESSURE GPRESSURE VOLUME PRESSAVG GPRESSAVG
ENERGY: 275000 1.9762 10.8643 12.8980 0.0000 -18617.3015 2760.7308 0.0000 0.0000 2200.2264 -13630.6057 239.4473 -15830.8321 -13626.8124 239.4473 305.2437 393.2453 45277.0873 305.2437 393.2453
ENERGY: 285000 2.3388 10.6590 11.8930 0.0000 -17656.9565 2465.3394 0.0000 0.0000 2429.3847 -12737.3416 264.3862 -15166.7263 -12733.3514 268.8100 -70.4061 25.4951 46688.8173 2.5822 3.0877
ENERGY: 295000 1.6658 11.3424 14.3565 0.0000 -17506.4614 2374.0049 0.0000 0.0000 2451.3158 -12653.7759 266.7730 -15105.0918 -12649.2221 270.5027 -244.9938 -205.4210 46320.5259 2.7070 3.1977
ENERGY: 305000 1.9860 9.7016 11.9500 0.0000 -17462.4616 2354.3367 0.0000 0.0000 2482.2176 -12602.2696 270.1360 -15084.4872 -12596.2076 273.0405 -770.8078 -697.3966 47541.7949 -3.2188 -3.2654
ENERGY: 315000 0.9761 7.2069 12.6708 0.0000 -17774.3469 2616.3647 0.0000 0.0000 2482.0234 -12655.1050 270.1148 -15137.1284 -12651.5405 269.0350 552.7413 682.8494 46913.7172 10.0522 10.1458
ENERGY: 325000 0.8779 10.2063 13.1933 0.0000 -17627.6873 2458.5234 0.0000 0.0000 2478.0575 -12666.8288 269.6832 -15144.8864 -12661.2301 270.8176 -79.2567 34.1015 46263.6696 3.0055 2.7804
TCL: Running 1000000 steps at 300 kelvin.
TCL: Setting parameter langevinTemp to 300
TCL: Running for 1000000 steps
ETITLE: TS BOND ANGLE DIHED IMPRP ELECT VDW BOUNDARY MISC KINETIC TOTAL TEMP POTENTIAL TOTAL3 TEMPAVG PRESSURE GPRESSURE VOLUME PRESSAVG GPRESSAVG
ENERGY: 325000 0.8779 10.2063 13.1933 0.0000 -17627.6873 2458.5234 0.0000 0.0000 2476.8445 -12668.0419 269.5512 -15144.8864 -12663.5563 269.5512 -50.2933 34.1314 46263.6696 -50.2933 34.1314
ENERGY: 525000 2.9579 8.2391 11.6578 0.0000 -17011.2261 2314.4604 0.0000 0.0000 2744.6641 -11929.2468 298.6976 -14673.9110 -11925.7715 299.9109 132.0894 211.1791 46782.8990 2.0079 2.1136
ENERGY: 725000 1.0258 12.6501 11.2620 0.0000 -16679.7970 2180.1913 0.0000 0.0000 2743.2724 -11731.3954 298.5462 -14474.6679 -11727.5762 301.3285 -278.5942 -200.1214 47612.6061 0.4272 0.4271
ENERGY: 925000 1.4877 12.9125 10.8242 0.0000 -16737.4454 2192.1260 0.0000 0.0000 2774.3254 -11745.7696 301.9256 -14520.0949 -11740.2351 299.8612 -481.5121 -429.9333 47797.1348 0.7510 0.8932
ENERGY: 1125000 2.6831 14.6660 12.8537 0.0000 -16818.8879 2218.4979 0.0000 0.0000 2784.4103 -11785.7770 303.0231 -14570.1872 -11779.2660 299.4210 -307.8180 -219.3784 47412.3455 0.9780 0.7358
ENERGY: 1325000 2.0481 13.9925 12.8478 0.0000 -16804.6077 2245.6328 0.0000 0.0000 2736.0869 -11793.9996 297.7642 -14530.0865 -11789.7347 300.5020 -183.2501 -105.6527 47683.5680 6.2163 6.1870
TCL: Exiting due to exit command.
