Info: SIMULATION PARAMETERS:
Info: TIMESTEP               2
Info: NUMBER OF STEPS        0
Info: STEPS PER CYCLE        10
Info: PERIODIC CELL BASIS 1  30.3452 0 0
Info: PERIODIC CELL BASIS 2  0 31.7398 0
Info: PERIODIC CELL BASIS 3  0 0 31.8444
Info: PERIODIC CELL CENTER   0 0 0
Info: WRAPPING WATERS AROUND PERIODIC BOUNDARIES ON OUTPUT.
Info: WRAPPING ALL CLUSTERS AROUND PERIODIC BOUNDARIES ON OUTPUT.
Info: FIRST LDB TIMESTEP     50
Info: LAST LDB TIMESTEP     -1
Info: HOM BACKGROUND SCALING 1
Info: PME BACKGROUND SCALING 1
Info: MIN ATOMS PER PATCH    40
Info: EMPTY PATCH LOAD       40 ATOMS
Info: VELOCITY FILE          mobley_4506634_equil.vel
Info: CENTER OF MASS MOVING INITIALLY? NO
Info: DIELECTRIC             1
Info: EXCLUDE                SCALED ONE-FOUR
Info: 1-4 ELECTROSTATICS SCALED BY 0.833333
Info: MODIFIED 1-4 VDW PARAMETERS WILL BE USED
Info: DCD FILENAME           mobley_4506634_prod.dcd
Info: DCD FREQUENCY          100000
Info: DCD FIRST STEP         100000
Info: DCD FILE WILL CONTAIN UNIT CELL DATA
Info: XST FILENAME           mobley_4506634_prod.xst
Info: XST FREQUENCY          100000
Info: NO VELOCITY DCD OUTPUT
Info: NO FORCE DCD OUTPUT
Info: OUTPUT FILENAME        mobley_4506634_prod
Info: BINARY OUTPUT FILES WILL BE USED
Info: RESTART FILENAME       mobley_4506634_prod.restart
Info: RESTART FREQUENCY      100000
Info: BINARY RESTART FILES WILL BE USED
Info: CUTOFF                 9
Info: PAIRLIST DISTANCE      11
Info: PAIRLIST SHRINK RATE   0.01
Info: PAIRLIST GROW RATE     0.01
Info: PAIRLIST TRIGGER       0.3
Info: PAIRLISTS PER CYCLE    2
Info: PAIRLISTS ENABLED
Info: MARGIN                 2
Info: HYDROGEN GROUP CUTOFF  2.5
Info: PATCH DIMENSION        15.5
Info: ENERGY OUTPUT STEPS    100000
Info: ENERGY EVALUATION STEPS    100000
Info: OUTPUT ENERGY PRECISION 4
Info: CROSSTERM ENERGY INCLUDED IN DIHEDRAL
Info: TIMING OUTPUT STEPS    1000000
Info: PRESSURE OUTPUT STEPS  100000
Info: ALCHEMICAL FEP ON
Info: FEP CURRENT LAMBDA VALUE     1
Info: FEP COMPARISON LAMBDA VALUE  0.95
Info: FEP INTRA-ALCHEMICAL NON-BONDED INTERACTIONS WILL BE RETAINED
Info: FEP INTRA-ALCHEMICAL BONDED INTERACTIONS WILL BE RETAINED
Info: FEP VDW SHIFTING COEFFICIENT 5
Info: FEP ELEC. ACTIVE FOR ANNIHILATED PARTICLES BETWEEN LAMBDA = 0 AND LAMBDA = 0.5
Info: FEP ELEC. ACTIVE FOR EXNIHILATED PARTICLES BETWEEN LAMBDA = 0.5 AND LAMBDA = 1
Info: FEP VDW ACTIVE FOR ANNIHILATED PARTICLES BETWEEN LAMBDA = 0 AND LAMBDA = 1
Info: FEP VDW ACTIVE FOR EXNIHILATED PARTICLES BETWEEN LAMBDA = 0 AND LAMBDA = 1
Info: FEP BOND ACTIVE FOR ANNIHILATED PARTICLES BETWEEN LAMBDA = 1 AND LAMBDA = 1
Info: FEP BOND ACTIVE FOR EXNIHILATED PARTICLES BETWEEN LAMBDA = 0 AND LAMBDA = 0
Info: LANGEVIN DYNAMICS ACTIVE
Info: LANGEVIN TEMPERATURE   300
Info: LANGEVIN USING BBK INTEGRATOR
Info: LANGEVIN DAMPING COEFFICIENT IS 1 INVERSE PS
Info: LANGEVIN DYNAMICS APPLIED TO HYDROGENS
Info: LANGEVIN PISTON PRESSURE CONTROL ACTIVE
Info:        TARGET PRESSURE IS 1.01325 BAR
Info:     OSCILLATION PERIOD IS 50 FS
Info:             DECAY TIME IS 25 FS
Info:     PISTON TEMPERATURE IS 300 K
Info:       PRESSURE CONTROL IS GROUP-BASED
Info:    INITIAL STRAIN RATE IS 0.000501032 0.000501032 0.000501032
Info:       CELL FLUCTUATION IS ISOTROPIC
Info: PARTICLE MESH EWALD (PME) ACTIVE
Info: PME TOLERANCE               1e-06
Info: PME EWALD COEFFICIENT       0.348832
Info: PME INTERPOLATION ORDER     4
Info: PME GRID DIMENSIONS         32 32 32
Info: PME MAXIMUM GRID SPACING    1
Info: PME CALCULATION WILL BE PERFORMED ON GPU
Info: FULL ELECTROSTATIC EVALUATION FREQUENCY      2
Info: USING VERLET I (r-RESPA) MTS SCHEME.
Info: C1 SPLITTING OF LONG RANGE ELECTROSTATICS
Info: PLACING ATOMS IN PATCHES BY HYDROGEN GROUPS
Info: RIGID BONDS TO HYDROGEN : ALL
Info:         ERROR TOLERANCE : 1e-08
Info:          MAX ITERATIONS : 100
Info: RIGID WATER USING SETTLE ALGORITHM
Info: RANDOM NUMBER SEED     1742103087
Info: USE HYDROGEN BONDS?    NO
Info: Using AMBER format force field!
Info: AMBER PARM FILE        mobley_4506634.prmtop
Info: COORDINATE PDB         mobley_4506634.pdb
Info: Exclusions will be read from PARM file!
Info: SCNB (VDW SCALING)     2
Info: USING ARITHMETIC MEAN TO COMBINE L-J SIGMA PARAMETERS
Info: BINARY COORDINATES     mobley_4506634_equil.coor
Info: SUMMARY OF PARAMETERS:
Info: 7 BONDS
Info: 8 ANGLES
Info:   8 HARMONIC
Info:   0 COSINE-BASED
Info: 1 DIHEDRAL
Info: 0 IMPROPER
Info: 0 CROSSTERM
Info: 0 VDW
Info: 28 VDW_PAIRS
Info: 0 NBTHOLE_PAIRS
Info: To read alchdata from file: mobley_4506634.pdb
Info: To read alchflag data from column: 5
Info: STRUCTURE SUMMARY:
Info: 2972 ATOMS
Info: 2971 BONDS
Info: 12 ANGLES
Info: 9 DIHEDRALS
Info: 0 IMPROPERS
Info: 0 CROSSTERMS
Info: 2992 EXCLUSIONS
Info: 2965 RIGID BONDS
Info: ALCH: 0 ATOMS TO DISAPPEAR IN FINAL STATE
Info: ALCH: 8 ATOMS TO APPEAR IN FINAL STATE
Info: 5951 DEGREES OF FREEDOM
Info: 995 HYDROGEN GROUPS
Info: 3 ATOMS IN LARGEST HYDROGEN GROUP
Info: 995 MIGRATION GROUPS
Info: 3 ATOMS IN LARGEST MIGRATION GROUP
Info: TOTAL MASS = 17997.2 amu
Info: TOTAL CHARGE = 9.99905e-05 e
Info: MASS DENSITY = 0.974398 g/cm^3
Info: ATOM DENSITY = 0.0968995 atoms/A^3
Info: ADDED 0 IMPLICIT EXCLUSIONS
Info: NONBONDED TABLE R-SQUARED SPACING: 0.0625
Info: NONBONDED TABLE SIZE: 705 POINTS
Info: REMOVING COM VELOCITY -0.0869321 -0.0864738 0.0338104
Info: Use 3D box decompostion in PME FFT.
Info: Updated CUDA force table with 4096 elements.
Info: Updated CUDA LJ table with 7 x 7 elements.
Info: Found 11 unique exclusion lists needing 16 bytes
TCL: Running for 1500000 steps
ETITLE: TS BOND ANGLE DIHED IMPRP ELECT VDW BOUNDARY MISC KINETIC TOTAL TEMP POTENTIAL TOTALAVG TEMPAVG PRESSURE GPRESSURE VOLUME PRESSAVG GPRESSAVG
ENERGY: 0 3.5635 3.5085 0.0273 0.0000 -10713.9962 1353.6706 0.0000 0.0000 1699.6096 -7653.6166 287.4416 -9353.2262 -7653.6166 287.4416 -795.3732 -713.8172 30670.9546 -795.3732 -713.8172
ENERGY: 300000 3.2145 3.5706 0.0434 0.0000 -10796.8125 1415.7993 0.0000 0.0000 1773.8776 -7600.3070 300.0020 -9374.1847 -7602.1727 296.7862 -280.7273 -157.6773 30190.3461 -282.7071 -174.2650
ENERGY: 600000 2.0346 2.7199 0.7920 0.0000 -10923.6383 1550.5645 0.0000 0.0000 1742.0763 -7625.4510 294.6237 -9367.5273 -7622.1044 296.1106 836.3593 896.6074 30630.9708 -199.2354 -120.5997
ENERGY: 900000 2.8943 3.3772 0.1098 0.0000 -10839.0372 1505.8218 0.0000 0.0000 1783.8813 -7542.9528 301.6938 -9326.8341 -7601.0000 298.0100 507.2639 578.0930 30610.2974 -98.7157 -32.4099
ENERGY: 1200000 2.7754 3.5470 0.1070 0.0000 -10794.2581 1427.7827 0.0000 0.0000 1743.7637 -7616.2823 294.9090 -9360.0460 -7595.5950 297.7245 -167.0605 -84.2885 30596.3313 -60.7748 5.2822
ENERGY: 1500000 0.9284 4.1894 0.4097 0.0000 -10940.5393 1503.9936 0.0000 0.0000 1746.9018 -7684.1164 295.4398 -9431.0183 -7594.5942 297.9242 447.9907 502.2317 30115.2130 -38.7295 30.5128
TCL: Running FEP window   2: Lambda1 0.95   Lambda2 0.8999999999999999 [dLambda -0.050000000000000044]
TCL: Setting parameter firsttimestep to 0
TCL: Setting parameter alchLambda to 0.95
Info: NONBONDED TABLE R-SQUARED SPACING: 0.0625
Info: NONBONDED TABLE SIZE: 705 POINTS
TCL: Setting parameter alchLambda2 to 0.8999999999999999
Info: NONBONDED TABLE R-SQUARED SPACING: 0.0625
Info: NONBONDED TABLE SIZE: 705 POINTS
TCL: Running for 1500000 steps
ETITLE: TS BOND ANGLE DIHED IMPRP ELECT VDW BOUNDARY MISC KINETIC TOTAL TEMP POTENTIAL TOTALAVG TEMPAVG PRESSURE GPRESSURE VOLUME PRESSAVG GPRESSAVG
ENERGY: 0 0.9284 4.1894 0.4097 0.0000 -10940.4013 1504.1293 0.0000 0.0000 1746.0283 -7684.7163 295.2920 -9430.7445 -7684.7163 295.2920 414.3397 494.8123 30115.2130 414.3397 494.8123
ENERGY: 300000 0.3963 0.4893 0.4086 0.0000 -10846.5428 1551.0133 0.0000 0.0000 1789.5455 -7504.6899 302.6517 -9294.2354 -7594.6867 300.5372 1106.4331 1107.2461 30380.2873 373.7562 412.5388
ENERGY: 600000 0.3140 4.2953 0.2440 0.0000 -10938.8701 1511.4614 0.0000 0.0000 1766.0764 -7656.4789 298.6826 -9422.5553 -7595.4670 301.1096 273.5995 375.8577 30412.3888 202.6523 253.7669
ENERGY: 900000 1.4391 1.1280 0.0118 0.0000 -10770.6153 1445.3849 0.0000 0.0000 1810.5902 -7512.0612 306.2109 -9322.6515 -7576.2301 301.5517 194.9954 274.2030 30243.5299 204.3347 260.9104
ENERGY: 1200000 0.7629 2.4663 0.0028 0.0000 -10838.0781 1441.0110 0.0000 0.0000 1715.6522 -7678.1829 290.1547 -9393.8351 -7572.7880 299.5741 -297.7779 -245.4668 30559.6485 56.9851 119.7011
ENERGY: 1500000 0.6180 2.8050 0.0770 0.0000 -10806.3737 1476.8432 0.0000 0.0000 1757.1038 -7568.9267 297.1651 -9326.0305 -7584.1465 299.2963 298.1926 291.0599 30682.4746 90.3095 145.2740
TCL: Running FEP window   3: Lambda1 0.8999999999999999 Lambda2 0.8499999999999999 [dLambda -0.050000000000000044]
TCL: Setting parameter firsttimestep to 0
TCL: Setting parameter alchLambda to 0.8999999999999999
Info: NONBONDED TABLE R-SQUARED SPACING: 0.0625
Info: NONBONDED TABLE SIZE: 705 POINTS
TCL: Setting parameter alchLambda2 to 0.8499999999999999
Info: NONBONDED TABLE R-SQUARED SPACING: 0.0625
Info: NONBONDED TABLE SIZE: 705 POINTS
TCL: Running for 1500000 steps
ETITLE: TS BOND ANGLE DIHED IMPRP ELECT VDW BOUNDARY MISC KINETIC TOTAL TEMP POTENTIAL TOTALAVG TEMPAVG PRESSURE GPRESSURE VOLUME PRESSAVG GPRESSAVG
ENERGY: 0 0.6180 2.8050 0.0770 0.0000 -10806.2124 1477.0525 0.0000 0.0000 1756.2191 -7569.4408 297.0155 -9325.6599 -7569.4408 297.0155 208.8167 283.9359 30682.4746 208.8167 283.9359
ENERGY: 300000 1.3455 2.2472 0.1021 0.0000 -10792.8600 1473.1726 0.0000 0.0000 1775.1049 -7540.8877 300.2095 -9315.9926 -7554.2747 302.0497 231.9008 300.3611 30613.0865 45.2519 114.5860
ENERGY: 600000 2.8930 2.6632 0.0739 0.0000 -10812.2551 1425.4477 0.0000 0.0000 1789.7268 -7591.4506 302.6824 -9381.1774 -7559.1767 300.5381 -420.0885 -338.0798 31047.7652 -37.3747 36.6238
ENERGY: 900000 1.2968 1.7019 0.8627 0.0000 -10898.6998 1479.6020 0.0000 0.0000 1820.9928 -7594.2436 307.9702 -9415.2364 -7568.5322 299.9982 -125.4423 -29.2214 31092.2049 9.0023 82.5443
ENERGY: 1200000 1.3110 3.4349 0.7485 0.0000 -10708.2955 1376.9265 0.0000 0.0000 1760.8673 -7565.0073 297.8016 -9325.8747 -7565.4825 299.1470 -591.8991 -506.4907 30629.7662 -102.7351 -35.3946
ENERGY: 1500000 3.0013 1.1667 0.0893 0.0000 -10749.2411 1441.1595 0.0000 0.0000 1793.1366 -7510.6877 303.2591 -9303.8243 -7569.2147 299.4471 -61.3681 48.6538 31102.3233 -113.0921 -37.5184
TCL: Running FEP window   4: Lambda1 0.8499999999999999 Lambda2 0.7999999999999998 [dLambda -0.050000000000000044]
TCL: Setting parameter firsttimestep to 0
TCL: Setting parameter alchLambda to 0.8499999999999999
Info: NONBONDED TABLE R-SQUARED SPACING: 0.0625
Info: NONBONDED TABLE SIZE: 705 POINTS
TCL: Setting parameter alchLambda2 to 0.7999999999999998
Info: NONBONDED TABLE R-SQUARED SPACING: 0.0625
Info: NONBONDED TABLE SIZE: 705 POINTS
TCL: Running for 1500000 steps
ETITLE: TS BOND ANGLE DIHED IMPRP ELECT VDW BOUNDARY MISC KINETIC TOTAL TEMP POTENTIAL TOTALAVG TEMPAVG PRESSURE GPRESSURE VOLUME PRESSAVG GPRESSAVG
ENERGY: 0 3.0013 1.1667 0.0893 0.0000 -10749.0441 1441.6729 0.0000 0.0000 1792.2871 -7510.8268 303.1154 -9303.1138 -7510.8268 303.1154 -38.1801 44.9204 31102.3233 -38.1801 44.9204
ENERGY: 300000 0.8298 2.3874 0.7585 0.0000 -10669.4474 1379.8964 0.0000 0.0000 1781.3170 -7504.2583 301.2601 -9285.5753 -7531.7692 298.5865 -408.4053 -382.4300 31013.7354 -205.7082 -156.9297
ENERGY: 600000 1.6129 4.6977 0.0189 0.0000 -10699.1699 1384.1795 0.0000 0.0000 1759.7725 -7548.8885 297.6165 -9308.6610 -7536.7240 299.5050 -537.5728 -459.3779 30877.2000 -408.5759 -346.7531
ENERGY: 900000 2.8587 5.3902 0.2041 0.0000 -10756.1919 1424.7224 0.0000 0.0000 1800.9796 -7522.0369 304.5855 -9323.0165 -7533.4812 299.5373 -25.6724 -24.4991 30752.4937 -276.5791 -221.8639
ENERGY: 1200000 1.5616 4.6237 0.1484 0.0000 -10828.9713 1494.8501 0.0000 0.0000 1723.4379 -7604.3498 291.4715 -9327.7877 -7536.3910 299.3130 296.0049 362.9897 30629.1188 -273.6021 -214.9986
ENERGY: 1500000 2.3896 4.1210 0.0290 0.0000 -10711.4642 1373.9667 0.0000 0.0000 1743.3392 -7587.6188 294.8372 -9330.9580 -7553.0086 298.0849 -376.5850 -289.6960 30287.0569 -305.7334 -250.2632
TCL: Running FEP window   5: Lambda1 0.7999999999999998 Lambda2 0.7499999999999998 [dLambda -0.050000000000000044]
TCL: Setting parameter firsttimestep to 0
TCL: Setting parameter alchLambda to 0.7999999999999998
Info: NONBONDED TABLE R-SQUARED SPACING: 0.0625
Info: NONBONDED TABLE SIZE: 705 POINTS
TCL: Setting parameter alchLambda2 to 0.7499999999999998
Info: NONBONDED TABLE R-SQUARED SPACING: 0.0625
Info: NONBONDED TABLE SIZE: 705 POINTS
TCL: Running for 1500000 steps
ETITLE: TS BOND ANGLE DIHED IMPRP ELECT VDW BOUNDARY MISC KINETIC TOTAL TEMP POTENTIAL TOTALAVG TEMPAVG PRESSURE GPRESSURE VOLUME PRESSAVG GPRESSAVG
ENERGY: 0 2.3896 4.1210 0.0290 0.0000 -10711.1333 1374.4558 0.0000 0.0000 1742.4405 -7587.6975 294.6852 -9330.1380 -7587.6975 294.6852 -380.1967 -293.4817 30287.0569 -380.1967 -293.4817
ENERGY: 300000 2.2608 3.9539 0.1224 0.0000 -10709.7391 1443.7994 0.0000 0.0000 1713.5523 -7546.0502 289.7996 -9259.6025 -7560.3435 294.3653 -29.5306 36.2102 31063.2115 -281.9146 -218.6975
ENERGY: 600000 4.2369 1.6133 0.1936 0.0000 -10841.1677 1457.2102 0.0000 0.0000 1739.7336 -7638.1800 294.2274 -9377.9136 -7579.2408 296.0661 -236.6505 -182.0194 30793.9302 -328.5750 -267.9028
ENERGY: 900000 2.5422 3.6791 0.2796 0.0000 -10785.0596 1419.6658 0.0000 0.0000 1789.0053 -7569.8876 302.5604 -9358.8929 -7564.4648 298.1388 -303.6554 -274.8532 30505.9006 -272.1158 -216.4491
ENERGY: 1200000 2.8907 2.9752 0.0348 0.0000 -10754.4040 1399.7298 0.0000 0.0000 1806.1921 -7542.5814 305.4671 -9348.7735 -7556.8361 298.2890 -347.6215 -306.9799 30368.4758 -190.5008 -141.9510
ENERGY: 1500000 2.1761 3.4734 0.6163 0.0000 -10860.5549 1509.1257 0.0000 0.0000 1768.9134 -7576.2501 299.1624 -9345.1635 -7561.9684 298.6265 549.2793 628.4333 30428.2284 -206.8343 -157.7263
TCL: Running FEP window   6: Lambda1 0.7499999999999998 Lambda2 0.6999999999999997 [dLambda -0.050000000000000044]
TCL: Setting parameter firsttimestep to 0
TCL: Setting parameter alchLambda to 0.7499999999999998
Info: NONBONDED TABLE R-SQUARED SPACING: 0.0625
Info: NONBONDED TABLE SIZE: 705 POINTS
TCL: Setting parameter alchLambda2 to 0.6999999999999997
Info: NONBONDED TABLE R-SQUARED SPACING: 0.0625
Info: NONBONDED TABLE SIZE: 705 POINTS
TCL: Running for 1500000 steps
ETITLE: TS BOND ANGLE DIHED IMPRP ELECT VDW BOUNDARY MISC KINETIC TOTAL TEMP POTENTIAL TOTALAVG TEMPAVG PRESSURE GPRESSURE VOLUME PRESSAVG GPRESSAVG
ENERGY: 0 2.1761 3.4734 0.6163 0.0000 -10860.4998 1509.3906 0.0000 0.0000 1768.0256 -7576.8178 299.0123 -9344.8434 -7576.8178 299.0123 536.6676 623.3293 30428.2284 536.6676 623.3293
ENERGY: 300000 1.1369 4.7179 0.0738 0.0000 -10660.2907 1358.4517 0.0000 0.0000 1774.7335 -7521.1768 300.1467 -9295.9103 -7543.6305 298.6875 -138.8364 -103.9148 29997.3508 -213.6455 -148.4962
ENERGY: 600000 1.4025 2.5850 0.4420 0.0000 -10834.3725 1482.2204 0.0000 0.0000 1752.9781 -7594.7445 296.4674 -9347.7226 -7561.0004 298.4040 143.8810 186.4515 30766.8102 -216.5446 -153.3668
ENERGY: 900000 1.0971 1.1792 0.0212 0.0000 -10827.5054 1421.5109 0.0000 0.0000 1766.0259 -7637.6711 298.6741 -9403.6970 -7562.1343 300.1339 -155.5500 -115.5502 30230.7838 -227.2220 -171.5008
ENERGY: 1200000 1.6759 5.5697 0.1591 0.0000 -10855.4160 1465.9347 0.0000 0.0000 1774.8827 -7607.1938 300.1719 -9382.0765 -7573.2140 300.1612 66.6404 71.6236 30668.1577 -223.7826 -171.5235
ENERGY: 1500000 1.4335 3.7861 0.0640 0.0000 -10919.0078 1484.1731 0.0000 0.0000 1835.7518 -7593.7994 310.4662 -9429.5511 -7576.5089 300.4605 18.2232 109.7148 30476.9968 -201.9999 -146.0771
TCL: Running FEP window   7: Lambda1 0.6999999999999997 Lambda2 0.6499999999999997 [dLambda -0.050000000000000044]
TCL: Setting parameter firsttimestep to 0
TCL: Setting parameter alchLambda to 0.6999999999999997
Info: NONBONDED TABLE R-SQUARED SPACING: 0.0625
Info: NONBONDED TABLE SIZE: 705 POINTS
TCL: Setting parameter alchLambda2 to 0.6499999999999997
Info: NONBONDED TABLE R-SQUARED SPACING: 0.0625
Info: NONBONDED TABLE SIZE: 705 POINTS
TCL: Running for 1500000 steps
ETITLE: TS BOND ANGLE DIHED IMPRP ELECT VDW BOUNDARY MISC KINETIC TOTAL TEMP POTENTIAL TOTALAVG TEMPAVG PRESSURE GPRESSURE VOLUME PRESSAVG GPRESSAVG
ENERGY: 0 1.4335 3.7861 0.0640 0.0000 -10918.7425 1484.0992 0.0000 0.0000 1834.8924 -7594.4674 310.3209 -9429.3598 -7594.4674 310.3209 17.6093 99.3323 30476.9968 17.6093 99.3323
ENERGY: 300000 1.5427 1.4109 0.0088 0.0000 -10787.6063 1408.9486 0.0000 0.0000 1764.8762 -7610.8191 298.4796 -9375.6953 -7565.7352 303.9085 -233.8715 -194.5780 30398.3998 -370.1482 -326.5246
ENERGY: 600000 2.2174 3.4037 0.5559 0.0000 -10704.7193 1385.1650 0.0000 0.0000 1819.8168 -7493.5605 307.7713 -9313.3773 -7579.0365 302.4794 -476.2527 -463.7566 30856.4464 -432.0892 -386.8360
ENERGY: 900000 0.6910 2.4009 0.4780 0.0000 -10723.0786 1402.6455 0.0000 0.0000 1778.4999 -7538.3633 300.7837 -9316.8631 -7574.5280 302.1251 -420.1585 -338.2204 30852.8642 -274.7188 -226.0905
ENERGY: 1200000 0.9024 3.3409 0.0707 0.0000 -10747.9688 1455.4723 0.0000 0.0000 1724.3671 -7563.8155 291.6286 -9288.1826 -7576.0344 302.1232 213.7318 279.7613 30513.4640 -130.1331 -73.8124
ENERGY: 1500000 1.1730 2.2271 0.0291 0.0000 -10875.3109 1510.2521 0.0000 0.0000 1749.0937 -7612.5359 295.8105 -9361.6297 -7577.5943 301.7518 96.7720 140.2741 31224.6291 -70.0283 -13.1803
TCL: Running FEP window   8: Lambda1 0.6499999999999997 Lambda2 0.5999999999999996 [dLambda -0.050000000000000044]
TCL: Setting parameter firsttimestep to 0
TCL: Setting parameter alchLambda to 0.6499999999999997
Info: NONBONDED TABLE R-SQUARED SPACING: 0.0625
Info: NONBONDED TABLE SIZE: 705 POINTS
TCL: Setting parameter alchLambda2 to 0.5999999999999996
Info: NONBONDED TABLE R-SQUARED SPACING: 0.0625
Info: NONBONDED TABLE SIZE: 705 POINTS
TCL: Running for 1500000 steps
ETITLE: TS BOND ANGLE DIHED IMPRP ELECT VDW BOUNDARY MISC KINETIC TOTAL TEMP POTENTIAL TOTALAVG TEMPAVG PRESSURE GPRESSURE VOLUME PRESSAVG GPRESSAVG
ENERGY: 0 1.1730 2.2271 0.0291 0.0000 -10875.2692 1509.9368 0.0000 0.0000 1748.2054 -7613.6978 295.6602 -9361.9032 -7613.6978 295.6602 52.7589 129.8787 31224.6291 52.7589 129.8787
ENERGY: 300000 2.8443 2.4836 0.2417 0.0000 -10754.7585 1420.1787 0.0000 0.0000 1800.9901 -7528.0201 304.5873 -9329.0102 -7538.4170 299.9573 -89.8222 -84.0612 30595.1857 -264.6124 -208.9812
ENERGY: 600000 1.0551 2.1913 0.1168 0.0000 -10837.1097 1501.2060 0.0000 0.0000 1758.6171 -7573.9234 297.4211 -9332.5405 -7558.9912 298.1554 387.2973 510.0726 30650.4580 -99.7464 -39.2620
ENERGY: 900000 2.0592 1.7867 0.4642 0.0000 -10742.4371 1370.1107 0.0000 0.0000 1763.2153 -7604.8010 298.1987 -9368.0163 -7559.6241 298.6455 -786.6959 -701.1276 30482.8029 -220.1353 -153.7006
ENERGY: 1200000 1.3722 6.3449 0.0578 0.0000 -10686.6937 1505.0769 0.0000 0.0000 1773.9505 -7399.8914 300.0143 -9173.8419 -7548.7976 299.5455 747.7972 806.5719 30844.7789 -88.8515 -23.1077
ENERGY: 1500000 2.5386 1.5524 0.0484 0.0000 -10522.3064 1343.7242 0.0000 0.0000 1764.6546 -7409.7883 298.4421 -9174.4428 -7545.7780 299.5948 -389.3937 -283.7426 30748.9002 -92.9687 -22.4928
TCL: Running FEP window   9: Lambda1 0.5999999999999996 Lambda2 0.5499999999999996 [dLambda -0.050000000000000044]
TCL: Setting parameter firsttimestep to 0
TCL: Setting parameter alchLambda to 0.5999999999999996
Info: NONBONDED TABLE R-SQUARED SPACING: 0.0625
Info: NONBONDED TABLE SIZE: 705 POINTS
TCL: Setting parameter alchLambda2 to 0.5499999999999996
Info: NONBONDED TABLE R-SQUARED SPACING: 0.0625
Info: NONBONDED TABLE SIZE: 705 POINTS
TCL: Running for 1500000 steps
ETITLE: TS BOND ANGLE DIHED IMPRP ELECT VDW BOUNDARY MISC KINETIC TOTAL TEMP POTENTIAL TOTALAVG TEMPAVG PRESSURE GPRESSURE VOLUME PRESSAVG GPRESSAVG
ENERGY: 0 2.5386 1.5524 0.0484 0.0000 -10522.3390 1343.7676 0.0000 0.0000 1763.7653 -7410.6667 298.2917 -9174.4320 -7410.6667 298.2917 -369.2167 -289.5759 30748.9002 -369.2167 -289.5759
ENERGY: 300000 2.2812 1.4128 0.1841 0.0000 -10771.5951 1442.8552 0.0000 0.0000 1743.6133 -7581.2485 294.8836 -9324.8618 -7540.6353 296.6703 -267.4003 -227.4201 30942.6953 -245.6440 -166.1352
ENERGY: 600000 1.5073 4.9659 0.0774 0.0000 -10680.7100 1438.1471 0.0000 0.0000 1774.9680 -7461.0443 300.1864 -9236.0124 -7525.4383 299.1150 -241.0140 -195.0146 31438.8651 -210.4163 -144.3735
ENERGY: 900000 2.9554 2.1140 1.0191 0.0000 -10700.5514 1424.4419 0.0000 0.0000 1791.6591 -7478.3619 303.0092 -9270.0210 -7528.7671 299.6609 -214.4876 -214.5977 31034.3609 -220.9534 -160.4118
ENERGY: 1200000 1.6441 1.1669 0.2921 0.0000 -10824.8600 1438.3878 0.0000 0.0000 1791.4146 -7591.9545 302.9678 -9383.3691 -7537.6036 300.0628 21.9068 149.3156 30110.1584 -193.6842 -128.7474
ENERGY: 1500000 1.1169 2.3462 0.0248 0.0000 -10952.4084 1564.8221 0.0000 0.0000 1784.2886 -7599.8099 301.7627 -9384.0985 -7541.3246 300.1818 918.9798 1010.5352 30118.4363 -198.6284 -131.9115
TCL: Running FEP window  10: Lambda1 0.5499999999999996 Lambda2 0.4999999999999996 [dLambda -0.04999999999999999]
TCL: Setting parameter firsttimestep to 0
TCL: Setting parameter alchLambda to 0.5499999999999996
Info: NONBONDED TABLE R-SQUARED SPACING: 0.0625
Info: NONBONDED TABLE SIZE: 705 POINTS
TCL: Setting parameter alchLambda2 to 0.4999999999999996
Info: NONBONDED TABLE R-SQUARED SPACING: 0.0625
Info: NONBONDED TABLE SIZE: 705 POINTS
TCL: Running for 1500000 steps
ETITLE: TS BOND ANGLE DIHED IMPRP ELECT VDW BOUNDARY MISC KINETIC TOTAL TEMP POTENTIAL TOTALAVG TEMPAVG PRESSURE GPRESSURE VOLUME PRESSAVG GPRESSAVG
ENERGY: 0 1.1169 2.3462 0.0248 0.0000 -10952.0600 1564.9517 0.0000 0.0000 1783.4178 -7600.2026 301.6154 -9383.6205 -7600.2026 301.6154 919.4478 1007.4586 30118.4363 919.4478 1007.4586
ENERGY: 300000 0.5732 2.3150 0.0425 0.0000 -10641.0211 1328.3568 0.0000 0.0000 1786.7728 -7522.9608 302.1828 -9309.7335 -7577.1689 305.4095 -1022.1470 -958.9108 31135.5291 31.6498 100.8023
ENERGY: 600000 1.4817 5.5949 0.2288 0.0000 -10719.3758 1381.0486 0.0000 0.0000 1762.4598 -7568.5619 298.0709 -9331.0217 -7553.1126 304.1945 -369.0090 -359.6955 30294.7967 -86.8299 -32.9339
ENERGY: 900000 2.4890 4.4330 0.0446 0.0000 -10992.7887 1517.8309 0.0000 0.0000 1748.1686 -7719.8225 295.6540 -9467.9912 -7567.4206 303.5546 88.9431 96.0984 30666.7197 76.7421 128.8905
ENERGY: 1200000 0.8426 5.2506 0.2727 0.0000 -10863.4757 1448.2874 0.0000 0.0000 1786.4111 -7622.4113 302.1217 -9408.8224 -7566.7686 304.2909 -459.6380 -368.5770 30943.4450 43.5305 98.8468
ENERGY: 1500000 1.4602 5.0036 0.0793 0.0000 -10964.5240 1508.3931 0.0000 0.0000 1746.1981 -7703.3895 295.3207 -9449.5876 -7577.2776 302.6882 457.5836 498.7919 29947.5087 155.5250 207.6697
TCL: Running FEP window  11: Lambda1 0.4999999999999996 Lambda2 0.4499999999999996 [dLambda -0.04999999999999999]
TCL: Setting parameter firsttimestep to 0
TCL: Setting parameter alchLambda to 0.4999999999999996
Info: NONBONDED TABLE R-SQUARED SPACING: 0.0625
Info: NONBONDED TABLE SIZE: 705 POINTS
TCL: Setting parameter alchLambda2 to 0.4499999999999996
Info: NONBONDED TABLE R-SQUARED SPACING: 0.0625
Info: NONBONDED TABLE SIZE: 705 POINTS
TCL: Running for 1500000 steps
ETITLE: TS BOND ANGLE DIHED IMPRP ELECT VDW BOUNDARY MISC KINETIC TOTAL TEMP POTENTIAL TOTALAVG TEMPAVG PRESSURE GPRESSURE VOLUME PRESSAVG GPRESSAVG
ENERGY: 0 1.4602 5.0036 0.0793 0.0000 -10964.0889 1508.3065 0.0000 0.0000 1745.3157 -7703.9235 295.1715 -9449.2392 -7703.9235 295.1715 425.7822 493.5284 29947.5087 425.7822 493.5284
ENERGY: 300000 2.1168 2.4800 0.5539 0.0000 -10735.8523 1471.7010 0.0000 0.0000 1759.9539 -7499.0467 297.6471 -9259.0006 -7589.2530 297.6508 488.8796 524.7733 30429.8119 189.3280 233.4402
ENERGY: 600000 2.0245 2.8232 0.8546 0.0000 -10719.8582 1382.7273 0.0000 0.0000 1744.5862 -7586.8425 295.0481 -9331.4287 -7591.1083 297.4222 -740.3617 -707.3528 30813.8984 -32.2351 13.4227
ENERGY: 900000 1.6311 2.9686 0.0610 0.0000 -10800.1568 1463.0561 0.0000 0.0000 1743.5880 -7588.8519 294.8793 -9332.4399 -7586.4044 297.8006 134.7526 204.4318 30531.8744 47.9721 98.4893
ENERGY: 1200000 0.5284 3.5007 0.3125 0.0000 -10716.3170 1436.9514 0.0000 0.0000 1813.9405 -7461.0835 306.7775 -9275.0239 -7580.8435 298.8780 -198.8040 -153.4506 31161.6447 51.9717 101.3827
ENERGY: 1500000 0.8376 2.8442 0.0280 0.0000 -10774.7982 1457.0700 0.0000 0.0000 1787.8966 -7526.1219 302.3729 -9314.0185 -7572.9054 299.4553 130.3853 192.0456 30528.3440 22.6859 75.1310
TCL: Running FEP window  12: Lambda1 0.4499999999999996 Lambda2 0.39999999999999963 [dLambda -0.04999999999999999]
TCL: Setting parameter firsttimestep to 0
TCL: Setting parameter alchLambda to 0.4499999999999996
Info: NONBONDED TABLE R-SQUARED SPACING: 0.0625
Info: NONBONDED TABLE SIZE: 705 POINTS
TCL: Setting parameter alchLambda2 to 0.39999999999999963
Info: NONBONDED TABLE R-SQUARED SPACING: 0.0625
Info: NONBONDED TABLE SIZE: 705 POINTS
TCL: Running for 1500000 steps
ETITLE: TS BOND ANGLE DIHED IMPRP ELECT VDW BOUNDARY MISC KINETIC TOTAL TEMP POTENTIAL TOTALAVG TEMPAVG PRESSURE GPRESSURE VOLUME PRESSAVG GPRESSAVG
ENERGY: 0 0.8376 2.8442 0.0280 0.0000 -10774.7987 1456.7333 0.0000 0.0000 1787.0077 -7527.3478 302.2225 -9314.3556 -7527.3478 302.2225 94.9437 184.6011 30528.3440 94.9437 184.6011
ENERGY: 300000 3.2285 4.3531 0.0174 0.0000 -10736.4127 1410.3226 0.0000 0.0000 1769.3990 -7549.0921 299.2445 -9318.4911 -7542.0234 301.6621 -431.6652 -373.0073 30897.7670 7.6531 72.8312
ENERGY: 600000 1.4932 2.2932 0.7124 0.0000 -10745.2245 1447.7767 0.0000 0.0000 1820.1613 -7472.7877 307.8296 -9292.9490 -7547.8315 301.4073 222.5919 279.3263 30444.3799 93.5794 150.4420
ENERGY: 900000 0.7656 4.7378 0.2202 0.0000 -10856.9459 1479.8736 0.0000 0.0000 1788.9763 -7582.3724 302.5555 -9371.3486 -7542.0756 302.3050 315.9999 380.8223 30114.2091 39.6626 89.0593
ENERGY: 1200000 1.1636 2.4749 0.6377 0.0000 -10850.5700 1482.3519 0.0000 0.0000 1742.9081 -7621.0338 294.7643 -9363.9418 -7547.7453 301.6397 391.2280 490.0876 29925.6572 51.3953 103.5049
ENERGY: 1500000 1.6564 1.2272 0.3217 0.0000 -10617.3504 1358.0228 0.0000 0.0000 1804.1049 -7452.0174 305.1141 -9256.1223 -7541.2031 301.9088 -545.3323 -494.2127 31061.9589 33.7497 84.6522
TCL: Running FEP window  13: Lambda1 0.39999999999999963 Lambda2 0.34999999999999964 [dLambda -0.04999999999999999]
TCL: Setting parameter firsttimestep to 0
TCL: Setting parameter alchLambda to 0.39999999999999963
Info: NONBONDED TABLE R-SQUARED SPACING: 0.0625
Info: NONBONDED TABLE SIZE: 705 POINTS
TCL: Setting parameter alchLambda2 to 0.34999999999999964
Info: NONBONDED TABLE R-SQUARED SPACING: 0.0625
Info: NONBONDED TABLE SIZE: 705 POINTS
TCL: Running for 1500000 steps
ETITLE: TS BOND ANGLE DIHED IMPRP ELECT VDW BOUNDARY MISC KINETIC TOTAL TEMP POTENTIAL TOTALAVG TEMPAVG PRESSURE GPRESSURE VOLUME PRESSAVG GPRESSAVG
ENERGY: 0 1.6564 1.2272 0.3217 0.0000 -10617.3494 1357.9506 0.0000 0.0000 1803.2521 -7452.9414 304.9698 -9256.1935 -7452.9414 304.9698 -582.9425 -499.1757 31061.9589 -582.9425 -499.1757
ENERGY: 300000 0.5935 2.9991 0.0534 0.0000 -10847.4675 1465.0264 0.0000 0.0000 1790.6330 -7588.1620 302.8357 -9378.7950 -7494.5511 305.9261 -75.6365 21.5901 30746.2535 -545.8971 -458.5142
ENERGY: 600000 1.1740 2.4903 0.5174 0.0000 -10791.5369 1448.3954 0.0000 0.0000 1823.0852 -7515.8746 308.3240 -9338.9598 -7513.6841 305.4202 97.8622 156.3151 30419.2130 -418.3768 -350.0016
ENERGY: 900000 2.7209 4.5159 0.3331 0.0000 -10776.1627 1438.2119 0.0000 0.0000 1732.0136 -7598.3672 292.9218 -9330.3809 -7526.9434 304.6568 -391.6477 -322.9166 31127.5268 -431.0493 -361.5986
ENERGY: 1200000 1.7484 2.2537 0.0089 0.0000 -10886.9223 1502.4054 0.0000 0.0000 1749.2108 -7631.2952 295.8303 -9380.5060 -7538.2355 303.2827 488.8834 503.9563 29948.9277 -226.7748 -160.0081
ENERGY: 1500000 1.2258 5.2555 0.7238 0.0000 -10951.3497 1519.5631 0.0000 0.0000 1736.6324 -7687.9490 293.7030 -9424.5814 -7547.8814 302.3933 217.2189 269.9462 30281.3540 -152.4676 -86.7227
TCL: Running FEP window  14: Lambda1 0.34999999999999964 Lambda2 0.29999999999999966 [dLambda -0.04999999999999999]
TCL: Setting parameter firsttimestep to 0
TCL: Setting parameter alchLambda to 0.34999999999999964
Info: NONBONDED TABLE R-SQUARED SPACING: 0.0625
Info: NONBONDED TABLE SIZE: 705 POINTS
TCL: Setting parameter alchLambda2 to 0.29999999999999966
Info: NONBONDED TABLE R-SQUARED SPACING: 0.0625
Info: NONBONDED TABLE SIZE: 705 POINTS
TCL: Running for 1500000 steps
ETITLE: TS BOND ANGLE DIHED IMPRP ELECT VDW BOUNDARY MISC KINETIC TOTAL TEMP POTENTIAL TOTALAVG TEMPAVG PRESSURE GPRESSURE VOLUME PRESSAVG GPRESSAVG
ENERGY: 0 1.2258 5.2555 0.7238 0.0000 -10951.3496 1519.8356 0.0000 0.0000 1735.7380 -7688.5708 293.5517 -9424.3089 -7688.5708 293.5517 175.2972 264.6388 30281.3540 175.2972 264.6388
ENERGY: 300000 0.3931 4.1990 0.3249 0.0000 -10896.7057 1508.3825 0.0000 0.0000 1784.8041 -7598.6022 301.8499 -9383.4063 -7615.2135 301.0371 308.1476 371.8523 30425.4189 60.6092 123.7310
ENERGY: 600000 2.3783 5.4014 1.6353 0.0000 -10840.6344 1457.0190 0.0000 0.0000 1817.4990 -7556.7014 307.3793 -9374.2005 -7573.8196 302.3439 -72.8937 -33.1863 30850.4472 -192.6111 -132.6708
ENERGY: 900000 3.0481 3.4613 0.0522 0.0000 -10750.7213 1494.2484 0.0000 0.0000 1812.3885 -7437.5228 306.5150 -9249.9113 -7557.6925 301.5468 458.8611 568.7988 30919.4247 -136.9445 -69.0104
ENERGY: 1200000 6.4989 2.5883 0.0471 0.0000 -10843.4042 1538.0908 0.0000 0.0000 1799.1755 -7497.0037 304.2804 -9296.1791 -7542.0499 302.9292 746.3544 824.4252 30369.7521 -75.1604 -5.8929
ENERGY: 1500000 1.2512 2.3756 0.0392 0.0000 -10724.0707 1419.5055 0.0000 0.0000 1800.6935 -7500.2057 304.5371 -9300.8992 -7544.0136 302.4084 -87.5173 -37.4586 30323.1332 -144.7540 -82.1830
TCL: Running FEP window  15: Lambda1 0.29999999999999966 Lambda2 0.24999999999999967 [dLambda -0.04999999999999999]
TCL: Setting parameter firsttimestep to 0
TCL: Setting parameter alchLambda to 0.29999999999999966
Info: NONBONDED TABLE R-SQUARED SPACING: 0.0625
Info: NONBONDED TABLE SIZE: 705 POINTS
TCL: Setting parameter alchLambda2 to 0.24999999999999967
Info: NONBONDED TABLE R-SQUARED SPACING: 0.0625
Info: NONBONDED TABLE SIZE: 705 POINTS
TCL: Running for 1500000 steps
ETITLE: TS BOND ANGLE DIHED IMPRP ELECT VDW BOUNDARY MISC KINETIC TOTAL TEMP POTENTIAL TOTALAVG TEMPAVG PRESSURE GPRESSURE VOLUME PRESSAVG GPRESSAVG
ENERGY: 0 1.2512 2.3756 0.0392 0.0000 -10724.0705 1419.3829 0.0000 0.0000 1799.8213 -7501.2004 304.3896 -9301.0216 -7501.2004 304.3896 -111.9188 -39.5413 30323.1332 -111.9188 -39.5413
ENERGY: 300000 2.0796 2.6839 0.3208 0.0000 -10832.5431 1447.9948 0.0000 0.0000 1832.8534 -7546.6107 309.9761 -9379.4641 -7560.1257 302.3160 -137.7424 -119.7616 30475.8911 -36.1287 10.6584
ENERGY: 600000 0.6279 2.2127 0.0685 0.0000 -10717.0827 1411.9179 0.0000 0.0000 1823.3933 -7478.8624 308.3762 -9302.2557 -7550.4282 304.0543 -235.9221 -230.2510 30716.2006 -66.8364 -25.0658
ENERGY: 900000 2.9584 2.5105 0.1205 0.0000 -10626.7805 1335.4900 0.0000 0.0000 1798.2699 -7487.4312 304.1272 -9285.7011 -7549.2246 303.0724 -775.0898 -673.8298 30459.6578 -255.0409 -205.4156
ENERGY: 1200000 1.0703 2.8898 0.1991 0.0000 -10797.3580 1486.5399 0.0000 0.0000 1800.0753 -7506.5836 304.4326 -9306.6589 -7534.4634 303.1444 357.0885 494.7513 30450.2764 -258.0286 -202.4606
ENERGY: 1500000 1.8566 3.3085 0.0346 0.0000 -10781.1711 1450.0232 0.0000 0.0000 1819.6592 -7506.2891 307.7446 -9325.9483 -7536.5856 302.9587 38.1327 99.5759 30492.4037 -214.9311 -160.6403
TCL: Running FEP window  16: Lambda1 0.24999999999999967 Lambda2 0.19999999999999968 [dLambda -0.04999999999999999]
TCL: Setting parameter firsttimestep to 0
TCL: Setting parameter alchLambda to 0.24999999999999967
Info: NONBONDED TABLE R-SQUARED SPACING: 0.0625
Info: NONBONDED TABLE SIZE: 705 POINTS
TCL: Setting parameter alchLambda2 to 0.19999999999999968
Info: NONBONDED TABLE R-SQUARED SPACING: 0.0625
Info: NONBONDED TABLE SIZE: 705 POINTS
TCL: Running for 1500000 steps
ETITLE: TS BOND ANGLE DIHED IMPRP ELECT VDW BOUNDARY MISC KINETIC TOTAL TEMP POTENTIAL TOTALAVG TEMPAVG PRESSURE GPRESSURE VOLUME PRESSAVG GPRESSAVG
ENERGY: 0 1.8566 3.3085 0.0346 0.0000 -10781.1716 1450.1969 0.0000 0.0000 1818.7804 -7506.9946 307.5960 -9325.7750 -7506.9946 307.5960 16.8744 96.6485 30492.4037 16.8744 96.6485
ENERGY: 300000 1.4276 4.2718 0.5085 0.0000 -10740.2014 1482.5829 0.0000 0.0000 1769.1679 -7482.2426 299.2054 -9251.4106 -7536.9600 303.0498 70.1070 95.6221 31336.4676 64.2685 128.7055
ENERGY: 600000 4.5951 1.2245 0.0138 0.0000 -10812.3907 1457.0554 0.0000 0.0000 1795.7004 -7553.8014 303.6927 -9349.5018 -7528.5622 302.0178 -18.5596 50.4183 30219.3489 31.0298 97.6186
ENERGY: 900000 2.5659 3.3221 0.5859 0.0000 -10777.6228 1416.7615 0.0000 0.0000 1778.6718 -7575.7156 300.8128 -9354.3874 -7539.0661 302.2583 -332.4145 -279.9713 30200.0917 -89.3029 -25.3826
ENERGY: 1200000 1.0955 2.8385 0.1758 0.0000 -10714.6521 1421.0065 0.0000 0.0000 1729.3971 -7560.1387 292.4793 -9289.5357 -7534.8690 302.3944 -245.9234 -234.7638 30935.5881 -40.5149 20.1189
ENERGY: 1500000 0.9015 1.8920 0.0451 0.0000 -10745.3578 1438.5072 0.0000 0.0000 1792.3374 -7511.6745 303.1239 -9304.0119 -7541.1209 301.4655 -242.4987 -175.4497 30783.2832 -40.3478 18.1698
TCL: Running FEP window  17: Lambda1 0.19999999999999968 Lambda2 0.1499999999999997 [dLambda -0.04999999999999999]
TCL: Setting parameter firsttimestep to 0
TCL: Setting parameter alchLambda to 0.19999999999999968
Info: NONBONDED TABLE R-SQUARED SPACING: 0.0625
Info: NONBONDED TABLE SIZE: 705 POINTS
TCL: Setting parameter alchLambda2 to 0.1499999999999997
Info: NONBONDED TABLE R-SQUARED SPACING: 0.0625
Info: NONBONDED TABLE SIZE: 705 POINTS
TCL: Running for 1500000 steps
ETITLE: TS BOND ANGLE DIHED IMPRP ELECT VDW BOUNDARY MISC KINETIC TOTAL TEMP POTENTIAL TOTALAVG TEMPAVG PRESSURE GPRESSURE VOLUME PRESSAVG GPRESSAVG
ENERGY: 0 0.9015 1.8920 0.0451 0.0000 -10745.3576 1438.9183 0.0000 0.0000 1791.4473 -7512.1533 302.9734 -9303.6006 -7512.1533 302.9734 -263.6220 -175.6361 30783.2832 -263.6220 -175.6361
ENERGY: 300000 0.9386 3.4528 0.7138 0.0000 -10780.0629 1403.5754 0.0000 0.0000 1788.3660 -7583.0162 302.4523 -9371.3823 -7529.3527 300.6286 -157.3057 -105.3996 29942.8971 -75.7538 4.2599
ENERGY: 600000 1.9842 4.5016 0.0167 0.0000 -10733.3782 1448.8796 0.0000 0.0000 1775.9579 -7502.0382 300.3538 -9277.9961 -7519.6561 300.7474 -87.5563 -18.1448 30862.3733 57.2893 136.4288
ENERGY: 900000 0.5032 2.8133 0.6418 0.0000 -10928.5093 1515.2449 0.0000 0.0000 1700.8405 -7708.4656 287.6498 -9409.3061 -7550.8784 299.9178 223.7178 253.6235 30660.2559 32.3626 106.5089
ENERGY: 1200000 2.8017 1.8058 0.5740 0.0000 -10826.9981 1488.6724 0.0000 0.0000 1780.2813 -7552.8628 301.0850 -9333.1441 -7556.6797 299.5555 226.3467 234.4290 30721.3183 88.9413 154.0031
ENERGY: 1500000 0.3957 1.6411 0.3912 0.0000 -10837.5373 1463.0070 0.0000 0.0000 1847.4949 -7524.6074 312.4523 -9372.1023 -7560.9807 300.3356 404.4000 470.0719 29847.5883 89.5628 152.0415
TCL: Running FEP window  18: Lambda1 0.1499999999999997 Lambda2 0.09999999999999969 [dLambda -0.05 ]
TCL: Setting parameter firsttimestep to 0
TCL: Setting parameter alchLambda to 0.1499999999999997
Info: NONBONDED TABLE R-SQUARED SPACING: 0.0625
Info: NONBONDED TABLE SIZE: 705 POINTS
TCL: Setting parameter alchLambda2 to 0.09999999999999969
Info: NONBONDED TABLE R-SQUARED SPACING: 0.0625
Info: NONBONDED TABLE SIZE: 705 POINTS
TCL: Running for 1500000 steps
ETITLE: TS BOND ANGLE DIHED IMPRP ELECT VDW BOUNDARY MISC KINETIC TOTAL TEMP POTENTIAL TOTALAVG TEMPAVG PRESSURE GPRESSURE VOLUME PRESSAVG GPRESSAVG
ENERGY: 0 0.3957 1.6411 0.3912 0.0000 -10837.5376 1463.0983 0.0000 0.0000 1846.6108 -7525.4004 312.3027 -9372.0112 -7525.4004 312.3027 376.4318 468.5806 29847.5883 376.4318 468.5806
ENERGY: 300000 2.0053 5.1510 0.0300 0.0000 -10682.0118 1443.2834 0.0000 0.0000 1740.6296 -7490.9125 294.3790 -9231.5421 -7514.7862 303.7187 285.0413 381.5341 30232.9357 84.0927 165.9698
ENERGY: 600000 1.4804 3.4369 0.2520 0.0000 -10907.0677 1500.6481 0.0000 0.0000 1825.3597 -7575.8905 308.7087 -9401.2503 -7536.3661 302.9703 285.5735 317.7025 30294.3127 181.7669 252.0607
ENERGY: 900000 0.9888 2.8692 0.1679 0.0000 -10768.0857 1396.5730 0.0000 0.0000 1772.0040 -7595.4828 299.6851 -9367.4869 -7555.5756 302.4425 -440.6502 -377.2738 30426.1595 36.4430 105.1113
ENERGY: 1200000 1.1297 0.8976 0.1915 0.0000 -10694.7504 1425.9102 0.0000 0.0000 1779.2005 -7487.4208 300.9022 -9266.6214 -7556.0151 301.4981 -75.3839 27.4925 30469.2248 49.7225 119.9192
ENERGY: 1500000 2.0855 2.3109 0.1241 0.0000 -10874.7120 1472.7047 0.0000 0.0000 1830.4900 -7566.9969 309.5764 -9397.4869 -7556.7853 302.0482 19.7773 87.8607 30365.8400 51.7614 122.8906
TCL: Running FEP window  19: Lambda1 0.09999999999999969 Lambda2 0.049999999999999684 [dLambda -0.05 ]
TCL: Setting parameter firsttimestep to 0
TCL: Setting parameter alchLambda to 0.09999999999999969
Info: NONBONDED TABLE R-SQUARED SPACING: 0.0625
Info: NONBONDED TABLE SIZE: 705 POINTS
TCL: Setting parameter alchLambda2 to 0.049999999999999684
Info: NONBONDED TABLE R-SQUARED SPACING: 0.0625
Info: NONBONDED TABLE SIZE: 705 POINTS
TCL: Running for 1500000 steps
ETITLE: TS BOND ANGLE DIHED IMPRP ELECT VDW BOUNDARY MISC KINETIC TOTAL TEMP POTENTIAL TOTALAVG TEMPAVG PRESSURE GPRESSURE VOLUME PRESSAVG GPRESSAVG
ENERGY: 0 2.0855 2.3109 0.1241 0.0000 -10874.7116 1471.6239 0.0000 0.0000 1829.5973 -7568.9699 309.4254 -9398.5672 -7568.9699 309.4254 1.3827 78.2106 30365.8400 1.3827 78.2106
ENERGY: 300000 1.1884 5.5447 0.3667 0.0000 -10819.0636 1468.3040 0.0000 0.0000 1735.0776 -7608.5822 293.4400 -9343.6598 -7589.5318 302.6444 56.0735 164.5754 30467.3807 -148.4077 -68.7775
ENERGY: 600000 2.8974 4.3887 0.0753 0.0000 -10753.1267 1426.9069 0.0000 0.0000 1707.2976 -7611.5608 288.7418 -9318.8584 -7586.4869 299.6638 -245.2732 -197.6206 30595.9627 -156.7196 -77.5025
ENERGY: 900000 1.7217 2.5513 0.2260 0.0000 -10844.7162 1487.3352 0.0000 0.0000 1736.5561 -7616.3258 293.6901 -9352.8819 -7582.4071 300.1286 79.4262 110.9064 30650.0651 -77.7091 -12.5304
ENERGY: 1200000 0.8837 3.1476 0.0641 0.0000 -10778.5410 1390.1304 0.0000 0.0000 1826.5064 -7557.8087 308.9026 -9384.3151 -7583.9651 300.9877 -615.9883 -597.5525 30760.4643 -130.8796 -58.7967
ENERGY: 1500000 2.8041 2.9526 0.0479 0.0000 -10741.7083 1378.4620 0.0000 0.0000 1806.0932 -7551.3486 305.4503 -9357.4418 -7574.8212 300.9747 -654.6333 -565.2418 30318.5839 -172.8111 -97.2984
TCL: Running FEP window  20: Lambda1 0.049999999999999684 Lambda2 0.0    [dLambda -0.049999999999999684]
TCL: Setting parameter firsttimestep to 0
TCL: Setting parameter alchLambda to 0.049999999999999684
Info: NONBONDED TABLE R-SQUARED SPACING: 0.0625
Info: NONBONDED TABLE SIZE: 705 POINTS
TCL: Setting parameter alchLambda2 to 0.0
Info: NONBONDED TABLE R-SQUARED SPACING: 0.0625
Info: NONBONDED TABLE SIZE: 705 POINTS
TCL: Running for 1500000 steps
ETITLE: TS BOND ANGLE DIHED IMPRP ELECT VDW BOUNDARY MISC KINETIC TOTAL TEMP POTENTIAL TOTALAVG TEMPAVG PRESSURE GPRESSURE VOLUME PRESSAVG GPRESSAVG
ENERGY: 0 2.8041 2.9526 0.0479 0.0000 -10741.7089 1378.7743 0.0000 0.0000 1805.2057 -7551.9242 305.3002 -9357.1300 -7551.9242 305.3002 -624.4191 -562.3727 30318.5839 -624.4191 -562.3727
ENERGY: 100000 2.3200 3.7140 0.0680 0.0000 -10701.3478 1417.2377 0.0000 0.0000 1752.4892 -7525.5189 296.3847 -9278.0081 -7538.7216 300.8425 -52.5167 -19.0950 30283.4774 -338.4679 -290.7339
ENERGY: 200000 1.7968 2.4569 0.0819 0.0000 -10744.9503 1444.6894 0.0000 0.0000 1761.0134 -7534.9119 297.8263 -9295.9253 -7537.4517 299.8371 -54.8368 0.6233 30852.8282 -243.9242 -193.6148
