Info: SIMULATION PARAMETERS:
Info: TIMESTEP               2
Info: NUMBER OF STEPS        0
Info: STEPS PER CYCLE        10
Info: PERIODIC CELL BASIS 1  37.435 0 0
Info: PERIODIC CELL BASIS 2  0 37.796 0
Info: PERIODIC CELL BASIS 3  0 0 38.379
Info: PERIODIC CELL CENTER   0 0 0
Info: WRAPPING WATERS AROUND PERIODIC BOUNDARIES ON OUTPUT.
Info: WRAPPING ALL CLUSTERS AROUND PERIODIC BOUNDARIES ON OUTPUT.
Info: FIRST LDB TIMESTEP     50
Info: LAST LDB TIMESTEP     -1
Info: HOM BACKGROUND SCALING 1
Info: PME BACKGROUND SCALING 1
Info: MIN ATOMS PER PATCH    40
Info: EMPTY PATCH LOAD       40 ATOMS
Info: INITIAL TEMPERATURE    300
Info: CENTER OF MASS MOVING INITIALLY? NO
Info: DIELECTRIC             1
Info: EXCLUDE                SCALED ONE-FOUR
Info: 1-4 ELECTROSTATICS SCALED BY 0.833333
Info: MODIFIED 1-4 VDW PARAMETERS WILL BE USED
Info: DCD FILENAME           mobley_4434915_min.dcd
Info: DCD FREQUENCY          5000
Info: DCD FIRST STEP         5000
Info: DCD FILE WILL CONTAIN UNIT CELL DATA
Info: XST FILENAME           mobley_4434915_min.xst
Info: XST FREQUENCY          5000
Info: NO VELOCITY DCD OUTPUT
Info: NO FORCE DCD OUTPUT
Info: OUTPUT FILENAME        mobley_4434915_min
Info: BINARY OUTPUT FILES WILL BE USED
Info: RESTART FILENAME       mobley_4434915_min.restart
Info: RESTART FREQUENCY      5000
Info: BINARY RESTART FILES WILL BE USED
Info: CUTOFF                 9
Info: PAIRLIST DISTANCE      11
Info: PAIRLIST SHRINK RATE   0.01
Info: PAIRLIST GROW RATE     0.01
Info: PAIRLIST TRIGGER       0.3
Info: PAIRLISTS PER CYCLE    2
Info: PAIRLISTS ENABLED
Info: MARGIN                 8
Info: HYDROGEN GROUP CUTOFF  2.5
Info: PATCH DIMENSION        21.5
Info: ENERGY OUTPUT STEPS    5000
Info: ENERGY EVALUATION STEPS    5000
Info: OUTPUT ENERGY PRECISION 4
Info: CROSSTERM ENERGY INCLUDED IN DIHEDRAL
Info: TIMING OUTPUT STEPS    50000
Info: PRESSURE OUTPUT STEPS  5000
Info: LANGEVIN DYNAMICS ACTIVE
Info: LANGEVIN TEMPERATURE   300
Info: LANGEVIN USING BBK INTEGRATOR
Info: LANGEVIN DAMPING COEFFICIENT IS 1 INVERSE PS
Info: LANGEVIN DYNAMICS APPLIED TO HYDROGENS
Info: LANGEVIN PISTON PRESSURE CONTROL ACTIVE
Info:        TARGET PRESSURE IS 1.01325 BAR
Info:     OSCILLATION PERIOD IS 50 FS
Info:             DECAY TIME IS 25 FS
Info:     PISTON TEMPERATURE IS 300 K
Info:       PRESSURE CONTROL IS GROUP-BASED
Info:    INITIAL STRAIN RATE IS 0 0 0
Info:       CELL FLUCTUATION IS ISOTROPIC
Info: PARTICLE MESH EWALD (PME) ACTIVE
Info: PME TOLERANCE               1e-06
Info: PME EWALD COEFFICIENT       0.348832
Info: PME INTERPOLATION ORDER     4
Info: PME GRID DIMENSIONS         40 40 40
Info: PME MAXIMUM GRID SPACING    1
Info: FULL ELECTROSTATIC EVALUATION FREQUENCY      2
Info: USING VERLET I (r-RESPA) MTS SCHEME.
Info: C1 SPLITTING OF LONG RANGE ELECTROSTATICS
Info: PLACING ATOMS IN PATCHES BY HYDROGEN GROUPS
Info: RIGID BONDS TO HYDROGEN : ALL
Info:         ERROR TOLERANCE : 1e-08
Info:          MAX ITERATIONS : 100
Info: RIGID WATER USING SETTLE ALGORITHM
Info: RANDOM NUMBER SEED     1741338011
Info: USE HYDROGEN BONDS?    NO
Info: Using AMBER format force field!
Info: AMBER PARM FILE        mobley_4434915.prmtop
Info: COORDINATE PDB         mobley_4434915.pdb
Info: Exclusions will be read from PARM file!
Info: SCNB (VDW SCALING)     2
Info: USING ARITHMETIC MEAN TO COMBINE L-J SIGMA PARAMETERS
Info: SUMMARY OF PARAMETERS:
Info: 4 BONDS
Info: 2 ANGLES
Info:   2 HARMONIC
Info:   0 COSINE-BASED
Info: 0 DIHEDRAL
Info: 0 IMPROPER
Info: 0 CROSSTERM
Info: 0 VDW
Info: 15 VDW_PAIRS
Info: 0 NBTHOLE_PAIRS
Info: STRUCTURE SUMMARY:
Info: 3821 ATOMS
Info: 3820 BONDS
Info: 6 ANGLES
Info: 0 DIHEDRALS
Info: 0 IMPROPERS
Info: 0 CROSSTERMS
Info: 3826 EXCLUSIONS
Info: 3819 RIGID BONDS
Info: 7644 DEGREES OF FREEDOM
Info: 1274 HYDROGEN GROUPS
Info: 4 ATOMS IN LARGEST HYDROGEN GROUP
Info: 1274 MIGRATION GROUPS
Info: 4 ATOMS IN LARGEST MIGRATION GROUP
Info: TOTAL MASS = 22966.8 amu
Info: TOTAL CHARGE = -0.000100018 e
Info: MASS DENSITY = 0.702333 g/cm^3
Info: ATOM DENSITY = 0.0703655 atoms/A^3
Info: ADDED 0 IMPLICIT EXCLUSIONS
Info: NONBONDED TABLE R-SQUARED SPACING: 0.0625
Info: NONBONDED TABLE SIZE: 705 POINTS
Info: REMOVING COM VELOCITY -0.206806 0.071797 -0.0125598
TCL: Minimizing for 2000 steps
ETITLE: TS BOND ANGLE DIHED IMPRP ELECT VDW BOUNDARY MISC KINETIC TOTAL TEMP POTENTIAL TOTAL3 TEMPAVG PRESSURE GPRESSURE VOLUME PRESSAVG GPRESSAVG
ENERGY: 0 0.2960 0.2611 0.0000 0.0000 -11591.7149 1323.3463 0.0000 0.0000 0.0000 -10267.8116 0.0000 -10267.8116 -10267.8116 0.0000 10549.0305 -14928.4989 54302.1884 10549.0305 -14928.4989
ENERGY: 400 1.1303 1.2923 0.0000 0.0000 -16569.5187 2679.5103 0.0000 0.0000 0.0000 -13887.5858 0.0000 -13887.5858 -13887.5858 0.0000 17318.0774 17401.9589 54302.1884 17318.0774 17401.9589
ENERGY: 800 11.2715 4.2559 0.0000 0.0000 -17205.8704 2903.1403 0.0000 0.0000 0.0000 -14287.2027 0.0000 -14287.2027 -14287.2027 0.0000 18601.9283 18666.3035 54302.1884 18601.9283 18666.3035
ENERGY: 1200 0.1861 0.2921 0.0000 0.0000 -17466.7640 3014.0452 0.0000 0.0000 0.0000 -14452.2405 0.0000 -14452.2405 -14452.2405 0.0000 19315.3928 19357.7401 54302.1884 19315.3928 19357.7401
ENERGY: 1600 0.1002 0.2936 0.0000 0.0000 -17586.3892 3057.7691 0.0000 0.0000 0.0000 -14528.2263 0.0000 -14528.2263 -14528.2263 0.0000 19633.7995 19662.4583 54302.1884 19633.7995 19662.4583
ENERGY: 2000 0.0008 0.2282 0.0000 0.0000 -17636.1644 3069.2078 0.0000 0.0000 0.0000 -14566.7277 0.0000 -14566.7277 -14566.7277 0.0000 19729.6614 19766.1908 54302.1884 19729.6614 19766.1908
TCL: Exiting due to exit command.
Info: NAMD 3.0.1 for Linux-x86_64-multicore
Info: Please visit http://www.ks.uiuc.edu/Research/namd/
Info: for updates, documentation, and support information.
Info: Please cite Phillips et al., J. Chem. Phys. 153:044130 (2020) doi:10.1063/5.0014475
Info: in all publications reporting results obtained with NAMD.
Info: Based on Charm++/Converse 80000 for multicore-linux-x86_64-gcc
Info: Built Mon Oct 14 11:11:06 CDT 2024 by dhardy on athine.ks.uiuc.edu
Info: 1 NAMD  3.0.1  Linux-x86_64-multicore  16    k064  z5358697
Info: Running on 16 processors, 1 nodes, 1 physical nodes.
Info: CPU topology information available.
Info: Charm++/Converse parallel runtime startup completed at 0.00978239 s
Info: 1043.46 MB of memory in use based on /proc/self/stat
Info: Configuration file is mobley_4434915_equil.namd
Info: Working in the current directory /srv/scratch/z5358697/prod_prep_5/4434915
TCL: Running 25000 steps at 30 kelvin.
TCL: Suspending until startup complete.
Info: SIMULATION PARAMETERS:
Info: TIMESTEP               2
Info: NUMBER OF STEPS        0
Info: STEPS PER CYCLE        10
Info: PERIODIC CELL BASIS 1  37.435 0 0
Info: PERIODIC CELL BASIS 2  0 37.796 0
Info: PERIODIC CELL BASIS 3  0 0 38.379
Info: PERIODIC CELL CENTER   0 0 0
Info: WRAPPING WATERS AROUND PERIODIC BOUNDARIES ON OUTPUT.
Info: WRAPPING ALL CLUSTERS AROUND PERIODIC BOUNDARIES ON OUTPUT.
Info: FIRST LDB TIMESTEP     50
Info: LAST LDB TIMESTEP     -1
Info: HOM BACKGROUND SCALING 1
Info: PME BACKGROUND SCALING 1
Info: MIN ATOMS PER PATCH    40
Info: EMPTY PATCH LOAD       40 ATOMS
Info: INITIAL TEMPERATURE    300
Info: CENTER OF MASS MOVING INITIALLY? NO
Info: DIELECTRIC             1
Info: EXCLUDE                SCALED ONE-FOUR
Info: 1-4 ELECTROSTATICS SCALED BY 0.833333
Info: MODIFIED 1-4 VDW PARAMETERS WILL BE USED
Info: DCD FILENAME           mobley_4434915_equil.dcd
Info: DCD FREQUENCY          5000
Info: DCD FIRST STEP         5000
Info: DCD FILE WILL CONTAIN UNIT CELL DATA
Info: XST FILENAME           mobley_4434915_equil.xst
Info: XST FREQUENCY          5000
Info: NO VELOCITY DCD OUTPUT
Info: NO FORCE DCD OUTPUT
Info: OUTPUT FILENAME        mobley_4434915_equil
Info: BINARY OUTPUT FILES WILL BE USED
Info: RESTART FILENAME       mobley_4434915_equil.restart
Info: RESTART FREQUENCY      5000
Info: BINARY RESTART FILES WILL BE USED
Info: CUTOFF                 9
Info: PAIRLIST DISTANCE      11
Info: PAIRLIST SHRINK RATE   0.01
Info: PAIRLIST GROW RATE     0.01
Info: PAIRLIST TRIGGER       0.3
Info: PAIRLISTS PER CYCLE    2
Info: PAIRLISTS ENABLED
Info: MARGIN                 8
Info: HYDROGEN GROUP CUTOFF  2.5
Info: PATCH DIMENSION        21.5
Info: ENERGY OUTPUT STEPS    5000
Info: ENERGY EVALUATION STEPS    5000
Info: OUTPUT ENERGY PRECISION 4
Info: CROSSTERM ENERGY INCLUDED IN DIHEDRAL
Info: TIMING OUTPUT STEPS    50000
Info: PRESSURE OUTPUT STEPS  5000
Info: LANGEVIN DYNAMICS ACTIVE
Info: LANGEVIN TEMPERATURE   30
Info: LANGEVIN USING BBK INTEGRATOR
Info: LANGEVIN DAMPING COEFFICIENT IS 1 INVERSE PS
Info: LANGEVIN DYNAMICS APPLIED TO HYDROGENS
Info: LANGEVIN PISTON PRESSURE CONTROL ACTIVE
Info:        TARGET PRESSURE IS 1.01325 BAR
Info:     OSCILLATION PERIOD IS 50 FS
Info:             DECAY TIME IS 25 FS
Info:     PISTON TEMPERATURE IS 300 K
Info:       PRESSURE CONTROL IS GROUP-BASED
Info:    INITIAL STRAIN RATE IS 0 0 0
Info:       CELL FLUCTUATION IS ISOTROPIC
Info: PARTICLE MESH EWALD (PME) ACTIVE
Info: PME TOLERANCE               1e-06
Info: PME EWALD COEFFICIENT       0.348832
Info: PME INTERPOLATION ORDER     4
Info: PME GRID DIMENSIONS         40 40 40
Info: PME MAXIMUM GRID SPACING    1
Info: FULL ELECTROSTATIC EVALUATION FREQUENCY      2
Info: USING VERLET I (r-RESPA) MTS SCHEME.
Info: C1 SPLITTING OF LONG RANGE ELECTROSTATICS
Info: PLACING ATOMS IN PATCHES BY HYDROGEN GROUPS
Info: RIGID BONDS TO HYDROGEN : ALL
Info:         ERROR TOLERANCE : 1e-08
Info:          MAX ITERATIONS : 100
Info: RIGID WATER USING SETTLE ALGORITHM
Info: RANDOM NUMBER SEED     1741338027
Info: USE HYDROGEN BONDS?    NO
Info: Using AMBER format force field!
Info: AMBER PARM FILE        mobley_4434915.prmtop
Info: COORDINATE PDB         mobley_4434915.pdb
Info: Exclusions will be read from PARM file!
Info: SCNB (VDW SCALING)     2
Info: USING ARITHMETIC MEAN TO COMBINE L-J SIGMA PARAMETERS
Info: BINARY COORDINATES     mobley_4434915_min.coor
Info: SUMMARY OF PARAMETERS:
Info: 4 BONDS
Info: 2 ANGLES
Info:   2 HARMONIC
Info:   0 COSINE-BASED
Info: 0 DIHEDRAL
Info: 0 IMPROPER
Info: 0 CROSSTERM
Info: 0 VDW
Info: 15 VDW_PAIRS
Info: 0 NBTHOLE_PAIRS
Info: STRUCTURE SUMMARY:
Info: 3821 ATOMS
Info: 3820 BONDS
Info: 6 ANGLES
Info: 0 DIHEDRALS
Info: 0 IMPROPERS
Info: 0 CROSSTERMS
Info: 3826 EXCLUSIONS
Info: 3819 RIGID BONDS
Info: 7644 DEGREES OF FREEDOM
Info: 1274 HYDROGEN GROUPS
Info: 4 ATOMS IN LARGEST HYDROGEN GROUP
Info: 1274 MIGRATION GROUPS
Info: 4 ATOMS IN LARGEST MIGRATION GROUP
Info: TOTAL MASS = 22966.8 amu
Info: TOTAL CHARGE = -0.000100018 e
Info: MASS DENSITY = 0.702333 g/cm^3
Info: ATOM DENSITY = 0.0703655 atoms/A^3
Info: ADDED 0 IMPLICIT EXCLUSIONS
Info: NONBONDED TABLE R-SQUARED SPACING: 0.0625
Info: NONBONDED TABLE SIZE: 705 POINTS
Info: REMOVING COM VELOCITY 0.0285953 -0.019111 -0.127179
TCL: Running for 25000 steps
ETITLE: TS BOND ANGLE DIHED IMPRP ELECT VDW BOUNDARY MISC KINETIC TOTAL TEMP POTENTIAL TOTAL3 TEMPAVG PRESSURE GPRESSURE VOLUME PRESSAVG GPRESSAVG
ENERGY: 0 0.0008 0.2282 0.0000 0.0000 -17636.1644 3069.2078 0.0000 0.0000 2214.9461 -12351.7816 291.6304 -14566.7277 -12351.3494 291.6304 297.3398 331.2877 54302.1884 297.3398 331.2877
ENERGY: 5000 0.0002 0.6297 0.0000 0.0000 -18180.4937 3061.5060 0.0000 0.0000 236.9510 -14881.4068 31.1981 -15118.3578 -14880.6872 46.2306 -711.5089 -661.5777 38091.2241 6.0744 6.0186
ENERGY: 10000 0.0002 0.3452 0.0000 0.0000 -18295.8811 3148.1969 0.0000 0.0000 225.5667 -14921.7721 29.6992 -15147.3387 -14921.3196 30.1787 -192.3459 -147.8535 37843.9314 0.5141 0.7611
ENERGY: 15000 0.0098 0.2999 0.0000 0.0000 -18378.5817 3209.8687 0.0000 0.0000 233.2580 -14935.1453 30.7119 -15168.4033 -14934.5565 30.2719 146.8224 211.2706 37705.2243 6.1545 6.1853
ENERGY: 20000 0.0754 0.4333 0.0000 0.0000 -18579.9032 3419.8671 0.0000 0.0000 227.3964 -14932.1310 29.9401 -15159.5274 -14931.5999 29.9532 1539.7796 1595.5147 37413.2764 2.6998 2.5730
ENERGY: 25000 0.0284 0.3583 0.0000 0.0000 -18365.9966 3190.9326 0.0000 0.0000 230.4183 -14944.2591 30.3380 -15174.6774 -14943.6224 29.7482 -53.9278 -1.2252 37814.4979 6.4694 6.5270
TCL: Running 25000 steps at 60 kelvin.
TCL: Setting parameter langevinTemp to 60
TCL: Running for 25000 steps
ETITLE: TS BOND ANGLE DIHED IMPRP ELECT VDW BOUNDARY MISC KINETIC TOTAL TEMP POTENTIAL TOTAL3 TEMPAVG PRESSURE GPRESSURE VOLUME PRESSAVG GPRESSAVG
ENERGY: 25000 0.0284 0.3583 0.0000 0.0000 -18365.9966 3190.9326 0.0000 0.0000 230.3045 -14944.3729 30.3230 -15174.6774 -14943.8493 30.3230 -56.3278 -1.1022 37814.4979 -56.3278 -1.1022
ENERGY: 30000 0.1303 0.5229 0.0000 0.0000 -17968.8331 2973.9470 0.0000 0.0000 452.9689 -14541.2640 59.6401 -14994.2329 -14539.7606 56.9654 -875.7389 -837.8609 38071.4973 2.6741 2.9789
ENERGY: 35000 0.0002 0.4267 0.0000 0.0000 -18101.2294 3093.4824 0.0000 0.0000 458.4494 -14548.8706 60.3617 -15007.3201 -14547.6383 60.2848 -140.4477 -82.3344 37836.7974 2.3036 2.3204
ENERGY: 40000 0.4386 0.8197 0.0000 0.0000 -18232.7542 3198.9030 0.0000 0.0000 453.9108 -14578.6822 59.7641 -15032.5930 -14577.2943 60.1807 476.3716 545.8061 37665.2631 4.0448 3.9208
ENERGY: 45000 0.2202 0.6781 0.0000 0.0000 -18164.5321 3120.7645 0.0000 0.0000 445.4783 -14597.3909 58.6538 -15042.8692 -14596.7148 59.6582 -50.9599 6.2063 37669.5043 0.8594 1.0197
ENERGY: 50000 0.0136 0.6281 0.0000 0.0000 -18111.5001 3039.1956 0.0000 0.0000 459.2659 -14612.3969 60.4691 -15071.6628 -14610.6627 59.8321 -684.8287 -610.4863 37830.0101 0.6088 0.5894
TCL: Running 25000 steps at 90 kelvin.
TCL: Setting parameter langevinTemp to 90
TCL: Running for 25000 steps
ETITLE: TS BOND ANGLE DIHED IMPRP ELECT VDW BOUNDARY MISC KINETIC TOTAL TEMP POTENTIAL TOTAL3 TEMPAVG PRESSURE GPRESSURE VOLUME PRESSAVG GPRESSAVG
ENERGY: 50000 0.0136 0.6281 0.0000 0.0000 -18111.5001 3039.1956 0.0000 0.0000 459.0362 -14612.6266 60.4389 -15071.6628 -14611.6322 60.4389 -664.6446 -610.3150 37830.0101 -664.6446 -610.3150
ENERGY: 55000 0.0050 0.4176 0.0000 0.0000 -17954.8200 3131.7188 0.0000 0.0000 683.9451 -14138.7335 90.0515 -14822.6786 -14136.8261 86.5912 690.9879 750.5502 37612.5012 3.1351 2.6360
ENERGY: 60000 0.5392 0.6583 0.0000 0.0000 -17971.2812 3090.8628 0.0000 0.0000 701.8450 -14177.3759 92.4083 -14879.2209 -14175.7093 91.3099 361.5846 405.2382 37513.3187 3.4085 3.1901
ENERGY: 65000 0.3765 0.7131 0.0000 0.0000 -17903.0862 2989.4219 0.0000 0.0000 685.6301 -14226.9446 90.2734 -14912.5747 -14225.4480 89.5807 -476.1036 -407.2911 37787.1785 4.1687 3.9983
ENERGY: 70000 0.1948 0.5931 0.0000 0.0000 -17923.1926 3006.9209 0.0000 0.0000 703.1002 -14212.3837 92.5735 -14915.4839 -14211.1165 90.0363 -333.2656 -257.7306 37510.3522 4.4180 4.6978
ENERGY: 75000 0.2397 0.5212 0.0000 0.0000 -17999.4377 3071.7672 0.0000 0.0000 691.1078 -14235.8019 90.9946 -14926.9097 -14233.8973 90.7852 75.5348 122.9482 37439.1892 1.0219 0.9231
TCL: Running 25000 steps at 120 kelvin.
TCL: Setting parameter langevinTemp to 120
TCL: Running for 25000 steps
ETITLE: TS BOND ANGLE DIHED IMPRP ELECT VDW BOUNDARY MISC KINETIC TOTAL TEMP POTENTIAL TOTAL3 TEMPAVG PRESSURE GPRESSURE VOLUME PRESSAVG GPRESSAVG
ENERGY: 75000 0.2397 0.5212 0.0000 0.0000 -17999.4377 3071.7672 0.0000 0.0000 690.7606 -14236.1491 90.9489 -14926.9097 -14234.6200 90.9489 70.2570 123.2317 37439.1892 70.2570 123.2317
ENERGY: 80000 0.1122 1.1272 0.0000 0.0000 -17509.4808 2844.2348 0.0000 0.0000 919.1717 -13744.8348 121.0226 -14664.0065 -13742.7945 117.9019 -676.1677 -591.9076 37834.9349 3.4542 3.1611
ENERGY: 85000 0.0983 0.5848 0.0000 0.0000 -17529.9995 2825.8973 0.0000 0.0000 895.0077 -13808.4114 117.8410 -14703.4191 -13806.6235 121.0482 -799.4968 -789.3509 37668.6638 -1.2322 -2.0083
ENERGY: 90000 0.0319 0.6928 0.0000 0.0000 -17733.7822 2994.9932 0.0000 0.0000 918.0584 -13820.0059 120.8760 -14738.0643 -13818.1243 120.1179 205.2250 258.0856 37316.6670 5.6813 5.4173
ENERGY: 95000 0.0352 0.8868 0.0000 0.0000 -17708.1494 2937.1347 0.0000 0.0000 941.7627 -13828.3299 123.9970 -14770.0926 -13825.7122 120.0430 -152.8943 -105.6310 37261.1200 4.4293 4.5426
ENERGY: 100000 0.2360 0.6393 0.0000 0.0000 -17669.4987 2889.6622 0.0000 0.0000 919.5223 -13859.4388 121.0687 -14778.9612 -13856.1689 119.2640 -597.9753 -554.2683 37393.5373 5.5878 5.3882
TCL: Running 25000 steps at 150 kelvin.
TCL: Setting parameter langevinTemp to 150
TCL: Running for 25000 steps
ETITLE: TS BOND ANGLE DIHED IMPRP ELECT VDW BOUNDARY MISC KINETIC TOTAL TEMP POTENTIAL TOTAL3 TEMPAVG PRESSURE GPRESSURE VOLUME PRESSAVG GPRESSAVG
ENERGY: 100000 0.2360 0.6393 0.0000 0.0000 -17669.4987 2889.6622 0.0000 0.0000 919.0770 -13859.8842 121.0101 -14778.9612 -13858.0262 121.0101 -603.7890 -552.3285 37393.5373 -603.7890 -552.3285
ENERGY: 105000 0.3815 0.4231 0.0000 0.0000 -17221.0348 2737.6650 0.0000 0.0000 1123.9293 -13358.6358 147.9819 -14482.5652 -13356.6772 147.7280 -978.1221 -912.7760 38303.0925 3.0747 3.6376
ENERGY: 110000 0.0483 1.1469 0.0000 0.0000 -17450.9095 2925.3219 0.0000 0.0000 1144.0731 -13380.3193 150.6342 -14524.3923 -13378.0770 149.9424 326.3750 392.1996 37583.3710 -0.2124 -0.3040
ENERGY: 115000 0.0354 1.0027 0.0000 0.0000 -17431.2081 2930.8244 0.0000 0.0000 1129.3316 -13370.0141 148.6932 -14499.3457 -13367.4212 150.1261 292.5716 363.3605 37629.7301 1.6475 1.8871
ENERGY: 120000 0.2499 0.8659 0.0000 0.0000 -17415.5891 2857.8162 0.0000 0.0000 1131.2103 -13425.4468 148.9406 -14556.6572 -13424.4984 150.6403 -403.6133 -361.4055 37823.4389 6.2017 6.4467
ENERGY: 125000 0.0165 0.5011 0.0000 0.0000 -17323.2817 2790.8378 0.0000 0.0000 1104.6419 -13427.2844 145.4425 -14531.9263 -13423.6174 149.5870 -633.7240 -567.1525 37621.7262 2.6369 2.8388
TCL: Running 50000 steps at 180 kelvin.
TCL: Setting parameter langevinTemp to 180
TCL: Running for 50000 steps
ETITLE: TS BOND ANGLE DIHED IMPRP ELECT VDW BOUNDARY MISC KINETIC TOTAL TEMP POTENTIAL TOTAL3 TEMPAVG PRESSURE GPRESSURE VOLUME PRESSAVG GPRESSAVG
ENERGY: 125000 0.0165 0.5011 0.0000 0.0000 -17323.2817 2790.8378 0.0000 0.0000 1104.0706 -13427.8557 145.3672 -14531.9263 -13425.8549 145.3672 -611.3847 -567.2144 37621.7262 -611.3847 -567.2144
ENERGY: 135000 0.2163 1.4005 0.0000 0.0000 -16871.9640 2688.6569 0.0000 0.0000 1412.9957 -12768.6947 186.0418 -14181.6904 -12765.0469 179.3938 -77.1431 -14.1353 37444.2278 7.5820 6.9639
ENERGY: 145000 0.0471 1.2184 0.0000 0.0000 -16798.5271 2640.9272 0.0000 0.0000 1334.3313 -12822.0031 175.6845 -14156.3344 -12818.9463 178.1256 -547.8159 -494.4789 37667.4075 -0.7416 -1.3747
ENERGY: 155000 0.0032 0.5923 0.0000 0.0000 -16966.7948 2739.6070 0.0000 0.0000 1383.3605 -12843.2319 182.1399 -14226.5924 -12839.8438 179.9490 -114.6314 -16.3180 37477.1996 6.9678 7.7303
ENERGY: 165000 0.0048 0.7871 0.0000 0.0000 -17026.0882 2795.4904 0.0000 0.0000 1327.0093 -12902.7966 174.7204 -14229.8059 -12897.4207 180.6501 292.3391 343.6789 37395.0024 -3.4078 -3.4258
ENERGY: 175000 0.0828 0.9384 0.0000 0.0000 -17008.1064 2754.0155 0.0000 0.0000 1346.3830 -12906.6867 177.2713 -14253.0697 -12903.0080 180.5912 185.2297 237.7360 37059.6175 0.9774 1.2443
TCL: Running 50000 steps at 210 kelvin.
TCL: Setting parameter langevinTemp to 210
TCL: Running for 50000 steps
ETITLE: TS BOND ANGLE DIHED IMPRP ELECT VDW BOUNDARY MISC KINETIC TOTAL TEMP POTENTIAL TOTAL3 TEMPAVG PRESSURE GPRESSURE VOLUME PRESSAVG GPRESSAVG
ENERGY: 175000 0.0828 0.9384 0.0000 0.0000 -17008.1064 2754.0155 0.0000 0.0000 1345.6945 -12907.3752 177.1806 -14253.0697 -12905.0359 177.1806 162.2248 236.5636 37059.6175 162.2248 236.5636
ENERGY: 185000 0.0108 1.1393 0.0000 0.0000 -16247.6612 2495.8201 0.0000 0.0000 1618.6706 -12132.0203 213.1220 -13750.6909 -12125.2106 210.4334 -50.7696 24.0617 37345.4213 4.8581 4.9109
ENERGY: 195000 0.0021 2.4648 0.0000 0.0000 -16285.0408 2612.7025 0.0000 0.0000 1629.2714 -12040.6000 214.5177 -13669.8714 -12037.4023 211.0192 1024.9267 1094.3358 37087.9416 6.4574 6.1042
ENERGY: 205000 0.1907 0.8388 0.0000 0.0000 -15954.5479 2272.0642 0.0000 0.0000 1601.1354 -12080.3189 210.8132 -13681.4543 -12075.7607 209.1756 -1307.1804 -1189.6097 37314.5625 5.1047 4.7224
ENERGY: 215000 0.0001 0.6402 0.0000 0.0000 -16268.5513 2621.8863 0.0000 0.0000 1558.6114 -12087.4134 205.2143 -13646.0247 -12083.2227 209.9575 1091.9765 1210.3102 37083.0514 4.3221 3.9974
ENERGY: 225000 0.0672 1.8917 0.0000 0.0000 -16003.2694 2360.2528 0.0000 0.0000 1596.3730 -12044.6847 210.1861 -13641.0577 -12040.6023 209.6333 -593.6234 -492.0138 37088.3178 -0.6579 -1.2480
TCL: Running 50000 steps at 240 kelvin.
TCL: Setting parameter langevinTemp to 240
TCL: Running for 50000 steps
ETITLE: TS BOND ANGLE DIHED IMPRP ELECT VDW BOUNDARY MISC KINETIC TOTAL TEMP POTENTIAL TOTAL3 TEMPAVG PRESSURE GPRESSURE VOLUME PRESSAVG GPRESSAVG
ENERGY: 225000 0.0672 1.8917 0.0000 0.0000 -16003.2694 2360.2528 0.0000 0.0000 1595.5761 -12045.4816 210.0812 -13641.0577 -12042.9557 210.0812 -576.4040 -491.5055 37088.3178 -576.4040 -491.5055
ENERGY: 235000 0.0541 1.9073 0.0000 0.0000 -15251.1850 2121.4024 0.0000 0.0000 1895.1931 -11232.6282 249.5302 -13127.8212 -11229.2999 239.4698 -749.1949 -635.7674 37750.5676 0.1819 0.6718
ENERGY: 245000 0.0200 1.7930 0.0000 0.0000 -15384.4106 2329.3176 0.0000 0.0000 1854.6750 -11198.6050 244.1954 -13053.2800 -11195.3030 240.8832 902.5303 997.2217 37188.5920 -3.6535 -3.9658
ENERGY: 255000 0.0089 1.5357 0.0000 0.0000 -15351.0551 2256.5534 0.0000 0.0000 1835.3899 -11257.5672 241.6563 -13092.9572 -11252.6910 241.9872 31.7357 133.4304 37807.4919 7.7626 7.2832
ENERGY: 265000 0.1105 2.8962 0.0000 0.0000 -15205.6692 2139.2418 0.0000 0.0000 1780.3027 -11283.1180 234.4032 -13063.4207 -11279.1513 240.0437 -600.3781 -524.7535 37808.5288 2.7593 3.0239
ENERGY: 275000 0.2534 0.6542 0.0000 0.0000 -15309.3043 2154.4961 0.0000 0.0000 1838.1676 -11315.7331 242.0220 -13153.9007 -11310.9295 238.6481 -925.0245 -852.8966 38132.5628 9.1896 9.5129
TCL: Running 50000 steps at 270 kelvin.
TCL: Setting parameter langevinTemp to 270
TCL: Running for 50000 steps
ETITLE: TS BOND ANGLE DIHED IMPRP ELECT VDW BOUNDARY MISC KINETIC TOTAL TEMP POTENTIAL TOTAL3 TEMPAVG PRESSURE GPRESSURE VOLUME PRESSAVG GPRESSAVG
ENERGY: 275000 0.2534 0.6542 0.0000 0.0000 -15309.3043 2154.4961 0.0000 0.0000 1837.2375 -11316.6632 241.8995 -13153.9007 -11313.6147 241.8995 -920.1403 -852.2818 38132.5628 -920.1403 -852.2818
ENERGY: 285000 0.6055 1.4296 0.0000 0.0000 -14639.2063 2009.4993 0.0000 0.0000 2165.1852 -10462.4868 285.0787 -12627.6720 -10458.1384 270.5908 -311.4636 -197.0339 38346.1775 1.6095 1.6932
ENERGY: 295000 0.1387 1.3280 0.0000 0.0000 -14657.7681 2117.3881 0.0000 0.0000 2060.5035 -10478.4097 271.2958 -12538.9132 -10474.7791 269.0311 505.3256 603.3856 38200.9984 4.1172 3.8543
ENERGY: 305000 0.1835 1.1040 0.0000 0.0000 -14764.8506 2161.3027 0.0000 0.0000 2075.9158 -10526.3446 273.3250 -12602.2604 -10524.5885 270.1652 613.0119 675.9665 38226.3352 8.9294 8.3981
ENERGY: 315000 0.0005 1.3224 0.0000 0.0000 -14592.5461 2036.5521 0.0000 0.0000 2084.3766 -10470.2945 274.4390 -12554.6711 -10466.6127 271.8594 -44.9994 12.0640 38304.8912 3.4954 3.1958
ENERGY: 325000 0.4746 0.5670 0.0000 0.0000 -14593.9967 2012.1901 0.0000 0.0000 2045.1543 -10535.6107 269.2749 -12580.7650 -10530.6482 268.7477 -159.3139 -76.2390 38230.9434 0.9827 1.3212
TCL: Running 1000000 steps at 300 kelvin.
TCL: Setting parameter langevinTemp to 300
TCL: Running for 1000000 steps
ETITLE: TS BOND ANGLE DIHED IMPRP ELECT VDW BOUNDARY MISC KINETIC TOTAL TEMP POTENTIAL TOTAL3 TEMPAVG PRESSURE GPRESSURE VOLUME PRESSAVG GPRESSAVG
ENERGY: 325000 0.4746 0.5670 0.0000 0.0000 -14593.9967 2012.1901 0.0000 0.0000 2044.1522 -10536.6128 269.1429 -12580.7650 -10533.9261 269.1429 -152.6696 -74.6025 38230.9434 -152.6696 -74.6025
ENERGY: 525000 3.6182 1.1103 0.0000 0.0000 -14063.9756 1958.0984 0.0000 0.0000 2230.2695 -9870.8792 293.6480 -12101.1486 -9865.2105 301.6554 582.0323 647.8306 38541.5058 2.1566 1.6451
ENERGY: 725000 0.0956 1.2355 0.0000 0.0000 -14033.7908 1929.7429 0.0000 0.0000 2271.8897 -9830.8272 299.1279 -12102.7169 -9825.6689 298.5973 268.9675 352.2244 38881.5090 0.2047 0.3800
ENERGY: 925000 0.0000 3.0159 0.0000 0.0000 -13955.0358 1917.0481 0.0000 0.0000 2281.2731 -9753.6988 300.3634 -12034.9719 -9749.4679 300.4160 168.9461 223.1147 39109.6435 0.4082 -0.0270
ENERGY: 1125000 0.0730 1.4995 0.0000 0.0000 -13844.4509 1838.3768 0.0000 0.0000 2212.8071 -9791.6945 291.3488 -12004.5016 -9785.2163 299.2927 -415.2735 -317.1425 39587.6611 1.0544 0.3318
ENERGY: 1325000 0.3754 3.1801 0.0000 0.0000 -13754.6962 1765.8633 0.0000 0.0000 2281.8648 -9703.4126 300.4413 -11985.2774 -9698.8161 302.3063 -645.6587 -553.2895 39779.8907 6.8653 6.6085
TCL: Exiting due to exit command.
