Info: SIMULATION PARAMETERS:
Info: TIMESTEP               1
Info: NUMBER OF STEPS        0
Info: STEPS PER CYCLE        10
Info: PERIODIC CELL BASIS 1  30 0 0
Info: PERIODIC CELL BASIS 2  0 30 0
Info: PERIODIC CELL BASIS 3  0 0 30
Info: PERIODIC CELL CENTER   0 0 0
Info: WRAPPING ALL CLUSTERS AROUND PERIODIC BOUNDARIES ON OUTPUT.
Info: FIRST LDB TIMESTEP     50
Info: LAST LDB TIMESTEP     -1
Info: HOM BACKGROUND SCALING 1
Info: MIN ATOMS PER PATCH    40
Info: EMPTY PATCH LOAD       40 ATOMS
Info: INITIAL TEMPERATURE    298
Info: CENTER OF MASS MOVING INITIALLY? NO
Info: DIELECTRIC             1
Info: EXCLUDE                SCALED ONE-FOUR
Info: 1-4 ELECTROSTATICS SCALED BY 1
Info: MODIFIED 1-4 VDW PARAMETERS WILL BE USED
Info: DCD FILENAME           output.dcd
Info: DCD FREQUENCY          500
Info: DCD FIRST STEP         500
Info: DCD FILE WILL CONTAIN UNIT CELL DATA
Info: NO EXTENDED SYSTEM TRAJECTORY OUTPUT
Info: NO VELOCITY DCD OUTPUT
Info: NO FORCE DCD OUTPUT
Info: OUTPUT FILENAME        output
Info: BINARY OUTPUT FILES WILL BE USED
Info: NO RESTART FILE
Info: SWITCHING ACTIVE
Info: SWITCHING ON           10
Info: SWITCHING OFF          12
Info: PAIRLIST DISTANCE      14
Info: PAIRLIST SHRINK RATE   0.01
Info: PAIRLIST GROW RATE     0.01
Info: PAIRLIST TRIGGER       0.3
Info: PAIRLISTS PER CYCLE    2
Info: PAIRLISTS ENABLED
Info: MARGIN                 0.495
Info: HYDROGEN GROUP CUTOFF  2.5
Info: PATCH DIMENSION        16.995
Info: ENERGY OUTPUT STEPS    500
Info: ENERGY EVALUATION STEPS    500
Info: OUTPUT ENERGY PRECISION 4
Info: CROSSTERM ENERGY INCLUDED IN DIHEDRAL
Info: TIMING OUTPUT STEPS    500
Info: LANGEVIN DYNAMICS ACTIVE
Info: LANGEVIN TEMPERATURE   298
Info: LANGEVIN USING BBK INTEGRATOR
Info: LANGEVIN DAMPING COEFFICIENT IS 1 INVERSE PS
Info: LANGEVIN DYNAMICS NOT APPLIED TO HYDROGENS
Info: LANGEVIN PISTON PRESSURE CONTROL ACTIVE
Info:        TARGET PRESSURE IS 1.01325 BAR
Info:     OSCILLATION PERIOD IS 100 FS
Info:             DECAY TIME IS 50 FS
Info:     PISTON TEMPERATURE IS 298 K
Info:       PRESSURE CONTROL IS GROUP-BASED
Info:    INITIAL STRAIN RATE IS 0 0 0
Info:       CELL FLUCTUATION IS ISOTROPIC
Info: MULTILEVEL SUMMATION METHOD (MSM) FOR ELECTROSTATICS ACTIVE
Info: MSM WITH C1 CUBIC INTERPOLATION AND C2 TAYLOR SPLITTING
Info: FULL ELECTROSTATIC EVALUATION FREQUENCY      1
Info: USING VERLET I (r-RESPA) MTS SCHEME.
Info: C1 SPLITTING OF LONG RANGE ELECTROSTATICS
Info: PLACING ATOMS IN PATCHES BY HYDROGEN GROUPS
Info: RIGID BONDS TO HYDROGEN : ALL
Info:         ERROR TOLERANCE : 1e-08
Info:          MAX ITERATIONS : 100
Info: RIGID WATER USING SETTLE ALGORITHM
Info: RANDOM NUMBER SEED     1740294184
Info: USE HYDROGEN BONDS?    NO
Info: COORDINATE PDB         ionized.pdb
Info: STRUCTURE FILE         ionized.psf
Info: PARAMETER file: CHARMM format!
Info: PARAMETERS             par_all27_prot_lipid.inp
Info: USING ARITHMETIC MEAN TO COMBINE L-J SIGMA PARAMETERS
Info: SUMMARY OF PARAMETERS:
Info: 180 BONDS
Info: 447 ANGLES
Info: 566 DIHEDRAL
Info: 46 IMPROPER
Info: 6 CROSSTERM
Info: 119 VDW
Info: 0 VDW_PAIRS
Info: 0 NBTHOLE_PAIRS
Info: STRUCTURE SUMMARY:
Info: 2478 ATOMS
Info: 1652 BONDS
Info: 826 ANGLES
Info: 0 DIHEDRALS
Info: 0 IMPROPERS
Info: 0 CROSSTERMS
Info: 0 EXCLUSIONS
Info: 2478 RIGID BONDS
Info: 4956 DEGREES OF FREEDOM
Info: 826 HYDROGEN GROUPS
Info: 3 ATOMS IN LARGEST HYDROGEN GROUP
Info: 826 MIGRATION GROUPS
Info: 3 ATOMS IN LARGEST MIGRATION GROUP
Info: TOTAL MASS = 14880.7 amu
Info: TOTAL CHARGE = 0 e
Info: MASS DENSITY = 0.915207 g/cm^3
Info: ATOM DENSITY = 0.0917778 atoms/A^3
Info: ADDED 2478 IMPLICIT EXCLUSIONS
Info: NONBONDED TABLE R-SQUARED SPACING: 0.0625
Info: NONBONDED TABLE SIZE: 769 POINTS
Info: REMOVING COM VELOCITY 0.0611521 0.149176 -0.138429
Info: MSM using C1 cubic interpolation
Info: MSM using C2 Taylor splitting function
Info: MSM block size decomposition along X is 8 grid points
Info: MSM block size decomposition along Y is 8 grid points
Info: MSM block size decomposition along Z is 8 grid points
Info: MSM grid spacing along X is 2.5 A
Info: MSM grid spacing along Y is 2.5 A
Info: MSM grid spacing along Z is 2.5 A
Info: MSM using 3 levels
Info:     level 0:  [0..11] x [0..11] x [0..11]
Info:     level 1:  [0..5] x [0..5] x [0..5]
Info:     level 2:  [0..2] x [0..2] x [0..2]
Info: MSM finished calculating stencils
Info: MSM finished creating map for grid levels
Info: MSM finished creating map for patches
Info: MSM has 9 interpolation / anterpolation objects (one per patch)
Info: MSM grid level 0 decomposed into 8 blocks ( 2 x 2 x 2 )
Info: MSM grid level 1 decomposed into 1 block ( 1 x 1 x 1 )
Info: MSM grid level 2 decomposed into 1 block ( 1 x 1 x 1 )
Info: MSM grid cutoff calculation decomposed into 783 work objects
TCL: Minimizing for 1000 steps
ETITLE: TS BOND ANGLE DIHED IMPRP ELECT VDW BOUNDARY MISC KINETIC TOTAL TEMP POTENTIAL TOTAL3 TEMPAVG PRESSURE GPRESSURE VOLUME PRESSAVG GPRESSAVG
ENERGY: 0 0.0000 0.0000 0.0000 0.0000 -7442.5560 6358.5112 0.0000 0.0000 0.0000 -1084.0448 0.0000 -1084.0448 -1084.0448 0.0000 75224.8790 46167.8622 27000.0000 75224.8790 46167.8622
ENERGY: 200 0.0000 0.0000 0.0000 0.0000 -10584.8764 1093.8500 0.0000 0.0000 0.0000 -9491.0264 0.0000 -9491.0264 -9491.0264 0.0000 18748.8111 18680.1561 27000.0000 18748.8111 18680.1561
ENERGY: 400 0.0000 0.0000 0.0000 0.0000 -10970.1603 1262.5389 0.0000 0.0000 0.0000 -9707.6214 0.0000 -9707.6214 -9707.6214 0.0000 20689.2038 20602.6265 27000.0000 20689.2038 20602.6265
ENERGY: 600 0.0000 0.0000 0.0000 0.0000 -11102.3693 1300.8121 0.0000 0.0000 0.0000 -9801.5572 0.0000 -9801.5572 -9801.5572 0.0000 21161.0325 21065.6716 27000.0000 21161.0325 21065.6716
ENERGY: 800 0.0000 0.0000 0.0000 0.0000 -11184.6541 1322.9698 0.0000 0.0000 0.0000 -9861.6844 0.0000 -9861.6844 -9861.6844 0.0000 21406.5465 21309.2096 27000.0000 21406.5465 21309.2096
ENERGY: 1000 0.0000 0.0000 0.0000 0.0000 -11231.2873 1340.9312 0.0000 0.0000 0.0000 -9890.3561 0.0000 -9890.3561 -9890.3561 0.0000 21586.1026 21504.0929 27000.0000 21586.1026 21504.0929
TCL: Running for 100000 steps
ETITLE: TS BOND ANGLE DIHED IMPRP ELECT VDW BOUNDARY MISC KINETIC TOTAL TEMP POTENTIAL TOTAL3 TEMPAVG PRESSURE GPRESSURE VOLUME PRESSAVG GPRESSAVG
ENERGY: 1000 0.0000 0.0000 0.0000 0.0000 -11231.2873 1340.9312 0.0000 0.0000 1443.8942 -8446.4619 293.2206 -9890.3561 -8446.6729 293.2206 -2459.0025 -2459.0025 27000.0000 -2459.0025 -2459.0025
ENERGY: 21000 0.0000 0.0000 0.0000 0.0000 -8993.1957 861.5305 0.0000 0.0000 1448.0345 -6683.6307 294.0614 -8131.6652 -6683.8271 294.4546 -251.1325 -240.7531 24331.2791 4.2177 3.8132
ENERGY: 41000 0.0000 0.0000 0.0000 0.0000 -9006.1403 886.5324 0.0000 0.0000 1444.3197 -6675.2881 293.3070 -8119.6079 -6675.0518 296.6317 429.8134 427.9036 24067.0249 -6.1817 -6.9208
ENERGY: 61000 0.0000 0.0000 0.0000 0.0000 -9055.0224 877.8616 0.0000 0.0000 1445.1653 -6731.9955 293.4787 -8177.1608 -6730.5067 292.5850 144.7111 133.0394 24025.0687 -20.3425 -21.0383
ENERGY: 81000 0.0000 0.0000 0.0000 0.0000 -9023.8293 917.5786 0.0000 0.0000 1429.7099 -6676.5408 290.3401 -8106.2507 -6676.3033 295.5381 195.4244 194.2582 24742.2523 28.8659 29.4314
ENERGY: 101000 0.0000 0.0000 0.0000 0.0000 -8951.8862 832.9414 0.0000 0.0000 1502.3759 -6616.5690 305.0968 -8118.9449 -6615.8613 298.1739 -296.9457 -283.2691 24294.0747 0.3148 0.4542
