Info: SIMULATION PARAMETERS:
Info: TIMESTEP               2
Info: NUMBER OF STEPS        0
Info: STEPS PER CYCLE        10
Info: PERIODIC CELL BASIS 1  79.1348 0 0
Info: PERIODIC CELL BASIS 2  0 79.1348 0
Info: PERIODIC CELL BASIS 3  0 0 79.1348
Info: PERIODIC CELL CENTER   39.014 39.014 39.014
Info: WRAPPING ALL CLUSTERS AROUND PERIODIC BOUNDARIES ON OUTPUT.
Info: FIRST LDB TIMESTEP     50
Info: LAST LDB TIMESTEP     -1
Info: HOM BACKGROUND SCALING 1
Info: PME BACKGROUND SCALING 1
Info: MIN ATOMS PER PATCH    40
Info: EMPTY PATCH LOAD       40 ATOMS
Info: VELOCITY FILE          mobley_6456034_equilibrated.vel
Info: CENTER OF MASS MOVING INITIALLY? NO
Info: DIELECTRIC             1
Info: EXCLUDE                SCALED ONE-FOUR
Info: 1-4 ELECTROSTATICS SCALED BY 1
Info: MODIFIED 1-4 VDW PARAMETERS WILL BE USED
Info: DCD FILENAME           mobley_6456034_forwards.dcd
Info: DCD FREQUENCY          500
Info: DCD FIRST STEP         500
Info: DCD FILE WILL CONTAIN UNIT CELL DATA
Info: NO EXTENDED SYSTEM TRAJECTORY OUTPUT
Info: NO VELOCITY DCD OUTPUT
Info: NO FORCE DCD OUTPUT
Info: OUTPUT FILENAME        mobley_6456034_forwards
Info: BINARY OUTPUT FILES WILL BE USED
Info: NO RESTART FILE
Info: SWITCHING ACTIVE
Info: SWITCHING ON           10
Info: SWITCHING OFF          12
Info: PAIRLIST DISTANCE      14
Info: PAIRLIST SHRINK RATE   0.01
Info: PAIRLIST GROW RATE     0.01
Info: PAIRLIST TRIGGER       0.3
Info: PAIRLISTS PER CYCLE    2
Info: PAIRLISTS ENABLED
Info: MARGIN                 8
Info: HYDROGEN GROUP CUTOFF  2.5
Info: PATCH DIMENSION        24.5
Info: ENERGY OUTPUT STEPS    500
Info: ENERGY EVALUATION STEPS    500
Info: OUTPUT ENERGY PRECISION 4
Info: CROSSTERM ENERGY INCLUDED IN DIHEDRAL
Info: TIMING OUTPUT STEPS    500
Info: PRESSURE OUTPUT STEPS  500
Info: ALCHEMICAL FEP ON
Info: FEP CURRENT LAMBDA VALUE     0
Info: FEP COMPARISON LAMBDA VALUE  0.0625
Info: FEP INTRA-ALCHEMICAL NON-BONDED INTERACTIONS WILL BE DECOUPLED
Info: FEP INTRA-ALCHEMICAL BONDED INTERACTIONS WILL BE RETAINED
Info: FEP VDW SHIFTING COEFFICIENT 6
Info: FEP ELEC. ACTIVE FOR ANNIHILATED PARTICLES BETWEEN LAMBDA = 0 AND LAMBDA = 0.5
Info: FEP ELEC. ACTIVE FOR EXNIHILATED PARTICLES BETWEEN LAMBDA = 0.5 AND LAMBDA = 1
Info: FEP VDW ACTIVE FOR ANNIHILATED PARTICLES BETWEEN LAMBDA = 0 AND LAMBDA = 1
Info: FEP VDW ACTIVE FOR EXNIHILATED PARTICLES BETWEEN LAMBDA = 0 AND LAMBDA = 1
Info: FEP BOND ACTIVE FOR ANNIHILATED PARTICLES BETWEEN LAMBDA = 1 AND LAMBDA = 1
Info: FEP BOND ACTIVE FOR EXNIHILATED PARTICLES BETWEEN LAMBDA = 0 AND LAMBDA = 0
Info: LANGEVIN DYNAMICS ACTIVE
Info: LANGEVIN TEMPERATURE   298
Info: LANGEVIN USING BBK INTEGRATOR
Info: LANGEVIN DAMPING COEFFICIENT IS 1 INVERSE PS
Info: LANGEVIN DYNAMICS NOT APPLIED TO HYDROGENS
Info: LANGEVIN PISTON PRESSURE CONTROL ACTIVE
Info:        TARGET PRESSURE IS 1.01325 BAR
Info:     OSCILLATION PERIOD IS 100 FS
Info:             DECAY TIME IS 50 FS
Info:     PISTON TEMPERATURE IS 298 K
Info:       PRESSURE CONTROL IS GROUP-BASED
Info:    INITIAL STRAIN RATE IS -9.712e-05 -9.712e-05 -9.712e-05
Info:       CELL FLUCTUATION IS ISOTROPIC
Info: PARTICLE MESH EWALD (PME) ACTIVE
Info: PME TOLERANCE               1e-05
Info: PME EWALD COEFFICIENT       0.226635
Info: PME INTERPOLATION ORDER     4
Info: PME GRID DIMENSIONS         80 80 80
Info: PME MAXIMUM GRID SPACING    1
Info: FULL ELECTROSTATIC EVALUATION FREQUENCY      1
Info: USING VERLET I (r-RESPA) MTS SCHEME.
Info: C1 SPLITTING OF LONG RANGE ELECTROSTATICS
Info: PLACING ATOMS IN PATCHES BY HYDROGEN GROUPS
Info: RIGID BONDS TO HYDROGEN : ALL
Info:         ERROR TOLERANCE : 1e-08
Info:          MAX ITERATIONS : 100
Info: RIGID WATER USING SETTLE ALGORITHM
Info: RANDOM NUMBER SEED     1740647838
Info: USE HYDROGEN BONDS?    NO
Info: COORDINATE PDB         mobley_6456034.pdb
Info: STRUCTURE FILE         mobley_6456034.psf
Info: PARAMETER file: CHARMM format!
Info: PARAMETERS             ../common/par_all27_prot_lipid.inp
Info: PARAMETERS             mobley_6456034.prm
Info: USING ARITHMETIC MEAN TO COMBINE L-J SIGMA PARAMETERS
Info: BINARY COORDINATES     mobley_6456034_equilibrated.coor
Info: SUMMARY OF PARAMETERS:
Info: 187 BONDS
Info: 460 ANGLES
Info: 585 DIHEDRAL
Info: 47 IMPROPER
Info: 6 CROSSTERM
Info: 125 VDW
Info: 0 VDW_PAIRS
Info: 0 NBTHOLE_PAIRS
Info: To read alchdata from file: mobley_6456034.pdb
Info: To read alchflag data from column: 5
Info: STRUCTURE SUMMARY:
Info: 5369 ATOMS
Info: 3587 BONDS
Info: 1827 ANGLES
Info: 56 DIHEDRALS
Info: 1 IMPROPERS
Info: 0 CROSSTERMS
Info: 0 EXCLUSIONS
Info: 5359 RIGID BONDS
Info: ALCH: 0 ATOMS TO DISAPPEAR IN FINAL STATE
Info: ALCH: 26 ATOMS TO APPEAR IN FINAL STATE
Info: 10748 DEGREES OF FREEDOM
Info: 1791 HYDROGEN GROUPS
Info: 4 ATOMS IN LARGEST HYDROGEN GROUP
Info: 1791 MIGRATION GROUPS
Info: 4 ATOMS IN LARGEST MIGRATION GROUP
Info: TOTAL MASS = 32229.6 amu
Info: TOTAL CHARGE = 7.45058e-09 e
Info: MASS DENSITY = 0.107997 g/cm^3
Info: ATOM DENSITY = 0.0108341 atoms/A^3
Info: ADDED 5470 IMPLICIT EXCLUSIONS
Info: NONBONDED TABLE R-SQUARED SPACING: 0.0625
Info: NONBONDED TABLE SIZE: 769 POINTS
Info: REMOVING COM VELOCITY 0.0904253 0.0125732 -0.104596
TCL: Running for 5000 steps
ETITLE: TS BOND ANGLE DIHED IMPRP ELECT VDW BOUNDARY MISC KINETIC TOTAL TEMP POTENTIAL TOTAL3 TEMPAVG PRESSURE GPRESSURE VOLUME PRESSAVG GPRESSAVG
ENERGY: 0 4.6018 10.0959 4.4915 0.0475 -18380.8723 1863.9414 0.0000 0.0000 3194.3741 -13303.3201 299.1221 -16497.6942 -13297.2902 299.1221 -47.3744 -47.6685 495566.4355 -47.3744 -47.6685
ENERGY: 1000 3.1844 15.8364 6.0955 0.1886 -18402.2137 1907.0226 0.0000 0.0000 3214.3229 -13255.5635 300.9901 -16469.8863 -13249.6894 299.9987 -15.0649 -13.6815 484385.0002 -0.8220 -0.8359
ENERGY: 2000 2.3672 17.6538 4.8405 0.2131 -18460.3405 1990.4678 0.0000 0.0000 3189.0593 -13255.7388 298.6244 -16444.7981 -13249.2591 300.4835 52.1018 52.2062 483957.7502 0.8876 0.8824
ENERGY: 3000 4.6029 9.6511 6.0393 0.5699 -18427.7660 1930.0293 0.0000 0.0000 3183.7562 -13293.1174 298.1278 -16476.8736 -13286.2036 297.3025 -26.2179 -26.5322 500875.7797 -0.3612 -0.3429
ENERGY: 4000 3.8708 15.2124 6.2953 0.8422 -18615.8002 2023.5717 0.0000 0.0000 3239.0718 -13326.9361 303.3076 -16566.0079 -13318.7077 299.3474 25.5918 26.5580 497184.3465 1.0882 1.1196
ENERGY: 5000 5.5723 12.1331 6.6197 0.6423 -18538.4177 2017.8430 0.0000 0.0000 3183.4244 -13312.1829 298.0968 -16495.6073 -13307.3731 299.6384 33.2048 33.4022 510016.3624 1.6894 1.6983
TCL: Running FEP window   2: Lambda1 0.0625 Lambda2 0.125  [dLambda 0.0625]
TCL: Setting parameter firsttimestep to 0
TCL: Setting parameter alchLambda to 0.0625
Info: NONBONDED TABLE R-SQUARED SPACING: 0.0625
Info: NONBONDED TABLE SIZE: 769 POINTS
TCL: Setting parameter alchLambda2 to 0.125
Info: NONBONDED TABLE R-SQUARED SPACING: 0.0625
Info: NONBONDED TABLE SIZE: 769 POINTS
TCL: Running for 5000 steps
ETITLE: TS BOND ANGLE DIHED IMPRP ELECT VDW BOUNDARY MISC KINETIC TOTAL TEMP POTENTIAL TOTAL3 TEMPAVG PRESSURE GPRESSURE VOLUME PRESSAVG GPRESSAVG
ENERGY: 0 5.5723 12.1331 6.6197 0.6423 -18538.4177 2018.3172 0.0000 0.0000 3183.3238 -13311.8093 298.0873 -16495.1331 -13306.3609 298.0873 33.3958 33.3913 510016.3624 33.3958 33.3913
ENERGY: 1000 2.2204 14.6175 4.0181 0.0449 -18404.5701 1884.7106 0.0000 0.0000 3195.9828 -13302.9758 299.2727 -16498.9585 -13296.1822 300.2671 -8.5581 -8.4830 514860.1663 1.4231 1.3987
ENERGY: 2000 3.1546 11.3116 4.8114 0.1679 -18520.8353 1927.8624 0.0000 0.0000 3235.6073 -13337.9201 302.9832 -16573.5274 -13332.0706 298.1454 -20.2980 -19.8856 517069.7744 1.5513 1.5808
ENERGY: 3000 3.5557 8.3124 4.1301 0.0569 -18592.7320 1966.4261 0.0000 0.0000 3200.5003 -13409.7504 299.6958 -16610.2507 -13403.1249 298.2118 7.1473 5.9880 534396.0276 -0.0281 -0.0248
ENERGY: 4000 2.8145 12.4013 4.0427 0.2744 -18502.4466 1933.6708 0.0000 0.0000 3143.8490 -13405.3940 294.3909 -16549.2430 -13400.4934 296.3232 -35.2455 -36.3920 554788.4398 0.7139 0.7460
ENERGY: 5000 3.9866 12.9589 7.2628 0.7490 -18526.5313 1948.4651 0.0000 0.0000 3140.3978 -13412.7110 294.0677 -16553.1088 -13406.9801 296.5777 3.5495 3.4752 545414.9717 0.4311 0.4297
TCL: Running FEP window   3: Lambda1 0.125  Lambda2 0.1875 [dLambda 0.0625]
TCL: Setting parameter firsttimestep to 0
TCL: Setting parameter alchLambda to 0.125
Info: NONBONDED TABLE R-SQUARED SPACING: 0.0625
Info: NONBONDED TABLE SIZE: 769 POINTS
TCL: Setting parameter alchLambda2 to 0.1875
Info: NONBONDED TABLE R-SQUARED SPACING: 0.0625
Info: NONBONDED TABLE SIZE: 769 POINTS
TCL: Running for 5000 steps
ETITLE: TS BOND ANGLE DIHED IMPRP ELECT VDW BOUNDARY MISC KINETIC TOTAL TEMP POTENTIAL TOTAL3 TEMPAVG PRESSURE GPRESSURE VOLUME PRESSAVG GPRESSAVG
ENERGY: 0 3.9866 12.9589 7.2628 0.7490 -18526.5313 1950.5679 0.0000 0.0000 3140.3029 -13410.7033 294.0589 -16551.0061 -13404.7258 294.0589 3.8335 3.7452 545414.9717 3.8335 3.7452
ENERGY: 1000 2.9575 9.7215 7.0719 0.0001 -18605.3590 1988.0265 0.0000 0.0000 3196.6879 -13400.8935 299.3388 -16597.5814 -13393.7383 297.3931 2.7894 3.1359 541917.6648 4.1028 4.0666
ENERGY: 2000 4.6389 12.6154 5.5580 0.0499 -18526.0126 1911.2101 0.0000 0.0000 3165.5806 -13426.3596 296.4259 -16591.9402 -13418.4328 298.6650 -26.5433 -26.7028 539634.2009 1.1649 1.1212
ENERGY: 3000 3.8067 10.6705 4.3731 0.2312 -18574.4552 1986.9625 0.0000 0.0000 3193.7650 -13374.6463 299.0651 -16568.4113 -13369.0447 296.2694 4.0906 3.7466 548505.0912 1.9281 1.9411
ENERGY: 4000 0.5510 9.6277 4.7017 0.6567 -18566.9282 1917.0574 0.0000 0.0000 3160.9825 -13473.3511 295.9953 -16634.3336 -13468.0624 294.9503 -40.3460 -40.2636 556815.7762 1.5411 1.5388
ENERGY: 5000 3.2246 12.9805 2.4930 0.0189 -18672.3637 1993.0427 0.0000 0.0000 3114.4641 -13546.1398 291.6393 -16660.6039 -13540.1312 293.9861 5.1991 4.7805 570591.5803 2.1829 2.2220
TCL: Running FEP window   4: Lambda1 0.1875 Lambda2 0.25   [dLambda 0.0625]
TCL: Setting parameter firsttimestep to 0
TCL: Setting parameter alchLambda to 0.1875
Info: NONBONDED TABLE R-SQUARED SPACING: 0.0625
Info: NONBONDED TABLE SIZE: 769 POINTS
TCL: Setting parameter alchLambda2 to 0.25
Info: NONBONDED TABLE R-SQUARED SPACING: 0.0625
Info: NONBONDED TABLE SIZE: 769 POINTS
TCL: Running for 5000 steps
ETITLE: TS BOND ANGLE DIHED IMPRP ELECT VDW BOUNDARY MISC KINETIC TOTAL TEMP POTENTIAL TOTAL3 TEMPAVG PRESSURE GPRESSURE VOLUME PRESSAVG GPRESSAVG
ENERGY: 0 3.2246 12.9805 2.4930 0.0189 -18672.3637 1992.8248 0.0000 0.0000 3114.3664 -13546.4553 291.6302 -16660.8217 -13540.0611 291.6302 4.6963 4.7000 570591.5803 4.6963 4.7000
ENERGY: 1000 2.2473 11.5339 2.0466 0.0188 -18545.8825 1903.2776 0.0000 0.0000 3158.6100 -13468.1483 295.7731 -16626.7584 -13461.1557 293.1954 -7.6159 -7.1424 587799.0698 0.7010 0.7411
ENERGY: 2000 3.6385 11.9829 2.7183 0.5449 -18615.3245 1975.1469 0.0000 0.0000 3149.1502 -13472.1429 294.8873 -16621.2930 -13465.9572 293.7957 16.2124 16.1380 584546.6734 0.3560 0.3174
ENERGY: 3000 0.7370 11.1568 2.6050 0.1578 -18691.6179 1995.0561 0.0000 0.0000 3207.0892 -13474.8159 300.3128 -16681.9052 -13470.2044 294.9432 3.6104 4.3253 567158.8983 -1.0822 -1.1007
ENERGY: 4000 2.5863 11.9953 2.6722 0.0330 -18573.5980 2007.3919 0.0000 0.0000 3172.9171 -13376.0022 297.1129 -16548.9194 -13370.8269 294.8971 19.4987 20.2239 548689.7816 2.1821 2.1909
ENERGY: 5000 2.2176 12.5642 3.9512 0.0352 -18500.0094 1906.3340 0.0000 0.0000 3171.3540 -13403.5532 296.9665 -16574.9072 -13397.8659 297.8655 -47.4768 -47.3235 548050.1468 1.1463 1.1072
TCL: Running FEP window   5: Lambda1 0.25   Lambda2 0.3125 [dLambda 0.0625]
TCL: Setting parameter firsttimestep to 0
TCL: Setting parameter alchLambda to 0.25
Info: NONBONDED TABLE R-SQUARED SPACING: 0.0625
Info: NONBONDED TABLE SIZE: 769 POINTS
TCL: Setting parameter alchLambda2 to 0.3125
Info: NONBONDED TABLE R-SQUARED SPACING: 0.0625
Info: NONBONDED TABLE SIZE: 769 POINTS
TCL: Running for 5000 steps
ETITLE: TS BOND ANGLE DIHED IMPRP ELECT VDW BOUNDARY MISC KINETIC TOTAL TEMP POTENTIAL TOTAL3 TEMPAVG PRESSURE GPRESSURE VOLUME PRESSAVG GPRESSAVG
ENERGY: 0 2.2176 12.5642 3.9512 0.0352 -18500.0094 1905.8851 0.0000 0.0000 3171.2518 -13404.1043 296.9569 -16575.3561 -13397.7660 296.9569 -47.3872 -47.4222 548050.1468 -47.3872 -47.4222
ENERGY: 1000 1.7612 10.4549 6.7144 0.4635 -18543.9963 1960.7973 0.0000 0.0000 3143.3826 -13420.4223 294.3472 -16563.8049 -13415.2755 295.1892 11.8819 11.4507 546539.0469 0.1070 0.1551
ENERGY: 2000 2.5679 11.5133 2.6485 0.0429 -18628.4858 2046.8473 0.0000 0.0000 3072.8189 -13492.0469 287.7396 -16564.8658 -13488.4749 294.3229 43.5633 43.8733 555538.6078 1.5136 1.5575
ENERGY: 3000 1.4930 9.6251 3.5737 0.0025 -18624.3969 1934.9996 0.0000 0.0000 3134.2885 -13540.4145 293.4957 -16674.7029 -13535.0996 291.9812 -18.8593 -19.0340 569875.5561 1.6290 1.6304
ENERGY: 4000 1.7785 13.9852 3.5858 0.3843 -18611.5529 1938.0963 0.0000 0.0000 3194.4393 -13459.2835 299.1282 -16653.7227 -13452.4869 295.0819 -16.8333 -16.3405 588887.6839 2.0771 2.0762
ENERGY: 5000 5.2544 9.5207 3.1213 0.0844 -18523.5462 1928.1386 0.0000 0.0000 3242.6342 -13334.7926 303.6412 -16577.4268 -13327.9730 297.4663 -4.6968 -5.6962 596760.6364 0.8219 0.8229
TCL: Running FEP window   6: Lambda1 0.3125 Lambda2 0.375  [dLambda 0.0625]
TCL: Setting parameter firsttimestep to 0
TCL: Setting parameter alchLambda to 0.3125
Info: NONBONDED TABLE R-SQUARED SPACING: 0.0625
Info: NONBONDED TABLE SIZE: 769 POINTS
TCL: Setting parameter alchLambda2 to 0.375
Info: NONBONDED TABLE R-SQUARED SPACING: 0.0625
Info: NONBONDED TABLE SIZE: 769 POINTS
TCL: Running for 5000 steps
ETITLE: TS BOND ANGLE DIHED IMPRP ELECT VDW BOUNDARY MISC KINETIC TOTAL TEMP POTENTIAL TOTAL3 TEMPAVG PRESSURE GPRESSURE VOLUME PRESSAVG GPRESSAVG
ENERGY: 0 5.2544 9.5207 3.1213 0.0844 -18523.5462 1928.2985 0.0000 0.0000 3242.5349 -13334.7320 303.6319 -16577.2669 -13328.8520 303.6319 -5.3534 -5.4236 596760.6364 -5.3534 -5.4236
ENERGY: 1000 2.7894 13.9715 3.1027 0.0674 -18406.4770 1928.7948 0.0000 0.0000 3103.3591 -13354.3921 290.5994 -16457.7513 -13347.5716 297.1863 -23.9588 -23.1177 622376.1848 2.2729 2.2976
ENERGY: 2000 2.9780 7.7900 3.4656 0.0058 -18410.2949 1893.6972 0.0000 0.0000 3199.5220 -13302.8364 299.6041 -16502.3583 -13300.5658 298.3600 -20.6010 -20.6253 621666.5655 -0.2369 -0.2623
ENERGY: 3000 0.5554 13.3569 4.7400 0.4560 -18477.6521 1987.1610 0.0000 0.0000 3225.1577 -13246.2250 302.0047 -16471.3827 -13240.0031 299.6307 35.1456 35.6900 600093.3294 0.5847 0.5761
ENERGY: 4000 2.0842 8.6064 5.5377 0.2050 -18410.8436 1936.6147 0.0000 0.0000 3134.3606 -13323.4349 293.5024 -16457.7955 -13316.4414 299.1902 -21.2021 -20.5828 622697.9215 2.5187 2.4999
ENERGY: 5000 3.2686 12.4152 5.8740 0.0028 -18484.2695 1905.5717 0.0000 0.0000 3185.1700 -13371.9672 298.2602 -16557.1372 -13366.5189 298.6524 -11.6812 -11.0241 616506.1678 2.1634 2.1497
TCL: Running FEP window   7: Lambda1 0.375  Lambda2 0.4375 [dLambda 0.0625]
TCL: Setting parameter firsttimestep to 0
TCL: Setting parameter alchLambda to 0.375
Info: NONBONDED TABLE R-SQUARED SPACING: 0.0625
Info: NONBONDED TABLE SIZE: 769 POINTS
TCL: Setting parameter alchLambda2 to 0.4375
Info: NONBONDED TABLE R-SQUARED SPACING: 0.0625
Info: NONBONDED TABLE SIZE: 769 POINTS
TCL: Running for 5000 steps
ETITLE: TS BOND ANGLE DIHED IMPRP ELECT VDW BOUNDARY MISC KINETIC TOTAL TEMP POTENTIAL TOTAL3 TEMPAVG PRESSURE GPRESSURE VOLUME PRESSAVG GPRESSAVG
ENERGY: 0 3.2686 12.4152 5.8740 0.0028 -18484.2695 1906.4890 0.0000 0.0000 3185.0677 -13371.1521 298.2507 -16556.2199 -13364.3953 298.2507 -11.0091 -10.7773 616506.1678 -11.0091 -10.7773
ENERGY: 1000 2.8146 9.7929 3.6344 0.0087 -18513.1147 1977.0061 0.0000 0.0000 3204.7367 -13315.1214 300.0925 -16519.8580 -13306.8685 298.5164 23.2310 22.8733 606715.6556 1.8332 1.8261
ENERGY: 2000 1.7962 16.6294 3.2013 0.0645 -18435.8381 1886.0557 0.0000 0.0000 3095.2605 -13432.8305 289.8411 -16528.0911 -13427.5177 294.8529 -14.8464 -14.9480 580973.7507 1.1820 1.1810
ENERGY: 3000 3.7366 22.7012 4.3291 0.0926 -18467.9631 1902.8461 0.0000 0.0000 3102.9169 -13431.3405 290.5580 -16534.2574 -13424.5624 296.7458 -6.4176 -6.7203 577018.8389 -0.7420 -0.7479
ENERGY: 4000 3.5463 15.5257 4.0593 0.0690 -18599.4696 1978.9656 0.0000 0.0000 3246.7074 -13350.5962 304.0226 -16597.3036 -13342.5300 298.3169 12.4167 12.3827 571292.0486 0.5153 0.5194
ENERGY: 5000 1.6608 15.5312 2.1064 0.0410 -18476.4181 1919.4699 0.0000 0.0000 3200.8087 -13336.8002 299.7246 -16537.6089 -13328.3277 298.1581 -11.5835 -11.5795 543957.1994 2.9136 2.9802
TCL: Running FEP window   8: Lambda1 0.4375 Lambda2 0.5    [dLambda 0.0625]
TCL: Setting parameter firsttimestep to 0
TCL: Setting parameter alchLambda to 0.4375
Info: NONBONDED TABLE R-SQUARED SPACING: 0.0625
Info: NONBONDED TABLE SIZE: 769 POINTS
TCL: Setting parameter alchLambda2 to 0.5
Info: NONBONDED TABLE R-SQUARED SPACING: 0.0625
Info: NONBONDED TABLE SIZE: 769 POINTS
TCL: Running for 5000 steps
ETITLE: TS BOND ANGLE DIHED IMPRP ELECT VDW BOUNDARY MISC KINETIC TOTAL TEMP POTENTIAL TOTAL3 TEMPAVG PRESSURE GPRESSURE VOLUME PRESSAVG GPRESSAVG
ENERGY: 0 1.6608 15.5312 2.1064 0.0410 -18476.4181 1919.5920 0.0000 0.0000 3200.7104 -13336.7764 299.7154 -16537.4868 -13330.6534 299.7154 -11.5097 -11.2336 543957.1994 -11.5097 -11.2336
ENERGY: 1000 3.7794 13.1269 2.9351 0.0091 -18516.1447 1980.5615 0.0000 0.0000 3138.7639 -13376.9689 293.9147 -16515.7329 -13369.7192 296.4381 -1.5539 -0.9025 537087.8296 0.1062 0.1142
ENERGY: 2000 2.9587 10.8702 5.2758 0.3375 -18545.8888 1909.7811 0.0000 0.0000 3215.1788 -13401.4867 301.0703 -16616.6655 -13395.4572 295.4378 -36.2436 -36.5819 517860.9009 -0.6581 -0.6614
ENERGY: 3000 1.9804 9.7500 4.5836 0.0692 -18606.5420 1947.3390 0.0000 0.0000 3179.0572 -13463.7625 297.6878 -16642.8197 -13456.9544 295.5977 -32.6091 -33.3285 500311.1025 0.5036 0.5274
ENERGY: 4000 1.0347 12.1816 4.7428 0.3736 -18766.8766 2095.9075 0.0000 0.0000 3201.6594 -13450.9769 299.8043 -16652.6363 -13443.1365 295.6668 68.8027 67.3231 498474.7678 -0.2620 -0.2636
ENERGY: 5000 1.9441 8.4430 5.5675 0.0012 -18515.5560 1956.8364 0.0000 0.0000 3209.1496 -13333.6143 300.5057 -16542.7638 -13326.3972 296.0256 0.1960 0.7793 509785.9564 0.3615 0.4088
TCL: Running FEP window   9: Lambda1 0.5    Lambda2 0.5625 [dLambda 0.0625]
TCL: Setting parameter firsttimestep to 0
TCL: Setting parameter alchLambda to 0.5
Info: NONBONDED TABLE R-SQUARED SPACING: 0.0625
Info: NONBONDED TABLE SIZE: 769 POINTS
TCL: Setting parameter alchLambda2 to 0.5625
Info: NONBONDED TABLE R-SQUARED SPACING: 0.0625
Info: NONBONDED TABLE SIZE: 769 POINTS
TCL: Running for 5000 steps
ETITLE: TS BOND ANGLE DIHED IMPRP ELECT VDW BOUNDARY MISC KINETIC TOTAL TEMP POTENTIAL TOTAL3 TEMPAVG PRESSURE GPRESSURE VOLUME PRESSAVG GPRESSAVG
ENERGY: 0 1.9441 8.4430 5.5675 0.0012 -18515.5560 1958.2746 0.0000 0.0000 3209.0545 -13332.2712 300.4968 -16541.3256 -13325.2918 300.4968 1.3700 1.4680 509785.9564 1.3700 1.4680
ENERGY: 1000 3.1545 11.9405 1.9424 0.0635 -18547.6668 1900.4893 0.0000 0.0000 3232.7639 -13397.3127 302.7169 -16630.0765 -13390.9187 296.3359 -27.3466 -27.4689 527776.3346 1.9560 1.9816
ENERGY: 2000 3.2765 12.8881 3.7552 0.0530 -18375.4473 1858.2120 0.0000 0.0000 3171.3631 -13325.8994 296.9673 -16497.2625 -13319.4994 298.3467 -32.9795 -33.1436 522822.2154 -0.0841 -0.1295
ENERGY: 3000 2.2399 14.2470 4.9658 0.0495 -18422.8152 1969.7544 0.0000 0.0000 3216.5688 -13214.9898 301.2004 -16431.5586 -13207.6308 300.5336 33.6740 33.3728 525390.2500 1.6514 1.6713
ENERGY: 4000 4.0309 12.0456 6.8556 0.0213 -18578.1662 1961.5349 0.0000 0.0000 3217.1952 -13376.4827 301.2591 -16593.6779 -13371.9377 300.0797 8.7689 9.1762 510465.2321 2.2129 2.2243
ENERGY: 5000 1.0144 17.1546 3.6715 0.3362 -18481.5741 1954.1663 0.0000 0.0000 3114.3947 -13390.8364 291.6328 -16505.2310 -13383.2599 295.9061 4.6230 4.4459 497596.3330 0.6607 0.7014
TCL: Running FEP window  10: Lambda1 0.5625 Lambda2 0.625  [dLambda 0.0625]
TCL: Setting parameter firsttimestep to 0
TCL: Setting parameter alchLambda to 0.5625
Info: NONBONDED TABLE R-SQUARED SPACING: 0.0625
Info: NONBONDED TABLE SIZE: 769 POINTS
TCL: Setting parameter alchLambda2 to 0.625
Info: NONBONDED TABLE R-SQUARED SPACING: 0.0625
Info: NONBONDED TABLE SIZE: 769 POINTS
TCL: Running for 5000 steps
ETITLE: TS BOND ANGLE DIHED IMPRP ELECT VDW BOUNDARY MISC KINETIC TOTAL TEMP POTENTIAL TOTAL3 TEMPAVG PRESSURE GPRESSURE VOLUME PRESSAVG GPRESSAVG
ENERGY: 0 1.0144 17.1546 3.6715 0.3362 -18481.8071 1954.0541 0.0000 0.0000 3114.2941 -13391.2821 291.6234 -16505.5762 -13385.0025 291.6234 4.8370 4.6809 497596.3330 4.8370 4.6809
ENERGY: 1000 2.5875 18.6643 6.7497 0.1096 -18482.2474 1880.0345 0.0000 0.0000 3147.8092 -13426.2926 294.7617 -16574.1018 -13418.7029 296.8949 -42.4623 -42.0867 514042.0065 0.3302 0.3802
ENERGY: 2000 3.1822 11.3580 3.9294 0.2655 -18527.7062 2009.1926 0.0000 0.0000 3149.6331 -13350.1454 294.9325 -16499.7785 -13343.7746 296.1939 47.1156 46.0991 504382.5220 3.5146 3.4681
ENERGY: 3000 0.8271 13.4519 7.2756 0.2591 -18380.8711 1911.0087 0.0000 0.0000 3179.7900 -13268.2586 297.7564 -16448.0486 -13262.1769 299.8314 -3.7808 -3.6227 510145.0913 1.4411 1.4372
ENERGY: 4000 0.7216 10.5371 6.2043 0.1606 -18737.5552 2078.5157 0.0000 0.0000 3215.8147 -13425.6012 301.1298 -16641.4159 -13419.3768 297.1684 45.3674 45.4747 540189.4633 0.3069 0.3032
ENERGY: 5000 1.5486 8.6208 4.8737 0.0623 -18599.5944 1975.2127 0.0000 0.0000 3125.9970 -13483.2792 292.7193 -16609.2762 -13476.5195 293.0753 11.6016 10.9448 549411.3270 1.6919 1.6740
TCL: Running FEP window  11: Lambda1 0.625  Lambda2 0.6875 [dLambda 0.0625]
TCL: Setting parameter firsttimestep to 0
TCL: Setting parameter alchLambda to 0.625
Info: NONBONDED TABLE R-SQUARED SPACING: 0.0625
Info: NONBONDED TABLE SIZE: 769 POINTS
TCL: Setting parameter alchLambda2 to 0.6875
Info: NONBONDED TABLE R-SQUARED SPACING: 0.0625
Info: NONBONDED TABLE SIZE: 769 POINTS
TCL: Running for 5000 steps
ETITLE: TS BOND ANGLE DIHED IMPRP ELECT VDW BOUNDARY MISC KINETIC TOTAL TEMP POTENTIAL TOTAL3 TEMPAVG PRESSURE GPRESSURE VOLUME PRESSAVG GPRESSAVG
ENERGY: 0 1.5486 8.6208 4.8737 0.0623 -18599.7762 1975.1887 0.0000 0.0000 3125.8993 -13483.5828 292.7101 -16609.4821 -13477.2236 292.7101 11.1001 11.2336 549411.3270 11.1001 11.2336
ENERGY: 1000 2.3212 13.7335 5.0827 0.2144 -18409.8493 1844.6384 0.0000 0.0000 3106.6384 -13437.2207 290.9065 -16543.8591 -13430.3574 295.3364 -42.4973 -40.8983 526969.7205 0.0329 0.0567
ENERGY: 2000 5.3371 16.3304 1.7491 0.0024 -18564.6789 1897.7854 0.0000 0.0000 3148.6423 -13494.8323 294.8398 -16643.4746 -13488.3507 296.0607 -28.3180 -29.6360 519905.8488 0.4433 0.4367
ENERGY: 3000 2.9638 8.8434 3.9969 0.0419 -18594.4136 2045.6769 0.0000 0.0000 3175.0213 -13357.8695 297.3099 -16532.8908 -13351.4865 296.4657 41.3202 41.0323 514064.8360 2.0196 2.0243
ENERGY: 4000 0.4978 12.1816 3.3237 0.0851 -18488.0319 1950.3484 0.0000 0.0000 3276.0854 -13245.5098 306.7736 -16521.5953 -13242.1760 299.2696 11.2969 10.8874 514845.4927 1.0173 1.0119
ENERGY: 5000 2.6672 10.0545 3.5050 0.0066 -18493.9082 1927.0516 0.0000 0.0000 3258.0161 -13292.6073 305.0816 -16550.6234 -13286.4670 298.2138 -13.9674 -14.2066 514656.6996 2.1307 2.1276
TCL: Running FEP window  12: Lambda1 0.6875 Lambda2 0.75   [dLambda 0.0625]
TCL: Setting parameter firsttimestep to 0
TCL: Setting parameter alchLambda to 0.6875
Info: NONBONDED TABLE R-SQUARED SPACING: 0.0625
Info: NONBONDED TABLE SIZE: 769 POINTS
TCL: Setting parameter alchLambda2 to 0.75
Info: NONBONDED TABLE R-SQUARED SPACING: 0.0625
Info: NONBONDED TABLE SIZE: 769 POINTS
TCL: Running for 5000 steps
ETITLE: TS BOND ANGLE DIHED IMPRP ELECT VDW BOUNDARY MISC KINETIC TOTAL TEMP POTENTIAL TOTAL3 TEMPAVG PRESSURE GPRESSURE VOLUME PRESSAVG GPRESSAVG
ENERGY: 0 2.6672 10.0545 3.5050 0.0066 -18494.4203 1926.9622 0.0000 0.0000 3257.9189 -13293.3059 305.0725 -16551.2248 -13287.1581 305.0725 -13.8383 -13.8717 514656.6996 -13.8383 -13.8717
ENERGY: 1000 1.3276 12.2893 3.9634 0.2456 -18575.1795 2011.4130 0.0000 0.0000 3226.6279 -13319.3126 302.1424 -16545.9404 -13312.2917 299.3737 46.5395 46.8490 506059.3680 0.0049 0.0222
ENERGY: 2000 2.3763 9.7585 4.5035 0.0051 -18362.4430 1940.0610 0.0000 0.0000 3163.3099 -13242.4287 296.2132 -16405.7386 -13235.4098 299.3899 5.9570 6.6826 512810.5489 -0.7846 -0.7910
ENERGY: 3000 0.9696 17.3645 4.1281 0.0556 -18560.1064 1980.9225 0.0000 0.0000 3224.7489 -13331.9173 301.9664 -16556.6662 -13323.8825 299.5164 -3.0832 -2.8629 510413.6490 1.2944 1.3083
ENERGY: 4000 4.6576 12.4040 2.1151 0.0357 -18414.1454 1830.6793 0.0000 0.0000 3178.4924 -13385.7612 297.6349 -16564.2536 -13377.4542 298.1562 -63.0475 -63.1228 513881.5929 -0.4659 -0.5027
ENERGY: 5000 2.5269 8.9267 8.3079 0.2923 -18541.8982 1936.2248 0.0000 0.0000 3198.5042 -13387.1153 299.5088 -16585.6195 -13381.3787 298.1820 -7.5812 -6.8160 519886.0784 1.4500 1.4753
TCL: Running FEP window  13: Lambda1 0.75   Lambda2 0.8125 [dLambda 0.0625]
TCL: Setting parameter firsttimestep to 0
TCL: Setting parameter alchLambda to 0.75
Info: NONBONDED TABLE R-SQUARED SPACING: 0.0625
Info: NONBONDED TABLE SIZE: 769 POINTS
TCL: Setting parameter alchLambda2 to 0.8125
Info: NONBONDED TABLE R-SQUARED SPACING: 0.0625
Info: NONBONDED TABLE SIZE: 769 POINTS
TCL: Running for 5000 steps
ETITLE: TS BOND ANGLE DIHED IMPRP ELECT VDW BOUNDARY MISC KINETIC TOTAL TEMP POTENTIAL TOTAL3 TEMPAVG PRESSURE GPRESSURE VOLUME PRESSAVG GPRESSAVG
ENERGY: 0 2.5269 8.9267 8.3079 0.2923 -18544.0921 1937.7300 0.0000 0.0000 3198.4095 -13387.8987 299.5000 -16586.3083 -13381.5436 299.5000 -6.0212 -5.9042 519886.0784 -6.0212 -5.9042
ENERGY: 1000 2.9869 10.9407 2.5536 0.0792 -18463.6637 1877.4302 0.0000 0.0000 3171.3224 -13398.3509 296.9635 -16569.6733 -13392.6473 296.7353 -29.3787 -28.9054 514537.1845 -1.1371 -1.1617
ENERGY: 2000 2.2313 12.3222 5.3195 0.1463 -18440.4547 1965.6318 0.0000 0.0000 3175.0753 -13279.7284 297.3150 -16454.8036 -13275.7288 296.6684 5.1017 3.7051 521769.9175 1.2871 1.2648
ENERGY: 3000 4.1076 9.5819 5.5461 0.2984 -18437.6841 1908.6939 0.0000 0.0000 3151.8644 -13357.5918 295.1415 -16509.4562 -13351.9672 297.6737 -34.9395 -34.7630 545957.2964 1.3026 1.3339
ENERGY: 4000 1.9895 8.2264 5.7891 0.0703 -18652.1143 2067.3837 0.0000 0.0000 3195.0884 -13373.5669 299.1890 -16568.6553 -13364.9589 298.4642 54.2024 53.7768 543284.8008 1.4266 1.4089
ENERGY: 5000 3.8041 11.3375 3.7251 0.0270 -18487.2995 1970.7445 0.0000 0.0000 3157.7074 -13339.9539 295.6886 -16497.6613 -13332.0203 295.5881 32.7859 32.6694 531196.1270 2.3213 2.3048
TCL: Running FEP window  14: Lambda1 0.8125 Lambda2 0.875  [dLambda 0.0625]
TCL: Setting parameter firsttimestep to 0
TCL: Setting parameter alchLambda to 0.8125
Info: NONBONDED TABLE R-SQUARED SPACING: 0.0625
Info: NONBONDED TABLE SIZE: 769 POINTS
TCL: Setting parameter alchLambda2 to 0.875
Info: NONBONDED TABLE R-SQUARED SPACING: 0.0625
Info: NONBONDED TABLE SIZE: 769 POINTS
TCL: Running for 5000 steps
ETITLE: TS BOND ANGLE DIHED IMPRP ELECT VDW BOUNDARY MISC KINETIC TOTAL TEMP POTENTIAL TOTAL3 TEMPAVG PRESSURE GPRESSURE VOLUME PRESSAVG GPRESSAVG
ENERGY: 0 3.8041 11.3375 3.7251 0.0270 -18488.2295 1971.3704 0.0000 0.0000 3157.6125 -13340.3530 295.6797 -16497.9654 -13334.5868 295.6797 33.4253 33.5799 531196.1270 33.4253 33.5799
ENERGY: 1000 5.3200 13.9481 5.1851 0.1128 -18621.5800 2049.3835 0.0000 0.0000 3175.3560 -13372.2744 297.3412 -16547.6305 -13368.2391 297.1812 57.6953 58.2721 534417.9782 1.4875 1.5237
ENERGY: 2000 5.1416 8.2395 3.8239 0.1203 -18564.1049 1977.8995 0.0000 0.0000 3239.8478 -13329.0323 303.3803 -16568.8801 -13321.3346 298.6356 0.2469 -0.1449 562320.1759 1.5457 1.5591
ENERGY: 3000 0.8747 13.4756 3.2178 0.0973 -18464.5644 1975.1534 0.0000 0.0000 3114.6128 -13357.1327 291.6532 -16471.7456 -13350.1050 298.3539 26.2872 25.5010 543434.8526 1.0860 1.0897
ENERGY: 4000 3.5246 10.8902 3.6453 0.2051 -18409.7595 1922.4109 0.0000 0.0000 3117.3637 -13351.7196 291.9108 -16469.0833 -13345.7122 296.7620 -21.6720 -22.2701 544317.5618 -0.4678 -0.4874
ENERGY: 5000 3.5048 9.3968 3.5553 0.0332 -18596.8100 1984.9400 0.0000 0.0000 3179.5777 -13415.8021 297.7366 -16595.3798 -13409.0712 297.7576 -16.6229 -16.2785 566521.7537 1.7335 1.7365
TCL: Running FEP window  15: Lambda1 0.875  Lambda2 0.9375 [dLambda 0.0625]
TCL: Setting parameter firsttimestep to 0
TCL: Setting parameter alchLambda to 0.875
Info: NONBONDED TABLE R-SQUARED SPACING: 0.0625
Info: NONBONDED TABLE SIZE: 769 POINTS
TCL: Setting parameter alchLambda2 to 0.9375
Info: NONBONDED TABLE R-SQUARED SPACING: 0.0625
Info: NONBONDED TABLE SIZE: 769 POINTS
TCL: Running for 5000 steps
ETITLE: TS BOND ANGLE DIHED IMPRP ELECT VDW BOUNDARY MISC KINETIC TOTAL TEMP POTENTIAL TOTAL3 TEMPAVG PRESSURE GPRESSURE VOLUME PRESSAVG GPRESSAVG
ENERGY: 0 3.5048 9.3968 3.5553 0.0332 -18597.9765 1986.3187 0.0000 0.0000 3179.4782 -13415.6894 297.7272 -16595.1676 -13409.5225 297.7272 -15.4476 -15.1054 566521.7537 -15.4476 -15.1054
ENERGY: 1000 1.2495 11.1475 2.7689 0.0147 -18613.8894 1961.1802 0.0000 0.0000 3152.0747 -13485.4538 295.1612 -16637.5286 -13480.3886 292.9017 5.2953 5.7812 560313.2508 0.5782 0.5846
ENERGY: 2000 3.2385 8.7271 3.8378 0.0141 -18559.8608 1936.8593 0.0000 0.0000 3151.9203 -13455.2638 295.1467 -16607.1841 -13450.4774 295.2280 -7.6679 -7.3170 558464.4223 2.5657 2.5671
ENERGY: 3000 2.4586 8.5133 4.8001 0.0471 -18688.9217 2019.7458 0.0000 0.0000 3117.3220 -13536.0346 291.9069 -16653.3566 -13528.4707 292.6075 47.6552 47.4379 546646.0824 2.0173 2.0111
ENERGY: 4000 2.6009 12.6357 3.1461 0.0022 -18615.1522 2000.5827 0.0000 0.0000 3073.7929 -13522.3918 287.8308 -16596.1846 -13517.3871 293.8501 27.4755 28.2136 538417.6559 2.5345 2.5520
ENERGY: 5000 2.7522 9.8911 6.3792 0.0858 -18608.9369 1977.7324 0.0000 0.0000 3124.9792 -13487.1168 292.6239 -16612.0961 -13480.5053 295.2834 -6.7360 -6.1721 525511.4113 2.1067 2.0944
TCL: Running FEP window  16: Lambda1 0.9375 Lambda2 1.0    [dLambda 0.0625]
TCL: Setting parameter firsttimestep to 0
TCL: Setting parameter alchLambda to 0.9375
Info: NONBONDED TABLE R-SQUARED SPACING: 0.0625
Info: NONBONDED TABLE SIZE: 769 POINTS
TCL: Setting parameter alchLambda2 to 1.0
Info: NONBONDED TABLE R-SQUARED SPACING: 0.0625
Info: NONBONDED TABLE SIZE: 769 POINTS
TCL: Running for 5000 steps
ETITLE: TS BOND ANGLE DIHED IMPRP ELECT VDW BOUNDARY MISC KINETIC TOTAL TEMP POTENTIAL TOTAL3 TEMPAVG PRESSURE GPRESSURE VOLUME PRESSAVG GPRESSAVG
ENERGY: 0 2.7522 9.8911 6.3792 0.0858 -18610.7507 1980.1805 0.0000 0.0000 3124.8797 -13486.5821 292.6146 -16611.4618 -13481.1102 292.6146 -4.1447 -3.9600 525511.4113 -4.1447 -3.9600
ENERGY: 1000 2.5898 10.9332 4.0507 0.6049 -18509.5940 1941.6266 0.0000 0.0000 3107.4023 -13442.3865 290.9780 -16549.7888 -13437.8113 294.6497 -4.3349 -4.2851 510664.8060 -0.5959 -0.6192
ENERGY: 2000 5.5976 11.9529 3.0515 0.0811 -18475.7440 1947.6627 0.0000 0.0000 3148.9490 -13358.4492 294.8685 -16507.3982 -13350.9717 296.4894 22.2675 21.9335 484270.9925 2.7329 2.8089
ENERGY: 3000 1.3263 14.7289 3.3802 0.0114 -18494.2620 1938.8023 0.0000 0.0000 3162.2191 -13373.7938 296.1111 -16536.0129 -13370.7587 298.1722 29.4697 29.0294 464246.0925 1.2632 1.2672
ENERGY: 4000 6.8554 10.6607 4.4108 0.0246 -18536.8859 1924.2774 0.0000 0.0000 3182.6629 -13407.9942 298.0255 -16590.6571 -13402.9814 296.3073 -42.6916 -43.1305 472757.4174 -1.4106 -1.3999
ENERGY: 5000 1.6869 11.8221 4.3041 0.1460 -18496.0833 1923.2569 0.0000 0.0000 3138.1090 -13416.7582 293.8534 -16554.8673 -13410.5641 296.3600 -12.6330 -12.6168 456014.4063 0.7986 0.7972
