Info: SIMULATION PARAMETERS:
Info: TIMESTEP               2
Info: NUMBER OF STEPS        0
Info: STEPS PER CYCLE        10
Info: PERIODIC CELL BASIS 1  31.606 0 0
Info: PERIODIC CELL BASIS 2  0 31.5083 0
Info: PERIODIC CELL BASIS 3  0 0 30.7818
Info: PERIODIC CELL CENTER   0 0 0
Info: WRAPPING WATERS AROUND PERIODIC BOUNDARIES ON OUTPUT.
Info: WRAPPING ALL CLUSTERS AROUND PERIODIC BOUNDARIES ON OUTPUT.
Info: FIRST LDB TIMESTEP     50
Info: LAST LDB TIMESTEP     -1
Info: HOM BACKGROUND SCALING 1
Info: PME BACKGROUND SCALING 1
Info: MIN ATOMS PER PATCH    40
Info: EMPTY PATCH LOAD       40 ATOMS
Info: VELOCITY FILE          mobley_1636752_equil.vel
Info: CENTER OF MASS MOVING INITIALLY? NO
Info: DIELECTRIC             1
Info: EXCLUDE                SCALED ONE-FOUR
Info: 1-4 ELECTROSTATICS SCALED BY 0.833333
Info: MODIFIED 1-4 VDW PARAMETERS WILL BE USED
Info: DCD FILENAME           mobley_1636752_prod.dcd
Info: DCD FREQUENCY          100000
Info: DCD FIRST STEP         100000
Info: DCD FILE WILL CONTAIN UNIT CELL DATA
Info: XST FILENAME           mobley_1636752_prod.xst
Info: XST FREQUENCY          100000
Info: NO VELOCITY DCD OUTPUT
Info: NO FORCE DCD OUTPUT
Info: OUTPUT FILENAME        mobley_1636752_prod
Info: BINARY OUTPUT FILES WILL BE USED
Info: RESTART FILENAME       mobley_1636752_prod.restart
Info: RESTART FREQUENCY      100000
Info: BINARY RESTART FILES WILL BE USED
Info: CUTOFF                 9
Info: PAIRLIST DISTANCE      11
Info: PAIRLIST SHRINK RATE   0.01
Info: PAIRLIST GROW RATE     0.01
Info: PAIRLIST TRIGGER       0.3
Info: PAIRLISTS PER CYCLE    2
Info: PAIRLISTS ENABLED
Info: MARGIN                 2
Info: HYDROGEN GROUP CUTOFF  2.5
Info: PATCH DIMENSION        15.5
Info: ENERGY OUTPUT STEPS    100000
Info: ENERGY EVALUATION STEPS    100000
Info: OUTPUT ENERGY PRECISION 4
Info: CROSSTERM ENERGY INCLUDED IN DIHEDRAL
Info: TIMING OUTPUT STEPS    1000000
Info: PRESSURE OUTPUT STEPS  100000
Info: ALCHEMICAL FEP ON
Info: FEP CURRENT LAMBDA VALUE     0
Info: FEP COMPARISON LAMBDA VALUE  0.05
Info: FEP INTRA-ALCHEMICAL NON-BONDED INTERACTIONS WILL BE RETAINED
Info: FEP INTRA-ALCHEMICAL BONDED INTERACTIONS WILL BE RETAINED
Info: FEP VDW SHIFTING COEFFICIENT 5
Info: FEP ELEC. ACTIVE FOR ANNIHILATED PARTICLES BETWEEN LAMBDA = 0 AND LAMBDA = 0.5
Info: FEP ELEC. ACTIVE FOR EXNIHILATED PARTICLES BETWEEN LAMBDA = 0.5 AND LAMBDA = 1
Info: FEP VDW ACTIVE FOR ANNIHILATED PARTICLES BETWEEN LAMBDA = 0 AND LAMBDA = 1
Info: FEP VDW ACTIVE FOR EXNIHILATED PARTICLES BETWEEN LAMBDA = 0 AND LAMBDA = 1
Info: FEP BOND ACTIVE FOR ANNIHILATED PARTICLES BETWEEN LAMBDA = 1 AND LAMBDA = 1
Info: FEP BOND ACTIVE FOR EXNIHILATED PARTICLES BETWEEN LAMBDA = 0 AND LAMBDA = 0
Info: LANGEVIN DYNAMICS ACTIVE
Info: LANGEVIN TEMPERATURE   300
Info: LANGEVIN USING BBK INTEGRATOR
Info: LANGEVIN DAMPING COEFFICIENT IS 1 INVERSE PS
Info: LANGEVIN DYNAMICS APPLIED TO HYDROGENS
Info: LANGEVIN PISTON PRESSURE CONTROL ACTIVE
Info:        TARGET PRESSURE IS 1.01325 BAR
Info:     OSCILLATION PERIOD IS 50 FS
Info:             DECAY TIME IS 25 FS
Info:     PISTON TEMPERATURE IS 300 K
Info:       PRESSURE CONTROL IS GROUP-BASED
Info:    INITIAL STRAIN RATE IS 0.000343587 0.000343587 0.000343587
Info:       CELL FLUCTUATION IS ISOTROPIC
Info: PARTICLE MESH EWALD (PME) ACTIVE
Info: PME TOLERANCE               1e-06
Info: PME EWALD COEFFICIENT       0.348832
Info: PME INTERPOLATION ORDER     4
Info: PME GRID DIMENSIONS         32 32 32
Info: PME MAXIMUM GRID SPACING    1
Info: PME CALCULATION WILL BE PERFORMED ON GPU
Info: FULL ELECTROSTATIC EVALUATION FREQUENCY      2
Info: USING VERLET I (r-RESPA) MTS SCHEME.
Info: C1 SPLITTING OF LONG RANGE ELECTROSTATICS
Info: PLACING ATOMS IN PATCHES BY HYDROGEN GROUPS
Info: RIGID BONDS TO HYDROGEN : ALL
Info:         ERROR TOLERANCE : 1e-08
Info:          MAX ITERATIONS : 100
Info: RIGID WATER USING SETTLE ALGORITHM
Info: RANDOM NUMBER SEED     1742293408
Info: USE HYDROGEN BONDS?    NO
Info: Using AMBER format force field!
Info: AMBER PARM FILE        mobley_1636752.prmtop
Info: COORDINATE PDB         mobley_1636752.pdb
Info: Exclusions will be read from PARM file!
Info: SCNB (VDW SCALING)     2
Info: USING ARITHMETIC MEAN TO COMBINE L-J SIGMA PARAMETERS
Info: BINARY COORDINATES     mobley_1636752_equil.coor
Info: SUMMARY OF PARAMETERS:
Info: 5 BONDS
Info: 3 ANGLES
Info:   3 HARMONIC
Info:   0 COSINE-BASED
Info: 1 DIHEDRAL
Info: 0 IMPROPER
Info: 0 CROSSTERM
Info: 0 VDW
Info: 21 VDW_PAIRS
Info: 0 NBTHOLE_PAIRS
Info: To read alchdata from file: mobley_1636752.pdb
Info: To read alchflag data from column: 5
Info: STRUCTURE SUMMARY:
Info: 2943 ATOMS
Info: 2942 BONDS
Info: 7 ANGLES
Info: 3 DIHEDRALS
Info: 0 IMPROPERS
Info: 0 CROSSTERMS
Info: 2952 EXCLUSIONS
Info: 2941 RIGID BONDS
Info: ALCH: 0 ATOMS TO DISAPPEAR IN FINAL STATE
Info: ALCH: 6 ATOMS TO APPEAR IN FINAL STATE
Info: 5888 DEGREES OF FREEDOM
Info: 981 HYDROGEN GROUPS
Info: 4 ATOMS IN LARGEST HYDROGEN GROUP
Info: 981 MIGRATION GROUPS
Info: 4 ATOMS IN LARGEST MIGRATION GROUP
Info: TOTAL MASS = 17669.7 amu
Info: TOTAL CHARGE = 9.99756e-05 e
Info: MASS DENSITY = 0.957195 g/cm^3
Info: ATOM DENSITY = 0.0960068 atoms/A^3
Info: ADDED 0 IMPLICIT EXCLUSIONS
Info: NONBONDED TABLE R-SQUARED SPACING: 0.0625
Info: NONBONDED TABLE SIZE: 705 POINTS
Info: REMOVING COM VELOCITY -0.176722 -0.00542622 -0.015139
Info: Use 3D box decompostion in PME FFT.
Info: Updated CUDA force table with 4096 elements.
Info: Updated CUDA LJ table with 6 x 6 elements.
Info: Found 9 unique exclusion lists needing 12 bytes
TCL: Running for 1500000 steps
ETITLE: TS BOND ANGLE DIHED IMPRP ELECT VDW BOUNDARY MISC KINETIC TOTAL TEMP POTENTIAL TOTALAVG TEMPAVG PRESSURE GPRESSURE VOLUME PRESSAVG GPRESSAVG
ENERGY: 0 0.0106 2.7612 0.0169 0.0000 -10592.3588 1333.2885 0.0000 0.0000 1772.5240 -7483.7575 302.9805 -9256.2816 -7483.7575 302.9805 -1047.5276 -954.4151 30654.0713 -1047.5276 -954.4151
ENERGY: 300000 0.0917 2.0207 0.2993 0.0000 -10724.9708 1431.0510 0.0000 0.0000 1783.3074 -7508.2008 304.8237 -9291.5082 -7481.6995 299.7154 -287.5999 -206.0451 30371.3179 -384.3189 -309.3671
ENERGY: 600000 0.3482 1.2455 0.0359 0.0000 -10738.2513 1475.2746 0.0000 0.0000 1760.4427 -7500.9043 300.9154 -9261.3470 -7479.4065 300.6902 201.3749 313.2572 30093.8904 -111.1257 -37.5945
ENERGY: 900000 0.4095 3.2820 0.0123 0.0000 -10711.3222 1379.9263 0.0000 0.0000 1756.1537 -7571.5384 300.1823 -9327.6921 -7497.2798 300.3009 -743.2020 -750.1382 30399.4978 -147.1265 -87.7847
ENERGY: 1200000 1.2084 5.3895 0.1358 0.0000 -10658.1737 1371.8741 0.0000 0.0000 1756.7650 -7522.8010 300.2868 -9279.5659 -7489.7604 300.3514 -782.6144 -689.6548 30496.0354 -80.1895 -17.9364
ENERGY: 1500000 0.0580 3.4065 0.2366 0.0000 -10691.1871 1388.3532 0.0000 0.0000 1732.4502 -7566.6827 296.1306 -9299.1329 -7501.4621 299.7695 -599.4569 -508.0512 30320.9212 -73.6626 -9.3009
TCL: Running FEP window   2: Lambda1 0.05   Lambda2 0.1    [dLambda 0.05  ]
TCL: Setting parameter firsttimestep to 0
TCL: Setting parameter alchLambda to 0.05
Info: NONBONDED TABLE R-SQUARED SPACING: 0.0625
Info: NONBONDED TABLE SIZE: 705 POINTS
TCL: Setting parameter alchLambda2 to 0.1
Info: NONBONDED TABLE R-SQUARED SPACING: 0.0625
Info: NONBONDED TABLE SIZE: 705 POINTS
TCL: Running for 1500000 steps
ETITLE: TS BOND ANGLE DIHED IMPRP ELECT VDW BOUNDARY MISC KINETIC TOTAL TEMP POTENTIAL TOTALAVG TEMPAVG PRESSURE GPRESSURE VOLUME PRESSAVG GPRESSAVG
ENERGY: 0 0.0580 3.4065 0.2366 0.0000 -10691.1873 1388.3436 0.0000 0.0000 1731.5853 -7567.5574 295.9828 -9299.1427 -7567.5574 295.9828 -605.9266 -506.4421 30320.9212 -605.9266 -506.4421
ENERGY: 300000 0.5328 1.9491 0.0121 0.0000 -10788.1748 1540.4912 0.0000 0.0000 1777.4416 -7467.7480 303.8211 -9245.1896 -7516.2437 297.9233 893.2893 907.7886 29745.3792 117.5130 183.8172
ENERGY: 600000 0.6493 1.7949 0.0030 0.0000 -10673.2031 1400.3179 0.0000 0.0000 1736.5455 -7533.8925 296.8306 -9270.4380 -7513.3736 298.4481 -358.2009 -298.9967 30273.8206 145.6272 228.5420
ENERGY: 900000 0.4239 3.4352 0.0294 0.0000 -10797.5331 1514.5975 0.0000 0.0000 1748.4130 -7530.6341 298.8592 -9279.0471 -7511.1654 300.0906 481.0282 563.5353 30197.0244 31.5707 101.4086
ENERGY: 1200000 0.0285 2.4370 0.5419 0.0000 -10664.9150 1440.8296 0.0000 0.0000 1753.5616 -7467.5165 299.7392 -9221.0780 -7508.3067 299.6847 -96.6122 -54.7352 30546.7268 -7.7895 58.6598
ENERGY: 1500000 0.2475 3.4529 0.2503 0.0000 -10810.0370 1593.2725 0.0000 0.0000 1791.6425 -7421.1712 306.2485 -9212.8138 -7497.6086 300.5761 1379.5045 1372.2125 30033.2159 82.6741 143.3410
TCL: Running FEP window   3: Lambda1 0.1    Lambda2 0.15000000000000002 [dLambda 0.05000000000000002]
TCL: Setting parameter firsttimestep to 0
TCL: Setting parameter alchLambda to 0.1
Info: NONBONDED TABLE R-SQUARED SPACING: 0.0625
Info: NONBONDED TABLE SIZE: 705 POINTS
TCL: Setting parameter alchLambda2 to 0.15000000000000002
Info: NONBONDED TABLE R-SQUARED SPACING: 0.0625
Info: NONBONDED TABLE SIZE: 705 POINTS
TCL: Running for 1500000 steps
ETITLE: TS BOND ANGLE DIHED IMPRP ELECT VDW BOUNDARY MISC KINETIC TOTAL TEMP POTENTIAL TOTALAVG TEMPAVG PRESSURE GPRESSURE VOLUME PRESSAVG GPRESSAVG
ENERGY: 0 0.2475 3.4529 0.2503 0.0000 -10810.0363 1594.6240 0.0000 0.0000 1790.7311 -7420.7306 306.0927 -9211.4616 -7420.7306 306.0927 1307.7812 1375.5688 30033.2159 1307.7812 1375.5688
ENERGY: 300000 0.1782 0.2521 0.4336 0.0000 -10691.5032 1414.6208 0.0000 0.0000 1772.0059 -7504.0126 302.8920 -9276.0185 -7460.5383 306.5573 -341.7685 -279.2553 30224.2208 369.9977 428.7068
ENERGY: 600000 0.0206 1.2401 0.0064 0.0000 -10716.9267 1396.7363 0.0000 0.0000 1801.1955 -7517.7277 307.8814 -9318.9232 -7487.1317 304.0450 -502.3727 -468.8806 30324.5989 96.6827 144.7463
ENERGY: 900000 0.5906 1.1932 0.1081 0.0000 -10718.7133 1443.1222 0.0000 0.0000 1767.1516 -7506.5476 302.0622 -9273.6992 -7485.6613 303.9243 100.4015 199.2146 29982.2557 35.9660 101.2763
ENERGY: 1200000 0.0079 3.1283 0.5449 0.0000 -10629.8634 1383.8815 0.0000 0.0000 1744.8178 -7497.4829 298.2447 -9242.3008 -7493.3235 303.7746 -505.2267 -471.6627 30474.8231 57.4820 110.2399
ENERGY: 1500000 0.5501 2.1465 0.5986 0.0000 -10699.8925 1474.6905 0.0000 0.0000 1778.8700 -7443.0368 304.0653 -9221.9068 -7495.4709 303.1345 643.6661 694.5809 29915.1730 -17.0232 30.6107
TCL: Running FEP window   4: Lambda1 0.15000000000000002 Lambda2 0.2    [dLambda 0.04999999999999999]
TCL: Setting parameter firsttimestep to 0
TCL: Setting parameter alchLambda to 0.15000000000000002
Info: NONBONDED TABLE R-SQUARED SPACING: 0.0625
Info: NONBONDED TABLE SIZE: 705 POINTS
TCL: Setting parameter alchLambda2 to 0.2
Info: NONBONDED TABLE R-SQUARED SPACING: 0.0625
Info: NONBONDED TABLE SIZE: 705 POINTS
TCL: Running for 1500000 steps
ETITLE: TS BOND ANGLE DIHED IMPRP ELECT VDW BOUNDARY MISC KINETIC TOTAL TEMP POTENTIAL TOTALAVG TEMPAVG PRESSURE GPRESSURE VOLUME PRESSAVG GPRESSAVG
ENERGY: 0 0.5501 2.1465 0.5986 0.0000 -10699.8931 1474.6335 0.0000 0.0000 1778.0016 -7443.9628 303.9168 -9221.9644 -7443.9628 303.9168 609.6584 697.7695 29915.1730 609.6584 697.7695
ENERGY: 300000 0.0061 0.9563 0.6453 0.0000 -10758.4758 1507.9695 0.0000 0.0000 1734.8912 -7514.0075 296.5479 -9248.8987 -7488.0474 301.4759 242.4296 299.5025 30541.4697 413.7731 472.4024
ENERGY: 600000 0.0405 0.8428 0.3464 0.0000 -10773.4743 1544.4088 0.0000 0.0000 1776.9643 -7450.8715 303.7395 -9227.8357 -7486.1395 301.2192 871.5011 958.7502 30137.3954 327.9424 370.8604
ENERGY: 900000 0.0237 1.2240 0.2138 0.0000 -10888.8458 1574.1227 0.0000 0.0000 1787.3868 -7525.8748 305.5210 -9313.2616 -7502.1347 300.9939 992.2387 1075.2545 29654.3759 307.2206 355.6319
ENERGY: 1200000 0.0024 0.4811 0.1273 0.0000 -10723.4488 1471.2956 0.0000 0.0000 1796.0080 -7455.5344 306.9947 -9251.5424 -7484.7475 301.3588 289.8171 292.3623 30164.4352 199.6728 243.1420
ENERGY: 1500000 0.2093 2.2785 0.5503 0.0000 -10669.7697 1456.8674 0.0000 0.0000 1779.9343 -7429.9299 304.2472 -9209.8642 -7486.1678 301.0690 -38.9186 2.6211 30785.7662 196.6126 235.5517
TCL: Running FEP window   5: Lambda1 0.2    Lambda2 0.25   [dLambda 0.04999999999999999]
TCL: Setting parameter firsttimestep to 0
TCL: Setting parameter alchLambda to 0.2
Info: NONBONDED TABLE R-SQUARED SPACING: 0.0625
Info: NONBONDED TABLE SIZE: 705 POINTS
TCL: Setting parameter alchLambda2 to 0.25
Info: NONBONDED TABLE R-SQUARED SPACING: 0.0625
Info: NONBONDED TABLE SIZE: 705 POINTS
TCL: Running for 1500000 steps
ETITLE: TS BOND ANGLE DIHED IMPRP ELECT VDW BOUNDARY MISC KINETIC TOTAL TEMP POTENTIAL TOTALAVG TEMPAVG PRESSURE GPRESSURE VOLUME PRESSAVG GPRESSAVG
ENERGY: 0 0.2093 2.2785 0.5503 0.0000 -10669.7682 1456.6982 0.0000 0.0000 1779.0491 -7430.9828 304.0959 -9210.0319 -7430.9828 304.0959 -72.6014 3.0036 30785.7662 -72.6014 3.0036
ENERGY: 300000 0.4087 2.6977 0.0493 0.0000 -10749.2309 1459.5575 0.0000 0.0000 1730.8080 -7555.7098 295.8499 -9286.5178 -7502.3281 297.9392 115.2589 174.3160 29839.1476 -157.5081 -109.2510
ENERGY: 600000 0.1079 4.3382 0.3692 0.0000 -10591.4830 1421.4814 0.0000 0.0000 1760.4603 -7404.7260 300.9184 -9165.1863 -7479.3134 300.1093 273.8865 284.5972 30035.6060 -179.4106 -137.2488
ENERGY: 900000 0.0349 2.5838 0.1334 0.0000 -10701.4608 1477.9860 0.0000 0.0000 1735.1211 -7485.6015 296.5872 -9220.7226 -7481.0982 299.7887 233.2574 289.0479 30611.3006 -100.1424 -52.3424
ENERGY: 1200000 0.0005 1.0959 0.0173 0.0000 -10521.9730 1432.4677 0.0000 0.0000 1737.1621 -7351.2295 296.9360 -9088.3916 -7471.5091 300.0375 200.7865 262.1204 30620.7476 -111.6828 -57.5139
ENERGY: 1500000 0.6379 1.4918 0.3402 0.0000 -10600.7120 1395.3854 0.0000 0.0000 1702.3881 -7500.4685 290.9921 -9202.8567 -7471.6228 299.4231 -661.4253 -621.7963 30993.1200 -47.7701 3.7496
TCL: Running FEP window   6: Lambda1 0.25   Lambda2 0.3    [dLambda 0.04999999999999999]
TCL: Setting parameter firsttimestep to 0
TCL: Setting parameter alchLambda to 0.25
Info: NONBONDED TABLE R-SQUARED SPACING: 0.0625
Info: NONBONDED TABLE SIZE: 705 POINTS
TCL: Setting parameter alchLambda2 to 0.3
Info: NONBONDED TABLE R-SQUARED SPACING: 0.0625
Info: NONBONDED TABLE SIZE: 705 POINTS
TCL: Running for 1500000 steps
ETITLE: TS BOND ANGLE DIHED IMPRP ELECT VDW BOUNDARY MISC KINETIC TOTAL TEMP POTENTIAL TOTALAVG TEMPAVG PRESSURE GPRESSURE VOLUME PRESSAVG GPRESSAVG
ENERGY: 0 0.6379 1.4918 0.3402 0.0000 -10600.7109 1396.6413 0.0000 0.0000 1701.4903 -7500.1094 290.8386 -9201.5997 -7500.1094 290.8386 -704.3004 -614.8029 30993.1200 -704.3004 -614.8029
ENERGY: 300000 1.5067 2.4919 0.6004 0.0000 -10729.2909 1484.0181 0.0000 0.0000 1812.7145 -7427.9593 309.8504 -9240.6738 -7454.7793 300.7100 527.3906 646.2828 29953.8150 -105.6757 -24.9727
ENERGY: 600000 0.0455 2.4524 0.0458 0.0000 -10814.9705 1449.5935 0.0000 0.0000 1791.7211 -7571.1122 306.2619 -9362.8334 -7484.9842 300.1262 -281.6822 -186.2996 30266.4448 -104.5441 -28.8296
ENERGY: 900000 1.0639 0.9464 0.2933 0.0000 -10728.0541 1474.4221 0.0000 0.0000 1745.7863 -7505.5419 298.4102 -9251.3283 -7486.5853 299.1863 274.9414 302.4363 30249.5694 -83.5304 -8.7480
ENERGY: 1200000 0.0217 3.3215 0.2205 0.0000 -10738.6875 1454.8531 0.0000 0.0000 1742.3190 -7537.9517 297.8175 -9280.2707 -7487.1009 299.1172 24.1842 129.8506 30091.8165 25.5128 99.7891
ENERGY: 1500000 0.1957 1.5413 0.0126 0.0000 -10611.9534 1374.9598 0.0000 0.0000 1728.9100 -7506.3340 295.5255 -9235.2440 -7488.1036 298.9297 -728.2565 -655.7416 30571.9263 -15.9344 56.7979
TCL: Running FEP window   7: Lambda1 0.3    Lambda2 0.35   [dLambda 0.04999999999999999]
TCL: Setting parameter firsttimestep to 0
TCL: Setting parameter alchLambda to 0.3
Info: NONBONDED TABLE R-SQUARED SPACING: 0.0625
Info: NONBONDED TABLE SIZE: 705 POINTS
TCL: Setting parameter alchLambda2 to 0.35
Info: NONBONDED TABLE R-SQUARED SPACING: 0.0625
Info: NONBONDED TABLE SIZE: 705 POINTS
TCL: Running for 1500000 steps
ETITLE: TS BOND ANGLE DIHED IMPRP ELECT VDW BOUNDARY MISC KINETIC TOTAL TEMP POTENTIAL TOTALAVG TEMPAVG PRESSURE GPRESSURE VOLUME PRESSAVG GPRESSAVG
ENERGY: 0 0.1957 1.5413 0.0126 0.0000 -10611.9535 1374.7800 0.0000 0.0000 1728.0230 -7507.4009 295.3739 -9235.4239 -7507.4009 295.3739 -743.3556 -657.4556 30571.9263 -743.3556 -657.4556
ENERGY: 300000 0.9918 1.7279 0.4998 0.0000 -10718.5793 1460.0641 0.0000 0.0000 1749.0630 -7506.2327 298.9703 -9255.2956 -7514.8499 298.5766 178.3909 171.9614 30258.7850 -79.5058 -38.1099
ENERGY: 600000 0.0200 4.3397 0.0439 0.0000 -10739.0219 1493.9910 0.0000 0.0000 1829.1952 -7411.4321 312.6674 -9240.6273 -7494.0704 301.6595 489.8375 571.1479 30154.0756 72.0843 122.3912
ENERGY: 900000 1.7731 1.5029 0.7026 0.0000 -10703.7426 1455.5720 0.0000 0.0000 1751.6555 -7492.5366 299.4134 -9244.1921 -7491.4332 300.7072 -247.2523 -180.4716 30825.6500 71.1131 129.1731
ENERGY: 1200000 0.5786 1.2121 0.0208 0.0000 -10842.3234 1522.4606 0.0000 0.0000 1734.4284 -7583.6229 296.4688 -9318.0513 -7497.7924 300.6551 428.6469 471.7860 29970.1467 38.4585 94.2671
ENERGY: 1500000 0.0730 1.4221 0.1766 0.0000 -10861.9748 1553.6502 0.0000 0.0000 1786.6808 -7519.9721 305.4004 -9306.6529 -7493.1203 302.5309 464.7527 597.3853 30410.0997 88.0925 147.5609
TCL: Running FEP window   8: Lambda1 0.35   Lambda2 0.39999999999999997 [dLambda 0.04999999999999999]
TCL: Setting parameter firsttimestep to 0
TCL: Setting parameter alchLambda to 0.35
Info: NONBONDED TABLE R-SQUARED SPACING: 0.0625
Info: NONBONDED TABLE SIZE: 705 POINTS
TCL: Setting parameter alchLambda2 to 0.39999999999999997
Info: NONBONDED TABLE R-SQUARED SPACING: 0.0625
Info: NONBONDED TABLE SIZE: 705 POINTS
TCL: Running for 1500000 steps
ETITLE: TS BOND ANGLE DIHED IMPRP ELECT VDW BOUNDARY MISC KINETIC TOTAL TEMP POTENTIAL TOTALAVG TEMPAVG PRESSURE GPRESSURE VOLUME PRESSAVG GPRESSAVG
ENERGY: 0 0.0730 1.4221 0.1766 0.0000 -10861.9746 1553.8169 0.0000 0.0000 1785.7980 -7520.6879 305.2495 -9306.4860 -7520.6879 305.2495 499.5043 599.2631 30410.0997 499.5043 599.2631
ENERGY: 300000 0.1698 1.4629 0.0318 0.0000 -10517.7629 1303.5157 0.0000 0.0000 1818.2584 -7394.3242 310.7980 -9212.5826 -7452.4144 304.5557 -919.0003 -890.5955 30331.3580 -297.4258 -218.0794
ENERGY: 600000 0.0321 3.2715 0.0571 0.0000 -10715.5410 1431.1995 0.0000 0.0000 1762.5549 -7518.4259 301.2765 -9280.9808 -7467.9836 302.0386 -310.9686 -164.3021 30347.5378 -183.6159 -111.6142
ENERGY: 900000 0.0087 1.1651 0.3341 0.0000 -10688.8175 1386.3579 0.0000 0.0000 1783.8783 -7517.0733 304.9213 -9300.9516 -7470.5130 301.6612 -563.3656 -524.9302 30085.5797 -334.3627 -259.2593
ENERGY: 1200000 0.3008 0.7580 0.0126 0.0000 -10652.6568 1404.4889 0.0000 0.0000 1724.0435 -7523.0531 294.6937 -9247.0965 -7474.5582 301.6715 -688.5095 -544.6243 30809.6131 -328.7996 -250.6120
ENERGY: 1500000 0.6551 1.1426 0.2279 0.0000 -10645.8491 1383.5910 0.0000 0.0000 1819.9667 -7440.2659 311.0900 -9260.2326 -7471.2566 302.8539 -352.1950 -242.9112 30254.3305 -206.5063 -125.9980
TCL: Running FEP window   9: Lambda1 0.39999999999999997 Lambda2 0.44999999999999996 [dLambda 0.04999999999999999]
TCL: Setting parameter firsttimestep to 0
TCL: Setting parameter alchLambda to 0.39999999999999997
Info: NONBONDED TABLE R-SQUARED SPACING: 0.0625
Info: NONBONDED TABLE SIZE: 705 POINTS
TCL: Setting parameter alchLambda2 to 0.44999999999999996
Info: NONBONDED TABLE R-SQUARED SPACING: 0.0625
Info: NONBONDED TABLE SIZE: 705 POINTS
TCL: Running for 1500000 steps
ETITLE: TS BOND ANGLE DIHED IMPRP ELECT VDW BOUNDARY MISC KINETIC TOTAL TEMP POTENTIAL TOTALAVG TEMPAVG PRESSURE GPRESSURE VOLUME PRESSAVG GPRESSAVG
ENERGY: 0 0.6551 1.1426 0.2279 0.0000 -10645.8484 1383.4932 0.0000 0.0000 1819.0932 -7441.2364 310.9407 -9260.3296 -7441.2364 310.9407 -334.8285 -244.3017 30254.3305 -334.8285 -244.3017
ENERGY: 300000 0.0071 1.1271 0.6298 0.0000 -10626.2759 1404.5135 0.0000 0.0000 1728.6086 -7491.3897 295.4740 -9219.9982 -7476.4520 301.7672 -315.5021 -164.7125 30185.1237 -172.3825 -84.1118
ENERGY: 600000 0.0064 1.6784 0.5328 0.0000 -10712.2442 1447.8704 0.0000 0.0000 1754.2020 -7507.9542 299.8487 -9262.1562 -7497.0744 301.5151 -274.5769 -223.2206 30808.3061 -273.9645 -189.7727
ENERGY: 900000 0.0776 0.5586 0.0679 0.0000 -10611.6286 1394.0717 0.0000 0.0000 1801.3411 -7415.5118 307.9063 -9216.8528 -7493.0943 301.3275 -653.9482 -546.6506 31047.7854 -314.6376 -231.1908
ENERGY: 1200000 0.2702 0.9499 0.0614 0.0000 -10661.8178 1390.3275 0.0000 0.0000 1724.3678 -7545.8410 294.7491 -9270.2088 -7502.3000 300.0845 -342.1549 -306.9414 30074.1221 -273.5030 -194.8125
ENERGY: 1500000 0.0256 1.3883 0.2441 0.0000 -10670.4424 1405.4212 0.0000 0.0000 1742.5089 -7520.8542 297.8500 -9263.3631 -7496.0664 300.2550 -634.1045 -547.8887 30818.8063 -229.4487 -146.4346
TCL: Running FEP window  10: Lambda1 0.44999999999999996 Lambda2 0.49999999999999994 [dLambda 0.04999999999999999]
TCL: Setting parameter firsttimestep to 0
TCL: Setting parameter alchLambda to 0.44999999999999996
Info: NONBONDED TABLE R-SQUARED SPACING: 0.0625
Info: NONBONDED TABLE SIZE: 705 POINTS
TCL: Setting parameter alchLambda2 to 0.49999999999999994
Info: NONBONDED TABLE R-SQUARED SPACING: 0.0625
Info: NONBONDED TABLE SIZE: 705 POINTS
TCL: Running for 1500000 steps
ETITLE: TS BOND ANGLE DIHED IMPRP ELECT VDW BOUNDARY MISC KINETIC TOTAL TEMP POTENTIAL TOTALAVG TEMPAVG PRESSURE GPRESSURE VOLUME PRESSAVG GPRESSAVG
ENERGY: 0 0.0256 1.3883 0.2441 0.0000 -10670.4430 1405.4478 0.0000 0.0000 1741.6188 -7521.7184 297.6978 -9263.3372 -7521.7184 297.6978 -612.7025 -545.0307 30818.8063 -612.7025 -545.0307
ENERGY: 300000 0.1370 0.8429 0.0388 0.0000 -10822.1263 1547.3425 0.0000 0.0000 1680.8879 -7592.8771 287.3170 -9273.7650 -7500.7297 301.4273 811.3223 852.7013 30059.5401 -223.0005 -150.2088
ENERGY: 600000 0.0120 1.2233 0.5561 0.0000 -10545.1576 1354.9142 0.0000 0.0000 1738.4950 -7449.9570 297.1639 -9188.4519 -7498.8806 298.0331 -798.9033 -772.5393 30916.6088 -286.0166 -224.3283
ENERGY: 900000 0.6322 0.3012 0.4085 0.0000 -10602.3566 1404.8541 0.0000 0.0000 1767.8607 -7428.2998 302.1834 -9196.1605 -7490.4767 299.3449 49.0694 99.8906 30074.9000 -243.9418 -176.4193
ENERGY: 1200000 0.0017 0.8207 0.0926 0.0000 -10742.2707 1497.9281 0.0000 0.0000 1762.5794 -7480.8483 301.2807 -9243.4277 -7479.4206 299.2047 638.4693 731.5174 30034.3816 -216.9065 -153.4029
ENERGY: 1500000 0.0135 0.9535 0.0236 0.0000 -10697.4081 1429.7724 0.0000 0.0000 1762.5501 -7504.0949 301.2757 -9266.6450 -7485.7387 299.0503 91.7765 196.9133 29846.9407 -216.3730 -151.5999
TCL: Running FEP window  11: Lambda1 0.49999999999999994 Lambda2 0.5499999999999999 [dLambda 0.04999999999999999]
TCL: Setting parameter firsttimestep to 0
TCL: Setting parameter alchLambda to 0.49999999999999994
Info: NONBONDED TABLE R-SQUARED SPACING: 0.0625
Info: NONBONDED TABLE SIZE: 705 POINTS
TCL: Setting parameter alchLambda2 to 0.5499999999999999
Info: NONBONDED TABLE R-SQUARED SPACING: 0.0625
Info: NONBONDED TABLE SIZE: 705 POINTS
TCL: Running for 1500000 steps
ETITLE: TS BOND ANGLE DIHED IMPRP ELECT VDW BOUNDARY MISC KINETIC TOTAL TEMP POTENTIAL TOTALAVG TEMPAVG PRESSURE GPRESSURE VOLUME PRESSAVG GPRESSAVG
ENERGY: 0 0.0135 0.9535 0.0236 0.0000 -10697.4084 1430.0633 0.0000 0.0000 1761.6742 -7504.6802 301.1259 -9266.3544 -7504.6802 301.1259 112.1924 204.6266 29846.9407 112.1924 204.6266
ENERGY: 300000 0.8446 1.4273 0.5994 0.0000 -10724.7279 1487.0582 0.0000 0.0000 1779.7796 -7455.0188 304.2207 -9234.7984 -7497.4661 300.4302 479.9018 586.2402 30174.8502 61.3850 150.5962
ENERGY: 600000 0.0031 2.0846 0.5752 0.0000 -10555.5921 1363.4753 0.0000 0.0000 1708.0283 -7481.4257 291.9562 -9189.4540 -7486.4542 300.6119 -605.0813 -553.2813 30599.1585 -134.3259 -54.6569
ENERGY: 900000 0.3020 1.7685 0.0126 0.0000 -10804.2178 1553.4440 0.0000 0.0000 1766.8015 -7481.8892 302.0024 -9248.6907 -7482.4916 300.6082 909.7880 1047.3517 30146.1510 -70.8040 11.3433
ENERGY: 1200000 0.0679 1.2614 0.6841 0.0000 -10653.3342 1390.2842 0.0000 0.0000 1779.7455 -7481.2910 304.2149 -9261.0366 -7489.3227 300.5639 -635.0229 -540.0648 30727.3018 -122.9975 -44.0617
ENERGY: 1500000 0.0427 3.4677 0.1056 0.0000 -10484.5277 1383.4057 0.0000 0.0000 1738.1826 -7359.3234 297.1105 -9097.5060 -7492.6453 299.0163 -88.6149 -73.2974 30488.5628 -97.1934 -19.4916
TCL: Running FEP window  12: Lambda1 0.5499999999999999 Lambda2 0.6    [dLambda 0.050000000000000044]
TCL: Setting parameter firsttimestep to 0
TCL: Setting parameter alchLambda to 0.5499999999999999
Info: NONBONDED TABLE R-SQUARED SPACING: 0.0625
Info: NONBONDED TABLE SIZE: 705 POINTS
TCL: Setting parameter alchLambda2 to 0.6
Info: NONBONDED TABLE R-SQUARED SPACING: 0.0625
Info: NONBONDED TABLE SIZE: 705 POINTS
TCL: Running for 1500000 steps
ETITLE: TS BOND ANGLE DIHED IMPRP ELECT VDW BOUNDARY MISC KINETIC TOTAL TEMP POTENTIAL TOTALAVG TEMPAVG PRESSURE GPRESSURE VOLUME PRESSAVG GPRESSAVG
ENERGY: 0 0.0427 3.4677 0.1056 0.0000 -10484.9148 1383.3309 0.0000 0.0000 1737.3014 -7360.6665 296.9599 -9097.9679 -7360.6665 296.9599 -165.5008 -72.3932 30488.5628 -165.5008 -72.3932
ENERGY: 300000 0.0041 2.3416 0.1588 0.0000 -10744.6405 1456.1059 0.0000 0.0000 1735.2401 -7550.7899 296.6075 -9286.0300 -7455.4695 298.0476 86.4376 143.1622 30060.5426 59.2561 109.1553
ENERGY: 600000 0.0865 0.2281 0.7149 0.0000 -10746.2965 1482.2176 0.0000 0.0000 1751.5859 -7511.4636 299.4015 -9263.0494 -7477.7116 297.9686 291.2851 359.0861 30173.3921 130.6325 188.5035
ENERGY: 900000 0.0110 2.6202 0.6303 0.0000 -10663.2044 1459.5300 0.0000 0.0000 1723.3241 -7477.0889 294.5707 -9200.4130 -7479.5594 298.2976 262.2318 269.7571 30285.3545 194.1395 242.7462
ENERGY: 1200000 0.0001 2.7064 0.0434 0.0000 -10720.4596 1448.0082 0.0000 0.0000 1769.6508 -7500.0506 302.4894 -9269.7014 -7468.6046 298.4782 -13.8866 65.0023 30096.5315 181.2065 233.8193
ENERGY: 1500000 0.6962 3.3010 0.1434 0.0000 -10651.4079 1425.6729 0.0000 0.0000 1718.7718 -7502.8227 293.7926 -9221.5944 -7472.1016 298.0364 30.0324 47.3493 30116.0358 219.9618 270.2573
TCL: Running FEP window  13: Lambda1 0.6    Lambda2 0.65   [dLambda 0.050000000000000044]
TCL: Setting parameter firsttimestep to 0
TCL: Setting parameter alchLambda to 0.6
Info: NONBONDED TABLE R-SQUARED SPACING: 0.0625
Info: NONBONDED TABLE SIZE: 705 POINTS
TCL: Setting parameter alchLambda2 to 0.65
Info: NONBONDED TABLE R-SQUARED SPACING: 0.0625
Info: NONBONDED TABLE SIZE: 705 POINTS
TCL: Running for 1500000 steps
ETITLE: TS BOND ANGLE DIHED IMPRP ELECT VDW BOUNDARY MISC KINETIC TOTAL TEMP POTENTIAL TOTALAVG TEMPAVG PRESSURE GPRESSURE VOLUME PRESSAVG GPRESSAVG
ENERGY: 0 0.6962 3.3010 0.1434 0.0000 -10651.3764 1425.7114 0.0000 0.0000 1717.8662 -7503.6582 293.6378 -9221.5243 -7503.6582 293.6378 -26.8730 47.9772 30116.0358 -26.8730 47.9772
ENERGY: 300000 0.0361 2.6758 0.2066 0.0000 -10866.1986 1546.7742 0.0000 0.0000 1782.2766 -7534.2293 304.6476 -9316.5059 -7528.6058 297.3574 780.8936 860.3579 29806.1309 303.6169 387.8306
ENERGY: 600000 0.6075 1.5385 0.3808 0.0000 -10618.7432 1372.3897 0.0000 0.0000 1740.8730 -7502.9537 297.5704 -9243.8267 -7533.2715 296.3420 -369.2176 -356.6636 30122.2881 -6.4380 65.9886
ENERGY: 900000 0.0000 2.6214 0.1993 0.0000 -10791.0381 1470.8956 0.0000 0.0000 1773.5496 -7543.7722 303.1558 -9317.3217 -7538.0800 297.5432 73.1527 169.5110 29977.3963 51.3771 130.3386
ENERGY: 1200000 0.0091 1.8938 0.4558 0.0000 -10595.6187 1433.4556 0.0000 0.0000 1676.0224 -7483.7820 286.4853 -9159.8043 -7532.8256 297.2598 -87.6323 8.7113 30650.6347 43.3151 117.7271
ENERGY: 1500000 0.0013 1.0718 0.0173 0.0000 -10866.4025 1512.7956 0.0000 0.0000 1783.3440 -7569.1724 304.8300 -9352.5164 -7529.3666 298.3438 428.9415 447.7054 29879.0766 53.9946 126.5315
TCL: Running FEP window  14: Lambda1 0.65   Lambda2 0.7000000000000001 [dLambda 0.050000000000000044]
TCL: Setting parameter firsttimestep to 0
TCL: Setting parameter alchLambda to 0.65
Info: NONBONDED TABLE R-SQUARED SPACING: 0.0625
Info: NONBONDED TABLE SIZE: 705 POINTS
TCL: Setting parameter alchLambda2 to 0.7000000000000001
Info: NONBONDED TABLE R-SQUARED SPACING: 0.0625
Info: NONBONDED TABLE SIZE: 705 POINTS
TCL: Running for 1500000 steps
ETITLE: TS BOND ANGLE DIHED IMPRP ELECT VDW BOUNDARY MISC KINETIC TOTAL TEMP POTENTIAL TOTALAVG TEMPAVG PRESSURE GPRESSURE VOLUME PRESSAVG GPRESSAVG
ENERGY: 0 0.0013 1.0718 0.0173 0.0000 -10866.0625 1512.6933 0.0000 0.0000 1782.4715 -7569.8073 304.6809 -9352.2788 -7569.8073 304.6809 371.2812 451.1167 29879.0766 371.2812 451.1167
ENERGY: 300000 0.1374 1.2898 0.4867 0.0000 -10575.3003 1329.5807 0.0000 0.0000 1794.7765 -7449.0292 306.7842 -9243.8057 -7540.5787 299.5388 -729.3221 -651.0021 30176.4971 -352.9712 -278.6125
ENERGY: 600000 2.9384 1.5249 0.0545 0.0000 -10805.3875 1489.6226 0.0000 0.0000 1758.8974 -7552.3497 300.6513 -9311.2471 -7541.8251 298.6470 -23.1891 63.9779 30660.5924 -235.1423 -163.9482
ENERGY: 900000 0.2492 1.0049 0.3422 0.0000 -10611.6664 1405.9982 0.0000 0.0000 1761.9315 -7442.1404 301.1699 -9204.0718 -7527.6561 298.3464 -309.5163 -212.4198 30528.4042 -269.9445 -202.2562
ENERGY: 1200000 0.1502 0.8685 0.0957 0.0000 -10612.7651 1381.1984 0.0000 0.0000 1699.6277 -7530.8245 290.5202 -9230.4523 -7522.6021 297.6147 -407.9596 -292.3100 30260.5400 -282.9666 -209.4765
ENERGY: 1500000 0.3325 1.7181 0.3254 0.0000 -10554.7608 1352.8233 0.0000 0.0000 1792.9972 -7406.5643 306.4800 -9199.5615 -7509.8348 298.2345 -411.9536 -352.3465 30060.8803 -233.7838 -162.4681
TCL: Running FEP window  15: Lambda1 0.7000000000000001 Lambda2 0.7500000000000001 [dLambda 0.050000000000000044]
TCL: Setting parameter firsttimestep to 0
TCL: Setting parameter alchLambda to 0.7000000000000001
Info: NONBONDED TABLE R-SQUARED SPACING: 0.0625
Info: NONBONDED TABLE SIZE: 705 POINTS
TCL: Setting parameter alchLambda2 to 0.7500000000000001
Info: NONBONDED TABLE R-SQUARED SPACING: 0.0625
Info: NONBONDED TABLE SIZE: 705 POINTS
TCL: Running for 1500000 steps
ETITLE: TS BOND ANGLE DIHED IMPRP ELECT VDW BOUNDARY MISC KINETIC TOTAL TEMP POTENTIAL TOTALAVG TEMPAVG PRESSURE GPRESSURE VOLUME PRESSAVG GPRESSAVG
ENERGY: 0 0.3325 1.7181 0.3254 0.0000 -10554.8924 1352.5886 0.0000 0.0000 1792.1272 -7407.8007 306.3313 -9199.9278 -7407.8007 306.3313 -444.3504 -351.7478 30060.8803 -444.3504 -351.7478
ENERGY: 300000 0.0833 3.2579 0.3928 0.0000 -10702.4923 1470.4965 0.0000 0.0000 1724.8125 -7503.4492 294.8251 -9228.2618 -7487.7826 298.6060 316.3396 355.7269 30214.6122 -97.8358 -20.1918
ENERGY: 600000 0.1126 4.9070 0.0179 0.0000 -10720.9293 1465.7002 0.0000 0.0000 1744.8505 -7505.3410 298.2502 -9250.1915 -7479.7672 299.4322 162.5751 163.3846 30249.9169 83.3417 129.7108
ENERGY: 900000 0.1191 2.0978 0.5725 0.0000 -10612.6995 1395.1787 0.0000 0.0000 1725.1511 -7489.5803 294.8830 -9214.7314 -7473.7518 299.4154 -542.0871 -458.5149 30726.8924 27.3456 69.8081
ENERGY: 1200000 0.2898 0.5654 0.0698 0.0000 -10812.4009 1480.9617 0.0000 0.0000 1775.3523 -7555.1618 303.4640 -9330.5141 -7483.0568 300.8830 -155.2409 -54.8545 30552.3623 -4.6732 51.6473
ENERGY: 1500000 0.1876 1.3967 0.3420 0.0000 -10637.7381 1378.6678 0.0000 0.0000 1757.3499 -7499.7941 300.3868 -9257.1440 -7473.2739 301.2149 -479.3307 -454.0347 30305.4485 -8.8760 48.8254
TCL: Running FEP window  16: Lambda1 0.7500000000000001 Lambda2 0.8000000000000002 [dLambda 0.050000000000000044]
TCL: Setting parameter firsttimestep to 0
TCL: Setting parameter alchLambda to 0.7500000000000001
Info: NONBONDED TABLE R-SQUARED SPACING: 0.0625
Info: NONBONDED TABLE SIZE: 705 POINTS
TCL: Setting parameter alchLambda2 to 0.8000000000000002
Info: NONBONDED TABLE R-SQUARED SPACING: 0.0625
Info: NONBONDED TABLE SIZE: 705 POINTS
TCL: Running for 1500000 steps
ETITLE: TS BOND ANGLE DIHED IMPRP ELECT VDW BOUNDARY MISC KINETIC TOTAL TEMP POTENTIAL TOTALAVG TEMPAVG PRESSURE GPRESSURE VOLUME PRESSAVG GPRESSAVG
ENERGY: 0 0.1876 1.3967 0.3420 0.0000 -10637.9526 1378.9081 0.0000 0.0000 1756.4781 -7500.6401 300.2378 -9257.1182 -7500.6401 300.2378 -519.5661 -446.5824 30305.4485 -519.5661 -446.5824
ENERGY: 300000 0.4864 1.5608 0.0234 0.0000 -10682.1880 1427.3738 0.0000 0.0000 1816.2077 -7436.5358 310.4474 -9252.7435 -7465.9116 300.5424 -27.4030 75.5397 30192.9729 -144.6856 -72.0465
ENERGY: 600000 0.0492 2.4241 0.2173 0.0000 -10756.4016 1471.4314 0.0000 0.0000 1773.9805 -7508.2990 303.2295 -9282.2795 -7488.8541 299.6197 213.7680 290.4495 30071.5302 -125.7328 -61.3961
ENERGY: 900000 0.1399 0.7369 0.4123 0.0000 -10727.4926 1457.5265 0.0000 0.0000 1813.7022 -7454.9749 310.0192 -9268.6770 -7497.1505 300.5930 73.1877 71.8119 30467.6909 61.2070 117.9687
ENERGY: 1200000 0.0308 3.6461 0.7054 0.0000 -10762.6838 1525.6179 0.0000 0.0000 1731.1497 -7501.5338 295.9083 -9232.6835 -7494.7779 300.1618 522.8518 524.3804 30603.5066 -59.0208 -9.7431
ENERGY: 1500000 0.0055 1.7174 0.4018 0.0000 -10534.4689 1392.5233 0.0000 0.0000 1760.9749 -7378.8460 301.0064 -9139.8209 -7483.6310 301.1941 -285.1898 -187.9922 30982.8147 -69.6116 -14.4640
TCL: Running FEP window  17: Lambda1 0.8000000000000002 Lambda2 0.8500000000000002 [dLambda 0.050000000000000044]
TCL: Setting parameter firsttimestep to 0
TCL: Setting parameter alchLambda to 0.8000000000000002
Info: NONBONDED TABLE R-SQUARED SPACING: 0.0625
Info: NONBONDED TABLE SIZE: 705 POINTS
TCL: Setting parameter alchLambda2 to 0.8500000000000002
Info: NONBONDED TABLE R-SQUARED SPACING: 0.0625
Info: NONBONDED TABLE SIZE: 705 POINTS
TCL: Running for 1500000 steps
ETITLE: TS BOND ANGLE DIHED IMPRP ELECT VDW BOUNDARY MISC KINETIC TOTAL TEMP POTENTIAL TOTALAVG TEMPAVG PRESSURE GPRESSURE VOLUME PRESSAVG GPRESSAVG
ENERGY: 0 0.0055 1.7174 0.4018 0.0000 -10535.1821 1393.3325 0.0000 0.0000 1760.0943 -7379.6307 300.8559 -9139.7250 -7379.6307 300.8559 -252.5311 -177.2337 30982.8147 -252.5311 -177.2337
ENERGY: 300000 0.0387 5.3770 0.4652 0.0000 -10731.9505 1506.8442 0.0000 0.0000 1783.5288 -7435.6966 304.8616 -9219.2254 -7458.5257 303.1451 803.8882 857.5390 29916.2234 151.2650 210.6053
ENERGY: 600000 0.1740 3.1159 0.0334 0.0000 -10583.9691 1423.5139 0.0000 0.0000 1763.3171 -7393.8149 301.4068 -9157.1320 -7459.2656 303.6188 -74.0645 12.4859 30674.3465 270.7909 336.4402
ENERGY: 900000 0.0006 4.4581 0.6490 0.0000 -10743.8333 1477.3564 0.0000 0.0000 1762.1501 -7499.2191 301.2073 -9261.3692 -7482.3905 302.3326 221.9172 328.9384 30245.6412 121.8849 196.5428
ENERGY: 1200000 0.0140 4.3391 0.2089 0.0000 -10609.7672 1375.6526 0.0000 0.0000 1728.1211 -7501.4315 295.3907 -9229.5526 -7494.5438 301.0707 -441.4005 -391.4488 30218.2780 -21.2415 43.8783
ENERGY: 1500000 0.3157 2.0153 0.5465 0.0000 -10505.7107 1353.4181 0.0000 0.0000 1789.4747 -7359.9405 305.8779 -9149.4152 -7492.7901 300.7078 -361.2861 -247.6001 30392.9180 -42.2736 25.2708
TCL: Running FEP window  18: Lambda1 0.8500000000000002 Lambda2 0.9000000000000002 [dLambda 0.050000000000000044]
TCL: Setting parameter firsttimestep to 0
TCL: Setting parameter alchLambda to 0.8500000000000002
Info: NONBONDED TABLE R-SQUARED SPACING: 0.0625
Info: NONBONDED TABLE SIZE: 705 POINTS
TCL: Setting parameter alchLambda2 to 0.9000000000000002
Info: NONBONDED TABLE R-SQUARED SPACING: 0.0625
Info: NONBONDED TABLE SIZE: 705 POINTS
TCL: Running for 1500000 steps
ETITLE: TS BOND ANGLE DIHED IMPRP ELECT VDW BOUNDARY MISC KINETIC TOTAL TEMP POTENTIAL TOTALAVG TEMPAVG PRESSURE GPRESSURE VOLUME PRESSAVG GPRESSAVG
ENERGY: 0 0.3157 2.0153 0.5465 0.0000 -10506.8479 1354.1229 0.0000 0.0000 1788.5801 -7361.2674 305.7250 -9149.8475 -7361.2674 305.7250 -310.6452 -239.5029 30392.9180 -310.6452 -239.5029
ENERGY: 300000 0.6108 3.0563 0.1848 0.0000 -10703.7660 1429.1128 0.0000 0.0000 1794.5438 -7476.2576 306.7444 -9270.8014 -7453.1595 305.3246 -124.2617 -97.2943 30370.4819 -127.7894 -51.1389
ENERGY: 600000 0.9142 2.8410 0.1263 0.0000 -10541.0930 1327.8858 0.0000 0.0000 1783.8296 -7425.4961 304.9130 -9209.3256 -7449.6329 306.2778 -820.3822 -756.5863 30341.9509 53.5763 115.3132
ENERGY: 900000 0.0273 4.0833 0.1004 0.0000 -10647.4949 1460.2319 0.0000 0.0000 1714.6823 -7468.3697 293.0935 -9183.0520 -7457.9518 305.2740 387.8712 442.6063 29941.1783 9.4646 77.2191
ENERGY: 1200000 0.1466 3.0339 0.1796 0.0000 -10740.0800 1417.0946 0.0000 0.0000 1752.8903 -7566.7350 299.6245 -9319.6253 -7468.3472 303.5145 -48.6250 -47.2447 29720.2215 -24.1842 39.2894
ENERGY: 1500000 0.0267 3.7915 0.2204 0.0000 -10708.2183 1418.6778 0.0000 0.0000 1751.3926 -7534.1093 299.3685 -9285.5019 -7469.9538 303.2154 -147.9466 -113.2358 30179.3451 -32.9850 24.6486
TCL: Running FEP window  19: Lambda1 0.9000000000000002 Lambda2 0.9500000000000003 [dLambda 0.050000000000000044]
TCL: Setting parameter firsttimestep to 0
TCL: Setting parameter alchLambda to 0.9000000000000002
Info: NONBONDED TABLE R-SQUARED SPACING: 0.0625
Info: NONBONDED TABLE SIZE: 705 POINTS
TCL: Setting parameter alchLambda2 to 0.9500000000000003
Info: NONBONDED TABLE R-SQUARED SPACING: 0.0625
Info: NONBONDED TABLE SIZE: 705 POINTS
TCL: Running for 1500000 steps
ETITLE: TS BOND ANGLE DIHED IMPRP ELECT VDW BOUNDARY MISC KINETIC TOTAL TEMP POTENTIAL TOTALAVG TEMPAVG PRESSURE GPRESSURE VOLUME PRESSAVG GPRESSAVG
ENERGY: 0 0.0267 3.7915 0.2204 0.0000 -10709.5741 1419.4279 0.0000 0.0000 1750.5197 -7535.5879 299.2193 -9286.1076 -7535.5879 299.2193 -192.0400 -106.6332 30179.3451 -192.0400 -106.6332
ENERGY: 300000 0.0001 1.1863 0.2904 0.0000 -10530.2720 1310.5418 0.0000 0.0000 1715.6707 -7502.5827 293.2625 -9218.2534 -7494.8787 300.5761 -989.0581 -876.7760 30360.9313 -206.9347 -113.9888
ENERGY: 600000 0.3143 2.2059 0.0140 0.0000 -10538.5369 1361.1387 0.0000 0.0000 1838.0498 -7336.8142 314.1810 -9174.8640 -7482.5722 302.3154 -209.9734 -116.5638 30094.8106 -182.3616 -94.3388
ENERGY: 900000 1.1417 4.3932 0.5589 0.0000 -10663.5954 1461.0837 0.0000 0.0000 1767.2141 -7429.2038 302.0729 -9196.4179 -7479.1472 301.7257 254.1899 325.8134 30215.4637 -35.4507 54.2498
ENERGY: 1200000 0.1823 0.9005 0.1235 0.0000 -10597.2766 1350.0742 0.0000 0.0000 1754.2171 -7491.7791 299.8513 -9245.9962 -7491.9671 300.8356 -669.2117 -603.4101 30383.2602 -121.0369 -31.9451
ENERGY: 1500000 0.0459 2.2749 0.4841 0.0000 -10633.2274 1377.8399 0.0000 0.0000 1787.4293 -7465.1534 305.5283 -9252.5827 -7486.5716 301.1852 -439.0209 -397.7907 30478.9301 -158.6823 -76.8876
TCL: Running FEP window  20: Lambda1 0.9500000000000003 Lambda2 1.0    [dLambda 0.04999999999999971]
TCL: Setting parameter firsttimestep to 0
TCL: Setting parameter alchLambda to 0.9500000000000003
Info: NONBONDED TABLE R-SQUARED SPACING: 0.0625
Info: NONBONDED TABLE SIZE: 705 POINTS
TCL: Setting parameter alchLambda2 to 1.0
Info: NONBONDED TABLE R-SQUARED SPACING: 0.0625
Info: NONBONDED TABLE SIZE: 705 POINTS
TCL: Running for 1500000 steps
ETITLE: TS BOND ANGLE DIHED IMPRP ELECT VDW BOUNDARY MISC KINETIC TOTAL TEMP POTENTIAL TOTALAVG TEMPAVG PRESSURE GPRESSURE VOLUME PRESSAVG GPRESSAVG
ENERGY: 0 0.0459 2.2749 0.4841 0.0000 -10634.1261 1378.2227 0.0000 0.0000 1786.5045 -7466.5941 305.3702 -9253.0986 -7466.5941 305.3702 -453.8673 -390.9211 30478.9301 -453.8673 -390.9211
ENERGY: 300000 0.1087 1.4359 0.2421 0.0000 -10674.6265 1417.7744 0.0000 0.0000 1808.8295 -7446.2359 309.1863 -9255.0654 -7508.9972 301.7747 -100.3913 -92.7834 30199.7425 -224.3500 -172.2800
ENERGY: 600000 0.0000 1.2969 0.2103 0.0000 -10809.2028 1528.0976 0.0000 0.0000 1747.7737 -7531.8243 298.7499 -9279.5980 -7508.0929 301.6205 703.5635 782.4014 30179.9049 64.0963 128.0814
ENERGY: 900000 0.1059 2.0207 0.2909 0.0000 -10627.0274 1461.3565 0.0000 0.0000 1741.1161 -7422.1373 297.6119 -9163.2534 -7485.2678 301.6036 239.9438 316.2748 30535.8045 95.5098 161.9194
ENERGY: 1200000 0.0558 1.3800 0.4422 0.0000 -10616.7254 1410.6858 0.0000 0.0000 1774.4341 -7429.7274 303.3070 -9204.1615 -7479.8349 301.1873 -252.3837 -122.7623 30371.3017 73.3057 147.1610
ENERGY: 1500000 0.0145 1.2903 0.0712 0.0000 -10524.4479 1397.2101 0.0000 0.0000 1767.6557 -7358.2060 302.1484 -9125.8617 -7475.0002 301.1468 -174.3539 -161.3060 30830.1653 73.2260 139.4558
TCL: Exiting due to exit command.
