Info: SIMULATION PARAMETERS:
Info: TIMESTEP               1
Info: NUMBER OF STEPS        0
Info: STEPS PER CYCLE        10
Info: PERIODIC CELL BASIS 1  30 0 0
Info: PERIODIC CELL BASIS 2  0 30 0
Info: PERIODIC CELL BASIS 3  0 0 30
Info: PERIODIC CELL CENTER   0 0 0
Info: WRAPPING ALL CLUSTERS AROUND PERIODIC BOUNDARIES ON OUTPUT.
Info: FIRST LDB TIMESTEP     50
Info: LAST LDB TIMESTEP     -1
Info: HOM BACKGROUND SCALING 1
Info: MIN ATOMS PER PATCH    40
Info: EMPTY PATCH LOAD       40 ATOMS
Info: INITIAL TEMPERATURE    298
Info: CENTER OF MASS MOVING INITIALLY? NO
Info: DIELECTRIC             1
Info: EXCLUDE                SCALED ONE-FOUR
Info: 1-4 ELECTROSTATICS SCALED BY 1
Info: MODIFIED 1-4 VDW PARAMETERS WILL BE USED
Info: DCD FILENAME           output.dcd
Info: DCD FREQUENCY          25000
Info: DCD FIRST STEP         25000
Info: DCD FILE WILL CONTAIN UNIT CELL DATA
Info: NO EXTENDED SYSTEM TRAJECTORY OUTPUT
Info: NO VELOCITY DCD OUTPUT
Info: NO FORCE DCD OUTPUT
Info: OUTPUT FILENAME        output
Info: BINARY OUTPUT FILES WILL BE USED
Info: NO RESTART FILE
Info: SWITCHING ACTIVE
Info: SWITCHING ON           10
Info: SWITCHING OFF          12
Info: PAIRLIST DISTANCE      14
Info: PAIRLIST SHRINK RATE   0.01
Info: PAIRLIST GROW RATE     0.01
Info: PAIRLIST TRIGGER       0.3
Info: PAIRLISTS PER CYCLE    2
Info: PAIRLISTS ENABLED
Info: MARGIN                 0.495
Info: HYDROGEN GROUP CUTOFF  2.5
Info: PATCH DIMENSION        16.995
Info: ENERGY OUTPUT STEPS    25000
Info: ENERGY EVALUATION STEPS    25000
Info: OUTPUT ENERGY PRECISION 4
Info: CROSSTERM ENERGY INCLUDED IN DIHEDRAL
Info: TIMING OUTPUT STEPS    25000
Info: LANGEVIN DYNAMICS ACTIVE
Info: LANGEVIN TEMPERATURE   298
Info: LANGEVIN USING BBK INTEGRATOR
Info: LANGEVIN DAMPING COEFFICIENT IS 1 INVERSE PS
Info: LANGEVIN DYNAMICS NOT APPLIED TO HYDROGENS
Info: LANGEVIN PISTON PRESSURE CONTROL ACTIVE
Info:        TARGET PRESSURE IS 1.01325 BAR
Info:     OSCILLATION PERIOD IS 100 FS
Info:             DECAY TIME IS 50 FS
Info:     PISTON TEMPERATURE IS 298 K
Info:       PRESSURE CONTROL IS GROUP-BASED
Info:    INITIAL STRAIN RATE IS 0 0 0
Info:       CELL FLUCTUATION IS ISOTROPIC
Info: MULTILEVEL SUMMATION METHOD (MSM) FOR ELECTROSTATICS ACTIVE
Info: MSM WITH C1 CUBIC INTERPOLATION AND C2 TAYLOR SPLITTING
Info: FULL ELECTROSTATIC EVALUATION FREQUENCY      1
Info: USING VERLET I (r-RESPA) MTS SCHEME.
Info: C1 SPLITTING OF LONG RANGE ELECTROSTATICS
Info: PLACING ATOMS IN PATCHES BY HYDROGEN GROUPS
Info: RIGID BONDS TO HYDROGEN : ALL
Info:         ERROR TOLERANCE : 1e-08
Info:          MAX ITERATIONS : 100
Info: RIGID WATER USING SETTLE ALGORITHM
Info: RANDOM NUMBER SEED     1740294185
Info: USE HYDROGEN BONDS?    NO
Info: COORDINATE PDB         ionized.pdb
Info: STRUCTURE FILE         ionized.psf
Info: PARAMETER file: CHARMM format!
Info: PARAMETERS             par_all27_prot_lipid.inp
Info: USING ARITHMETIC MEAN TO COMBINE L-J SIGMA PARAMETERS
Info: SUMMARY OF PARAMETERS:
Info: 180 BONDS
Info: 447 ANGLES
Info: 566 DIHEDRAL
Info: 46 IMPROPER
Info: 6 CROSSTERM
Info: 119 VDW
Info: 0 VDW_PAIRS
Info: 0 NBTHOLE_PAIRS
Info: STRUCTURE SUMMARY:
Info: 2478 ATOMS
Info: 1652 BONDS
Info: 826 ANGLES
Info: 0 DIHEDRALS
Info: 0 IMPROPERS
Info: 0 CROSSTERMS
Info: 0 EXCLUSIONS
Info: 2478 RIGID BONDS
Info: 4956 DEGREES OF FREEDOM
Info: 826 HYDROGEN GROUPS
Info: 3 ATOMS IN LARGEST HYDROGEN GROUP
Info: 826 MIGRATION GROUPS
Info: 3 ATOMS IN LARGEST MIGRATION GROUP
Info: TOTAL MASS = 14880.7 amu
Info: TOTAL CHARGE = 0 e
Info: MASS DENSITY = 0.915207 g/cm^3
Info: ATOM DENSITY = 0.0917778 atoms/A^3
Info: ADDED 2478 IMPLICIT EXCLUSIONS
Info: NONBONDED TABLE R-SQUARED SPACING: 0.0625
Info: NONBONDED TABLE SIZE: 769 POINTS
Info: REMOVING COM VELOCITY -0.161574 0.195356 -0.0112168
Info: MSM using C1 cubic interpolation
Info: MSM using C2 Taylor splitting function
Info: MSM block size decomposition along X is 8 grid points
Info: MSM block size decomposition along Y is 8 grid points
Info: MSM block size decomposition along Z is 8 grid points
Info: MSM grid spacing along X is 2.5 A
Info: MSM grid spacing along Y is 2.5 A
Info: MSM grid spacing along Z is 2.5 A
Info: MSM using 3 levels
Info:     level 0:  [0..11] x [0..11] x [0..11]
Info:     level 1:  [0..5] x [0..5] x [0..5]
Info:     level 2:  [0..2] x [0..2] x [0..2]
Info: MSM finished calculating stencils
Info: MSM finished creating map for grid levels
Info: MSM finished creating map for patches
Info: MSM has 9 interpolation / anterpolation objects (one per patch)
Info: MSM grid level 0 decomposed into 8 blocks ( 2 x 2 x 2 )
Info: MSM grid level 1 decomposed into 1 block ( 1 x 1 x 1 )
Info: MSM grid level 2 decomposed into 1 block ( 1 x 1 x 1 )
Info: MSM grid cutoff calculation decomposed into 783 work objects
TCL: Minimizing for 1000 steps
ETITLE: TS BOND ANGLE DIHED IMPRP ELECT VDW BOUNDARY MISC KINETIC TOTAL TEMP POTENTIAL TOTAL3 TEMPAVG PRESSURE GPRESSURE VOLUME PRESSAVG GPRESSAVG
ENERGY: 0 0.0000 0.0000 0.0000 0.0000 -7442.5560 6358.5112 0.0000 0.0000 0.0000 -1084.0448 0.0000 -1084.0448 -1084.0448 0.0000 75224.8790 46167.8622 27000.0000 75224.8790 46167.8622
ENERGY: 200 0.0000 0.0000 0.0000 0.0000 -10584.9375 1093.9384 0.0000 0.0000 0.0000 -9490.9991 0.0000 -9490.9991 -9490.9991 0.0000 18749.8486 18691.3581 27000.0000 18749.8486 18691.3581
ENERGY: 400 0.0000 0.0000 0.0000 0.0000 -10970.0329 1262.5247 0.0000 0.0000 0.0000 -9707.5082 0.0000 -9707.5082 -9707.5082 0.0000 20689.0970 20614.0895 27000.0000 20689.0970 20614.0895
ENERGY: 600 0.0000 0.0000 0.0000 0.0000 -11101.9846 1299.1896 0.0000 0.0000 0.0000 -9802.7950 0.0000 -9802.7950 -9802.7950 0.0000 21139.6319 21055.4414 27000.0000 21139.6319 21055.4414
ENERGY: 800 0.0000 0.0000 0.0000 0.0000 -11188.3204 1328.1720 0.0000 0.0000 0.0000 -9860.1484 0.0000 -9860.1484 -9860.1484 0.0000 21470.6593 21381.5130 27000.0000 21470.6593 21381.5130
ENERGY: 1000 0.0000 0.0000 0.0000 0.0000 -11231.6640 1340.7274 0.0000 0.0000 0.0000 -9890.9366 0.0000 -9890.9366 -9890.9366 0.0000 21582.9355 21505.8354 27000.0000 21582.9355 21505.8354
TCL: Running for 5000000 steps
ETITLE: TS BOND ANGLE DIHED IMPRP ELECT VDW BOUNDARY MISC KINETIC TOTAL TEMP POTENTIAL TOTAL3 TEMPAVG PRESSURE GPRESSURE VOLUME PRESSAVG GPRESSAVG
ENERGY: 25000 0.0000 0.0000 0.0000 0.0000 -8954.9593 837.6600 0.0000 0.0000 1494.4774 -6622.8218 303.4928 -8117.2992 -6622.4112 277.5994 -355.8508 -342.3356 24403.1612 3.6640 3.5970
ENERGY: 1025000 0.0000 0.0000 0.0000 0.0000 -9114.9201 934.7525 0.0000 0.0000 1482.2265 -6697.9411 301.0050 -8180.1676 -6697.3754 297.6197 323.5129 309.7700 24602.1577 5.3931 5.3504
ENERGY: 2025000 0.0000 0.0000 0.0000 0.0000 -8980.6525 862.2329 0.0000 0.0000 1444.4372 -6673.9824 293.3309 -8118.4196 -6672.4704 294.7589 -270.6753 -267.2917 24617.2765 3.5939 3.6271
ENERGY: 3000000 0.0000 0.0000 0.0000 0.0000 -9115.5907 894.0357 0.0000 0.0000 1439.2614 -6782.2935 292.2798 -8221.5549 -6781.3669 293.6719 212.5567 197.0828 23956.8620 3.9235 3.9043
ENERGY: 4000000 0.0000 0.0000 0.0000 0.0000 -9082.6996 964.2297 0.0000 0.0000 1437.1921 -6681.2778 291.8595 -8118.4699 -6680.3402 296.1399 854.1487 838.4757 24520.8815 -5.1282 -5.1992
ENERGY: 5000000 0.0000 0.0000 0.0000 0.0000 -8921.2702 842.4546 0.0000 0.0000 1427.4416 -6651.3740 289.8795 -8078.8156 -6649.7760 296.2391 -323.6480 -366.5647 24625.0677 4.3894 4.4622
