Info: SIMULATION PARAMETERS:
Info: TIMESTEP               2
Info: NUMBER OF STEPS        0
Info: STEPS PER CYCLE        10
Info: PERIODIC CELL BASIS 1  43.777 0 0
Info: PERIODIC CELL BASIS 2  0 40.459 0
Info: PERIODIC CELL BASIS 3  0 0 42.851
Info: PERIODIC CELL CENTER   0 0 0
Info: WRAPPING WATERS AROUND PERIODIC BOUNDARIES ON OUTPUT.
Info: WRAPPING ALL CLUSTERS AROUND PERIODIC BOUNDARIES ON OUTPUT.
Info: FIRST LDB TIMESTEP     50
Info: LAST LDB TIMESTEP     -1
Info: HOM BACKGROUND SCALING 1
Info: PME BACKGROUND SCALING 1
Info: MIN ATOMS PER PATCH    40
Info: EMPTY PATCH LOAD       40 ATOMS
Info: INITIAL TEMPERATURE    300
Info: CENTER OF MASS MOVING INITIALLY? NO
Info: DIELECTRIC             1
Info: EXCLUDE                SCALED ONE-FOUR
Info: 1-4 ELECTROSTATICS SCALED BY 0.833333
Info: MODIFIED 1-4 VDW PARAMETERS WILL BE USED
Info: DCD FILENAME           mobley_194273_min.dcd
Info: DCD FREQUENCY          5000
Info: DCD FIRST STEP         5000
Info: DCD FILE WILL CONTAIN UNIT CELL DATA
Info: XST FILENAME           mobley_194273_min.xst
Info: XST FREQUENCY          5000
Info: NO VELOCITY DCD OUTPUT
Info: NO FORCE DCD OUTPUT
Info: OUTPUT FILENAME        mobley_194273_min
Info: BINARY OUTPUT FILES WILL BE USED
Info: RESTART FILENAME       mobley_194273_min.restart
Info: RESTART FREQUENCY      5000
Info: BINARY RESTART FILES WILL BE USED
Info: CUTOFF                 9
Info: PAIRLIST DISTANCE      11
Info: PAIRLIST SHRINK RATE   0.01
Info: PAIRLIST GROW RATE     0.01
Info: PAIRLIST TRIGGER       0.3
Info: PAIRLISTS PER CYCLE    2
Info: PAIRLISTS ENABLED
Info: MARGIN                 8
Info: HYDROGEN GROUP CUTOFF  2.5
Info: PATCH DIMENSION        21.5
Info: ENERGY OUTPUT STEPS    5000
Info: ENERGY EVALUATION STEPS    5000
Info: OUTPUT ENERGY PRECISION 4
Info: CROSSTERM ENERGY INCLUDED IN DIHEDRAL
Info: TIMING OUTPUT STEPS    50000
Info: PRESSURE OUTPUT STEPS  5000
Info: LANGEVIN DYNAMICS ACTIVE
Info: LANGEVIN TEMPERATURE   300
Info: LANGEVIN USING BBK INTEGRATOR
Info: LANGEVIN DAMPING COEFFICIENT IS 1 INVERSE PS
Info: LANGEVIN DYNAMICS APPLIED TO HYDROGENS
Info: LANGEVIN PISTON PRESSURE CONTROL ACTIVE
Info:        TARGET PRESSURE IS 1.01325 BAR
Info:     OSCILLATION PERIOD IS 50 FS
Info:             DECAY TIME IS 25 FS
Info:     PISTON TEMPERATURE IS 300 K
Info:       PRESSURE CONTROL IS GROUP-BASED
Info:    INITIAL STRAIN RATE IS 0 0 0
Info:       CELL FLUCTUATION IS ISOTROPIC
Info: PARTICLE MESH EWALD (PME) ACTIVE
Info: PME TOLERANCE               1e-06
Info: PME EWALD COEFFICIENT       0.348832
Info: PME INTERPOLATION ORDER     4
Info: PME GRID DIMENSIONS         44 44 44
Info: PME MAXIMUM GRID SPACING    1
Info: FULL ELECTROSTATIC EVALUATION FREQUENCY      2
Info: USING VERLET I (r-RESPA) MTS SCHEME.
Info: C1 SPLITTING OF LONG RANGE ELECTROSTATICS
Info: PLACING ATOMS IN PATCHES BY HYDROGEN GROUPS
Info: RIGID BONDS TO HYDROGEN : ALL
Info:         ERROR TOLERANCE : 1e-08
Info:          MAX ITERATIONS : 100
Info: RIGID WATER USING SETTLE ALGORITHM
Info: RANDOM NUMBER SEED     1741316036
Info: USE HYDROGEN BONDS?    NO
Info: Using AMBER format force field!
Info: AMBER PARM FILE        mobley_194273.prmtop
Info: COORDINATE PDB         mobley_194273.pdb
Info: Exclusions will be read from PARM file!
Info: SCNB (VDW SCALING)     2
Info: USING ARITHMETIC MEAN TO COMBINE L-J SIGMA PARAMETERS
Info: SUMMARY OF PARAMETERS:
Info: 14 BONDS
Info: 22 ANGLES
Info:   22 HARMONIC
Info:   0 COSINE-BASED
Info: 18 DIHEDRAL
Info: 0 IMPROPER
Info: 0 CROSSTERM
Info: 0 VDW
Info: 55 VDW_PAIRS
Info: 0 NBTHOLE_PAIRS
Info: STRUCTURE SUMMARY:
Info: 5415 ATOMS
Info: 5415 BONDS
Info: 48 ANGLES
Info: 75 DIHEDRALS
Info: 0 IMPROPERS
Info: 0 CROSSTERMS
Info: 5523 EXCLUSIONS
Info: 5401 RIGID BONDS
Info: 10844 DEGREES OF FREEDOM
Info: 1810 HYDROGEN GROUPS
Info: 4 ATOMS IN LARGEST HYDROGEN GROUP
Info: 1810 MIGRATION GROUPS
Info: 4 ATOMS IN LARGEST MIGRATION GROUP
Info: TOTAL MASS = 32617.9 amu
Info: TOTAL CHARGE = -9.99859e-05 e
Info: MASS DENSITY = 0.713662 g/cm^3
Info: ATOM DENSITY = 0.0713471 atoms/A^3
Info: ADDED 0 IMPLICIT EXCLUSIONS
Info: NONBONDED TABLE R-SQUARED SPACING: 0.0625
Info: NONBONDED TABLE SIZE: 705 POINTS
Info: REMOVING COM VELOCITY 0.00170779 0.016734 -0.164239
TCL: Minimizing for 2000 steps
ETITLE: TS BOND ANGLE DIHED IMPRP ELECT VDW BOUNDARY MISC KINETIC TOTAL TEMP POTENTIAL TOTAL3 TEMPAVG PRESSURE GPRESSURE VOLUME PRESSAVG GPRESSAVG
ENERGY: 0 1.0242 4.2179 16.8328 0.0000 -17089.6728 1934.5774 0.0000 0.0000 0.0000 -15133.0205 0.0000 -15133.0205 -15133.0205 0.0000 11119.0548 -15286.6207 75896.5618 11119.0548 -15286.6207
ENERGY: 400 11.1632 7.9725 16.5368 0.0000 -22916.5244 3335.2374 0.0000 0.0000 0.0000 -19545.6146 0.0000 -19545.6146 -19545.6146 0.0000 15756.9605 15846.4559 75896.5618 15756.9605 15846.4559
ENERGY: 800 1.5807 4.8191 16.2087 0.0000 -23917.5516 3785.9579 0.0000 0.0000 0.0000 -20108.9853 0.0000 -20108.9853 -20108.9853 0.0000 17612.0113 17676.7408 75896.5618 17612.0113 17676.7408
ENERGY: 1200 15.9834 13.7737 16.2991 0.0000 -24458.1847 4060.6690 0.0000 0.0000 0.0000 -20351.4596 0.0000 -20351.4596 -20351.4596 0.0000 18805.0422 18856.3643 75896.5618 18805.0422 18856.3643
ENERGY: 1600 27.4650 11.1566 16.7626 0.0000 -24697.8053 4147.5138 0.0000 0.0000 0.0000 -20494.9072 0.0000 -20494.9072 -20494.9072 0.0000 19118.7050 19179.9531 75896.5618 19118.7050 19179.9531
ENERGY: 2000 0.6848 4.4133 16.2492 0.0000 -24826.6305 4207.5497 0.0000 0.0000 0.0000 -20597.7335 0.0000 -20597.7335 -20597.7335 0.0000 19454.0919 19513.2308 75896.5618 19454.0919 19513.2308
TCL: Exiting due to exit command.
Info: NAMD 3.0.1 for Linux-x86_64-multicore
Info: Please visit http://www.ks.uiuc.edu/Research/namd/
Info: for updates, documentation, and support information.
Info: Please cite Phillips et al., J. Chem. Phys. 153:044130 (2020) doi:10.1063/5.0014475
Info: in all publications reporting results obtained with NAMD.
Info: Based on Charm++/Converse 80000 for multicore-linux-x86_64-gcc
Info: Built Mon Oct 14 11:11:06 CDT 2024 by dhardy on athine.ks.uiuc.edu
Info: 1 NAMD  3.0.1  Linux-x86_64-multicore  16    k018  z5358697
Info: Running on 16 processors, 1 nodes, 1 physical nodes.
Info: CPU topology information available.
Info: Charm++/Converse parallel runtime startup completed at 0.00538368 s
Info: 1043.46 MB of memory in use based on /proc/self/stat
Info: Configuration file is mobley_194273_equil.namd
Info: Working in the current directory /srv/scratch/z5358697/prod_prep_1/194273
TCL: Running 25000 steps at 30 kelvin.
TCL: Suspending until startup complete.
Info: SIMULATION PARAMETERS:
Info: TIMESTEP               2
Info: NUMBER OF STEPS        0
Info: STEPS PER CYCLE        10
Info: PERIODIC CELL BASIS 1  43.777 0 0
Info: PERIODIC CELL BASIS 2  0 40.459 0
Info: PERIODIC CELL BASIS 3  0 0 42.851
Info: PERIODIC CELL CENTER   0 0 0
Info: WRAPPING WATERS AROUND PERIODIC BOUNDARIES ON OUTPUT.
Info: WRAPPING ALL CLUSTERS AROUND PERIODIC BOUNDARIES ON OUTPUT.
Info: FIRST LDB TIMESTEP     50
Info: LAST LDB TIMESTEP     -1
Info: HOM BACKGROUND SCALING 1
Info: PME BACKGROUND SCALING 1
Info: MIN ATOMS PER PATCH    40
Info: EMPTY PATCH LOAD       40 ATOMS
Info: INITIAL TEMPERATURE    300
Info: CENTER OF MASS MOVING INITIALLY? NO
Info: DIELECTRIC             1
Info: EXCLUDE                SCALED ONE-FOUR
Info: 1-4 ELECTROSTATICS SCALED BY 0.833333
Info: MODIFIED 1-4 VDW PARAMETERS WILL BE USED
Info: DCD FILENAME           mobley_194273_equil.dcd
Info: DCD FREQUENCY          5000
Info: DCD FIRST STEP         5000
Info: DCD FILE WILL CONTAIN UNIT CELL DATA
Info: XST FILENAME           mobley_194273_equil.xst
Info: XST FREQUENCY          5000
Info: NO VELOCITY DCD OUTPUT
Info: NO FORCE DCD OUTPUT
Info: OUTPUT FILENAME        mobley_194273_equil
Info: BINARY OUTPUT FILES WILL BE USED
Info: RESTART FILENAME       mobley_194273_equil.restart
Info: RESTART FREQUENCY      5000
Info: BINARY RESTART FILES WILL BE USED
Info: CUTOFF                 9
Info: PAIRLIST DISTANCE      11
Info: PAIRLIST SHRINK RATE   0.01
Info: PAIRLIST GROW RATE     0.01
Info: PAIRLIST TRIGGER       0.3
Info: PAIRLISTS PER CYCLE    2
Info: PAIRLISTS ENABLED
Info: MARGIN                 8
Info: HYDROGEN GROUP CUTOFF  2.5
Info: PATCH DIMENSION        21.5
Info: ENERGY OUTPUT STEPS    5000
Info: ENERGY EVALUATION STEPS    5000
Info: OUTPUT ENERGY PRECISION 4
Info: CROSSTERM ENERGY INCLUDED IN DIHEDRAL
Info: TIMING OUTPUT STEPS    50000
Info: PRESSURE OUTPUT STEPS  5000
Info: LANGEVIN DYNAMICS ACTIVE
Info: LANGEVIN TEMPERATURE   30
Info: LANGEVIN USING BBK INTEGRATOR
Info: LANGEVIN DAMPING COEFFICIENT IS 1 INVERSE PS
Info: LANGEVIN DYNAMICS APPLIED TO HYDROGENS
Info: LANGEVIN PISTON PRESSURE CONTROL ACTIVE
Info:        TARGET PRESSURE IS 1.01325 BAR
Info:     OSCILLATION PERIOD IS 50 FS
Info:             DECAY TIME IS 25 FS
Info:     PISTON TEMPERATURE IS 300 K
Info:       PRESSURE CONTROL IS GROUP-BASED
Info:    INITIAL STRAIN RATE IS 0 0 0
Info:       CELL FLUCTUATION IS ISOTROPIC
Info: PARTICLE MESH EWALD (PME) ACTIVE
Info: PME TOLERANCE               1e-06
Info: PME EWALD COEFFICIENT       0.348832
Info: PME INTERPOLATION ORDER     4
Info: PME GRID DIMENSIONS         44 44 44
Info: PME MAXIMUM GRID SPACING    1
Info: FULL ELECTROSTATIC EVALUATION FREQUENCY      2
Info: USING VERLET I (r-RESPA) MTS SCHEME.
Info: C1 SPLITTING OF LONG RANGE ELECTROSTATICS
Info: PLACING ATOMS IN PATCHES BY HYDROGEN GROUPS
Info: RIGID BONDS TO HYDROGEN : ALL
Info:         ERROR TOLERANCE : 1e-08
Info:          MAX ITERATIONS : 100
Info: RIGID WATER USING SETTLE ALGORITHM
Info: RANDOM NUMBER SEED     1741316051
Info: USE HYDROGEN BONDS?    NO
Info: Using AMBER format force field!
Info: AMBER PARM FILE        mobley_194273.prmtop
Info: COORDINATE PDB         mobley_194273.pdb
Info: Exclusions will be read from PARM file!
Info: SCNB (VDW SCALING)     2
Info: USING ARITHMETIC MEAN TO COMBINE L-J SIGMA PARAMETERS
Info: BINARY COORDINATES     mobley_194273_min.coor
Info: SUMMARY OF PARAMETERS:
Info: 14 BONDS
Info: 22 ANGLES
Info:   22 HARMONIC
Info:   0 COSINE-BASED
Info: 18 DIHEDRAL
Info: 0 IMPROPER
Info: 0 CROSSTERM
Info: 0 VDW
Info: 55 VDW_PAIRS
Info: 0 NBTHOLE_PAIRS
Info: STRUCTURE SUMMARY:
Info: 5415 ATOMS
Info: 5415 BONDS
Info: 48 ANGLES
Info: 75 DIHEDRALS
Info: 0 IMPROPERS
Info: 0 CROSSTERMS
Info: 5523 EXCLUSIONS
Info: 5401 RIGID BONDS
Info: 10844 DEGREES OF FREEDOM
Info: 1810 HYDROGEN GROUPS
Info: 4 ATOMS IN LARGEST HYDROGEN GROUP
Info: 1810 MIGRATION GROUPS
Info: 4 ATOMS IN LARGEST MIGRATION GROUP
Info: TOTAL MASS = 32617.9 amu
Info: TOTAL CHARGE = -9.99859e-05 e
Info: MASS DENSITY = 0.713662 g/cm^3
Info: ATOM DENSITY = 0.0713471 atoms/A^3
Info: ADDED 0 IMPLICIT EXCLUSIONS
Info: NONBONDED TABLE R-SQUARED SPACING: 0.0625
Info: NONBONDED TABLE SIZE: 705 POINTS
Info: REMOVING COM VELOCITY -0.103475 0.0336883 0.0255692
TCL: Running for 25000 steps
ETITLE: TS BOND ANGLE DIHED IMPRP ELECT VDW BOUNDARY MISC KINETIC TOTAL TEMP POTENTIAL TOTAL3 TEMPAVG PRESSURE GPRESSURE VOLUME PRESSAVG GPRESSAVG
ENERGY: 0 0.6848 4.4133 16.2492 0.0000 -24826.6305 4207.5497 0.0000 0.0000 3242.7027 -17355.0308 300.9595 -20597.7335 -17354.4041 300.9595 81.2623 119.8092 75896.5618 81.2623 119.8092
ENERGY: 5000 1.4653 4.0052 17.0384 0.0000 -25935.4371 4386.9172 0.0000 0.0000 332.4637 -21193.5473 30.8564 -21526.0110 -21192.7916 47.5472 -494.1546 -436.7482 53835.1675 -4.6277 -4.4081
ENERGY: 10000 0.9415 5.8321 16.9605 0.0000 -26180.3906 4578.2376 0.0000 0.0000 326.0198 -21252.3990 30.2583 -21578.4188 -21251.6189 30.0008 419.4707 471.2769 53189.1297 -1.4046 -1.4485
ENERGY: 15000 1.3331 5.7752 17.0856 0.0000 -26272.3942 4650.0987 0.0000 0.0000 324.7122 -21273.3896 30.1370 -21598.1017 -21272.4623 30.0338 724.2799 778.8831 52961.1387 4.8071 4.8808
ENERGY: 20000 1.3061 5.7107 17.2119 0.0000 -26043.1020 4429.8150 0.0000 0.0000 322.4534 -21266.6049 29.9273 -21589.0583 -21265.9052 29.9314 -310.8663 -256.0648 53347.3907 -0.1703 0.0011
ENERGY: 25000 1.4153 4.0957 17.3567 0.0000 -26031.4680 4410.4555 0.0000 0.0000 325.1597 -21272.9851 30.1785 -21598.1448 -21271.9672 30.1342 -460.9629 -393.3479 53346.3582 1.0527 1.0758
TCL: Running 25000 steps at 60 kelvin.
TCL: Setting parameter langevinTemp to 60
TCL: Running for 25000 steps
ETITLE: TS BOND ANGLE DIHED IMPRP ELECT VDW BOUNDARY MISC KINETIC TOTAL TEMP POTENTIAL TOTAL3 TEMPAVG PRESSURE GPRESSURE VOLUME PRESSAVG GPRESSAVG
ENERGY: 25000 1.4153 4.0957 17.3567 0.0000 -26031.4680 4410.4555 0.0000 0.0000 324.9969 -21273.1479 30.1634 -21598.1448 -21272.4857 30.1634 -465.1441 -393.2560 53346.3582 -465.1441 -393.2560
ENERGY: 30000 1.0377 7.0965 17.6053 0.0000 -25430.7257 4102.8974 0.0000 0.0000 652.3990 -20649.6897 60.5500 -21302.0887 -20647.6123 57.1690 -1143.3042 -1087.6574 53434.9209 1.9798 1.8262
ENERGY: 35000 1.8283 5.4867 17.1268 0.0000 -25749.9130 4377.2218 0.0000 0.0000 652.6598 -20695.5896 60.5742 -21348.2494 -20694.0033 60.2765 -25.2721 45.6753 53200.6107 6.0875 6.0582
ENERGY: 40000 1.4242 6.0402 17.9421 0.0000 -25724.5972 4324.5749 0.0000 0.0000 646.5673 -20728.0485 60.0088 -21374.6158 -20726.4545 60.0100 -201.2285 -148.7884 52906.7881 -1.2766 -1.4474
ENERGY: 45000 1.5995 7.4458 16.7172 0.0000 -25760.9300 4316.1825 0.0000 0.0000 631.8295 -20787.1556 58.6409 -21418.9850 -20786.4073 59.9384 -287.2082 -215.2819 52784.6042 -0.6429 -0.6123
ENERGY: 50000 1.4466 4.7712 17.2230 0.0000 -26098.5643 4622.9089 0.0000 0.0000 665.4252 -20786.7893 61.7590 -21452.2145 -20785.0198 60.3003 1142.7753 1193.1874 52242.6630 3.1641 3.2003
TCL: Running 25000 steps at 90 kelvin.
TCL: Setting parameter langevinTemp to 90
TCL: Running for 25000 steps
ETITLE: TS BOND ANGLE DIHED IMPRP ELECT VDW BOUNDARY MISC KINETIC TOTAL TEMP POTENTIAL TOTAL3 TEMPAVG PRESSURE GPRESSURE VOLUME PRESSAVG GPRESSAVG
ENERGY: 50000 1.4466 4.7712 17.2230 0.0000 -26098.5643 4622.9089 0.0000 0.0000 665.1014 -20787.1131 61.7289 -21452.2145 -20785.7137 61.7289 1138.9045 1193.2893 52242.6630 1138.9045 1193.2893
ENERGY: 55000 2.1253 6.5425 18.0533 0.0000 -25400.5687 4257.6058 0.0000 0.0000 978.3261 -20137.9157 90.7997 -21116.2418 -20135.0786 87.2504 75.8756 133.5036 52847.9362 1.5967 2.1041
ENERGY: 60000 2.1857 6.6076 19.2416 0.0000 -25447.7845 4253.7599 0.0000 0.0000 990.3676 -20175.6221 91.9173 -21165.9897 -20172.3410 90.4287 -36.4544 18.4451 52763.3123 2.2855 2.2058
ENERGY: 65000 2.1178 7.2036 17.1577 0.0000 -25450.5572 4207.2639 0.0000 0.0000 973.4309 -20243.3834 90.3454 -21216.8142 -20240.6130 90.3409 -366.2980 -307.3018 52887.1145 -0.9228 -0.9756
ENERGY: 70000 2.2167 8.0581 17.0741 0.0000 -25411.5337 4135.2009 0.0000 0.0000 956.7558 -20292.2281 88.7978 -21248.9839 -20288.9497 90.2561 -783.1177 -769.0475 52776.3822 3.3994 3.7212
ENERGY: 75000 2.1963 5.4847 18.4069 0.0000 -25496.2283 4228.1525 0.0000 0.0000 987.3193 -20254.6686 91.6344 -21241.9880 -20252.5824 90.8940 -323.4722 -250.8766 52570.1012 3.3546 3.2250
TCL: Running 25000 steps at 120 kelvin.
TCL: Setting parameter langevinTemp to 120
TCL: Running for 25000 steps
ETITLE: TS BOND ANGLE DIHED IMPRP ELECT VDW BOUNDARY MISC KINETIC TOTAL TEMP POTENTIAL TOTAL3 TEMPAVG PRESSURE GPRESSURE VOLUME PRESSAVG GPRESSAVG
ENERGY: 75000 2.1963 5.4847 18.4069 0.0000 -25496.2283 4228.1525 0.0000 0.0000 986.8419 -20255.1461 91.5901 -21241.9880 -20253.0781 91.5901 -300.3791 -250.8687 52570.1012 -300.3791 -250.8687
ENERGY: 80000 2.5208 7.6161 17.3499 0.0000 -25268.6909 4363.4918 0.0000 0.0000 1312.2804 -19565.4319 121.7945 -20877.7124 -19562.3328 117.5208 1047.2999 1100.0283 52491.9944 0.7869 1.0949
ENERGY: 85000 1.8377 9.6538 17.0157 0.0000 -25044.2883 4102.4316 0.0000 0.0000 1278.2808 -19635.0687 118.6389 -20913.3495 -19631.3424 119.7591 -327.8660 -261.3839 52883.9107 4.2390 4.4680
ENERGY: 90000 3.6583 8.1954 17.9445 0.0000 -25316.3660 4352.8914 0.0000 0.0000 1293.4959 -19640.1805 120.0510 -20933.6763 -19637.7711 120.6349 777.4826 833.4661 52502.8528 2.0786 1.8258
ENERGY: 95000 2.4976 10.0960 17.6791 0.0000 -25303.5282 4311.0383 0.0000 0.0000 1308.5979 -19653.6192 121.4527 -20962.2171 -19649.9611 119.4090 643.9245 711.0962 52520.7661 5.9869 5.6794
ENERGY: 100000 1.9944 7.6178 17.4964 0.0000 -24966.5792 3968.9064 0.0000 0.0000 1291.7030 -19678.8613 119.8846 -20970.5643 -19675.6866 119.8069 -1110.8770 -1038.9898 53199.6666 6.4599 6.6625
TCL: Running 25000 steps at 150 kelvin.
TCL: Setting parameter langevinTemp to 150
TCL: Running for 25000 steps
ETITLE: TS BOND ANGLE DIHED IMPRP ELECT VDW BOUNDARY MISC KINETIC TOTAL TEMP POTENTIAL TOTAL3 TEMPAVG PRESSURE GPRESSURE VOLUME PRESSAVG GPRESSAVG
ENERGY: 100000 1.9944 7.6178 17.4964 0.0000 -24966.5792 3968.9064 0.0000 0.0000 1291.0562 -19679.5080 119.8246 -20970.5643 -19676.5994 119.8246 -1096.4339 -1039.1588 53199.6666 -1096.4339 -1039.1588
ENERGY: 105000 3.6725 7.8155 18.0729 0.0000 -24598.7066 3953.7555 0.0000 0.0000 1650.6190 -18964.7712 153.1961 -20615.3903 -18960.0102 147.0295 -457.1664 -393.5111 53014.4121 4.6475 4.7584
ENERGY: 110000 4.1527 10.5946 17.7379 0.0000 -24816.4516 4137.3101 0.0000 0.0000 1604.8432 -19041.8130 148.9476 -20646.6563 -19037.5338 150.3603 362.4773 420.3380 52775.8139 2.6111 2.6867
ENERGY: 115000 3.6044 7.2045 18.9698 0.0000 -24705.9122 4014.0828 0.0000 0.0000 1631.0474 -19031.0032 151.3796 -20662.0505 -19026.4270 151.2550 -272.5566 -183.8053 52868.1863 2.9591 3.2589
ENERGY: 120000 3.3144 11.5950 18.4515 0.0000 -24799.2269 4090.8366 0.0000 0.0000 1648.7492 -19026.2801 153.0226 -20675.0293 -19023.6762 149.8043 85.4426 135.8622 52989.4489 1.3355 1.3149
ENERGY: 125000 2.9305 9.0528 17.2236 0.0000 -24611.2256 3922.6566 0.0000 0.0000 1607.4905 -19051.8716 149.1933 -20659.3621 -19048.9415 149.6471 -617.6424 -573.8795 53167.4623 -1.9817 -2.1425
TCL: Running 50000 steps at 180 kelvin.
TCL: Setting parameter langevinTemp to 180
TCL: Running for 50000 steps
ETITLE: TS BOND ANGLE DIHED IMPRP ELECT VDW BOUNDARY MISC KINETIC TOTAL TEMP POTENTIAL TOTAL3 TEMPAVG PRESSURE GPRESSURE VOLUME PRESSAVG GPRESSAVG
ENERGY: 125000 2.9305 9.0528 17.2236 0.0000 -24611.2256 3922.6566 0.0000 0.0000 1606.6815 -19052.6806 149.1182 -20659.3621 -19049.4495 149.1182 -629.1161 -573.6877 53167.4623 -629.1161 -573.6877
ENERGY: 135000 3.0187 12.2548 18.3290 0.0000 -24139.5588 3893.7292 0.0000 0.0000 1976.7892 -18235.4380 183.4684 -20212.2272 -18230.8157 179.9921 288.7785 335.8959 52866.1205 3.2108 3.2138
ENERGY: 145000 2.7012 10.6358 19.5940 0.0000 -24290.5524 3974.7315 0.0000 0.0000 1969.6277 -18313.2622 182.8037 -20282.8899 -18309.9688 181.1052 285.7526 352.0842 53072.0756 8.2843 7.8193
ENERGY: 155000 3.1097 13.3265 17.6020 0.0000 -24017.0555 3729.0684 0.0000 0.0000 1941.8602 -18312.0885 180.2266 -20253.9488 -18307.5408 180.3262 -506.5843 -449.9520 52805.7982 5.1002 4.8581
ENERGY: 165000 2.4941 7.0179 19.1543 0.0000 -24139.3779 3844.8632 0.0000 0.0000 1962.3043 -18303.5442 182.1240 -20265.8484 -18298.7883 181.0167 -214.5952 -102.6113 52898.0423 1.0450 1.3604
ENERGY: 175000 1.3526 14.7994 17.3089 0.0000 -24198.0278 3848.8985 0.0000 0.0000 1959.7414 -18355.9271 181.8862 -20315.6685 -18352.2820 180.0405 -145.7905 -91.6820 52857.8655 2.9695 2.8668
TCL: Running 50000 steps at 210 kelvin.
TCL: Setting parameter langevinTemp to 210
TCL: Running for 50000 steps
ETITLE: TS BOND ANGLE DIHED IMPRP ELECT VDW BOUNDARY MISC KINETIC TOTAL TEMP POTENTIAL TOTAL3 TEMPAVG PRESSURE GPRESSURE VOLUME PRESSAVG GPRESSAVG
ENERGY: 175000 1.3526 14.7994 17.3089 0.0000 -24198.0278 3848.8985 0.0000 0.0000 1958.8026 -18356.8659 181.7990 -20315.6685 -18352.9206 181.7990 -147.8467 -91.7989 52857.8655 -147.8467 -91.7989
ENERGY: 185000 2.5571 12.6369 18.1186 0.0000 -23017.4358 3420.4149 0.0000 0.0000 2220.4699 -17343.2383 206.0847 -19563.7082 -17338.3139 209.1482 -540.4031 -441.4947 52851.1430 0.6299 0.8637
ENERGY: 195000 6.7443 9.6030 18.4692 0.0000 -23060.3071 3527.2984 0.0000 0.0000 2307.9687 -17190.2236 214.2056 -19498.1923 -17186.7686 209.6090 137.1454 239.3294 52571.5145 2.0094 1.7257
ENERGY: 205000 5.0709 8.7135 20.3244 0.0000 -22925.1734 3488.5495 0.0000 0.0000 2247.7373 -17154.7778 208.6154 -19402.5152 -17149.6107 210.4008 162.1911 273.5730 52258.7958 1.8528 2.3038
ENERGY: 215000 5.2608 10.9908 17.7061 0.0000 -23033.9638 3583.4060 0.0000 0.0000 2239.2011 -17177.3989 207.8232 -19416.6000 -17173.0744 210.1771 536.6149 580.2266 52396.5306 3.5037 3.4614
ENERGY: 225000 2.2048 14.6028 18.6198 0.0000 -22886.2868 3437.6027 0.0000 0.0000 2262.3533 -17150.9034 209.9720 -19413.2567 -17145.8763 210.8837 -427.8400 -359.9900 53390.6086 -0.2766 -0.2789
TCL: Running 50000 steps at 240 kelvin.
TCL: Setting parameter langevinTemp to 240
TCL: Running for 50000 steps
ETITLE: TS BOND ANGLE DIHED IMPRP ELECT VDW BOUNDARY MISC KINETIC TOTAL TEMP POTENTIAL TOTAL3 TEMPAVG PRESSURE GPRESSURE VOLUME PRESSAVG GPRESSAVG
ENERGY: 225000 2.2048 14.6028 18.6198 0.0000 -22886.2868 3437.6027 0.0000 0.0000 2261.2226 -17152.0341 209.8670 -19413.2567 -17147.7598 209.8670 -437.2109 -359.2581 53390.6086 -437.2109 -359.2581
ENERGY: 235000 4.3013 8.4626 19.5231 0.0000 -21727.7887 3122.2030 0.0000 0.0000 2602.9505 -15970.3482 241.5832 -18573.2987 -15964.5961 240.7053 -250.0224 -190.3109 53988.1280 3.3160 3.3656
ENERGY: 245000 4.8830 13.1351 19.3147 0.0000 -21590.4917 3093.5556 0.0000 0.0000 2580.6058 -15878.9975 239.5094 -18459.6033 -15874.3110 241.9059 -120.7031 -41.2121 53983.1045 -0.4690 -0.6893
ENERGY: 255000 5.5793 6.5738 19.9727 0.0000 -21914.7598 3190.4236 0.0000 0.0000 2566.2291 -16125.9813 238.1751 -18692.2104 -16120.3280 239.7292 88.2201 177.5725 53140.2458 5.0178 4.9017
ENERGY: 265000 7.2017 11.1865 20.4415 0.0000 -21696.9885 3049.2556 0.0000 0.0000 2625.0251 -15983.8782 243.6320 -18608.9032 -15978.7299 240.1005 -505.2669 -416.3248 53376.3476 6.0080 5.7394
ENERGY: 275000 5.1242 10.0798 16.8980 0.0000 -21734.8651 3064.0725 0.0000 0.0000 2674.3367 -15964.3540 248.2087 -18638.6907 -15956.4195 239.9879 -397.9476 -330.7231 53302.8612 -0.7866 -0.4329
TCL: Running 50000 steps at 270 kelvin.
TCL: Setting parameter langevinTemp to 270
TCL: Running for 50000 steps
ETITLE: TS BOND ANGLE DIHED IMPRP ELECT VDW BOUNDARY MISC KINETIC TOTAL TEMP POTENTIAL TOTAL3 TEMPAVG PRESSURE GPRESSURE VOLUME PRESSAVG GPRESSAVG
ENERGY: 275000 5.1242 10.0798 16.8980 0.0000 -21734.8651 3064.0725 0.0000 0.0000 2673.0564 -15965.6343 248.0898 -18638.6907 -15960.6252 248.0898 -412.4826 -330.7291 53302.8612 -412.4826 -330.7291
ENERGY: 285000 2.5284 13.0322 20.2847 0.0000 -20780.3328 2971.9978 0.0000 0.0000 2896.4390 -14876.0508 268.8223 -17772.4898 -14870.1064 270.0779 426.2023 529.0461 54355.5146 4.3652 4.5127
ENERGY: 295000 5.2424 14.1529 18.7531 0.0000 -20945.4748 2886.6132 0.0000 0.0000 2886.1786 -15134.5345 267.8700 -18020.7132 -15129.5167 268.2088 -63.1305 0.9294 53799.4869 5.5093 5.4457
ENERGY: 305000 5.9155 10.0720 20.3596 0.0000 -20766.9232 2795.5956 0.0000 0.0000 2859.6813 -15075.2993 265.4107 -17934.9805 -15069.9472 269.6862 -813.3721 -692.7710 55012.0266 -2.6496 -2.3483
ENERGY: 315000 8.0469 14.4514 17.9974 0.0000 -20780.0311 2931.8764 0.0000 0.0000 2953.1478 -14854.5113 274.0855 -17807.6590 -14847.8617 269.5876 175.5607 303.0340 54061.2949 -3.1852 -2.7846
ENERGY: 325000 2.0476 11.8613 20.9257 0.0000 -20692.5372 2778.2761 0.0000 0.0000 2902.6064 -14976.8201 269.3947 -17879.4265 -14971.3841 271.5253 -632.8003 -495.5039 54693.8349 6.6792 6.4051
TCL: Running 1000000 steps at 300 kelvin.
TCL: Setting parameter langevinTemp to 300
TCL: Running for 1000000 steps
ETITLE: TS BOND ANGLE DIHED IMPRP ELECT VDW BOUNDARY MISC KINETIC TOTAL TEMP POTENTIAL TOTAL3 TEMPAVG PRESSURE GPRESSURE VOLUME PRESSAVG GPRESSAVG
ENERGY: 325000 2.0476 11.8613 20.9257 0.0000 -20692.5372 2778.2761 0.0000 0.0000 2901.1574 -14978.2691 269.2602 -17879.4265 -14973.7262 269.2602 -578.3296 -495.5716 54693.8349 -578.3296 -495.5716
ENERGY: 525000 3.0156 15.1228 17.6891 0.0000 -19787.4732 2636.4980 0.0000 0.0000 3189.9188 -13925.2290 296.0605 -17115.1477 -13918.8481 300.3847 -237.9170 -172.6912 56364.6593 4.8030 5.0088
ENERGY: 725000 3.9782 14.0104 18.6326 0.0000 -19669.7315 2567.6394 0.0000 0.0000 3189.5022 -13875.9688 296.0219 -17065.4709 -13868.5624 299.7039 -254.1020 -138.5317 55685.3909 1.5913 1.5131
ENERGY: 925000 3.2407 16.3423 19.6078 0.0000 -19810.2596 2500.7504 0.0000 0.0000 3194.2576 -14076.0607 296.4632 -17270.3183 -14068.7342 298.7234 -921.8424 -791.6392 55687.3370 4.4471 4.4242
ENERGY: 1125000 5.3930 12.9863 20.8159 0.0000 -19872.3361 2767.4197 0.0000 0.0000 3169.5741 -13896.1471 294.1723 -17065.7212 -13886.2246 301.3110 569.1861 620.3551 55799.3684 1.1804 1.8825
ENERGY: 1325000 3.9728 16.5626 19.0698 0.0000 -19677.8145 2635.8044 0.0000 0.0000 3234.6433 -13767.7616 300.2115 -17002.4049 -13761.1548 301.2556 95.2723 200.5842 55887.3653 2.4931 2.5139
TCL: Exiting due to exit command.
