Info: SIMULATION PARAMETERS:
Info: TIMESTEP               2
Info: NUMBER OF STEPS        0
Info: STEPS PER CYCLE        10
Info: PERIODIC CELL BASIS 1  39.806 0 0
Info: PERIODIC CELL BASIS 2  0 41.628 0
Info: PERIODIC CELL BASIS 3  0 0 43.557
Info: PERIODIC CELL CENTER   0 0 0
Info: WRAPPING WATERS AROUND PERIODIC BOUNDARIES ON OUTPUT.
Info: WRAPPING ALL CLUSTERS AROUND PERIODIC BOUNDARIES ON OUTPUT.
Info: FIRST LDB TIMESTEP     50
Info: LAST LDB TIMESTEP     -1
Info: HOM BACKGROUND SCALING 1
Info: PME BACKGROUND SCALING 1
Info: MIN ATOMS PER PATCH    40
Info: EMPTY PATCH LOAD       40 ATOMS
Info: INITIAL TEMPERATURE    300
Info: CENTER OF MASS MOVING INITIALLY? NO
Info: DIELECTRIC             1
Info: EXCLUDE                SCALED ONE-FOUR
Info: 1-4 ELECTROSTATICS SCALED BY 0.833333
Info: MODIFIED 1-4 VDW PARAMETERS WILL BE USED
Info: DCD FILENAME           mobley_1735893_min.dcd
Info: DCD FREQUENCY          5000
Info: DCD FIRST STEP         5000
Info: DCD FILE WILL CONTAIN UNIT CELL DATA
Info: XST FILENAME           mobley_1735893_min.xst
Info: XST FREQUENCY          5000
Info: NO VELOCITY DCD OUTPUT
Info: NO FORCE DCD OUTPUT
Info: OUTPUT FILENAME        mobley_1735893_min
Info: BINARY OUTPUT FILES WILL BE USED
Info: RESTART FILENAME       mobley_1735893_min.restart
Info: RESTART FREQUENCY      5000
Info: BINARY RESTART FILES WILL BE USED
Info: CUTOFF                 9
Info: PAIRLIST DISTANCE      11
Info: PAIRLIST SHRINK RATE   0.01
Info: PAIRLIST GROW RATE     0.01
Info: PAIRLIST TRIGGER       0.3
Info: PAIRLISTS PER CYCLE    2
Info: PAIRLISTS ENABLED
Info: MARGIN                 8
Info: HYDROGEN GROUP CUTOFF  2.5
Info: PATCH DIMENSION        21.5
Info: ENERGY OUTPUT STEPS    5000
Info: ENERGY EVALUATION STEPS    5000
Info: OUTPUT ENERGY PRECISION 4
Info: CROSSTERM ENERGY INCLUDED IN DIHEDRAL
Info: TIMING OUTPUT STEPS    50000
Info: PRESSURE OUTPUT STEPS  5000
Info: LANGEVIN DYNAMICS ACTIVE
Info: LANGEVIN TEMPERATURE   300
Info: LANGEVIN USING BBK INTEGRATOR
Info: LANGEVIN DAMPING COEFFICIENT IS 1 INVERSE PS
Info: LANGEVIN DYNAMICS APPLIED TO HYDROGENS
Info: LANGEVIN PISTON PRESSURE CONTROL ACTIVE
Info:        TARGET PRESSURE IS 1.01325 BAR
Info:     OSCILLATION PERIOD IS 50 FS
Info:             DECAY TIME IS 25 FS
Info:     PISTON TEMPERATURE IS 300 K
Info:       PRESSURE CONTROL IS GROUP-BASED
Info:    INITIAL STRAIN RATE IS 0 0 0
Info:       CELL FLUCTUATION IS ISOTROPIC
Info: PARTICLE MESH EWALD (PME) ACTIVE
Info: PME TOLERANCE               1e-06
Info: PME EWALD COEFFICIENT       0.348832
Info: PME INTERPOLATION ORDER     4
Info: PME GRID DIMENSIONS         40 44 44
Info: PME MAXIMUM GRID SPACING    1
Info: FULL ELECTROSTATIC EVALUATION FREQUENCY      2
Info: USING VERLET I (r-RESPA) MTS SCHEME.
Info: C1 SPLITTING OF LONG RANGE ELECTROSTATICS
Info: PLACING ATOMS IN PATCHES BY HYDROGEN GROUPS
Info: RIGID BONDS TO HYDROGEN : ALL
Info:         ERROR TOLERANCE : 1e-08
Info:          MAX ITERATIONS : 100
Info: RIGID WATER USING SETTLE ALGORITHM
Info: RANDOM NUMBER SEED     1741318144
Info: USE HYDROGEN BONDS?    NO
Info: Using AMBER format force field!
Info: AMBER PARM FILE        mobley_1735893.prmtop
Info: COORDINATE PDB         mobley_1735893.pdb
Info: Exclusions will be read from PARM file!
Info: SCNB (VDW SCALING)     2
Info: USING ARITHMETIC MEAN TO COMBINE L-J SIGMA PARAMETERS
Info: SUMMARY OF PARAMETERS:
Info: 8 BONDS
Info: 9 ANGLES
Info:   9 HARMONIC
Info:   0 COSINE-BASED
Info: 17 DIHEDRAL
Info: 0 IMPROPER
Info: 0 CROSSTERM
Info: 0 VDW
Info: 36 VDW_PAIRS
Info: 0 NBTHOLE_PAIRS
Info: STRUCTURE SUMMARY:
Info: 5264 ATOMS
Info: 5263 BONDS
Info: 34 ANGLES
Info: 52 DIHEDRALS
Info: 0 IMPROPERS
Info: 0 CROSSTERMS
Info: 5341 EXCLUSIONS
Info: 5256 RIGID BONDS
Info: 10536 DEGREES OF FREEDOM
Info: 1756 HYDROGEN GROUPS
Info: 4 ATOMS IN LARGEST HYDROGEN GROUP
Info: 1756 MIGRATION GROUPS
Info: 4 ATOMS IN LARGEST MIGRATION GROUP
Info: TOTAL MASS = 31608.1 amu
Info: TOTAL CHARGE = 5.21541e-08 e
Info: MASS DENSITY = 0.72722 g/cm^3
Info: ATOM DENSITY = 0.072933 atoms/A^3
Info: ADDED 0 IMPLICIT EXCLUSIONS
Info: NONBONDED TABLE R-SQUARED SPACING: 0.0625
Info: NONBONDED TABLE SIZE: 705 POINTS
Info: REMOVING COM VELOCITY 0.00899386 0.122038 0.00424425
TCL: Minimizing for 2000 steps
ETITLE: TS BOND ANGLE DIHED IMPRP ELECT VDW BOUNDARY MISC KINETIC TOTAL TEMP POTENTIAL TOTAL3 TEMPAVG PRESSURE GPRESSURE VOLUME PRESSAVG GPRESSAVG
ENERGY: 0 0.1361 2.3212 17.0575 0.0000 -16393.7200 1825.8367 0.0000 0.0000 0.0000 -14548.3685 0.0000 -14548.3685 -14548.3685 0.0000 11149.3419 -15620.1419 72175.8728 11149.3419 -15620.1419
ENERGY: 400 4.4256 2.5821 15.6877 0.0000 -22042.1036 3252.5942 0.0000 0.0000 0.0000 -18766.8140 0.0000 -18766.8140 -18766.8140 0.0000 16125.3900 10307.5928 72175.8728 16125.3900 10307.5928
ENERGY: 800 6.8196 4.0442 15.6172 0.0000 -23122.3522 3656.6955 0.0000 0.0000 0.0000 -19439.1756 0.0000 -19439.1756 -19439.1756 0.0000 17871.5096 11602.3663 72175.8728 17871.5096 11602.3663
ENERGY: 1200 0.7441 0.3759 15.2206 0.0000 -23737.9140 3951.6012 0.0000 0.0000 0.0000 -19769.9722 0.0000 -19769.9722 -19769.9722 0.0000 19175.0089 12848.8762 72175.8728 19175.0089 12848.8762
ENERGY: 1600 0.4700 0.4933 14.6454 0.0000 -24068.2267 4131.4819 0.0000 0.0000 0.0000 -19921.1362 0.0000 -19921.1362 -19921.1362 0.0000 20028.3759 13769.8252 72175.8728 20028.3759 13769.8252
ENERGY: 2000 0.3064 0.7417 14.3190 0.0000 -24148.9531 4140.4116 0.0000 0.0000 0.0000 -19993.1745 0.0000 -19993.1745 -19993.1745 0.0000 20100.8318 13807.6172 72175.8728 20100.8318 13807.6172
TCL: Exiting due to exit command.
Info: NAMD 3.0.1 for Linux-x86_64-multicore
Info: Please visit http://www.ks.uiuc.edu/Research/namd/
Info: for updates, documentation, and support information.
Info: Please cite Phillips et al., J. Chem. Phys. 153:044130 (2020) doi:10.1063/5.0014475
Info: in all publications reporting results obtained with NAMD.
Info: Based on Charm++/Converse 80000 for multicore-linux-x86_64-gcc
Info: Built Mon Oct 14 11:11:06 CDT 2024 by dhardy on athine.ks.uiuc.edu
Info: 1 NAMD  3.0.1  Linux-x86_64-multicore  16    k026  z5358697
Info: Running on 16 processors, 1 nodes, 1 physical nodes.
Info: CPU topology information available.
Info: Charm++/Converse parallel runtime startup completed at 0.0252741 s
Info: 1043.46 MB of memory in use based on /proc/self/stat
Info: Configuration file is mobley_1735893_equil.namd
Info: Working in the current directory /srv/scratch/z5358697/prod_prep/1735893
TCL: Running 25000 steps at 30 kelvin.
TCL: Suspending until startup complete.
Info: SIMULATION PARAMETERS:
Info: TIMESTEP               2
Info: NUMBER OF STEPS        0
Info: STEPS PER CYCLE        10
Info: PERIODIC CELL BASIS 1  39.806 0 0
Info: PERIODIC CELL BASIS 2  0 41.628 0
Info: PERIODIC CELL BASIS 3  0 0 43.557
Info: PERIODIC CELL CENTER   0 0 0
Info: WRAPPING WATERS AROUND PERIODIC BOUNDARIES ON OUTPUT.
Info: WRAPPING ALL CLUSTERS AROUND PERIODIC BOUNDARIES ON OUTPUT.
Info: FIRST LDB TIMESTEP     50
Info: LAST LDB TIMESTEP     -1
Info: HOM BACKGROUND SCALING 1
Info: PME BACKGROUND SCALING 1
Info: MIN ATOMS PER PATCH    40
Info: EMPTY PATCH LOAD       40 ATOMS
Info: INITIAL TEMPERATURE    300
Info: CENTER OF MASS MOVING INITIALLY? NO
Info: DIELECTRIC             1
Info: EXCLUDE                SCALED ONE-FOUR
Info: 1-4 ELECTROSTATICS SCALED BY 0.833333
Info: MODIFIED 1-4 VDW PARAMETERS WILL BE USED
Info: DCD FILENAME           mobley_1735893_equil.dcd
Info: DCD FREQUENCY          5000
Info: DCD FIRST STEP         5000
Info: DCD FILE WILL CONTAIN UNIT CELL DATA
Info: XST FILENAME           mobley_1735893_equil.xst
Info: XST FREQUENCY          5000
Info: NO VELOCITY DCD OUTPUT
Info: NO FORCE DCD OUTPUT
Info: OUTPUT FILENAME        mobley_1735893_equil
Info: BINARY OUTPUT FILES WILL BE USED
Info: RESTART FILENAME       mobley_1735893_equil.restart
Info: RESTART FREQUENCY      5000
Info: BINARY RESTART FILES WILL BE USED
Info: CUTOFF                 9
Info: PAIRLIST DISTANCE      11
Info: PAIRLIST SHRINK RATE   0.01
Info: PAIRLIST GROW RATE     0.01
Info: PAIRLIST TRIGGER       0.3
Info: PAIRLISTS PER CYCLE    2
Info: PAIRLISTS ENABLED
Info: MARGIN                 8
Info: HYDROGEN GROUP CUTOFF  2.5
Info: PATCH DIMENSION        21.5
Info: ENERGY OUTPUT STEPS    5000
Info: ENERGY EVALUATION STEPS    5000
Info: OUTPUT ENERGY PRECISION 4
Info: CROSSTERM ENERGY INCLUDED IN DIHEDRAL
Info: TIMING OUTPUT STEPS    50000
Info: PRESSURE OUTPUT STEPS  5000
Info: LANGEVIN DYNAMICS ACTIVE
Info: LANGEVIN TEMPERATURE   30
Info: LANGEVIN USING BBK INTEGRATOR
Info: LANGEVIN DAMPING COEFFICIENT IS 1 INVERSE PS
Info: LANGEVIN DYNAMICS APPLIED TO HYDROGENS
Info: LANGEVIN PISTON PRESSURE CONTROL ACTIVE
Info:        TARGET PRESSURE IS 1.01325 BAR
Info:     OSCILLATION PERIOD IS 50 FS
Info:             DECAY TIME IS 25 FS
Info:     PISTON TEMPERATURE IS 300 K
Info:       PRESSURE CONTROL IS GROUP-BASED
Info:    INITIAL STRAIN RATE IS 0 0 0
Info:       CELL FLUCTUATION IS ISOTROPIC
Info: PARTICLE MESH EWALD (PME) ACTIVE
Info: PME TOLERANCE               1e-06
Info: PME EWALD COEFFICIENT       0.348832
Info: PME INTERPOLATION ORDER     4
Info: PME GRID DIMENSIONS         40 44 44
Info: PME MAXIMUM GRID SPACING    1
Info: FULL ELECTROSTATIC EVALUATION FREQUENCY      2
Info: USING VERLET I (r-RESPA) MTS SCHEME.
Info: C1 SPLITTING OF LONG RANGE ELECTROSTATICS
Info: PLACING ATOMS IN PATCHES BY HYDROGEN GROUPS
Info: RIGID BONDS TO HYDROGEN : ALL
Info:         ERROR TOLERANCE : 1e-08
Info:          MAX ITERATIONS : 100
Info: RIGID WATER USING SETTLE ALGORITHM
Info: RANDOM NUMBER SEED     1741318162
Info: USE HYDROGEN BONDS?    NO
Info: Using AMBER format force field!
Info: AMBER PARM FILE        mobley_1735893.prmtop
Info: COORDINATE PDB         mobley_1735893.pdb
Info: Exclusions will be read from PARM file!
Info: SCNB (VDW SCALING)     2
Info: USING ARITHMETIC MEAN TO COMBINE L-J SIGMA PARAMETERS
Info: BINARY COORDINATES     mobley_1735893_min.coor
Info: SUMMARY OF PARAMETERS:
Info: 8 BONDS
Info: 9 ANGLES
Info:   9 HARMONIC
Info:   0 COSINE-BASED
Info: 17 DIHEDRAL
Info: 0 IMPROPER
Info: 0 CROSSTERM
Info: 0 VDW
Info: 36 VDW_PAIRS
Info: 0 NBTHOLE_PAIRS
Info: STRUCTURE SUMMARY:
Info: 5264 ATOMS
Info: 5263 BONDS
Info: 34 ANGLES
Info: 52 DIHEDRALS
Info: 0 IMPROPERS
Info: 0 CROSSTERMS
Info: 5341 EXCLUSIONS
Info: 5256 RIGID BONDS
Info: 10536 DEGREES OF FREEDOM
Info: 1756 HYDROGEN GROUPS
Info: 4 ATOMS IN LARGEST HYDROGEN GROUP
Info: 1756 MIGRATION GROUPS
Info: 4 ATOMS IN LARGEST MIGRATION GROUP
Info: TOTAL MASS = 31608.1 amu
Info: TOTAL CHARGE = 5.21541e-08 e
Info: MASS DENSITY = 0.72722 g/cm^3
Info: ATOM DENSITY = 0.072933 atoms/A^3
Info: ADDED 0 IMPLICIT EXCLUSIONS
Info: NONBONDED TABLE R-SQUARED SPACING: 0.0625
Info: NONBONDED TABLE SIZE: 705 POINTS
Info: REMOVING COM VELOCITY 0.167791 0.0734201 -0.105493
TCL: Running for 25000 steps
ETITLE: TS BOND ANGLE DIHED IMPRP ELECT VDW BOUNDARY MISC KINETIC TOTAL TEMP POTENTIAL TOTAL3 TEMPAVG PRESSURE GPRESSURE VOLUME PRESSAVG GPRESSAVG
ENERGY: 0 0.3064 0.7417 14.3190 0.0000 -24148.9531 4140.4116 0.0000 0.0000 3197.8061 -16795.3684 305.4687 -19993.1745 -16794.7146 305.4687 133.9808 173.3065 72175.8728 133.9808 173.3065
ENERGY: 5000 0.4807 0.5422 15.2048 0.0000 -25225.7044 4259.6542 0.0000 0.0000 317.7778 -20632.0447 30.3556 -20949.8225 -20631.1037 48.2735 -505.4819 -442.3983 50702.8491 0.5797 0.6349
ENERGY: 10000 0.3373 1.2936 14.8360 0.0000 -25288.3528 4285.4550 0.0000 0.0000 313.7316 -20672.6992 29.9690 -20986.4308 -20672.0528 30.1169 -430.7799 -370.1865 50607.0050 2.1003 2.1158
ENERGY: 15000 0.2551 1.5957 15.6767 0.0000 -25477.2455 4457.4341 0.0000 0.0000 319.1652 -20683.1187 30.4881 -21002.2839 -20682.0727 29.8552 399.3061 448.1365 50373.5211 6.5123 6.5201
ENERGY: 20000 0.2237 1.1055 16.1523 0.0000 -25306.7244 4288.0103 0.0000 0.0000 307.9743 -20693.2584 29.4191 -21001.2327 -20692.5951 30.0516 -417.7681 -383.9149 50541.2629 0.7115 0.6214
ENERGY: 25000 0.0755 1.2305 16.4052 0.0000 -25512.3792 4474.6419 0.0000 0.0000 323.1447 -20696.8813 30.8682 -21020.0261 -20696.2382 29.9082 477.1958 527.4435 50320.9162 -0.1197 -0.1314
TCL: Running 25000 steps at 60 kelvin.
TCL: Setting parameter langevinTemp to 60
TCL: Running for 25000 steps
ETITLE: TS BOND ANGLE DIHED IMPRP ELECT VDW BOUNDARY MISC KINETIC TOTAL TEMP POTENTIAL TOTAL3 TEMPAVG PRESSURE GPRESSURE VOLUME PRESSAVG GPRESSAVG
ENERGY: 25000 0.0755 1.2305 16.4052 0.0000 -25512.3792 4474.6419 0.0000 0.0000 322.9880 -20697.0380 30.8533 -21020.0261 -20696.3027 30.8533 471.3806 527.3266 50320.9162 471.3806 527.3266
ENERGY: 30000 0.3631 1.8080 15.3529 0.0000 -25094.5495 4349.3418 0.0000 0.0000 636.7190 -20090.9647 60.8222 -20727.6837 -20089.4121 57.1880 513.5622 566.7460 50501.6373 2.3486 2.0225
ENERGY: 35000 0.5538 1.8871 15.3128 0.0000 -25055.9931 4258.4724 0.0000 0.0000 639.1948 -20140.5722 61.0587 -20779.7669 -20138.5227 60.5281 0.0677 53.8119 50545.2325 1.7498 1.7859
ENERGY: 40000 0.3253 1.8735 14.9869 0.0000 -25103.8727 4282.6514 0.0000 0.0000 634.9232 -20169.1125 60.6507 -20804.0357 -20167.9108 60.5442 69.4081 129.1203 50466.3290 5.4916 5.2701
ENERGY: 45000 0.0835 1.4299 14.9906 0.0000 -25080.2327 4234.2554 0.0000 0.0000 627.5496 -20201.9236 59.9463 -20829.4732 -20200.7025 59.9513 -220.0985 -147.3850 50378.6017 6.6634 6.9652
ENERGY: 50000 0.6188 1.5825 15.3143 0.0000 -25291.3851 4446.1200 0.0000 0.0000 635.8882 -20191.8613 60.7429 -20827.7495 -20190.9408 59.8755 887.7285 936.1797 50025.5868 -3.3879 -3.6108
TCL: Running 25000 steps at 90 kelvin.
TCL: Setting parameter langevinTemp to 90
TCL: Running for 25000 steps
ETITLE: TS BOND ANGLE DIHED IMPRP ELECT VDW BOUNDARY MISC KINETIC TOTAL TEMP POTENTIAL TOTAL3 TEMPAVG PRESSURE GPRESSURE VOLUME PRESSAVG GPRESSAVG
ENERGY: 50000 0.6188 1.5825 15.3143 0.0000 -25291.3851 4446.1200 0.0000 0.0000 635.5862 -20192.1632 60.7140 -20827.7495 -20190.9875 60.7140 880.7585 935.7310 50025.5868 880.7585 935.7310
ENERGY: 55000 1.0520 1.5204 15.2473 0.0000 -24651.3281 4122.7894 0.0000 0.0000 963.9715 -19546.7474 92.0829 -20510.7189 -19542.5355 87.5304 -35.1201 -17.2161 50603.0561 2.2063 2.0185
ENERGY: 60000 0.6132 3.5174 15.5898 0.0000 -24797.5559 4252.3246 0.0000 0.0000 939.3135 -19586.1974 89.7274 -20525.5109 -19584.2157 90.4788 544.2399 592.9687 50490.6002 0.5618 0.5581
ENERGY: 65000 1.4395 1.7676 16.1290 0.0000 -24779.7362 4212.6001 0.0000 0.0000 918.0390 -19629.7609 87.6952 -20547.8000 -19627.6417 90.5052 281.2112 329.2956 50472.5556 5.3525 5.2574
ENERGY: 70000 0.1806 1.8395 14.6014 0.0000 -24964.2333 4370.3022 0.0000 0.0000 939.0543 -19638.2552 89.7027 -20577.3095 -19635.6932 89.5689 874.1450 950.1078 50339.9070 5.8788 5.5386
ENERGY: 75000 0.6086 3.3730 15.1800 0.0000 -24677.2885 4050.1351 0.0000 0.0000 923.3708 -19684.6210 88.2045 -20607.9918 -19682.2821 89.6742 -768.6436 -715.7688 50928.3723 2.6194 2.3371
TCL: Running 25000 steps at 120 kelvin.
TCL: Setting parameter langevinTemp to 120
TCL: Running for 25000 steps
ETITLE: TS BOND ANGLE DIHED IMPRP ELECT VDW BOUNDARY MISC KINETIC TOTAL TEMP POTENTIAL TOTAL3 TEMPAVG PRESSURE GPRESSURE VOLUME PRESSAVG GPRESSAVG
ENERGY: 75000 0.6086 3.3730 15.1800 0.0000 -24677.2885 4050.1351 0.0000 0.0000 922.8982 -19685.0936 88.1594 -20607.9918 -19682.8830 88.1594 -767.7375 -716.2667 50928.3723 -767.7375 -716.2667
ENERGY: 80000 1.6700 3.0906 14.8562 0.0000 -24087.0706 3844.3787 0.0000 0.0000 1274.9052 -18948.1699 121.7846 -20223.0751 -18944.6918 116.6031 -943.0615 -867.7465 51100.0267 5.2298 5.2540
ENERGY: 85000 1.3823 3.5886 15.2618 0.0000 -24114.3755 3903.1269 0.0000 0.0000 1211.4565 -18979.5594 115.7237 -20191.0159 -18975.7323 120.8729 -509.5384 -444.1590 50976.0146 0.7665 0.3650
ENERGY: 90000 1.1064 4.3349 14.6338 0.0000 -24336.6942 4061.2965 0.0000 0.0000 1258.5144 -18996.8082 120.2189 -20255.3226 -18992.9964 120.0051 15.4363 66.8093 51113.9701 1.9912 2.0717
ENERGY: 95000 1.5782 4.5092 15.4709 0.0000 -24305.1580 3987.4530 0.0000 0.0000 1276.6253 -19019.5215 121.9489 -20296.1468 -19013.9389 120.0180 -417.9902 -344.6514 51112.5835 1.5945 1.7127
ENERGY: 100000 1.6524 3.2828 15.7917 0.0000 -24485.5341 4129.6288 0.0000 0.0000 1294.1785 -19041.0000 123.6257 -20335.1784 -19038.1130 120.7152 373.2396 432.8104 50451.2002 -0.0972 0.0708
TCL: Running 25000 steps at 150 kelvin.
TCL: Setting parameter langevinTemp to 150
TCL: Running for 25000 steps
ETITLE: TS BOND ANGLE DIHED IMPRP ELECT VDW BOUNDARY MISC KINETIC TOTAL TEMP POTENTIAL TOTAL3 TEMPAVG PRESSURE GPRESSURE VOLUME PRESSAVG GPRESSAVG
ENERGY: 100000 1.6524 3.2828 15.7917 0.0000 -24485.5341 4129.6288 0.0000 0.0000 1293.5247 -19041.6538 123.5633 -20335.1784 -19038.9112 123.5633 371.4093 432.3506 50451.2002 371.4093 432.3506
ENERGY: 105000 0.7353 5.4422 15.6930 0.0000 -23938.8290 4011.5744 0.0000 0.0000 1627.0247 -18278.3594 155.4207 -19905.3842 -18274.9233 147.5998 604.6526 654.3935 50878.8337 3.3755 2.5669
ENERGY: 110000 1.6112 5.5875 14.7171 0.0000 -23935.5193 3966.4823 0.0000 0.0000 1568.6535 -18378.4677 149.8448 -19947.1212 -18375.0405 151.0623 259.3307 285.5826 51026.3807 1.2019 1.2720
ENERGY: 115000 1.3847 4.9689 15.7863 0.0000 -23925.1567 3948.8642 0.0000 0.0000 1573.0309 -18381.1216 150.2629 -19954.1526 -18377.0051 149.9442 119.3283 155.1481 51046.3081 6.7853 7.5058
ENERGY: 120000 1.1088 5.2279 14.8543 0.0000 -23909.9794 3935.5591 0.0000 0.0000 1596.3602 -18356.8690 152.4915 -19953.2293 -18354.3221 151.1392 151.5723 220.2173 50814.7829 1.6003 1.0163
ENERGY: 125000 0.5641 4.9824 14.3389 0.0000 -23997.2138 3967.3909 0.0000 0.0000 1576.2749 -18433.6626 150.5728 -20009.9375 -18430.3546 150.4927 21.5342 53.7895 51255.9886 -0.5087 -0.5150
TCL: Running 50000 steps at 180 kelvin.
TCL: Setting parameter langevinTemp to 180
TCL: Running for 50000 steps
ETITLE: TS BOND ANGLE DIHED IMPRP ELECT VDW BOUNDARY MISC KINETIC TOTAL TEMP POTENTIAL TOTAL3 TEMPAVG PRESSURE GPRESSURE VOLUME PRESSAVG GPRESSAVG
ENERGY: 125000 0.5641 4.9824 14.3389 0.0000 -23997.2138 3967.3909 0.0000 0.0000 1575.4493 -18434.4882 150.4940 -20009.9375 -18431.3845 150.4940 -6.0411 52.7608 51255.9886 -6.0411 52.7608
ENERGY: 135000 2.5894 3.7114 15.5806 0.0000 -23340.1293 3804.3656 0.0000 0.0000 1882.1174 -17631.7649 179.7883 -19513.8823 -17627.1392 180.4937 296.2334 348.0098 51434.0212 5.8626 5.7600
ENERGY: 145000 0.8822 5.4095 15.6906 0.0000 -23348.8130 3767.7951 0.0000 0.0000 1847.8402 -17711.1954 176.5140 -19559.0356 -17705.4404 181.0073 95.9777 159.8277 51223.7260 2.6717 2.5522
ENERGY: 155000 1.2724 4.2127 15.1397 0.0000 -23268.0724 3641.5321 0.0000 0.0000 1945.5199 -17660.3956 185.8448 -19605.9155 -17657.7463 180.4793 -485.2106 -433.1262 51251.0194 -7.1065 -7.3036
ENERGY: 165000 0.4945 7.4076 17.8358 0.0000 -23280.4581 3697.4812 0.0000 0.0000 1875.0007 -17682.2383 179.1084 -19557.2391 -17678.0221 179.8730 -331.7853 -213.1206 51556.0480 5.3831 5.4485
ENERGY: 175000 0.7401 8.3881 15.1439 0.0000 -23349.5395 3730.9151 0.0000 0.0000 1921.0640 -17673.2883 183.5086 -19594.3523 -17668.2115 179.6853 -47.4015 -34.2229 51334.5887 -0.7619 -0.1824
TCL: Running 50000 steps at 210 kelvin.
TCL: Setting parameter langevinTemp to 210
TCL: Running for 50000 steps
ETITLE: TS BOND ANGLE DIHED IMPRP ELECT VDW BOUNDARY MISC KINETIC TOTAL TEMP POTENTIAL TOTAL3 TEMPAVG PRESSURE GPRESSURE VOLUME PRESSAVG GPRESSAVG
ENERGY: 175000 0.7401 8.3881 15.1439 0.0000 -23349.5395 3730.9151 0.0000 0.0000 1920.1098 -17674.2425 183.4175 -19594.3523 -17671.0260 183.4175 -93.3596 -33.5576 51334.5887 -93.3596 -33.5576
ENERGY: 185000 1.0745 6.4370 15.2199 0.0000 -22327.8303 3483.1074 0.0000 0.0000 2217.6191 -16604.3725 211.8369 -18821.9916 -16598.8011 209.0604 407.0107 524.1823 50971.4846 -0.4307 -0.3356
ENERGY: 195000 0.4407 5.7270 14.9222 0.0000 -22185.4848 3329.5117 0.0000 0.0000 2182.4395 -16652.4439 208.4764 -18834.8833 -16646.1275 210.2490 -565.7942 -485.3143 51827.3005 5.0882 4.8576
ENERGY: 205000 1.5607 4.7373 15.8994 0.0000 -22270.8966 3384.5171 0.0000 0.0000 2171.1972 -16692.9849 207.4025 -18864.1821 -16686.4756 209.1591 -217.2774 -157.2472 51595.2043 5.1830 5.3663
ENERGY: 215000 1.2333 6.2911 16.5792 0.0000 -22225.9698 3471.3597 0.0000 0.0000 2191.5802 -16538.9262 209.3495 -18730.5064 -16533.9998 211.6557 509.5550 587.4907 51274.7864 1.9517 2.2774
ENERGY: 225000 2.7672 7.0472 15.1665 0.0000 -22381.3874 3506.1191 0.0000 0.0000 2262.3617 -16587.9258 216.1109 -18850.2875 -16584.0381 209.0477 453.0719 544.3864 51128.2675 1.4339 1.5786
TCL: Running 50000 steps at 240 kelvin.
TCL: Setting parameter langevinTemp to 240
TCL: Running for 50000 steps
ETITLE: TS BOND ANGLE DIHED IMPRP ELECT VDW BOUNDARY MISC KINETIC TOTAL TEMP POTENTIAL TOTAL3 TEMPAVG PRESSURE GPRESSURE VOLUME PRESSAVG GPRESSAVG
ENERGY: 225000 2.7672 7.0472 15.1665 0.0000 -22381.3874 3506.1191 0.0000 0.0000 2261.2401 -16589.0474 216.0038 -18850.2875 -16585.2080 216.0038 453.4402 543.3218 51128.2675 453.4402 543.3218
ENERGY: 235000 1.2109 8.6832 16.4943 0.0000 -20979.5112 3038.7543 0.0000 0.0000 2497.5412 -15416.8274 238.5763 -17914.3686 -15413.4937 240.2615 -202.5753 -117.5873 52209.0954 0.1504 0.3145
ENERGY: 245000 0.8022 6.5871 14.2019 0.0000 -21127.4987 3102.6823 0.0000 0.0000 2568.6526 -15434.5726 245.3692 -18003.2252 -15428.9365 240.3615 154.2236 188.1426 51997.1064 1.0444 1.1186
ENERGY: 255000 2.5884 7.6320 14.0631 0.0000 -21138.1006 3117.2800 0.0000 0.0000 2488.8093 -15507.7278 237.7422 -17996.5371 -15505.0830 240.4907 233.8579 342.5816 51759.7468 2.8118 2.0104
ENERGY: 265000 3.0661 12.9238 14.0522 0.0000 -20925.0773 2903.1947 0.0000 0.0000 2462.1044 -15529.7361 235.1912 -17991.8405 -15523.4807 241.4310 -911.1725 -828.0283 52145.4491 2.2849 2.7936
ENERGY: 275000 1.5473 4.4681 14.1291 0.0000 -20988.5672 3048.8270 0.0000 0.0000 2506.1161 -15413.4796 239.3954 -17919.5957 -15408.2368 240.2023 -217.0383 -87.1923 52632.7505 1.2653 1.7742
TCL: Running 50000 steps at 270 kelvin.
TCL: Setting parameter langevinTemp to 270
TCL: Running for 50000 steps
ETITLE: TS BOND ANGLE DIHED IMPRP ELECT VDW BOUNDARY MISC KINETIC TOTAL TEMP POTENTIAL TOTAL3 TEMPAVG PRESSURE GPRESSURE VOLUME PRESSAVG GPRESSAVG
ENERGY: 275000 1.5473 4.4681 14.1291 0.0000 -20988.5672 3048.8270 0.0000 0.0000 2504.8373 -15414.7583 239.2733 -17919.5957 -15410.3481 239.2733 -167.6911 -87.4487 52632.7505 -167.6911 -87.4487
ENERGY: 285000 1.9328 4.6341 14.8430 0.0000 -19999.7298 2723.3854 0.0000 0.0000 2831.9221 -14423.0124 270.5178 -17254.9345 -14415.2727 270.4632 -407.6431 -337.6763 53150.9233 1.5027 1.4694
ENERGY: 295000 1.4246 12.5277 13.9155 0.0000 -20190.9127 2942.5540 0.0000 0.0000 2839.3295 -14381.1614 271.2254 -17220.4909 -14375.8304 270.0660 797.0970 894.9743 52567.6112 0.1701 0.2657
ENERGY: 305000 0.7731 11.4768 15.0851 0.0000 -20017.9959 2810.1673 0.0000 0.0000 2885.7305 -14294.7632 275.6579 -17180.4936 -14291.7791 271.4648 105.9716 193.9794 53135.5945 1.3077 0.8192
ENERGY: 315000 3.4303 6.5001 15.7963 0.0000 -20129.3481 2868.1550 0.0000 0.0000 2820.5444 -14414.9219 269.4310 -17235.4663 -14407.8477 269.4507 328.8499 430.2722 52448.4535 1.9786 1.6607
ENERGY: 325000 3.9245 8.2962 13.7224 0.0000 -19921.3571 2701.8757 0.0000 0.0000 2805.5403 -14387.9981 267.9977 -17193.5384 -14380.9394 271.5320 -319.5971 -250.2048 53098.0114 3.0515 3.1816
TCL: Running 1000000 steps at 300 kelvin.
TCL: Setting parameter langevinTemp to 300
TCL: Running for 1000000 steps
ETITLE: TS BOND ANGLE DIHED IMPRP ELECT VDW BOUNDARY MISC KINETIC TOTAL TEMP POTENTIAL TOTAL3 TEMPAVG PRESSURE GPRESSURE VOLUME PRESSAVG GPRESSAVG
ENERGY: 325000 3.9245 8.2962 13.7224 0.0000 -19921.3571 2701.8757 0.0000 0.0000 2804.1546 -14389.3837 267.8654 -17193.5384 -14383.6759 267.8654 -337.9250 -251.0589 53098.0114 -337.9250 -251.0589
ENERGY: 525000 4.6547 6.4617 14.7982 0.0000 -19097.7782 2518.5434 0.0000 0.0000 3152.9921 -13400.3279 301.1879 -16553.3201 -13395.6053 299.2980 -222.5232 -112.4533 53921.8781 5.1115 5.2662
ENERGY: 725000 2.4065 8.5604 15.0405 0.0000 -18989.8672 2495.2924 0.0000 0.0000 3122.4130 -13346.1544 298.2668 -16468.5675 -13339.4135 299.1182 -242.5794 -126.2026 54395.9031 6.4466 6.9967
ENERGY: 925000 2.4330 5.5819 16.6637 0.0000 -19288.6212 2641.0358 0.0000 0.0000 3173.5022 -13449.4047 303.1471 -16622.9068 -13441.1639 300.0538 125.1567 292.1917 53882.8339 2.2638 3.2284
ENERGY: 1125000 3.6995 7.7037 16.0380 0.0000 -19161.5566 2664.4729 0.0000 0.0000 3138.3297 -13331.3128 299.7873 -16469.6425 -13326.2676 299.6703 510.6029 629.8029 54003.9864 2.6772 3.0510
ENERGY: 1325000 1.9882 10.3010 15.3074 0.0000 -19193.2655 2562.1566 0.0000 0.0000 3126.0223 -13477.4900 298.6116 -16603.5124 -13472.1197 300.2242 -343.8321 -270.1137 55074.6834 2.3504 2.5682
TCL: Exiting due to exit command.
