Info: SIMULATION PARAMETERS:
Info: TIMESTEP               2
Info: NUMBER OF STEPS        0
Info: STEPS PER CYCLE        10
Info: PERIODIC CELL BASIS 1  43.845 0 0
Info: PERIODIC CELL BASIS 2  0 41.432 0
Info: PERIODIC CELL BASIS 3  0 0 44.966
Info: PERIODIC CELL CENTER   0 0 0
Info: WRAPPING WATERS AROUND PERIODIC BOUNDARIES ON OUTPUT.
Info: WRAPPING ALL CLUSTERS AROUND PERIODIC BOUNDARIES ON OUTPUT.
Info: FIRST LDB TIMESTEP     50
Info: LAST LDB TIMESTEP     -1
Info: HOM BACKGROUND SCALING 1
Info: PME BACKGROUND SCALING 1
Info: MIN ATOMS PER PATCH    40
Info: EMPTY PATCH LOAD       40 ATOMS
Info: INITIAL TEMPERATURE    300
Info: CENTER OF MASS MOVING INITIALLY? NO
Info: DIELECTRIC             1
Info: EXCLUDE                SCALED ONE-FOUR
Info: 1-4 ELECTROSTATICS SCALED BY 0.833333
Info: MODIFIED 1-4 VDW PARAMETERS WILL BE USED
Info: DCD FILENAME           mobley_4375719_min.dcd
Info: DCD FREQUENCY          5000
Info: DCD FIRST STEP         5000
Info: DCD FILE WILL CONTAIN UNIT CELL DATA
Info: XST FILENAME           mobley_4375719_min.xst
Info: XST FREQUENCY          5000
Info: NO VELOCITY DCD OUTPUT
Info: NO FORCE DCD OUTPUT
Info: OUTPUT FILENAME        mobley_4375719_min
Info: BINARY OUTPUT FILES WILL BE USED
Info: RESTART FILENAME       mobley_4375719_min.restart
Info: RESTART FREQUENCY      5000
Info: BINARY RESTART FILES WILL BE USED
Info: CUTOFF                 9
Info: PAIRLIST DISTANCE      11
Info: PAIRLIST SHRINK RATE   0.01
Info: PAIRLIST GROW RATE     0.01
Info: PAIRLIST TRIGGER       0.3
Info: PAIRLISTS PER CYCLE    2
Info: PAIRLISTS ENABLED
Info: MARGIN                 8
Info: HYDROGEN GROUP CUTOFF  2.5
Info: PATCH DIMENSION        21.5
Info: ENERGY OUTPUT STEPS    5000
Info: ENERGY EVALUATION STEPS    5000
Info: OUTPUT ENERGY PRECISION 4
Info: CROSSTERM ENERGY INCLUDED IN DIHEDRAL
Info: TIMING OUTPUT STEPS    50000
Info: PRESSURE OUTPUT STEPS  5000
Info: LANGEVIN DYNAMICS ACTIVE
Info: LANGEVIN TEMPERATURE   300
Info: LANGEVIN USING BBK INTEGRATOR
Info: LANGEVIN DAMPING COEFFICIENT IS 1 INVERSE PS
Info: LANGEVIN DYNAMICS APPLIED TO HYDROGENS
Info: LANGEVIN PISTON PRESSURE CONTROL ACTIVE
Info:        TARGET PRESSURE IS 1.01325 BAR
Info:     OSCILLATION PERIOD IS 50 FS
Info:             DECAY TIME IS 25 FS
Info:     PISTON TEMPERATURE IS 300 K
Info:       PRESSURE CONTROL IS GROUP-BASED
Info:    INITIAL STRAIN RATE IS 0 0 0
Info:       CELL FLUCTUATION IS ISOTROPIC
Info: PARTICLE MESH EWALD (PME) ACTIVE
Info: PME TOLERANCE               1e-06
Info: PME EWALD COEFFICIENT       0.348832
Info: PME INTERPOLATION ORDER     4
Info: PME GRID DIMENSIONS         44 44 48
Info: PME MAXIMUM GRID SPACING    1
Info: FULL ELECTROSTATIC EVALUATION FREQUENCY      2
Info: USING VERLET I (r-RESPA) MTS SCHEME.
Info: C1 SPLITTING OF LONG RANGE ELECTROSTATICS
Info: PLACING ATOMS IN PATCHES BY HYDROGEN GROUPS
Info: RIGID BONDS TO HYDROGEN : ALL
Info:         ERROR TOLERANCE : 1e-08
Info:          MAX ITERATIONS : 100
Info: RIGID WATER USING SETTLE ALGORITHM
Info: RANDOM NUMBER SEED     1741337852
Info: USE HYDROGEN BONDS?    NO
Info: Using AMBER format force field!
Info: AMBER PARM FILE        mobley_4375719.prmtop
Info: COORDINATE PDB         mobley_4375719.pdb
Info: Exclusions will be read from PARM file!
Info: SCNB (VDW SCALING)     2
Info: USING ARITHMETIC MEAN TO COMBINE L-J SIGMA PARAMETERS
Info: SUMMARY OF PARAMETERS:
Info: 4 BONDS
Info: 3 ANGLES
Info:   3 HARMONIC
Info:   0 COSINE-BASED
Info: 3 DIHEDRAL
Info: 0 IMPROPER
Info: 0 CROSSTERM
Info: 0 VDW
Info: 10 VDW_PAIRS
Info: 0 NBTHOLE_PAIRS
Info: STRUCTURE SUMMARY:
Info: 5903 ATOMS
Info: 5902 BONDS
Info: 54 ANGLES
Info: 72 DIHEDRALS
Info: 0 IMPROPERS
Info: 0 CROSSTERMS
Info: 6028 EXCLUSIONS
Info: 5894 RIGID BONDS
Info: 11815 DEGREES OF FREEDOM
Info: 1967 HYDROGEN GROUPS
Info: 4 ATOMS IN LARGEST HYDROGEN GROUP
Info: 1967 MIGRATION GROUPS
Info: 4 ATOMS IN LARGEST MIGRATION GROUP
Info: TOTAL MASS = 35403.6 amu
Info: TOTAL CHARGE = 0 e
Info: MASS DENSITY = 0.719724 g/cm^3
Info: ATOM DENSITY = 0.0722658 atoms/A^3
Info: ADDED 0 IMPLICIT EXCLUSIONS
Info: NONBONDED TABLE R-SQUARED SPACING: 0.0625
Info: NONBONDED TABLE SIZE: 705 POINTS
Info: REMOVING COM VELOCITY -0.0473937 -0.04717 0.0463955
TCL: Minimizing for 2000 steps
ETITLE: TS BOND ANGLE DIHED IMPRP ELECT VDW BOUNDARY MISC KINETIC TOTAL TEMP POTENTIAL TOTAL3 TEMPAVG PRESSURE GPRESSURE VOLUME PRESSAVG GPRESSAVG
ENERGY: 0 0.1566 0.4426 0.0386 0.0000 -18414.7321 2044.7375 0.0000 0.0000 0.0000 -16369.3569 0.0000 -16369.3569 -16369.3569 0.0000 11052.7961 -16103.4399 81684.6079 11052.7961 -16103.4399
ENERGY: 400 2.3860 2.4550 0.0909 0.0000 -24553.4231 3500.1030 0.0000 0.0000 0.0000 -21048.3882 0.0000 -21048.3882 -21048.3882 0.0000 15486.9128 15605.2444 81684.6079 15486.9128 15605.2444
ENERGY: 800 0.4796 0.9894 0.0680 0.0000 -26151.8467 4309.9909 0.0000 0.0000 0.0000 -21840.3189 0.0000 -21840.3189 -21840.3189 0.0000 18628.2800 18751.0928 81684.6079 18628.2800 18751.0928
ENERGY: 1200 0.3652 0.7845 0.0671 0.0000 -26658.7408 4481.5166 0.0000 0.0000 0.0000 -22176.0074 0.0000 -22176.0074 -22176.0074 0.0000 19325.9112 19447.0560 81684.6079 19325.9112 19447.0560
ENERGY: 1600 0.1199 0.8087 0.0674 0.0000 -27012.8081 4653.4304 0.0000 0.0000 0.0000 -22358.3818 0.0000 -22358.3818 -22358.3818 0.0000 20092.8592 20199.9765 81684.6079 20092.8592 20199.9765
ENERGY: 2000 0.2728 0.4580 0.0632 0.0000 -27161.0109 4707.6405 0.0000 0.0000 0.0000 -22452.5763 0.0000 -22452.5763 -22452.5763 0.0000 20332.3202 20444.7783 81684.6079 20332.3202 20444.7783
TCL: Exiting due to exit command.
Info: NAMD 3.0.1 for Linux-x86_64-multicore
Info: Please visit http://www.ks.uiuc.edu/Research/namd/
Info: for updates, documentation, and support information.
Info: Please cite Phillips et al., J. Chem. Phys. 153:044130 (2020) doi:10.1063/5.0014475
Info: in all publications reporting results obtained with NAMD.
Info: Based on Charm++/Converse 80000 for multicore-linux-x86_64-gcc
Info: Built Mon Oct 14 11:11:06 CDT 2024 by dhardy on athine.ks.uiuc.edu
Info: 1 NAMD  3.0.1  Linux-x86_64-multicore  16    k011  z5358697
Info: Running on 16 processors, 1 nodes, 1 physical nodes.
Info: CPU topology information available.
Info: Charm++/Converse parallel runtime startup completed at 0.0099591 s
Info: 1043.45 MB of memory in use based on /proc/self/stat
Info: Configuration file is mobley_4375719_equil.namd
Info: Working in the current directory /srv/scratch/z5358697/prod_prep_5/4375719
TCL: Running 25000 steps at 30 kelvin.
TCL: Suspending until startup complete.
Info: SIMULATION PARAMETERS:
Info: TIMESTEP               2
Info: NUMBER OF STEPS        0
Info: STEPS PER CYCLE        10
Info: PERIODIC CELL BASIS 1  43.845 0 0
Info: PERIODIC CELL BASIS 2  0 41.432 0
Info: PERIODIC CELL BASIS 3  0 0 44.966
Info: PERIODIC CELL CENTER   0 0 0
Info: WRAPPING WATERS AROUND PERIODIC BOUNDARIES ON OUTPUT.
Info: WRAPPING ALL CLUSTERS AROUND PERIODIC BOUNDARIES ON OUTPUT.
Info: FIRST LDB TIMESTEP     50
Info: LAST LDB TIMESTEP     -1
Info: HOM BACKGROUND SCALING 1
Info: PME BACKGROUND SCALING 1
Info: MIN ATOMS PER PATCH    40
Info: EMPTY PATCH LOAD       40 ATOMS
Info: INITIAL TEMPERATURE    300
Info: CENTER OF MASS MOVING INITIALLY? NO
Info: DIELECTRIC             1
Info: EXCLUDE                SCALED ONE-FOUR
Info: 1-4 ELECTROSTATICS SCALED BY 0.833333
Info: MODIFIED 1-4 VDW PARAMETERS WILL BE USED
Info: DCD FILENAME           mobley_4375719_equil.dcd
Info: DCD FREQUENCY          5000
Info: DCD FIRST STEP         5000
Info: DCD FILE WILL CONTAIN UNIT CELL DATA
Info: XST FILENAME           mobley_4375719_equil.xst
Info: XST FREQUENCY          5000
Info: NO VELOCITY DCD OUTPUT
Info: NO FORCE DCD OUTPUT
Info: OUTPUT FILENAME        mobley_4375719_equil
Info: BINARY OUTPUT FILES WILL BE USED
Info: RESTART FILENAME       mobley_4375719_equil.restart
Info: RESTART FREQUENCY      5000
Info: BINARY RESTART FILES WILL BE USED
Info: CUTOFF                 9
Info: PAIRLIST DISTANCE      11
Info: PAIRLIST SHRINK RATE   0.01
Info: PAIRLIST GROW RATE     0.01
Info: PAIRLIST TRIGGER       0.3
Info: PAIRLISTS PER CYCLE    2
Info: PAIRLISTS ENABLED
Info: MARGIN                 8
Info: HYDROGEN GROUP CUTOFF  2.5
Info: PATCH DIMENSION        21.5
Info: ENERGY OUTPUT STEPS    5000
Info: ENERGY EVALUATION STEPS    5000
Info: OUTPUT ENERGY PRECISION 4
Info: CROSSTERM ENERGY INCLUDED IN DIHEDRAL
Info: TIMING OUTPUT STEPS    50000
Info: PRESSURE OUTPUT STEPS  5000
Info: LANGEVIN DYNAMICS ACTIVE
Info: LANGEVIN TEMPERATURE   30
Info: LANGEVIN USING BBK INTEGRATOR
Info: LANGEVIN DAMPING COEFFICIENT IS 1 INVERSE PS
Info: LANGEVIN DYNAMICS APPLIED TO HYDROGENS
Info: LANGEVIN PISTON PRESSURE CONTROL ACTIVE
Info:        TARGET PRESSURE IS 1.01325 BAR
Info:     OSCILLATION PERIOD IS 50 FS
Info:             DECAY TIME IS 25 FS
Info:     PISTON TEMPERATURE IS 300 K
Info:       PRESSURE CONTROL IS GROUP-BASED
Info:    INITIAL STRAIN RATE IS 0 0 0
Info:       CELL FLUCTUATION IS ISOTROPIC
Info: PARTICLE MESH EWALD (PME) ACTIVE
Info: PME TOLERANCE               1e-06
Info: PME EWALD COEFFICIENT       0.348832
Info: PME INTERPOLATION ORDER     4
Info: PME GRID DIMENSIONS         44 44 48
Info: PME MAXIMUM GRID SPACING    1
Info: FULL ELECTROSTATIC EVALUATION FREQUENCY      2
Info: USING VERLET I (r-RESPA) MTS SCHEME.
Info: C1 SPLITTING OF LONG RANGE ELECTROSTATICS
Info: PLACING ATOMS IN PATCHES BY HYDROGEN GROUPS
Info: RIGID BONDS TO HYDROGEN : ALL
Info:         ERROR TOLERANCE : 1e-08
Info:          MAX ITERATIONS : 100
Info: RIGID WATER USING SETTLE ALGORITHM
Info: RANDOM NUMBER SEED     1741337875
Info: USE HYDROGEN BONDS?    NO
Info: Using AMBER format force field!
Info: AMBER PARM FILE        mobley_4375719.prmtop
Info: COORDINATE PDB         mobley_4375719.pdb
Info: Exclusions will be read from PARM file!
Info: SCNB (VDW SCALING)     2
Info: USING ARITHMETIC MEAN TO COMBINE L-J SIGMA PARAMETERS
Info: BINARY COORDINATES     mobley_4375719_min.coor
Info: SUMMARY OF PARAMETERS:
Info: 4 BONDS
Info: 3 ANGLES
Info:   3 HARMONIC
Info:   0 COSINE-BASED
Info: 3 DIHEDRAL
Info: 0 IMPROPER
Info: 0 CROSSTERM
Info: 0 VDW
Info: 10 VDW_PAIRS
Info: 0 NBTHOLE_PAIRS
Info: STRUCTURE SUMMARY:
Info: 5903 ATOMS
Info: 5902 BONDS
Info: 54 ANGLES
Info: 72 DIHEDRALS
Info: 0 IMPROPERS
Info: 0 CROSSTERMS
Info: 6028 EXCLUSIONS
Info: 5894 RIGID BONDS
Info: 11815 DEGREES OF FREEDOM
Info: 1967 HYDROGEN GROUPS
Info: 4 ATOMS IN LARGEST HYDROGEN GROUP
Info: 1967 MIGRATION GROUPS
Info: 4 ATOMS IN LARGEST MIGRATION GROUP
Info: TOTAL MASS = 35403.6 amu
Info: TOTAL CHARGE = 0 e
Info: MASS DENSITY = 0.719724 g/cm^3
Info: ATOM DENSITY = 0.0722658 atoms/A^3
Info: ADDED 0 IMPLICIT EXCLUSIONS
Info: NONBONDED TABLE R-SQUARED SPACING: 0.0625
Info: NONBONDED TABLE SIZE: 705 POINTS
Info: REMOVING COM VELOCITY -0.0982252 -0.0969402 0.14226
TCL: Running for 25000 steps
ETITLE: TS BOND ANGLE DIHED IMPRP ELECT VDW BOUNDARY MISC KINETIC TOTAL TEMP POTENTIAL TOTAL3 TEMPAVG PRESSURE GPRESSURE VOLUME PRESSAVG GPRESSAVG
ENERGY: 0 0.2728 0.4580 0.0632 0.0000 -27161.0109 4707.6405 0.0000 0.0000 3538.8284 -18913.7480 301.4506 -22452.5763 -18913.0300 301.4506 475.8624 514.9886 81684.6079 475.8624 514.9886
ENERGY: 5000 0.5113 1.8767 0.4771 0.0000 -28248.2326 4854.5364 0.0000 0.0000 356.7063 -23034.1249 30.3856 -23390.8312 -23033.3204 47.4211 -146.7414 -81.4930 57302.4413 4.5439 4.5465
ENERGY: 10000 0.2352 1.4825 0.3379 0.0000 -28335.5431 4905.5809 0.0000 0.0000 353.2354 -23074.6710 30.0899 -23427.9065 -23073.8162 30.3284 23.4662 99.2994 57045.0937 4.6075 4.6733
ENERGY: 15000 0.5150 1.3503 0.3458 0.0000 -28228.0071 4764.8593 0.0000 0.0000 361.3427 -23099.5940 30.7805 -23460.9367 -23098.5367 30.1985 -609.3170 -545.1341 57096.5891 3.6635 3.8913
ENERGY: 20000 0.0779 1.5067 0.2758 0.0000 -28293.4933 4814.6501 0.0000 0.0000 362.0161 -23114.9668 30.8379 -23476.9828 -23113.8171 30.0834 -429.7691 -351.5859 57093.3210 0.9418 0.9141
ENERGY: 25000 0.6140 1.6359 0.2093 0.0000 -28383.4059 4896.7564 0.0000 0.0000 350.4874 -23133.7029 29.8558 -23484.1903 -23132.4061 30.0750 -89.3063 -5.7438 56942.2000 1.9896 1.9143
TCL: Running 25000 steps at 60 kelvin.
TCL: Setting parameter langevinTemp to 60
TCL: Running for 25000 steps
ETITLE: TS BOND ANGLE DIHED IMPRP ELECT VDW BOUNDARY MISC KINETIC TOTAL TEMP POTENTIAL TOTAL3 TEMPAVG PRESSURE GPRESSURE VOLUME PRESSAVG GPRESSAVG
ENERGY: 25000 0.6140 1.6359 0.2093 0.0000 -28383.4059 4896.7564 0.0000 0.0000 350.3151 -23133.8751 29.8412 -23484.1903 -23133.1537 29.8412 -75.5236 -5.5177 56942.2000 -75.5236 -5.5177
ENERGY: 30000 0.5447 2.6027 1.3814 0.0000 -27898.8320 4725.4193 0.0000 0.0000 712.4024 -22456.4815 60.6851 -23168.8839 -22455.1369 56.8880 -212.4723 -146.7710 57132.3485 3.0126 3.0361
ENERGY: 35000 0.9671 1.8483 1.5013 0.0000 -27992.2762 4774.7037 0.0000 0.0000 704.5134 -22508.7425 60.0131 -23213.2559 -22506.8641 60.1655 -139.4602 -81.7395 57197.4645 4.0510 4.0314
ENERGY: 40000 1.1417 3.4965 1.3129 0.0000 -27946.8429 4692.1443 0.0000 0.0000 706.3929 -22542.3546 60.1732 -23248.7475 -22539.9621 60.6075 -572.3674 -527.5190 57122.4660 7.7476 7.6566
ENERGY: 45000 0.5077 3.2662 1.5143 0.0000 -28022.8916 4728.9924 0.0000 0.0000 700.8407 -22587.7702 59.7002 -23288.6110 -22585.9141 60.2387 -435.1213 -390.4592 57048.5800 1.4666 1.6177
ENERGY: 50000 0.2621 3.4991 0.6597 0.0000 -28195.1696 4886.7859 0.0000 0.0000 708.2608 -22595.7020 60.3323 -23303.9628 -22593.8779 60.4410 206.2197 270.7767 56709.2619 3.7825 3.4510
TCL: Running 25000 steps at 90 kelvin.
TCL: Setting parameter langevinTemp to 90
TCL: Running for 25000 steps
ETITLE: TS BOND ANGLE DIHED IMPRP ELECT VDW BOUNDARY MISC KINETIC TOTAL TEMP POTENTIAL TOTAL3 TEMPAVG PRESSURE GPRESSURE VOLUME PRESSAVG GPRESSAVG
ENERGY: 50000 0.2621 3.4991 0.6597 0.0000 -28195.1696 4886.7859 0.0000 0.0000 707.9100 -22596.0529 60.3024 -23303.9628 -22594.6921 60.3024 214.2077 270.5916 56709.2619 214.2077 270.5916
ENERGY: 55000 0.5236 4.0393 0.6391 0.0000 -27482.1933 4555.2374 0.0000 0.0000 1055.3503 -21866.4036 89.8987 -22921.7539 -21863.4094 86.9586 -535.5527 -481.0809 57514.1901 3.6512 3.8298
ENERGY: 60000 0.5369 5.2614 0.5233 0.0000 -27745.9559 4760.0261 0.0000 0.0000 1045.7158 -21933.8923 89.0780 -22979.6082 -21930.9645 90.1661 309.5108 320.0055 57198.3670 -0.2736 -0.7943
ENERGY: 65000 0.5352 4.4295 0.8188 0.0000 -27727.1275 4711.2730 0.0000 0.0000 1054.0056 -21956.0653 89.7841 -23010.0709 -21953.4802 89.7941 -61.0018 10.2006 57308.3695 5.1645 5.3834
ENERGY: 70000 0.5684 4.5356 0.6601 0.0000 -27741.1122 4729.3344 0.0000 0.0000 1053.4074 -21952.6063 89.7332 -23006.0138 -21950.0270 90.6345 74.4222 112.5116 57220.0105 1.0178 1.1226
ENERGY: 75000 0.5573 4.7701 0.4004 0.0000 -27780.8611 4749.4268 0.0000 0.0000 1052.1849 -21973.5216 89.6290 -23025.7066 -21971.5756 90.1742 84.1756 136.5215 57294.8197 1.3059 1.1535
TCL: Running 25000 steps at 120 kelvin.
TCL: Setting parameter langevinTemp to 120
TCL: Running for 25000 steps
ETITLE: TS BOND ANGLE DIHED IMPRP ELECT VDW BOUNDARY MISC KINETIC TOTAL TEMP POTENTIAL TOTAL3 TEMPAVG PRESSURE GPRESSURE VOLUME PRESSAVG GPRESSAVG
ENERGY: 75000 0.5573 4.7701 0.4004 0.0000 -27780.8611 4749.4268 0.0000 0.0000 1051.6537 -21974.0529 89.5838 -23025.7066 -21972.1136 89.5838 79.8014 136.5693 57294.8197 79.8014 136.5693
ENERGY: 80000 1.1812 6.0636 0.5226 0.0000 -27223.7368 4554.4442 0.0000 0.0000 1424.8973 -21236.6278 121.3781 -22661.5251 -21233.3310 116.5001 -8.1369 47.7915 57554.5062 3.1153 3.0813
ENERGY: 85000 0.8078 7.8867 1.0537 0.0000 -27440.6497 4723.8610 0.0000 0.0000 1422.4345 -21284.6061 121.1683 -22707.0405 -21281.6634 119.7124 652.5207 700.9805 57385.5378 7.0762 6.7048
ENERGY: 90000 0.2830 6.5734 1.2436 0.0000 -27212.6080 4509.7968 0.0000 0.0000 1402.1678 -21292.5433 119.4419 -22694.7112 -21287.7896 119.7883 -466.4320 -362.8519 57978.0186 7.6352 7.5732
ENERGY: 95000 0.7906 5.6084 0.9236 0.0000 -27238.5190 4499.1002 0.0000 0.0000 1415.7702 -21316.3260 120.6006 -22732.0962 -21312.7823 119.7722 -448.2951 -409.7821 57923.7147 3.6923 3.7598
ENERGY: 100000 1.3493 6.9166 0.6102 0.0000 -27465.3547 4709.2520 0.0000 0.0000 1387.8917 -21359.3349 118.2258 -22747.2265 -21355.3629 119.3415 346.8808 391.9197 57646.8850 -1.5964 -1.5081
TCL: Running 25000 steps at 150 kelvin.
TCL: Setting parameter langevinTemp to 150
TCL: Running for 25000 steps
ETITLE: TS BOND ANGLE DIHED IMPRP ELECT VDW BOUNDARY MISC KINETIC TOTAL TEMP POTENTIAL TOTAL3 TEMPAVG PRESSURE GPRESSURE VOLUME PRESSAVG GPRESSAVG
ENERGY: 100000 1.3493 6.9166 0.6102 0.0000 -27465.3547 4709.2520 0.0000 0.0000 1387.1940 -21360.0326 118.1664 -22747.2265 -21357.3538 118.1664 337.0368 392.1713 57646.8850 337.0368 392.1713
ENERGY: 105000 2.4158 7.6481 1.2808 0.0000 -26528.1845 4243.6235 0.0000 0.0000 1756.7094 -20516.5069 149.6431 -22273.2163 -20512.4541 146.4588 -837.4906 -788.9752 58405.6820 -0.0524 0.0449
ENERGY: 110000 1.3834 6.4610 0.8324 0.0000 -26711.0447 4370.3907 0.0000 0.0000 1765.1929 -20566.7842 150.3657 -22331.9771 -20563.5091 150.2490 -192.3234 -156.6079 57738.6004 3.7053 3.3133
ENERGY: 115000 0.4989 3.8388 1.0401 0.0000 -26684.0694 4326.3733 0.0000 0.0000 1766.0350 -20586.2834 150.4375 -22352.3184 -20582.6661 151.3303 -404.0629 -326.1343 57570.6095 2.5473 2.4637
ENERGY: 120000 0.7167 7.8915 0.6647 0.0000 -26792.9295 4361.2781 0.0000 0.0000 1774.9268 -20647.4517 151.1949 -22422.3785 -20643.1747 149.4204 -397.4740 -371.8757 57928.7943 5.2782 4.8669
ENERGY: 125000 0.9530 7.4308 0.9101 0.0000 -27084.8952 4667.3354 0.0000 0.0000 1782.5272 -20625.7388 151.8423 -22408.2660 -20621.0941 150.4719 885.6263 897.0234 57475.5870 6.6211 7.0937
TCL: Running 50000 steps at 180 kelvin.
TCL: Setting parameter langevinTemp to 180
TCL: Running for 50000 steps
ETITLE: TS BOND ANGLE DIHED IMPRP ELECT VDW BOUNDARY MISC KINETIC TOTAL TEMP POTENTIAL TOTAL3 TEMPAVG PRESSURE GPRESSURE VOLUME PRESSAVG GPRESSAVG
ENERGY: 125000 0.9530 7.4308 0.9101 0.0000 -27084.8952 4667.3354 0.0000 0.0000 1781.6454 -20626.6206 151.7672 -22408.2660 -20623.2133 151.7672 849.4366 896.8790 57475.5870 849.4366 896.8790
ENERGY: 135000 3.1536 8.0390 1.6178 0.0000 -26153.9109 4246.3708 0.0000 0.0000 2094.5637 -19800.1659 178.4228 -21894.7297 -19796.1458 180.2725 25.3642 74.6467 57837.5579 2.8677 3.0177
ENERGY: 145000 2.2157 11.6615 1.1906 0.0000 -26003.2823 4145.1243 0.0000 0.0000 2097.5492 -19745.5410 178.6771 -21843.0902 -19742.9269 181.5062 -387.4710 -330.6863 58327.0920 -1.7833 -1.6808
ENERGY: 155000 1.6787 7.3152 1.8887 0.0000 -26204.0246 4254.9707 0.0000 0.0000 2106.8268 -19831.3446 179.4674 -21938.1713 -19827.7770 180.4976 -57.6436 15.0236 58080.4166 3.5974 3.0776
ENERGY: 165000 2.0256 7.7299 1.0370 0.0000 -26104.6106 4213.3556 0.0000 0.0000 2104.8626 -19775.5999 179.3000 -21880.4625 -19770.7302 180.1767 77.5004 118.0186 57438.3126 0.0699 0.2639
ENERGY: 175000 0.7964 7.2291 0.8106 0.0000 -26210.1714 4288.6780 0.0000 0.0000 2091.5164 -19821.1409 178.1632 -21912.6573 -19816.0386 179.2471 370.7600 429.7928 57326.4962 -3.7436 -3.9287
TCL: Running 50000 steps at 210 kelvin.
TCL: Setting parameter langevinTemp to 210
TCL: Running for 50000 steps
ETITLE: TS BOND ANGLE DIHED IMPRP ELECT VDW BOUNDARY MISC KINETIC TOTAL TEMP POTENTIAL TOTAL3 TEMPAVG PRESSURE GPRESSURE VOLUME PRESSAVG GPRESSAVG
ENERGY: 175000 0.7964 7.2291 0.8106 0.0000 -26210.1714 4288.6780 0.0000 0.0000 2090.4630 -19822.1943 178.0734 -21912.6573 -19818.0289 178.0734 371.0256 430.5748 57326.4962 371.0256 430.5748
ENERGY: 185000 2.6673 8.5414 0.7686 0.0000 -24806.1372 3806.7323 0.0000 0.0000 2475.6112 -18511.8163 210.8818 -20987.4275 -18508.4580 209.0806 143.7978 202.6891 57323.3366 -1.8459 -1.8531
ENERGY: 195000 1.5699 6.9176 0.6489 0.0000 -24481.3683 3536.9646 0.0000 0.0000 2466.9463 -18468.3210 210.1437 -20935.2673 -18461.8295 209.5839 -744.7085 -667.4575 57113.3549 4.1188 3.5855
ENERGY: 205000 0.9121 13.2625 1.9306 0.0000 -24638.4151 3690.2274 0.0000 0.0000 2464.7040 -18467.3785 209.9527 -20932.0825 -18464.3700 211.3476 -306.0883 -220.2103 57457.1356 -1.2213 -1.5418
ENERGY: 215000 3.2204 9.3945 2.2908 0.0000 -24743.5677 3690.6270 0.0000 0.0000 2487.5826 -18550.4524 211.9016 -21038.0349 -18544.8940 209.1118 -535.5303 -443.5099 57446.1348 2.9192 2.6795
ENERGY: 225000 2.0905 5.0086 1.3799 0.0000 -24895.9273 3828.9626 0.0000 0.0000 2453.7014 -18604.7844 209.0154 -21058.4857 -18596.0326 209.7020 157.7349 197.9310 57308.4238 1.6421 1.8955
TCL: Running 50000 steps at 240 kelvin.
TCL: Setting parameter langevinTemp to 240
TCL: Running for 50000 steps
ETITLE: TS BOND ANGLE DIHED IMPRP ELECT VDW BOUNDARY MISC KINETIC TOTAL TEMP POTENTIAL TOTAL3 TEMPAVG PRESSURE GPRESSURE VOLUME PRESSAVG GPRESSAVG
ENERGY: 225000 2.0905 5.0086 1.3799 0.0000 -24895.9273 3828.9626 0.0000 0.0000 2452.4903 -18605.9954 208.9123 -21058.4857 -18601.4297 208.9123 128.0556 199.1158 57308.4238 128.0556 199.1158
ENERGY: 235000 3.7058 10.7394 0.9560 0.0000 -23649.7516 3440.4084 0.0000 0.0000 2757.0562 -17436.8858 234.8563 -20193.9420 -17431.5961 239.3070 -113.5344 -23.2694 58236.5449 1.8648 1.7888
ENERGY: 245000 3.7623 12.1710 1.4027 0.0000 -23417.1989 3254.2013 0.0000 0.0000 2811.5941 -17334.0676 239.5021 -20145.6616 -17327.2631 241.5639 -901.2686 -732.8299 58260.7767 3.1219 2.9357
ENERGY: 255000 2.0193 11.4034 2.7553 0.0000 -23495.8070 3397.0155 0.0000 0.0000 2860.0399 -17222.5737 243.6289 -20082.6136 -17217.0728 239.3864 -3.7286 74.3732 58015.8726 2.3476 2.0455
ENERGY: 265000 0.6211 9.8847 2.0830 0.0000 -23549.0130 3424.7058 0.0000 0.0000 2721.6693 -17390.0492 231.8419 -20111.7185 -17383.2986 240.6298 223.0476 293.8370 57378.4187 2.5239 2.5017
ENERGY: 275000 3.0349 11.2730 1.6283 0.0000 -23534.6690 3381.3215 0.0000 0.0000 2847.6056 -17289.8057 242.5697 -20137.4113 -17283.3558 240.2507 -332.5689 -279.3935 58100.7910 3.8678 3.8768
TCL: Running 50000 steps at 270 kelvin.
TCL: Setting parameter langevinTemp to 270
TCL: Running for 50000 steps
ETITLE: TS BOND ANGLE DIHED IMPRP ELECT VDW BOUNDARY MISC KINETIC TOTAL TEMP POTENTIAL TOTAL3 TEMPAVG PRESSURE GPRESSURE VOLUME PRESSAVG GPRESSAVG
ENERGY: 275000 3.0349 11.2730 1.6283 0.0000 -23534.6690 3381.3215 0.0000 0.0000 2846.2193 -17291.1920 242.4516 -20137.4113 -17286.0575 242.4516 -376.5583 -279.6190 58100.7910 -376.5583 -279.6190
ENERGY: 285000 2.7667 13.1229 1.3725 0.0000 -22501.1637 3197.6451 0.0000 0.0000 3212.8740 -16073.3825 273.6846 -19286.2565 -16069.3062 271.9087 166.6429 305.8146 59363.3550 0.4731 0.3340
ENERGY: 295000 3.2311 13.5413 1.6490 0.0000 -22207.3478 2973.2704 0.0000 0.0000 3220.9159 -15994.7401 274.3696 -19215.6560 -15987.2456 271.5207 -570.1749 -502.9637 59272.5451 5.1670 4.8980
ENERGY: 305000 3.6574 14.4418 2.1209 0.0000 -22495.8236 3250.6894 0.0000 0.0000 3186.5954 -16038.3187 271.4461 -19224.9141 -16029.8447 271.0247 447.2996 562.7951 59374.7007 0.8778 0.6029
ENERGY: 315000 1.8380 15.0178 4.4535 0.0000 -22267.2792 2956.8536 0.0000 0.0000 3108.5567 -16180.5596 264.7985 -19289.1163 -16176.5830 270.1711 -538.0075 -482.5894 58905.6401 1.6856 1.9871
ENERGY: 325000 0.4378 10.3589 1.0031 0.0000 -22491.7432 3167.6207 0.0000 0.0000 3164.1135 -16148.2092 269.5310 -19312.3227 -16140.5595 271.5610 72.3938 179.2185 59169.7633 2.4572 2.3359
TCL: Running 1000000 steps at 300 kelvin.
TCL: Setting parameter langevinTemp to 300
TCL: Running for 1000000 steps
ETITLE: TS BOND ANGLE DIHED IMPRP ELECT VDW BOUNDARY MISC KINETIC TOTAL TEMP POTENTIAL TOTAL3 TEMPAVG PRESSURE GPRESSURE VOLUME PRESSAVG GPRESSAVG
ENERGY: 325000 0.4378 10.3589 1.0031 0.0000 -22491.7432 3167.6207 0.0000 0.0000 3162.5236 -16149.7991 269.3956 -19312.3227 -16145.0946 269.3956 94.0531 179.3054 59169.7633 94.0531 179.3054
ENERGY: 525000 1.4517 17.3063 3.3848 0.0000 -21270.2689 2902.7194 0.0000 0.0000 3499.7291 -14845.6776 298.1200 -18345.4067 -14838.6329 301.4452 316.5278 360.8241 61048.2715 4.0351 3.9311
ENERGY: 725000 3.3012 8.5915 1.4347 0.0000 -21353.4974 2891.6356 0.0000 0.0000 3515.5599 -14932.9745 299.4685 -18448.5343 -14925.5979 300.8190 28.3171 96.6369 61127.5806 2.2760 2.5781
ENERGY: 925000 3.0479 10.0768 2.2491 0.0000 -21187.6037 2707.1932 0.0000 0.0000 3544.9754 -14920.0613 301.9742 -18465.0367 -14911.3351 301.5536 -716.5439 -646.4367 61185.6317 4.4900 4.2333
ENERGY: 1125000 2.8091 14.7835 2.5851 0.0000 -21374.7632 2850.2445 0.0000 0.0000 3562.9610 -14941.3801 303.5063 -18504.3411 -14937.2713 303.0719 -190.9101 -117.1543 60997.3080 6.2661 5.8807
ENERGY: 1325000 4.6731 11.9168 2.9028 0.0000 -21280.8728 2830.0303 0.0000 0.0000 3437.7192 -14993.6306 292.8377 -18431.3498 -14989.3234 300.2710 -67.3400 -24.3636 60806.6412 -1.2339 -0.4429
TCL: Exiting due to exit command.
