Info: SIMULATION PARAMETERS:
Info: TIMESTEP               2
Info: NUMBER OF STEPS        0
Info: STEPS PER CYCLE        10
Info: PERIODIC CELL BASIS 1  36.005 0 0
Info: PERIODIC CELL BASIS 2  0 34.1 0
Info: PERIODIC CELL BASIS 3  0 0 35.856
Info: PERIODIC CELL CENTER   0 0 0
Info: WRAPPING WATERS AROUND PERIODIC BOUNDARIES ON OUTPUT.
Info: WRAPPING ALL CLUSTERS AROUND PERIODIC BOUNDARIES ON OUTPUT.
Info: FIRST LDB TIMESTEP     50
Info: LAST LDB TIMESTEP     -1
Info: HOM BACKGROUND SCALING 1
Info: PME BACKGROUND SCALING 1
Info: MIN ATOMS PER PATCH    40
Info: EMPTY PATCH LOAD       40 ATOMS
Info: INITIAL TEMPERATURE    300
Info: CENTER OF MASS MOVING INITIALLY? NO
Info: DIELECTRIC             1
Info: EXCLUDE                SCALED ONE-FOUR
Info: 1-4 ELECTROSTATICS SCALED BY 0.833333
Info: MODIFIED 1-4 VDW PARAMETERS WILL BE USED
Info: DCD FILENAME           mobley_2689721_equil.dcd
Info: DCD FREQUENCY          100000
Info: DCD FIRST STEP         100000
Info: DCD FILE WILL CONTAIN UNIT CELL DATA
Info: XST FILENAME           mobley_2689721_equil.xst
Info: XST FREQUENCY          100000
Info: NO VELOCITY DCD OUTPUT
Info: NO FORCE DCD OUTPUT
Info: OUTPUT FILENAME        mobley_2689721_equil
Info: BINARY OUTPUT FILES WILL BE USED
Info: RESTART FILENAME       mobley_2689721_equil.restart
Info: RESTART FREQUENCY      100000
Info: BINARY RESTART FILES WILL BE USED
Info: CUTOFF                 9
Info: PAIRLIST DISTANCE      11
Info: PAIRLIST SHRINK RATE   0.01
Info: PAIRLIST GROW RATE     0.01
Info: PAIRLIST TRIGGER       0.3
Info: PAIRLISTS PER CYCLE    2
Info: PAIRLISTS ENABLED
Info: MARGIN                 8
Info: HYDROGEN GROUP CUTOFF  2.5
Info: PATCH DIMENSION        21.5
Info: ENERGY OUTPUT STEPS    100000
Info: ENERGY EVALUATION STEPS    100000
Info: OUTPUT ENERGY PRECISION 4
Info: CROSSTERM ENERGY INCLUDED IN DIHEDRAL
Info: TIMING OUTPUT STEPS    1000000
Info: PRESSURE OUTPUT STEPS  100000
Info: FIXED ATOMS ACTIVE
Info: LANGEVIN DYNAMICS ACTIVE
Info: LANGEVIN TEMPERATURE   30
Info: LANGEVIN USING BBK INTEGRATOR
Info: LANGEVIN DAMPING COEFFICIENT IS 1 INVERSE PS
Info: LANGEVIN DYNAMICS APPLIED TO HYDROGENS
Info: LANGEVIN PISTON PRESSURE CONTROL ACTIVE
Info:        TARGET PRESSURE IS 1.01325 BAR
Info:     OSCILLATION PERIOD IS 50 FS
Info:             DECAY TIME IS 25 FS
Info:     PISTON TEMPERATURE IS 300 K
Info:       PRESSURE CONTROL IS GROUP-BASED
Info:    INITIAL STRAIN RATE IS 0 0 0
Info:       CELL FLUCTUATION IS ISOTROPIC
Info: PARTICLE MESH EWALD (PME) ACTIVE
Info: PME TOLERANCE               1e-06
Info: PME EWALD COEFFICIENT       0.348832
Info: PME INTERPOLATION ORDER     4
Info: PME GRID DIMENSIONS         40 36 36
Info: PME MAXIMUM GRID SPACING    1
Info: FULL ELECTROSTATIC EVALUATION FREQUENCY      2
Info: USING VERLET I (r-RESPA) MTS SCHEME.
Info: C1 SPLITTING OF LONG RANGE ELECTROSTATICS
Info: PLACING ATOMS IN PATCHES BY HYDROGEN GROUPS
Info: RIGID BONDS TO HYDROGEN : ALL
Info:         ERROR TOLERANCE : 1e-08
Info:          MAX ITERATIONS : 100
Info: RIGID WATER USING SETTLE ALGORITHM
Info: RANDOM NUMBER SEED     1742333965
Info: USE HYDROGEN BONDS?    NO
Info: Using AMBER format force field!
Info: AMBER PARM FILE        mobley_2689721.prmtop
Info: COORDINATE PDB         mobley_2689721.pdb
Info: Exclusions will be read from PARM file!
Info: SCNB (VDW SCALING)     2
Info: USING ARITHMETIC MEAN TO COMBINE L-J SIGMA PARAMETERS
Info: BINARY COORDINATES     mobley_2689721_min.coor
Info: SUMMARY OF PARAMETERS:
Info: 4 BONDS
Info: 3 ANGLES
Info:   3 HARMONIC
Info:   0 COSINE-BASED
Info: 3 DIHEDRAL
Info: 0 IMPROPER
Info: 0 CROSSTERM
Info: 0 VDW
Info: 10 VDW_PAIRS
Info: 0 NBTHOLE_PAIRS
Info: STRUCTURE SUMMARY:
Info: 2904 ATOMS
Info: 2904 BONDS
Info: 36 ANGLES
Info: 54 DIHEDRALS
Info: 0 IMPROPERS
Info: 0 CROSSTERMS
Info: 2991 EXCLUSIONS
Info: 18 FIXED ATOMS
Info: 2898 RIGID BONDS
Info: 12 RIGID BONDS BETWEEN FIXED ATOMS
Info: 5772 DEGREES OF FREEDOM
Info: 968 HYDROGEN GROUPS
Info: 3 ATOMS IN LARGEST HYDROGEN GROUP
Info: 968 MIGRATION GROUPS
Info: 3 ATOMS IN LARGEST MIGRATION GROUP
Info: 6 HYDROGEN GROUPS WITH ALL ATOMS FIXED
Info: TOTAL MASS = 17415.5 amu
Info: TOTAL CHARGE = 0.000499971 e
Info: MASS DENSITY = 0.656927 g/cm^3
Info: ATOM DENSITY = 0.0659656 atoms/A^3
Info: ADDED 0 IMPLICIT EXCLUSIONS
Info: NONBONDED TABLE R-SQUARED SPACING: 0.0625
Info: NONBONDED TABLE SIZE: 705 POINTS
Info: REMOVING COM VELOCITY -0.157316 0.0816138 0.0264303
TCL: Running for 100000 steps
ETITLE: TS BOND ANGLE DIHED IMPRP ELECT VDW BOUNDARY MISC KINETIC TOTAL TEMP POTENTIAL TOTAL3 TEMPAVG PRESSURE GPRESSURE VOLUME PRESSAVG GPRESSAVG
ENERGY: 0 0.0000 0.0000 0.0000 0.0000 -13410.9584 2373.3071 0.0000 0.0000 1722.5754 -9315.0760 300.3601 -11037.6513 -9314.7378 300.3601 555.3509 587.4075 44022.9390 555.3509 587.4075
ENERGY: 100000 0.0000 0.0000 0.0000 0.0000 -13819.8609 2323.7201 0.0000 0.0000 174.4556 -11321.6853 30.4193 -11496.1409 -11321.1768 30.8137 -834.9781 -779.7147 29009.1352 3.5975 3.5781
TCL: Running 100000 steps at 60 kelvin.
TCL: Setting parameter langevinTemp to 60
TCL: Running for 100000 steps
ETITLE: TS BOND ANGLE DIHED IMPRP ELECT VDW BOUNDARY MISC KINETIC TOTAL TEMP POTENTIAL TOTAL3 TEMPAVG PRESSURE GPRESSURE VOLUME PRESSAVG GPRESSAVG
ENERGY: 100000 0.0000 0.0000 0.0000 0.0000 -13819.8609 2323.7201 0.0000 0.0000 174.3720 -11321.7688 30.4047 -11496.1409 -11321.3527 30.4047 -830.9378 -779.8744 29009.1352 -830.9378 -779.8744
ENERGY: 200000 0.0000 0.0000 0.0000 0.0000 -13729.5602 2310.1074 0.0000 0.0000 343.6380 -11075.8148 59.9191 -11419.4528 -11074.8900 59.8990 -538.0290 -474.6236 28660.6007 3.8820 3.8832
TCL: Running 100000 steps at 90 kelvin.
TCL: Setting parameter langevinTemp to 90
TCL: Running for 100000 steps
ETITLE: TS BOND ANGLE DIHED IMPRP ELECT VDW BOUNDARY MISC KINETIC TOTAL TEMP POTENTIAL TOTAL3 TEMPAVG PRESSURE GPRESSURE VOLUME PRESSAVG GPRESSAVG
ENERGY: 200000 0.0000 0.0000 0.0000 0.0000 -13729.5602 2310.1074 0.0000 0.0000 343.4658 -11075.9870 59.8891 -11419.4528 -11075.2350 59.8891 -528.4334 -474.8976 28660.6007 -528.4334 -474.8976
ENERGY: 300000 0.0000 0.0000 0.0000 0.0000 -13868.1109 2478.3379 0.0000 0.0000 517.6673 -10872.1056 90.2641 -11389.7729 -10870.4174 90.1746 996.4085 1070.0575 28131.0447 3.9191 3.8703
TCL: Running 100000 steps at 120 kelvin.
TCL: Setting parameter langevinTemp to 120
TCL: Running for 100000 steps
ETITLE: TS BOND ANGLE DIHED IMPRP ELECT VDW BOUNDARY MISC KINETIC TOTAL TEMP POTENTIAL TOTAL3 TEMPAVG PRESSURE GPRESSURE VOLUME PRESSAVG GPRESSAVG
ENERGY: 300000 0.0000 0.0000 0.0000 0.0000 -13868.1109 2478.3379 0.0000 0.0000 517.3941 -10872.3788 90.2164 -11389.7729 -10871.3208 90.2164 1022.9796 1070.7367 28131.0447 1022.9796 1070.7367
ENERGY: 400000 0.0000 0.0000 0.0000 0.0000 -13467.9648 2209.6938 0.0000 0.0000 705.3704 -10552.9007 122.9932 -11258.2711 -10551.1518 119.8662 -837.6548 -780.9521 28507.4246 3.7788 3.8471
TCL: Running 100000 steps at 150 kelvin.
TCL: Setting parameter langevinTemp to 150
TCL: Running for 100000 steps
ETITLE: TS BOND ANGLE DIHED IMPRP ELECT VDW BOUNDARY MISC KINETIC TOTAL TEMP POTENTIAL TOTAL3 TEMPAVG PRESSURE GPRESSURE VOLUME PRESSAVG GPRESSAVG
ENERGY: 400000 0.0000 0.0000 0.0000 0.0000 -13467.9648 2209.6938 0.0000 0.0000 705.0278 -10553.2433 122.9335 -11258.2711 -10552.0946 122.9335 -828.5723 -780.6332 28507.4246 -828.5723 -780.6332
ENERGY: 500000 0.0000 0.0000 0.0000 0.0000 -13232.4933 2128.6851 0.0000 0.0000 870.4872 -10233.3209 151.7842 -11103.8081 -10230.4412 150.3873 -926.9510 -908.1643 28705.3694 3.7998 3.7155
TCL: Running 100000 steps at 180 kelvin.
TCL: Setting parameter langevinTemp to 180
TCL: Running for 100000 steps
ETITLE: TS BOND ANGLE DIHED IMPRP ELECT VDW BOUNDARY MISC KINETIC TOTAL TEMP POTENTIAL TOTAL3 TEMPAVG PRESSURE GPRESSURE VOLUME PRESSAVG GPRESSAVG
ENERGY: 500000 0.0000 0.0000 0.0000 0.0000 -13232.4933 2128.6851 0.0000 0.0000 870.0413 -10233.7668 151.7064 -11103.8081 -10232.3546 151.7064 -968.8649 -908.0568 28705.3694 -968.8649 -908.0568
ENERGY: 600000 0.0000 0.0000 0.0000 0.0000 -12805.0875 1974.9952 0.0000 0.0000 1028.8540 -9801.2383 179.3981 -10830.0923 -9798.7196 179.5591 -1266.6656 -1178.5488 28945.9413 3.2818 3.2500
TCL: Running 100000 steps at 210 kelvin.
TCL: Setting parameter langevinTemp to 210
TCL: Running for 100000 steps
ETITLE: TS BOND ANGLE DIHED IMPRP ELECT VDW BOUNDARY MISC KINETIC TOTAL TEMP POTENTIAL TOTAL3 TEMPAVG PRESSURE GPRESSURE VOLUME PRESSAVG GPRESSAVG
ENERGY: 600000 0.0000 0.0000 0.0000 0.0000 -12805.0875 1974.9952 0.0000 0.0000 1028.3429 -9801.7494 179.3090 -10830.0923 -9799.1111 179.3090 -1245.7585 -1179.2713 28945.9413 -1245.7585 -1179.2713
ENERGY: 700000 0.0000 0.0000 0.0000 0.0000 -12287.1184 1936.2392 0.0000 0.0000 1182.6356 -9168.2436 206.2125 -10350.8792 -9166.2549 209.7113 474.3910 556.1371 28407.5776 3.4553 3.4545
TCL: Running 100000 steps at 240 kelvin.
TCL: Setting parameter langevinTemp to 240
TCL: Running for 100000 steps
ETITLE: TS BOND ANGLE DIHED IMPRP ELECT VDW BOUNDARY MISC KINETIC TOTAL TEMP POTENTIAL TOTAL3 TEMPAVG PRESSURE GPRESSURE VOLUME PRESSAVG GPRESSAVG
ENERGY: 700000 0.0000 0.0000 0.0000 0.0000 -12287.1184 1936.2392 0.0000 0.0000 1182.0159 -9168.8633 206.1045 -10350.8792 -9167.1108 206.1045 479.2607 553.9986 28407.5776 479.2607 553.9986
ENERGY: 800000 0.0000 0.0000 0.0000 0.0000 -11592.2495 1673.1689 0.0000 0.0000 1394.1816 -8524.8991 243.0991 -9919.0806 -8521.1089 239.3400 -76.4441 -20.0705 28432.1383 3.4195 3.3616
TCL: Running 100000 steps at 270 kelvin.
TCL: Setting parameter langevinTemp to 270
TCL: Running for 100000 steps
ETITLE: TS BOND ANGLE DIHED IMPRP ELECT VDW BOUNDARY MISC KINETIC TOTAL TEMP POTENTIAL TOTAL3 TEMPAVG PRESSURE GPRESSURE VOLUME PRESSAVG GPRESSAVG
ENERGY: 800000 0.0000 0.0000 0.0000 0.0000 -11592.2495 1673.1689 0.0000 0.0000 1393.4892 -8525.5915 242.9784 -9919.0806 -8523.0614 242.9784 -102.4546 -20.1421 28432.1383 -102.4546 -20.1421
ENERGY: 900000 0.0000 0.0000 0.0000 0.0000 -11092.8516 1619.1374 0.0000 0.0000 1526.0169 -7947.6973 266.0868 -9473.7142 -7945.1471 270.0607 704.3942 794.8530 29135.5286 4.2637 4.2191
TCL: Running 1000000 steps at 300 kelvin.
TCL: Setting parameter langevinTemp to 300
TCL: Running for 1000000 steps
ETITLE: TS BOND ANGLE DIHED IMPRP ELECT VDW BOUNDARY MISC KINETIC TOTAL TEMP POTENTIAL TOTAL3 TEMPAVG PRESSURE GPRESSURE VOLUME PRESSAVG GPRESSAVG
ENERGY: 900000 0.0000 0.0000 0.0000 0.0000 -11092.8516 1619.1374 0.0000 0.0000 1525.2414 -7948.4728 265.9516 -9473.7142 -7946.6069 265.9516 706.4722 796.1020 29135.5286 706.4722 796.1020
ENERGY: 1100000 0.0000 0.0000 0.0000 0.0000 -10378.9208 1345.8859 0.0000 0.0000 1728.0955 -7304.9394 301.3227 -9033.0350 -7303.9181 300.6643 -628.7877 -500.7241 30317.0915 3.7852 3.7852
ENERGY: 1300000 0.0000 0.0000 0.0000 0.0000 -10548.6604 1457.8728 0.0000 0.0000 1716.7865 -7374.0011 299.3508 -9090.7876 -7371.9112 300.8162 173.7457 273.7169 29984.5932 2.4849 2.3586
ENERGY: 1500000 0.0000 0.0000 0.0000 0.0000 -10596.6225 1441.1417 0.0000 0.0000 1671.4812 -7483.9996 291.4510 -9155.4808 -7482.1530 300.6642 7.3895 131.7179 29815.5580 2.7398 2.7286
ENERGY: 1700000 0.0000 0.0000 0.0000 0.0000 -10611.1076 1486.7847 0.0000 0.0000 1716.2594 -7408.0634 299.2588 -9124.3228 -7402.5247 300.3423 697.2313 760.6151 29619.2791 3.3972 3.4478
ENERGY: 1900000 0.0000 0.0000 0.0000 0.0000 -10409.6568 1308.8783 0.0000 0.0000 1782.8227 -7317.9558 310.8653 -9100.7785 -7314.6388 300.3223 -1052.3343 -975.6602 30402.9479 3.3277 3.4535
TCL: Exiting due to exit command.
