Info: SIMULATION PARAMETERS:
Info: TIMESTEP               2
Info: NUMBER OF STEPS        0
Info: STEPS PER CYCLE        10
Info: PERIODIC CELL BASIS 1  44.537 0 0
Info: PERIODIC CELL BASIS 2  0 40.459 0
Info: PERIODIC CELL BASIS 3  0 0 39.271
Info: PERIODIC CELL CENTER   0 0 0
Info: WRAPPING WATERS AROUND PERIODIC BOUNDARIES ON OUTPUT.
Info: WRAPPING ALL CLUSTERS AROUND PERIODIC BOUNDARIES ON OUTPUT.
Info: FIRST LDB TIMESTEP     50
Info: LAST LDB TIMESTEP     -1
Info: HOM BACKGROUND SCALING 1
Info: PME BACKGROUND SCALING 1
Info: MIN ATOMS PER PATCH    40
Info: EMPTY PATCH LOAD       40 ATOMS
Info: INITIAL TEMPERATURE    300
Info: CENTER OF MASS MOVING INITIALLY? NO
Info: DIELECTRIC             1
Info: EXCLUDE                SCALED ONE-FOUR
Info: 1-4 ELECTROSTATICS SCALED BY 0.833333
Info: MODIFIED 1-4 VDW PARAMETERS WILL BE USED
Info: DCD FILENAME           mobley_2364370_min.dcd
Info: DCD FREQUENCY          5000
Info: DCD FIRST STEP         5000
Info: DCD FILE WILL CONTAIN UNIT CELL DATA
Info: XST FILENAME           mobley_2364370_min.xst
Info: XST FREQUENCY          5000
Info: NO VELOCITY DCD OUTPUT
Info: NO FORCE DCD OUTPUT
Info: OUTPUT FILENAME        mobley_2364370_min
Info: BINARY OUTPUT FILES WILL BE USED
Info: RESTART FILENAME       mobley_2364370_min.restart
Info: RESTART FREQUENCY      5000
Info: BINARY RESTART FILES WILL BE USED
Info: CUTOFF                 9
Info: PAIRLIST DISTANCE      11
Info: PAIRLIST SHRINK RATE   0.01
Info: PAIRLIST GROW RATE     0.01
Info: PAIRLIST TRIGGER       0.3
Info: PAIRLISTS PER CYCLE    2
Info: PAIRLISTS ENABLED
Info: MARGIN                 8
Info: HYDROGEN GROUP CUTOFF  2.5
Info: PATCH DIMENSION        21.5
Info: ENERGY OUTPUT STEPS    5000
Info: ENERGY EVALUATION STEPS    5000
Info: OUTPUT ENERGY PRECISION 4
Info: CROSSTERM ENERGY INCLUDED IN DIHEDRAL
Info: TIMING OUTPUT STEPS    50000
Info: PRESSURE OUTPUT STEPS  5000
Info: LANGEVIN DYNAMICS ACTIVE
Info: LANGEVIN TEMPERATURE   300
Info: LANGEVIN USING BBK INTEGRATOR
Info: LANGEVIN DAMPING COEFFICIENT IS 1 INVERSE PS
Info: LANGEVIN DYNAMICS APPLIED TO HYDROGENS
Info: LANGEVIN PISTON PRESSURE CONTROL ACTIVE
Info:        TARGET PRESSURE IS 1.01325 BAR
Info:     OSCILLATION PERIOD IS 50 FS
Info:             DECAY TIME IS 25 FS
Info:     PISTON TEMPERATURE IS 300 K
Info:       PRESSURE CONTROL IS GROUP-BASED
Info:    INITIAL STRAIN RATE IS 0 0 0
Info:       CELL FLUCTUATION IS ISOTROPIC
Info: PARTICLE MESH EWALD (PME) ACTIVE
Info: PME TOLERANCE               1e-06
Info: PME EWALD COEFFICIENT       0.348832
Info: PME INTERPOLATION ORDER     4
Info: PME GRID DIMENSIONS         48 44 40
Info: PME MAXIMUM GRID SPACING    1
Info: FULL ELECTROSTATIC EVALUATION FREQUENCY      2
Info: USING VERLET I (r-RESPA) MTS SCHEME.
Info: C1 SPLITTING OF LONG RANGE ELECTROSTATICS
Info: PLACING ATOMS IN PATCHES BY HYDROGEN GROUPS
Info: RIGID BONDS TO HYDROGEN : ALL
Info:         ERROR TOLERANCE : 1e-08
Info:          MAX ITERATIONS : 100
Info: RIGID WATER USING SETTLE ALGORITHM
Info: RANDOM NUMBER SEED     1741320001
Info: USE HYDROGEN BONDS?    NO
Info: Using AMBER format force field!
Info: AMBER PARM FILE        mobley_2364370.prmtop
Info: COORDINATE PDB         mobley_2364370.pdb
Info: Exclusions will be read from PARM file!
Info: SCNB (VDW SCALING)     2
Info: USING ARITHMETIC MEAN TO COMBINE L-J SIGMA PARAMETERS
Info: SUMMARY OF PARAMETERS:
Info: 9 BONDS
Info: 12 ANGLES
Info:   12 HARMONIC
Info:   0 COSINE-BASED
Info: 18 DIHEDRAL
Info: 0 IMPROPER
Info: 0 CROSSTERM
Info: 0 VDW
Info: 36 VDW_PAIRS
Info: 0 NBTHOLE_PAIRS
Info: STRUCTURE SUMMARY:
Info: 5093 ATOMS
Info: 5092 BONDS
Info: 34 ANGLES
Info: 48 DIHEDRALS
Info: 0 IMPROPERS
Info: 0 CROSSTERMS
Info: 5164 EXCLUSIONS
Info: 5085 RIGID BONDS
Info: 10194 DEGREES OF FREEDOM
Info: 1699 HYDROGEN GROUPS
Info: 4 ATOMS IN LARGEST HYDROGEN GROUP
Info: 1699 MIGRATION GROUPS
Info: 4 ATOMS IN LARGEST MIGRATION GROUP
Info: TOTAL MASS = 30581.2 amu
Info: TOTAL CHARGE = 0.000299968 e
Info: MASS DENSITY = 0.717639 g/cm^3
Info: ATOM DENSITY = 0.0719723 atoms/A^3
Info: ADDED 0 IMPLICIT EXCLUSIONS
Info: NONBONDED TABLE R-SQUARED SPACING: 0.0625
Info: NONBONDED TABLE SIZE: 705 POINTS
Info: REMOVING COM VELOCITY -0.074632 0.0372748 -0.0645944
TCL: Minimizing for 2000 steps
ETITLE: TS BOND ANGLE DIHED IMPRP ELECT VDW BOUNDARY MISC KINETIC TOTAL TEMP POTENTIAL TOTAL3 TEMPAVG PRESSURE GPRESSURE VOLUME PRESSAVG GPRESSAVG
ENERGY: 0 0.3292 0.7842 29.4504 0.0000 -15737.5213 1753.0459 0.0000 0.0000 0.0000 -13953.9115 0.0000 -13953.9115 -13953.9115 0.0000 10821.6924 -15406.3562 70763.2978 10821.6924 -15406.3562
ENERGY: 400 4.5976 2.2213 29.5957 0.0000 -21063.5067 2995.7731 0.0000 0.0000 0.0000 -18031.3190 0.0000 -18031.3190 -18031.3190 0.0000 15155.8553 15262.7882 70763.2978 15155.8553 15262.7882
ENERGY: 800 3.9753 1.9247 28.4727 0.0000 -22266.0105 3554.8117 0.0000 0.0000 0.0000 -18676.8262 0.0000 -18676.8262 -18676.8262 0.0000 17688.4558 17764.7351 70763.2978 17688.4558 17764.7351
ENERGY: 1200 0.5599 1.9207 27.8106 0.0000 -22657.9608 3683.0092 0.0000 0.0000 0.0000 -18944.6603 0.0000 -18944.6603 -18944.6603 0.0000 18303.8838 18341.9257 70763.2978 18303.8838 18341.9257
ENERGY: 1600 0.2673 1.3358 27.8447 0.0000 -22979.7955 3835.6223 0.0000 0.0000 0.0000 -19114.7254 0.0000 -19114.7254 -19114.7254 0.0000 19009.8664 19033.7659 70763.2978 19009.8664 19033.7659
ENERGY: 2000 0.3998 1.4408 27.5953 0.0000 -23171.5852 3933.4333 0.0000 0.0000 0.0000 -19208.7160 0.0000 -19208.7160 -19208.7160 0.0000 19460.3991 19488.4972 70763.2978 19460.3991 19488.4972
TCL: Exiting due to exit command.
Info: NAMD 3.0.1 for Linux-x86_64-multicore
Info: Please visit http://www.ks.uiuc.edu/Research/namd/
Info: for updates, documentation, and support information.
Info: Please cite Phillips et al., J. Chem. Phys. 153:044130 (2020) doi:10.1063/5.0014475
Info: in all publications reporting results obtained with NAMD.
Info: Based on Charm++/Converse 80000 for multicore-linux-x86_64-gcc
Info: Built Mon Oct 14 11:11:06 CDT 2024 by dhardy on athine.ks.uiuc.edu
Info: 1 NAMD  3.0.1  Linux-x86_64-multicore  16    k010  z5358697
Info: Running on 16 processors, 1 nodes, 1 physical nodes.
Info: CPU topology information available.
Info: Charm++/Converse parallel runtime startup completed at 0.00979816 s
Info: 1043.45 MB of memory in use based on /proc/self/stat
Info: Configuration file is mobley_2364370_equil.namd
Info: Working in the current directory /srv/scratch/z5358697/prod_prep_2/2364370
TCL: Running 25000 steps at 30 kelvin.
TCL: Suspending until startup complete.
Info: SIMULATION PARAMETERS:
Info: TIMESTEP               2
Info: NUMBER OF STEPS        0
Info: STEPS PER CYCLE        10
Info: PERIODIC CELL BASIS 1  44.537 0 0
Info: PERIODIC CELL BASIS 2  0 40.459 0
Info: PERIODIC CELL BASIS 3  0 0 39.271
Info: PERIODIC CELL CENTER   0 0 0
Info: WRAPPING WATERS AROUND PERIODIC BOUNDARIES ON OUTPUT.
Info: WRAPPING ALL CLUSTERS AROUND PERIODIC BOUNDARIES ON OUTPUT.
Info: FIRST LDB TIMESTEP     50
Info: LAST LDB TIMESTEP     -1
Info: HOM BACKGROUND SCALING 1
Info: PME BACKGROUND SCALING 1
Info: MIN ATOMS PER PATCH    40
Info: EMPTY PATCH LOAD       40 ATOMS
Info: INITIAL TEMPERATURE    300
Info: CENTER OF MASS MOVING INITIALLY? NO
Info: DIELECTRIC             1
Info: EXCLUDE                SCALED ONE-FOUR
Info: 1-4 ELECTROSTATICS SCALED BY 0.833333
Info: MODIFIED 1-4 VDW PARAMETERS WILL BE USED
Info: DCD FILENAME           mobley_2364370_equil.dcd
Info: DCD FREQUENCY          5000
Info: DCD FIRST STEP         5000
Info: DCD FILE WILL CONTAIN UNIT CELL DATA
Info: XST FILENAME           mobley_2364370_equil.xst
Info: XST FREQUENCY          5000
Info: NO VELOCITY DCD OUTPUT
Info: NO FORCE DCD OUTPUT
Info: OUTPUT FILENAME        mobley_2364370_equil
Info: BINARY OUTPUT FILES WILL BE USED
Info: RESTART FILENAME       mobley_2364370_equil.restart
Info: RESTART FREQUENCY      5000
Info: BINARY RESTART FILES WILL BE USED
Info: CUTOFF                 9
Info: PAIRLIST DISTANCE      11
Info: PAIRLIST SHRINK RATE   0.01
Info: PAIRLIST GROW RATE     0.01
Info: PAIRLIST TRIGGER       0.3
Info: PAIRLISTS PER CYCLE    2
Info: PAIRLISTS ENABLED
Info: MARGIN                 8
Info: HYDROGEN GROUP CUTOFF  2.5
Info: PATCH DIMENSION        21.5
Info: ENERGY OUTPUT STEPS    5000
Info: ENERGY EVALUATION STEPS    5000
Info: OUTPUT ENERGY PRECISION 4
Info: CROSSTERM ENERGY INCLUDED IN DIHEDRAL
Info: TIMING OUTPUT STEPS    50000
Info: PRESSURE OUTPUT STEPS  5000
Info: LANGEVIN DYNAMICS ACTIVE
Info: LANGEVIN TEMPERATURE   30
Info: LANGEVIN USING BBK INTEGRATOR
Info: LANGEVIN DAMPING COEFFICIENT IS 1 INVERSE PS
Info: LANGEVIN DYNAMICS APPLIED TO HYDROGENS
Info: LANGEVIN PISTON PRESSURE CONTROL ACTIVE
Info:        TARGET PRESSURE IS 1.01325 BAR
Info:     OSCILLATION PERIOD IS 50 FS
Info:             DECAY TIME IS 25 FS
Info:     PISTON TEMPERATURE IS 300 K
Info:       PRESSURE CONTROL IS GROUP-BASED
Info:    INITIAL STRAIN RATE IS 0 0 0
Info:       CELL FLUCTUATION IS ISOTROPIC
Info: PARTICLE MESH EWALD (PME) ACTIVE
Info: PME TOLERANCE               1e-06
Info: PME EWALD COEFFICIENT       0.348832
Info: PME INTERPOLATION ORDER     4
Info: PME GRID DIMENSIONS         48 44 40
Info: PME MAXIMUM GRID SPACING    1
Info: FULL ELECTROSTATIC EVALUATION FREQUENCY      2
Info: USING VERLET I (r-RESPA) MTS SCHEME.
Info: C1 SPLITTING OF LONG RANGE ELECTROSTATICS
Info: PLACING ATOMS IN PATCHES BY HYDROGEN GROUPS
Info: RIGID BONDS TO HYDROGEN : ALL
Info:         ERROR TOLERANCE : 1e-08
Info:          MAX ITERATIONS : 100
Info: RIGID WATER USING SETTLE ALGORITHM
Info: RANDOM NUMBER SEED     1741320027
Info: USE HYDROGEN BONDS?    NO
Info: Using AMBER format force field!
Info: AMBER PARM FILE        mobley_2364370.prmtop
Info: COORDINATE PDB         mobley_2364370.pdb
Info: Exclusions will be read from PARM file!
Info: SCNB (VDW SCALING)     2
Info: USING ARITHMETIC MEAN TO COMBINE L-J SIGMA PARAMETERS
Info: BINARY COORDINATES     mobley_2364370_min.coor
Info: SUMMARY OF PARAMETERS:
Info: 9 BONDS
Info: 12 ANGLES
Info:   12 HARMONIC
Info:   0 COSINE-BASED
Info: 18 DIHEDRAL
Info: 0 IMPROPER
Info: 0 CROSSTERM
Info: 0 VDW
Info: 36 VDW_PAIRS
Info: 0 NBTHOLE_PAIRS
Info: STRUCTURE SUMMARY:
Info: 5093 ATOMS
Info: 5092 BONDS
Info: 34 ANGLES
Info: 48 DIHEDRALS
Info: 0 IMPROPERS
Info: 0 CROSSTERMS
Info: 5164 EXCLUSIONS
Info: 5085 RIGID BONDS
Info: 10194 DEGREES OF FREEDOM
Info: 1699 HYDROGEN GROUPS
Info: 4 ATOMS IN LARGEST HYDROGEN GROUP
Info: 1699 MIGRATION GROUPS
Info: 4 ATOMS IN LARGEST MIGRATION GROUP
Info: TOTAL MASS = 30581.2 amu
Info: TOTAL CHARGE = 0.000299968 e
Info: MASS DENSITY = 0.717639 g/cm^3
Info: ATOM DENSITY = 0.0719723 atoms/A^3
Info: ADDED 0 IMPLICIT EXCLUSIONS
Info: NONBONDED TABLE R-SQUARED SPACING: 0.0625
Info: NONBONDED TABLE SIZE: 705 POINTS
Info: REMOVING COM VELOCITY 0.00296545 0.139239 -0.00498971
TCL: Running for 25000 steps
ETITLE: TS BOND ANGLE DIHED IMPRP ELECT VDW BOUNDARY MISC KINETIC TOTAL TEMP POTENTIAL TOTAL3 TEMPAVG PRESSURE GPRESSURE VOLUME PRESSAVG GPRESSAVG
ENERGY: 0 0.3998 1.4408 27.5953 0.0000 -23171.5852 3933.4333 0.0000 0.0000 3011.6596 -16197.0564 297.3388 -19208.7160 -16196.4673 297.3388 -61.5822 -20.1692 70763.2978 -61.5822 -20.1692
ENERGY: 5000 0.2862 2.1084 27.9579 0.0000 -24501.3335 4351.2208 0.0000 0.0000 302.7109 -19817.0493 29.8864 -20119.7602 -19816.3048 47.9310 828.0896 903.8792 49550.2637 5.8480 5.7683
ENERGY: 10000 0.6047 2.2301 27.6932 0.0000 -24429.1487 4250.4742 0.0000 0.0000 312.3974 -19835.7489 30.8428 -20148.1464 -19834.9378 29.9041 235.7913 291.3857 49744.2917 2.9111 2.9578
ENERGY: 15000 0.7085 1.9077 28.0098 0.0000 -24429.6730 4258.4217 0.0000 0.0000 303.0104 -19837.6149 29.9160 -20140.6252 -19836.6458 29.9772 289.3333 353.8245 49819.0222 1.2000 1.3152
ENERGY: 20000 0.2742 2.1031 27.9841 0.0000 -24390.8649 4197.7086 0.0000 0.0000 305.1390 -19857.6558 30.1261 -20162.7949 -19857.0419 30.2617 -54.4567 5.4956 49848.9970 1.9254 1.9122
ENERGY: 25000 0.1787 1.3388 28.0275 0.0000 -24447.3987 4251.7340 0.0000 0.0000 300.4244 -19865.6953 29.6607 -20166.1197 -19864.8077 30.0744 219.9294 280.6339 49744.1430 0.0545 0.0116
TCL: Running 25000 steps at 60 kelvin.
TCL: Setting parameter langevinTemp to 60
TCL: Running for 25000 steps
ETITLE: TS BOND ANGLE DIHED IMPRP ELECT VDW BOUNDARY MISC KINETIC TOTAL TEMP POTENTIAL TOTAL3 TEMPAVG PRESSURE GPRESSURE VOLUME PRESSAVG GPRESSAVG
ENERGY: 25000 0.1787 1.3388 28.0275 0.0000 -24447.3987 4251.7340 0.0000 0.0000 300.2740 -19865.8457 29.6458 -20166.1197 -19865.2930 29.6458 223.6072 280.8313 49744.1430 223.6072 280.8313
ENERGY: 30000 0.7500 2.0096 29.1666 0.0000 -23876.4973 3941.5774 0.0000 0.0000 620.7239 -19282.2697 61.2836 -19902.9937 -19280.5906 57.5627 -762.5562 -717.4862 50200.0570 4.8896 4.8166
ENERGY: 35000 0.4877 2.6578 28.1545 0.0000 -23907.1172 3950.2122 0.0000 0.0000 601.2468 -19324.3582 59.3606 -19925.6050 -19322.7373 60.1972 -793.7108 -720.1212 50242.9214 4.5821 4.4687
ENERGY: 40000 0.3597 3.0829 27.7614 0.0000 -24222.4289 4250.0046 0.0000 0.0000 611.1838 -19330.0366 60.3417 -19941.2204 -19328.4287 59.9557 797.6772 854.5004 49398.3728 1.2432 1.3684
ENERGY: 45000 0.7832 3.1345 27.5633 0.0000 -24170.8579 4182.6246 0.0000 0.0000 611.1302 -19345.6222 60.3364 -19956.7523 -19344.2971 60.3909 410.1150 455.2937 49693.9750 0.7625 0.7140
ENERGY: 50000 0.6436 2.0715 28.5551 0.0000 -24239.2072 4222.7894 0.0000 0.0000 591.6898 -19393.4577 58.4171 -19985.1476 -19392.4038 59.9504 465.6671 547.9113 49613.4073 5.5097 5.4139
TCL: Running 25000 steps at 90 kelvin.
TCL: Setting parameter langevinTemp to 90
TCL: Running for 25000 steps
ETITLE: TS BOND ANGLE DIHED IMPRP ELECT VDW BOUNDARY MISC KINETIC TOTAL TEMP POTENTIAL TOTAL3 TEMPAVG PRESSURE GPRESSURE VOLUME PRESSAVG GPRESSAVG
ENERGY: 50000 0.6436 2.0715 28.5551 0.0000 -24239.2072 4222.7894 0.0000 0.0000 591.3913 -19393.7563 58.3876 -19985.1476 -19392.6723 58.3876 488.1165 547.8098 49613.4073 488.1165 547.8098
ENERGY: 55000 1.0626 3.5458 27.7610 0.0000 -23534.0580 3795.2345 0.0000 0.0000 907.0786 -18799.3756 89.5552 -19706.4542 -18796.8413 87.4550 -965.6300 -924.5241 50148.7288 1.1413 0.8697
ENERGY: 60000 0.7031 5.7465 27.1849 0.0000 -23849.7967 4034.4625 0.0000 0.0000 909.5180 -18872.1818 89.7960 -19781.6997 -18870.0828 90.5221 68.4755 122.5995 49710.2186 -1.4849 -1.5689
ENERGY: 65000 0.9340 4.1034 27.4682 0.0000 -23802.3178 3958.5644 0.0000 0.0000 919.9400 -18891.3077 90.8250 -19811.2477 -18888.4195 90.1471 -335.1638 -258.5762 49469.5584 -0.0022 -0.2472
ENERGY: 70000 0.2609 3.0450 28.8589 0.0000 -23998.5691 4120.8427 0.0000 0.0000 896.0229 -18949.5386 88.4637 -19845.5615 -18947.1552 90.5126 440.2853 491.3474 49228.9066 2.5086 2.3951
ENERGY: 75000 1.4815 2.9714 28.4316 0.0000 -23910.9683 4003.0592 0.0000 0.0000 917.8552 -18957.1694 90.6191 -19875.0246 -18954.4327 90.1982 -239.5277 -177.7236 49384.0193 -1.2660 -1.0925
TCL: Running 25000 steps at 120 kelvin.
TCL: Setting parameter langevinTemp to 120
TCL: Running for 25000 steps
ETITLE: TS BOND ANGLE DIHED IMPRP ELECT VDW BOUNDARY MISC KINETIC TOTAL TEMP POTENTIAL TOTAL3 TEMPAVG PRESSURE GPRESSURE VOLUME PRESSAVG GPRESSAVG
ENERGY: 75000 1.4815 2.9714 28.4316 0.0000 -23910.9683 4003.0592 0.0000 0.0000 917.4203 -18957.6043 90.5762 -19875.0246 -18955.6377 90.5762 -239.0742 -177.4559 49384.0193 -239.0742 -177.4559
ENERGY: 80000 1.1359 3.8074 28.4129 0.0000 -23340.7376 3750.9917 0.0000 0.0000 1193.6026 -18362.7871 117.8435 -19556.3896 -18359.8455 116.8419 -837.3818 -797.3907 49927.6834 1.7434 1.2224
ENERGY: 85000 1.5194 4.9831 27.8685 0.0000 -23441.4549 3839.5069 0.0000 0.0000 1215.1131 -18352.4640 119.9672 -19567.5770 -18348.2064 121.3705 -473.2000 -402.2317 49865.3414 4.6258 4.6036
ENERGY: 90000 0.8579 3.7634 28.8049 0.0000 -23489.1451 3836.9355 0.0000 0.0000 1195.5309 -18423.2524 118.0338 -19618.7833 -18420.1001 120.5731 -566.0175 -488.2877 49797.9218 2.5294 2.3890
ENERGY: 95000 1.7562 3.8893 27.8994 0.0000 -23477.1109 3834.3710 0.0000 0.0000 1230.0651 -18379.1299 121.4434 -19609.1951 -18375.2039 120.1749 -630.4818 -587.8988 49852.3134 3.9567 4.2453
ENERGY: 100000 1.7938 3.4771 28.3706 0.0000 -23661.5518 3965.6635 0.0000 0.0000 1204.6225 -18457.6243 118.9315 -19662.2469 -18455.9173 121.3866 6.8114 81.1189 49361.6735 5.1728 5.2566
TCL: Running 25000 steps at 150 kelvin.
TCL: Setting parameter langevinTemp to 150
TCL: Running for 25000 steps
ETITLE: TS BOND ANGLE DIHED IMPRP ELECT VDW BOUNDARY MISC KINETIC TOTAL TEMP POTENTIAL TOTAL3 TEMPAVG PRESSURE GPRESSURE VOLUME PRESSAVG GPRESSAVG
ENERGY: 100000 1.7938 3.4771 28.3706 0.0000 -23661.5518 3965.6635 0.0000 0.0000 1203.9967 -18458.2502 118.8697 -19662.2469 -18455.1558 118.8697 13.7736 80.8337 49361.6735 13.7736 80.8337
ENERGY: 105000 0.7603 6.5404 29.1136 0.0000 -22960.4883 3657.9599 0.0000 0.0000 1540.5688 -17725.5453 152.0992 -19266.1141 -17721.8437 147.1361 -536.9302 -506.8314 49780.4581 6.9643 6.8810
ENERGY: 110000 2.0725 5.4699 27.8286 0.0000 -22939.6149 3625.2629 0.0000 0.0000 1510.5884 -17768.3925 149.1392 -19278.9809 -17764.6939 150.2029 -955.6616 -883.1460 50092.4423 2.7898 2.6761
ENERGY: 115000 1.1173 4.4048 29.7450 0.0000 -23372.6678 4006.2222 0.0000 0.0000 1511.1882 -17819.9903 149.1985 -19331.1785 -17816.1319 148.9851 791.1944 848.9517 49613.1437 3.6345 3.6962
ENERGY: 120000 0.8940 5.3568 29.8076 0.0000 -23247.1244 3928.0089 0.0000 0.0000 1527.6146 -17755.4425 150.8202 -19283.0571 -17752.2603 149.8756 619.7872 678.3951 49568.9543 -2.4789 -2.3146
ENERGY: 125000 0.9144 3.4588 28.6511 0.0000 -23295.9241 3885.0079 0.0000 0.0000 1544.3281 -17833.5637 152.4703 -19377.8918 -17831.2294 150.4187 183.0747 230.9601 49656.2175 3.3320 3.0950
TCL: Running 50000 steps at 180 kelvin.
TCL: Setting parameter langevinTemp to 180
TCL: Running for 50000 steps
ETITLE: TS BOND ANGLE DIHED IMPRP ELECT VDW BOUNDARY MISC KINETIC TOTAL TEMP POTENTIAL TOTAL3 TEMPAVG PRESSURE GPRESSURE VOLUME PRESSAVG GPRESSAVG
ENERGY: 125000 0.9144 3.4588 28.6511 0.0000 -23295.9241 3885.0079 0.0000 0.0000 1543.5863 -17834.3056 152.3971 -19377.8918 -17831.0846 152.3971 181.9949 230.3637 49656.2175 181.9949 230.3637
ENERGY: 135000 2.8680 8.9693 28.4195 0.0000 -22679.2596 3685.1235 0.0000 0.0000 1832.3209 -17121.5584 180.9036 -18953.8793 -17117.1673 179.2835 12.2287 86.7661 50172.2687 -0.2556 -0.6103
ENERGY: 145000 2.1563 3.0938 30.1080 0.0000 -22669.5976 3723.1550 0.0000 0.0000 1799.1180 -17111.9665 177.6255 -18911.0846 -17108.0638 180.4047 292.7651 399.7992 49969.8076 4.8365 4.9673
ENERGY: 155000 0.7375 7.7400 30.2271 0.0000 -22618.7980 3556.6327 0.0000 0.0000 1846.3982 -17177.0625 182.2935 -19023.4607 -17171.7973 179.2255 -741.6076 -692.0397 50390.9030 0.9751 0.8277
ENERGY: 165000 1.1334 5.7445 28.7451 0.0000 -22600.6815 3603.4959 0.0000 0.0000 1876.6539 -17084.9087 185.2806 -18961.5625 -17079.3144 181.5099 -220.7479 -159.7478 49870.3471 1.2029 1.0551
ENERGY: 175000 1.7852 3.9152 30.3510 0.0000 -22688.1465 3670.7612 0.0000 0.0000 1809.3044 -17172.0295 178.6312 -18981.3339 -17167.0084 180.6581 19.0959 120.2258 49588.3854 5.5995 6.1659
TCL: Running 50000 steps at 210 kelvin.
TCL: Setting parameter langevinTemp to 210
TCL: Running for 50000 steps
ETITLE: TS BOND ANGLE DIHED IMPRP ELECT VDW BOUNDARY MISC KINETIC TOTAL TEMP POTENTIAL TOTAL3 TEMPAVG PRESSURE GPRESSURE VOLUME PRESSAVG GPRESSAVG
ENERGY: 175000 1.7852 3.9152 30.3510 0.0000 -22688.1465 3670.7612 0.0000 0.0000 1808.3657 -17172.9682 178.5386 -18981.3339 -17169.3797 178.5386 55.5984 120.1519 49588.3854 55.5984 120.1519
ENERGY: 185000 0.9164 6.5956 27.9095 0.0000 -21662.5730 3360.7852 0.0000 0.0000 2136.2373 -16130.1288 210.9091 -18266.3661 -16125.8811 209.1356 241.9596 280.9261 49531.8801 -0.7893 -0.5378
ENERGY: 195000 1.0184 6.6798 30.2449 0.0000 -21657.4743 3394.3238 0.0000 0.0000 2105.0689 -16120.1385 207.8318 -18225.2074 -16114.2950 208.0682 559.3807 564.4270 49302.8080 0.1395 -0.5966
ENERGY: 205000 1.9912 7.3774 31.8460 0.0000 -21467.2634 3315.8802 0.0000 0.0000 2157.3572 -15952.8114 212.9942 -18110.1686 -15948.1368 210.3724 256.2364 353.6197 49523.8994 5.8615 5.7282
ENERGY: 215000 2.2181 7.3740 28.1185 0.0000 -21462.5388 3285.7150 0.0000 0.0000 2129.7099 -16009.4033 210.2646 -18139.1131 -16006.6563 209.2662 193.2279 280.4158 49174.2303 12.5308 12.5607
ENERGY: 225000 0.4990 6.5355 28.3278 0.0000 -21423.5828 3274.9989 0.0000 0.0000 2086.2238 -16026.9979 205.9713 -18113.2217 -16021.8387 209.1275 7.7012 57.5550 49771.1906 -1.8535 -1.4955
TCL: Running 50000 steps at 240 kelvin.
TCL: Setting parameter langevinTemp to 240
TCL: Running for 50000 steps
ETITLE: TS BOND ANGLE DIHED IMPRP ELECT VDW BOUNDARY MISC KINETIC TOTAL TEMP POTENTIAL TOTAL3 TEMPAVG PRESSURE GPRESSURE VOLUME PRESSAVG GPRESSAVG
ENERGY: 225000 0.4990 6.5355 28.3278 0.0000 -21423.5828 3274.9989 0.0000 0.0000 2085.1220 -16028.0997 205.8625 -18113.2217 -16024.8962 205.8625 -4.2087 59.0143 49771.1906 -4.2087 59.0143
ENERGY: 235000 0.7425 6.2600 28.6963 0.0000 -20264.2650 2851.9450 0.0000 0.0000 2393.6822 -14982.9390 236.3264 -17376.6212 -14978.6723 239.4369 -636.1388 -486.3711 50218.5240 5.5532 5.3141
ENERGY: 245000 2.3045 7.7757 28.0801 0.0000 -20272.7051 2847.4997 0.0000 0.0000 2435.2538 -14951.7912 240.4307 -17387.0450 -14947.1515 240.1518 -707.5855 -620.9324 50429.8878 2.0026 2.4761
ENERGY: 255000 1.1788 8.0300 28.9658 0.0000 -20404.4150 2927.0747 0.0000 0.0000 2417.8867 -15021.2790 238.7161 -17439.1657 -15016.5223 239.1783 -270.7000 -204.6746 50209.4207 2.4936 1.6563
ENERGY: 265000 1.0987 13.0425 26.4354 0.0000 -20353.1377 2963.4194 0.0000 0.0000 2408.7431 -14940.3985 237.8134 -17349.1416 -14934.3503 239.2929 28.8205 120.5771 50245.3623 2.4835 2.8898
ENERGY: 275000 1.7898 6.3643 31.1150 0.0000 -20407.6165 2932.1676 0.0000 0.0000 2460.1202 -14976.0596 242.8858 -17436.1798 -14970.7173 238.7262 -258.1453 -201.5015 50227.2361 -0.6114 -0.4853
TCL: Running 50000 steps at 270 kelvin.
TCL: Setting parameter langevinTemp to 270
TCL: Running for 50000 steps
ETITLE: TS BOND ANGLE DIHED IMPRP ELECT VDW BOUNDARY MISC KINETIC TOTAL TEMP POTENTIAL TOTAL3 TEMPAVG PRESSURE GPRESSURE VOLUME PRESSAVG GPRESSAVG
ENERGY: 275000 1.7898 6.3643 31.1150 0.0000 -20407.6165 2932.1676 0.0000 0.0000 2458.9094 -14977.2705 242.7662 -17436.1798 -14973.9031 242.7662 -292.1529 -201.2934 50227.2361 -292.1529 -201.2934
ENERGY: 285000 2.0143 8.6522 27.2143 0.0000 -19326.1054 2631.5903 0.0000 0.0000 2781.5710 -13875.0633 274.6224 -16656.6343 -13871.9220 271.6316 -384.7436 -310.3383 51479.2866 -3.0198 -3.5145
ENERGY: 295000 1.1810 4.4221 32.2421 0.0000 -19339.8010 2641.2341 0.0000 0.0000 2759.8651 -13900.8566 272.4794 -16660.7217 -13894.4138 267.9822 -140.2479 -48.3373 50875.9478 2.6990 2.7091
ENERGY: 305000 1.5020 11.0750 26.7964 0.0000 -19548.4436 2889.6876 0.0000 0.0000 2778.3561 -13841.0265 274.3050 -16619.3827 -13837.5793 270.3223 1108.7835 1207.3156 50671.0314 0.5545 0.6325
ENERGY: 315000 2.4759 10.0434 29.0822 0.0000 -19384.1462 2653.6231 0.0000 0.0000 2711.3832 -13977.5384 267.6928 -16688.9216 -13970.8922 269.8825 -391.9817 -290.6843 51271.4590 0.6633 -0.1523
ENERGY: 325000 0.9563 5.0405 30.7857 0.0000 -19570.1863 2788.1559 0.0000 0.0000 2849.6789 -13895.5690 281.3466 -16745.2479 -13887.4888 271.3785 444.1732 531.5575 50661.2851 3.0011 2.1846
TCL: Running 1000000 steps at 300 kelvin.
TCL: Setting parameter langevinTemp to 300
TCL: Running for 1000000 steps
ETITLE: TS BOND ANGLE DIHED IMPRP ELECT VDW BOUNDARY MISC KINETIC TOTAL TEMP POTENTIAL TOTAL3 TEMPAVG PRESSURE GPRESSURE VOLUME PRESSAVG GPRESSAVG
ENERGY: 325000 0.9563 5.0405 30.7857 0.0000 -19570.1863 2788.1559 0.0000 0.0000 2848.3418 -13896.9061 281.2146 -16745.2479 -13892.2235 281.2146 449.3948 531.0043 50661.2851 449.3948 531.0043
ENERGY: 525000 1.4261 9.3391 29.9095 0.0000 -18331.7879 2368.0466 0.0000 0.0000 3016.0177 -12907.0489 297.7691 -15923.0665 -12904.1483 300.7913 -657.9914 -585.8760 53278.0668 0.9166 0.9742
ENERGY: 725000 3.2349 9.0903 29.4331 0.0000 -18513.4739 2410.3411 0.0000 0.0000 3040.3386 -13021.0359 300.1703 -16061.3744 -13013.7360 299.1161 -523.9380 -417.2682 52466.2210 2.9316 2.6099
ENERGY: 925000 1.5282 11.1543 28.9066 0.0000 -18790.7324 2692.9940 0.0000 0.0000 3049.3180 -13006.8314 301.0568 -16056.1493 -13000.2293 300.4820 743.8494 827.3196 52225.0731 1.8809 2.7897
ENERGY: 1125000 1.5630 8.0735 27.9733 0.0000 -18751.1368 2574.5723 0.0000 0.0000 3052.6157 -13086.3390 301.3824 -16138.9546 -13078.7818 300.4173 251.8026 367.8754 51877.7141 5.1489 5.1286
ENERGY: 1325000 3.7001 11.9716 29.6224 0.0000 -18451.6772 2472.7070 0.0000 0.0000 3126.5276 -12807.1484 308.6797 -15933.6761 -12800.9928 301.3290 -85.9792 5.3589 52813.3165 1.5500 1.8725
TCL: Exiting due to exit command.
