Info: SIMULATION PARAMETERS:
Info: TIMESTEP               2
Info: NUMBER OF STEPS        0
Info: STEPS PER CYCLE        10
Info: PERIODIC CELL BASIS 1  34.986 0 0
Info: PERIODIC CELL BASIS 2  0 35.411 0
Info: PERIODIC CELL BASIS 3  0 0 35.723
Info: PERIODIC CELL CENTER   0 0 0
Info: WRAPPING WATERS AROUND PERIODIC BOUNDARIES ON OUTPUT.
Info: WRAPPING ALL CLUSTERS AROUND PERIODIC BOUNDARIES ON OUTPUT.
Info: FIRST LDB TIMESTEP     50
Info: LAST LDB TIMESTEP     -1
Info: HOM BACKGROUND SCALING 1
Info: PME BACKGROUND SCALING 1
Info: MIN ATOMS PER PATCH    40
Info: EMPTY PATCH LOAD       40 ATOMS
Info: INITIAL TEMPERATURE    300
Info: CENTER OF MASS MOVING INITIALLY? NO
Info: DIELECTRIC             1
Info: EXCLUDE                SCALED ONE-FOUR
Info: 1-4 ELECTROSTATICS SCALED BY 0.833333
Info: MODIFIED 1-4 VDW PARAMETERS WILL BE USED
Info: DCD FILENAME           mobley_8578590_equil.dcd
Info: DCD FREQUENCY          100000
Info: DCD FIRST STEP         100000
Info: DCD FILE WILL CONTAIN UNIT CELL DATA
Info: XST FILENAME           mobley_8578590_equil.xst
Info: XST FREQUENCY          100000
Info: NO VELOCITY DCD OUTPUT
Info: NO FORCE DCD OUTPUT
Info: OUTPUT FILENAME        mobley_8578590_equil
Info: BINARY OUTPUT FILES WILL BE USED
Info: RESTART FILENAME       mobley_8578590_equil.restart
Info: RESTART FREQUENCY      100000
Info: BINARY RESTART FILES WILL BE USED
Info: CUTOFF                 9
Info: PAIRLIST DISTANCE      11
Info: PAIRLIST SHRINK RATE   0.01
Info: PAIRLIST GROW RATE     0.01
Info: PAIRLIST TRIGGER       0.3
Info: PAIRLISTS PER CYCLE    2
Info: PAIRLISTS ENABLED
Info: MARGIN                 8
Info: HYDROGEN GROUP CUTOFF  2.5
Info: PATCH DIMENSION        21.5
Info: ENERGY OUTPUT STEPS    100000
Info: ENERGY EVALUATION STEPS    100000
Info: OUTPUT ENERGY PRECISION 4
Info: CROSSTERM ENERGY INCLUDED IN DIHEDRAL
Info: TIMING OUTPUT STEPS    1000000
Info: PRESSURE OUTPUT STEPS  100000
Info: LANGEVIN DYNAMICS ACTIVE
Info: LANGEVIN TEMPERATURE   30
Info: LANGEVIN USING BBK INTEGRATOR
Info: LANGEVIN DAMPING COEFFICIENT IS 1 INVERSE PS
Info: LANGEVIN DYNAMICS APPLIED TO HYDROGENS
Info: LANGEVIN PISTON PRESSURE CONTROL ACTIVE
Info:        TARGET PRESSURE IS 1.01325 BAR
Info:     OSCILLATION PERIOD IS 50 FS
Info:             DECAY TIME IS 25 FS
Info:     PISTON TEMPERATURE IS 300 K
Info:       PRESSURE CONTROL IS GROUP-BASED
Info:    INITIAL STRAIN RATE IS 0 0 0
Info:       CELL FLUCTUATION IS ISOTROPIC
Info: PARTICLE MESH EWALD (PME) ACTIVE
Info: PME TOLERANCE               1e-06
Info: PME EWALD COEFFICIENT       0.348832
Info: PME INTERPOLATION ORDER     4
Info: PME GRID DIMENSIONS         36 36 36
Info: PME MAXIMUM GRID SPACING    1
Info: FULL ELECTROSTATIC EVALUATION FREQUENCY      2
Info: USING VERLET I (r-RESPA) MTS SCHEME.
Info: C1 SPLITTING OF LONG RANGE ELECTROSTATICS
Info: PLACING ATOMS IN PATCHES BY HYDROGEN GROUPS
Info: RIGID BONDS TO HYDROGEN : ALL
Info:         ERROR TOLERANCE : 1e-08
Info:          MAX ITERATIONS : 100
Info: RIGID WATER USING SETTLE ALGORITHM
Info: RANDOM NUMBER SEED     1742449477
Info: USE HYDROGEN BONDS?    NO
Info: Using AMBER format force field!
Info: AMBER PARM FILE        mobley_8578590.prmtop
Info: COORDINATE PDB         mobley_8578590.pdb
Info: Exclusions will be read from PARM file!
Info: SCNB (VDW SCALING)     2
Info: USING ARITHMETIC MEAN TO COMBINE L-J SIGMA PARAMETERS
Info: BINARY COORDINATES     mobley_8578590_min.coor
Info: SUMMARY OF PARAMETERS:
Info: 5 BONDS
Info: 4 ANGLES
Info:   4 HARMONIC
Info:   0 COSINE-BASED
Info: 2 DIHEDRAL
Info: 0 IMPROPER
Info: 0 CROSSTERM
Info: 0 VDW
Info: 21 VDW_PAIRS
Info: 0 NBTHOLE_PAIRS
Info: STRUCTURE SUMMARY:
Info: 2959 ATOMS
Info: 2958 BONDS
Info: 15 ANGLES
Info: 15 DIHEDRALS
Info: 0 IMPROPERS
Info: 0 CROSSTERMS
Info: 2985 EXCLUSIONS
Info: 2955 RIGID BONDS
Info: 5922 DEGREES OF FREEDOM
Info: 987 HYDROGEN GROUPS
Info: 4 ATOMS IN LARGEST HYDROGEN GROUP
Info: 987 MIGRATION GROUPS
Info: 4 ATOMS IN LARGEST MIGRATION GROUP
Info: TOTAL MASS = 17787.9 amu
Info: TOTAL CHARGE = 0.00030005 e
Info: MASS DENSITY = 0.667425 g/cm^3
Info: ATOM DENSITY = 0.0668597 atoms/A^3
Info: ADDED 0 IMPLICIT EXCLUSIONS
Info: NONBONDED TABLE R-SQUARED SPACING: 0.0625
Info: NONBONDED TABLE SIZE: 705 POINTS
Info: REMOVING COM VELOCITY -0.0387458 0.301201 -0.150281
TCL: Running for 100000 steps
ETITLE: TS BOND ANGLE DIHED IMPRP ELECT VDW BOUNDARY MISC KINETIC TOTAL TEMP POTENTIAL TOTAL3 TEMPAVG PRESSURE GPRESSURE VOLUME PRESSAVG GPRESSAVG
ENERGY: 0 0.0120 0.2912 0.0495 0.0000 -13750.8852 2417.2505 0.0000 0.0000 1765.9748 -9567.3071 300.1280 -11333.2819 -9566.9324 300.1280 369.5097 405.6596 44256.8405 369.5097 405.6596
ENERGY: 100000 0.2345 0.6714 0.1014 0.0000 -14315.0041 2482.7058 0.0000 0.0000 178.6615 -11652.6295 30.3636 -11831.2910 -11652.0236 30.9082 -155.0051 -111.1219 28924.3938 4.7128 4.6921
TCL: Running 100000 steps at 60 kelvin.
TCL: Setting parameter langevinTemp to 60
TCL: Running for 100000 steps
ETITLE: TS BOND ANGLE DIHED IMPRP ELECT VDW BOUNDARY MISC KINETIC TOTAL TEMP POTENTIAL TOTAL3 TEMPAVG PRESSURE GPRESSURE VOLUME PRESSAVG GPRESSAVG
ENERGY: 100000 0.2345 0.6714 0.1014 0.0000 -14315.0041 2482.7058 0.0000 0.0000 178.5726 -11652.7185 30.3485 -11831.2910 -11652.2796 30.3485 -163.6327 -111.0346 28924.3938 -163.6327 -111.0346
ENERGY: 200000 0.1439 1.3719 0.3599 0.0000 -14259.3984 2500.3390 0.0000 0.0000 357.0921 -11400.0916 60.6879 -11757.1837 -11399.1030 59.8328 588.1820 652.6138 28434.0143 4.5704 4.5498
TCL: Running 100000 steps at 90 kelvin.
TCL: Setting parameter langevinTemp to 90
TCL: Running for 100000 steps
ETITLE: TS BOND ANGLE DIHED IMPRP ELECT VDW BOUNDARY MISC KINETIC TOTAL TEMP POTENTIAL TOTAL3 TEMPAVG PRESSURE GPRESSURE VOLUME PRESSAVG GPRESSAVG
ENERGY: 200000 0.1439 1.3719 0.3599 0.0000 -14259.3984 2500.3390 0.0000 0.0000 356.9204 -11400.2633 60.6587 -11757.1837 -11399.6288 60.6587 592.9125 653.3158 28434.0143 592.9125 653.3158
ENERGY: 300000 0.1385 1.3389 0.1413 0.0000 -14009.6754 2348.2934 0.0000 0.0000 521.5457 -11138.2177 88.6369 -11659.7634 -11136.8271 89.9292 -338.3426 -272.9797 28558.0989 3.5739 3.4647
TCL: Running 100000 steps at 120 kelvin.
TCL: Setting parameter langevinTemp to 120
TCL: Running for 100000 steps
ETITLE: TS BOND ANGLE DIHED IMPRP ELECT VDW BOUNDARY MISC KINETIC TOTAL TEMP POTENTIAL TOTAL3 TEMPAVG PRESSURE GPRESSURE VOLUME PRESSAVG GPRESSAVG
ENERGY: 300000 0.1385 1.3389 0.1413 0.0000 -14009.6754 2348.2934 0.0000 0.0000 521.2805 -11138.4830 88.5918 -11659.7634 -11137.4166 88.5918 -329.2808 -273.3620 28558.0989 -329.2808 -273.3620
ENERGY: 400000 0.4838 1.2231 0.2274 0.0000 -13811.3341 2262.3459 0.0000 0.0000 699.8657 -10847.1880 118.9424 -11547.0537 -10845.5239 119.9185 -637.0587 -591.6295 28834.6763 3.4978 3.6519
TCL: Running 100000 steps at 150 kelvin.
TCL: Setting parameter langevinTemp to 150
TCL: Running for 100000 steps
ETITLE: TS BOND ANGLE DIHED IMPRP ELECT VDW BOUNDARY MISC KINETIC TOTAL TEMP POTENTIAL TOTAL3 TEMPAVG PRESSURE GPRESSURE VOLUME PRESSAVG GPRESSAVG
ENERGY: 400000 0.4838 1.2231 0.2274 0.0000 -13811.3341 2262.3459 0.0000 0.0000 699.5081 -10847.5456 118.8816 -11547.0537 -10845.4454 118.8816 -644.7105 -591.5204 28834.6763 -644.7105 -591.5204
ENERGY: 500000 0.6420 2.5313 0.3457 0.0000 -13570.2413 2193.3743 0.0000 0.0000 887.3436 -10486.0045 150.8043 -11373.3481 -10482.9587 149.9439 -776.6073 -687.9253 29094.8947 3.4217 3.4297
TCL: Running 100000 steps at 180 kelvin.
TCL: Setting parameter langevinTemp to 180
TCL: Running for 100000 steps
ETITLE: TS BOND ANGLE DIHED IMPRP ELECT VDW BOUNDARY MISC KINETIC TOTAL TEMP POTENTIAL TOTAL3 TEMPAVG PRESSURE GPRESSURE VOLUME PRESSAVG GPRESSAVG
ENERGY: 500000 0.6420 2.5313 0.3457 0.0000 -13570.2413 2193.3743 0.0000 0.0000 886.9010 -10486.4470 150.7291 -11373.3481 -10485.0208 150.7291 -741.2557 -687.1501 29094.8947 -741.2557 -687.1501
ENERGY: 600000 1.0224 4.5193 0.4893 0.0000 -13283.4076 2189.5579 0.0000 0.0000 1033.7678 -10054.0507 175.6892 -11087.8186 -10051.8065 179.9700 383.4361 461.1955 28862.4611 2.1234 2.1754
TCL: Running 100000 steps at 210 kelvin.
TCL: Setting parameter langevinTemp to 210
TCL: Running for 100000 steps
ETITLE: TS BOND ANGLE DIHED IMPRP ELECT VDW BOUNDARY MISC KINETIC TOTAL TEMP POTENTIAL TOTAL3 TEMPAVG PRESSURE GPRESSURE VOLUME PRESSAVG GPRESSAVG
ENERGY: 600000 1.0224 4.5193 0.4893 0.0000 -13283.4076 2189.5579 0.0000 0.0000 1033.2485 -10054.5701 175.6009 -11087.8186 -10052.3085 175.6009 394.6339 460.9341 28862.4611 394.6339 460.9341
ENERGY: 700000 0.5085 2.3840 0.1030 0.0000 -12502.7341 1878.2611 0.0000 0.0000 1244.5918 -9376.8858 211.5188 -10621.4776 -9374.5374 209.6763 -364.4085 -282.4774 29014.7754 3.8988 3.8508
TCL: Running 100000 steps at 240 kelvin.
TCL: Setting parameter langevinTemp to 240
TCL: Running for 100000 steps
ETITLE: TS BOND ANGLE DIHED IMPRP ELECT VDW BOUNDARY MISC KINETIC TOTAL TEMP POTENTIAL TOTAL3 TEMPAVG PRESSURE GPRESSURE VOLUME PRESSAVG GPRESSAVG
ENERGY: 700000 0.5085 2.3840 0.1030 0.0000 -12502.7341 1878.2611 0.0000 0.0000 1243.9988 -9377.4787 211.4180 -10621.4776 -9375.3738 211.4180 -362.5267 -283.3045 29014.7754 -362.5267 -283.3045
ENERGY: 800000 1.7163 6.8001 0.4959 0.0000 -11819.0243 1669.7091 0.0000 0.0000 1454.2001 -8686.1027 247.1418 -10140.3028 -8680.4424 239.9940 -365.7496 -250.4745 29229.7680 3.4846 3.5370
TCL: Running 100000 steps at 270 kelvin.
TCL: Setting parameter langevinTemp to 270
TCL: Running for 100000 steps
ETITLE: TS BOND ANGLE DIHED IMPRP ELECT VDW BOUNDARY MISC KINETIC TOTAL TEMP POTENTIAL TOTAL3 TEMPAVG PRESSURE GPRESSURE VOLUME PRESSAVG GPRESSAVG
ENERGY: 800000 1.7163 6.8001 0.4959 0.0000 -11819.0243 1669.7091 0.0000 0.0000 1453.4985 -8686.8044 247.0225 -10140.3028 -8684.7661 247.0225 -338.6876 -246.6324 29229.7680 -338.6876 -246.6324
ENERGY: 900000 1.6135 2.4315 1.8595 0.0000 -11457.6203 1653.2991 0.0000 0.0000 1549.4696 -8248.9471 263.3329 -9798.4167 -8245.4932 270.4420 280.3657 349.3037 29606.6263 3.2898 3.2856
TCL: Running 1000000 steps at 300 kelvin.
TCL: Setting parameter langevinTemp to 300
TCL: Running for 1000000 steps
ETITLE: TS BOND ANGLE DIHED IMPRP ELECT VDW BOUNDARY MISC KINETIC TOTAL TEMP POTENTIAL TOTAL3 TEMPAVG PRESSURE GPRESSURE VOLUME PRESSAVG GPRESSAVG
ENERGY: 900000 1.6135 2.4315 1.8595 0.0000 -11457.6203 1653.2991 0.0000 0.0000 1548.6804 -8249.7364 263.1987 -9798.4167 -8247.4680 263.1987 254.2059 349.7155 29606.6263 254.2059 349.7155
ENERGY: 1100000 0.1346 1.7803 0.2466 0.0000 -10755.2231 1445.0725 0.0000 0.0000 1769.5796 -7538.4095 300.7406 -9307.9891 -7534.0672 300.0796 -125.6473 -53.2081 30723.1319 3.3997 3.4130
ENERGY: 1300000 0.7938 3.7554 0.1994 0.0000 -10679.2828 1431.4517 0.0000 0.0000 1755.0870 -7487.9954 298.2776 -9243.0824 -7483.6505 299.9932 -354.2832 -228.7607 31186.7643 2.4248 2.4337
ENERGY: 1500000 0.8310 5.7304 0.6188 0.0000 -10798.6075 1433.0693 0.0000 0.0000 1802.6539 -7555.7040 306.3616 -9358.3579 -7550.7008 300.7371 -416.2287 -341.4805 30790.4712 3.8702 3.7813
ENERGY: 1700000 0.0254 6.0403 0.1051 0.0000 -10895.5778 1565.5321 0.0000 0.0000 1784.1404 -7539.7346 303.2152 -9323.8750 -7536.3508 299.7364 966.1535 1047.5945 29931.0907 3.8038 3.4283
ENERGY: 1900000 0.2090 2.5326 0.1903 0.0000 -10698.1299 1361.2232 0.0000 0.0000 1799.4027 -7534.5721 305.8091 -9333.9748 -7533.3599 300.2495 -935.1147 -861.5657 31013.0807 2.3960 2.3299
TCL: Exiting due to exit command.
