Info: SIMULATION PARAMETERS:
Info: TIMESTEP               2
Info: NUMBER OF STEPS        0
Info: STEPS PER CYCLE        10
Info: PERIODIC CELL BASIS 1  37.435 0 0
Info: PERIODIC CELL BASIS 2  0 41.086 0
Info: PERIODIC CELL BASIS 3  0 0 39.527
Info: PERIODIC CELL CENTER   0 0 0
Info: WRAPPING WATERS AROUND PERIODIC BOUNDARIES ON OUTPUT.
Info: WRAPPING ALL CLUSTERS AROUND PERIODIC BOUNDARIES ON OUTPUT.
Info: FIRST LDB TIMESTEP     50
Info: LAST LDB TIMESTEP     -1
Info: HOM BACKGROUND SCALING 1
Info: PME BACKGROUND SCALING 1
Info: MIN ATOMS PER PATCH    40
Info: EMPTY PATCH LOAD       40 ATOMS
Info: INITIAL TEMPERATURE    300
Info: CENTER OF MASS MOVING INITIALLY? NO
Info: DIELECTRIC             1
Info: EXCLUDE                SCALED ONE-FOUR
Info: 1-4 ELECTROSTATICS SCALED BY 0.833333
Info: MODIFIED 1-4 VDW PARAMETERS WILL BE USED
Info: DCD FILENAME           mobley_6917738_min.dcd
Info: DCD FREQUENCY          5000
Info: DCD FIRST STEP         5000
Info: DCD FILE WILL CONTAIN UNIT CELL DATA
Info: XST FILENAME           mobley_6917738_min.xst
Info: XST FREQUENCY          5000
Info: NO VELOCITY DCD OUTPUT
Info: NO FORCE DCD OUTPUT
Info: OUTPUT FILENAME        mobley_6917738_min
Info: BINARY OUTPUT FILES WILL BE USED
Info: RESTART FILENAME       mobley_6917738_min.restart
Info: RESTART FREQUENCY      5000
Info: BINARY RESTART FILES WILL BE USED
Info: CUTOFF                 9
Info: PAIRLIST DISTANCE      11
Info: PAIRLIST SHRINK RATE   0.01
Info: PAIRLIST GROW RATE     0.01
Info: PAIRLIST TRIGGER       0.3
Info: PAIRLISTS PER CYCLE    2
Info: PAIRLISTS ENABLED
Info: MARGIN                 8
Info: HYDROGEN GROUP CUTOFF  2.5
Info: PATCH DIMENSION        21.5
Info: ENERGY OUTPUT STEPS    5000
Info: ENERGY EVALUATION STEPS    5000
Info: OUTPUT ENERGY PRECISION 4
Info: CROSSTERM ENERGY INCLUDED IN DIHEDRAL
Info: TIMING OUTPUT STEPS    50000
Info: PRESSURE OUTPUT STEPS  5000
Info: LANGEVIN DYNAMICS ACTIVE
Info: LANGEVIN TEMPERATURE   300
Info: LANGEVIN USING BBK INTEGRATOR
Info: LANGEVIN DAMPING COEFFICIENT IS 1 INVERSE PS
Info: LANGEVIN DYNAMICS APPLIED TO HYDROGENS
Info: LANGEVIN PISTON PRESSURE CONTROL ACTIVE
Info:        TARGET PRESSURE IS 1.01325 BAR
Info:     OSCILLATION PERIOD IS 50 FS
Info:             DECAY TIME IS 25 FS
Info:     PISTON TEMPERATURE IS 300 K
Info:       PRESSURE CONTROL IS GROUP-BASED
Info:    INITIAL STRAIN RATE IS 0 0 0
Info:       CELL FLUCTUATION IS ISOTROPIC
Info: PARTICLE MESH EWALD (PME) ACTIVE
Info: PME TOLERANCE               1e-06
Info: PME EWALD COEFFICIENT       0.348832
Info: PME INTERPOLATION ORDER     4
Info: PME GRID DIMENSIONS         40 44 40
Info: PME MAXIMUM GRID SPACING    1
Info: FULL ELECTROSTATIC EVALUATION FREQUENCY      2
Info: USING VERLET I (r-RESPA) MTS SCHEME.
Info: C1 SPLITTING OF LONG RANGE ELECTROSTATICS
Info: PLACING ATOMS IN PATCHES BY HYDROGEN GROUPS
Info: RIGID BONDS TO HYDROGEN : ALL
Info:         ERROR TOLERANCE : 1e-08
Info:          MAX ITERATIONS : 100
Info: RIGID WATER USING SETTLE ALGORITHM
Info: RANDOM NUMBER SEED     1741394283
Info: USE HYDROGEN BONDS?    NO
Info: Using AMBER format force field!
Info: AMBER PARM FILE        mobley_6917738.prmtop
Info: COORDINATE PDB         mobley_6917738.pdb
Info: Exclusions will be read from PARM file!
Info: SCNB (VDW SCALING)     2
Info: USING ARITHMETIC MEAN TO COMBINE L-J SIGMA PARAMETERS
Info: SUMMARY OF PARAMETERS:
Info: 7 BONDS
Info: 9 ANGLES
Info:   9 HARMONIC
Info:   0 COSINE-BASED
Info: 9 DIHEDRAL
Info: 0 IMPROPER
Info: 0 CROSSTERM
Info: 0 VDW
Info: 28 VDW_PAIRS
Info: 0 NBTHOLE_PAIRS
Info: STRUCTURE SUMMARY:
Info: 4391 ATOMS
Info: 4390 BONDS
Info: 22 ANGLES
Info: 25 DIHEDRALS
Info: 0 IMPROPERS
Info: 0 CROSSTERMS
Info: 4433 EXCLUSIONS
Info: 4386 RIGID BONDS
Info: 8787 DEGREES OF FREEDOM
Info: 1464 HYDROGEN GROUPS
Info: 4 ATOMS IN LARGEST HYDROGEN GROUP
Info: 1464 MIGRATION GROUPS
Info: 4 ATOMS IN LARGEST MIGRATION GROUP
Info: TOTAL MASS = 26360.5 amu
Info: TOTAL CHARGE = 0.000300065 e
Info: MASS DENSITY = 0.720023 g/cm^3
Info: ATOM DENSITY = 0.0722267 atoms/A^3
Info: ADDED 0 IMPLICIT EXCLUSIONS
Info: NONBONDED TABLE R-SQUARED SPACING: 0.0625
Info: NONBONDED TABLE SIZE: 705 POINTS
Info: REMOVING COM VELOCITY 0.127397 -0.0617505 0.0164205
TCL: Minimizing for 2000 steps
ETITLE: TS BOND ANGLE DIHED IMPRP ELECT VDW BOUNDARY MISC KINETIC TOTAL TEMP POTENTIAL TOTAL3 TEMPAVG PRESSURE GPRESSURE VOLUME PRESSAVG GPRESSAVG
ENERGY: 0 0.1553 6.6134 3.7427 0.0000 -13416.8576 1506.6763 0.0000 0.0000 0.0000 -11899.6698 0.0000 -11899.6698 -11899.6698 0.0000 10858.2045 -15581.3283 60794.6767 10858.2045 -15581.3283
ENERGY: 400 3.1401 2.4201 2.7773 0.0000 -18065.1718 2524.4004 0.0000 0.0000 0.0000 -15532.4339 0.0000 -15532.4339 -15532.4339 0.0000 14952.8730 15061.2326 60794.6767 14952.8730 15061.2326
ENERGY: 800 0.9807 0.6812 2.7620 0.0000 -19191.9756 3064.1080 0.0000 0.0000 0.0000 -16123.4438 0.0000 -16123.4438 -16123.4438 0.0000 17698.6260 17805.8247 60794.6767 17698.6260 17805.8247
ENERGY: 1200 0.6267 0.3744 2.7783 0.0000 -19681.8431 3282.6840 0.0000 0.0000 0.0000 -16395.3798 0.0000 -16395.3798 -16395.3798 0.0000 18862.6129 18920.6038 60794.6767 18862.6129 18920.6038
ENERGY: 1600 0.5532 0.5251 3.0244 0.0000 -19926.7723 3392.8910 0.0000 0.0000 0.0000 -16529.7787 0.0000 -16529.7787 -16529.7787 0.0000 19499.8896 19562.4437 60794.6767 19499.8896 19562.4437
ENERGY: 2000 0.3023 0.2901 3.2210 0.0000 -20061.8246 3443.2593 0.0000 0.0000 0.0000 -16614.7519 0.0000 -16614.7519 -16614.7519 0.0000 19820.8576 19874.7286 60794.6767 19820.8576 19874.7286
TCL: Exiting due to exit command.
Info: NAMD 3.0.1 for Linux-x86_64-multicore
Info: Please visit http://www.ks.uiuc.edu/Research/namd/
Info: for updates, documentation, and support information.
Info: Please cite Phillips et al., J. Chem. Phys. 153:044130 (2020) doi:10.1063/5.0014475
Info: in all publications reporting results obtained with NAMD.
Info: Based on Charm++/Converse 80000 for multicore-linux-x86_64-gcc
Info: Built Mon Oct 14 11:11:06 CDT 2024 by dhardy on athine.ks.uiuc.edu
Info: 1 NAMD  3.0.1  Linux-x86_64-multicore  16    k016  z5358697
Info: Running on 16 processors, 1 nodes, 1 physical nodes.
Info: CPU topology information available.
Info: Charm++/Converse parallel runtime startup completed at 0.00956332 s
Info: 1043.45 MB of memory in use based on /proc/self/stat
Info: Configuration file is mobley_6917738_equil.namd
Info: Working in the current directory /srv/scratch/z5358697/prod_prep_8/6917738
TCL: Running 25000 steps at 30 kelvin.
TCL: Suspending until startup complete.
Info: SIMULATION PARAMETERS:
Info: TIMESTEP               2
Info: NUMBER OF STEPS        0
Info: STEPS PER CYCLE        10
Info: PERIODIC CELL BASIS 1  37.435 0 0
Info: PERIODIC CELL BASIS 2  0 41.086 0
Info: PERIODIC CELL BASIS 3  0 0 39.527
Info: PERIODIC CELL CENTER   0 0 0
Info: WRAPPING WATERS AROUND PERIODIC BOUNDARIES ON OUTPUT.
Info: WRAPPING ALL CLUSTERS AROUND PERIODIC BOUNDARIES ON OUTPUT.
Info: FIRST LDB TIMESTEP     50
Info: LAST LDB TIMESTEP     -1
Info: HOM BACKGROUND SCALING 1
Info: PME BACKGROUND SCALING 1
Info: MIN ATOMS PER PATCH    40
Info: EMPTY PATCH LOAD       40 ATOMS
Info: INITIAL TEMPERATURE    300
Info: CENTER OF MASS MOVING INITIALLY? NO
Info: DIELECTRIC             1
Info: EXCLUDE                SCALED ONE-FOUR
Info: 1-4 ELECTROSTATICS SCALED BY 0.833333
Info: MODIFIED 1-4 VDW PARAMETERS WILL BE USED
Info: DCD FILENAME           mobley_6917738_equil.dcd
Info: DCD FREQUENCY          5000
Info: DCD FIRST STEP         5000
Info: DCD FILE WILL CONTAIN UNIT CELL DATA
Info: XST FILENAME           mobley_6917738_equil.xst
Info: XST FREQUENCY          5000
Info: NO VELOCITY DCD OUTPUT
Info: NO FORCE DCD OUTPUT
Info: OUTPUT FILENAME        mobley_6917738_equil
Info: BINARY OUTPUT FILES WILL BE USED
Info: RESTART FILENAME       mobley_6917738_equil.restart
Info: RESTART FREQUENCY      5000
Info: BINARY RESTART FILES WILL BE USED
Info: CUTOFF                 9
Info: PAIRLIST DISTANCE      11
Info: PAIRLIST SHRINK RATE   0.01
Info: PAIRLIST GROW RATE     0.01
Info: PAIRLIST TRIGGER       0.3
Info: PAIRLISTS PER CYCLE    2
Info: PAIRLISTS ENABLED
Info: MARGIN                 8
Info: HYDROGEN GROUP CUTOFF  2.5
Info: PATCH DIMENSION        21.5
Info: ENERGY OUTPUT STEPS    5000
Info: ENERGY EVALUATION STEPS    5000
Info: OUTPUT ENERGY PRECISION 4
Info: CROSSTERM ENERGY INCLUDED IN DIHEDRAL
Info: TIMING OUTPUT STEPS    50000
Info: PRESSURE OUTPUT STEPS  5000
Info: LANGEVIN DYNAMICS ACTIVE
Info: LANGEVIN TEMPERATURE   30
Info: LANGEVIN USING BBK INTEGRATOR
Info: LANGEVIN DAMPING COEFFICIENT IS 1 INVERSE PS
Info: LANGEVIN DYNAMICS APPLIED TO HYDROGENS
Info: LANGEVIN PISTON PRESSURE CONTROL ACTIVE
Info:        TARGET PRESSURE IS 1.01325 BAR
Info:     OSCILLATION PERIOD IS 50 FS
Info:             DECAY TIME IS 25 FS
Info:     PISTON TEMPERATURE IS 300 K
Info:       PRESSURE CONTROL IS GROUP-BASED
Info:    INITIAL STRAIN RATE IS 0 0 0
Info:       CELL FLUCTUATION IS ISOTROPIC
Info: PARTICLE MESH EWALD (PME) ACTIVE
Info: PME TOLERANCE               1e-06
Info: PME EWALD COEFFICIENT       0.348832
Info: PME INTERPOLATION ORDER     4
Info: PME GRID DIMENSIONS         40 44 40
Info: PME MAXIMUM GRID SPACING    1
Info: FULL ELECTROSTATIC EVALUATION FREQUENCY      2
Info: USING VERLET I (r-RESPA) MTS SCHEME.
Info: C1 SPLITTING OF LONG RANGE ELECTROSTATICS
Info: PLACING ATOMS IN PATCHES BY HYDROGEN GROUPS
Info: RIGID BONDS TO HYDROGEN : ALL
Info:         ERROR TOLERANCE : 1e-08
Info:          MAX ITERATIONS : 100
Info: RIGID WATER USING SETTLE ALGORITHM
Info: RANDOM NUMBER SEED     1741394303
Info: USE HYDROGEN BONDS?    NO
Info: Using AMBER format force field!
Info: AMBER PARM FILE        mobley_6917738.prmtop
Info: COORDINATE PDB         mobley_6917738.pdb
Info: Exclusions will be read from PARM file!
Info: SCNB (VDW SCALING)     2
Info: USING ARITHMETIC MEAN TO COMBINE L-J SIGMA PARAMETERS
Info: BINARY COORDINATES     mobley_6917738_min.coor
Info: SUMMARY OF PARAMETERS:
Info: 7 BONDS
Info: 9 ANGLES
Info:   9 HARMONIC
Info:   0 COSINE-BASED
Info: 9 DIHEDRAL
Info: 0 IMPROPER
Info: 0 CROSSTERM
Info: 0 VDW
Info: 28 VDW_PAIRS
Info: 0 NBTHOLE_PAIRS
Info: STRUCTURE SUMMARY:
Info: 4391 ATOMS
Info: 4390 BONDS
Info: 22 ANGLES
Info: 25 DIHEDRALS
Info: 0 IMPROPERS
Info: 0 CROSSTERMS
Info: 4433 EXCLUSIONS
Info: 4386 RIGID BONDS
Info: 8787 DEGREES OF FREEDOM
Info: 1464 HYDROGEN GROUPS
Info: 4 ATOMS IN LARGEST HYDROGEN GROUP
Info: 1464 MIGRATION GROUPS
Info: 4 ATOMS IN LARGEST MIGRATION GROUP
Info: TOTAL MASS = 26360.5 amu
Info: TOTAL CHARGE = 0.000300065 e
Info: MASS DENSITY = 0.720023 g/cm^3
Info: ATOM DENSITY = 0.0722267 atoms/A^3
Info: ADDED 0 IMPLICIT EXCLUSIONS
Info: NONBONDED TABLE R-SQUARED SPACING: 0.0625
Info: NONBONDED TABLE SIZE: 705 POINTS
Info: REMOVING COM VELOCITY 0.00653391 -0.0749626 0.00355666
TCL: Running for 25000 steps
ETITLE: TS BOND ANGLE DIHED IMPRP ELECT VDW BOUNDARY MISC KINETIC TOTAL TEMP POTENTIAL TOTAL3 TEMPAVG PRESSURE GPRESSURE VOLUME PRESSAVG GPRESSAVG
ENERGY: 0 0.3023 0.2901 3.2210 0.0000 -20061.8246 3443.2593 0.0000 0.0000 2604.3460 -14010.4059 298.2967 -16614.7519 -14009.8995 298.2967 86.0498 130.6092 60794.6767 86.0498 130.6092
ENERGY: 5000 0.1600 0.8395 2.7839 0.0000 -20991.2171 3608.1452 0.0000 0.0000 262.1112 -17117.1773 30.0217 -17379.2885 -17116.1021 47.4326 -374.0326 -296.7884 42920.4199 2.0821 2.1818
ENERGY: 10000 0.6116 1.1536 3.0571 0.0000 -21057.4511 3637.1979 0.0000 0.0000 283.0773 -17132.3536 32.4231 -17415.4309 -17131.6540 30.3044 -247.4926 -192.4748 42889.0130 3.0682 3.0624
ENERGY: 15000 0.4602 0.7825 3.1042 0.0000 -21137.8116 3674.3888 0.0000 0.0000 263.2818 -17195.7941 30.1558 -17459.0759 -17195.1543 30.2779 -147.5868 -79.2727 42736.8375 1.0903 1.2284
ENERGY: 20000 0.1382 0.9346 2.9687 0.0000 -21251.5572 3785.4829 0.0000 0.0000 262.2900 -17199.7427 30.0422 -17462.0328 -17199.0968 30.2239 531.5107 578.1808 42628.4830 6.0537 6.1511
ENERGY: 25000 0.2402 0.8758 3.0531 0.0000 -21130.2156 3652.4690 0.0000 0.0000 259.2129 -17214.3646 29.6897 -17473.5775 -17213.7634 30.1540 -227.2405 -198.8656 42825.7037 5.5790 5.3882
TCL: Running 25000 steps at 60 kelvin.
TCL: Setting parameter langevinTemp to 60
TCL: Running for 25000 steps
ETITLE: TS BOND ANGLE DIHED IMPRP ELECT VDW BOUNDARY MISC KINETIC TOTAL TEMP POTENTIAL TOTAL3 TEMPAVG PRESSURE GPRESSURE VOLUME PRESSAVG GPRESSAVG
ENERGY: 25000 0.2402 0.8758 3.0531 0.0000 -21130.2156 3652.4690 0.0000 0.0000 259.0839 -17214.4936 29.6750 -17473.5775 -17214.0078 29.6750 -254.6482 -198.8524 42825.7037 -254.6482 -198.8524
ENERGY: 30000 0.4039 1.4368 3.5920 0.0000 -20937.4786 3685.8625 0.0000 0.0000 536.9784 -16709.2050 61.5045 -17246.1834 -16707.4879 57.5545 590.0124 631.1943 42764.7118 -3.1236 -3.3105
ENERGY: 35000 0.1572 0.9625 3.2072 0.0000 -20807.6606 3532.6538 0.0000 0.0000 544.7875 -16725.8925 62.3989 -17270.6800 -16724.0377 60.7376 -336.1744 -282.8794 42860.7257 2.9610 2.8751
ENERGY: 40000 0.0178 1.4004 3.5440 0.0000 -20969.1114 3630.8371 0.0000 0.0000 538.8992 -16794.4128 61.7245 -17333.3120 -16792.9607 60.4949 68.9805 126.3886 42624.6444 -4.2484 -4.1281
ENERGY: 45000 0.8353 1.5374 3.2714 0.0000 -20791.8382 3448.3453 0.0000 0.0000 524.7531 -16813.0956 60.1042 -17337.8487 -16811.0094 59.9481 -1084.9657 -1030.1458 42956.6512 5.1394 5.0943
ENERGY: 50000 0.5366 1.1971 3.0147 0.0000 -20828.9593 3492.4949 0.0000 0.0000 513.0738 -16818.6423 58.7665 -17331.7160 -16817.9242 59.4799 -863.1130 -781.7373 42895.9095 7.2918 7.0057
TCL: Running 25000 steps at 90 kelvin.
TCL: Setting parameter langevinTemp to 90
TCL: Running for 25000 steps
ETITLE: TS BOND ANGLE DIHED IMPRP ELECT VDW BOUNDARY MISC KINETIC TOTAL TEMP POTENTIAL TOTAL3 TEMPAVG PRESSURE GPRESSURE VOLUME PRESSAVG GPRESSAVG
ENERGY: 50000 0.5366 1.1971 3.0147 0.0000 -20828.9593 3492.4949 0.0000 0.0000 512.8134 -16818.9026 58.7366 -17331.7160 -16817.8461 58.7366 -839.9562 -782.1398 42895.9095 -839.9562 -782.1398
ENERGY: 55000 0.5579 1.3743 3.5782 0.0000 -20661.6963 3546.9967 0.0000 0.0000 802.2894 -16306.8998 91.8927 -17109.1893 -16305.3786 86.9535 77.1815 167.4119 42854.5070 5.2289 4.9805
ENERGY: 60000 0.8944 0.8201 3.1529 0.0000 -20763.8075 3621.2741 0.0000 0.0000 810.6772 -16326.9888 92.8534 -17137.6660 -16325.1011 90.1581 615.2840 694.4797 42626.5835 2.9431 3.0210
ENERGY: 65000 0.3372 2.6838 3.5771 0.0000 -20459.0190 3338.7092 0.0000 0.0000 791.6529 -16322.0588 90.6744 -17113.7116 -16320.0276 90.9049 -939.7391 -888.7920 42863.2716 1.3558 1.1252
ENERGY: 70000 0.1382 2.1897 2.9130 0.0000 -20528.8607 3378.3113 0.0000 0.0000 824.4778 -16320.8308 94.4341 -17145.3086 -16318.2994 90.9683 -686.5300 -633.7229 42707.3385 4.6474 4.7897
ENERGY: 75000 0.5819 3.1627 2.9566 0.0000 -20579.3328 3406.7770 0.0000 0.0000 771.5017 -16394.3530 88.3663 -17165.8547 -16392.0259 90.7940 -788.5192 -696.8451 42873.5462 -2.4150 -2.1618
TCL: Running 25000 steps at 120 kelvin.
TCL: Setting parameter langevinTemp to 120
TCL: Running for 25000 steps
ETITLE: TS BOND ANGLE DIHED IMPRP ELECT VDW BOUNDARY MISC KINETIC TOTAL TEMP POTENTIAL TOTAL3 TEMPAVG PRESSURE GPRESSURE VOLUME PRESSAVG GPRESSAVG
ENERGY: 75000 0.5819 3.1627 2.9566 0.0000 -20579.3328 3406.7770 0.0000 0.0000 771.1368 -16394.7179 88.3245 -17165.8547 -16393.2926 88.3245 -749.4421 -696.4306 42873.5462 -749.4421 -696.4306
ENERGY: 80000 0.0899 2.5496 3.1370 0.0000 -20098.4749 3215.1756 0.0000 0.0000 1041.7121 -15835.8108 119.3157 -16877.5228 -15833.8878 116.9705 -1018.6001 -949.8706 43065.1928 4.4838 5.0419
ENERGY: 85000 0.4827 1.6908 2.7748 0.0000 -20332.6418 3459.9353 0.0000 0.0000 1060.8803 -15806.8779 121.5112 -16867.7582 -15805.4287 120.3431 390.7358 451.3088 42797.1351 7.3470 7.4426
ENERGY: 90000 0.3081 2.0673 2.9176 0.0000 -20345.1091 3463.7636 0.0000 0.0000 1049.3277 -15826.7248 120.1879 -16876.0525 -15824.1064 120.6730 437.5528 503.4883 42689.3304 0.8898 0.8299
ENERGY: 95000 0.2933 1.9259 2.7646 0.0000 -20348.5369 3423.5877 0.0000 0.0000 1056.9455 -15863.0199 121.0605 -16919.9655 -15860.4083 121.0659 78.4161 120.9703 42878.9570 2.2158 2.0654
ENERGY: 100000 0.2804 2.6634 3.7018 0.0000 -20323.5724 3344.9056 0.0000 0.0000 1033.9010 -15938.1203 118.4210 -16972.0213 -15935.9746 120.2826 -544.5906 -496.8600 42879.5271 4.5654 3.9206
TCL: Running 25000 steps at 150 kelvin.
TCL: Setting parameter langevinTemp to 150
TCL: Running for 25000 steps
ETITLE: TS BOND ANGLE DIHED IMPRP ELECT VDW BOUNDARY MISC KINETIC TOTAL TEMP POTENTIAL TOTAL3 TEMPAVG PRESSURE GPRESSURE VOLUME PRESSAVG GPRESSAVG
ENERGY: 100000 0.2804 2.6634 3.7018 0.0000 -20323.5724 3344.9056 0.0000 0.0000 1033.3828 -15938.6385 118.3616 -16972.0213 -15936.4680 118.3616 -559.5405 -497.7172 42879.5271 -559.5405 -497.7172
ENERGY: 105000 0.4143 2.1195 3.0505 0.0000 -19849.4968 3198.3018 0.0000 0.0000 1307.8815 -15337.7292 149.8022 -16645.6107 -15335.4325 145.6262 -499.9435 -423.2525 43120.0110 1.9431 2.0126
ENERGY: 110000 0.4401 2.7327 2.8838 0.0000 -19758.9741 3172.8989 0.0000 0.0000 1281.8024 -15298.2163 146.8151 -16580.0187 -15293.8903 149.6412 -547.4737 -518.6896 43176.7117 4.0437 4.2575
ENERGY: 115000 0.4030 4.3239 3.3694 0.0000 -19992.4419 3309.9728 0.0000 0.0000 1288.5682 -15385.8046 147.5901 -16674.3728 -15381.7375 149.3223 -144.3732 -81.8539 43064.4902 -0.2442 -0.0063
ENERGY: 120000 1.4043 5.1517 2.9809 0.0000 -20084.8322 3414.6877 0.0000 0.0000 1332.5499 -15328.0577 152.6277 -16660.6076 -15326.2875 150.0804 517.6419 570.7414 42999.9315 1.4327 1.5375
ENERGY: 125000 0.2358 2.5737 3.0810 0.0000 -20070.2911 3378.8956 0.0000 0.0000 1310.4662 -15375.0388 150.0982 -16685.5050 -15371.9038 149.9512 397.4166 484.3721 42646.3215 4.1740 4.0033
TCL: Running 50000 steps at 180 kelvin.
TCL: Setting parameter langevinTemp to 180
TCL: Running for 50000 steps
ETITLE: TS BOND ANGLE DIHED IMPRP ELECT VDW BOUNDARY MISC KINETIC TOTAL TEMP POTENTIAL TOTAL3 TEMPAVG PRESSURE GPRESSURE VOLUME PRESSAVG GPRESSAVG
ENERGY: 125000 0.2358 2.5737 3.0810 0.0000 -20070.2911 3378.8956 0.0000 0.0000 1309.7974 -15375.7076 150.0216 -16685.5050 -15373.2718 150.0216 421.6787 484.4504 42646.3215 421.6787 484.4504
ENERGY: 135000 0.4094 2.7346 3.9306 0.0000 -19534.2260 3215.9803 0.0000 0.0000 1551.4782 -14759.6928 177.7033 -16311.1710 -14756.0889 179.9773 269.6869 273.9606 43267.9910 1.9480 2.2842
ENERGY: 145000 0.8065 4.0812 2.9489 0.0000 -19454.3406 3114.3949 0.0000 0.0000 1528.5137 -14803.5954 175.0730 -16332.1091 -14797.9647 178.6973 -249.0443 -181.6062 43010.4902 5.3848 5.0204
ENERGY: 155000 0.1582 4.6577 2.8219 0.0000 -19396.4053 3031.2335 0.0000 0.0000 1561.6949 -14795.8391 178.8735 -16357.5340 -14791.0896 179.5493 -823.8058 -703.7673 43255.7269 3.3077 3.4598
ENERGY: 165000 0.6447 5.7391 3.0271 0.0000 -19458.4818 3112.1962 0.0000 0.0000 1546.3491 -14790.5256 177.1158 -16336.8746 -14785.9845 179.7974 -393.3374 -281.4596 43231.7674 5.4399 5.0479
ENERGY: 175000 1.4714 3.3739 3.1843 0.0000 -19435.1228 3083.5294 0.0000 0.0000 1551.9317 -14791.6321 177.7552 -16343.5639 -14787.5694 180.0698 -460.7249 -392.4916 43107.9604 4.0781 3.8697
TCL: Running 50000 steps at 210 kelvin.
TCL: Setting parameter langevinTemp to 210
TCL: Running for 50000 steps
ETITLE: TS BOND ANGLE DIHED IMPRP ELECT VDW BOUNDARY MISC KINETIC TOTAL TEMP POTENTIAL TOTAL3 TEMPAVG PRESSURE GPRESSURE VOLUME PRESSAVG GPRESSAVG
ENERGY: 175000 1.4714 3.3739 3.1843 0.0000 -19435.1228 3083.5294 0.0000 0.0000 1551.1213 -14792.4425 177.6624 -16343.5639 -14789.1769 177.6624 -460.1183 -392.3174 43107.9604 -460.1183 -392.3174
ENERGY: 185000 0.7580 3.6260 2.8263 0.0000 -18609.8356 2852.1003 0.0000 0.0000 1896.0160 -13854.5090 217.1660 -15750.5250 -13850.1748 209.4170 -14.0243 19.0317 42679.0718 6.0082 5.5468
ENERGY: 195000 1.1246 5.6471 3.0737 0.0000 -18542.0758 2928.9527 0.0000 0.0000 1840.3648 -13762.9130 210.7918 -15603.2778 -13760.4001 209.6844 428.5681 514.5252 43240.4809 -1.7103 -1.7005
ENERGY: 205000 0.7861 3.6326 2.7722 0.0000 -18518.2456 2908.4718 0.0000 0.0000 1866.4777 -13736.1053 213.7827 -15602.5830 -13733.1824 211.4417 592.6495 684.0742 42827.8160 4.6445 4.4114
ENERGY: 215000 0.6904 5.9016 3.4301 0.0000 -18555.0044 2926.2877 0.0000 0.0000 1905.1549 -13713.5398 218.2127 -15618.6947 -13710.5728 210.6672 687.3803 795.9463 42461.8022 5.4564 5.2654
ENERGY: 225000 0.3782 2.7788 4.7494 0.0000 -18500.7517 2857.3395 0.0000 0.0000 1830.2901 -13805.2158 209.6378 -15635.5059 -13799.5626 210.2744 275.1544 340.1473 42673.6178 3.0543 3.5485
TCL: Running 50000 steps at 240 kelvin.
TCL: Setting parameter langevinTemp to 240
TCL: Running for 50000 steps
ETITLE: TS BOND ANGLE DIHED IMPRP ELECT VDW BOUNDARY MISC KINETIC TOTAL TEMP POTENTIAL TOTAL3 TEMPAVG PRESSURE GPRESSURE VOLUME PRESSAVG GPRESSAVG
ENERGY: 225000 0.3782 2.7788 4.7494 0.0000 -18500.7517 2857.3395 0.0000 0.0000 1829.4025 -13806.1033 209.5362 -15635.5059 -13802.7189 209.5362 271.2500 340.8190 42673.6178 271.2500 340.8190
ENERGY: 235000 1.1567 4.8459 3.5812 0.0000 -17455.9410 2514.2959 0.0000 0.0000 2097.5455 -12834.5158 240.2488 -14932.0613 -12830.1529 239.3665 -284.6242 -220.3639 43545.1816 4.3836 4.5699
ENERGY: 245000 0.5430 8.4252 2.6303 0.0000 -17467.3494 2496.5016 0.0000 0.0000 2048.9043 -12910.3450 234.6775 -14959.2493 -12905.6280 240.5073 -328.4934 -296.8999 43397.8646 0.9867 0.9145
ENERGY: 255000 1.3674 7.5554 3.5130 0.0000 -17470.4433 2454.8868 0.0000 0.0000 2089.9378 -12913.1829 239.3774 -15003.1207 -12910.1136 239.6836 -760.5167 -676.6342 43564.8694 2.9821 3.4423
ENERGY: 265000 1.7032 4.1867 3.0280 0.0000 -17412.3285 2392.9838 0.0000 0.0000 2113.1615 -12897.2653 242.0374 -15010.4268 -12894.2193 240.0266 -942.1979 -825.1894 43352.7595 5.6894 5.3739
ENERGY: 275000 0.4612 3.7327 2.4535 0.0000 -17795.1113 2724.1785 0.0000 0.0000 2089.8379 -12974.4475 239.3659 -15064.2854 -12971.1668 241.8646 938.7090 1062.2527 42398.7568 5.0372 4.4655
TCL: Running 50000 steps at 270 kelvin.
TCL: Setting parameter langevinTemp to 270
TCL: Running for 50000 steps
ETITLE: TS BOND ANGLE DIHED IMPRP ELECT VDW BOUNDARY MISC KINETIC TOTAL TEMP POTENTIAL TOTAL3 TEMPAVG PRESSURE GPRESSURE VOLUME PRESSAVG GPRESSAVG
ENERGY: 275000 0.4612 3.7327 2.4535 0.0000 -17795.1113 2724.1785 0.0000 0.0000 2088.8115 -12975.4739 239.2484 -15064.2854 -12971.9524 239.2484 974.3669 1059.6793 42398.7568 974.3669 1059.6793
ENERGY: 285000 0.6854 5.0283 4.1009 0.0000 -16673.8197 2330.0452 0.0000 0.0000 2346.2990 -11987.6608 268.7405 -14333.9598 -11982.6346 271.0726 128.0431 242.3598 43804.0397 4.5510 4.1763
ENERGY: 295000 1.1037 10.1831 2.9704 0.0000 -16742.1359 2408.1673 0.0000 0.0000 2339.9153 -11979.7961 268.0093 -14319.7114 -11974.9133 270.3218 335.9267 398.7998 44196.4265 8.4824 7.7929
ENERGY: 305000 1.6920 3.4695 2.7025 0.0000 -16662.2250 2258.6261 0.0000 0.0000 2430.3444 -11965.3906 278.3669 -14395.7349 -11960.7735 270.2460 -805.6244 -719.3878 44689.5907 0.3224 -0.2862
ENERGY: 315000 0.6635 5.2148 3.1746 0.0000 -16672.0777 2304.8234 0.0000 0.0000 2341.2404 -12016.9610 268.1611 -14358.2014 -12010.5877 271.1676 -243.7498 -188.8100 44215.0419 2.5021 2.7764
ENERGY: 325000 0.8835 3.7143 4.0914 0.0000 -16759.7116 2393.8230 0.0000 0.0000 2364.4104 -11992.7889 270.8149 -14357.1993 -11988.5858 271.1847 347.6694 410.8452 43975.1373 2.3769 2.3915
TCL: Running 1000000 steps at 300 kelvin.
TCL: Setting parameter langevinTemp to 300
TCL: Running for 1000000 steps
ETITLE: TS BOND ANGLE DIHED IMPRP ELECT VDW BOUNDARY MISC KINETIC TOTAL TEMP POTENTIAL TOTAL3 TEMPAVG PRESSURE GPRESSURE VOLUME PRESSAVG GPRESSAVG
ENERGY: 325000 0.8835 3.7143 4.0914 0.0000 -16759.7116 2393.8230 0.0000 0.0000 2363.2228 -11993.9765 270.6789 -14357.1993 -11989.7409 270.6789 316.0316 409.5971 43975.1373 316.0316 409.5971
ENERGY: 525000 1.6918 4.5665 1.9587 0.0000 -15839.1741 2194.0526 0.0000 0.0000 2607.1460 -11029.7586 298.6174 -13636.9045 -11028.0284 301.5541 546.5107 570.0276 45317.6510 0.9124 1.3372
ENERGY: 725000 0.3849 9.9257 3.2452 0.0000 -15702.4538 2013.7677 0.0000 0.0000 2628.7085 -11046.4219 301.0871 -13675.1303 -11043.1277 299.8441 -532.0675 -448.2955 45148.1692 4.7824 4.8316
ENERGY: 925000 1.5187 7.4005 2.9326 0.0000 -15960.6460 2150.2824 0.0000 0.0000 2649.3036 -11149.2082 303.4461 -13798.5118 -11140.6286 300.3830 -99.8988 10.3599 45218.9472 -1.3209 -0.9412
ENERGY: 1125000 1.2057 9.1207 2.7535 0.0000 -16070.9729 2204.8089 0.0000 0.0000 2560.2775 -11292.8065 293.2492 -13853.0840 -11289.7306 299.2310 75.2232 147.6312 45055.4465 -3.2920 -3.5654
ENERGY: 1325000 1.9735 6.5065 4.3498 0.0000 -15897.1635 2093.3327 0.0000 0.0000 2636.1122 -11154.8888 301.9351 -13791.0010 -11148.5165 302.6814 -305.8047 -226.0552 45156.3811 4.6653 5.1741
TCL: Exiting due to exit command.
