Info: SIMULATION PARAMETERS:
Info: TIMESTEP               2
Info: NUMBER OF STEPS        0
Info: STEPS PER CYCLE        10
Info: PERIODIC CELL BASIS 1  31.5456 0 0
Info: PERIODIC CELL BASIS 2  0 31.1246 0
Info: PERIODIC CELL BASIS 3  0 0 31.3988
Info: PERIODIC CELL CENTER   0 0 0
Info: WRAPPING WATERS AROUND PERIODIC BOUNDARIES ON OUTPUT.
Info: WRAPPING ALL CLUSTERS AROUND PERIODIC BOUNDARIES ON OUTPUT.
Info: FIRST LDB TIMESTEP     50
Info: LAST LDB TIMESTEP     -1
Info: HOM BACKGROUND SCALING 1
Info: PME BACKGROUND SCALING 1
Info: MIN ATOMS PER PATCH    40
Info: EMPTY PATCH LOAD       40 ATOMS
Info: VELOCITY FILE          mobley_8006582_equil.vel
Info: CENTER OF MASS MOVING INITIALLY? NO
Info: DIELECTRIC             1
Info: EXCLUDE                SCALED ONE-FOUR
Info: 1-4 ELECTROSTATICS SCALED BY 0.833333
Info: MODIFIED 1-4 VDW PARAMETERS WILL BE USED
Info: DCD FILENAME           mobley_8006582_prod.dcd
Info: DCD FREQUENCY          100000
Info: DCD FIRST STEP         100000
Info: DCD FILE WILL CONTAIN UNIT CELL DATA
Info: XST FILENAME           mobley_8006582_prod.xst
Info: XST FREQUENCY          100000
Info: NO VELOCITY DCD OUTPUT
Info: NO FORCE DCD OUTPUT
Info: OUTPUT FILENAME        mobley_8006582_prod
Info: BINARY OUTPUT FILES WILL BE USED
Info: RESTART FILENAME       mobley_8006582_prod.restart
Info: RESTART FREQUENCY      100000
Info: BINARY RESTART FILES WILL BE USED
Info: CUTOFF                 9
Info: PAIRLIST DISTANCE      11
Info: PAIRLIST SHRINK RATE   0.01
Info: PAIRLIST GROW RATE     0.01
Info: PAIRLIST TRIGGER       0.3
Info: PAIRLISTS PER CYCLE    2
Info: PAIRLISTS ENABLED
Info: MARGIN                 2
Info: HYDROGEN GROUP CUTOFF  2.5
Info: PATCH DIMENSION        15.5
Info: ENERGY OUTPUT STEPS    100000
Info: ENERGY EVALUATION STEPS    100000
Info: OUTPUT ENERGY PRECISION 4
Info: CROSSTERM ENERGY INCLUDED IN DIHEDRAL
Info: TIMING OUTPUT STEPS    1000000
Info: PRESSURE OUTPUT STEPS  100000
Info: ALCHEMICAL FEP ON
Info: FEP CURRENT LAMBDA VALUE     0
Info: FEP COMPARISON LAMBDA VALUE  0.05
Info: FEP INTRA-ALCHEMICAL NON-BONDED INTERACTIONS WILL BE RETAINED
Info: FEP INTRA-ALCHEMICAL BONDED INTERACTIONS WILL BE RETAINED
Info: FEP VDW SHIFTING COEFFICIENT 5
Info: FEP ELEC. ACTIVE FOR ANNIHILATED PARTICLES BETWEEN LAMBDA = 0 AND LAMBDA = 0.5
Info: FEP ELEC. ACTIVE FOR EXNIHILATED PARTICLES BETWEEN LAMBDA = 0.5 AND LAMBDA = 1
Info: FEP VDW ACTIVE FOR ANNIHILATED PARTICLES BETWEEN LAMBDA = 0 AND LAMBDA = 1
Info: FEP VDW ACTIVE FOR EXNIHILATED PARTICLES BETWEEN LAMBDA = 0 AND LAMBDA = 1
Info: FEP BOND ACTIVE FOR ANNIHILATED PARTICLES BETWEEN LAMBDA = 1 AND LAMBDA = 1
Info: FEP BOND ACTIVE FOR EXNIHILATED PARTICLES BETWEEN LAMBDA = 0 AND LAMBDA = 0
Info: LANGEVIN DYNAMICS ACTIVE
Info: LANGEVIN TEMPERATURE   300
Info: LANGEVIN USING BBK INTEGRATOR
Info: LANGEVIN DAMPING COEFFICIENT IS 1 INVERSE PS
Info: LANGEVIN DYNAMICS APPLIED TO HYDROGENS
Info: LANGEVIN PISTON PRESSURE CONTROL ACTIVE
Info:        TARGET PRESSURE IS 1.01325 BAR
Info:     OSCILLATION PERIOD IS 50 FS
Info:             DECAY TIME IS 25 FS
Info:     PISTON TEMPERATURE IS 300 K
Info:       PRESSURE CONTROL IS GROUP-BASED
Info:    INITIAL STRAIN RATE IS -7.21505e-05 -7.21505e-05 -7.21505e-05
Info:       CELL FLUCTUATION IS ISOTROPIC
Info: PARTICLE MESH EWALD (PME) ACTIVE
Info: PME TOLERANCE               1e-06
Info: PME EWALD COEFFICIENT       0.348832
Info: PME INTERPOLATION ORDER     4
Info: PME GRID DIMENSIONS         32 32 32
Info: PME MAXIMUM GRID SPACING    1
Info: PME CALCULATION WILL BE PERFORMED ON GPU
Info: FULL ELECTROSTATIC EVALUATION FREQUENCY      2
Info: USING VERLET I (r-RESPA) MTS SCHEME.
Info: C1 SPLITTING OF LONG RANGE ELECTROSTATICS
Info: PLACING ATOMS IN PATCHES BY HYDROGEN GROUPS
Info: RIGID BONDS TO HYDROGEN : ALL
Info:         ERROR TOLERANCE : 1e-08
Info:          MAX ITERATIONS : 100
Info: RIGID WATER USING SETTLE ALGORITHM
Info: RANDOM NUMBER SEED     1742265530
Info: USE HYDROGEN BONDS?    NO
Info: Using AMBER format force field!
Info: AMBER PARM FILE        mobley_8006582.prmtop
Info: COORDINATE PDB         mobley_8006582.pdb
Info: Exclusions will be read from PARM file!
Info: SCNB (VDW SCALING)     2
Info: USING ARITHMETIC MEAN TO COMBINE L-J SIGMA PARAMETERS
Info: BINARY COORDINATES     mobley_8006582_equil.coor
Info: SUMMARY OF PARAMETERS:
Info: 4 BONDS
Info: 3 ANGLES
Info:   3 HARMONIC
Info:   0 COSINE-BASED
Info: 3 DIHEDRAL
Info: 0 IMPROPER
Info: 0 CROSSTERM
Info: 0 VDW
Info: 10 VDW_PAIRS
Info: 0 NBTHOLE_PAIRS
Info: To read alchdata from file: mobley_8006582.pdb
Info: To read alchflag data from column: 5
Info: STRUCTURE SUMMARY:
Info: 2991 ATOMS
Info: 2991 BONDS
Info: 30 ANGLES
Info: 45 DIHEDRALS
Info: 0 IMPROPERS
Info: 0 CROSSTERMS
Info: 3061 EXCLUSIONS
Info: 2986 RIGID BONDS
Info: ALCH: 0 ATOMS TO DISAPPEAR IN FINAL STATE
Info: ALCH: 15 ATOMS TO APPEAR IN FINAL STATE
Info: 5987 DEGREES OF FREEDOM
Info: 997 HYDROGEN GROUPS
Info: 3 ATOMS IN LARGEST HYDROGEN GROUP
Info: 997 MIGRATION GROUPS
Info: 3 ATOMS IN LARGEST MIGRATION GROUP
Info: TOTAL MASS = 17942 amu
Info: TOTAL CHARGE = -0.000499971 e
Info: MASS DENSITY = 0.966441 g/cm^3
Info: ATOM DENSITY = 0.09702 atoms/A^3
Info: ADDED 0 IMPLICIT EXCLUSIONS
Info: NONBONDED TABLE R-SQUARED SPACING: 0.0625
Info: NONBONDED TABLE SIZE: 705 POINTS
Info: REMOVING COM VELOCITY -0.101959 0.209333 0.125304
Info: Use 3D box decompostion in PME FFT.
Info: Updated CUDA force table with 4096 elements.
Info: Updated CUDA LJ table with 4 x 4 elements.
Info: Found 18 unique exclusion lists needing 40 bytes
TCL: Running for 1500000 steps
ETITLE: TS BOND ANGLE DIHED IMPRP ELECT VDW BOUNDARY MISC KINETIC TOTAL TEMP POTENTIAL TOTALAVG TEMPAVG PRESSURE GPRESSURE VOLUME PRESSAVG GPRESSAVG
ENERGY: 0 2.5245 14.4638 11.2281 0.0000 -10720.5061 1468.8898 0.0000 0.0000 1775.4433 -7447.9566 298.4612 -9223.4000 -7447.9566 298.4612 299.8230 383.7813 30828.6854 299.8230 383.7813
ENERGY: 300000 2.7791 15.3498 10.5174 0.0000 -10858.2766 1442.7118 0.0000 0.0000 1751.4465 -7635.4720 294.4272 -9386.9185 -7569.5760 295.2396 -489.0551 -419.7023 30758.6319 71.3820 136.9115
ENERGY: 600000 0.7075 15.5338 8.6593 0.0000 -10831.6630 1457.9986 0.0000 0.0000 1767.7471 -7581.0167 297.1675 -9348.7638 -7568.1360 297.6151 -134.8758 -63.9740 30887.3298 15.6171 84.9213
ENERGY: 900000 0.9795 13.0569 8.4663 0.0000 -10780.0711 1442.1617 0.0000 0.0000 1818.0331 -7497.3736 305.6208 -9315.4067 -7573.9684 297.4956 -21.2816 62.4713 30894.5997 -80.6257 -15.1064
ENERGY: 1200000 0.6326 11.1710 9.2459 0.0000 -10798.9121 1414.1586 0.0000 0.0000 1773.9388 -7589.7652 298.2083 -9363.7040 -7575.9730 297.3012 -285.1120 -212.4077 30555.6605 -114.6639 -50.9083
ENERGY: 1500000 1.5532 9.9218 11.7063 0.0000 -10782.2068 1444.3051 0.0000 0.0000 1755.4816 -7559.2387 295.1056 -9314.7203 -7574.0031 296.6058 -5.8651 35.3071 30670.7432 -45.4946 17.7386
TCL: Running FEP window   2: Lambda1 0.05   Lambda2 0.1    [dLambda 0.05  ]
TCL: Setting parameter firsttimestep to 0
TCL: Setting parameter alchLambda to 0.05
Info: NONBONDED TABLE R-SQUARED SPACING: 0.0625
Info: NONBONDED TABLE SIZE: 705 POINTS
TCL: Setting parameter alchLambda2 to 0.1
Info: NONBONDED TABLE R-SQUARED SPACING: 0.0625
Info: NONBONDED TABLE SIZE: 705 POINTS
TCL: Running for 1500000 steps
ETITLE: TS BOND ANGLE DIHED IMPRP ELECT VDW BOUNDARY MISC KINETIC TOTAL TEMP POTENTIAL TOTALAVG TEMPAVG PRESSURE GPRESSURE VOLUME PRESSAVG GPRESSAVG
ENERGY: 0 1.5532 9.9218 11.7063 0.0000 -10782.2072 1445.8054 0.0000 0.0000 1754.5826 -7558.6379 294.9544 -9313.2205 -7558.6379 294.9544 -43.9586 40.6228 30670.7432 -43.9586 40.6228
ENERGY: 300000 0.6089 9.6212 8.9396 0.0000 -10760.3789 1382.5831 0.0000 0.0000 1812.1054 -7546.5206 304.6243 -9358.6261 -7587.0288 297.1569 -555.0128 -545.2858 30796.1178 -334.4693 -268.4017
ENERGY: 600000 2.7111 12.2505 9.6402 0.0000 -10745.9838 1395.6327 0.0000 0.0000 1792.6460 -7533.1034 301.3531 -9325.7494 -7546.2544 299.4843 -447.9245 -364.0044 30725.5911 -448.5691 -392.2215
ENERGY: 900000 0.8466 11.0134 11.0446 0.0000 -10679.4504 1451.3140 0.0000 0.0000 1858.4820 -7346.7498 312.4205 -9205.2318 -7528.4745 301.4488 340.3534 372.1462 30917.7234 -252.3429 -205.8204
ENERGY: 1200000 1.6678 13.6835 9.6233 0.0000 -10820.9373 1473.4437 0.0000 0.0000 1702.4930 -7620.0261 286.1979 -9322.5190 -7552.6325 299.9187 -191.6850 -71.4739 31002.6797 -202.2230 -155.7983
ENERGY: 1500000 0.9286 12.9795 8.9291 0.0000 -10880.9899 1507.3233 0.0000 0.0000 1758.3724 -7592.4569 295.5915 -9350.8294 -7560.2630 299.3768 404.4120 405.1350 31006.3382 -131.0261 -87.6496
TCL: Running FEP window   3: Lambda1 0.1    Lambda2 0.15000000000000002 [dLambda 0.05000000000000002]
TCL: Setting parameter firsttimestep to 0
TCL: Setting parameter alchLambda to 0.1
Info: NONBONDED TABLE R-SQUARED SPACING: 0.0625
Info: NONBONDED TABLE SIZE: 705 POINTS
TCL: Setting parameter alchLambda2 to 0.15000000000000002
Info: NONBONDED TABLE R-SQUARED SPACING: 0.0625
Info: NONBONDED TABLE SIZE: 705 POINTS
TCL: Running for 1500000 steps
ETITLE: TS BOND ANGLE DIHED IMPRP ELECT VDW BOUNDARY MISC KINETIC TOTAL TEMP POTENTIAL TOTALAVG TEMPAVG PRESSURE GPRESSURE VOLUME PRESSAVG GPRESSAVG
ENERGY: 0 0.9286 12.9795 8.9291 0.0000 -10880.9886 1507.6890 0.0000 0.0000 1757.4606 -7593.0019 295.4382 -9350.4624 -7593.0019 295.4382 319.1836 408.1341 31006.3382 319.1836 408.1341
ENERGY: 300000 1.2941 10.5994 8.3135 0.0000 -10901.2182 1474.3225 0.0000 0.0000 1771.9967 -7634.6920 297.8818 -9406.6887 -7567.1500 299.8926 199.3497 235.6876 30183.1906 239.2242 294.3549
ENERGY: 600000 0.3389 13.6486 9.9152 0.0000 -10720.9327 1351.1885 0.0000 0.0000 1852.6215 -7493.2201 311.4353 -9345.8416 -7561.2409 300.2031 -716.7540 -683.1812 30661.6949 -129.9365 -65.3384
ENERGY: 900000 1.5765 11.3742 11.3154 0.0000 -10749.4578 1413.5999 0.0000 0.0000 1748.7905 -7562.8013 293.9808 -9311.5918 -7548.0096 300.1047 -446.6076 -379.2133 30788.9037 -100.7454 -38.9291
ENERGY: 1200000 0.3573 11.7923 10.9342 0.0000 -10817.7691 1461.1302 0.0000 0.0000 1770.2322 -7563.3230 297.5852 -9333.5552 -7559.0604 299.3669 143.4959 169.9104 30548.4878 -78.0251 -14.9167
ENERGY: 1500000 2.3214 10.9132 8.8898 0.0000 -10869.4474 1478.6781 0.0000 0.0000 1837.4969 -7531.1481 308.8928 -9368.6449 -7571.9571 298.9474 55.2580 115.3683 30735.3697 -66.0471 -0.5570
TCL: Running FEP window   4: Lambda1 0.15000000000000002 Lambda2 0.2    [dLambda 0.04999999999999999]
TCL: Setting parameter firsttimestep to 0
TCL: Setting parameter alchLambda to 0.15000000000000002
Info: NONBONDED TABLE R-SQUARED SPACING: 0.0625
Info: NONBONDED TABLE SIZE: 705 POINTS
TCL: Setting parameter alchLambda2 to 0.2
Info: NONBONDED TABLE R-SQUARED SPACING: 0.0625
Info: NONBONDED TABLE SIZE: 705 POINTS
TCL: Running for 1500000 steps
ETITLE: TS BOND ANGLE DIHED IMPRP ELECT VDW BOUNDARY MISC KINETIC TOTAL TEMP POTENTIAL TOTALAVG TEMPAVG PRESSURE GPRESSURE VOLUME PRESSAVG GPRESSAVG
ENERGY: 0 2.3214 10.9132 8.8898 0.0000 -10869.4492 1479.5657 0.0000 0.0000 1836.6037 -7531.1553 308.7426 -9367.7591 -7531.1553 308.7426 42.2701 121.9675 30735.3697 42.2701 121.9675
ENERGY: 300000 0.5285 14.6204 9.1601 0.0000 -10782.9451 1516.9815 0.0000 0.0000 1816.3702 -7425.2844 305.3413 -9241.6546 -7494.0530 304.4103 729.8880 842.1053 30756.2077 183.6469 276.3740
ENERGY: 600000 1.1558 13.1455 10.9380 0.0000 -10846.6903 1502.6654 0.0000 0.0000 1773.2341 -7545.5515 298.0899 -9318.7857 -7510.4648 301.6937 330.6353 447.5662 30589.8937 11.9751 110.6863
ENERGY: 900000 0.7565 14.6722 8.9147 0.0000 -10762.7232 1456.2045 0.0000 0.0000 1835.3621 -7446.8132 308.5339 -9282.1753 -7512.8659 302.2709 67.5178 219.6784 30786.2604 69.2968 163.4482
ENERGY: 1200000 1.7880 10.6556 11.4009 0.0000 -10791.8428 1480.2287 0.0000 0.0000 1801.5276 -7486.2421 302.8461 -9287.7697 -7521.0455 301.4941 458.8198 553.7593 30504.2747 75.9870 157.0597
ENERGY: 1500000 0.4951 9.1425 9.7320 0.0000 -10947.5810 1482.7953 0.0000 0.0000 1798.9752 -7646.4408 302.4171 -9445.4161 -7530.0788 301.5455 34.4728 83.3127 30539.9424 59.5604 129.8924
TCL: Running FEP window   5: Lambda1 0.2    Lambda2 0.25   [dLambda 0.04999999999999999]
TCL: Setting parameter firsttimestep to 0
TCL: Setting parameter alchLambda to 0.2
Info: NONBONDED TABLE R-SQUARED SPACING: 0.0625
Info: NONBONDED TABLE SIZE: 705 POINTS
TCL: Setting parameter alchLambda2 to 0.25
Info: NONBONDED TABLE R-SQUARED SPACING: 0.0625
Info: NONBONDED TABLE SIZE: 705 POINTS
TCL: Running for 1500000 steps
ETITLE: TS BOND ANGLE DIHED IMPRP ELECT VDW BOUNDARY MISC KINETIC TOTAL TEMP POTENTIAL TOTALAVG TEMPAVG PRESSURE GPRESSURE VOLUME PRESSAVG GPRESSAVG
ENERGY: 0 0.4951 9.1425 9.7320 0.0000 -10947.5814 1484.6828 0.0000 0.0000 1798.0802 -7645.4488 302.2666 -9443.5290 -7645.4488 302.2666 10.9780 93.4655 30539.9424 10.9780 93.4655
ENERGY: 300000 1.8329 11.3155 8.4962 0.0000 -10964.2469 1632.2973 0.0000 0.0000 1756.8424 -7553.4627 295.3343 -9310.3051 -7590.6257 295.8445 1438.4018 1499.8864 30380.2604 148.6814 221.1229
ENERGY: 600000 0.5721 15.4685 7.7713 0.0000 -10871.9411 1439.9696 0.0000 0.0000 1758.0103 -7650.1493 295.5307 -9408.1597 -7588.1729 296.3711 -192.1808 -124.4082 30381.7425 74.3768 140.6379
ENERGY: 900000 1.4057 9.0978 9.5821 0.0000 -10690.2133 1324.3870 0.0000 0.0000 1796.8358 -7548.9049 302.0574 -9345.7407 -7578.9564 297.0436 -1212.1417 -1169.5623 31126.2597 -135.2419 -72.7352
ENERGY: 1200000 1.5922 10.5221 8.3944 0.0000 -10886.0101 1486.3554 0.0000 0.0000 1841.2983 -7537.8476 309.5318 -9379.1460 -7578.7141 298.8525 163.9813 186.3193 30679.1624 -68.7377 -12.7920
ENERGY: 1500000 0.6603 12.5212 8.1049 0.0000 -10717.6978 1417.3125 0.0000 0.0000 1836.0505 -7443.0485 308.6496 -9279.0990 -7578.4275 299.2113 -261.8355 -248.0337 31199.2390 -123.0641 -73.3445
TCL: Running FEP window   6: Lambda1 0.25   Lambda2 0.3    [dLambda 0.04999999999999999]
TCL: Setting parameter firsttimestep to 0
TCL: Setting parameter alchLambda to 0.25
Info: NONBONDED TABLE R-SQUARED SPACING: 0.0625
Info: NONBONDED TABLE SIZE: 705 POINTS
TCL: Setting parameter alchLambda2 to 0.3
Info: NONBONDED TABLE R-SQUARED SPACING: 0.0625
Info: NONBONDED TABLE SIZE: 705 POINTS
TCL: Running for 1500000 steps
ETITLE: TS BOND ANGLE DIHED IMPRP ELECT VDW BOUNDARY MISC KINETIC TOTAL TEMP POTENTIAL TOTALAVG TEMPAVG PRESSURE GPRESSURE VOLUME PRESSAVG GPRESSAVG
ENERGY: 0 0.6603 12.5212 8.1049 0.0000 -10717.6990 1418.0755 0.0000 0.0000 1835.1565 -7443.1806 308.4993 -9278.3372 -7443.1806 308.4993 -316.4304 -241.8780 31199.2390 -316.4304 -241.8780
ENERGY: 300000 3.6111 14.0574 9.1773 0.0000 -10816.4320 1469.4028 0.0000 0.0000 1795.4967 -7524.6867 301.8323 -9320.1834 -7497.9391 302.6101 234.1078 238.0948 30639.1325 -107.4171 -57.9108
ENERGY: 600000 1.2588 12.8537 10.5618 0.0000 -10929.7765 1478.6032 0.0000 0.0000 1826.8361 -7599.6629 307.1006 -9426.4990 -7541.7713 302.9794 -36.8397 0.8409 30697.9222 -178.5228 -136.0986
ENERGY: 900000 0.3660 15.0861 10.1313 0.0000 -10881.3089 1490.5294 0.0000 0.0000 1782.3660 -7582.8301 299.6250 -9365.1961 -7539.6469 302.2726 509.1110 522.0693 30087.7533 -142.0100 -103.6221
ENERGY: 1200000 1.5112 12.7604 7.9174 0.0000 -10772.0274 1396.2577 0.0000 0.0000 1767.1838 -7586.3969 297.0728 -9353.5807 -7542.7816 300.6090 -579.2682 -491.3275 30847.0101 -173.1283 -128.2213
ENERGY: 1500000 2.1727 17.1952 7.6644 0.0000 -10808.8797 1398.3760 0.0000 0.0000 1746.1126 -7637.3588 293.5306 -9383.4715 -7552.8553 299.3594 -884.2232 -806.4187 31081.3120 -176.9357 -128.8252
TCL: Running FEP window   7: Lambda1 0.3    Lambda2 0.35   [dLambda 0.04999999999999999]
TCL: Setting parameter firsttimestep to 0
TCL: Setting parameter alchLambda to 0.3
Info: NONBONDED TABLE R-SQUARED SPACING: 0.0625
Info: NONBONDED TABLE SIZE: 705 POINTS
TCL: Setting parameter alchLambda2 to 0.35
Info: NONBONDED TABLE R-SQUARED SPACING: 0.0625
Info: NONBONDED TABLE SIZE: 705 POINTS
TCL: Running for 1500000 steps
ETITLE: TS BOND ANGLE DIHED IMPRP ELECT VDW BOUNDARY MISC KINETIC TOTAL TEMP POTENTIAL TOTALAVG TEMPAVG PRESSURE GPRESSURE VOLUME PRESSAVG GPRESSAVG
ENERGY: 0 2.1727 17.1951 7.6644 0.0000 -10808.8788 1398.6140 0.0000 0.0000 1745.2368 -7637.9958 293.3834 -9383.2326 -7637.9958 293.3834 -888.7801 -801.2491 31081.3120 -888.7801 -801.2491
ENERGY: 300000 1.5641 13.9077 8.3752 0.0000 -10718.0990 1406.8308 0.0000 0.0000 1753.6673 -7533.7538 294.8006 -9287.4212 -7587.9062 296.5488 -527.7299 -414.5756 31185.9759 -498.1136 -426.5380
ENERGY: 600000 1.7045 13.8497 9.5088 0.0000 -10890.6600 1460.5824 0.0000 0.0000 1799.2960 -7605.7187 302.4710 -9405.0147 -7601.4270 297.4561 -96.6353 -44.5907 30437.3460 -428.4469 -365.0905
ENERGY: 900000 0.9454 9.6632 10.0403 0.0000 -10976.9091 1574.5123 0.0000 0.0000 1775.0102 -7606.7376 298.3884 -9381.7478 -7594.6789 297.7295 1015.0027 1119.6006 30363.6884 -172.6834 -99.2398
ENERGY: 1200000 1.5598 8.8872 8.6892 0.0000 -10908.4546 1493.6272 0.0000 0.0000 1789.8218 -7605.8694 300.8783 -9395.6913 -7599.5671 298.4100 571.1039 604.1967 29998.6747 -36.2089 23.2652
ENERGY: 1500000 1.6892 11.8787 8.4876 0.0000 -10824.2228 1437.8280 0.0000 0.0000 1769.3322 -7595.0072 297.4339 -9364.3394 -7597.7361 298.2683 -144.5453 -165.7472 30765.9573 0.6453 54.6932
TCL: Running FEP window   8: Lambda1 0.35   Lambda2 0.39999999999999997 [dLambda 0.04999999999999999]
TCL: Setting parameter firsttimestep to 0
TCL: Setting parameter alchLambda to 0.35
Info: NONBONDED TABLE R-SQUARED SPACING: 0.0625
Info: NONBONDED TABLE SIZE: 705 POINTS
TCL: Setting parameter alchLambda2 to 0.39999999999999997
Info: NONBONDED TABLE R-SQUARED SPACING: 0.0625
Info: NONBONDED TABLE SIZE: 705 POINTS
TCL: Running for 1500000 steps
ETITLE: TS BOND ANGLE DIHED IMPRP ELECT VDW BOUNDARY MISC KINETIC TOTAL TEMP POTENTIAL TOTALAVG TEMPAVG PRESSURE GPRESSURE VOLUME PRESSAVG GPRESSAVG
ENERGY: 0 1.6892 11.8786 8.4876 0.0000 -10824.2236 1438.0246 0.0000 0.0000 1768.3997 -7595.7440 297.2772 -9364.1437 -7595.7440 297.2772 -213.9517 -161.8292 30765.9573 -213.9517 -161.8292
ENERGY: 300000 0.5265 10.1079 10.8535 0.0000 -10953.2997 1589.7538 0.0000 0.0000 1752.3377 -7589.7202 294.5771 -9342.0579 -7596.8523 295.8361 1163.2002 1191.9412 30316.6210 270.4057 318.9999
ENERGY: 600000 1.9407 14.8872 8.9021 0.0000 -10743.6057 1408.2547 0.0000 0.0000 1760.0231 -7549.5980 295.8690 -9309.6211 -7585.0938 296.8582 -314.4514 -171.3821 30654.8360 170.6089 233.2907
ENERGY: 900000 1.1358 11.2146 10.5047 0.0000 -10926.7126 1486.0688 0.0000 0.0000 1806.2848 -7611.5039 303.6459 -9417.7887 -7582.4287 297.2626 -16.9077 61.5865 30689.4304 89.6048 160.1083
ENERGY: 1200000 2.4425 9.1353 9.3936 0.0000 -10793.8862 1420.2888 0.0000 0.0000 1807.8227 -7544.8032 303.9044 -9352.6259 -7572.8681 298.9629 -182.8494 -97.7280 30745.6239 59.2521 128.6230
ENERGY: 1500000 1.2435 13.2387 9.9144 0.0000 -10912.1058 1494.7865 0.0000 0.0000 1756.6039 -7636.3187 295.2942 -9392.9225 -7575.2539 298.4947 474.2957 526.4195 30255.3477 26.1465 95.1036
TCL: Running FEP window   9: Lambda1 0.39999999999999997 Lambda2 0.44999999999999996 [dLambda 0.04999999999999999]
TCL: Setting parameter firsttimestep to 0
TCL: Setting parameter alchLambda to 0.39999999999999997
Info: NONBONDED TABLE R-SQUARED SPACING: 0.0625
Info: NONBONDED TABLE SIZE: 705 POINTS
TCL: Setting parameter alchLambda2 to 0.44999999999999996
Info: NONBONDED TABLE R-SQUARED SPACING: 0.0625
Info: NONBONDED TABLE SIZE: 705 POINTS
TCL: Running for 1500000 steps
ETITLE: TS BOND ANGLE DIHED IMPRP ELECT VDW BOUNDARY MISC KINETIC TOTAL TEMP POTENTIAL TOTALAVG TEMPAVG PRESSURE GPRESSURE VOLUME PRESSAVG GPRESSAVG
ENERGY: 0 1.2435 13.2387 9.9144 0.0000 -10912.1076 1494.9747 0.0000 0.0000 1755.7279 -7637.0083 295.1470 -9392.7362 -7637.0083 295.1470 465.9133 532.9376 30255.3477 465.9133 532.9376
ENERGY: 300000 3.1583 9.6608 9.4824 0.0000 -10931.8257 1462.9541 0.0000 0.0000 1815.7270 -7630.8431 305.2331 -9446.5701 -7594.2473 300.4819 -277.2819 -209.4552 30523.1713 374.7943 417.4649
ENERGY: 600000 1.4757 9.9295 8.4898 0.0000 -10814.7777 1428.0375 0.0000 0.0000 1789.7461 -7577.0991 300.8656 -9366.8452 -7560.6308 300.7028 -124.2004 -15.8547 30690.2638 159.2325 216.9931
ENERGY: 900000 1.4935 10.1306 9.2767 0.0000 -10820.6786 1493.0982 0.0000 0.0000 1791.1318 -7515.5478 301.0986 -9306.6796 -7548.3215 301.5531 361.9571 411.8082 30784.9735 114.5325 163.9508
ENERGY: 1200000 0.9437 12.7637 8.0939 0.0000 -10923.0321 1547.7740 0.0000 0.0000 1842.6020 -7510.8549 309.7510 -9353.4569 -7553.4495 300.4394 710.1651 756.0278 30576.8602 93.9280 146.4301
ENERGY: 1500000 2.0248 10.4831 8.9431 0.0000 -10715.4674 1444.7161 0.0000 0.0000 1800.9633 -7448.3369 302.7513 -9249.3003 -7549.0403 300.6431 -121.9367 -25.5715 31562.1712 61.5292 114.3432
TCL: Running FEP window  10: Lambda1 0.44999999999999996 Lambda2 0.49999999999999994 [dLambda 0.04999999999999999]
TCL: Setting parameter firsttimestep to 0
TCL: Setting parameter alchLambda to 0.44999999999999996
Info: NONBONDED TABLE R-SQUARED SPACING: 0.0625
Info: NONBONDED TABLE SIZE: 705 POINTS
TCL: Setting parameter alchLambda2 to 0.49999999999999994
Info: NONBONDED TABLE R-SQUARED SPACING: 0.0625
Info: NONBONDED TABLE SIZE: 705 POINTS
TCL: Running for 1500000 steps
ETITLE: TS BOND ANGLE DIHED IMPRP ELECT VDW BOUNDARY MISC KINETIC TOTAL TEMP POTENTIAL TOTALAVG TEMPAVG PRESSURE GPRESSURE VOLUME PRESSAVG GPRESSAVG
ENERGY: 0 2.0248 10.4831 8.9431 0.0000 -10715.4668 1444.4511 0.0000 0.0000 1800.0699 -7449.4947 302.6011 -9249.5646 -7449.4947 302.6011 -103.9300 -24.4243 31562.1712 -103.9300 -24.4243
ENERGY: 300000 1.9617 12.8185 9.2407 0.0000 -10953.8211 1490.9758 0.0000 0.0000 1802.8819 -7635.9424 303.0738 -9438.8243 -7573.7868 302.9900 30.6301 147.5310 30498.4461 -1.2975 93.6907
ENERGY: 600000 0.3439 9.8270 10.6932 0.0000 -10954.4727 1518.0998 0.0000 0.0000 1813.6138 -7601.8950 304.8779 -9415.5088 -7570.0905 302.8127 276.0984 337.7568 30648.2596 27.1510 115.2201
ENERGY: 900000 1.0770 15.6739 9.0250 0.0000 -10708.2988 1485.3670 0.0000 0.0000 1845.4654 -7351.6905 310.2323 -9197.1559 -7552.8962 304.1387 825.0673 875.1020 30537.4879 101.0856 175.8503
ENERGY: 1200000 1.0515 11.3637 8.3300 0.0000 -10795.7780 1441.3677 0.0000 0.0000 1762.2407 -7571.4244 296.2418 -9333.6651 -7559.9598 302.2540 53.0152 158.0646 30433.1188 49.4434 130.4306
ENERGY: 1500000 1.9444 10.6523 10.8984 0.0000 -10802.3857 1435.0480 0.0000 0.0000 1820.2056 -7523.6370 305.9860 -9343.8427 -7565.5420 302.5276 -222.8399 -225.0149 30696.6859 33.1369 105.5318
TCL: Running FEP window  11: Lambda1 0.49999999999999994 Lambda2 0.5499999999999999 [dLambda 0.04999999999999999]
TCL: Setting parameter firsttimestep to 0
TCL: Setting parameter alchLambda to 0.49999999999999994
Info: NONBONDED TABLE R-SQUARED SPACING: 0.0625
Info: NONBONDED TABLE SIZE: 705 POINTS
TCL: Setting parameter alchLambda2 to 0.5499999999999999
Info: NONBONDED TABLE R-SQUARED SPACING: 0.0625
Info: NONBONDED TABLE SIZE: 705 POINTS
TCL: Running for 1500000 steps
ETITLE: TS BOND ANGLE DIHED IMPRP ELECT VDW BOUNDARY MISC KINETIC TOTAL TEMP POTENTIAL TOTALAVG TEMPAVG PRESSURE GPRESSURE VOLUME PRESSAVG GPRESSAVG
ENERGY: 0 1.9444 10.6523 10.8984 0.0000 -10802.3861 1434.5413 0.0000 0.0000 1819.2913 -7525.0584 305.8323 -9344.3497 -7525.0584 305.8323 -303.9370 -224.1288 30696.6859 -303.9370 -224.1288
ENERGY: 300000 2.9195 16.6961 9.3947 0.0000 -10878.7682 1453.4248 0.0000 0.0000 1802.1297 -7594.2035 302.9474 -9396.3332 -7583.0646 301.1304 -6.0338 64.0144 30328.4496 -202.3594 -122.9318
ENERGY: 600000 2.2038 12.5489 7.5690 0.0000 -10782.6298 1413.2236 0.0000 0.0000 1824.3885 -7522.6960 306.6892 -9347.0845 -7560.4664 303.8200 -430.9836 -308.2475 31043.7387 -119.8884 -36.8690
ENERGY: 900000 1.8044 10.4151 11.8401 0.0000 -10917.3151 1488.8441 0.0000 0.0000 1672.8962 -7731.5152 281.2225 -9404.4114 -7573.5134 301.6269 161.0692 309.6689 30292.5516 104.0133 190.0945
ENERGY: 1200000 1.0278 11.8552 10.6690 0.0000 -10807.1328 1469.0314 0.0000 0.0000 1793.1064 -7521.4431 301.4305 -9314.5496 -7568.0282 301.8946 28.2418 70.0018 31291.7904 38.8052 109.1521
ENERGY: 1500000 2.2850 9.6271 15.0139 0.0000 -10725.3395 1328.5199 0.0000 0.0000 1754.0295 -7615.8640 294.8615 -9369.8936 -7560.0713 301.8850 -1312.1886 -1236.8395 31023.0913 -93.0299 -25.5590
TCL: Running FEP window  12: Lambda1 0.5499999999999999 Lambda2 0.6    [dLambda 0.050000000000000044]
TCL: Setting parameter firsttimestep to 0
TCL: Setting parameter alchLambda to 0.5499999999999999
Info: NONBONDED TABLE R-SQUARED SPACING: 0.0625
Info: NONBONDED TABLE SIZE: 705 POINTS
TCL: Setting parameter alchLambda2 to 0.6
Info: NONBONDED TABLE R-SQUARED SPACING: 0.0625
Info: NONBONDED TABLE SIZE: 705 POINTS
TCL: Running for 1500000 steps
ETITLE: TS BOND ANGLE DIHED IMPRP ELECT VDW BOUNDARY MISC KINETIC TOTAL TEMP POTENTIAL TOTALAVG TEMPAVG PRESSURE GPRESSURE VOLUME PRESSAVG GPRESSAVG
ENERGY: 0 2.2850 9.6271 15.0139 0.0000 -10725.3323 1329.4783 0.0000 0.0000 1753.1265 -7615.8014 294.7097 -9368.9279 -7615.8014 294.7097 -1314.5036 -1222.8923 31023.0913 -1314.5036 -1222.8923
ENERGY: 300000 3.1378 15.0652 7.1866 0.0000 -10783.1336 1407.3793 0.0000 0.0000 1786.0773 -7564.2873 300.2489 -9350.3646 -7551.6954 298.3941 -708.8006 -605.6991 30996.8902 -448.1323 -352.4081
ENERGY: 600000 0.7810 6.0812 13.3809 0.0000 -10769.2734 1420.5689 0.0000 0.0000 1772.4204 -7556.0410 297.9531 -9328.4614 -7550.0717 299.0649 -417.7389 -366.3662 30823.0708 -471.0014 -388.6673
ENERGY: 900000 1.1509 10.6289 9.6480 0.0000 -10639.9735 1359.4215 0.0000 0.0000 1770.4153 -7488.7089 297.6160 -9259.1242 -7558.4761 297.3291 -553.2660 -510.0678 31014.5708 -375.2165 -299.3394
ENERGY: 1200000 0.2199 13.7659 7.1714 0.0000 -10814.8723 1423.4677 0.0000 0.0000 1736.4777 -7633.7698 291.9109 -9370.2475 -7556.6594 297.7809 -214.4218 -169.8412 30568.7651 -312.4720 -235.6492
ENERGY: 1500000 1.4080 11.9300 9.9053 0.0000 -10847.9815 1471.1643 0.0000 0.0000 1856.1673 -7497.4066 312.0314 -9353.5739 -7552.6877 298.8808 180.3518 215.7291 30980.2798 -231.7279 -159.6757
TCL: Running FEP window  13: Lambda1 0.6    Lambda2 0.65   [dLambda 0.050000000000000044]
TCL: Setting parameter firsttimestep to 0
TCL: Setting parameter alchLambda to 0.6
Info: NONBONDED TABLE R-SQUARED SPACING: 0.0625
Info: NONBONDED TABLE SIZE: 705 POINTS
TCL: Setting parameter alchLambda2 to 0.65
Info: NONBONDED TABLE R-SQUARED SPACING: 0.0625
Info: NONBONDED TABLE SIZE: 705 POINTS
TCL: Running for 1500000 steps
ETITLE: TS BOND ANGLE DIHED IMPRP ELECT VDW BOUNDARY MISC KINETIC TOTAL TEMP POTENTIAL TOTALAVG TEMPAVG PRESSURE GPRESSURE VOLUME PRESSAVG GPRESSAVG
ENERGY: 0 1.4080 11.9300 9.9053 0.0000 -10847.9611 1470.6390 0.0000 0.0000 1855.2872 -7498.7916 311.8834 -9354.0788 -7498.7916 311.8834 125.4155 216.2529 30980.2798 125.4155 216.2529
ENERGY: 300000 2.6156 11.8788 10.8589 0.0000 -10853.7868 1463.3739 0.0000 0.0000 1734.1569 -7630.9028 291.5208 -9365.0596 -7568.2358 300.6446 144.7802 253.1331 30525.1349 -54.9011 15.1836
ENERGY: 600000 1.6060 14.7416 8.0676 0.0000 -10789.1008 1471.6300 0.0000 0.0000 1820.2506 -7472.8050 305.9936 -9293.0556 -7551.7470 300.4639 136.4397 235.7262 31012.6884 -20.8731 50.3186
ENERGY: 900000 1.4273 10.0724 8.7911 0.0000 -10802.0425 1411.1451 0.0000 0.0000 1762.0260 -7608.5806 296.2057 -9370.6066 -7559.2310 300.1097 -591.0208 -558.2058 31369.8637 8.0778 78.3694
ENERGY: 1200000 1.0572 12.8842 9.0985 0.0000 -10855.1473 1399.4388 0.0000 0.0000 1772.2290 -7660.4396 297.9209 -9432.6685 -7572.4207 298.7076 -487.5140 -420.3542 30345.1294 -41.3193 25.4288
ENERGY: 1500000 1.2740 11.7846 8.8640 0.0000 -10853.4120 1398.7560 0.0000 0.0000 1783.6220 -7649.1114 299.8361 -9432.7334 -7576.4752 298.4214 -658.5908 -550.1363 30438.6091 -86.4106 -25.6528
TCL: Running FEP window  14: Lambda1 0.65   Lambda2 0.7000000000000001 [dLambda 0.050000000000000044]
TCL: Setting parameter firsttimestep to 0
TCL: Setting parameter alchLambda to 0.65
Info: NONBONDED TABLE R-SQUARED SPACING: 0.0625
Info: NONBONDED TABLE SIZE: 705 POINTS
TCL: Setting parameter alchLambda2 to 0.7000000000000001
Info: NONBONDED TABLE R-SQUARED SPACING: 0.0625
Info: NONBONDED TABLE SIZE: 705 POINTS
TCL: Running for 1500000 steps
ETITLE: TS BOND ANGLE DIHED IMPRP ELECT VDW BOUNDARY MISC KINETIC TOTAL TEMP POTENTIAL TOTALAVG TEMPAVG PRESSURE GPRESSURE VOLUME PRESSAVG GPRESSAVG
ENERGY: 0 1.2740 11.7846 8.8640 0.0000 -10853.4440 1398.4937 0.0000 0.0000 1782.7400 -7650.2876 299.6879 -9433.0277 -7650.2876 299.6879 -639.0784 -545.1848 30438.6091 -639.0784 -545.1848
ENERGY: 300000 0.6350 14.2745 7.3170 0.0000 -10711.8101 1427.0365 0.0000 0.0000 1775.0796 -7487.4676 298.4001 -9262.5472 -7551.9847 302.2319 70.5355 129.7394 30685.5917 -279.2410 -179.2538
ENERGY: 600000 0.4617 12.6436 8.5906 0.0000 -10978.4021 1578.2128 0.0000 0.0000 1800.1673 -7578.3260 302.6175 -9378.4934 -7563.4092 302.2465 1025.0739 1012.6643 30363.0793 -36.9566 44.0769
ENERGY: 900000 1.5564 7.8797 9.6796 0.0000 -10861.4522 1498.2436 0.0000 0.0000 1792.9719 -7551.1211 301.4079 -9344.0930 -7559.5179 302.9369 128.8814 218.8768 31046.7626 -68.1002 22.5895
ENERGY: 1200000 1.8750 12.4524 10.7652 0.0000 -10962.3961 1484.9973 0.0000 0.0000 1797.9061 -7654.4002 302.2374 -9452.3063 -7571.2796 302.5875 78.0078 76.1271 30605.3656 -168.8274 -92.9416
ENERGY: 1500000 1.4425 13.8429 9.4530 0.0000 -10765.4633 1408.7680 0.0000 0.0000 1711.4465 -7620.5104 287.7030 -9331.9569 -7574.1563 301.3098 -492.5111 -367.7905 30779.5208 -136.7503 -59.3756
TCL: Running FEP window  15: Lambda1 0.7000000000000001 Lambda2 0.7500000000000001 [dLambda 0.050000000000000044]
TCL: Setting parameter firsttimestep to 0
TCL: Setting parameter alchLambda to 0.7000000000000001
Info: NONBONDED TABLE R-SQUARED SPACING: 0.0625
Info: NONBONDED TABLE SIZE: 705 POINTS
TCL: Setting parameter alchLambda2 to 0.7500000000000001
Info: NONBONDED TABLE R-SQUARED SPACING: 0.0625
Info: NONBONDED TABLE SIZE: 705 POINTS
TCL: Running for 1500000 steps
ETITLE: TS BOND ANGLE DIHED IMPRP ELECT VDW BOUNDARY MISC KINETIC TOTAL TEMP POTENTIAL TOTALAVG TEMPAVG PRESSURE GPRESSURE VOLUME PRESSAVG GPRESSAVG
ENERGY: 0 1.4425 13.8429 9.4530 0.0000 -10765.4256 1408.9867 0.0000 0.0000 1710.5647 -7621.1358 287.5548 -9331.7005 -7621.1358 287.5548 -442.5947 -358.2096 30779.5208 -442.5947 -358.2096
ENERGY: 300000 0.4176 17.0138 9.3049 0.0000 -10733.0059 1424.7360 0.0000 0.0000 1741.2096 -7540.3239 292.7064 -9281.5335 -7533.6021 297.5338 -151.6459 -108.0146 31169.9649 13.7193 71.9434
ENERGY: 600000 3.3464 11.1690 9.4019 0.0000 -10709.5362 1357.1032 0.0000 0.0000 1809.3584 -7519.1574 304.1625 -9328.5158 -7535.8490 300.1188 -765.5673 -714.1262 31028.6434 36.6409 96.5417
ENERGY: 900000 1.6593 17.7655 8.1298 0.0000 -10778.7807 1430.0513 0.0000 0.0000 1758.8543 -7562.3205 295.6725 -9321.1748 -7536.4781 299.4745 -231.3078 -207.4454 31087.9526 -24.3712 35.0054
ENERGY: 1200000 3.4352 11.0913 9.3806 0.0000 -10707.1553 1339.7153 0.0000 0.0000 1785.7457 -7557.7872 300.1931 -9343.5329 -7544.8128 299.3434 -909.9742 -935.4453 30801.1402 -42.2779 10.2610
ENERGY: 1500000 1.6993 22.3517 8.5083 0.0000 -10803.4080 1443.8450 0.0000 0.0000 1760.9865 -7566.0172 296.0310 -9327.0037 -7548.9247 299.7651 64.5745 157.5952 30391.0518 -47.4356 7.6768
TCL: Running FEP window  16: Lambda1 0.7500000000000001 Lambda2 0.8000000000000002 [dLambda 0.050000000000000044]
TCL: Setting parameter firsttimestep to 0
TCL: Setting parameter alchLambda to 0.7500000000000001
Info: NONBONDED TABLE R-SQUARED SPACING: 0.0625
Info: NONBONDED TABLE SIZE: 705 POINTS
TCL: Setting parameter alchLambda2 to 0.8000000000000002
Info: NONBONDED TABLE R-SQUARED SPACING: 0.0625
Info: NONBONDED TABLE SIZE: 705 POINTS
TCL: Running for 1500000 steps
ETITLE: TS BOND ANGLE DIHED IMPRP ELECT VDW BOUNDARY MISC KINETIC TOTAL TEMP POTENTIAL TOTALAVG TEMPAVG PRESSURE GPRESSURE VOLUME PRESSAVG GPRESSAVG
ENERGY: 0 1.6993 22.3517 8.5083 0.0000 -10803.4071 1443.4292 0.0000 0.0000 1760.0729 -7567.3458 295.8774 -9327.4186 -7567.3458 295.8774 69.5078 159.5141 30391.0518 69.5078 159.5141
ENERGY: 300000 1.1836 11.1155 9.8753 0.0000 -10875.3590 1499.8734 0.0000 0.0000 1800.0403 -7553.2709 302.5961 -9353.3112 -7557.7431 300.4809 521.9521 579.7788 30549.4436 353.5512 407.7720
ENERGY: 600000 1.1968 11.5538 9.2791 0.0000 -10972.4573 1491.2527 0.0000 0.0000 1853.6754 -7605.4996 311.6125 -9459.1750 -7567.4612 302.2849 82.1383 135.7148 30540.7138 102.2548 160.7812
ENERGY: 900000 1.4533 11.9983 8.6681 0.0000 -10749.9351 1416.0415 0.0000 0.0000 1768.3472 -7543.4267 297.2683 -9311.7739 -7554.7199 302.4044 -480.7305 -446.8988 31211.3453 21.4895 71.5647
ENERGY: 1200000 1.1396 14.6749 8.5261 0.0000 -10844.4866 1431.0629 0.0000 0.0000 1764.4603 -7624.6227 296.6149 -9389.0830 -7582.6425 300.2418 -401.0012 -356.1330 30942.8072 -27.4187 16.0501
ENERGY: 1500000 0.5518 11.2258 9.8596 0.0000 -10860.7437 1480.5048 0.0000 0.0000 1787.2318 -7571.3699 300.4430 -9358.6018 -7581.7970 299.5047 -0.1303 41.5604 31303.4487 18.9729 64.5157
TCL: Running FEP window  17: Lambda1 0.8000000000000002 Lambda2 0.8500000000000002 [dLambda 0.050000000000000044]
TCL: Setting parameter firsttimestep to 0
TCL: Setting parameter alchLambda to 0.8000000000000002
Info: NONBONDED TABLE R-SQUARED SPACING: 0.0625
Info: NONBONDED TABLE SIZE: 705 POINTS
TCL: Setting parameter alchLambda2 to 0.8500000000000002
Info: NONBONDED TABLE R-SQUARED SPACING: 0.0625
Info: NONBONDED TABLE SIZE: 705 POINTS
TCL: Running for 1500000 steps
ETITLE: TS BOND ANGLE DIHED IMPRP ELECT VDW BOUNDARY MISC KINETIC TOTAL TEMP POTENTIAL TOTALAVG TEMPAVG PRESSURE GPRESSURE VOLUME PRESSAVG GPRESSAVG
ENERGY: 0 0.5518 11.2258 9.8596 0.0000 -10860.7344 1481.3031 0.0000 0.0000 1786.3259 -7571.4682 300.2907 -9357.7941 -7571.4682 300.2907 -27.8184 58.7748 31303.4487 -27.8184 58.7748
ENERGY: 300000 2.1002 10.0276 9.5534 0.0000 -10983.1255 1561.7780 0.0000 0.0000 1800.3823 -7599.2841 302.6536 -9399.6664 -7593.1537 300.6876 895.8955 914.7784 30245.7807 244.0263 319.9496
ENERGY: 600000 5.4465 13.0751 8.8087 0.0000 -10950.5461 1495.4446 0.0000 0.0000 1811.3596 -7616.4116 304.4990 -9427.7712 -7590.3285 300.1878 74.7719 156.3800 30794.6672 104.3472 173.6483
ENERGY: 900000 1.2081 13.1841 9.1009 0.0000 -10749.1870 1458.5685 0.0000 0.0000 1807.7197 -7459.4058 303.8871 -9267.1255 -7586.3860 300.3915 135.8288 186.3066 31044.6022 50.6534 114.5758
ENERGY: 1200000 0.3001 13.4753 7.4330 0.0000 -10848.2545 1494.8560 0.0000 0.0000 1804.3834 -7527.8067 303.3262 -9332.1901 -7574.7139 300.4279 580.8439 681.1649 30331.0723 59.0768 120.3215
ENERGY: 1500000 1.0481 12.9066 8.8443 0.0000 -10909.4900 1556.1378 0.0000 0.0000 1799.9053 -7530.6478 302.5734 -9330.5531 -7576.4432 299.7301 912.0194 985.4162 30740.6735 -3.5663 58.2065
TCL: Running FEP window  18: Lambda1 0.8500000000000002 Lambda2 0.9000000000000002 [dLambda 0.050000000000000044]
TCL: Setting parameter firsttimestep to 0
TCL: Setting parameter alchLambda to 0.8500000000000002
Info: NONBONDED TABLE R-SQUARED SPACING: 0.0625
Info: NONBONDED TABLE SIZE: 705 POINTS
TCL: Setting parameter alchLambda2 to 0.9000000000000002
Info: NONBONDED TABLE R-SQUARED SPACING: 0.0625
Info: NONBONDED TABLE SIZE: 705 POINTS
TCL: Running for 1500000 steps
ETITLE: TS BOND ANGLE DIHED IMPRP ELECT VDW BOUNDARY MISC KINETIC TOTAL TEMP POTENTIAL TOTALAVG TEMPAVG PRESSURE GPRESSURE VOLUME PRESSAVG GPRESSAVG
ENERGY: 0 1.0481 12.9066 8.8443 0.0000 -10909.5411 1556.0524 0.0000 0.0000 1799.0535 -7531.6361 302.4302 -9330.6896 -7531.6361 302.4302 917.3690 993.0545 30740.6735 917.3690 993.0545
ENERGY: 300000 0.3586 15.1900 8.9237 0.0000 -10767.5105 1344.4237 0.0000 0.0000 1759.1535 -7639.4611 295.7228 -9398.6146 -7592.8580 299.9459 -808.1473 -743.7942 30535.1310 -62.7706 -4.1052
ENERGY: 600000 1.2539 11.9660 8.8107 0.0000 -10792.9617 1400.6632 0.0000 0.0000 1763.7434 -7606.5245 296.4944 -9370.2680 -7572.6548 300.5658 -244.5994 -166.1154 30597.1309 -175.5487 -119.7293
ENERGY: 900000 0.7187 9.9160 10.0493 0.0000 -10750.3800 1361.6791 0.0000 0.0000 1785.4907 -7582.5261 300.1503 -9368.0168 -7568.6319 300.7094 -844.4783 -705.7962 30911.3150 -251.0978 -181.9228
ENERGY: 1200000 0.5012 8.8329 11.5331 0.0000 -10933.1571 1541.6858 0.0000 0.0000 1812.0686 -7558.5356 304.6181 -9370.6041 -7562.1275 301.0017 937.9273 982.7616 30267.2826 -203.0267 -136.3321
ENERGY: 1500000 1.2822 8.2308 10.8748 0.0000 -10878.4919 1491.9461 0.0000 0.0000 1818.0686 -7548.0895 305.6268 -9366.1581 -7570.8186 301.0966 204.3420 263.5104 30636.4792 -126.7743 -60.5961
TCL: Running FEP window  19: Lambda1 0.9000000000000002 Lambda2 0.9500000000000003 [dLambda 0.050000000000000044]
TCL: Setting parameter firsttimestep to 0
TCL: Setting parameter alchLambda to 0.9000000000000002
Info: NONBONDED TABLE R-SQUARED SPACING: 0.0625
Info: NONBONDED TABLE SIZE: 705 POINTS
TCL: Setting parameter alchLambda2 to 0.9500000000000003
Info: NONBONDED TABLE R-SQUARED SPACING: 0.0625
Info: NONBONDED TABLE SIZE: 705 POINTS
TCL: Running for 1500000 steps
ETITLE: TS BOND ANGLE DIHED IMPRP ELECT VDW BOUNDARY MISC KINETIC TOTAL TEMP POTENTIAL TOTALAVG TEMPAVG PRESSURE GPRESSURE VOLUME PRESSAVG GPRESSAVG
ENERGY: 0 1.2822 8.2308 10.8748 0.0000 -10878.4897 1491.3323 0.0000 0.0000 1817.1876 -7549.5820 305.4787 -9366.7696 -7549.5820 305.4787 194.6483 265.5028 30636.4792 194.6483 265.5028
ENERGY: 300000 0.4820 16.3421 7.7047 0.0000 -10782.8382 1433.9813 0.0000 0.0000 1774.8645 -7549.4636 298.3639 -9324.3281 -7557.5576 301.0571 -287.9501 -199.7792 30934.0148 -307.4692 -249.7974
ENERGY: 600000 1.4592 7.9309 11.7347 0.0000 -10912.3229 1516.9588 0.0000 0.0000 1766.9508 -7607.2886 297.0336 -9374.2394 -7553.4218 300.4208 428.9507 545.8233 30535.4657 -138.0103 -73.4365
ENERGY: 900000 3.4080 11.6838 10.2486 0.0000 -10861.6541 1417.7441 0.0000 0.0000 1783.1111 -7635.4584 299.7502 -9418.5695 -7565.2734 300.0081 -568.4472 -572.5820 31093.5076 -114.9885 -68.7244
ENERGY: 1200000 1.8069 10.1385 11.6836 0.0000 -10912.2492 1473.5971 0.0000 0.0000 1816.7181 -7598.3050 305.3997 -9415.0231 -7571.6641 300.0202 -11.1829 77.0601 30659.1631 -140.6722 -84.7555
ENERGY: 1500000 2.4165 16.2946 7.7503 0.0000 -10887.5615 1498.3165 0.0000 0.0000 1773.3833 -7589.4002 298.1149 -9362.7835 -7564.1818 299.9587 449.4273 458.3196 30698.5162 -93.0458 -46.6112
TCL: Running FEP window  20: Lambda1 0.9500000000000003 Lambda2 1.0    [dLambda 0.04999999999999971]
TCL: Setting parameter firsttimestep to 0
TCL: Setting parameter alchLambda to 0.9500000000000003
Info: NONBONDED TABLE R-SQUARED SPACING: 0.0625
Info: NONBONDED TABLE SIZE: 705 POINTS
TCL: Setting parameter alchLambda2 to 1.0
Info: NONBONDED TABLE R-SQUARED SPACING: 0.0625
Info: NONBONDED TABLE SIZE: 705 POINTS
TCL: Running for 1500000 steps
ETITLE: TS BOND ANGLE DIHED IMPRP ELECT VDW BOUNDARY MISC KINETIC TOTAL TEMP POTENTIAL TOTALAVG TEMPAVG PRESSURE GPRESSURE VOLUME PRESSAVG GPRESSAVG
ENERGY: 0 2.4165 16.2946 7.7503 0.0000 -10887.5612 1498.1503 0.0000 0.0000 1772.5061 -7590.4433 297.9675 -9362.9495 -7590.4433 297.9675 394.0725 468.2534 30698.5162 394.0725 468.2534
ENERGY: 300000 0.9806 9.6935 11.2985 0.0000 -10750.6694 1373.2323 0.0000 0.0000 1821.7643 -7533.7002 306.2480 -9355.4645 -7586.0862 298.9659 -802.8994 -773.9348 31265.6173 -4.0188 49.6554
ENERGY: 600000 2.0236 12.3743 9.4129 0.0000 -10916.3678 1485.1436 0.0000 0.0000 1768.7889 -7638.6244 297.3426 -9407.4133 -7584.6818 299.6075 88.6637 172.5165 30856.6969 25.8572 81.8691
ENERGY: 900000 0.0951 12.2050 8.9934 0.0000 -10788.5691 1435.6893 0.0000 0.0000 1743.6728 -7587.9135 293.1204 -9331.5862 -7585.6201 299.6837 -455.3066 -386.4237 31373.1691 15.3928 69.7493
ENERGY: 1200000 1.7242 11.8109 11.0683 0.0000 -10868.9134 1494.0746 0.0000 0.0000 1733.8579 -7616.3776 291.4705 -9350.2355 -7577.0317 299.7221 209.0170 345.9876 30790.3316 -11.7559 44.5645
ENERGY: 1500000 1.0717 14.0820 10.9189 0.0000 -10681.5420 1397.9809 0.0000 0.0000 1756.5689 -7500.9195 295.2884 -9257.4884 -7567.5795 299.8429 -283.9475 -276.2697 31151.0410 -54.4810 -1.4170
TCL: Exiting due to exit command.
