Info: SIMULATION PARAMETERS:
Info: TIMESTEP               2
Info: NUMBER OF STEPS        0
Info: STEPS PER CYCLE        10
Info: PERIODIC CELL BASIS 1  34.986 0 0
Info: PERIODIC CELL BASIS 2  0 35.411 0
Info: PERIODIC CELL BASIS 3  0 0 35.723
Info: PERIODIC CELL CENTER   0 0 0
Info: WRAPPING WATERS AROUND PERIODIC BOUNDARIES ON OUTPUT.
Info: WRAPPING ALL CLUSTERS AROUND PERIODIC BOUNDARIES ON OUTPUT.
Info: FIRST LDB TIMESTEP     50
Info: LAST LDB TIMESTEP     -1
Info: HOM BACKGROUND SCALING 1
Info: PME BACKGROUND SCALING 1
Info: MIN ATOMS PER PATCH    40
Info: EMPTY PATCH LOAD       40 ATOMS
Info: INITIAL TEMPERATURE    300
Info: CENTER OF MASS MOVING INITIALLY? NO
Info: DIELECTRIC             1
Info: EXCLUDE                SCALED ONE-FOUR
Info: 1-4 ELECTROSTATICS SCALED BY 0.833333
Info: MODIFIED 1-4 VDW PARAMETERS WILL BE USED
Info: DCD FILENAME           mobley_3682850_equil.dcd
Info: DCD FREQUENCY          100000
Info: DCD FIRST STEP         100000
Info: DCD FILE WILL CONTAIN UNIT CELL DATA
Info: XST FILENAME           mobley_3682850_equil.xst
Info: XST FREQUENCY          100000
Info: NO VELOCITY DCD OUTPUT
Info: NO FORCE DCD OUTPUT
Info: OUTPUT FILENAME        mobley_3682850_equil
Info: BINARY OUTPUT FILES WILL BE USED
Info: RESTART FILENAME       mobley_3682850_equil.restart
Info: RESTART FREQUENCY      100000
Info: BINARY RESTART FILES WILL BE USED
Info: CUTOFF                 9
Info: PAIRLIST DISTANCE      11
Info: PAIRLIST SHRINK RATE   0.01
Info: PAIRLIST GROW RATE     0.01
Info: PAIRLIST TRIGGER       0.3
Info: PAIRLISTS PER CYCLE    2
Info: PAIRLISTS ENABLED
Info: MARGIN                 8
Info: HYDROGEN GROUP CUTOFF  2.5
Info: PATCH DIMENSION        21.5
Info: ENERGY OUTPUT STEPS    100000
Info: ENERGY EVALUATION STEPS    100000
Info: OUTPUT ENERGY PRECISION 4
Info: CROSSTERM ENERGY INCLUDED IN DIHEDRAL
Info: TIMING OUTPUT STEPS    1000000
Info: PRESSURE OUTPUT STEPS  100000
Info: LANGEVIN DYNAMICS ACTIVE
Info: LANGEVIN TEMPERATURE   30
Info: LANGEVIN USING BBK INTEGRATOR
Info: LANGEVIN DAMPING COEFFICIENT IS 1 INVERSE PS
Info: LANGEVIN DYNAMICS APPLIED TO HYDROGENS
Info: LANGEVIN PISTON PRESSURE CONTROL ACTIVE
Info:        TARGET PRESSURE IS 1.01325 BAR
Info:     OSCILLATION PERIOD IS 50 FS
Info:             DECAY TIME IS 25 FS
Info:     PISTON TEMPERATURE IS 300 K
Info:       PRESSURE CONTROL IS GROUP-BASED
Info:    INITIAL STRAIN RATE IS 0 0 0
Info:       CELL FLUCTUATION IS ISOTROPIC
Info: PARTICLE MESH EWALD (PME) ACTIVE
Info: PME TOLERANCE               1e-06
Info: PME EWALD COEFFICIENT       0.348832
Info: PME INTERPOLATION ORDER     4
Info: PME GRID DIMENSIONS         36 36 36
Info: PME MAXIMUM GRID SPACING    1
Info: FULL ELECTROSTATIC EVALUATION FREQUENCY      2
Info: USING VERLET I (r-RESPA) MTS SCHEME.
Info: C1 SPLITTING OF LONG RANGE ELECTROSTATICS
Info: PLACING ATOMS IN PATCHES BY HYDROGEN GROUPS
Info: RIGID BONDS TO HYDROGEN : ALL
Info:         ERROR TOLERANCE : 1e-08
Info:          MAX ITERATIONS : 100
Info: RIGID WATER USING SETTLE ALGORITHM
Info: RANDOM NUMBER SEED     1742265533
Info: USE HYDROGEN BONDS?    NO
Info: Using AMBER format force field!
Info: AMBER PARM FILE        mobley_3682850.prmtop
Info: COORDINATE PDB         mobley_3682850.pdb
Info: Exclusions will be read from PARM file!
Info: SCNB (VDW SCALING)     2
Info: USING ARITHMETIC MEAN TO COMBINE L-J SIGMA PARAMETERS
Info: BINARY COORDINATES     mobley_3682850_min.coor
Info: SUMMARY OF PARAMETERS:
Info: 6 BONDS
Info: 7 ANGLES
Info:   7 HARMONIC
Info:   0 COSINE-BASED
Info: 15 DIHEDRAL
Info: 0 IMPROPER
Info: 0 CROSSTERM
Info: 0 VDW
Info: 21 VDW_PAIRS
Info: 0 NBTHOLE_PAIRS
Info: STRUCTURE SUMMARY:
Info: 2927 ATOMS
Info: 2927 BONDS
Info: 33 ANGLES
Info: 61 DIHEDRALS
Info: 0 IMPROPERS
Info: 0 CROSSTERMS
Info: 3005 EXCLUSIONS
Info: 2920 RIGID BONDS
Info: 5861 DEGREES OF FREEDOM
Info: 977 HYDROGEN GROUPS
Info: 3 ATOMS IN LARGEST HYDROGEN GROUP
Info: 977 MIGRATION GROUPS
Info: 3 ATOMS IN LARGEST MIGRATION GROUP
Info: TOTAL MASS = 17573.7 amu
Info: TOTAL CHARGE = 0.000299945 e
Info: MASS DENSITY = 0.659388 g/cm^3
Info: ATOM DENSITY = 0.0661367 atoms/A^3
Info: ADDED 0 IMPLICIT EXCLUSIONS
Info: NONBONDED TABLE R-SQUARED SPACING: 0.0625
Info: NONBONDED TABLE SIZE: 705 POINTS
Info: REMOVING COM VELOCITY 0.0694748 0.162043 -0.17336
TCL: Running for 100000 steps
ETITLE: TS BOND ANGLE DIHED IMPRP ELECT VDW BOUNDARY MISC KINETIC TOTAL TEMP POTENTIAL TOTAL3 TEMPAVG PRESSURE GPRESSURE VOLUME PRESSAVG GPRESSAVG
ENERGY: 0 0.2226 1.4185 29.7549 0.0000 -13521.8839 2380.1146 0.0000 0.0000 1805.5299 -9304.8434 310.0440 -11110.3734 -9304.4827 310.0440 466.0509 505.7041 44256.8405 466.0509 505.7041
ENERGY: 100000 0.6416 2.7827 28.8417 0.0000 -14116.3762 2427.7833 0.0000 0.0000 178.3822 -11477.9446 30.6316 -11656.3269 -11477.7532 31.0619 -239.4287 -195.3497 28218.7093 3.3594 3.2772
TCL: Running 100000 steps at 60 kelvin.
TCL: Setting parameter langevinTemp to 60
TCL: Running for 100000 steps
ETITLE: TS BOND ANGLE DIHED IMPRP ELECT VDW BOUNDARY MISC KINETIC TOTAL TEMP POTENTIAL TOTAL3 TEMPAVG PRESSURE GPRESSURE VOLUME PRESSAVG GPRESSAVG
ENERGY: 100000 0.6416 2.7827 28.8417 0.0000 -14116.3762 2427.7833 0.0000 0.0000 178.2971 -11478.0297 30.6170 -11656.3269 -11477.6613 30.6170 -246.9692 -195.7644 28218.7093 -246.9692 -195.7644
ENERGY: 200000 0.2302 2.2955 30.5896 0.0000 -14115.8815 2500.9054 0.0000 0.0000 351.7366 -11230.1243 60.3999 -11581.8609 -11229.2845 59.9905 765.7408 819.2600 28092.5164 5.1140 5.1403
TCL: Running 100000 steps at 90 kelvin.
TCL: Setting parameter langevinTemp to 90
TCL: Running for 100000 steps
ETITLE: TS BOND ANGLE DIHED IMPRP ELECT VDW BOUNDARY MISC KINETIC TOTAL TEMP POTENTIAL TOTAL3 TEMPAVG PRESSURE GPRESSURE VOLUME PRESSAVG GPRESSAVG
ENERGY: 200000 0.2302 2.2955 30.5896 0.0000 -14115.8815 2500.9054 0.0000 0.0000 351.5665 -11230.2944 60.3707 -11581.8609 -11229.5334 60.3707 756.5644 819.4112 28092.5164 756.5644 819.4112
ENERGY: 300000 0.8226 4.2053 28.7540 0.0000 -13861.1918 2366.8231 0.0000 0.0000 523.6533 -10936.9334 89.9213 -11460.5867 -10935.4857 89.9712 13.5824 84.8712 28265.8792 3.6662 3.7548
TCL: Running 100000 steps at 120 kelvin.
TCL: Setting parameter langevinTemp to 120
TCL: Running for 100000 steps
ETITLE: TS BOND ANGLE DIHED IMPRP ELECT VDW BOUNDARY MISC KINETIC TOTAL TEMP POTENTIAL TOTAL3 TEMPAVG PRESSURE GPRESSURE VOLUME PRESSAVG GPRESSAVG
ENERGY: 300000 0.8226 4.2053 28.7540 0.0000 -13861.1918 2366.8231 0.0000 0.0000 523.3907 -10937.1961 89.8762 -11460.5867 -10936.3019 89.8762 41.6134 84.7611 28265.8792 41.6134 84.7611
ENERGY: 400000 0.5708 4.3883 31.1850 0.0000 -13508.4702 2145.7089 0.0000 0.0000 685.3154 -10641.3019 117.6818 -11326.6173 -10640.7223 119.7566 -1287.5343 -1288.0056 28717.0108 3.1571 3.1705
TCL: Running 100000 steps at 150 kelvin.
TCL: Setting parameter langevinTemp to 150
TCL: Running for 100000 steps
ETITLE: TS BOND ANGLE DIHED IMPRP ELECT VDW BOUNDARY MISC KINETIC TOTAL TEMP POTENTIAL TOTAL3 TEMPAVG PRESSURE GPRESSURE VOLUME PRESSAVG GPRESSAVG
ENERGY: 400000 0.5708 4.3883 31.1850 0.0000 -13508.4702 2145.7089 0.0000 0.0000 684.9712 -10641.6461 117.6227 -11326.6173 -10639.9962 117.6227 -1336.9159 -1289.6559 28717.0108 -1336.9159 -1289.6559
ENERGY: 500000 1.1874 4.4279 31.0893 0.0000 -13485.2588 2288.0104 0.0000 0.0000 876.2268 -10284.3170 150.4649 -11160.5438 -10280.8546 150.1990 462.0622 505.3832 28459.7559 3.9922 3.9920
TCL: Running 100000 steps at 180 kelvin.
TCL: Setting parameter langevinTemp to 180
TCL: Running for 100000 steps
ETITLE: TS BOND ANGLE DIHED IMPRP ELECT VDW BOUNDARY MISC KINETIC TOTAL TEMP POTENTIAL TOTAL3 TEMPAVG PRESSURE GPRESSURE VOLUME PRESSAVG GPRESSAVG
ENERGY: 500000 1.1874 4.4279 31.0893 0.0000 -13485.2588 2288.0104 0.0000 0.0000 875.7962 -10284.7476 150.3910 -11160.5438 -10283.0189 150.3910 445.2277 505.8459 28459.7559 445.2277 505.8459
ENERGY: 600000 0.3200 5.3067 31.4380 0.0000 -13029.9320 2140.3265 0.0000 0.0000 1066.4390 -9786.1018 183.1280 -10852.5408 -9783.4900 180.0519 625.8709 695.2815 28205.4239 2.9738 2.8565
TCL: Running 100000 steps at 210 kelvin.
TCL: Setting parameter langevinTemp to 210
TCL: Running for 100000 steps
ETITLE: TS BOND ANGLE DIHED IMPRP ELECT VDW BOUNDARY MISC KINETIC TOTAL TEMP POTENTIAL TOTAL3 TEMPAVG PRESSURE GPRESSURE VOLUME PRESSAVG GPRESSAVG
ENERGY: 600000 0.3200 5.3067 31.4380 0.0000 -13029.9320 2140.3265 0.0000 0.0000 1065.9284 -9786.6124 183.0403 -10852.5408 -9784.7092 183.0403 629.3541 694.8270 28205.4239 629.3541 694.8270
ENERGY: 700000 0.8405 6.5062 27.7247 0.0000 -12260.0519 1834.6826 0.0000 0.0000 1232.4029 -9157.8950 211.6271 -10390.2979 -9155.7502 210.0310 -403.3011 -275.5447 28579.6921 3.8855 3.8019
TCL: Running 100000 steps at 240 kelvin.
TCL: Setting parameter langevinTemp to 240
TCL: Running for 100000 steps
ETITLE: TS BOND ANGLE DIHED IMPRP ELECT VDW BOUNDARY MISC KINETIC TOTAL TEMP POTENTIAL TOTAL3 TEMPAVG PRESSURE GPRESSURE VOLUME PRESSAVG GPRESSAVG
ENERGY: 700000 0.8405 6.5062 27.7247 0.0000 -12260.0519 1834.6826 0.0000 0.0000 1231.8076 -9158.4903 211.5249 -10390.2979 -9156.4144 211.5249 -350.6939 -275.8956 28579.6921 -350.6939 -275.8956
ENERGY: 800000 4.1735 9.2068 27.8429 0.0000 -11810.9123 1802.7682 0.0000 0.0000 1403.3350 -8563.5859 240.9795 -9966.9208 -8561.2832 240.2128 934.6657 993.1299 28536.3171 4.1844 4.3984
TCL: Running 100000 steps at 270 kelvin.
TCL: Setting parameter langevinTemp to 270
TCL: Running for 100000 steps
ETITLE: TS BOND ANGLE DIHED IMPRP ELECT VDW BOUNDARY MISC KINETIC TOTAL TEMP POTENTIAL TOTAL3 TEMPAVG PRESSURE GPRESSURE VOLUME PRESSAVG GPRESSAVG
ENERGY: 800000 4.1735 9.2068 27.8429 0.0000 -11810.9123 1802.7682 0.0000 0.0000 1402.6410 -8564.2799 240.8603 -9966.9208 -8562.3323 240.8603 908.4635 992.1538 28536.3171 908.4635 992.1538
ENERGY: 900000 3.6830 5.2942 31.6222 0.0000 -11177.5853 1550.1980 0.0000 0.0000 1590.6696 -7996.1183 273.1484 -9586.7879 -7990.6655 269.7039 -281.1462 -217.4784 29521.0836 2.9689 2.9936
TCL: Running 1000000 steps at 300 kelvin.
TCL: Setting parameter langevinTemp to 300
TCL: Running for 1000000 steps
ETITLE: TS BOND ANGLE DIHED IMPRP ELECT VDW BOUNDARY MISC KINETIC TOTAL TEMP POTENTIAL TOTAL3 TEMPAVG PRESSURE GPRESSURE VOLUME PRESSAVG GPRESSAVG
ENERGY: 900000 3.6830 5.2942 31.6222 0.0000 -11177.5853 1550.1980 0.0000 0.0000 1589.9339 -7996.8540 273.0221 -9586.7879 -7994.1224 273.0221 -291.4018 -213.9927 29521.0836 -291.4018 -213.9927
ENERGY: 1100000 2.7569 7.5772 33.5110 0.0000 -10529.7712 1444.0547 0.0000 0.0000 1794.1848 -7247.6866 308.0958 -9041.8714 -7245.2435 299.9877 259.1113 353.0106 30500.7508 3.5961 3.3625
ENERGY: 1300000 0.5636 9.6053 30.5335 0.0000 -10699.6597 1416.8178 0.0000 0.0000 1742.6266 -7499.5128 299.2423 -9242.1394 -7495.5016 300.4583 -398.4289 -327.6492 30004.2565 2.0406 1.8953
ENERGY: 1500000 4.5484 9.6273 29.2744 0.0000 -10589.8473 1383.0961 0.0000 0.0000 1747.2340 -7416.0672 300.0335 -9163.3012 -7414.6805 299.9930 -305.2263 -241.4418 29733.4911 2.4180 2.5242
ENERGY: 1700000 1.0640 10.6338 32.0689 0.0000 -10665.8652 1423.7699 0.0000 0.0000 1792.4197 -7405.9089 307.7927 -9198.3285 -7403.0568 300.8362 -32.4272 -5.3866 29893.5283 1.6111 1.8508
ENERGY: 1900000 2.8419 10.9984 30.5828 0.0000 -10695.7785 1429.5427 0.0000 0.0000 1716.5556 -7505.2570 294.7654 -9221.8127 -7500.0589 300.6050 -511.6780 -414.9995 30377.7803 2.3908 2.6580
TCL: Exiting due to exit command.
