Info: SIMULATION PARAMETERS:
Info: TIMESTEP               2
Info: NUMBER OF STEPS        0
Info: STEPS PER CYCLE        10
Info: PERIODIC CELL BASIS 1  40.176 0 0
Info: PERIODIC CELL BASIS 2  0 41.086 0
Info: PERIODIC CELL BASIS 3  0 0 40.47
Info: PERIODIC CELL CENTER   0 0 0
Info: WRAPPING WATERS AROUND PERIODIC BOUNDARIES ON OUTPUT.
Info: WRAPPING ALL CLUSTERS AROUND PERIODIC BOUNDARIES ON OUTPUT.
Info: FIRST LDB TIMESTEP     50
Info: LAST LDB TIMESTEP     -1
Info: HOM BACKGROUND SCALING 1
Info: PME BACKGROUND SCALING 1
Info: MIN ATOMS PER PATCH    40
Info: EMPTY PATCH LOAD       40 ATOMS
Info: INITIAL TEMPERATURE    300
Info: CENTER OF MASS MOVING INITIALLY? NO
Info: DIELECTRIC             1
Info: EXCLUDE                SCALED ONE-FOUR
Info: 1-4 ELECTROSTATICS SCALED BY 0.833333
Info: MODIFIED 1-4 VDW PARAMETERS WILL BE USED
Info: DCD FILENAME           mobley_9100956_min.dcd
Info: DCD FREQUENCY          5000
Info: DCD FIRST STEP         5000
Info: DCD FILE WILL CONTAIN UNIT CELL DATA
Info: XST FILENAME           mobley_9100956_min.xst
Info: XST FREQUENCY          5000
Info: NO VELOCITY DCD OUTPUT
Info: NO FORCE DCD OUTPUT
Info: OUTPUT FILENAME        mobley_9100956_min
Info: BINARY OUTPUT FILES WILL BE USED
Info: RESTART FILENAME       mobley_9100956_min.restart
Info: RESTART FREQUENCY      5000
Info: BINARY RESTART FILES WILL BE USED
Info: CUTOFF                 9
Info: PAIRLIST DISTANCE      11
Info: PAIRLIST SHRINK RATE   0.01
Info: PAIRLIST GROW RATE     0.01
Info: PAIRLIST TRIGGER       0.3
Info: PAIRLISTS PER CYCLE    2
Info: PAIRLISTS ENABLED
Info: MARGIN                 8
Info: HYDROGEN GROUP CUTOFF  2.5
Info: PATCH DIMENSION        21.5
Info: ENERGY OUTPUT STEPS    5000
Info: ENERGY EVALUATION STEPS    5000
Info: OUTPUT ENERGY PRECISION 4
Info: CROSSTERM ENERGY INCLUDED IN DIHEDRAL
Info: TIMING OUTPUT STEPS    50000
Info: PRESSURE OUTPUT STEPS  5000
Info: LANGEVIN DYNAMICS ACTIVE
Info: LANGEVIN TEMPERATURE   300
Info: LANGEVIN USING BBK INTEGRATOR
Info: LANGEVIN DAMPING COEFFICIENT IS 1 INVERSE PS
Info: LANGEVIN DYNAMICS APPLIED TO HYDROGENS
Info: LANGEVIN PISTON PRESSURE CONTROL ACTIVE
Info:        TARGET PRESSURE IS 1.01325 BAR
Info:     OSCILLATION PERIOD IS 50 FS
Info:             DECAY TIME IS 25 FS
Info:     PISTON TEMPERATURE IS 300 K
Info:       PRESSURE CONTROL IS GROUP-BASED
Info:    INITIAL STRAIN RATE IS 0 0 0
Info:       CELL FLUCTUATION IS ISOTROPIC
Info: PARTICLE MESH EWALD (PME) ACTIVE
Info: PME TOLERANCE               1e-06
Info: PME EWALD COEFFICIENT       0.348832
Info: PME INTERPOLATION ORDER     4
Info: PME GRID DIMENSIONS         44 44 44
Info: PME MAXIMUM GRID SPACING    1
Info: FULL ELECTROSTATIC EVALUATION FREQUENCY      2
Info: USING VERLET I (r-RESPA) MTS SCHEME.
Info: C1 SPLITTING OF LONG RANGE ELECTROSTATICS
Info: PLACING ATOMS IN PATCHES BY HYDROGEN GROUPS
Info: RIGID BONDS TO HYDROGEN : ALL
Info:         ERROR TOLERANCE : 1e-08
Info:          MAX ITERATIONS : 100
Info: RIGID WATER USING SETTLE ALGORITHM
Info: RANDOM NUMBER SEED     1741399457
Info: USE HYDROGEN BONDS?    NO
Info: Using AMBER format force field!
Info: AMBER PARM FILE        mobley_9100956.prmtop
Info: COORDINATE PDB         mobley_9100956.pdb
Info: Exclusions will be read from PARM file!
Info: SCNB (VDW SCALING)     2
Info: USING ARITHMETIC MEAN TO COMBINE L-J SIGMA PARAMETERS
Info: SUMMARY OF PARAMETERS:
Info: 4 BONDS
Info: 3 ANGLES
Info:   3 HARMONIC
Info:   0 COSINE-BASED
Info: 3 DIHEDRAL
Info: 0 IMPROPER
Info: 0 CROSSTERM
Info: 0 VDW
Info: 10 VDW_PAIRS
Info: 0 NBTHOLE_PAIRS
Info: STRUCTURE SUMMARY:
Info: 4875 ATOMS
Info: 4875 BONDS
Info: 42 ANGLES
Info: 63 DIHEDRALS
Info: 0 IMPROPERS
Info: 0 CROSSTERMS
Info: 4977 EXCLUSIONS
Info: 4868 RIGID BONDS
Info: 9757 DEGREES OF FREEDOM
Info: 1625 HYDROGEN GROUPS
Info: 4 ATOMS IN LARGEST HYDROGEN GROUP
Info: 1625 MIGRATION GROUPS
Info: 4 ATOMS IN LARGEST MIGRATION GROUP
Info: TOTAL MASS = 29248.1 amu
Info: TOTAL CHARGE = 0.000199977 e
Info: MASS DENSITY = 0.727047 g/cm^3
Info: ATOM DENSITY = 0.0729761 atoms/A^3
Info: ADDED 0 IMPLICIT EXCLUSIONS
Info: NONBONDED TABLE R-SQUARED SPACING: 0.0625
Info: NONBONDED TABLE SIZE: 705 POINTS
Info: REMOVING COM VELOCITY 0.0840482 -0.107441 0.0665672
TCL: Minimizing for 2000 steps
ETITLE: TS BOND ANGLE DIHED IMPRP ELECT VDW BOUNDARY MISC KINETIC TOTAL TEMP POTENTIAL TOTAL3 TEMPAVG PRESSURE GPRESSURE VOLUME PRESSAVG GPRESSAVG
ENERGY: 0 0.0915 0.4801 0.3424 0.0000 -15281.9401 1727.9334 0.0000 0.0000 0.0000 -13553.0927 0.0000 -13553.0927 -13553.0927 0.0000 11341.5446 -16045.6989 66802.6609 11341.5446 -16045.6989
ENERGY: 400 2.9581 1.8693 0.2911 0.0000 -20442.9621 3008.8532 0.0000 0.0000 0.0000 -17428.9904 0.0000 -17428.9904 -17428.9904 0.0000 16143.1035 16315.9858 66802.6609 16143.1035 16315.9858
ENERGY: 800 2.2007 1.5503 0.3362 0.0000 -21444.0799 3455.0636 0.0000 0.0000 0.0000 -17984.9292 0.0000 -17984.9292 -17984.9292 0.0000 18294.5310 18421.5070 66802.6609 18294.5310 18421.5070
ENERGY: 1200 0.5701 1.0318 0.3940 0.0000 -21920.5172 3668.3242 0.0000 0.0000 0.0000 -18250.1971 0.0000 -18250.1971 -18250.1971 0.0000 19365.6283 19465.5334 66802.6609 19365.6283 19465.5334
ENERGY: 1600 0.4037 0.6584 0.3636 0.0000 -22196.2124 3792.2657 0.0000 0.0000 0.0000 -18402.5210 0.0000 -18402.5210 -18402.5210 0.0000 19979.8755 20098.6669 66802.6609 19979.8755 20098.6669
ENERGY: 2000 1.0541 0.7782 0.3556 0.0000 -22303.9805 3827.2379 0.0000 0.0000 0.0000 -18474.5546 0.0000 -18474.5546 -18474.5546 0.0000 20196.1420 20297.1270 66802.6609 20196.1420 20297.1270
TCL: Exiting due to exit command.
Info: NAMD 3.0.1 for Linux-x86_64-multicore
Info: Please visit http://www.ks.uiuc.edu/Research/namd/
Info: for updates, documentation, and support information.
Info: Please cite Phillips et al., J. Chem. Phys. 153:044130 (2020) doi:10.1063/5.0014475
Info: in all publications reporting results obtained with NAMD.
Info: Based on Charm++/Converse 80000 for multicore-linux-x86_64-gcc
Info: Built Mon Oct 14 11:11:06 CDT 2024 by dhardy on athine.ks.uiuc.edu
Info: 1 NAMD  3.0.1  Linux-x86_64-multicore  16    k027  z5358697
Info: Running on 16 processors, 1 nodes, 1 physical nodes.
Info: CPU topology information available.
Info: Charm++/Converse parallel runtime startup completed at 0.00747567 s
Info: 1043.46 MB of memory in use based on /proc/self/stat
Info: Configuration file is mobley_9100956_equil.namd
Info: Working in the current directory /srv/scratch/z5358697/prod_prep_11/9100956
TCL: Running 25000 steps at 30 kelvin.
TCL: Suspending until startup complete.
Info: SIMULATION PARAMETERS:
Info: TIMESTEP               2
Info: NUMBER OF STEPS        0
Info: STEPS PER CYCLE        10
Info: PERIODIC CELL BASIS 1  40.176 0 0
Info: PERIODIC CELL BASIS 2  0 41.086 0
Info: PERIODIC CELL BASIS 3  0 0 40.47
Info: PERIODIC CELL CENTER   0 0 0
Info: WRAPPING WATERS AROUND PERIODIC BOUNDARIES ON OUTPUT.
Info: WRAPPING ALL CLUSTERS AROUND PERIODIC BOUNDARIES ON OUTPUT.
Info: FIRST LDB TIMESTEP     50
Info: LAST LDB TIMESTEP     -1
Info: HOM BACKGROUND SCALING 1
Info: PME BACKGROUND SCALING 1
Info: MIN ATOMS PER PATCH    40
Info: EMPTY PATCH LOAD       40 ATOMS
Info: INITIAL TEMPERATURE    300
Info: CENTER OF MASS MOVING INITIALLY? NO
Info: DIELECTRIC             1
Info: EXCLUDE                SCALED ONE-FOUR
Info: 1-4 ELECTROSTATICS SCALED BY 0.833333
Info: MODIFIED 1-4 VDW PARAMETERS WILL BE USED
Info: DCD FILENAME           mobley_9100956_equil.dcd
Info: DCD FREQUENCY          5000
Info: DCD FIRST STEP         5000
Info: DCD FILE WILL CONTAIN UNIT CELL DATA
Info: XST FILENAME           mobley_9100956_equil.xst
Info: XST FREQUENCY          5000
Info: NO VELOCITY DCD OUTPUT
Info: NO FORCE DCD OUTPUT
Info: OUTPUT FILENAME        mobley_9100956_equil
Info: BINARY OUTPUT FILES WILL BE USED
Info: RESTART FILENAME       mobley_9100956_equil.restart
Info: RESTART FREQUENCY      5000
Info: BINARY RESTART FILES WILL BE USED
Info: CUTOFF                 9
Info: PAIRLIST DISTANCE      11
Info: PAIRLIST SHRINK RATE   0.01
Info: PAIRLIST GROW RATE     0.01
Info: PAIRLIST TRIGGER       0.3
Info: PAIRLISTS PER CYCLE    2
Info: PAIRLISTS ENABLED
Info: MARGIN                 8
Info: HYDROGEN GROUP CUTOFF  2.5
Info: PATCH DIMENSION        21.5
Info: ENERGY OUTPUT STEPS    5000
Info: ENERGY EVALUATION STEPS    5000
Info: OUTPUT ENERGY PRECISION 4
Info: CROSSTERM ENERGY INCLUDED IN DIHEDRAL
Info: TIMING OUTPUT STEPS    50000
Info: PRESSURE OUTPUT STEPS  5000
Info: LANGEVIN DYNAMICS ACTIVE
Info: LANGEVIN TEMPERATURE   30
Info: LANGEVIN USING BBK INTEGRATOR
Info: LANGEVIN DAMPING COEFFICIENT IS 1 INVERSE PS
Info: LANGEVIN DYNAMICS APPLIED TO HYDROGENS
Info: LANGEVIN PISTON PRESSURE CONTROL ACTIVE
Info:        TARGET PRESSURE IS 1.01325 BAR
Info:     OSCILLATION PERIOD IS 50 FS
Info:             DECAY TIME IS 25 FS
Info:     PISTON TEMPERATURE IS 300 K
Info:       PRESSURE CONTROL IS GROUP-BASED
Info:    INITIAL STRAIN RATE IS 0 0 0
Info:       CELL FLUCTUATION IS ISOTROPIC
Info: PARTICLE MESH EWALD (PME) ACTIVE
Info: PME TOLERANCE               1e-06
Info: PME EWALD COEFFICIENT       0.348832
Info: PME INTERPOLATION ORDER     4
Info: PME GRID DIMENSIONS         44 44 44
Info: PME MAXIMUM GRID SPACING    1
Info: FULL ELECTROSTATIC EVALUATION FREQUENCY      2
Info: USING VERLET I (r-RESPA) MTS SCHEME.
Info: C1 SPLITTING OF LONG RANGE ELECTROSTATICS
Info: PLACING ATOMS IN PATCHES BY HYDROGEN GROUPS
Info: RIGID BONDS TO HYDROGEN : ALL
Info:         ERROR TOLERANCE : 1e-08
Info:          MAX ITERATIONS : 100
Info: RIGID WATER USING SETTLE ALGORITHM
Info: RANDOM NUMBER SEED     1741399472
Info: USE HYDROGEN BONDS?    NO
Info: Using AMBER format force field!
Info: AMBER PARM FILE        mobley_9100956.prmtop
Info: COORDINATE PDB         mobley_9100956.pdb
Info: Exclusions will be read from PARM file!
Info: SCNB (VDW SCALING)     2
Info: USING ARITHMETIC MEAN TO COMBINE L-J SIGMA PARAMETERS
Info: BINARY COORDINATES     mobley_9100956_min.coor
Info: SUMMARY OF PARAMETERS:
Info: 4 BONDS
Info: 3 ANGLES
Info:   3 HARMONIC
Info:   0 COSINE-BASED
Info: 3 DIHEDRAL
Info: 0 IMPROPER
Info: 0 CROSSTERM
Info: 0 VDW
Info: 10 VDW_PAIRS
Info: 0 NBTHOLE_PAIRS
Info: STRUCTURE SUMMARY:
Info: 4875 ATOMS
Info: 4875 BONDS
Info: 42 ANGLES
Info: 63 DIHEDRALS
Info: 0 IMPROPERS
Info: 0 CROSSTERMS
Info: 4977 EXCLUSIONS
Info: 4868 RIGID BONDS
Info: 9757 DEGREES OF FREEDOM
Info: 1625 HYDROGEN GROUPS
Info: 4 ATOMS IN LARGEST HYDROGEN GROUP
Info: 1625 MIGRATION GROUPS
Info: 4 ATOMS IN LARGEST MIGRATION GROUP
Info: TOTAL MASS = 29248.1 amu
Info: TOTAL CHARGE = 0.000199977 e
Info: MASS DENSITY = 0.727047 g/cm^3
Info: ATOM DENSITY = 0.0729761 atoms/A^3
Info: ADDED 0 IMPLICIT EXCLUSIONS
Info: NONBONDED TABLE R-SQUARED SPACING: 0.0625
Info: NONBONDED TABLE SIZE: 705 POINTS
Info: REMOVING COM VELOCITY 0.0384064 -0.132937 0.0658004
TCL: Running for 25000 steps
ETITLE: TS BOND ANGLE DIHED IMPRP ELECT VDW BOUNDARY MISC KINETIC TOTAL TEMP POTENTIAL TOTAL3 TEMPAVG PRESSURE GPRESSURE VOLUME PRESSAVG GPRESSAVG
ENERGY: 0 1.0541 0.7782 0.3556 0.0000 -22303.9805 3827.2379 0.0000 0.0000 2928.0523 -15546.5023 302.0320 -18474.5546 -15545.8770 302.0320 258.5205 297.9259 66802.6609 258.5205 297.9259
ENERGY: 5000 0.4333 1.5293 0.3692 0.0000 -23512.8214 4142.5215 0.0000 0.0000 295.0850 -19072.8831 30.4384 -19367.9681 -19072.3348 47.9093 480.3637 545.6088 46804.7144 3.6163 3.6831
ENERGY: 10000 0.7763 1.2926 0.3062 0.0000 -23504.5715 4103.0713 0.0000 0.0000 289.6417 -19109.4834 29.8769 -19399.1251 -19108.3933 30.1615 197.0079 244.1357 46751.1751 0.3652 0.3571
ENERGY: 15000 0.2940 1.4182 0.5214 0.0000 -23473.7489 4066.0357 0.0000 0.0000 290.3536 -19115.1260 29.9503 -19405.4796 -19114.3137 30.0014 29.2209 77.3729 46809.9507 7.7965 7.7146
ENERGY: 20000 0.1861 1.3709 0.5645 0.0000 -23486.9138 4049.9916 0.0000 0.0000 294.0401 -19140.7606 30.3306 -19434.8007 -19139.9896 30.2387 -68.1045 -6.3117 46763.8839 4.2828 4.6366
ENERGY: 25000 0.2714 1.2332 0.4284 0.0000 -23464.7414 4018.5166 0.0000 0.0000 294.3982 -19149.8936 30.3675 -19444.2919 -19149.3941 30.0465 -304.0052 -240.5311 46809.8896 4.9774 4.9387
TCL: Running 25000 steps at 60 kelvin.
TCL: Setting parameter langevinTemp to 60
TCL: Running for 25000 steps
ETITLE: TS BOND ANGLE DIHED IMPRP ELECT VDW BOUNDARY MISC KINETIC TOTAL TEMP POTENTIAL TOTAL3 TEMPAVG PRESSURE GPRESSURE VOLUME PRESSAVG GPRESSAVG
ENERGY: 25000 0.2714 1.2332 0.4284 0.0000 -23464.7414 4018.5166 0.0000 0.0000 294.2561 -19150.0358 30.3529 -19444.2919 -19149.4640 30.3529 -295.1137 -240.8092 46809.8896 -295.1137 -240.8092
ENERGY: 30000 0.5733 1.3579 0.7004 0.0000 -23119.4910 3948.3945 0.0000 0.0000 582.3897 -18586.0752 60.0742 -19168.4649 -18584.9125 57.1280 -72.1459 -24.5997 47093.2602 -0.9425 -1.0292
ENERGY: 35000 0.2621 2.1346 0.8654 0.0000 -23081.9020 3882.2737 0.0000 0.0000 602.7906 -18593.5756 62.1785 -19196.3662 -18592.6435 60.0899 -400.1685 -362.8383 47158.6281 2.7860 2.9124
ENERGY: 40000 0.3476 2.1768 0.4685 0.0000 -23313.6570 4120.4551 0.0000 0.0000 588.0870 -18602.1221 60.6619 -19190.2091 -18600.0995 60.2211 828.1574 886.5526 46826.1684 7.4915 7.2144
ENERGY: 45000 0.2372 2.4435 0.7151 0.0000 -23192.4094 3959.3875 0.0000 0.0000 583.4202 -18646.2058 60.1805 -19229.6260 -18644.8574 60.3039 -103.1040 -47.4711 46965.5586 5.3212 5.1182
ENERGY: 50000 0.4787 2.6528 0.4882 0.0000 -23301.3942 4081.5465 0.0000 0.0000 574.0317 -18642.1963 59.2120 -19216.2280 -18640.9976 60.1981 638.1265 692.2310 46668.0852 4.8613 5.4414
TCL: Running 25000 steps at 90 kelvin.
TCL: Setting parameter langevinTemp to 90
TCL: Running for 25000 steps
ETITLE: TS BOND ANGLE DIHED IMPRP ELECT VDW BOUNDARY MISC KINETIC TOTAL TEMP POTENTIAL TOTAL3 TEMPAVG PRESSURE GPRESSURE VOLUME PRESSAVG GPRESSAVG
ENERGY: 50000 0.4787 2.6528 0.4882 0.0000 -23301.3942 4081.5465 0.0000 0.0000 573.7337 -18642.4943 59.1813 -19216.2280 -18641.2706 59.1813 639.2009 691.8886 46668.0852 639.2009 691.8886
ENERGY: 55000 0.2434 1.9469 0.3653 0.0000 -22904.0494 3958.0191 0.0000 0.0000 867.4006 -18076.0741 89.4734 -18943.4747 -18074.2171 86.8051 608.2895 676.1443 46912.5104 5.7198 5.4098
ENERGY: 60000 1.1521 3.1292 0.4623 0.0000 -22996.3308 3994.4315 0.0000 0.0000 867.3798 -18129.7758 89.4712 -18997.1557 -18128.2384 90.0195 734.6687 795.7508 46538.7744 -1.7506 -2.1788
ENERGY: 65000 0.3749 2.7592 0.5874 0.0000 -22995.0867 3981.4217 0.0000 0.0000 891.6062 -18118.3374 91.9702 -19009.9436 -18116.0072 90.1018 699.5937 761.8521 46540.6570 1.1299 1.3578
ENERGY: 70000 0.1484 4.4228 0.6399 0.0000 -22952.5810 3914.5653 0.0000 0.0000 886.3550 -18146.4497 91.4285 -19032.8046 -18144.5236 89.7777 300.6282 333.7477 46725.1305 -2.4836 -2.2295
ENERGY: 75000 0.8480 3.2957 1.3252 0.0000 -23027.4744 3986.2803 0.0000 0.0000 890.3187 -18145.4064 91.8374 -19035.7252 -18142.5648 90.3717 698.2587 772.5856 46448.9002 3.4790 3.1708
TCL: Running 25000 steps at 120 kelvin.
TCL: Setting parameter langevinTemp to 120
TCL: Running for 25000 steps
ETITLE: TS BOND ANGLE DIHED IMPRP ELECT VDW BOUNDARY MISC KINETIC TOTAL TEMP POTENTIAL TOTAL3 TEMPAVG PRESSURE GPRESSURE VOLUME PRESSAVG GPRESSAVG
ENERGY: 75000 0.8480 3.2957 1.3252 0.0000 -23027.4744 3986.2803 0.0000 0.0000 889.8852 -18145.8400 91.7927 -19035.7252 -18144.1890 91.7927 721.1605 772.8472 46448.9002 721.1605 772.8472
ENERGY: 80000 2.1511 4.2077 1.2685 0.0000 -22523.8512 3786.9959 0.0000 0.0000 1139.9616 -17589.2663 117.5884 -18729.2279 -17586.7154 116.9512 194.8825 286.4299 46947.7748 6.5333 6.3499
ENERGY: 85000 0.5530 5.8792 1.3984 0.0000 -22613.4786 3818.2975 0.0000 0.0000 1149.4817 -17637.8687 118.5704 -18787.3504 -17635.4350 120.1304 280.2611 347.9776 46943.0380 8.0273 7.9289
ENERGY: 90000 1.4438 2.9565 0.9947 0.0000 -22413.7880 3623.3584 0.0000 0.0000 1206.5749 -17578.4596 124.4596 -18785.0346 -17575.5590 119.8359 -766.1283 -690.2699 47242.3333 5.3385 5.1587
ENERGY: 95000 1.1123 4.5926 0.6504 0.0000 -22434.9592 3672.3647 0.0000 0.0000 1143.8644 -17612.3748 117.9909 -18756.2392 -17608.6752 120.4151 -500.9168 -448.3024 47062.1643 2.5029 2.6430
ENERGY: 100000 1.5620 3.6445 1.3841 0.0000 -22801.3749 3966.8167 0.0000 0.0000 1133.1550 -17694.8126 116.8862 -18827.9676 -17692.5350 119.1363 958.3555 1007.8352 46623.4229 2.6494 2.5912
TCL: Running 25000 steps at 150 kelvin.
TCL: Setting parameter langevinTemp to 150
TCL: Running for 25000 steps
ETITLE: TS BOND ANGLE DIHED IMPRP ELECT VDW BOUNDARY MISC KINETIC TOTAL TEMP POTENTIAL TOTAL3 TEMPAVG PRESSURE GPRESSURE VOLUME PRESSAVG GPRESSAVG
ENERGY: 100000 1.5620 3.6445 1.3841 0.0000 -22801.3750 3966.8167 0.0000 0.0000 1132.5679 -17695.3997 116.8257 -18827.9676 -17693.4797 116.8257 950.7943 1008.0294 46623.4229 950.7943 1008.0294
ENERGY: 105000 0.6625 5.3539 1.1767 0.0000 -22213.7051 3805.6731 0.0000 0.0000 1462.5790 -16938.2599 150.8667 -18400.8389 -16935.1465 146.3454 1123.4753 1176.7085 47007.7005 6.5431 6.6825
ENERGY: 110000 1.2331 5.3239 0.7558 0.0000 -21961.5948 3493.5129 0.0000 0.0000 1453.1332 -17007.6359 149.8924 -18460.7692 -17004.3210 150.3155 -660.4140 -633.6163 47327.7633 -0.2840 -0.7893
ENERGY: 115000 1.0769 5.0081 0.7692 0.0000 -22176.7134 3666.2863 0.0000 0.0000 1434.7894 -17068.7833 148.0002 -18503.5728 -17065.1573 150.3991 187.3670 251.9594 47106.3017 -2.2885 -1.9995
ENERGY: 120000 1.8962 3.6641 1.0166 0.0000 -22085.5910 3554.9560 0.0000 0.0000 1457.2551 -17066.8028 150.3175 -18524.0580 -17063.1121 149.3317 -479.8303 -432.8800 47253.3239 -1.2333 -1.2053
ENERGY: 125000 0.5174 5.6115 1.3596 0.0000 -22148.8771 3635.4998 0.0000 0.0000 1460.0641 -17045.8247 150.6073 -18505.8887 -17043.5653 150.2162 -14.4199 46.8441 47271.8064 0.7830 0.9628
TCL: Running 50000 steps at 180 kelvin.
TCL: Setting parameter langevinTemp to 180
TCL: Running for 50000 steps
ETITLE: TS BOND ANGLE DIHED IMPRP ELECT VDW BOUNDARY MISC KINETIC TOTAL TEMP POTENTIAL TOTAL3 TEMPAVG PRESSURE GPRESSURE VOLUME PRESSAVG GPRESSAVG
ENERGY: 125000 0.5174 5.6115 1.3596 0.0000 -22148.8771 3635.4998 0.0000 0.0000 1459.3379 -17046.5509 150.5324 -18505.8887 -17043.9024 150.5324 -9.2367 46.3266 47271.8064 -9.2367 46.3266
ENERGY: 135000 1.3781 5.3495 1.5238 0.0000 -21421.2493 3380.5886 0.0000 0.0000 1714.1295 -16318.2799 176.8144 -18032.4093 -16315.5457 180.1076 -375.4346 -287.0672 47505.0505 4.7110 4.9681
ENERGY: 145000 1.4233 5.3629 0.2512 0.0000 -21571.2709 3509.6617 0.0000 0.0000 1700.5250 -16354.0469 175.4111 -18054.5718 -16350.8599 179.4971 324.6981 366.2281 47281.2837 -0.4855 -0.0774
ENERGY: 155000 3.1786 5.9197 0.8007 0.0000 -21531.1026 3390.0263 0.0000 0.0000 1753.3104 -16377.8669 180.8560 -18131.1773 -16374.6652 180.9859 -544.1991 -458.0092 47517.3371 4.9686 4.8926
ENERGY: 165000 1.4478 7.4027 0.9468 0.0000 -21575.9828 3465.0664 0.0000 0.0000 1779.1142 -16322.0050 183.5177 -18101.1192 -16317.2355 180.3340 94.3295 151.9911 47303.3352 3.3981 3.0751
ENERGY: 175000 0.7746 5.8984 0.5497 0.0000 -21532.9832 3418.6395 0.0000 0.0000 1760.0807 -16347.0403 181.5544 -18107.1210 -16340.6204 180.5753 -274.4073 -244.8679 47696.6497 3.7858 3.6355
TCL: Running 50000 steps at 210 kelvin.
TCL: Setting parameter langevinTemp to 210
TCL: Running for 50000 steps
ETITLE: TS BOND ANGLE DIHED IMPRP ELECT VDW BOUNDARY MISC KINETIC TOTAL TEMP POTENTIAL TOTAL3 TEMPAVG PRESSURE GPRESSURE VOLUME PRESSAVG GPRESSAVG
ENERGY: 175000 0.7746 5.8984 0.5497 0.0000 -21532.9832 3418.6395 0.0000 0.0000 1759.2044 -16347.9166 181.4640 -18107.1210 -16344.7150 181.4640 -308.9142 -243.2706 47696.6497 -308.9142 -243.2706
ENERGY: 185000 1.6092 7.2132 1.3637 0.0000 -20566.1795 3100.8271 0.0000 0.0000 2025.7581 -15429.4081 208.9593 -17455.1662 -15423.5243 211.0418 -682.8400 -603.4425 48249.9078 2.2728 2.2821
ENERGY: 195000 1.2552 5.7405 0.4237 0.0000 -20465.1655 3082.9542 0.0000 0.0000 2066.8258 -15307.9661 213.1955 -17374.7919 -15301.9631 210.4889 -415.8401 -374.2613 48032.2133 2.0303 1.7127
ENERGY: 205000 3.7801 7.5036 0.8351 0.0000 -20408.6448 3043.1123 0.0000 0.0000 2017.6205 -15335.7933 208.1199 -17353.4138 -15330.0787 209.6296 -700.2239 -561.4789 47811.6482 0.7843 0.5346
ENERGY: 215000 2.2520 6.1941 0.7588 0.0000 -20421.6098 3111.2414 0.0000 0.0000 2048.0081 -15253.1553 211.2544 -17301.1635 -15246.6514 210.3232 -65.6565 41.7433 47720.8886 4.9369 5.4158
ENERGY: 225000 2.0690 9.2575 1.7624 0.0000 -20139.2471 2894.3076 0.0000 0.0000 2014.2200 -15217.6306 207.7691 -17231.8506 -15213.0975 209.4430 -1065.4416 -926.0958 47669.4331 -1.3865 -1.0150
TCL: Running 50000 steps at 240 kelvin.
TCL: Setting parameter langevinTemp to 240
TCL: Running for 50000 steps
ETITLE: TS BOND ANGLE DIHED IMPRP ELECT VDW BOUNDARY MISC KINETIC TOTAL TEMP POTENTIAL TOTAL3 TEMPAVG PRESSURE GPRESSURE VOLUME PRESSAVG GPRESSAVG
ENERGY: 225000 2.0690 9.2575 1.7624 0.0000 -20139.2471 2894.3076 0.0000 0.0000 2013.1952 -15218.6555 207.6634 -17231.8506 -15215.4807 207.6634 -1009.7957 -925.8159 47669.4331 -1009.7957 -925.8159
ENERGY: 235000 2.4113 13.1496 0.8931 0.0000 -19444.0410 2811.8493 0.0000 0.0000 2293.5462 -14322.1915 236.5819 -16615.7377 -14319.5516 239.2091 -211.6247 -160.3875 48294.6271 2.2179 2.8708
ENERGY: 245000 3.8664 8.4819 0.6221 0.0000 -19376.7681 2758.8380 0.0000 0.0000 2354.4866 -14250.4732 242.8680 -16604.9598 -14244.8243 239.9028 -471.1712 -370.0678 48233.3040 1.6443 0.9679
ENERGY: 255000 2.1548 7.4239 0.3219 0.0000 -19570.5706 2877.2666 0.0000 0.0000 2349.0040 -14334.3996 242.3025 -16683.4036 -14328.1569 238.5576 2.5316 70.9984 48192.2148 4.2242 3.7185
ENERGY: 265000 1.0850 9.5684 1.0212 0.0000 -19527.5355 2877.4157 0.0000 0.0000 2316.9836 -14321.4616 238.9995 -16638.4452 -14317.5309 239.2695 244.0654 312.0596 47622.5989 6.0055 6.0912
ENERGY: 275000 1.8624 8.4595 1.9236 0.0000 -19348.1336 2808.4903 0.0000 0.0000 2303.8799 -14223.5179 237.6479 -16527.3978 -14218.6370 240.3926 101.3916 147.2679 47739.1281 -0.5085 -0.7979
TCL: Running 50000 steps at 270 kelvin.
TCL: Setting parameter langevinTemp to 270
TCL: Running for 50000 steps
ETITLE: TS BOND ANGLE DIHED IMPRP ELECT VDW BOUNDARY MISC KINETIC TOTAL TEMP POTENTIAL TOTAL3 TEMPAVG PRESSURE GPRESSURE VOLUME PRESSAVG GPRESSAVG
ENERGY: 275000 1.8624 8.4595 1.9236 0.0000 -19348.1336 2808.4903 0.0000 0.0000 2302.7203 -14224.6774 237.5283 -16527.3978 -14220.8045 237.5283 73.3219 147.4135 47739.1281 73.3219 147.4135
ENERGY: 285000 1.4168 8.2178 0.6909 0.0000 -18628.7517 2683.7965 0.0000 0.0000 2611.9259 -13322.7037 269.4232 -15934.6296 -13319.0593 270.7395 417.5084 491.6921 48741.0104 7.9269 7.4510
ENERGY: 295000 2.0741 11.2065 0.5180 0.0000 -18586.9403 2655.9162 0.0000 0.0000 2573.7168 -13343.5088 265.4819 -15917.2256 -13337.0919 268.6416 175.3389 177.2988 49219.3822 1.1955 0.6786
ENERGY: 305000 2.6676 11.6716 1.3735 0.0000 -18378.3729 2485.4911 0.0000 0.0000 2683.0813 -13194.0879 276.7629 -15877.1691 -13186.6774 270.5748 -510.5192 -392.8757 49142.6842 4.4988 4.8824
ENERGY: 315000 1.7706 7.8911 1.3153 0.0000 -18638.6607 2685.5750 0.0000 0.0000 2617.7217 -13324.3870 270.0210 -15942.1087 -13319.1010 271.3758 362.2802 467.6156 48838.7595 0.8310 0.1899
ENERGY: 325000 2.0203 9.0039 1.1082 0.0000 -18564.4691 2599.5364 0.0000 0.0000 2641.8144 -13310.9859 272.5062 -15952.8003 -13306.1139 269.8478 156.4776 284.1364 48316.6380 -6.2740 -6.1140
TCL: Running 1000000 steps at 300 kelvin.
TCL: Setting parameter langevinTemp to 300
TCL: Running for 1000000 steps
ETITLE: TS BOND ANGLE DIHED IMPRP ELECT VDW BOUNDARY MISC KINETIC TOTAL TEMP POTENTIAL TOTAL3 TEMPAVG PRESSURE GPRESSURE VOLUME PRESSAVG GPRESSAVG
ENERGY: 325000 2.0203 9.0039 1.1082 0.0000 -18564.4691 2599.5364 0.0000 0.0000 2640.5012 -13312.2991 272.3707 -15952.8003 -13308.3395 272.3707 199.5901 284.3252 48316.6380 199.5901 284.3252
ENERGY: 525000 2.7467 9.4406 0.6200 0.0000 -17485.7469 2292.3139 0.0000 0.0000 2860.1720 -12320.4536 295.0300 -15180.6256 -12317.6551 303.6889 -475.9712 -430.1185 51026.5345 2.5337 2.9067
ENERGY: 725000 2.2470 8.4634 1.0881 0.0000 -17855.3393 2462.5143 0.0000 0.0000 2866.3759 -12514.6505 295.6700 -15381.0264 -12512.3241 298.0495 99.4702 217.4791 50367.9849 1.0623 1.9225
ENERGY: 925000 1.2779 11.8713 1.6623 0.0000 -17423.6604 2282.0327 0.0000 0.0000 2945.4920 -12181.3242 303.8309 -15126.8162 -12175.8734 301.6210 -74.5607 -3.8319 50008.1309 0.2983 0.5003
ENERGY: 1125000 2.0292 11.4479 2.8088 0.0000 -17660.2216 2370.2568 0.0000 0.0000 2910.5620 -12363.1169 300.2278 -15273.6788 -12354.7138 302.7716 69.1308 159.4871 49970.5051 3.2932 3.3324
ENERGY: 1325000 1.1942 8.1582 0.8352 0.0000 -17804.1003 2428.2212 0.0000 0.0000 2958.7808 -12406.9108 305.2016 -15365.6915 -12397.8339 299.7865 44.2350 115.8697 49987.4046 -1.6216 -2.1050
TCL: Exiting due to exit command.
