Info: SIMULATION PARAMETERS:
Info: TIMESTEP               2
Info: NUMBER OF STEPS        0
Info: STEPS PER CYCLE        10
Info: PERIODIC CELL BASIS 1  80.199 0 0
Info: PERIODIC CELL BASIS 2  0 80.199 0
Info: PERIODIC CELL BASIS 3  0 0 80.199
Info: PERIODIC CELL CENTER   37.818 37.818 37.818
Info: WRAPPING ALL CLUSTERS AROUND PERIODIC BOUNDARIES ON OUTPUT.
Info: FIRST LDB TIMESTEP     50
Info: LAST LDB TIMESTEP     -1
Info: HOM BACKGROUND SCALING 1
Info: PME BACKGROUND SCALING 1
Info: MIN ATOMS PER PATCH    40
Info: EMPTY PATCH LOAD       40 ATOMS
Info: VELOCITY FILE          mobley_3274817_equilibrated.vel
Info: CENTER OF MASS MOVING INITIALLY? NO
Info: DIELECTRIC             1
Info: EXCLUDE                SCALED ONE-FOUR
Info: 1-4 ELECTROSTATICS SCALED BY 1
Info: MODIFIED 1-4 VDW PARAMETERS WILL BE USED
Info: DCD FILENAME           mobley_3274817_backwards.dcd
Info: DCD FREQUENCY          500
Info: DCD FIRST STEP         500
Info: DCD FILE WILL CONTAIN UNIT CELL DATA
Info: NO EXTENDED SYSTEM TRAJECTORY OUTPUT
Info: NO VELOCITY DCD OUTPUT
Info: NO FORCE DCD OUTPUT
Info: OUTPUT FILENAME        mobley_3274817_backwards
Info: BINARY OUTPUT FILES WILL BE USED
Info: NO RESTART FILE
Info: SWITCHING ACTIVE
Info: SWITCHING ON           10
Info: SWITCHING OFF          12
Info: PAIRLIST DISTANCE      14
Info: PAIRLIST SHRINK RATE   0.01
Info: PAIRLIST GROW RATE     0.01
Info: PAIRLIST TRIGGER       0.3
Info: PAIRLISTS PER CYCLE    2
Info: PAIRLISTS ENABLED
Info: MARGIN                 8
Info: HYDROGEN GROUP CUTOFF  2.5
Info: PATCH DIMENSION        24.5
Info: ENERGY OUTPUT STEPS    500
Info: ENERGY EVALUATION STEPS    500
Info: OUTPUT ENERGY PRECISION 4
Info: CROSSTERM ENERGY INCLUDED IN DIHEDRAL
Info: TIMING OUTPUT STEPS    500
Info: PRESSURE OUTPUT STEPS  500
Info: ALCHEMICAL FEP ON
Info: FEP CURRENT LAMBDA VALUE     1
Info: FEP COMPARISON LAMBDA VALUE  0.9375
Info: FEP INTRA-ALCHEMICAL NON-BONDED INTERACTIONS WILL BE DECOUPLED
Info: FEP INTRA-ALCHEMICAL BONDED INTERACTIONS WILL BE RETAINED
Info: FEP VDW SHIFTING COEFFICIENT 6
Info: FEP ELEC. ACTIVE FOR ANNIHILATED PARTICLES BETWEEN LAMBDA = 0 AND LAMBDA = 0.5
Info: FEP ELEC. ACTIVE FOR EXNIHILATED PARTICLES BETWEEN LAMBDA = 0.5 AND LAMBDA = 1
Info: FEP VDW ACTIVE FOR ANNIHILATED PARTICLES BETWEEN LAMBDA = 0 AND LAMBDA = 1
Info: FEP VDW ACTIVE FOR EXNIHILATED PARTICLES BETWEEN LAMBDA = 0 AND LAMBDA = 1
Info: FEP BOND ACTIVE FOR ANNIHILATED PARTICLES BETWEEN LAMBDA = 1 AND LAMBDA = 1
Info: FEP BOND ACTIVE FOR EXNIHILATED PARTICLES BETWEEN LAMBDA = 0 AND LAMBDA = 0
Info: LANGEVIN DYNAMICS ACTIVE
Info: LANGEVIN TEMPERATURE   298
Info: LANGEVIN USING BBK INTEGRATOR
Info: LANGEVIN DAMPING COEFFICIENT IS 1 INVERSE PS
Info: LANGEVIN DYNAMICS NOT APPLIED TO HYDROGENS
Info: LANGEVIN PISTON PRESSURE CONTROL ACTIVE
Info:        TARGET PRESSURE IS 1.01325 BAR
Info:     OSCILLATION PERIOD IS 100 FS
Info:             DECAY TIME IS 50 FS
Info:     PISTON TEMPERATURE IS 298 K
Info:       PRESSURE CONTROL IS GROUP-BASED
Info:    INITIAL STRAIN RATE IS 3.95842e-05 3.95842e-05 3.95842e-05
Info:       CELL FLUCTUATION IS ISOTROPIC
Info: PARTICLE MESH EWALD (PME) ACTIVE
Info: PME TOLERANCE               1e-05
Info: PME EWALD COEFFICIENT       0.226635
Info: PME INTERPOLATION ORDER     4
Info: PME GRID DIMENSIONS         84 84 84
Info: PME MAXIMUM GRID SPACING    1
Info: FULL ELECTROSTATIC EVALUATION FREQUENCY      1
Info: USING VERLET I (r-RESPA) MTS SCHEME.
Info: C1 SPLITTING OF LONG RANGE ELECTROSTATICS
Info: PLACING ATOMS IN PATCHES BY HYDROGEN GROUPS
Info: RIGID BONDS TO HYDROGEN : ALL
Info:         ERROR TOLERANCE : 1e-08
Info:          MAX ITERATIONS : 100
Info: RIGID WATER USING SETTLE ALGORITHM
Info: RANDOM NUMBER SEED     1740640376
Info: USE HYDROGEN BONDS?    NO
Info: COORDINATE PDB         mobley_3274817.pdb
Info: STRUCTURE FILE         mobley_3274817.psf
Info: PARAMETER file: CHARMM format!
Info: PARAMETERS             ../common/par_all27_prot_lipid.inp
Info: PARAMETERS             mobley_3274817.prm
Info: USING ARITHMETIC MEAN TO COMBINE L-J SIGMA PARAMETERS
Info: BINARY COORDINATES     mobley_3274817_equilibrated.coor
Info: SUMMARY OF PARAMETERS:
Info: 189 BONDS
Info: 460 ANGLES
Info: 586 DIHEDRAL
Info: 50 IMPROPER
Info: 6 CROSSTERM
Info: 127 VDW
Info: 0 VDW_PAIRS
Info: 0 NBTHOLE_PAIRS
Info: To read alchdata from file: mobley_3274817.pdb
Info: To read alchflag data from column: 5
Info: STRUCTURE SUMMARY:
Info: 5126 ATOMS
Info: 3427 BONDS
Info: 1748 ANGLES
Info: 67 DIHEDRALS
Info: 6 IMPROPERS
Info: 0 CROSSTERMS
Info: 0 EXCLUSIONS
Info: 5109 RIGID BONDS
Info: ALCH: 0 ATOMS TO DISAPPEAR IN FINAL STATE
Info: ALCH: 29 ATOMS TO APPEAR IN FINAL STATE
Info: 10269 DEGREES OF FREEDOM
Info: 1716 HYDROGEN GROUPS
Info: 4 ATOMS IN LARGEST HYDROGEN GROUP
Info: 1716 MIGRATION GROUPS
Info: 4 ATOMS IN LARGEST MIGRATION GROUP
Info: TOTAL MASS = 30848.4 amu
Info: TOTAL CHARGE = -2.37487e-08 e
Info: MASS DENSITY = 0.099308 g/cm^3
Info: ATOM DENSITY = 0.00993737 atoms/A^3
Info: ADDED 5239 IMPLICIT EXCLUSIONS
Info: NONBONDED TABLE R-SQUARED SPACING: 0.0625
Info: NONBONDED TABLE SIZE: 769 POINTS
Info: REMOVING COM VELOCITY 0.151204 0.0627162 0.0342599
TCL: Running for 5000 steps
ETITLE: TS BOND ANGLE DIHED IMPRP ELECT VDW BOUNDARY MISC KINETIC TOTAL TEMP POTENTIAL TOTAL3 TEMPAVG PRESSURE GPRESSURE VOLUME PRESSAVG GPRESSAVG
ENERGY: 0 5.8457 6.9599 5.8577 0.1652 -17529.3982 1799.4047 0.0000 0.0000 3026.4892 -12684.6757 296.6206 -15711.1649 -12678.7921 296.6206 -7.3151 -7.2326 515830.8328 -7.3151 -7.2326
ENERGY: 1000 9.1752 11.9062 7.5666 0.3087 -17578.2686 1838.7105 0.0000 0.0000 3089.6503 -12620.9510 302.8109 -15710.6013 -12615.3758 299.4912 -11.8711 -12.1707 528362.2165 0.6458 0.6574
ENERGY: 2000 9.2738 10.7689 10.0679 0.1665 -17628.0061 1819.0587 0.0000 0.0000 3065.4150 -12713.2553 300.4357 -15778.6702 -12705.8351 299.7230 -36.2003 -35.9557 540096.0845 1.9412 1.9335
ENERGY: 3000 4.9300 11.4814 6.2361 0.2442 -17582.1522 1892.2826 0.0000 0.0000 3074.9345 -12592.0434 301.3687 -15666.9779 -12585.8659 302.8770 26.7055 25.9652 544368.7014 0.8524 0.8396
ENERGY: 4000 8.4673 12.5238 6.0349 0.2034 -17574.0716 1800.7664 0.0000 0.0000 3098.3317 -12647.7441 303.6618 -15746.0758 -12642.8224 300.4554 -22.8407 -22.5791 536516.7597 1.3302 1.3140
ENERGY: 5000 4.3029 17.9202 14.4522 0.2420 -17748.5737 1861.4775 0.0000 0.0000 3043.8678 -12806.3110 298.3239 -15850.1788 -12800.5881 296.1691 18.9112 18.0045 521180.7752 1.8027 1.8016
TCL: Running FEP window   2: Lambda1 0.9375 Lambda2 0.875  [dLambda -0.0625]
TCL: Setting parameter firsttimestep to 0
TCL: Setting parameter alchLambda to 0.9375
Info: NONBONDED TABLE R-SQUARED SPACING: 0.0625
Info: NONBONDED TABLE SIZE: 769 POINTS
TCL: Setting parameter alchLambda2 to 0.875
Info: NONBONDED TABLE R-SQUARED SPACING: 0.0625
Info: NONBONDED TABLE SIZE: 769 POINTS
TCL: Running for 5000 steps
ETITLE: TS BOND ANGLE DIHED IMPRP ELECT VDW BOUNDARY MISC KINETIC TOTAL TEMP POTENTIAL TOTAL3 TEMPAVG PRESSURE GPRESSURE VOLUME PRESSAVG GPRESSAVG
ENERGY: 0 4.3029 17.9202 14.4522 0.2420 -17742.8862 1854.3546 0.0000 0.0000 3043.7723 -12807.8419 298.3145 -15851.6142 -12802.2610 298.3145 10.9458 10.7966 521180.7752 10.9458 10.7966
ENERGY: 1000 5.3117 12.3199 9.5164 0.4060 -17761.7366 1906.8296 0.0000 0.0000 3136.2646 -12691.0884 307.3795 -15827.3529 -12685.1497 299.8929 25.9196 25.0829 536087.5783 0.2388 0.2684
ENERGY: 2000 7.3613 5.8390 10.0789 0.1597 -17475.2015 1725.9230 0.0000 0.0000 3036.1719 -12689.6677 297.5696 -15725.8395 -12681.3466 299.5355 -70.6410 -69.3177 535149.9944 1.6678 1.6513
ENERGY: 3000 7.6313 15.7539 6.6880 0.2211 -17532.4786 1775.9211 0.0000 0.0000 3065.6928 -12660.5705 300.4629 -15726.2633 -12653.5721 300.6497 -28.0267 -28.8757 525326.2481 1.2402 1.2399
ENERGY: 4000 7.2261 7.5855 9.6232 0.4144 -17591.8060 1856.0705 0.0000 0.0000 3013.3113 -12697.5750 295.3291 -15710.8863 -12693.0358 300.7232 7.0251 6.6663 535011.3959 1.0050 1.0252
ENERGY: 5000 13.8146 13.9783 6.5225 0.2729 -17653.0985 1860.6481 0.0000 0.0000 2977.4589 -12780.4031 291.8153 -15757.8621 -12777.7700 294.5363 -7.4951 -7.7064 540259.8916 1.6286 1.6112
TCL: Running FEP window   3: Lambda1 0.875  Lambda2 0.8125 [dLambda -0.0625]
TCL: Setting parameter firsttimestep to 0
TCL: Setting parameter alchLambda to 0.875
Info: NONBONDED TABLE R-SQUARED SPACING: 0.0625
Info: NONBONDED TABLE SIZE: 769 POINTS
TCL: Setting parameter alchLambda2 to 0.8125
Info: NONBONDED TABLE R-SQUARED SPACING: 0.0625
Info: NONBONDED TABLE SIZE: 769 POINTS
TCL: Running for 5000 steps
ETITLE: TS BOND ANGLE DIHED IMPRP ELECT VDW BOUNDARY MISC KINETIC TOTAL TEMP POTENTIAL TOTAL3 TEMPAVG PRESSURE GPRESSURE VOLUME PRESSAVG GPRESSAVG
ENERGY: 0 13.8146 13.9783 6.5225 0.2729 -17647.7838 1855.6281 0.0000 0.0000 2977.3666 -12780.2007 291.8062 -15757.5673 -12774.8772 291.8062 -13.0737 -13.0071 540259.8916 -13.0737 -13.0071
ENERGY: 1000 8.7587 12.3764 4.2229 0.0229 -17736.3301 1891.0305 0.0000 0.0000 2995.5131 -12824.4057 293.5847 -15819.9188 -12817.6479 296.0055 24.2485 24.6963 551388.1164 -1.1922 -1.1911
ENERGY: 2000 7.1875 11.4071 8.5664 0.1854 -17757.8989 1938.8086 0.0000 0.0000 3019.2100 -12772.5338 295.9072 -15791.7439 -12767.1387 295.8408 21.4721 21.9140 573230.5963 1.1548 1.1274
ENERGY: 3000 6.3860 11.3247 7.3850 0.0768 -17642.6040 1843.2036 0.0000 0.0000 3077.1369 -12697.0911 301.5845 -15774.2280 -12693.4136 297.2724 11.8333 12.2422 558743.5132 0.1670 0.1679
ENERGY: 4000 3.7210 9.4133 5.0861 0.1880 -17669.5693 1919.1392 0.0000 0.0000 3048.5277 -12683.4940 298.7806 -15732.0217 -12677.2353 297.8122 39.1933 39.1230 545425.2449 0.8932 0.8747
ENERGY: 5000 6.0651 7.2442 9.1071 0.5237 -17754.4378 1860.6072 0.0000 0.0000 3095.0255 -12775.8649 303.3378 -15870.8904 -12769.1239 296.6631 8.5557 7.8780 530985.7674 1.8527 1.8313
TCL: Running FEP window   4: Lambda1 0.8125 Lambda2 0.75   [dLambda -0.0625]
TCL: Setting parameter firsttimestep to 0
TCL: Setting parameter alchLambda to 0.8125
Info: NONBONDED TABLE R-SQUARED SPACING: 0.0625
Info: NONBONDED TABLE SIZE: 769 POINTS
TCL: Setting parameter alchLambda2 to 0.75
Info: NONBONDED TABLE R-SQUARED SPACING: 0.0625
Info: NONBONDED TABLE SIZE: 769 POINTS
TCL: Running for 5000 steps
ETITLE: TS BOND ANGLE DIHED IMPRP ELECT VDW BOUNDARY MISC KINETIC TOTAL TEMP POTENTIAL TOTAL3 TEMPAVG PRESSURE GPRESSURE VOLUME PRESSAVG GPRESSAVG
ENERGY: 0 6.0651 7.2442 9.1071 0.5237 -17749.9924 1858.0578 0.0000 0.0000 3094.9322 -12774.0621 303.3286 -15868.9944 -12767.7312 303.3286 4.6347 4.4973 530985.7674 4.6347 4.4973
ENERGY: 1000 6.3321 8.5528 10.0721 0.1340 -17541.2909 1714.7463 0.0000 0.0000 3050.3858 -12751.0679 298.9627 -15801.4537 -12744.9267 297.4214 -63.5578 -64.1121 534605.7256 -0.5858 -0.5690
ENERGY: 2000 2.8458 11.4997 4.7275 0.2349 -17581.4493 1810.3180 0.0000 0.0000 3036.3500 -12715.4734 297.5871 -15751.8234 -12709.3679 297.0377 -32.2289 -31.8131 528728.2267 1.4306 1.4581
ENERGY: 3000 2.9149 9.4291 5.5376 0.0633 -17603.5455 1786.9221 0.0000 0.0000 3049.4062 -12749.2723 298.8667 -15798.6785 -12739.8730 296.1048 -28.1190 -27.6042 523504.2762 -0.8151 -0.8419
ENERGY: 4000 3.2743 6.5318 4.3908 0.1753 -17853.6959 1929.7508 0.0000 0.0000 3061.2783 -12848.2946 300.0302 -15909.5729 -12842.0781 294.9205 42.3383 42.2770 525309.5289 0.5002 0.4911
ENERGY: 5000 4.3858 9.1999 7.5287 0.4410 -17642.4822 1790.9609 0.0000 0.0000 3021.6163 -12808.3496 296.1431 -15829.9659 -12802.4543 294.8133 -38.4236 -37.2737 530515.7913 0.5348 0.5924
TCL: Running FEP window   5: Lambda1 0.75   Lambda2 0.6875 [dLambda -0.0625]
TCL: Setting parameter firsttimestep to 0
TCL: Setting parameter alchLambda to 0.75
Info: NONBONDED TABLE R-SQUARED SPACING: 0.0625
Info: NONBONDED TABLE SIZE: 769 POINTS
TCL: Setting parameter alchLambda2 to 0.6875
Info: NONBONDED TABLE R-SQUARED SPACING: 0.0625
Info: NONBONDED TABLE SIZE: 769 POINTS
TCL: Running for 5000 steps
ETITLE: TS BOND ANGLE DIHED IMPRP ELECT VDW BOUNDARY MISC KINETIC TOTAL TEMP POTENTIAL TOTAL3 TEMPAVG PRESSURE GPRESSURE VOLUME PRESSAVG GPRESSAVG
ENERGY: 0 4.3858 9.1999 7.5287 0.4410 -17638.3767 1789.3214 0.0000 0.0000 3021.5205 -12805.9795 296.1337 -15827.4999 -12800.1854 296.1337 -39.8016 -39.8328 530515.7913 -39.8016 -39.8328
ENERGY: 1000 1.4713 10.8635 5.3784 0.2572 -17680.5924 1885.1786 0.0000 0.0000 3032.0873 -12745.3561 297.1693 -15777.4434 -12737.3683 297.0040 14.9914 15.0385 525101.0798 -0.3718 -0.3744
ENERGY: 2000 4.6790 15.8835 8.1393 0.3659 -17592.1471 1833.4402 0.0000 0.0000 3000.9830 -12728.6562 294.1208 -15729.6392 -12722.7714 298.5274 1.0543 1.3564 517972.4904 2.9149 2.9583
ENERGY: 3000 7.5372 9.2513 7.2035 0.1281 -17705.2359 1845.7771 0.0000 0.0000 3069.7740 -12765.5647 300.8629 -15835.3387 -12758.3466 298.3349 -9.5606 -9.5384 501869.6063 1.8981 1.9091
ENERGY: 4000 4.5725 13.7967 4.8109 0.2491 -17712.9030 1855.3226 0.0000 0.0000 3022.3405 -12811.8107 296.2140 -15834.1512 -12804.5160 296.5155 5.9448 5.9980 509733.8470 0.5066 0.5347
ENERGY: 5000 5.4496 13.1787 3.5620 0.2233 -17757.7472 1871.4457 0.0000 0.0000 3006.5512 -12857.3367 294.6665 -15863.8879 -12851.9891 292.8012 -1.9314 -2.0888 536261.7839 1.1530 1.1870
TCL: Running FEP window   6: Lambda1 0.6875 Lambda2 0.625  [dLambda -0.0625]
TCL: Setting parameter firsttimestep to 0
TCL: Setting parameter alchLambda to 0.6875
Info: NONBONDED TABLE R-SQUARED SPACING: 0.0625
Info: NONBONDED TABLE SIZE: 769 POINTS
TCL: Setting parameter alchLambda2 to 0.625
Info: NONBONDED TABLE R-SQUARED SPACING: 0.0625
Info: NONBONDED TABLE SIZE: 769 POINTS
TCL: Running for 5000 steps
ETITLE: TS BOND ANGLE DIHED IMPRP ELECT VDW BOUNDARY MISC KINETIC TOTAL TEMP POTENTIAL TOTAL3 TEMPAVG PRESSURE GPRESSURE VOLUME PRESSAVG GPRESSAVG
ENERGY: 0 5.4496 13.1787 3.5620 0.2233 -17752.5188 1870.8081 0.0000 0.0000 3006.4583 -12852.8387 294.6574 -15859.2970 -12847.0129 294.6574 -3.9699 -3.9634 536261.7839 -3.9699 -3.9634
ENERGY: 1000 3.8142 8.4898 3.6609 0.1055 -17526.9289 1808.2841 0.0000 0.0000 3017.1885 -12685.3859 295.7091 -15702.5743 -12680.7855 296.4310 -23.4157 -24.3946 587272.0232 -0.7967 -0.7910
ENERGY: 2000 4.5384 11.8890 4.2023 0.1230 -17697.4759 1888.2168 0.0000 0.0000 2987.5867 -12800.9197 292.8079 -15788.5064 -12796.3117 297.4943 14.2440 14.3927 603046.7318 2.0093 2.0101
ENERGY: 3000 3.0317 9.1471 5.5692 0.1512 -17797.4614 1928.3028 0.0000 0.0000 3037.7194 -12813.5401 297.7213 -15851.2595 -12806.6839 295.9503 32.4096 32.4854 627332.9898 1.4490 1.4517
ENERGY: 4000 6.1238 8.2445 2.0528 0.1139 -17625.0125 1842.0124 0.0000 0.0000 3059.6086 -12706.8566 299.8666 -15766.4652 -12701.7035 298.2472 2.4960 3.3514 637319.7506 1.2788 1.2879
ENERGY: 5000 6.5493 10.1867 6.6392 0.4180 -17723.6915 1890.1661 0.0000 0.0000 3128.7179 -12681.0144 306.6399 -15809.7323 -12675.5877 301.3825 22.4928 22.4102 614410.2862 2.1900 2.1872
TCL: Running FEP window   7: Lambda1 0.625  Lambda2 0.5625 [dLambda -0.0625]
TCL: Setting parameter firsttimestep to 0
TCL: Setting parameter alchLambda to 0.625
Info: NONBONDED TABLE R-SQUARED SPACING: 0.0625
Info: NONBONDED TABLE SIZE: 769 POINTS
TCL: Setting parameter alchLambda2 to 0.5625
Info: NONBONDED TABLE R-SQUARED SPACING: 0.0625
Info: NONBONDED TABLE SIZE: 769 POINTS
TCL: Running for 5000 steps
ETITLE: TS BOND ANGLE DIHED IMPRP ELECT VDW BOUNDARY MISC KINETIC TOTAL TEMP POTENTIAL TOTAL3 TEMPAVG PRESSURE GPRESSURE VOLUME PRESSAVG GPRESSAVG
ENERGY: 0 6.5493 10.1867 6.6392 0.4180 -17718.8413 1889.7353 0.0000 0.0000 3128.6223 -12676.6905 306.6305 -15805.3128 -12670.6369 306.6305 20.9399 20.8856 614410.2862 20.9399 20.8856
ENERGY: 1000 9.7423 9.5341 2.9306 0.0684 -17488.5657 1807.5808 0.0000 0.0000 3008.8766 -12649.8328 294.8945 -15658.7094 -12643.8081 300.0699 -13.0067 -12.7995 601018.3540 1.6713 1.6625
ENERGY: 2000 4.2384 11.5628 4.4730 0.2604 -17699.7301 1908.6649 0.0000 0.0000 3057.8209 -12712.7097 299.6914 -15770.5306 -12706.6954 297.0859 41.6638 41.8019 581454.8279 1.1511 1.2328
ENERGY: 3000 3.8548 9.7452 5.0173 0.3892 -17711.2076 1915.6436 0.0000 0.0000 3083.9419 -12692.6155 302.2515 -15776.5574 -12686.5272 299.3263 30.3462 30.4435 584613.8669 1.8960 1.8954
ENERGY: 4000 6.3305 9.6517 5.3958 0.1654 -17563.7417 1841.1973 0.0000 0.0000 3044.1582 -12656.8428 298.3523 -15701.0010 -12648.2402 299.9203 -20.7281 -20.9001 591689.0145 0.0085 -0.0054
ENERGY: 5000 4.2440 9.2952 3.7006 0.1128 -17313.0980 1635.6581 0.0000 0.0000 3003.9949 -12656.0924 294.4160 -15660.0873 -12650.1178 298.5800 -96.6001 -96.1764 589530.8598 -0.6833 -0.6562
TCL: Running FEP window   8: Lambda1 0.5625 Lambda2 0.5    [dLambda -0.0625]
TCL: Setting parameter firsttimestep to 0
TCL: Setting parameter alchLambda to 0.5625
Info: NONBONDED TABLE R-SQUARED SPACING: 0.0625
Info: NONBONDED TABLE SIZE: 769 POINTS
TCL: Setting parameter alchLambda2 to 0.5
Info: NONBONDED TABLE R-SQUARED SPACING: 0.0625
Info: NONBONDED TABLE SIZE: 769 POINTS
TCL: Running for 5000 steps
ETITLE: TS BOND ANGLE DIHED IMPRP ELECT VDW BOUNDARY MISC KINETIC TOTAL TEMP POTENTIAL TOTAL3 TEMPAVG PRESSURE GPRESSURE VOLUME PRESSAVG GPRESSAVG
ENERGY: 0 4.2440 9.2952 3.7006 0.1128 -17308.9168 1635.2161 0.0000 0.0000 3003.9006 -12652.4476 294.4068 -15656.3482 -12645.7394 294.4068 -97.8162 -97.8202 589530.8598 -97.8162 -97.8202
ENERGY: 1000 2.0179 8.8136 8.2799 0.3076 -17591.8677 1790.7710 0.0000 0.0000 3062.1906 -12719.4870 300.1197 -15781.6776 -12711.9674 300.1216 -20.9208 -20.9253 589610.4278 1.6966 1.6941
ENERGY: 2000 4.4656 7.6147 5.9558 0.0816 -17612.3714 1852.6394 0.0000 0.0000 3044.7224 -12696.8919 298.4076 -15741.6144 -12690.3055 296.9767 16.5971 17.0396 576301.5460 0.4275 0.4256
ENERGY: 3000 6.8604 5.6163 6.6401 0.3691 -17666.4361 1916.0749 0.0000 0.0000 3048.7775 -12682.0977 298.8051 -15730.8753 -12676.6672 299.9021 28.3300 29.0491 577275.3270 0.9559 0.9403
ENERGY: 4000 6.1500 8.6741 4.5510 0.1664 -17545.8972 1844.6636 0.0000 0.0000 3012.2010 -12669.4912 295.2203 -15681.6921 -12663.8265 297.9325 -14.7675 -14.1953 591489.8544 1.3153 1.3129
ENERGY: 5000 5.2187 14.0442 8.2807 0.2662 -17642.1774 1831.4890 0.0000 0.0000 3042.1072 -12740.7714 298.1513 -15782.8786 -12733.0869 297.1102 -20.2193 -20.6446 573507.6583 0.6497 0.6568
TCL: Running FEP window   9: Lambda1 0.5    Lambda2 0.4375 [dLambda -0.0625]
TCL: Setting parameter firsttimestep to 0
TCL: Setting parameter alchLambda to 0.5
Info: NONBONDED TABLE R-SQUARED SPACING: 0.0625
Info: NONBONDED TABLE SIZE: 769 POINTS
TCL: Setting parameter alchLambda2 to 0.4375
Info: NONBONDED TABLE R-SQUARED SPACING: 0.0625
Info: NONBONDED TABLE SIZE: 769 POINTS
TCL: Running for 5000 steps
ETITLE: TS BOND ANGLE DIHED IMPRP ELECT VDW BOUNDARY MISC KINETIC TOTAL TEMP POTENTIAL TOTAL3 TEMPAVG PRESSURE GPRESSURE VOLUME PRESSAVG GPRESSAVG
ENERGY: 0 5.2187 14.0442 8.2807 0.2662 -17638.5484 1832.4089 0.0000 0.0000 3042.0151 -12736.3147 298.1423 -15778.3297 -12730.1447 298.1423 -21.3677 -21.3257 573507.6583 -21.3677 -21.3257
ENERGY: 1000 5.1495 17.3571 5.1362 0.0833 -17502.3252 1816.2303 0.0000 0.0000 3018.2896 -12640.0791 295.8170 -15658.3688 -12633.3192 297.7226 -18.7960 -18.6250 566236.5697 0.4883 0.4979
ENERGY: 2000 6.5949 12.2300 6.0064 0.2122 -17516.5936 1820.1913 0.0000 0.0000 3049.6002 -12621.7587 298.8857 -15671.3589 -12612.7092 302.6719 -13.4247 -12.7683 575969.8952 0.0851 0.0789
ENERGY: 3000 1.9630 8.4979 2.7906 0.1478 -17653.8080 1897.6189 0.0000 0.0000 3080.3770 -12662.4126 301.9021 -15742.7897 -12655.7214 301.6843 16.6099 15.6529 598728.5692 1.4585 1.4651
ENERGY: 4000 2.9002 10.6622 4.5906 0.1911 -17700.7043 1951.9414 0.0000 0.0000 3071.4767 -12658.9421 301.0298 -15730.4187 -12653.0822 297.2544 52.2703 52.4799 601772.7900 0.8099 0.8230
ENERGY: 5000 6.8813 9.6392 2.2660 0.0380 -17555.3048 1773.0687 0.0000 0.0000 3040.3043 -12723.1072 297.9746 -15763.4115 -12717.3395 297.3942 -31.7853 -31.3314 603590.6366 1.6016 1.5902
TCL: Running FEP window  10: Lambda1 0.4375 Lambda2 0.375  [dLambda -0.0625]
TCL: Setting parameter firsttimestep to 0
TCL: Setting parameter alchLambda to 0.4375
Info: NONBONDED TABLE R-SQUARED SPACING: 0.0625
Info: NONBONDED TABLE SIZE: 769 POINTS
TCL: Setting parameter alchLambda2 to 0.375
Info: NONBONDED TABLE R-SQUARED SPACING: 0.0625
Info: NONBONDED TABLE SIZE: 769 POINTS
TCL: Running for 5000 steps
ETITLE: TS BOND ANGLE DIHED IMPRP ELECT VDW BOUNDARY MISC KINETIC TOTAL TEMP POTENTIAL TOTAL3 TEMPAVG PRESSURE GPRESSURE VOLUME PRESSAVG GPRESSAVG
ENERGY: 0 6.8813 9.6392 2.2660 0.0380 -17555.3048 1773.4075 0.0000 0.0000 3040.2095 -12722.8632 297.9653 -15763.0727 -12716.5767 297.9653 -32.1938 -32.1979 603590.6366 -32.1938 -32.1979
ENERGY: 1000 3.7788 9.5847 6.0377 0.2471 -17383.3430 1720.1013 0.0000 0.0000 3024.2821 -12619.3114 296.4043 -15643.5935 -12613.9019 299.1020 -51.2082 -50.6238 597875.6822 1.7252 1.7271
ENERGY: 2000 6.5299 9.9233 4.2305 0.1045 -17591.2640 1862.4189 0.0000 0.0000 3058.7817 -12649.2753 299.7856 -15708.0570 -12644.3507 300.9823 -1.3694 -1.8190 595193.7096 1.1070 1.1188
ENERGY: 3000 7.2605 12.2118 5.5342 0.1183 -17676.8972 1875.3593 0.0000 0.0000 3090.0460 -12686.3672 302.8497 -15776.4131 -12681.7599 297.7554 20.7145 20.3431 584862.2592 3.1645 3.1637
ENERGY: 4000 4.5385 15.3984 6.8428 0.1877 -17705.0137 1911.3250 0.0000 0.0000 3024.7572 -12741.9642 296.4509 -15766.7214 -12734.8728 296.8407 32.8267 31.9087 563762.8984 2.4622 2.4670
ENERGY: 5000 3.6587 14.0005 6.3520 0.1809 -17613.7231 1822.4956 0.0000 0.0000 3036.7797 -12730.2557 297.6292 -15767.0353 -12727.8173 296.7960 -19.1006 -18.0052 578026.3714 1.8914 1.8838
TCL: Running FEP window  11: Lambda1 0.375  Lambda2 0.3125 [dLambda -0.0625]
TCL: Setting parameter firsttimestep to 0
TCL: Setting parameter alchLambda to 0.375
Info: NONBONDED TABLE R-SQUARED SPACING: 0.0625
Info: NONBONDED TABLE SIZE: 769 POINTS
TCL: Setting parameter alchLambda2 to 0.3125
Info: NONBONDED TABLE R-SQUARED SPACING: 0.0625
Info: NONBONDED TABLE SIZE: 769 POINTS
TCL: Running for 5000 steps
ETITLE: TS BOND ANGLE DIHED IMPRP ELECT VDW BOUNDARY MISC KINETIC TOTAL TEMP POTENTIAL TOTAL3 TEMPAVG PRESSURE GPRESSURE VOLUME PRESSAVG GPRESSAVG
ENERGY: 0 3.6587 14.0005 6.3520 0.1809 -17613.7231 1821.4733 0.0000 0.0000 3036.6836 -12731.3740 297.6198 -15768.0576 -12725.4728 297.6198 -19.6130 -19.6068 578026.3714 -19.6130 -19.6068
ENERGY: 1000 6.2379 12.8655 6.2966 0.0400 -17690.9242 1869.5590 0.0000 0.0000 3126.9933 -12668.9320 306.4709 -15795.9253 -12664.3881 299.1735 -0.2204 0.3935 573823.3246 0.7501 0.7516
ENERGY: 2000 2.9463 11.6090 9.1487 0.2523 -17585.6727 1766.7602 0.0000 0.0000 3069.5495 -12725.4066 300.8409 -15794.9561 -12718.6200 299.1313 -21.8368 -21.8178 574650.3243 0.9030 0.9089
ENERGY: 3000 4.9987 16.2504 6.2075 0.2848 -17776.9978 1899.7137 0.0000 0.0000 3021.1602 -12828.3825 296.0983 -15849.5427 -12823.6747 296.1751 7.8379 7.2861 589476.9994 1.3522 1.3893
ENERGY: 4000 5.8982 11.1323 3.7078 0.1011 -17626.6766 1823.5683 0.0000 0.0000 2984.2814 -12797.9874 292.4839 -15782.2689 -12792.9803 295.2904 -5.6582 -6.2949 611129.9616 -1.4601 -1.5020
ENERGY: 5000 4.7744 10.1561 4.4958 0.2782 -17613.3360 1726.4047 0.0000 0.0000 2971.9965 -12895.2304 291.2799 -15867.2268 -12888.9573 294.9786 -59.3586 -60.0678 607710.9391 -0.4070 -0.3990
TCL: Running FEP window  12: Lambda1 0.3125 Lambda2 0.25   [dLambda -0.0625]
TCL: Setting parameter firsttimestep to 0
TCL: Setting parameter alchLambda to 0.3125
Info: NONBONDED TABLE R-SQUARED SPACING: 0.0625
Info: NONBONDED TABLE SIZE: 769 POINTS
TCL: Setting parameter alchLambda2 to 0.25
Info: NONBONDED TABLE R-SQUARED SPACING: 0.0625
Info: NONBONDED TABLE SIZE: 769 POINTS
TCL: Running for 5000 steps
ETITLE: TS BOND ANGLE DIHED IMPRP ELECT VDW BOUNDARY MISC KINETIC TOTAL TEMP POTENTIAL TOTAL3 TEMPAVG PRESSURE GPRESSURE VOLUME PRESSAVG GPRESSAVG
ENERGY: 0 4.7744 10.1561 4.4958 0.2782 -17613.3360 1728.0230 0.0000 0.0000 2971.9026 -12893.7059 291.2707 -15865.6085 -12887.2476 291.2707 -60.3018 -60.2504 607710.9391 -60.3018 -60.2504
ENERGY: 1000 4.0358 5.7556 6.5488 0.2457 -17783.2780 1950.0765 0.0000 0.0000 3005.5419 -12811.0737 294.5676 -15816.6156 -12804.6176 294.9541 43.5483 42.4645 596997.6222 2.1865 2.1932
ENERGY: 2000 7.3110 7.2983 6.3982 0.1173 -17536.9464 1778.6333 0.0000 0.0000 3061.0125 -12676.1758 300.0042 -15737.1883 -12670.2518 298.2495 -7.9376 -8.1924 588117.4469 0.9719 0.9660
ENERGY: 3000 7.4534 9.7016 7.9036 0.1269 -17532.8208 1730.5895 0.0000 0.0000 3057.3900 -12719.6557 299.6492 -15777.0458 -12714.9684 298.0451 -40.9167 -41.2027 610073.6272 2.8996 2.8810
ENERGY: 4000 6.0844 12.0975 4.4265 0.1989 -17793.7512 1913.8245 0.0000 0.0000 2969.4921 -12887.6272 291.0345 -15857.1193 -12881.0378 295.6293 16.5183 15.4418 618894.2289 1.9780 2.0009
ENERGY: 5000 3.4160 14.6842 3.4899 0.0462 -17615.9282 1864.8988 0.0000 0.0000 2983.9630 -12745.4301 292.4527 -15729.3931 -12738.8144 298.0503 -3.8378 -3.5222 628810.4414 -0.4932 -0.5060
TCL: Running FEP window  13: Lambda1 0.25   Lambda2 0.1875 [dLambda -0.0625]
TCL: Setting parameter firsttimestep to 0
TCL: Setting parameter alchLambda to 0.25
Info: NONBONDED TABLE R-SQUARED SPACING: 0.0625
Info: NONBONDED TABLE SIZE: 769 POINTS
TCL: Setting parameter alchLambda2 to 0.1875
Info: NONBONDED TABLE R-SQUARED SPACING: 0.0625
Info: NONBONDED TABLE SIZE: 769 POINTS
TCL: Running for 5000 steps
ETITLE: TS BOND ANGLE DIHED IMPRP ELECT VDW BOUNDARY MISC KINETIC TOTAL TEMP POTENTIAL TOTAL3 TEMPAVG PRESSURE GPRESSURE VOLUME PRESSAVG GPRESSAVG
ENERGY: 0 3.4160 14.6842 3.4899 0.0462 -17615.9282 1866.2942 0.0000 0.0000 2983.8678 -12744.1299 292.4434 -15727.9977 -12737.9781 292.4434 -3.7214 -3.7029 628810.4414 -3.7214 -3.7029
ENERGY: 1000 7.0720 12.7988 5.2459 0.1834 -17693.3942 1880.7313 0.0000 0.0000 3046.0894 -12741.2734 298.5416 -15787.3628 -12735.3997 298.6985 12.3589 12.7971 602083.6059 1.7865 1.7600
ENERGY: 2000 3.0526 12.3215 3.6971 0.2159 -17665.5226 1852.2027 0.0000 0.0000 3041.9124 -12752.1205 298.1322 -15794.0329 -12742.6986 296.9656 -14.6542 -15.1847 570980.0710 1.0325 1.0337
ENERGY: 3000 5.6173 12.4773 7.0681 0.4169 -17687.9994 1864.3638 0.0000 0.0000 3019.1861 -12778.8698 295.9049 -15798.0559 -12771.9434 297.6335 10.1611 9.8744 569192.0942 0.1888 0.1674
ENERGY: 4000 2.5462 8.9189 5.4361 0.1835 -17722.2874 1853.9893 0.0000 0.0000 3023.1541 -12828.0593 296.2938 -15851.2134 -12822.4904 294.1517 3.3628 3.5199 579161.9331 0.9268 0.9505
ENERGY: 5000 4.3462 8.5182 5.6207 0.1388 -17522.3061 1768.1687 0.0000 0.0000 2967.4575 -12768.0559 290.8350 -15735.5134 -12760.4973 294.3176 -48.5185 -48.5364 600351.9100 -1.8463 -1.8609
TCL: Running FEP window  14: Lambda1 0.1875 Lambda2 0.125  [dLambda -0.0625]
TCL: Setting parameter firsttimestep to 0
TCL: Setting parameter alchLambda to 0.1875
Info: NONBONDED TABLE R-SQUARED SPACING: 0.0625
Info: NONBONDED TABLE SIZE: 769 POINTS
TCL: Setting parameter alchLambda2 to 0.125
Info: NONBONDED TABLE R-SQUARED SPACING: 0.0625
Info: NONBONDED TABLE SIZE: 769 POINTS
TCL: Running for 5000 steps
ETITLE: TS BOND ANGLE DIHED IMPRP ELECT VDW BOUNDARY MISC KINETIC TOTAL TEMP POTENTIAL TOTAL3 TEMPAVG PRESSURE GPRESSURE VOLUME PRESSAVG GPRESSAVG
ENERGY: 0 4.3462 8.5182 5.6207 0.1388 -17522.3061 1769.3904 0.0000 0.0000 2967.3660 -12766.9257 290.8261 -15734.2917 -12761.3207 290.8261 -48.6106 -48.5325 600351.9100 -48.6106 -48.5325
ENERGY: 1000 5.2949 7.4543 5.6904 0.0732 -17723.7679 1927.9571 0.0000 0.0000 3044.5981 -12732.6999 298.3955 -15777.2980 -12727.3367 296.2762 14.2608 14.8708 581412.2803 0.2426 0.2769
ENERGY: 2000 4.7319 10.2672 8.0752 0.2636 -17667.7585 1848.7373 0.0000 0.0000 3046.1740 -12749.5093 298.5499 -15795.6833 -12742.3900 297.1218 -2.4245 -2.0971 555741.5659 1.6064 1.6367
ENERGY: 3000 5.6012 9.5181 7.6584 0.2891 -17555.1162 1835.9993 0.0000 0.0000 2966.6019 -12729.4482 290.7512 -15696.0501 -12721.9175 297.8704 -17.5978 -18.3477 533524.1604 0.5232 0.5235
ENERGY: 4000 5.7183 8.9364 6.1925 0.1279 -17726.6881 1928.3718 0.0000 0.0000 3009.3094 -12768.0318 294.9369 -15777.3412 -12761.8591 297.8295 41.1013 41.8581 505821.1284 0.4935 0.4684
ENERGY: 5000 5.9586 12.7936 3.9509 0.2063 -17649.9158 1837.5990 0.0000 0.0000 3095.0712 -12694.3360 303.3422 -15789.4073 -12689.3711 298.9737 -9.4130 -8.6269 515410.9284 0.0065 -0.0819
TCL: Running FEP window  15: Lambda1 0.125  Lambda2 0.0625 [dLambda -0.0625]
TCL: Setting parameter firsttimestep to 0
TCL: Setting parameter alchLambda to 0.125
Info: NONBONDED TABLE R-SQUARED SPACING: 0.0625
Info: NONBONDED TABLE SIZE: 769 POINTS
TCL: Setting parameter alchLambda2 to 0.0625
Info: NONBONDED TABLE R-SQUARED SPACING: 0.0625
Info: NONBONDED TABLE SIZE: 769 POINTS
TCL: Running for 5000 steps
ETITLE: TS BOND ANGLE DIHED IMPRP ELECT VDW BOUNDARY MISC KINETIC TOTAL TEMP POTENTIAL TOTAL3 TEMPAVG PRESSURE GPRESSURE VOLUME PRESSAVG GPRESSAVG
ENERGY: 0 5.9586 12.7936 3.9509 0.2063 -17649.9158 1838.2852 0.0000 0.0000 3094.9789 -12693.7422 303.3332 -15788.7211 -12687.8497 303.3332 -9.1174 -8.9796 515410.9284 -9.1174 -8.9796
ENERGY: 1000 5.7989 9.9024 4.7203 0.2277 -17698.5820 1854.8731 0.0000 0.0000 3039.5227 -12783.5369 297.8980 -15823.0596 -12780.3863 297.3457 -27.2620 -27.1122 505056.7737 -0.5662 -0.5962
ENERGY: 2000 3.6812 16.2486 5.2954 0.1346 -17724.9379 1847.2172 0.0000 0.0000 3066.8922 -12785.4686 300.5805 -15852.3608 -12778.7409 296.4752 -6.6876 -5.7040 484000.3338 1.8239 1.7999
ENERGY: 3000 5.8562 16.8117 5.2441 0.3898 -17776.5224 1927.9003 0.0000 0.0000 3032.3333 -12787.9870 297.1934 -15820.3203 -12782.9348 295.8466 21.9813 21.4738 480080.4973 1.2285 1.1979
ENERGY: 4000 4.9899 14.5978 6.2613 0.3292 -17691.6615 1881.1998 0.0000 0.0000 3032.3624 -12751.9210 297.1963 -15784.2834 -12744.6547 295.7305 3.9746 3.8818 470275.0851 1.9858 1.9704
ENERGY: 5000 6.2541 10.1703 2.3131 0.1500 -17782.8080 1876.0621 0.0000 0.0000 3064.2639 -12823.5945 300.3229 -15887.8583 -12817.3124 296.3543 23.5873 24.3403 449106.6604 1.1105 1.1057
TCL: Running FEP window  16: Lambda1 0.0625 Lambda2 0.0    [dLambda -0.0625]
TCL: Setting parameter firsttimestep to 0
TCL: Setting parameter alchLambda to 0.0625
Info: NONBONDED TABLE R-SQUARED SPACING: 0.0625
Info: NONBONDED TABLE SIZE: 769 POINTS
TCL: Setting parameter alchLambda2 to 0.0
Info: NONBONDED TABLE R-SQUARED SPACING: 0.0625
Info: NONBONDED TABLE SIZE: 769 POINTS
TCL: Running for 5000 steps
ETITLE: TS BOND ANGLE DIHED IMPRP ELECT VDW BOUNDARY MISC KINETIC TOTAL TEMP POTENTIAL TOTAL3 TEMPAVG PRESSURE GPRESSURE VOLUME PRESSAVG GPRESSAVG
ENERGY: 0 6.2541 10.1703 2.3131 0.1500 -17782.8080 1876.0350 0.0000 0.0000 3064.1712 -12823.7143 300.3138 -15887.8855 -12817.5054 300.3138 23.9620 24.0566 449106.6604 23.9620 24.0566
ENERGY: 1000 6.8687 11.2545 2.9269 0.0951 -17514.2821 1800.6987 0.0000 0.0000 3056.0391 -12636.3990 299.5168 -15692.4381 -12630.5406 299.7173 -12.1850 -12.5907 456943.8378 2.3614 2.3438
ENERGY: 2000 4.8972 11.4043 6.1170 0.0530 -17588.5838 1932.0588 0.0000 0.0000 3061.8412 -12572.2123 300.0854 -15634.0534 -12567.8466 303.2292 50.2561 51.6756 443709.9620 1.5189 1.4424
ENERGY: 3000 3.5970 10.1170 3.6931 0.1554 -17587.3506 1788.7791 0.0000 0.0000 3088.4456 -12692.5633 302.6929 -15781.0089 -12688.0339 299.6709 -55.9796 -55.8617 432792.8025 -2.0266 -2.0471
ENERGY: 4000 6.4505 9.0167 7.4520 0.6528 -17715.2226 1878.3698 0.0000 0.0000 3105.2268 -12708.0541 304.3376 -15813.2809 -12701.2902 296.3455 -0.6986 -1.2391 411615.8815 0.9805 1.0007
ENERGY: 5000 3.9893 8.0701 4.1267 0.2206 -17586.8834 1830.3249 0.0000 0.0000 3095.8650 -12644.2866 303.4200 -15740.1516 -12635.8032 300.2745 -2.8670 -2.5297 403404.9307 2.1094 2.0856
