Info: SIMULATION PARAMETERS:
Info: TIMESTEP               2
Info: NUMBER OF STEPS        0
Info: STEPS PER CYCLE        10
Info: PERIODIC CELL BASIS 1  80.199 0 0
Info: PERIODIC CELL BASIS 2  0 80.199 0
Info: PERIODIC CELL BASIS 3  0 0 80.199
Info: PERIODIC CELL CENTER   37.818 37.818 37.818
Info: WRAPPING ALL CLUSTERS AROUND PERIODIC BOUNDARIES ON OUTPUT.
Info: FIRST LDB TIMESTEP     50
Info: LAST LDB TIMESTEP     -1
Info: HOM BACKGROUND SCALING 1
Info: PME BACKGROUND SCALING 1
Info: MIN ATOMS PER PATCH    40
Info: EMPTY PATCH LOAD       40 ATOMS
Info: VELOCITY FILE          mobley_3274817_equilibrated.vel
Info: CENTER OF MASS MOVING INITIALLY? NO
Info: DIELECTRIC             1
Info: EXCLUDE                SCALED ONE-FOUR
Info: 1-4 ELECTROSTATICS SCALED BY 1
Info: MODIFIED 1-4 VDW PARAMETERS WILL BE USED
Info: DCD FILENAME           mobley_3274817_forwards.dcd
Info: DCD FREQUENCY          500
Info: DCD FIRST STEP         500
Info: DCD FILE WILL CONTAIN UNIT CELL DATA
Info: NO EXTENDED SYSTEM TRAJECTORY OUTPUT
Info: NO VELOCITY DCD OUTPUT
Info: NO FORCE DCD OUTPUT
Info: OUTPUT FILENAME        mobley_3274817_forwards
Info: BINARY OUTPUT FILES WILL BE USED
Info: NO RESTART FILE
Info: SWITCHING ACTIVE
Info: SWITCHING ON           10
Info: SWITCHING OFF          12
Info: PAIRLIST DISTANCE      14
Info: PAIRLIST SHRINK RATE   0.01
Info: PAIRLIST GROW RATE     0.01
Info: PAIRLIST TRIGGER       0.3
Info: PAIRLISTS PER CYCLE    2
Info: PAIRLISTS ENABLED
Info: MARGIN                 8
Info: HYDROGEN GROUP CUTOFF  2.5
Info: PATCH DIMENSION        24.5
Info: ENERGY OUTPUT STEPS    500
Info: ENERGY EVALUATION STEPS    500
Info: OUTPUT ENERGY PRECISION 4
Info: CROSSTERM ENERGY INCLUDED IN DIHEDRAL
Info: TIMING OUTPUT STEPS    500
Info: PRESSURE OUTPUT STEPS  500
Info: ALCHEMICAL FEP ON
Info: FEP CURRENT LAMBDA VALUE     0
Info: FEP COMPARISON LAMBDA VALUE  0.0625
Info: FEP INTRA-ALCHEMICAL NON-BONDED INTERACTIONS WILL BE DECOUPLED
Info: FEP INTRA-ALCHEMICAL BONDED INTERACTIONS WILL BE RETAINED
Info: FEP VDW SHIFTING COEFFICIENT 6
Info: FEP ELEC. ACTIVE FOR ANNIHILATED PARTICLES BETWEEN LAMBDA = 0 AND LAMBDA = 0.5
Info: FEP ELEC. ACTIVE FOR EXNIHILATED PARTICLES BETWEEN LAMBDA = 0.5 AND LAMBDA = 1
Info: FEP VDW ACTIVE FOR ANNIHILATED PARTICLES BETWEEN LAMBDA = 0 AND LAMBDA = 1
Info: FEP VDW ACTIVE FOR EXNIHILATED PARTICLES BETWEEN LAMBDA = 0 AND LAMBDA = 1
Info: FEP BOND ACTIVE FOR ANNIHILATED PARTICLES BETWEEN LAMBDA = 1 AND LAMBDA = 1
Info: FEP BOND ACTIVE FOR EXNIHILATED PARTICLES BETWEEN LAMBDA = 0 AND LAMBDA = 0
Info: LANGEVIN DYNAMICS ACTIVE
Info: LANGEVIN TEMPERATURE   298
Info: LANGEVIN USING BBK INTEGRATOR
Info: LANGEVIN DAMPING COEFFICIENT IS 1 INVERSE PS
Info: LANGEVIN DYNAMICS NOT APPLIED TO HYDROGENS
Info: LANGEVIN PISTON PRESSURE CONTROL ACTIVE
Info:        TARGET PRESSURE IS 1.01325 BAR
Info:     OSCILLATION PERIOD IS 100 FS
Info:             DECAY TIME IS 50 FS
Info:     PISTON TEMPERATURE IS 298 K
Info:       PRESSURE CONTROL IS GROUP-BASED
Info:    INITIAL STRAIN RATE IS 3.95842e-05 3.95842e-05 3.95842e-05
Info:       CELL FLUCTUATION IS ISOTROPIC
Info: PARTICLE MESH EWALD (PME) ACTIVE
Info: PME TOLERANCE               1e-05
Info: PME EWALD COEFFICIENT       0.226635
Info: PME INTERPOLATION ORDER     4
Info: PME GRID DIMENSIONS         84 84 84
Info: PME MAXIMUM GRID SPACING    1
Info: FULL ELECTROSTATIC EVALUATION FREQUENCY      1
Info: USING VERLET I (r-RESPA) MTS SCHEME.
Info: C1 SPLITTING OF LONG RANGE ELECTROSTATICS
Info: PLACING ATOMS IN PATCHES BY HYDROGEN GROUPS
Info: RIGID BONDS TO HYDROGEN : ALL
Info:         ERROR TOLERANCE : 1e-08
Info:          MAX ITERATIONS : 100
Info: RIGID WATER USING SETTLE ALGORITHM
Info: RANDOM NUMBER SEED     1740640377
Info: USE HYDROGEN BONDS?    NO
Info: COORDINATE PDB         mobley_3274817.pdb
Info: STRUCTURE FILE         mobley_3274817.psf
Info: PARAMETER file: CHARMM format!
Info: PARAMETERS             ../common/par_all27_prot_lipid.inp
Info: PARAMETERS             mobley_3274817.prm
Info: USING ARITHMETIC MEAN TO COMBINE L-J SIGMA PARAMETERS
Info: BINARY COORDINATES     mobley_3274817_equilibrated.coor
Info: SUMMARY OF PARAMETERS:
Info: 189 BONDS
Info: 460 ANGLES
Info: 586 DIHEDRAL
Info: 50 IMPROPER
Info: 6 CROSSTERM
Info: 127 VDW
Info: 0 VDW_PAIRS
Info: 0 NBTHOLE_PAIRS
Info: To read alchdata from file: mobley_3274817.pdb
Info: To read alchflag data from column: 5
Info: STRUCTURE SUMMARY:
Info: 5126 ATOMS
Info: 3427 BONDS
Info: 1748 ANGLES
Info: 67 DIHEDRALS
Info: 6 IMPROPERS
Info: 0 CROSSTERMS
Info: 0 EXCLUSIONS
Info: 5109 RIGID BONDS
Info: ALCH: 0 ATOMS TO DISAPPEAR IN FINAL STATE
Info: ALCH: 29 ATOMS TO APPEAR IN FINAL STATE
Info: 10269 DEGREES OF FREEDOM
Info: 1716 HYDROGEN GROUPS
Info: 4 ATOMS IN LARGEST HYDROGEN GROUP
Info: 1716 MIGRATION GROUPS
Info: 4 ATOMS IN LARGEST MIGRATION GROUP
Info: TOTAL MASS = 30848.4 amu
Info: TOTAL CHARGE = -2.37487e-08 e
Info: MASS DENSITY = 0.099308 g/cm^3
Info: ATOM DENSITY = 0.00993737 atoms/A^3
Info: ADDED 5239 IMPLICIT EXCLUSIONS
Info: NONBONDED TABLE R-SQUARED SPACING: 0.0625
Info: NONBONDED TABLE SIZE: 769 POINTS
Info: REMOVING COM VELOCITY 0.151204 0.0627162 0.0342599
TCL: Running for 5000 steps
ETITLE: TS BOND ANGLE DIHED IMPRP ELECT VDW BOUNDARY MISC KINETIC TOTAL TEMP POTENTIAL TOTAL3 TEMPAVG PRESSURE GPRESSURE VOLUME PRESSAVG GPRESSAVG
ENERGY: 0 5.8457 6.9599 5.8577 0.1652 -17484.0670 1817.6254 0.0000 0.0000 3026.4894 -12621.1236 296.6207 -15647.6130 -12615.2496 296.6207 -13.5590 -13.5447 515830.8328 -13.5590 -13.5447
ENERGY: 1000 4.8492 7.1751 4.8005 0.2910 -17668.4445 1938.2995 0.0000 0.0000 3052.3932 -12660.6360 299.1594 -15713.0292 -12651.7388 300.1700 36.3398 37.5414 510735.4420 1.9950 1.9707
ENERGY: 2000 5.1603 9.2743 5.0486 0.1343 -17510.7122 1801.3011 0.0000 0.0000 2963.9694 -12725.8242 290.4932 -15689.7936 -12720.1341 297.0141 -23.2314 -23.8604 487560.5625 1.6588 1.6851
ENERGY: 3000 3.6902 7.3777 6.1144 0.1464 -17641.1107 1939.5492 0.0000 0.0000 3002.3499 -12681.8829 294.2548 -15684.2328 -12677.5355 296.9553 50.7112 49.7705 494202.6080 3.8892 3.9369
ENERGY: 4000 5.5190 6.2758 5.1384 0.3127 -17662.2618 1842.9433 0.0000 0.0000 2944.8501 -12857.2226 288.6193 -15802.0727 -12849.9484 295.6896 -22.8280 -22.5570 508118.7610 0.4622 0.4461
ENERGY: 5000 9.4281 9.1639 7.7076 0.1748 -17649.6192 1827.5234 0.0000 0.0000 3038.4826 -12757.1388 297.7961 -15795.6213 -12751.0170 297.4054 -10.4254 -10.6700 505831.2300 2.2936 2.2784
TCL: Running FEP window   2: Lambda1 0.0625 Lambda2 0.125  [dLambda 0.0625]
TCL: Setting parameter firsttimestep to 0
TCL: Setting parameter alchLambda to 0.0625
Info: NONBONDED TABLE R-SQUARED SPACING: 0.0625
Info: NONBONDED TABLE SIZE: 769 POINTS
TCL: Setting parameter alchLambda2 to 0.125
Info: NONBONDED TABLE R-SQUARED SPACING: 0.0625
Info: NONBONDED TABLE SIZE: 769 POINTS
TCL: Running for 5000 steps
ETITLE: TS BOND ANGLE DIHED IMPRP ELECT VDW BOUNDARY MISC KINETIC TOTAL TEMP POTENTIAL TOTAL3 TEMPAVG PRESSURE GPRESSURE VOLUME PRESSAVG GPRESSAVG
ENERGY: 0 9.4281 9.1639 7.7076 0.1748 -17649.6192 1829.1613 0.0000 0.0000 3038.3868 -12755.5966 297.7867 -15793.9834 -12749.8260 297.7867 -10.5500 -10.4348 505831.2300 -10.5500 -10.4348
ENERGY: 1000 2.3735 15.4570 4.1045 0.2653 -17759.3612 1905.0570 0.0000 0.0000 3030.6281 -12801.4756 297.0263 -15832.1037 -12794.3075 296.8619 36.4751 36.2876 498516.1972 1.4187 1.3786
ENERGY: 2000 4.3438 13.0150 4.3079 0.1171 -17734.5801 1929.7773 0.0000 0.0000 3004.9273 -12778.0916 294.5074 -15783.0189 -12769.7889 294.7618 36.5349 36.1560 504080.7822 1.1069 1.0800
ENERGY: 3000 8.4450 13.8026 3.8850 0.1144 -17748.3155 1894.0153 0.0000 0.0000 3036.4955 -12791.5578 297.6013 -15828.0533 -12784.6467 296.0990 13.6219 13.5038 500238.8549 3.2451 3.2717
ENERGY: 4000 3.7019 12.8142 5.0897 0.2381 -17616.9343 1852.5843 0.0000 0.0000 2972.7421 -12769.7640 291.3530 -15742.5061 -12763.2169 296.1027 -6.4149 -6.0896 531784.7503 2.1923 2.2248
ENERGY: 5000 6.2005 7.5547 3.0715 0.1869 -17571.0237 1826.0310 0.0000 0.0000 3027.0661 -12700.9131 296.6772 -15727.9791 -12697.9453 296.9974 -6.1192 -6.1507 527512.8811 0.1866 0.1994
TCL: Running FEP window   3: Lambda1 0.125  Lambda2 0.1875 [dLambda 0.0625]
TCL: Setting parameter firsttimestep to 0
TCL: Setting parameter alchLambda to 0.125
Info: NONBONDED TABLE R-SQUARED SPACING: 0.0625
Info: NONBONDED TABLE SIZE: 769 POINTS
TCL: Setting parameter alchLambda2 to 0.1875
Info: NONBONDED TABLE R-SQUARED SPACING: 0.0625
Info: NONBONDED TABLE SIZE: 769 POINTS
TCL: Running for 5000 steps
ETITLE: TS BOND ANGLE DIHED IMPRP ELECT VDW BOUNDARY MISC KINETIC TOTAL TEMP POTENTIAL TOTAL3 TEMPAVG PRESSURE GPRESSURE VOLUME PRESSAVG GPRESSAVG
ENERGY: 0 6.2005 7.5547 3.0715 0.1869 -17571.0237 1829.7281 0.0000 0.0000 3026.9723 -12697.3098 296.6680 -15724.2820 -12691.5778 296.6680 -5.8354 -5.8951 527512.8811 -5.8354 -5.8951
ENERGY: 1000 4.9185 11.2970 6.4133 0.1868 -17482.3759 1782.6638 0.0000 0.0000 3027.2388 -12649.6576 296.6941 -15676.8964 -12644.3630 298.3918 -10.3189 -10.7086 533532.0763 3.2518 3.2821
ENERGY: 2000 2.8928 13.6773 4.1217 0.2216 -17678.5109 1901.3968 0.0000 0.0000 3016.0692 -12740.1315 295.5994 -15756.2007 -12731.8796 296.9341 24.0587 23.5396 533037.9021 0.0203 -0.0079
ENERGY: 3000 4.0183 11.3854 6.5262 0.4242 -17713.3027 1938.4617 0.0000 0.0000 3010.7304 -12741.7565 295.0761 -15752.4869 -12738.2261 296.0951 11.7215 11.5949 551491.9100 0.3247 0.3721
ENERGY: 4000 2.8908 10.7680 4.9889 0.2336 -17753.8647 1939.2256 0.0000 0.0000 3077.0647 -12718.6931 301.5774 -15795.7577 -12712.4485 298.7061 37.3947 37.4905 547977.0338 1.5127 1.5380
ENERGY: 5000 3.2811 13.9444 5.6374 0.2885 -17656.2476 1816.6787 0.0000 0.0000 3036.0073 -12780.4101 297.5535 -15816.4174 -12775.2801 294.9831 -21.2430 -20.9027 536120.1486 3.2126 3.2528
TCL: Running FEP window   4: Lambda1 0.1875 Lambda2 0.25   [dLambda 0.0625]
TCL: Setting parameter firsttimestep to 0
TCL: Setting parameter alchLambda to 0.1875
Info: NONBONDED TABLE R-SQUARED SPACING: 0.0625
Info: NONBONDED TABLE SIZE: 769 POINTS
TCL: Setting parameter alchLambda2 to 0.25
Info: NONBONDED TABLE R-SQUARED SPACING: 0.0625
Info: NONBONDED TABLE SIZE: 769 POINTS
TCL: Running for 5000 steps
ETITLE: TS BOND ANGLE DIHED IMPRP ELECT VDW BOUNDARY MISC KINETIC TOTAL TEMP POTENTIAL TOTAL3 TEMPAVG PRESSURE GPRESSURE VOLUME PRESSAVG GPRESSAVG
ENERGY: 0 3.2811 13.9444 5.6374 0.2885 -17656.2476 1816.2471 0.0000 0.0000 3035.9073 -12780.9418 297.5437 -15816.8491 -12775.0448 297.5437 -20.8716 -20.9544 536120.1486 -20.8716 -20.9544
ENERGY: 1000 3.4239 9.2011 5.1315 0.0987 -17695.0568 1892.0453 0.0000 0.0000 2995.9766 -12789.1796 293.6302 -15785.1562 -12783.3918 294.7282 13.9956 13.5255 515986.9127 3.6796 3.6530
ENERGY: 2000 2.7384 12.3006 5.8117 0.3674 -17598.1501 1782.9041 0.0000 0.0000 2998.0800 -12795.9479 293.8363 -15794.0278 -12787.3286 296.4008 -61.2569 -62.0578 510371.5136 2.4251 2.4493
ENERGY: 3000 7.0882 14.0202 6.7442 0.1609 -17677.9469 1896.8487 0.0000 0.0000 3056.5273 -12696.5575 299.5646 -15753.0848 -12691.6001 298.3847 18.5703 18.1459 494077.2487 2.5047 2.4981
ENERGY: 4000 5.7628 11.1116 5.0653 0.3850 -17549.4827 1855.6848 0.0000 0.0000 3057.5771 -12613.8961 299.6675 -15671.4732 -12609.2119 299.9752 31.3420 30.9955 511477.3673 1.9848 1.9532
ENERGY: 5000 6.8390 12.8904 5.3591 0.1347 -17656.6265 1889.6511 0.0000 0.0000 3061.1379 -12680.6143 300.0165 -15741.7522 -12674.1557 298.0070 14.4917 14.3517 521394.4408 0.5734 0.5499
TCL: Running FEP window   5: Lambda1 0.25   Lambda2 0.3125 [dLambda 0.0625]
TCL: Setting parameter firsttimestep to 0
TCL: Setting parameter alchLambda to 0.25
Info: NONBONDED TABLE R-SQUARED SPACING: 0.0625
Info: NONBONDED TABLE SIZE: 769 POINTS
TCL: Setting parameter alchLambda2 to 0.3125
Info: NONBONDED TABLE R-SQUARED SPACING: 0.0625
Info: NONBONDED TABLE SIZE: 769 POINTS
TCL: Running for 5000 steps
ETITLE: TS BOND ANGLE DIHED IMPRP ELECT VDW BOUNDARY MISC KINETIC TOTAL TEMP POTENTIAL TOTAL3 TEMPAVG PRESSURE GPRESSURE VOLUME PRESSAVG GPRESSAVG
ENERGY: 0 6.8390 12.8904 5.3591 0.1347 -17656.6265 1889.5053 0.0000 0.0000 3061.0440 -12680.8541 300.0073 -15741.8980 -12675.1797 300.0073 14.4908 14.5230 521394.4408 14.4908 14.5230
ENERGY: 1000 5.0859 12.6428 3.8674 0.1802 -17738.7431 1926.1579 0.0000 0.0000 3095.7236 -12695.0853 303.4062 -15790.8090 -12690.5309 299.3545 39.8566 41.1562 507834.4025 1.6477 1.6688
ENERGY: 2000 6.5584 14.8116 3.5685 0.0318 -17505.8990 1793.0018 0.0000 0.0000 3090.8539 -12597.0729 302.9289 -15687.9268 -12590.2232 301.7806 -19.5586 -19.6730 492594.1310 0.4311 0.4385
ENERGY: 3000 5.5039 12.5347 2.9493 0.1432 -17640.2142 1869.0956 0.0000 0.0000 3035.6587 -12714.3288 297.5193 -15749.9874 -12706.4661 298.0263 4.3157 3.8082 487374.4457 2.2266 2.1969
ENERGY: 4000 9.7326 8.9197 5.2351 0.1144 -17431.8585 1739.4287 0.0000 0.0000 3007.0750 -12661.3531 294.7179 -15668.4281 -12655.7376 300.3632 -62.4898 -62.2676 468039.1123 1.2381 1.2679
ENERGY: 5000 7.9563 10.8437 6.4216 0.3091 -17677.0365 1916.9556 0.0000 0.0000 3009.7034 -12724.8468 294.9755 -15734.5502 -12719.6728 297.3965 48.3272 48.7944 459502.0405 1.7164 1.6886
TCL: Running FEP window   6: Lambda1 0.3125 Lambda2 0.375  [dLambda 0.0625]
TCL: Setting parameter firsttimestep to 0
TCL: Setting parameter alchLambda to 0.3125
Info: NONBONDED TABLE R-SQUARED SPACING: 0.0625
Info: NONBONDED TABLE SIZE: 769 POINTS
TCL: Setting parameter alchLambda2 to 0.375
Info: NONBONDED TABLE R-SQUARED SPACING: 0.0625
Info: NONBONDED TABLE SIZE: 769 POINTS
TCL: Running for 5000 steps
ETITLE: TS BOND ANGLE DIHED IMPRP ELECT VDW BOUNDARY MISC KINETIC TOTAL TEMP POTENTIAL TOTAL3 TEMPAVG PRESSURE GPRESSURE VOLUME PRESSAVG GPRESSAVG
ENERGY: 0 7.9563 10.8437 6.4216 0.3091 -17677.0365 1916.1896 0.0000 0.0000 3009.6098 -12725.7064 294.9663 -15735.3162 -12719.8029 294.9663 48.5399 48.6415 459502.0405 48.5399 48.6415
ENERGY: 1000 3.8479 9.7312 6.2085 0.5100 -17828.5344 1916.3056 0.0000 0.0000 3099.8858 -12792.0454 303.8141 -15891.9312 -12786.2199 296.8394 17.6038 18.2190 438753.4396 -1.6545 -1.6117
ENERGY: 2000 3.8603 9.1003 5.3231 0.1763 -17589.4574 1759.3397 0.0000 0.0000 3035.3432 -12776.3145 297.4884 -15811.6577 -12771.1079 296.1537 -60.5382 -60.5719 438679.3017 -1.5395 -1.5763
ENERGY: 3000 4.2628 12.8231 3.9413 0.0891 -17437.9679 1781.5892 0.0000 0.0000 3060.7869 -12574.4754 299.9821 -15635.2623 -12569.0592 299.7276 -23.7043 -24.2121 431652.2201 -1.0902 -1.0387
ENERGY: 4000 6.6615 9.4909 9.3806 0.6734 -17597.8215 1889.0638 0.0000 0.0000 3036.5960 -12645.9553 297.6112 -15682.5513 -12639.2849 300.9328 19.7982 20.1262 410502.2997 0.2658 0.3066
ENERGY: 5000 3.6699 11.4520 2.8876 0.0768 -17646.7199 1896.0552 0.0000 0.0000 3120.6790 -12611.8994 305.8520 -15732.5784 -12602.9930 301.0348 31.8459 31.2927 406250.3228 2.2489 2.1881
TCL: Running FEP window   7: Lambda1 0.375  Lambda2 0.4375 [dLambda 0.0625]
TCL: Setting parameter firsttimestep to 0
TCL: Setting parameter alchLambda to 0.375
Info: NONBONDED TABLE R-SQUARED SPACING: 0.0625
Info: NONBONDED TABLE SIZE: 769 POINTS
TCL: Setting parameter alchLambda2 to 0.4375
Info: NONBONDED TABLE R-SQUARED SPACING: 0.0625
Info: NONBONDED TABLE SIZE: 769 POINTS
TCL: Running for 5000 steps
ETITLE: TS BOND ANGLE DIHED IMPRP ELECT VDW BOUNDARY MISC KINETIC TOTAL TEMP POTENTIAL TOTAL3 TEMPAVG PRESSURE GPRESSURE VOLUME PRESSAVG GPRESSAVG
ENERGY: 0 3.6699 11.4520 2.8876 0.0768 -17646.7199 1895.4931 0.0000 0.0000 3120.5854 -12612.5551 305.8428 -15733.1405 -12606.2883 305.8428 31.7871 31.6225 406250.3228 31.7871 31.6225
ENERGY: 1000 7.9896 11.7883 3.7787 0.1456 -17672.4519 1916.5583 0.0000 0.0000 2977.8145 -12754.3769 291.8501 -15732.1913 -12748.1411 298.3525 47.8379 47.8892 387417.2385 1.1344 1.1416
ENERGY: 2000 3.5919 12.2029 5.8154 0.1853 -17752.6009 1872.6661 0.0000 0.0000 3046.6856 -12811.4538 298.6000 -15858.1394 -12803.5576 295.0518 -12.8865 -14.4194 384522.7695 3.0917 3.1183
ENERGY: 3000 3.2937 11.6921 5.6262 0.0663 -17657.2948 1851.4930 0.0000 0.0000 2975.2691 -12809.8544 291.6006 -15785.1235 -12804.6131 294.6975 -0.8110 -2.0962 385072.4270 1.4415 1.4426
ENERGY: 4000 6.1317 8.8983 6.3423 0.0707 -17663.1259 1814.6025 0.0000 0.0000 3023.2183 -12803.8622 296.3001 -15827.0804 -12796.2992 294.1772 -51.8444 -52.6054 389628.5837 -0.2232 -0.2121
ENERGY: 5000 5.6377 8.1492 3.5959 0.1217 -17717.6983 1884.7618 0.0000 0.0000 3059.8487 -12755.5832 299.8901 -15815.4319 -12750.0488 295.9085 21.4047 22.1955 391111.0943 0.0727 0.0894
TCL: Running FEP window   8: Lambda1 0.4375 Lambda2 0.5    [dLambda 0.0625]
TCL: Setting parameter firsttimestep to 0
TCL: Setting parameter alchLambda to 0.4375
Info: NONBONDED TABLE R-SQUARED SPACING: 0.0625
Info: NONBONDED TABLE SIZE: 769 POINTS
TCL: Setting parameter alchLambda2 to 0.5
Info: NONBONDED TABLE R-SQUARED SPACING: 0.0625
Info: NONBONDED TABLE SIZE: 769 POINTS
TCL: Running for 5000 steps
ETITLE: TS BOND ANGLE DIHED IMPRP ELECT VDW BOUNDARY MISC KINETIC TOTAL TEMP POTENTIAL TOTAL3 TEMPAVG PRESSURE GPRESSURE VOLUME PRESSAVG GPRESSAVG
ENERGY: 0 5.6377 8.1492 3.5959 0.1217 -17717.6983 1884.6632 0.0000 0.0000 3059.7552 -12755.7753 299.8810 -15815.5305 -12750.0220 299.8810 22.4769 22.5842 391111.0943 22.4769 22.5842
ENERGY: 1000 6.1445 8.1074 8.2169 0.4089 -17662.6488 1862.7103 0.0000 0.0000 3016.8256 -12760.2352 295.6735 -15777.0608 -12754.8942 297.0504 -21.5295 -21.7711 398657.4625 4.6677 4.6726
ENERGY: 2000 3.2787 11.2090 6.0469 0.2745 -17667.6567 1899.4718 0.0000 0.0000 3077.2509 -12670.1249 301.5957 -15747.3758 -12663.4675 298.7905 50.1713 49.7631 396824.2775 -2.0100 -1.9890
ENERGY: 3000 4.5709 8.7946 7.5554 0.1425 -17577.1711 1820.0336 0.0000 0.0000 3096.2342 -12639.8399 303.4562 -15736.0741 -12632.5226 300.9195 -17.3213 -17.0636 396970.7366 1.0095 1.0114
ENERGY: 4000 2.8098 6.3063 3.5506 0.0653 -17706.3422 1881.0864 0.0000 0.0000 3025.9678 -12786.5560 296.5695 -15812.5238 -12781.5712 296.5908 25.3794 24.1663 407404.6867 0.1260 0.1456
ENERGY: 5000 3.0468 10.1242 3.6752 0.1457 -17638.7687 1859.5751 0.0000 0.0000 3046.1483 -12716.0535 298.5474 -15762.2019 -12710.9953 296.5773 14.1364 13.9656 418613.1071 1.2120 1.1699
TCL: Running FEP window   9: Lambda1 0.5    Lambda2 0.5625 [dLambda 0.0625]
TCL: Setting parameter firsttimestep to 0
TCL: Setting parameter alchLambda to 0.5
Info: NONBONDED TABLE R-SQUARED SPACING: 0.0625
Info: NONBONDED TABLE SIZE: 769 POINTS
TCL: Setting parameter alchLambda2 to 0.5625
Info: NONBONDED TABLE R-SQUARED SPACING: 0.0625
Info: NONBONDED TABLE SIZE: 769 POINTS
TCL: Running for 5000 steps
ETITLE: TS BOND ANGLE DIHED IMPRP ELECT VDW BOUNDARY MISC KINETIC TOTAL TEMP POTENTIAL TOTAL3 TEMPAVG PRESSURE GPRESSURE VOLUME PRESSAVG GPRESSAVG
ENERGY: 0 3.0468 10.1242 3.6752 0.1457 -17638.7687 1860.4101 0.0000 0.0000 3046.0546 -12715.3123 298.5382 -15761.3668 -12709.1943 298.5382 14.9550 15.0930 418613.1071 14.9550 15.0930
ENERGY: 1000 4.0266 11.7446 8.7549 0.3818 -17643.1505 1832.9834 0.0000 0.0000 2993.1817 -12792.0774 293.3562 -15785.2592 -12785.5669 297.7981 -5.8658 -6.1940 428122.5278 3.4063 3.4746
ENERGY: 2000 5.7123 14.5175 4.7685 0.2462 -17632.1321 1844.8856 0.0000 0.0000 3010.3588 -12751.6432 295.0397 -15762.0020 -12743.3302 295.8925 -4.4594 -5.5395 422965.7849 0.6094 0.6084
ENERGY: 3000 7.2625 9.1332 4.8884 0.0918 -17622.1577 1833.9113 0.0000 0.0000 3095.7432 -12671.1273 303.4081 -15766.8706 -12666.5522 299.6852 -11.0726 -10.6343 401040.8921 -0.1736 -0.2051
ENERGY: 4000 5.6042 8.7850 3.8130 0.1897 -17483.1036 1764.0105 0.0000 0.0000 3132.9448 -12567.7565 307.0542 -15700.7013 -12562.6236 301.3400 -42.6903 -43.5546 385540.8238 3.5479 3.5134
ENERGY: 5000 4.6432 5.1624 7.0230 0.1225 -17402.1886 1711.9153 0.0000 0.0000 3023.6107 -12649.7114 296.3385 -15673.3222 -12644.8803 301.2624 -74.1039 -74.0641 388763.9630 0.3630 0.2822
TCL: Running FEP window  10: Lambda1 0.5625 Lambda2 0.625  [dLambda 0.0625]
TCL: Setting parameter firsttimestep to 0
TCL: Setting parameter alchLambda to 0.5625
Info: NONBONDED TABLE R-SQUARED SPACING: 0.0625
Info: NONBONDED TABLE SIZE: 769 POINTS
TCL: Setting parameter alchLambda2 to 0.625
Info: NONBONDED TABLE R-SQUARED SPACING: 0.0625
Info: NONBONDED TABLE SIZE: 769 POINTS
TCL: Running for 5000 steps
ETITLE: TS BOND ANGLE DIHED IMPRP ELECT VDW BOUNDARY MISC KINETIC TOTAL TEMP POTENTIAL TOTAL3 TEMPAVG PRESSURE GPRESSURE VOLUME PRESSAVG GPRESSAVG
ENERGY: 0 4.6432 5.1624 7.0230 0.1225 -17406.2428 1711.8246 0.0000 0.0000 3023.5171 -12653.9500 296.3293 -15677.4671 -12647.2828 296.3293 -74.1793 -74.2460 388763.9630 -74.1793 -74.2460
ENERGY: 1000 5.7759 12.7944 5.5975 0.2138 -17484.3047 1783.6613 0.0000 0.0000 2945.8885 -12730.3734 288.7211 -15676.2618 -12723.8515 298.6244 -31.3274 -32.7832 397702.9830 -0.0384 -0.0254
ENERGY: 2000 7.2296 10.7437 11.6807 0.2175 -17647.4778 1810.2112 0.0000 0.0000 3085.5901 -12721.8052 302.4130 -15807.3952 -12716.2874 298.8839 -40.9277 -42.6734 383180.1466 1.9047 1.9334
ENERGY: 3000 5.6012 14.9831 4.4336 0.0551 -17562.8240 1777.7996 0.0000 0.0000 3068.7092 -12691.2422 300.7585 -15759.9513 -12684.3191 299.0263 -56.2909 -57.1489 368032.0698 0.4631 0.3756
ENERGY: 4000 4.7450 7.8637 3.0393 0.1120 -17622.1556 1826.4894 0.0000 0.0000 3031.5773 -12748.3290 297.1193 -15779.9062 -12743.3252 298.5342 -40.1602 -39.8780 380787.0367 2.1740 2.1664
ENERGY: 5000 3.2540 11.8168 4.1169 0.1631 -17668.7121 1889.3356 0.0000 0.0000 3027.2841 -12732.7416 296.6985 -15760.0257 -12726.8631 298.6489 53.7344 54.4615 375566.9811 0.7845 0.8546
TCL: Running FEP window  11: Lambda1 0.625  Lambda2 0.6875 [dLambda 0.0625]
TCL: Setting parameter firsttimestep to 0
TCL: Setting parameter alchLambda to 0.625
Info: NONBONDED TABLE R-SQUARED SPACING: 0.0625
Info: NONBONDED TABLE SIZE: 769 POINTS
TCL: Setting parameter alchLambda2 to 0.6875
Info: NONBONDED TABLE R-SQUARED SPACING: 0.0625
Info: NONBONDED TABLE SIZE: 769 POINTS
TCL: Running for 5000 steps
ETITLE: TS BOND ANGLE DIHED IMPRP ELECT VDW BOUNDARY MISC KINETIC TOTAL TEMP POTENTIAL TOTAL3 TEMPAVG PRESSURE GPRESSURE VOLUME PRESSAVG GPRESSAVG
ENERGY: 0 3.2540 11.8168 4.1169 0.1631 -17671.3381 1890.3034 0.0000 0.0000 3027.1921 -12734.4918 296.6895 -15761.6839 -12728.9449 296.6895 55.7798 55.9255 375566.9811 55.7798 55.9255
ENERGY: 1000 6.3655 8.9443 2.7138 0.1125 -17598.9060 1786.0791 0.0000 0.0000 3059.0239 -12735.6669 299.8093 -15794.6907 -12728.9009 298.4836 -95.0130 -93.8656 391243.4442 1.2183 1.2115
ENERGY: 2000 4.3904 13.2730 7.7954 0.2810 -17659.8847 1924.0772 0.0000 0.0000 2951.4873 -12758.5805 289.2698 -15710.0678 -12752.8378 296.0710 30.6784 29.9931 393201.5430 0.2776 0.3166
ENERGY: 3000 8.3757 13.8538 8.0053 0.5015 -17635.4701 1836.8156 0.0000 0.0000 2992.2826 -12775.6355 293.2681 -15767.9181 -12768.6146 295.0008 -21.7746 -21.7071 404996.6860 1.0767 1.1138
ENERGY: 4000 6.4383 6.3849 6.1914 0.2321 -17636.3328 1877.5589 0.0000 0.0000 2989.6205 -12749.9068 293.0072 -15739.5273 -12743.3123 296.0506 -0.2689 0.2111 402574.5146 2.1678 2.1527
ENERGY: 5000 4.0754 8.6929 5.7510 0.1754 -17645.9591 1827.6385 0.0000 0.0000 3006.7294 -12792.8965 294.6840 -15799.6260 -12786.5228 296.7805 5.2221 3.8742 397721.5581 1.4510 1.4301
TCL: Running FEP window  12: Lambda1 0.6875 Lambda2 0.75   [dLambda 0.0625]
TCL: Setting parameter firsttimestep to 0
TCL: Setting parameter alchLambda to 0.6875
Info: NONBONDED TABLE R-SQUARED SPACING: 0.0625
Info: NONBONDED TABLE SIZE: 769 POINTS
TCL: Setting parameter alchLambda2 to 0.75
Info: NONBONDED TABLE R-SQUARED SPACING: 0.0625
Info: NONBONDED TABLE SIZE: 769 POINTS
TCL: Running for 5000 steps
ETITLE: TS BOND ANGLE DIHED IMPRP ELECT VDW BOUNDARY MISC KINETIC TOTAL TEMP POTENTIAL TOTAL3 TEMPAVG PRESSURE GPRESSURE VOLUME PRESSAVG GPRESSAVG
ENERGY: 0 4.0754 8.6929 5.7510 0.1754 -17649.9706 1828.7337 0.0000 0.0000 3006.6339 -12795.9083 294.6747 -15802.5422 -12789.5837 294.6747 5.4702 5.3578 397721.5581 5.4702 5.3578
ENERGY: 1000 5.0543 10.4053 7.9262 0.1311 -17703.3131 1809.9801 0.0000 0.0000 3052.5424 -12817.2737 299.1741 -15869.8161 -12812.4926 296.4678 -41.9260 -41.8475 385349.1376 0.4322 0.3868
ENERGY: 2000 6.7121 11.8363 5.0359 0.2675 -17603.4849 1808.1483 0.0000 0.0000 2985.7472 -12785.7376 292.6276 -15771.4848 -12779.2596 294.6875 -38.0793 -38.1857 378827.1003 -0.5416 -0.5081
ENERGY: 3000 8.6096 12.4175 2.8943 0.0732 -17682.1692 1771.1058 0.0000 0.0000 3031.6245 -12855.4443 297.1239 -15887.0688 -12849.0869 294.8181 -65.0194 -64.8297 376365.9024 -0.6422 -0.6239
ENERGY: 4000 5.7112 14.9646 6.7406 0.0964 -17882.9693 1989.7486 0.0000 0.0000 3006.0612 -12859.6467 294.6185 -15865.7079 -12853.8664 293.1122 70.7152 71.7349 384573.7524 0.0244 0.0117
ENERGY: 5000 4.0668 10.3203 5.7085 0.1286 -17739.6816 1836.9212 0.0000 0.0000 3081.4894 -12801.0468 302.0111 -15882.5362 -12795.2502 295.9738 -47.9910 -47.4355 361960.3533 0.4789 0.4785
TCL: Running FEP window  13: Lambda1 0.75   Lambda2 0.8125 [dLambda 0.0625]
TCL: Setting parameter firsttimestep to 0
TCL: Setting parameter alchLambda to 0.75
Info: NONBONDED TABLE R-SQUARED SPACING: 0.0625
Info: NONBONDED TABLE SIZE: 769 POINTS
TCL: Setting parameter alchLambda2 to 0.8125
Info: NONBONDED TABLE R-SQUARED SPACING: 0.0625
Info: NONBONDED TABLE SIZE: 769 POINTS
TCL: Running for 5000 steps
ETITLE: TS BOND ANGLE DIHED IMPRP ELECT VDW BOUNDARY MISC KINETIC TOTAL TEMP POTENTIAL TOTAL3 TEMPAVG PRESSURE GPRESSURE VOLUME PRESSAVG GPRESSAVG
ENERGY: 0 4.0668 10.3203 5.7085 0.1286 -17743.6818 1837.2471 0.0000 0.0000 3081.3951 -12804.8154 302.0019 -15886.2105 -12798.7333 302.0019 -46.1399 -46.2127 361960.3533 -46.1399 -46.2127
ENERGY: 1000 5.1831 11.9825 5.6762 0.3221 -17713.4698 1807.9321 0.0000 0.0000 3050.1025 -12832.2714 298.9349 -15882.3739 -12826.5478 296.0927 -32.1981 -32.2224 333319.5984 -0.2723 -0.2029
ENERGY: 2000 6.0036 10.6860 10.6469 0.4606 -17627.2997 1831.1736 0.0000 0.0000 3047.1313 -12721.1976 298.6437 -15768.3290 -12717.6845 298.9067 -25.1657 -24.9242 326134.7902 -0.0409 -0.0337
ENERGY: 3000 6.7466 10.4182 3.0513 0.1017 -17534.4791 1784.1208 0.0000 0.0000 3026.3160 -12703.7246 296.6037 -15730.0406 -12698.7691 298.8720 -44.3164 -43.9289 324650.2619 1.2045 1.2217
ENERGY: 4000 3.8198 13.2413 5.0097 0.3122 -17566.5325 1850.7015 0.0000 0.0000 3125.0185 -12568.4296 306.2773 -15693.4481 -12559.8480 301.9226 30.7727 31.8431 315195.6487 -0.5006 -0.4750
ENERGY: 5000 7.3051 10.9561 5.9561 0.2445 -17552.7532 1831.2563 0.0000 0.0000 3074.3726 -12622.6626 301.3136 -15697.0352 -12615.5714 303.9919 12.7680 11.1974 305818.0942 3.7990 3.6774
TCL: Running FEP window  14: Lambda1 0.8125 Lambda2 0.875  [dLambda 0.0625]
TCL: Setting parameter firsttimestep to 0
TCL: Setting parameter alchLambda to 0.8125
Info: NONBONDED TABLE R-SQUARED SPACING: 0.0625
Info: NONBONDED TABLE SIZE: 769 POINTS
TCL: Setting parameter alchLambda2 to 0.875
Info: NONBONDED TABLE R-SQUARED SPACING: 0.0625
Info: NONBONDED TABLE SIZE: 769 POINTS
TCL: Running for 5000 steps
ETITLE: TS BOND ANGLE DIHED IMPRP ELECT VDW BOUNDARY MISC KINETIC TOTAL TEMP POTENTIAL TOTAL3 TEMPAVG PRESSURE GPRESSURE VOLUME PRESSAVG GPRESSAVG
ENERGY: 0 7.3051 10.9561 5.9561 0.2445 -17557.2560 1834.2535 0.0000 0.0000 3074.2799 -12624.2607 301.3045 -15698.5406 -12618.6524 301.3045 15.3843 15.4541 305818.0942 15.3843 15.4541
ENERGY: 1000 6.7681 11.0758 6.8822 0.2918 -17407.8364 1720.9344 0.0000 0.0000 3089.1262 -12572.7579 302.7596 -15661.8841 -12567.7479 304.0392 -71.6765 -73.3837 302652.8132 1.4107 1.3370
ENERGY: 2000 3.5454 14.7639 4.1619 0.0777 -17626.7401 1923.9815 0.0000 0.0000 3065.1627 -12615.0469 300.4110 -15680.2096 -12609.3880 300.5469 38.8741 38.4344 311718.0614 0.5500 0.5404
ENERGY: 3000 4.8647 12.6222 6.7176 0.0889 -17475.5426 1758.9841 0.0000 0.0000 3033.9636 -12658.3015 297.3532 -15692.2651 -12654.8514 300.0673 -105.3209 -106.6509 321418.0594 4.8798 4.7898
ENERGY: 4000 4.8556 10.9801 5.8524 0.2640 -17623.7544 1881.9843 0.0000 0.0000 2955.2789 -12764.5392 289.6414 -15719.8180 -12762.0171 298.5614 24.2145 23.4565 323231.5171 1.8025 1.7618
ENERGY: 5000 4.0591 9.4024 4.7236 0.1812 -17497.7019 1758.7721 0.0000 0.0000 3002.9424 -12717.6211 294.3129 -15720.5635 -12711.5646 297.6812 -34.2269 -34.5264 320186.2657 5.3424 5.2710
TCL: Running FEP window  15: Lambda1 0.875  Lambda2 0.9375 [dLambda 0.0625]
TCL: Setting parameter firsttimestep to 0
TCL: Setting parameter alchLambda to 0.875
Info: NONBONDED TABLE R-SQUARED SPACING: 0.0625
Info: NONBONDED TABLE SIZE: 769 POINTS
TCL: Setting parameter alchLambda2 to 0.9375
Info: NONBONDED TABLE R-SQUARED SPACING: 0.0625
Info: NONBONDED TABLE SIZE: 769 POINTS
TCL: Running for 5000 steps
ETITLE: TS BOND ANGLE DIHED IMPRP ELECT VDW BOUNDARY MISC KINETIC TOTAL TEMP POTENTIAL TOTAL3 TEMPAVG PRESSURE GPRESSURE VOLUME PRESSAVG GPRESSAVG
ENERGY: 0 4.0591 9.4024 4.7236 0.1812 -17502.2093 1761.9193 0.0000 0.0000 3002.8511 -12719.0725 294.3039 -15721.9236 -12713.0053 294.3039 -29.8736 -29.9174 320186.2657 -29.8736 -29.9174
ENERGY: 1000 4.4156 4.8463 13.5538 0.4279 -17748.4588 1886.0211 0.0000 0.0000 3093.8942 -12745.2999 303.2269 -15839.1941 -12738.8563 298.4245 25.5848 23.8832 320368.6774 4.7042 4.6834
ENERGY: 2000 3.3912 7.0484 3.3407 0.1697 -17812.8927 1950.0894 0.0000 0.0000 3061.0519 -12787.8015 300.0081 -15848.8534 -12782.3511 297.8335 69.3525 68.2876 322194.3462 2.3821 2.4283
ENERGY: 3000 8.4316 15.9986 6.3632 0.3795 -17643.6073 1898.8696 0.0000 0.0000 3092.2346 -12621.3303 303.0642 -15713.5649 -12617.5608 299.5865 57.6431 58.8615 308660.3085 2.7427 2.7178
ENERGY: 4000 4.3801 11.5618 4.7207 0.1372 -17690.9259 1940.1135 0.0000 0.0000 3063.5453 -12666.4673 300.2524 -15730.0126 -12659.3033 300.7652 69.9256 68.1137 302851.3840 2.6753 2.7057
ENERGY: 5000 6.8729 12.2433 6.4527 0.2244 -17547.6080 1810.8916 0.0000 0.0000 3068.7679 -12642.1552 300.7643 -15710.9231 -12636.2008 300.1816 -25.7283 -27.4702 290382.4298 -0.7545 -0.7467
TCL: Running FEP window  16: Lambda1 0.9375 Lambda2 1.0    [dLambda 0.0625]
TCL: Setting parameter firsttimestep to 0
TCL: Setting parameter alchLambda to 0.9375
Info: NONBONDED TABLE R-SQUARED SPACING: 0.0625
Info: NONBONDED TABLE SIZE: 769 POINTS
TCL: Setting parameter alchLambda2 to 1.0
Info: NONBONDED TABLE R-SQUARED SPACING: 0.0625
Info: NONBONDED TABLE SIZE: 769 POINTS
TCL: Running for 5000 steps
ETITLE: TS BOND ANGLE DIHED IMPRP ELECT VDW BOUNDARY MISC KINETIC TOTAL TEMP POTENTIAL TOTAL3 TEMPAVG PRESSURE GPRESSURE VOLUME PRESSAVG GPRESSAVG
ENERGY: 0 6.8729 12.2433 6.4527 0.2244 -17552.1239 1815.8321 0.0000 0.0000 3068.6729 -12641.8257 300.7550 -15710.4986 -12635.8694 300.7550 -19.9199 -20.0249 290382.4298 -19.9199 -20.0249
ENERGY: 1000 7.4641 8.9499 4.4858 0.1184 -17649.2195 1888.9448 0.0000 0.0000 3041.1818 -12698.0747 298.0606 -15739.2565 -12692.5810 297.6659 38.8445 40.6677 278641.6409 2.6768 2.6692
ENERGY: 2000 5.3146 12.5665 5.3569 0.0348 -17584.1219 1822.2153 0.0000 0.0000 3006.7384 -12731.8954 294.6849 -15738.6338 -12726.0191 297.8862 -18.2361 -18.2217 282885.5299 0.3801 0.3160
ENERGY: 3000 3.9022 12.7482 13.6625 0.1037 -17750.9681 1886.0975 0.0000 0.0000 3043.9681 -12790.4859 298.3337 -15834.4540 -12783.3739 296.2333 -27.4343 -26.8050 300135.2762 -0.5205 -0.5150
ENERGY: 4000 5.5703 13.1573 8.3981 0.0576 -17831.4866 1921.6251 0.0000 0.0000 3031.4503 -12851.2280 297.1069 -15882.6783 -12846.5799 295.8213 -2.8914 -1.6497 315419.5302 1.6926 1.6509
ENERGY: 5000 4.9819 14.9401 7.1303 0.1539 -17748.9301 1899.2269 0.0000 0.0000 3017.4216 -12805.0754 295.7319 -15822.4970 -12799.5287 297.4028 58.5792 56.9987 313973.7525 2.5996 2.5883
