Info: SIMULATION PARAMETERS:
Info: TIMESTEP               2
Info: NUMBER OF STEPS        0
Info: STEPS PER CYCLE        10
Info: PERIODIC CELL BASIS 1  84.4255 0 0
Info: PERIODIC CELL BASIS 2  0 84.4255 0
Info: PERIODIC CELL BASIS 3  0 0 84.4255
Info: PERIODIC CELL CENTER   36.012 36.012 36.012
Info: WRAPPING ALL CLUSTERS AROUND PERIODIC BOUNDARIES ON OUTPUT.
Info: FIRST LDB TIMESTEP     50
Info: LAST LDB TIMESTEP     -1
Info: HOM BACKGROUND SCALING 1
Info: PME BACKGROUND SCALING 1
Info: MIN ATOMS PER PATCH    40
Info: EMPTY PATCH LOAD       40 ATOMS
Info: VELOCITY FILE          mobley_5747188_equilibrated.vel
Info: CENTER OF MASS MOVING INITIALLY? NO
Info: DIELECTRIC             1
Info: EXCLUDE                SCALED ONE-FOUR
Info: 1-4 ELECTROSTATICS SCALED BY 1
Info: MODIFIED 1-4 VDW PARAMETERS WILL BE USED
Info: DCD FILENAME           mobley_5747188_forwards.dcd
Info: DCD FREQUENCY          500
Info: DCD FIRST STEP         500
Info: DCD FILE WILL CONTAIN UNIT CELL DATA
Info: NO EXTENDED SYSTEM TRAJECTORY OUTPUT
Info: NO VELOCITY DCD OUTPUT
Info: NO FORCE DCD OUTPUT
Info: OUTPUT FILENAME        mobley_5747188_forwards
Info: BINARY OUTPUT FILES WILL BE USED
Info: NO RESTART FILE
Info: SWITCHING ACTIVE
Info: SWITCHING ON           10
Info: SWITCHING OFF          12
Info: PAIRLIST DISTANCE      14
Info: PAIRLIST SHRINK RATE   0.01
Info: PAIRLIST GROW RATE     0.01
Info: PAIRLIST TRIGGER       0.3
Info: PAIRLISTS PER CYCLE    2
Info: PAIRLISTS ENABLED
Info: MARGIN                 8
Info: HYDROGEN GROUP CUTOFF  2.5
Info: PATCH DIMENSION        24.5
Info: ENERGY OUTPUT STEPS    500
Info: ENERGY EVALUATION STEPS    500
Info: OUTPUT ENERGY PRECISION 4
Info: CROSSTERM ENERGY INCLUDED IN DIHEDRAL
Info: TIMING OUTPUT STEPS    500
Info: PRESSURE OUTPUT STEPS  500
Info: ALCHEMICAL FEP ON
Info: FEP CURRENT LAMBDA VALUE     0
Info: FEP COMPARISON LAMBDA VALUE  0.0625
Info: FEP INTRA-ALCHEMICAL NON-BONDED INTERACTIONS WILL BE DECOUPLED
Info: FEP INTRA-ALCHEMICAL BONDED INTERACTIONS WILL BE RETAINED
Info: FEP VDW SHIFTING COEFFICIENT 6
Info: FEP ELEC. ACTIVE FOR ANNIHILATED PARTICLES BETWEEN LAMBDA = 0 AND LAMBDA = 0.5
Info: FEP ELEC. ACTIVE FOR EXNIHILATED PARTICLES BETWEEN LAMBDA = 0.5 AND LAMBDA = 1
Info: FEP VDW ACTIVE FOR ANNIHILATED PARTICLES BETWEEN LAMBDA = 0 AND LAMBDA = 1
Info: FEP VDW ACTIVE FOR EXNIHILATED PARTICLES BETWEEN LAMBDA = 0 AND LAMBDA = 1
Info: FEP BOND ACTIVE FOR ANNIHILATED PARTICLES BETWEEN LAMBDA = 1 AND LAMBDA = 1
Info: FEP BOND ACTIVE FOR EXNIHILATED PARTICLES BETWEEN LAMBDA = 0 AND LAMBDA = 0
Info: LANGEVIN DYNAMICS ACTIVE
Info: LANGEVIN TEMPERATURE   298
Info: LANGEVIN USING BBK INTEGRATOR
Info: LANGEVIN DAMPING COEFFICIENT IS 1 INVERSE PS
Info: LANGEVIN DYNAMICS NOT APPLIED TO HYDROGENS
Info: LANGEVIN PISTON PRESSURE CONTROL ACTIVE
Info:        TARGET PRESSURE IS 1.01325 BAR
Info:     OSCILLATION PERIOD IS 100 FS
Info:             DECAY TIME IS 50 FS
Info:     PISTON TEMPERATURE IS 298 K
Info:       PRESSURE CONTROL IS GROUP-BASED
Info:    INITIAL STRAIN RATE IS 0.00011238 0.00011238 0.00011238
Info:       CELL FLUCTUATION IS ISOTROPIC
Info: PARTICLE MESH EWALD (PME) ACTIVE
Info: PME TOLERANCE               1e-05
Info: PME EWALD COEFFICIENT       0.226635
Info: PME INTERPOLATION ORDER     4
Info: PME GRID DIMENSIONS         88 88 88
Info: PME MAXIMUM GRID SPACING    1
Info: FULL ELECTROSTATIC EVALUATION FREQUENCY      1
Info: USING VERLET I (r-RESPA) MTS SCHEME.
Info: C1 SPLITTING OF LONG RANGE ELECTROSTATICS
Info: PLACING ATOMS IN PATCHES BY HYDROGEN GROUPS
Info: RIGID BONDS TO HYDROGEN : ALL
Info:         ERROR TOLERANCE : 1e-08
Info:          MAX ITERATIONS : 100
Info: RIGID WATER USING SETTLE ALGORITHM
Info: RANDOM NUMBER SEED     1740646094
Info: USE HYDROGEN BONDS?    NO
Info: COORDINATE PDB         mobley_5747188.pdb
Info: STRUCTURE FILE         mobley_5747188.psf
Info: PARAMETER file: CHARMM format!
Info: PARAMETERS             ../common/par_all27_prot_lipid.inp
Info: PARAMETERS             mobley_5747188.prm
Info: USING ARITHMETIC MEAN TO COMBINE L-J SIGMA PARAMETERS
Info: BINARY COORDINATES     mobley_5747188_equilibrated.coor
Info: SUMMARY OF PARAMETERS:
Info: 186 BONDS
Info: 455 ANGLES
Info: 576 DIHEDRAL
Info: 49 IMPROPER
Info: 6 CROSSTERM
Info: 125 VDW
Info: 0 VDW_PAIRS
Info: 0 NBTHOLE_PAIRS
Info: To read alchdata from file: mobley_5747188.pdb
Info: To read alchflag data from column: 5
Info: STRUCTURE SUMMARY:
Info: 4484 ATOMS
Info: 2995 BONDS
Info: 1516 ANGLES
Info: 34 DIHEDRALS
Info: 6 IMPROPERS
Info: 0 CROSSTERMS
Info: 0 EXCLUSIONS
Info: 4474 RIGID BONDS
Info: ALCH: 0 ATOMS TO DISAPPEAR IN FINAL STATE
Info: ALCH: 17 ATOMS TO APPEAR IN FINAL STATE
Info: 8978 DEGREES OF FREEDOM
Info: 1499 HYDROGEN GROUPS
Info: 4 ATOMS IN LARGEST HYDROGEN GROUP
Info: 1499 MIGRATION GROUPS
Info: 4 ATOMS IN LARGEST MIGRATION GROUP
Info: TOTAL MASS = 26962.1 amu
Info: TOTAL CHARGE = -2.23517e-08 e
Info: MASS DENSITY = 0.0744031 g/cm^3
Info: ATOM DENSITY = 0.00745151 atoms/A^3
Info: ADDED 4542 IMPLICIT EXCLUSIONS
Info: NONBONDED TABLE R-SQUARED SPACING: 0.0625
Info: NONBONDED TABLE SIZE: 769 POINTS
Info: REMOVING COM VELOCITY 0.0935817 -0.0495101 0.0757089
TCL: Running for 5000 steps
ETITLE: TS BOND ANGLE DIHED IMPRP ELECT VDW BOUNDARY MISC KINETIC TOTAL TEMP POTENTIAL TOTAL3 TEMPAVG PRESSURE GPRESSURE VOLUME PRESSAVG GPRESSAVG
ENERGY: 0 2.3000 6.6436 4.5295 0.0354 -15291.4581 1574.2536 0.0000 0.0000 2700.7005 -11002.9955 302.7521 -13703.6960 -10997.7953 302.7521 -13.4631 -13.3686 601757.2315 -13.4631 -13.3686
ENERGY: 1000 2.4532 6.4770 2.8856 0.0828 -15570.8456 1723.7026 0.0000 0.0000 2632.9544 -11202.2900 295.1577 -13835.2444 -11195.8335 295.5082 18.1734 18.7895 583290.8024 2.8571 2.8828
ENERGY: 2000 4.9334 2.3525 3.7486 0.2126 -15536.3769 1704.8721 0.0000 0.0000 2661.4954 -11158.7624 298.3572 -13820.2577 -11155.4518 295.9912 17.6290 16.9442 550240.3642 2.8823 2.8757
ENERGY: 3000 1.9501 8.5301 1.2220 0.0804 -15413.9874 1592.2103 0.0000 0.0000 2666.1867 -11143.8078 298.8831 -13809.9944 -11136.0305 297.1703 -28.6692 -29.3572 547265.2707 1.0927 1.0991
ENERGY: 4000 1.6764 3.2262 4.4686 0.2536 -15388.5408 1626.4603 0.0000 0.0000 2662.6320 -11089.8237 298.4846 -13752.4558 -11085.1532 298.7559 5.8611 6.3846 538880.9816 0.5289 0.5186
ENERGY: 5000 1.2769 7.6838 1.6381 0.1393 -15538.0140 1679.0932 0.0000 0.0000 2710.2956 -11137.8871 303.8278 -13848.1827 -11133.5131 296.0083 21.5375 21.4043 541283.8383 0.9464 0.9462
TCL: Running FEP window   2: Lambda1 0.0625 Lambda2 0.125  [dLambda 0.0625]
TCL: Setting parameter firsttimestep to 0
TCL: Setting parameter alchLambda to 0.0625
Info: NONBONDED TABLE R-SQUARED SPACING: 0.0625
Info: NONBONDED TABLE SIZE: 769 POINTS
TCL: Setting parameter alchLambda2 to 0.125
Info: NONBONDED TABLE R-SQUARED SPACING: 0.0625
Info: NONBONDED TABLE SIZE: 769 POINTS
TCL: Running for 5000 steps
ETITLE: TS BOND ANGLE DIHED IMPRP ELECT VDW BOUNDARY MISC KINETIC TOTAL TEMP POTENTIAL TOTAL3 TEMPAVG PRESSURE GPRESSURE VOLUME PRESSAVG GPRESSAVG
ENERGY: 0 1.2769 7.6838 1.6381 0.1393 -15538.0140 1679.2521 0.0000 0.0000 2710.2145 -11137.8093 303.8187 -13848.0238 -11133.0981 303.8187 21.5306 21.4414 541283.8383 21.5306 21.4414
ENERGY: 1000 3.7800 7.8495 2.1603 0.1142 -15463.6295 1632.2388 0.0000 0.0000 2699.3414 -11118.1452 302.5998 -13817.4866 -11111.4189 295.9088 1.0464 0.8145 598971.1831 -0.9189 -0.9066
ENERGY: 2000 4.0301 3.5173 3.7481 0.3207 -15394.2821 1645.7038 0.0000 0.0000 2731.8571 -11005.1051 306.2448 -13736.9622 -10998.4808 301.0521 7.2903 8.0877 609329.7289 0.6572 0.6635
ENERGY: 3000 5.8697 4.1691 2.4230 0.1616 -15390.2044 1674.8878 0.0000 0.0000 2649.3354 -11053.3578 296.9940 -13702.6932 -11047.7255 302.9970 19.0149 19.1512 601152.8021 1.8710 1.8793
ENERGY: 4000 2.5997 6.3242 1.2020 0.0529 -15405.3208 1571.7984 0.0000 0.0000 2689.0459 -11134.2978 301.4456 -13823.3437 -11128.8204 296.8495 -31.9783 -31.3830 598262.3355 1.0458 1.0709
ENERGY: 5000 2.9085 5.6359 3.6663 0.1810 -15444.1900 1593.0476 0.0000 0.0000 2683.4012 -11155.3495 300.8129 -13838.7507 -11151.5578 294.4556 -37.3799 -37.8027 594816.4562 0.0006 -0.0192
TCL: Running FEP window   3: Lambda1 0.125  Lambda2 0.1875 [dLambda 0.0625]
TCL: Setting parameter firsttimestep to 0
TCL: Setting parameter alchLambda to 0.125
Info: NONBONDED TABLE R-SQUARED SPACING: 0.0625
Info: NONBONDED TABLE SIZE: 769 POINTS
TCL: Setting parameter alchLambda2 to 0.1875
Info: NONBONDED TABLE R-SQUARED SPACING: 0.0625
Info: NONBONDED TABLE SIZE: 769 POINTS
TCL: Running for 5000 steps
ETITLE: TS BOND ANGLE DIHED IMPRP ELECT VDW BOUNDARY MISC KINETIC TOTAL TEMP POTENTIAL TOTAL3 TEMPAVG PRESSURE GPRESSURE VOLUME PRESSAVG GPRESSAVG
ENERGY: 0 2.9085 5.6359 3.6663 0.1810 -15444.1900 1596.8624 0.0000 0.0000 2683.3169 -11151.6189 300.8034 -13834.9358 -11146.4688 300.8034 -37.6249 -37.5663 594816.4562 -37.6249 -37.5663
ENERGY: 1000 1.6694 4.1457 1.4172 0.0714 -15443.9489 1601.3555 0.0000 0.0000 2644.5326 -11190.7571 296.4556 -13835.2897 -11185.9491 293.7399 -29.3869 -29.7940 572521.4280 -0.3441 -0.3301
ENERGY: 2000 2.4943 6.7769 4.6667 0.4013 -15438.9195 1631.5220 0.0000 0.0000 2677.6638 -11115.3945 300.1697 -13793.0584 -11111.7830 297.1911 -0.7630 -1.0807 540022.2100 0.7086 0.7132
ENERGY: 3000 2.4746 3.7087 7.2138 0.5404 -15402.5718 1582.9082 0.0000 0.0000 2726.7040 -11079.0221 305.6672 -13805.7261 -11070.8757 299.4186 -18.4140 -18.5993 524584.8595 0.6368 0.6201
ENERGY: 4000 1.6999 3.6948 1.1983 0.0673 -15444.0356 1648.6190 0.0000 0.0000 2681.6231 -11107.1332 300.6135 -13788.7563 -11101.9943 296.9039 25.8061 25.4748 513936.2445 2.6511 2.6626
ENERGY: 5000 3.2544 5.2273 4.4681 0.2662 -15396.6047 1603.1837 0.0000 0.0000 2648.6811 -11131.5238 296.9207 -13780.2050 -11125.4886 298.7310 -11.2721 -10.4364 510420.6526 0.7711 0.8074
TCL: Running FEP window   4: Lambda1 0.1875 Lambda2 0.25   [dLambda 0.0625]
TCL: Setting parameter firsttimestep to 0
TCL: Setting parameter alchLambda to 0.1875
Info: NONBONDED TABLE R-SQUARED SPACING: 0.0625
Info: NONBONDED TABLE SIZE: 769 POINTS
TCL: Setting parameter alchLambda2 to 0.25
Info: NONBONDED TABLE R-SQUARED SPACING: 0.0625
Info: NONBONDED TABLE SIZE: 769 POINTS
TCL: Running for 5000 steps
ETITLE: TS BOND ANGLE DIHED IMPRP ELECT VDW BOUNDARY MISC KINETIC TOTAL TEMP POTENTIAL TOTAL3 TEMPAVG PRESSURE GPRESSURE VOLUME PRESSAVG GPRESSAVG
ENERGY: 0 3.2544 5.2273 4.4681 0.2662 -15396.6047 1603.0819 0.0000 0.0000 2648.6013 -11131.7055 296.9117 -13780.3068 -11126.7644 296.9117 -10.4463 -10.3291 510420.6526 -10.4463 -10.3291
ENERGY: 1000 3.3197 5.8062 1.9968 0.1162 -15351.7788 1656.8059 0.0000 0.0000 2673.9750 -11009.7588 299.7562 -13683.7338 -11004.8561 299.0043 -5.2393 -5.0289 515665.0316 2.6963 2.6840
ENERGY: 2000 3.1760 7.2416 2.9191 0.1597 -15449.9002 1695.6409 0.0000 0.0000 2691.7255 -11049.0375 301.7460 -13740.7630 -11042.8702 299.6965 36.5252 35.7768 506985.7763 0.2755 0.2745
ENERGY: 3000 4.2473 5.7922 2.9359 0.1791 -15271.0109 1631.3248 0.0000 0.0000 2635.9773 -10990.5542 295.4966 -13626.5315 -10987.8265 301.0105 26.6381 25.6617 491233.8422 1.2266 1.2425
ENERGY: 4000 2.6519 4.8862 2.1009 0.1117 -15448.9474 1692.5471 0.0000 0.0000 2634.4893 -11112.1603 295.3298 -13746.6496 -11107.9506 297.9507 28.1133 27.7207 498789.9061 0.8936 0.8660
ENERGY: 5000 4.8238 6.8164 2.2759 0.2614 -15455.4610 1674.0473 0.0000 0.0000 2670.0720 -11097.1643 299.3186 -13767.2363 -11093.1661 296.4417 42.4627 42.5999 496263.0146 1.4107 1.4343
TCL: Running FEP window   5: Lambda1 0.25   Lambda2 0.3125 [dLambda 0.0625]
TCL: Setting parameter firsttimestep to 0
TCL: Setting parameter alchLambda to 0.25
Info: NONBONDED TABLE R-SQUARED SPACING: 0.0625
Info: NONBONDED TABLE SIZE: 769 POINTS
TCL: Setting parameter alchLambda2 to 0.3125
Info: NONBONDED TABLE R-SQUARED SPACING: 0.0625
Info: NONBONDED TABLE SIZE: 769 POINTS
TCL: Running for 5000 steps
ETITLE: TS BOND ANGLE DIHED IMPRP ELECT VDW BOUNDARY MISC KINETIC TOTAL TEMP POTENTIAL TOTAL3 TEMPAVG PRESSURE GPRESSURE VOLUME PRESSAVG GPRESSAVG
ENERGY: 0 4.8238 6.8164 2.2759 0.2614 -15455.4610 1673.9672 0.0000 0.0000 2669.9863 -11097.3300 299.3090 -13767.3163 -11092.2151 299.3090 42.5220 42.5116 496263.0146 42.5220 42.5116
ENERGY: 1000 3.2816 4.6454 3.2284 0.2440 -15333.6806 1578.7563 0.0000 0.0000 2658.2137 -11085.3112 297.9893 -13743.5249 -11082.3117 297.2176 -16.2552 -15.9825 486159.6833 3.1657 3.1440
ENERGY: 2000 3.2469 4.4292 3.1537 0.2801 -15513.6000 1753.1754 0.0000 0.0000 2674.2059 -11075.1089 299.7820 -13749.3147 -11069.0621 302.8762 85.7587 85.6794 466339.6706 2.1361 2.1140
ENERGY: 3000 3.7060 2.2228 3.4514 0.4374 -15360.8682 1608.4329 0.0000 0.0000 2640.8194 -11101.7982 296.0394 -13742.6176 -11095.4707 297.0308 -8.6411 -7.1671 463243.1509 2.0910 2.0918
ENERGY: 4000 3.5195 3.8302 2.8735 0.1027 -15543.4298 1754.6333 0.0000 0.0000 2677.6293 -11100.8412 300.1658 -13778.4705 -11095.9785 298.9039 86.6887 86.3933 459907.0220 0.1277 0.1333
ENERGY: 5000 4.5296 5.2825 3.2767 0.2613 -15379.3196 1631.8441 0.0000 0.0000 2606.5933 -11127.5320 292.2026 -13734.1253 -11122.3108 295.9128 13.8618 13.7242 453719.6782 1.4845 1.4799
TCL: Running FEP window   6: Lambda1 0.3125 Lambda2 0.375  [dLambda 0.0625]
TCL: Setting parameter firsttimestep to 0
TCL: Setting parameter alchLambda to 0.3125
Info: NONBONDED TABLE R-SQUARED SPACING: 0.0625
Info: NONBONDED TABLE SIZE: 769 POINTS
TCL: Setting parameter alchLambda2 to 0.375
Info: NONBONDED TABLE R-SQUARED SPACING: 0.0625
Info: NONBONDED TABLE SIZE: 769 POINTS
TCL: Running for 5000 steps
ETITLE: TS BOND ANGLE DIHED IMPRP ELECT VDW BOUNDARY MISC KINETIC TOTAL TEMP POTENTIAL TOTAL3 TEMPAVG PRESSURE GPRESSURE VOLUME PRESSAVG GPRESSAVG
ENERGY: 0 4.5296 5.2825 3.2767 0.2613 -15379.3196 1631.8486 0.0000 0.0000 2606.5098 -11127.6110 292.1932 -13734.1208 -11123.1700 292.1932 13.8110 13.8965 453719.6782 13.8110 13.8965
ENERGY: 1000 1.7182 5.5366 2.8596 0.1162 -15226.0552 1524.0602 0.0000 0.0000 2654.9187 -11036.8457 297.6199 -13691.7645 -11031.4075 295.0662 -51.5919 -51.6410 440149.6152 -0.2586 -0.2826
ENERGY: 2000 3.4597 3.1693 1.7562 0.2167 -15417.2754 1653.0545 0.0000 0.0000 2653.2798 -11102.3392 297.4362 -13755.6190 -11098.5151 296.9860 14.4347 14.1266 449502.4551 0.5808 0.5538
ENERGY: 3000 2.0501 2.6414 1.7570 0.0413 -15461.0254 1647.1868 0.0000 0.0000 2686.2734 -11121.0753 301.1348 -13807.3487 -11118.2197 298.5143 20.3288 19.9154 449707.6093 2.2494 2.2822
ENERGY: 4000 2.8447 4.0509 1.3116 0.1234 -15454.3085 1652.6016 0.0000 0.0000 2667.7559 -11125.6203 299.0590 -13793.3763 -11120.9334 298.4189 4.8691 5.2745 466652.7858 0.5448 0.5332
ENERGY: 5000 2.5511 5.0287 1.8208 0.2328 -15523.7764 1719.0566 0.0000 0.0000 2665.8322 -11129.2541 298.8434 -13795.0863 -11122.7092 298.7485 51.2681 50.4398 463665.4019 1.8945 1.8894
TCL: Running FEP window   7: Lambda1 0.375  Lambda2 0.4375 [dLambda 0.0625]
TCL: Setting parameter firsttimestep to 0
TCL: Setting parameter alchLambda to 0.375
Info: NONBONDED TABLE R-SQUARED SPACING: 0.0625
Info: NONBONDED TABLE SIZE: 769 POINTS
TCL: Setting parameter alchLambda2 to 0.4375
Info: NONBONDED TABLE R-SQUARED SPACING: 0.0625
Info: NONBONDED TABLE SIZE: 769 POINTS
TCL: Running for 5000 steps
ETITLE: TS BOND ANGLE DIHED IMPRP ELECT VDW BOUNDARY MISC KINETIC TOTAL TEMP POTENTIAL TOTAL3 TEMPAVG PRESSURE GPRESSURE VOLUME PRESSAVG GPRESSAVG
ENERGY: 0 2.5511 5.0287 1.8208 0.2328 -15523.7764 1719.0931 0.0000 0.0000 2665.7507 -11129.2991 298.8342 -13795.0498 -11124.6856 298.8342 50.8856 50.7095 463665.4019 50.8856 50.7095
ENERGY: 1000 2.1065 4.7213 5.8336 0.3423 -15458.5806 1664.2876 0.0000 0.0000 2685.2622 -11096.0272 301.0215 -13781.2894 -11090.9541 300.0831 34.4895 34.4372 455085.2000 1.0037 1.0198
ENERGY: 2000 5.6373 7.2324 4.1049 0.1910 -15260.2133 1550.0257 0.0000 0.0000 2602.5024 -11090.5195 291.7440 -13693.0220 -11086.4765 296.9828 -41.1233 -40.6378 435119.2924 0.7660 0.7721
ENERGY: 3000 1.1836 7.1372 1.5309 0.0762 -15402.5146 1634.3429 0.0000 0.0000 2710.7640 -11047.4800 303.8803 -13758.2440 -11042.0164 300.0080 13.0278 13.1250 426877.7991 0.4077 0.4083
ENERGY: 4000 2.1335 3.2168 4.0603 0.0512 -15281.8166 1611.8685 0.0000 0.0000 2691.7544 -10968.7318 301.7493 -13660.4862 -10962.7315 302.4170 33.4375 33.4778 413488.7988 1.5512 1.5495
ENERGY: 5000 2.2054 2.5785 2.2616 0.2239 -15397.0860 1654.2256 0.0000 0.0000 2729.9543 -11005.6367 306.0315 -13735.5911 -11000.6740 300.4188 41.9205 41.2810 418554.5681 2.5656 2.5280
TCL: Running FEP window   8: Lambda1 0.4375 Lambda2 0.5    [dLambda 0.0625]
TCL: Setting parameter firsttimestep to 0
TCL: Setting parameter alchLambda to 0.4375
Info: NONBONDED TABLE R-SQUARED SPACING: 0.0625
Info: NONBONDED TABLE SIZE: 769 POINTS
TCL: Setting parameter alchLambda2 to 0.5
Info: NONBONDED TABLE R-SQUARED SPACING: 0.0625
Info: NONBONDED TABLE SIZE: 769 POINTS
TCL: Running for 5000 steps
ETITLE: TS BOND ANGLE DIHED IMPRP ELECT VDW BOUNDARY MISC KINETIC TOTAL TEMP POTENTIAL TOTAL3 TEMPAVG PRESSURE GPRESSURE VOLUME PRESSAVG GPRESSAVG
ENERGY: 0 2.2054 2.5785 2.2616 0.2239 -15397.0860 1654.1878 0.0000 0.0000 2729.8707 -11005.7581 306.0222 -13735.6288 -11000.7501 306.0222 41.3560 41.3587 418554.5681 41.3560 41.3587
ENERGY: 1000 2.1935 4.9714 1.5991 0.1107 -15332.1007 1567.8110 0.0000 0.0000 2651.9011 -11103.5139 297.2817 -13755.4150 -11099.3769 299.1313 -31.8115 -30.1752 421129.8513 2.6730 2.6841
ENERGY: 2000 4.6614 4.2336 1.5854 0.1480 -15457.4157 1633.6817 0.0000 0.0000 2662.5120 -11150.5936 298.4711 -13813.1055 -11144.9529 297.8866 -11.1522 -10.2628 408051.8318 -0.0493 -0.0191
ENERGY: 3000 2.4798 4.0342 1.5365 0.1078 -15299.3310 1589.0599 0.0000 0.0000 2565.1415 -11136.9713 287.5558 -13702.1128 -11130.0109 297.3621 -13.0471 -13.2941 404249.8001 3.2875 3.2449
ENERGY: 4000 2.6150 8.1778 3.3133 0.1058 -15442.1807 1567.7555 0.0000 0.0000 2663.4411 -11196.7722 298.5753 -13860.2133 -11191.9392 299.3077 -56.7271 -56.9030 395298.3346 4.6088 4.5765
ENERGY: 5000 4.3022 5.4236 1.8853 0.1250 -15420.2007 1599.6094 0.0000 0.0000 2582.0859 -11226.7693 289.4553 -13808.8552 -11221.3680 296.2701 -36.9235 -35.7914 400393.4880 -0.5074 -0.5205
TCL: Running FEP window   9: Lambda1 0.5    Lambda2 0.5625 [dLambda 0.0625]
TCL: Setting parameter firsttimestep to 0
TCL: Setting parameter alchLambda to 0.5
Info: NONBONDED TABLE R-SQUARED SPACING: 0.0625
Info: NONBONDED TABLE SIZE: 769 POINTS
TCL: Setting parameter alchLambda2 to 0.5625
Info: NONBONDED TABLE R-SQUARED SPACING: 0.0625
Info: NONBONDED TABLE SIZE: 769 POINTS
TCL: Running for 5000 steps
ETITLE: TS BOND ANGLE DIHED IMPRP ELECT VDW BOUNDARY MISC KINETIC TOTAL TEMP POTENTIAL TOTAL3 TEMPAVG PRESSURE GPRESSURE VOLUME PRESSAVG GPRESSAVG
ENERGY: 0 4.3022 5.4236 1.8853 0.1250 -15420.2007 1599.8602 0.0000 0.0000 2582.0027 -11226.6016 289.4460 -13808.6044 -11220.6010 289.4460 -35.6443 -35.6781 400393.4880 -35.6443 -35.6781
ENERGY: 1000 5.3277 3.1754 1.8088 0.2178 -15451.9090 1583.4742 0.0000 0.0000 2634.5626 -11223.3425 295.3380 -13857.9051 -11219.7391 292.3617 -37.4506 -38.4109 401446.5802 2.5506 2.5644
ENERGY: 2000 6.3570 4.4001 7.0582 0.2993 -15549.7564 1660.5873 0.0000 0.0000 2677.1920 -11193.8625 300.1168 -13871.0545 -11190.5639 295.1113 -8.8421 -8.9025 403593.0108 1.2629 1.2605
ENERGY: 3000 4.4581 5.8096 2.9211 0.2411 -15493.2466 1590.4947 0.0000 0.0000 2680.0003 -11209.3215 300.4316 -13889.3218 -11202.5036 298.0742 -36.4512 -36.7582 385471.8555 2.2914 2.3170
ENERGY: 4000 9.1444 4.2788 3.5735 0.2107 -15438.9720 1624.1558 0.0000 0.0000 2662.5200 -11135.0887 298.4720 -13797.6087 -11129.1156 294.7455 -19.0297 -18.8323 383417.8425 1.6299 1.6387
ENERGY: 5000 4.8187 2.8659 2.9640 0.3268 -15381.8095 1583.2637 0.0000 0.0000 2655.6103 -11131.9602 297.6975 -13787.5705 -11127.3681 297.6839 -39.7966 -40.2168 374122.7408 -1.1779 -1.1989
TCL: Running FEP window  10: Lambda1 0.5625 Lambda2 0.625  [dLambda 0.0625]
TCL: Setting parameter firsttimestep to 0
TCL: Setting parameter alchLambda to 0.5625
Info: NONBONDED TABLE R-SQUARED SPACING: 0.0625
Info: NONBONDED TABLE SIZE: 769 POINTS
TCL: Setting parameter alchLambda2 to 0.625
Info: NONBONDED TABLE R-SQUARED SPACING: 0.0625
Info: NONBONDED TABLE SIZE: 769 POINTS
TCL: Running for 5000 steps
ETITLE: TS BOND ANGLE DIHED IMPRP ELECT VDW BOUNDARY MISC KINETIC TOTAL TEMP POTENTIAL TOTAL3 TEMPAVG PRESSURE GPRESSURE VOLUME PRESSAVG GPRESSAVG
ENERGY: 0 4.8187 2.8659 2.9640 0.3268 -15381.9635 1583.9878 0.0000 0.0000 2655.5300 -11131.4704 297.6885 -13787.0004 -11126.4339 297.6885 -39.6649 -39.6839 374122.7408 -39.6649 -39.6839
ENERGY: 1000 1.6056 5.0302 3.7884 0.1402 -15386.5889 1636.6023 0.0000 0.0000 2686.9937 -11052.4285 301.2156 -13739.4222 -11046.2589 298.2993 19.2141 18.6047 365367.8735 2.1967 2.2018
ENERGY: 2000 4.1140 7.2419 4.0370 0.2691 -15500.7004 1655.7751 0.0000 0.0000 2688.4926 -11140.7707 301.3836 -13829.2633 -11135.0678 298.1601 22.9570 22.0911 361361.2009 -1.1243 -1.1486
ENERGY: 3000 1.1741 3.2627 1.6962 0.0796 -15403.5766 1613.3702 0.0000 0.0000 2643.3753 -11140.6185 296.3259 -13783.9938 -11134.2163 298.0607 -46.9132 -47.1435 359396.6863 2.3618 2.3818
ENERGY: 4000 2.1973 3.3332 3.0011 0.1118 -15281.3824 1541.6707 0.0000 0.0000 2695.7051 -11035.3632 302.1921 -13731.0683 -11029.3256 298.9002 -82.0467 -82.8075 356045.0059 -0.1093 -0.0901
ENERGY: 5000 4.1412 6.5440 2.6208 0.2183 -15494.7861 1730.0877 0.0000 0.0000 2682.7805 -11068.3936 300.7433 -13751.1741 -11063.0708 298.3689 92.0193 92.8385 348400.9252 1.5590 1.4875
TCL: Running FEP window  11: Lambda1 0.625  Lambda2 0.6875 [dLambda 0.0625]
TCL: Setting parameter firsttimestep to 0
TCL: Setting parameter alchLambda to 0.625
Info: NONBONDED TABLE R-SQUARED SPACING: 0.0625
Info: NONBONDED TABLE SIZE: 769 POINTS
TCL: Setting parameter alchLambda2 to 0.6875
Info: NONBONDED TABLE R-SQUARED SPACING: 0.0625
Info: NONBONDED TABLE SIZE: 769 POINTS
TCL: Running for 5000 steps
ETITLE: TS BOND ANGLE DIHED IMPRP ELECT VDW BOUNDARY MISC KINETIC TOTAL TEMP POTENTIAL TOTAL3 TEMPAVG PRESSURE GPRESSURE VOLUME PRESSAVG GPRESSAVG
ENERGY: 0 4.1412 6.5440 2.6208 0.2183 -15494.9215 1730.9121 0.0000 0.0000 2682.7026 -11067.7825 300.7345 -13750.4851 -11062.7552 300.7345 93.7994 93.6188 348400.9252 93.7994 93.6188
ENERGY: 1000 2.8255 7.2688 3.8410 0.0391 -15371.5156 1638.1707 0.0000 0.0000 2657.0984 -11062.2721 297.8643 -13719.3705 -11057.1418 299.5752 42.3618 41.7994 346258.9447 0.4083 0.4376
ENERGY: 2000 1.9527 7.2415 1.9400 0.1616 -15346.1196 1625.8440 0.0000 0.0000 2665.2330 -11043.7467 298.7762 -13708.9797 -11039.9421 299.8564 24.3016 24.1108 353238.5425 -0.5382 -0.5030
ENERGY: 3000 1.8840 5.6411 2.6072 0.1682 -15366.8812 1644.9906 0.0000 0.0000 2653.6355 -11057.9547 297.4761 -13711.5902 -11053.1965 300.4020 -7.1584 -7.8458 362649.2178 0.3539 0.3900
ENERGY: 4000 6.8100 5.1509 5.5067 0.4367 -15525.0581 1723.4541 0.0000 0.0000 2688.5331 -11095.1666 301.3881 -13783.6997 -11087.9735 299.9492 77.8970 76.3284 351196.7815 0.4585 0.4679
ENERGY: 5000 4.8700 6.4830 4.1653 0.2391 -15546.4422 1684.9039 0.0000 0.0000 2634.0929 -11211.6880 295.2853 -13845.7808 -11205.7599 293.8150 45.0308 45.4555 367177.1140 1.7838 1.8021
TCL: Running FEP window  12: Lambda1 0.6875 Lambda2 0.75   [dLambda 0.0625]
TCL: Setting parameter firsttimestep to 0
TCL: Setting parameter alchLambda to 0.6875
Info: NONBONDED TABLE R-SQUARED SPACING: 0.0625
Info: NONBONDED TABLE SIZE: 769 POINTS
TCL: Setting parameter alchLambda2 to 0.75
Info: NONBONDED TABLE R-SQUARED SPACING: 0.0625
Info: NONBONDED TABLE SIZE: 769 POINTS
TCL: Running for 5000 steps
ETITLE: TS BOND ANGLE DIHED IMPRP ELECT VDW BOUNDARY MISC KINETIC TOTAL TEMP POTENTIAL TOTAL3 TEMPAVG PRESSURE GPRESSURE VOLUME PRESSAVG GPRESSAVG
ENERGY: 0 4.8700 6.4830 4.1653 0.2391 -15546.5198 1685.5763 0.0000 0.0000 2634.0135 -11211.1726 295.2764 -13845.1861 -11206.3864 295.2764 46.2762 46.3023 367177.1140 46.2762 46.3023
ENERGY: 1000 4.1826 5.8760 3.3323 0.2036 -15551.2484 1646.9600 0.0000 0.0000 2642.7908 -11247.9032 296.2604 -13890.6939 -11244.1777 294.4685 14.3967 14.3269 366740.8704 1.2185 1.2081
ENERGY: 2000 4.0214 4.3265 2.1318 0.1903 -15533.2502 1609.1099 0.0000 0.0000 2633.5164 -11279.9539 295.2207 -13913.4704 -11274.8221 290.2766 -32.2468 -31.9788 369248.6272 2.3376 2.3534
ENERGY: 3000 2.4227 4.6618 3.8785 0.1097 -15593.0398 1672.8458 0.0000 0.0000 2607.1753 -11301.9459 292.2678 -13909.1212 -11299.4545 292.4051 -27.0709 -26.9709 395438.2202 1.4813 1.4660
ENERGY: 4000 3.5118 5.0379 2.1254 0.1636 -15583.8335 1720.0760 0.0000 0.0000 2579.3270 -11273.5917 289.1460 -13852.9188 -11270.8819 293.9887 34.7176 35.2673 385625.9405 2.1583 2.1414
ENERGY: 5000 2.9448 2.4477 4.4181 0.2382 -15530.5432 1694.8099 0.0000 0.0000 2683.2082 -11142.4763 300.7912 -13825.6845 -11137.3836 294.2383 35.6123 36.7929 380276.5586 1.1496 1.1594
TCL: Running FEP window  13: Lambda1 0.75   Lambda2 0.8125 [dLambda 0.0625]
TCL: Setting parameter firsttimestep to 0
TCL: Setting parameter alchLambda to 0.75
Info: NONBONDED TABLE R-SQUARED SPACING: 0.0625
Info: NONBONDED TABLE SIZE: 769 POINTS
TCL: Setting parameter alchLambda2 to 0.8125
Info: NONBONDED TABLE R-SQUARED SPACING: 0.0625
Info: NONBONDED TABLE SIZE: 769 POINTS
TCL: Running for 5000 steps
ETITLE: TS BOND ANGLE DIHED IMPRP ELECT VDW BOUNDARY MISC KINETIC TOTAL TEMP POTENTIAL TOTAL3 TEMPAVG PRESSURE GPRESSURE VOLUME PRESSAVG GPRESSAVG
ENERGY: 0 2.9448 2.4477 4.4181 0.2382 -15531.2803 1695.9334 0.0000 0.0000 2683.1260 -11142.1720 300.7820 -13825.2980 -11137.1386 300.7820 37.8696 38.0072 380276.5586 37.8696 38.0072
ENERGY: 1000 2.4827 3.5430 1.7284 0.1865 -15485.4863 1685.1472 0.0000 0.0000 2692.6042 -11099.7944 301.8445 -13792.3986 -11094.0681 297.9266 30.8711 30.2769 376680.0286 -0.0968 -0.1328
ENERGY: 2000 1.5845 2.8503 2.7233 0.1706 -15477.4131 1639.0556 0.0000 0.0000 2651.2468 -11179.7821 297.2083 -13831.0289 -11173.2615 294.8946 24.4994 24.8904 375363.5001 0.6905 0.7489
ENERGY: 3000 5.5114 3.0825 1.2688 0.1145 -15539.8339 1694.2593 0.0000 0.0000 2662.7079 -11172.8895 298.4931 -13835.5973 -11169.2297 296.8685 14.4838 14.8072 374118.9808 1.6487 1.6338
ENERGY: 4000 4.0512 8.1132 5.5004 0.1608 -15603.1469 1761.6372 0.0000 0.0000 2576.7770 -11246.9072 288.8601 -13823.6842 -11243.4042 293.5721 81.5419 82.0172 386287.5028 1.8762 1.8823
ENERGY: 5000 2.5840 4.1701 6.5435 0.3060 -15405.8178 1603.2901 0.0000 0.0000 2582.4006 -11206.5234 289.4906 -13788.9240 -11202.7934 295.4234 -10.8953 -10.7970 382660.7106 0.4135 0.4170
TCL: Running FEP window  14: Lambda1 0.8125 Lambda2 0.875  [dLambda 0.0625]
TCL: Setting parameter firsttimestep to 0
TCL: Setting parameter alchLambda to 0.8125
Info: NONBONDED TABLE R-SQUARED SPACING: 0.0625
Info: NONBONDED TABLE SIZE: 769 POINTS
TCL: Setting parameter alchLambda2 to 0.875
Info: NONBONDED TABLE R-SQUARED SPACING: 0.0625
Info: NONBONDED TABLE SIZE: 769 POINTS
TCL: Running for 5000 steps
ETITLE: TS BOND ANGLE DIHED IMPRP ELECT VDW BOUNDARY MISC KINETIC TOTAL TEMP POTENTIAL TOTAL3 TEMPAVG PRESSURE GPRESSURE VOLUME PRESSAVG GPRESSAVG
ENERGY: 0 2.5840 4.1701 6.5435 0.3060 -15406.0509 1604.5621 0.0000 0.0000 2582.3112 -11205.5740 289.4805 -13787.8852 -11200.4222 289.4805 -9.1166 -9.2990 382660.7106 -9.1166 -9.2990
ENERGY: 1000 2.2144 3.0444 2.9851 0.3048 -15439.2300 1610.3244 0.0000 0.0000 2638.3829 -11181.9741 295.7662 -13820.3570 -11177.8249 297.1767 -25.1000 -25.3973 387569.7499 1.2476 1.2790
ENERGY: 2000 3.9470 5.2821 1.5352 0.0640 -15571.5441 1726.6975 0.0000 0.0000 2613.8245 -11220.1938 293.0132 -13834.0184 -11212.1437 297.8717 56.2038 56.0257 396466.5110 1.1492 1.1446
ENERGY: 3000 4.0283 3.1135 1.0487 0.0432 -15503.3537 1664.7216 0.0000 0.0000 2679.1747 -11151.2237 300.3391 -13830.3984 -11144.5747 296.4166 10.4594 10.6344 390709.4863 1.4189 1.3933
ENERGY: 4000 1.9347 2.4115 5.4576 0.0819 -15441.9707 1646.4468 0.0000 0.0000 2634.2228 -11151.4154 295.2999 -13785.6383 -11147.2867 296.9003 25.2539 24.6768 370950.3786 0.5450 0.6084
ENERGY: 5000 2.6135 2.2081 4.4504 0.3189 -15504.4424 1641.3550 0.0000 0.0000 2616.8562 -11236.6402 293.3531 -13853.4965 -11230.9798 294.2743 2.3588 2.4426 362987.8150 0.3789 0.3816
TCL: Running FEP window  15: Lambda1 0.875  Lambda2 0.9375 [dLambda 0.0625]
TCL: Setting parameter firsttimestep to 0
TCL: Setting parameter alchLambda to 0.875
Info: NONBONDED TABLE R-SQUARED SPACING: 0.0625
Info: NONBONDED TABLE SIZE: 769 POINTS
TCL: Setting parameter alchLambda2 to 0.9375
Info: NONBONDED TABLE R-SQUARED SPACING: 0.0625
Info: NONBONDED TABLE SIZE: 769 POINTS
TCL: Running for 5000 steps
ETITLE: TS BOND ANGLE DIHED IMPRP ELECT VDW BOUNDARY MISC KINETIC TOTAL TEMP POTENTIAL TOTAL3 TEMPAVG PRESSURE GPRESSURE VOLUME PRESSAVG GPRESSAVG
ENERGY: 0 2.6135 2.2081 4.4504 0.3189 -15505.3306 1643.4150 0.0000 0.0000 2616.7725 -11235.5521 293.3437 -13852.3246 -11231.2607 293.3437 5.2902 5.2787 362987.8150 5.2902 5.2787
ENERGY: 1000 1.5055 7.2133 5.4614 0.3081 -15403.7922 1605.7214 0.0000 0.0000 2669.1008 -11114.4817 299.2098 -13783.5825 -11109.9407 296.7654 -20.0105 -20.2724 360023.9609 2.7448 2.7396
ENERGY: 2000 4.2874 4.4010 3.2075 0.1638 -15389.5485 1593.5629 0.0000 0.0000 2712.8285 -11071.0973 304.1117 -13783.9258 -11065.1245 301.3790 -11.6071 -12.1087 373059.2824 1.2124 1.2634
ENERGY: 3000 4.0459 3.8875 4.8362 0.2318 -15627.2432 1715.6256 0.0000 0.0000 2727.4295 -11171.1868 305.7485 -13898.6162 -11166.7350 297.2651 50.2581 49.8547 381517.1046 0.0104 0.0086
ENERGY: 4000 1.5684 6.1515 3.7278 0.1015 -15428.9980 1675.1629 0.0000 0.0000 2618.8504 -11123.4354 293.5766 -13742.2858 -11119.8193 297.9659 29.9060 30.5891 380035.1028 3.0249 3.0153
ENERGY: 5000 2.7055 5.2301 4.2968 0.0351 -15342.9678 1567.3520 0.0000 0.0000 2639.0745 -11124.2736 295.8438 -13763.3482 -11120.1216 297.9674 -47.6369 -48.7037 377436.1724 -0.1903 -0.2196
TCL: Running FEP window  16: Lambda1 0.9375 Lambda2 1.0    [dLambda 0.0625]
TCL: Setting parameter firsttimestep to 0
TCL: Setting parameter alchLambda to 0.9375
Info: NONBONDED TABLE R-SQUARED SPACING: 0.0625
Info: NONBONDED TABLE SIZE: 769 POINTS
TCL: Setting parameter alchLambda2 to 1.0
Info: NONBONDED TABLE R-SQUARED SPACING: 0.0625
Info: NONBONDED TABLE SIZE: 769 POINTS
TCL: Running for 5000 steps
ETITLE: TS BOND ANGLE DIHED IMPRP ELECT VDW BOUNDARY MISC KINETIC TOTAL TEMP POTENTIAL TOTAL3 TEMPAVG PRESSURE GPRESSURE VOLUME PRESSAVG GPRESSAVG
ENERGY: 0 2.7055 5.2301 4.2968 0.0351 -15343.5062 1568.8694 0.0000 0.0000 2638.9934 -11123.3758 295.8347 -13762.3692 -11118.1923 295.8347 -46.7801 -46.8532 377436.1724 -46.7801 -46.8532
ENERGY: 1000 2.9754 3.2462 5.4086 0.2070 -15417.2076 1619.1308 0.0000 0.0000 2637.3983 -11148.8413 295.6559 -13786.2396 -11141.4010 296.9698 -0.5466 0.0064 345644.2723 2.4512 2.4740
ENERGY: 2000 6.6567 5.1042 2.5872 0.0920 -15404.8117 1546.5883 0.0000 0.0000 2720.9574 -11122.8259 305.0230 -13843.7832 -11116.8775 295.6883 -83.2601 -83.4239 346757.3534 3.1788 3.1694
ENERGY: 3000 4.1043 4.0887 2.9793 0.1041 -15291.3040 1559.2353 0.0000 0.0000 2701.9469 -11018.8453 302.8919 -13720.7922 -11013.4727 298.0689 -23.9798 -24.0121 347525.5004 0.2921 0.2783
ENERGY: 4000 2.1162 7.8459 3.4151 0.1225 -15342.5769 1598.3517 0.0000 0.0000 2702.2155 -11028.5101 302.9220 -13730.7256 -11021.7866 301.4370 -10.2658 -9.4748 342519.2504 1.9598 1.9677
ENERGY: 5000 2.0055 3.7428 7.0667 0.3285 -15425.3808 1633.1035 0.0000 0.0000 2621.0509 -11158.0829 293.8233 -13779.1338 -11151.2004 297.2209 21.1105 21.6822 340975.2462 2.6813 2.6674
