Info: SIMULATION PARAMETERS:
Info: TIMESTEP               2
Info: NUMBER OF STEPS        0
Info: STEPS PER CYCLE        10
Info: PERIODIC CELL BASIS 1  84.4255 0 0
Info: PERIODIC CELL BASIS 2  0 84.4255 0
Info: PERIODIC CELL BASIS 3  0 0 84.4255
Info: PERIODIC CELL CENTER   36.012 36.012 36.012
Info: WRAPPING ALL CLUSTERS AROUND PERIODIC BOUNDARIES ON OUTPUT.
Info: FIRST LDB TIMESTEP     50
Info: LAST LDB TIMESTEP     -1
Info: HOM BACKGROUND SCALING 1
Info: PME BACKGROUND SCALING 1
Info: MIN ATOMS PER PATCH    40
Info: EMPTY PATCH LOAD       40 ATOMS
Info: VELOCITY FILE          mobley_5747188_equilibrated.vel
Info: CENTER OF MASS MOVING INITIALLY? NO
Info: DIELECTRIC             1
Info: EXCLUDE                SCALED ONE-FOUR
Info: 1-4 ELECTROSTATICS SCALED BY 1
Info: MODIFIED 1-4 VDW PARAMETERS WILL BE USED
Info: DCD FILENAME           mobley_5747188_backwards.dcd
Info: DCD FREQUENCY          500
Info: DCD FIRST STEP         500
Info: DCD FILE WILL CONTAIN UNIT CELL DATA
Info: NO EXTENDED SYSTEM TRAJECTORY OUTPUT
Info: NO VELOCITY DCD OUTPUT
Info: NO FORCE DCD OUTPUT
Info: OUTPUT FILENAME        mobley_5747188_backwards
Info: BINARY OUTPUT FILES WILL BE USED
Info: NO RESTART FILE
Info: SWITCHING ACTIVE
Info: SWITCHING ON           10
Info: SWITCHING OFF          12
Info: PAIRLIST DISTANCE      14
Info: PAIRLIST SHRINK RATE   0.01
Info: PAIRLIST GROW RATE     0.01
Info: PAIRLIST TRIGGER       0.3
Info: PAIRLISTS PER CYCLE    2
Info: PAIRLISTS ENABLED
Info: MARGIN                 8
Info: HYDROGEN GROUP CUTOFF  2.5
Info: PATCH DIMENSION        24.5
Info: ENERGY OUTPUT STEPS    500
Info: ENERGY EVALUATION STEPS    500
Info: OUTPUT ENERGY PRECISION 4
Info: CROSSTERM ENERGY INCLUDED IN DIHEDRAL
Info: TIMING OUTPUT STEPS    500
Info: PRESSURE OUTPUT STEPS  500
Info: ALCHEMICAL FEP ON
Info: FEP CURRENT LAMBDA VALUE     1
Info: FEP COMPARISON LAMBDA VALUE  0.9375
Info: FEP INTRA-ALCHEMICAL NON-BONDED INTERACTIONS WILL BE DECOUPLED
Info: FEP INTRA-ALCHEMICAL BONDED INTERACTIONS WILL BE RETAINED
Info: FEP VDW SHIFTING COEFFICIENT 6
Info: FEP ELEC. ACTIVE FOR ANNIHILATED PARTICLES BETWEEN LAMBDA = 0 AND LAMBDA = 0.5
Info: FEP ELEC. ACTIVE FOR EXNIHILATED PARTICLES BETWEEN LAMBDA = 0.5 AND LAMBDA = 1
Info: FEP VDW ACTIVE FOR ANNIHILATED PARTICLES BETWEEN LAMBDA = 0 AND LAMBDA = 1
Info: FEP VDW ACTIVE FOR EXNIHILATED PARTICLES BETWEEN LAMBDA = 0 AND LAMBDA = 1
Info: FEP BOND ACTIVE FOR ANNIHILATED PARTICLES BETWEEN LAMBDA = 1 AND LAMBDA = 1
Info: FEP BOND ACTIVE FOR EXNIHILATED PARTICLES BETWEEN LAMBDA = 0 AND LAMBDA = 0
Info: LANGEVIN DYNAMICS ACTIVE
Info: LANGEVIN TEMPERATURE   298
Info: LANGEVIN USING BBK INTEGRATOR
Info: LANGEVIN DAMPING COEFFICIENT IS 1 INVERSE PS
Info: LANGEVIN DYNAMICS NOT APPLIED TO HYDROGENS
Info: LANGEVIN PISTON PRESSURE CONTROL ACTIVE
Info:        TARGET PRESSURE IS 1.01325 BAR
Info:     OSCILLATION PERIOD IS 100 FS
Info:             DECAY TIME IS 50 FS
Info:     PISTON TEMPERATURE IS 298 K
Info:       PRESSURE CONTROL IS GROUP-BASED
Info:    INITIAL STRAIN RATE IS 0.00011238 0.00011238 0.00011238
Info:       CELL FLUCTUATION IS ISOTROPIC
Info: PARTICLE MESH EWALD (PME) ACTIVE
Info: PME TOLERANCE               1e-05
Info: PME EWALD COEFFICIENT       0.226635
Info: PME INTERPOLATION ORDER     4
Info: PME GRID DIMENSIONS         88 88 88
Info: PME MAXIMUM GRID SPACING    1
Info: FULL ELECTROSTATIC EVALUATION FREQUENCY      1
Info: USING VERLET I (r-RESPA) MTS SCHEME.
Info: C1 SPLITTING OF LONG RANGE ELECTROSTATICS
Info: PLACING ATOMS IN PATCHES BY HYDROGEN GROUPS
Info: RIGID BONDS TO HYDROGEN : ALL
Info:         ERROR TOLERANCE : 1e-08
Info:          MAX ITERATIONS : 100
Info: RIGID WATER USING SETTLE ALGORITHM
Info: RANDOM NUMBER SEED     1740646287
Info: USE HYDROGEN BONDS?    NO
Info: COORDINATE PDB         mobley_5747188.pdb
Info: STRUCTURE FILE         mobley_5747188.psf
Info: PARAMETER file: CHARMM format!
Info: PARAMETERS             ../common/par_all27_prot_lipid.inp
Info: PARAMETERS             mobley_5747188.prm
Info: USING ARITHMETIC MEAN TO COMBINE L-J SIGMA PARAMETERS
Info: BINARY COORDINATES     mobley_5747188_equilibrated.coor
Info: SUMMARY OF PARAMETERS:
Info: 186 BONDS
Info: 455 ANGLES
Info: 576 DIHEDRAL
Info: 49 IMPROPER
Info: 6 CROSSTERM
Info: 125 VDW
Info: 0 VDW_PAIRS
Info: 0 NBTHOLE_PAIRS
Info: To read alchdata from file: mobley_5747188.pdb
Info: To read alchflag data from column: 5
Info: STRUCTURE SUMMARY:
Info: 4484 ATOMS
Info: 2995 BONDS
Info: 1516 ANGLES
Info: 34 DIHEDRALS
Info: 6 IMPROPERS
Info: 0 CROSSTERMS
Info: 0 EXCLUSIONS
Info: 4474 RIGID BONDS
Info: ALCH: 0 ATOMS TO DISAPPEAR IN FINAL STATE
Info: ALCH: 17 ATOMS TO APPEAR IN FINAL STATE
Info: 8978 DEGREES OF FREEDOM
Info: 1499 HYDROGEN GROUPS
Info: 4 ATOMS IN LARGEST HYDROGEN GROUP
Info: 1499 MIGRATION GROUPS
Info: 4 ATOMS IN LARGEST MIGRATION GROUP
Info: TOTAL MASS = 26962.1 amu
Info: TOTAL CHARGE = -2.23517e-08 e
Info: MASS DENSITY = 0.0744031 g/cm^3
Info: ATOM DENSITY = 0.00745151 atoms/A^3
Info: ADDED 4542 IMPLICIT EXCLUSIONS
Info: NONBONDED TABLE R-SQUARED SPACING: 0.0625
Info: NONBONDED TABLE SIZE: 769 POINTS
Info: REMOVING COM VELOCITY 0.0935817 -0.0495101 0.0757089
TCL: Running for 5000 steps
ETITLE: TS BOND ANGLE DIHED IMPRP ELECT VDW BOUNDARY MISC KINETIC TOTAL TEMP POTENTIAL TOTAL3 TEMPAVG PRESSURE GPRESSURE VOLUME PRESSAVG GPRESSAVG
ENERGY: 0 2.3000 6.6436 4.5295 0.0354 -15296.9516 1563.3318 0.0000 0.0000 2700.7006 -11019.4106 302.7521 -13720.1112 -11014.1993 302.7521 -10.6280 -10.5226 601757.2315 -10.6280 -10.5226
ENERGY: 1000 2.3794 3.5027 6.0108 0.1101 -15220.2535 1522.8950 0.0000 0.0000 2661.4303 -11023.9252 298.3499 -13685.3555 -11018.3422 301.6328 -32.2282 -31.5802 601682.4426 0.7349 0.7806
ENERGY: 2000 3.8610 4.0725 4.7565 0.1053 -15319.2136 1651.6495 0.0000 0.0000 2584.1157 -11070.6531 289.6828 -13654.7687 -11066.1861 300.3014 25.1041 25.2702 595223.1141 0.2381 0.2224
ENERGY: 3000 1.8785 7.3996 3.7552 0.1272 -15508.7610 1746.6123 0.0000 0.0000 2676.5775 -11072.4107 300.0479 -13748.9883 -11068.1636 299.0617 63.4941 63.8415 570668.5731 2.5450 2.5900
ENERGY: 4000 1.7552 3.0082 5.2390 0.1268 -15396.1018 1592.7623 0.0000 0.0000 2694.7575 -11098.4529 302.0859 -13793.2104 -11093.2714 301.3449 -16.5693 -16.4073 547997.9970 1.7245 1.7668
ENERGY: 5000 3.7545 4.5918 6.0478 0.2394 -15494.4335 1699.9676 0.0000 0.0000 2645.0953 -11134.7371 296.5187 -13779.8324 -11131.2027 299.4890 23.1748 23.4180 556879.3101 1.1393 1.1651
TCL: Running FEP window   2: Lambda1 0.9375 Lambda2 0.875  [dLambda -0.0625]
TCL: Setting parameter firsttimestep to 0
TCL: Setting parameter alchLambda to 0.9375
Info: NONBONDED TABLE R-SQUARED SPACING: 0.0625
Info: NONBONDED TABLE SIZE: 769 POINTS
TCL: Setting parameter alchLambda2 to 0.875
Info: NONBONDED TABLE R-SQUARED SPACING: 0.0625
Info: NONBONDED TABLE SIZE: 769 POINTS
TCL: Running for 5000 steps
ETITLE: TS BOND ANGLE DIHED IMPRP ELECT VDW BOUNDARY MISC KINETIC TOTAL TEMP POTENTIAL TOTAL3 TEMPAVG PRESSURE GPRESSURE VOLUME PRESSAVG GPRESSAVG
ENERGY: 0 3.7545 4.5918 6.0478 0.2394 -15493.2569 1698.6050 0.0000 0.0000 2645.0148 -11135.0037 296.5097 -13780.0184 -11130.1388 296.5097 21.2994 21.2502 556879.3101 21.2994 21.2502
ENERGY: 1000 0.9049 4.8050 6.1928 0.5199 -15572.2673 1712.8875 0.0000 0.0000 2675.9836 -11170.9736 299.9813 -13846.9572 -11166.0180 296.1557 23.5267 23.5301 543449.0080 0.0170 0.0186
ENERGY: 2000 1.7724 4.5986 2.7105 0.0423 -15348.4564 1621.9200 0.0000 0.0000 2638.7641 -11078.6486 295.8090 -13717.4127 -11073.3378 299.4846 -4.0797 -5.5443 544221.8577 0.6043 0.6450
ENERGY: 3000 5.4154 5.7864 6.5363 0.2387 -15549.1015 1668.2395 0.0000 0.0000 2696.2876 -11166.5977 302.2574 -13862.8853 -11160.6551 298.6052 -3.6957 -3.5571 533588.8282 0.4063 0.3741
ENERGY: 4000 3.4337 7.2789 5.1664 0.2274 -15343.4921 1569.4154 0.0000 0.0000 2633.0896 -11124.8808 295.1729 -13757.9703 -11118.9378 297.8585 -36.3988 -36.2166 520992.0650 0.5553 0.6304
ENERGY: 5000 2.9330 4.1691 5.2900 0.1121 -15426.6797 1609.3211 0.0000 0.0000 2707.1747 -11097.6798 303.4779 -13804.8545 -11092.2679 295.6996 -10.5596 -10.1920 510065.0108 -1.3881 -1.4019
TCL: Running FEP window   3: Lambda1 0.875  Lambda2 0.8125 [dLambda -0.0625]
TCL: Setting parameter firsttimestep to 0
TCL: Setting parameter alchLambda to 0.875
Info: NONBONDED TABLE R-SQUARED SPACING: 0.0625
Info: NONBONDED TABLE SIZE: 769 POINTS
TCL: Setting parameter alchLambda2 to 0.8125
Info: NONBONDED TABLE R-SQUARED SPACING: 0.0625
Info: NONBONDED TABLE SIZE: 769 POINTS
TCL: Running for 5000 steps
ETITLE: TS BOND ANGLE DIHED IMPRP ELECT VDW BOUNDARY MISC KINETIC TOTAL TEMP POTENTIAL TOTAL3 TEMPAVG PRESSURE GPRESSURE VOLUME PRESSAVG GPRESSAVG
ENERGY: 0 2.9330 4.1691 5.2900 0.1121 -15425.3767 1607.1562 0.0000 0.0000 2707.0978 -11098.6185 303.4693 -13805.7164 -11093.7902 303.4693 -12.4983 -12.6057 510065.0108 -12.4983 -12.6057
ENERGY: 1000 2.5032 4.2062 3.3274 0.1041 -15431.1312 1667.3589 0.0000 0.0000 2594.1267 -11159.5047 290.8051 -13753.6314 -11154.3906 295.6948 18.8016 18.2317 495454.4248 2.2094 2.2132
ENERGY: 2000 2.3715 5.9880 7.4835 0.3785 -15392.2662 1601.9810 0.0000 0.0000 2637.1150 -11136.9488 295.6241 -13774.0638 -11131.6403 295.5341 -2.9542 -3.2961 507720.0654 0.9836 1.0023
ENERGY: 3000 4.1021 6.5063 4.0632 0.1299 -15376.4459 1617.8747 0.0000 0.0000 2671.0118 -11072.7579 299.4240 -13743.7697 -11068.9204 297.8341 12.2383 12.5850 511597.6210 0.6310 0.6386
ENERGY: 4000 2.6735 7.6275 2.5546 0.2468 -15372.0600 1607.2024 0.0000 0.0000 2674.8003 -11076.9549 299.8487 -13751.7552 -11073.5612 298.3042 -4.9123 -4.7748 510537.8707 1.2449 1.2349
ENERGY: 5000 3.8931 3.3951 4.5989 0.2074 -15440.0599 1654.3974 0.0000 0.0000 2641.3250 -11132.2430 296.0961 -13773.5680 -11129.3393 296.3661 26.7118 25.7957 498791.9025 2.8171 2.7902
TCL: Running FEP window   4: Lambda1 0.8125 Lambda2 0.75   [dLambda -0.0625]
TCL: Setting parameter firsttimestep to 0
TCL: Setting parameter alchLambda to 0.8125
Info: NONBONDED TABLE R-SQUARED SPACING: 0.0625
Info: NONBONDED TABLE SIZE: 769 POINTS
TCL: Setting parameter alchLambda2 to 0.75
Info: NONBONDED TABLE R-SQUARED SPACING: 0.0625
Info: NONBONDED TABLE SIZE: 769 POINTS
TCL: Running for 5000 steps
ETITLE: TS BOND ANGLE DIHED IMPRP ELECT VDW BOUNDARY MISC KINETIC TOTAL TEMP POTENTIAL TOTAL3 TEMPAVG PRESSURE GPRESSURE VOLUME PRESSAVG GPRESSAVG
ENERGY: 0 3.8931 3.3951 4.5989 0.2074 -15439.0264 1653.4288 0.0000 0.0000 2641.2435 -11132.2597 296.0869 -13773.5032 -11126.8600 296.0869 23.6082 23.6095 498791.9025 23.6082 23.6095
ENERGY: 1000 2.0829 4.2900 3.9036 0.2319 -15428.4888 1632.6396 0.0000 0.0000 2628.1486 -11157.1923 294.6190 -13785.3409 -11151.7832 296.2945 14.9950 14.6634 470474.9311 0.3630 0.4010
ENERGY: 2000 1.4427 8.0922 3.2070 0.0916 -15477.1499 1626.7653 0.0000 0.0000 2653.7725 -11183.7786 297.4914 -13837.5511 -11177.6738 296.2108 2.7965 3.0029 469384.7352 0.8821 0.8573
ENERGY: 3000 1.7099 5.0826 4.9837 0.4054 -15344.6639 1529.9983 0.0000 0.0000 2664.5131 -11137.9710 298.6955 -13802.4840 -11133.0878 295.1013 -57.5891 -57.3281 467553.5131 -1.0500 -1.0358
ENERGY: 4000 1.8647 3.9220 3.8339 0.2643 -15313.3889 1513.9745 0.0000 0.0000 2601.0253 -11188.5041 291.5784 -13789.5293 -11183.9033 294.2061 -55.8471 -56.7947 459472.3377 1.2303 1.2252
ENERGY: 5000 4.1080 8.4318 1.2186 0.0421 -15572.1806 1682.7938 0.0000 0.0000 2698.4193 -11177.1669 302.4964 -13875.5862 -11172.4849 296.5821 31.2333 31.2855 461016.2466 0.3571 0.3595
TCL: Running FEP window   5: Lambda1 0.75   Lambda2 0.6875 [dLambda -0.0625]
TCL: Setting parameter firsttimestep to 0
TCL: Setting parameter alchLambda to 0.75
Info: NONBONDED TABLE R-SQUARED SPACING: 0.0625
Info: NONBONDED TABLE SIZE: 769 POINTS
TCL: Setting parameter alchLambda2 to 0.6875
Info: NONBONDED TABLE R-SQUARED SPACING: 0.0625
Info: NONBONDED TABLE SIZE: 769 POINTS
TCL: Running for 5000 steps
ETITLE: TS BOND ANGLE DIHED IMPRP ELECT VDW BOUNDARY MISC KINETIC TOTAL TEMP POTENTIAL TOTAL3 TEMPAVG PRESSURE GPRESSURE VOLUME PRESSAVG GPRESSAVG
ENERGY: 0 4.1080 8.4318 1.2186 0.0421 -15571.4199 1681.6243 0.0000 0.0000 2698.3328 -11177.6622 302.4867 -13875.9950 -11172.3020 302.4867 29.0560 29.1377 461016.2466 29.0560 29.1377
ENERGY: 1000 1.8450 6.0337 5.9590 0.1289 -15564.1262 1687.4769 0.0000 0.0000 2628.6155 -11234.0672 294.6713 -13862.6827 -11230.3912 297.9775 5.8142 4.6695 446628.0213 2.2101 2.2275
ENERGY: 2000 2.3193 4.3673 1.2667 0.0835 -15507.8003 1606.7481 0.0000 0.0000 2670.7876 -11222.2278 299.3989 -13893.0154 -11216.4352 296.7927 -28.7382 -28.8078 441630.4133 2.0600 2.0824
ENERGY: 3000 3.9008 5.8424 2.3287 0.1780 -15367.7161 1588.5483 0.0000 0.0000 2579.3319 -11187.5859 289.1465 -13766.9178 -11184.6594 293.7327 -8.7966 -8.8476 421759.0983 -2.0731 -2.0736
ENERGY: 4000 3.6817 4.6525 5.0886 0.1313 -15375.2507 1555.1427 0.0000 0.0000 2620.9229 -11185.6309 293.8090 -13806.5538 -11179.6527 296.3412 -39.6709 -40.1436 423986.7811 0.9752 0.9036
ENERGY: 5000 4.0928 4.3915 5.6515 0.2333 -15429.6533 1641.0504 0.0000 0.0000 2637.2196 -11137.0141 295.6358 -13774.2338 -11130.7648 296.7291 29.5203 29.2376 432707.2502 -0.2669 -0.2311
TCL: Running FEP window   6: Lambda1 0.6875 Lambda2 0.625  [dLambda -0.0625]
TCL: Setting parameter firsttimestep to 0
TCL: Setting parameter alchLambda to 0.6875
Info: NONBONDED TABLE R-SQUARED SPACING: 0.0625
Info: NONBONDED TABLE SIZE: 769 POINTS
TCL: Setting parameter alchLambda2 to 0.625
Info: NONBONDED TABLE R-SQUARED SPACING: 0.0625
Info: NONBONDED TABLE SIZE: 769 POINTS
TCL: Running for 5000 steps
ETITLE: TS BOND ANGLE DIHED IMPRP ELECT VDW BOUNDARY MISC KINETIC TOTAL TEMP POTENTIAL TOTAL3 TEMPAVG PRESSURE GPRESSURE VOLUME PRESSAVG GPRESSAVG
ENERGY: 0 4.0928 4.3915 5.6515 0.2333 -15429.4403 1640.5861 0.0000 0.0000 2637.1413 -11137.3438 295.6271 -13774.4851 -11132.1512 295.6271 27.7241 27.6208 432707.2502 27.7241 27.6208
ENERGY: 1000 5.5710 6.7469 5.0912 0.4725 -15414.7972 1550.7891 0.0000 0.0000 2705.0812 -11141.0453 303.2432 -13846.1265 -11135.7705 298.0788 -86.3093 -85.9568 437676.2567 1.2418 1.2773
ENERGY: 2000 2.0709 6.9440 2.1500 0.0680 -15550.8014 1727.5636 0.0000 0.0000 2669.9093 -11142.0956 299.3004 -13812.0048 -11137.1095 296.3186 59.4490 58.8727 425257.7453 -1.1455 -1.1803
ENERGY: 3000 2.7662 4.8036 4.2014 0.1696 -15427.3747 1564.4310 0.0000 0.0000 2595.4092 -11255.5936 290.9488 -13851.0028 -11250.9964 294.9167 -60.1758 -59.6983 417900.1776 0.8098 0.8601
ENERGY: 4000 1.2552 2.9452 2.6988 0.1103 -15406.9759 1550.5465 0.0000 0.0000 2613.2665 -11236.1534 292.9507 -13849.4198 -11230.9636 293.3969 -40.4818 -40.0446 405652.3579 0.5590 0.5442
ENERGY: 5000 2.5309 3.2077 3.7518 0.3545 -15442.6063 1591.7228 0.0000 0.0000 2639.7888 -11201.2498 295.9238 -13841.0386 -11195.6069 293.8704 -18.5853 -18.1754 397498.1354 0.7177 0.6972
TCL: Running FEP window   7: Lambda1 0.625  Lambda2 0.5625 [dLambda -0.0625]
TCL: Setting parameter firsttimestep to 0
TCL: Setting parameter alchLambda to 0.625
Info: NONBONDED TABLE R-SQUARED SPACING: 0.0625
Info: NONBONDED TABLE SIZE: 769 POINTS
TCL: Setting parameter alchLambda2 to 0.5625
Info: NONBONDED TABLE R-SQUARED SPACING: 0.0625
Info: NONBONDED TABLE SIZE: 769 POINTS
TCL: Running for 5000 steps
ETITLE: TS BOND ANGLE DIHED IMPRP ELECT VDW BOUNDARY MISC KINETIC TOTAL TEMP POTENTIAL TOTAL3 TEMPAVG PRESSURE GPRESSURE VOLUME PRESSAVG GPRESSAVG
ENERGY: 0 2.5309 3.2077 3.7518 0.3545 -15441.8889 1591.6327 0.0000 0.0000 2639.7084 -11200.7028 295.9148 -13840.4112 -11196.1180 295.9148 -19.4106 -19.3533 397498.1354 -19.4106 -19.3533
ENERGY: 1000 3.0402 5.6379 3.7719 0.2229 -15391.4515 1558.2919 0.0000 0.0000 2611.4191 -11209.0674 292.7436 -13820.4866 -11203.0505 296.9098 -31.1100 -30.6975 394055.7795 3.6482 3.7094
ENERGY: 2000 2.8851 4.1741 1.8771 0.1661 -15418.7876 1601.2121 0.0000 0.0000 2654.5333 -11153.9399 297.5767 -13808.4731 -11148.1521 296.0894 -12.0287 -12.7171 386881.6372 2.5155 2.4460
ENERGY: 3000 2.8120 2.8678 2.3631 0.2479 -15589.8196 1704.9252 0.0000 0.0000 2640.7283 -11235.8753 296.0292 -13876.6036 -11231.7779 294.5338 58.6678 58.1911 382697.4159 3.0560 3.0326
ENERGY: 4000 0.9783 3.5844 3.1623 0.2547 -15540.1967 1637.9034 0.0000 0.0000 2583.1722 -11311.1414 289.5771 -13894.3136 -11305.7779 292.2785 -31.9777 -31.2261 380736.4465 -0.1490 -0.1445
ENERGY: 5000 4.9217 10.0636 1.6180 0.0612 -15511.2998 1686.7238 0.0000 0.0000 2528.9944 -11278.9171 283.5037 -13807.9116 -11274.5645 289.1117 10.0324 11.4682 371470.7657 0.2691 0.2508
TCL: Running FEP window   8: Lambda1 0.5625 Lambda2 0.5    [dLambda -0.0625]
TCL: Setting parameter firsttimestep to 0
TCL: Setting parameter alchLambda to 0.5625
Info: NONBONDED TABLE R-SQUARED SPACING: 0.0625
Info: NONBONDED TABLE SIZE: 769 POINTS
TCL: Setting parameter alchLambda2 to 0.5
Info: NONBONDED TABLE R-SQUARED SPACING: 0.0625
Info: NONBONDED TABLE SIZE: 769 POINTS
TCL: Running for 5000 steps
ETITLE: TS BOND ANGLE DIHED IMPRP ELECT VDW BOUNDARY MISC KINETIC TOTAL TEMP POTENTIAL TOTAL3 TEMPAVG PRESSURE GPRESSURE VOLUME PRESSAVG GPRESSAVG
ENERGY: 0 4.9217 10.0636 1.6180 0.0612 -15511.4854 1686.5575 0.0000 0.0000 2528.9125 -11279.3509 283.4945 -13808.2634 -11274.5962 283.4945 10.3656 10.2178 371470.7657 10.3656 10.2178
ENERGY: 1000 4.2575 7.1700 4.4895 0.2879 -15510.3081 1609.3502 0.0000 0.0000 2672.7726 -11211.9804 299.6214 -13884.7530 -11208.1144 293.6860 -43.6346 -42.6716 368698.8154 2.1670 2.2314
ENERGY: 2000 5.4509 4.3595 3.3169 0.1696 -15572.2136 1668.9515 0.0000 0.0000 2637.0817 -11252.8835 295.6204 -13889.9652 -11248.5512 293.3581 -13.2415 -13.8940 367423.6261 2.5625 2.5109
ENERGY: 3000 2.3448 4.2891 3.4651 0.1736 -15404.9921 1630.6197 0.0000 0.0000 2611.2033 -11152.8964 292.7194 -13764.0997 -11148.5587 296.5736 20.1943 21.7265 348666.5280 2.9679 3.0063
ENERGY: 4000 2.6381 3.7018 2.6118 0.1880 -15412.2213 1593.7905 0.0000 0.0000 2672.0127 -11137.2783 299.5362 -13809.2911 -11131.7380 298.4958 -39.9927 -40.3478 348229.9746 2.1725 2.1872
ENERGY: 5000 2.0207 5.6843 5.6622 0.3678 -15419.7776 1543.7944 0.0000 0.0000 2672.0415 -11190.2067 299.5394 -13862.2482 -11183.7143 294.9975 -74.7407 -73.8237 348025.1310 -0.6490 -0.6168
TCL: Running FEP window   9: Lambda1 0.5    Lambda2 0.4375 [dLambda -0.0625]
TCL: Setting parameter firsttimestep to 0
TCL: Setting parameter alchLambda to 0.5
Info: NONBONDED TABLE R-SQUARED SPACING: 0.0625
Info: NONBONDED TABLE SIZE: 769 POINTS
TCL: Setting parameter alchLambda2 to 0.4375
Info: NONBONDED TABLE R-SQUARED SPACING: 0.0625
Info: NONBONDED TABLE SIZE: 769 POINTS
TCL: Running for 5000 steps
ETITLE: TS BOND ANGLE DIHED IMPRP ELECT VDW BOUNDARY MISC KINETIC TOTAL TEMP POTENTIAL TOTAL3 TEMPAVG PRESSURE GPRESSURE VOLUME PRESSAVG GPRESSAVG
ENERGY: 0 2.0207 5.6843 5.6622 0.3678 -15419.3035 1543.2562 0.0000 0.0000 2671.9635 -11190.3488 299.5307 -13862.3123 -11185.2296 299.5307 -74.9446 -74.9438 348025.1310 -74.9446 -74.9438
ENERGY: 1000 3.2628 5.1195 2.2522 0.1327 -15428.0101 1595.6831 0.0000 0.0000 2675.0616 -11146.4982 299.8780 -13821.5598 -11141.4511 295.4060 -53.2945 -53.1727 359913.5780 0.4687 0.4894
ENERGY: 2000 2.1825 5.0207 5.2073 0.3921 -15378.9414 1540.3119 0.0000 0.0000 2638.5583 -11187.2687 295.7859 -13825.8269 -11183.3860 296.3186 -74.1561 -73.8627 361691.5170 0.3196 0.2955
ENERGY: 3000 5.9236 3.3621 2.9699 0.2661 -15357.5381 1559.5509 0.0000 0.0000 2622.2261 -11163.2394 293.9550 -13785.4655 -11159.3971 297.1802 -59.3617 -60.0541 351930.3089 -1.7990 -1.8058
ENERGY: 4000 2.3418 5.2977 5.2740 0.1558 -15396.4983 1629.0140 0.0000 0.0000 2675.2266 -11079.1883 299.8965 -13754.4149 -11075.5373 298.6039 6.5157 5.9982 355681.0054 1.1087 1.1033
ENERGY: 5000 2.5487 8.3798 2.4585 0.1105 -15418.8852 1676.2396 0.0000 0.0000 2708.5600 -11020.5881 303.6332 -13729.1481 -11014.2997 301.1548 25.0465 26.0128 363617.8892 -0.9231 -0.8508
TCL: Running FEP window  10: Lambda1 0.4375 Lambda2 0.375  [dLambda -0.0625]
TCL: Setting parameter firsttimestep to 0
TCL: Setting parameter alchLambda to 0.4375
Info: NONBONDED TABLE R-SQUARED SPACING: 0.0625
Info: NONBONDED TABLE SIZE: 769 POINTS
TCL: Setting parameter alchLambda2 to 0.375
Info: NONBONDED TABLE R-SQUARED SPACING: 0.0625
Info: NONBONDED TABLE SIZE: 769 POINTS
TCL: Running for 5000 steps
ETITLE: TS BOND ANGLE DIHED IMPRP ELECT VDW BOUNDARY MISC KINETIC TOTAL TEMP POTENTIAL TOTAL3 TEMPAVG PRESSURE GPRESSURE VOLUME PRESSAVG GPRESSAVG
ENERGY: 0 2.5487 8.3798 2.4585 0.1105 -15418.8852 1676.3151 0.0000 0.0000 2708.4776 -11020.5950 303.6240 -13729.0727 -11015.4169 303.6240 25.5985 25.7036 363617.8892 25.5985 25.7036
ENERGY: 1000 3.6115 3.9863 3.1782 0.3088 -15296.0642 1597.9734 0.0000 0.0000 2690.4808 -10996.5254 301.6065 -13687.0061 -10991.8663 301.2339 5.4233 4.4192 365482.3550 1.8274 1.8150
ENERGY: 2000 1.4227 3.7300 2.2485 0.2057 -15442.1369 1653.6451 0.0000 0.0000 2680.8127 -11100.0722 300.5227 -13780.8849 -11094.1309 298.0955 31.3272 30.1646 378886.1940 2.0398 2.0511
ENERGY: 3000 2.0193 3.3619 4.1718 0.1855 -15450.2241 1615.2348 0.0000 0.0000 2682.4590 -11142.7918 300.7072 -13825.2508 -11138.5591 296.7123 -9.7395 -8.7917 381043.9065 -1.0490 -1.0705
ENERGY: 4000 3.2660 4.0262 1.9558 0.1636 -15402.6992 1591.8776 0.0000 0.0000 2641.7726 -11159.6375 296.1462 -13801.4100 -11154.6575 294.3439 -46.6607 -46.3185 377333.3498 2.1883 2.1596
ENERGY: 5000 3.3434 4.4570 1.9375 0.1275 -15414.5583 1607.9737 0.0000 0.0000 2663.4765 -11133.2426 298.5793 -13796.7191 -11127.8168 297.1085 -12.6245 -11.1152 381372.2125 1.2891 1.2813
TCL: Running FEP window  11: Lambda1 0.375  Lambda2 0.3125 [dLambda -0.0625]
TCL: Setting parameter firsttimestep to 0
TCL: Setting parameter alchLambda to 0.375
Info: NONBONDED TABLE R-SQUARED SPACING: 0.0625
Info: NONBONDED TABLE SIZE: 769 POINTS
TCL: Setting parameter alchLambda2 to 0.3125
Info: NONBONDED TABLE R-SQUARED SPACING: 0.0625
Info: NONBONDED TABLE SIZE: 769 POINTS
TCL: Running for 5000 steps
ETITLE: TS BOND ANGLE DIHED IMPRP ELECT VDW BOUNDARY MISC KINETIC TOTAL TEMP POTENTIAL TOTAL3 TEMPAVG PRESSURE GPRESSURE VOLUME PRESSAVG GPRESSAVG
ENERGY: 0 3.3434 4.4570 1.9375 0.1275 -15414.5583 1608.1516 0.0000 0.0000 2663.3937 -11133.1475 298.5700 -13796.5412 -11127.9467 298.5700 -11.0169 -11.1370 381372.2125 -11.0169 -11.1370
ENERGY: 1000 2.6057 3.9777 3.4720 0.2609 -15375.7136 1563.2717 0.0000 0.0000 2602.2333 -11199.8922 291.7138 -13802.1255 -11195.6377 294.3624 -32.7430 -33.6293 391505.5858 1.1581 1.1943
ENERGY: 2000 2.6128 5.4238 4.1576 0.4450 -15456.8536 1670.7369 0.0000 0.0000 2602.0399 -11171.4376 291.6921 -13773.4775 -11167.3201 294.4916 31.8390 32.6197 401346.5804 5.2503 5.2630
ENERGY: 3000 4.0984 7.9499 5.0384 0.5731 -15461.5593 1658.4925 0.0000 0.0000 2614.0284 -11171.3786 293.0361 -13785.4069 -11165.8766 294.9452 37.0448 37.2692 407874.1345 1.8487 1.8849
ENERGY: 4000 2.7670 5.7689 1.8571 0.1594 -15393.5789 1594.9827 0.0000 0.0000 2632.7342 -11155.3095 295.1330 -13788.0437 -11151.8398 297.0869 -26.3825 -26.9027 433050.9627 2.5540 2.6065
ENERGY: 5000 6.4522 7.6077 3.7350 0.3497 -15492.3414 1627.7859 0.0000 0.0000 2690.2447 -11156.1660 301.5800 -13846.4108 -11150.2771 295.3652 -1.7321 -2.6951 433600.7133 -0.2340 -0.1750
TCL: Running FEP window  12: Lambda1 0.3125 Lambda2 0.25   [dLambda -0.0625]
TCL: Setting parameter firsttimestep to 0
TCL: Setting parameter alchLambda to 0.3125
Info: NONBONDED TABLE R-SQUARED SPACING: 0.0625
Info: NONBONDED TABLE SIZE: 769 POINTS
TCL: Setting parameter alchLambda2 to 0.25
Info: NONBONDED TABLE R-SQUARED SPACING: 0.0625
Info: NONBONDED TABLE SIZE: 769 POINTS
TCL: Running for 5000 steps
ETITLE: TS BOND ANGLE DIHED IMPRP ELECT VDW BOUNDARY MISC KINETIC TOTAL TEMP POTENTIAL TOTAL3 TEMPAVG PRESSURE GPRESSURE VOLUME PRESSAVG GPRESSAVG
ENERGY: 0 6.4522 7.6077 3.7350 0.3497 -15492.3414 1628.1313 0.0000 0.0000 2690.1605 -11155.9049 301.5706 -13846.0654 -11150.7466 301.5706 -2.6601 -2.7695 433600.7133 -2.6601 -2.7695
ENERGY: 1000 3.0874 5.8977 2.0838 0.1362 -15423.9705 1702.8474 0.0000 0.0000 2547.8959 -11162.0221 285.6225 -13709.9180 -11157.6552 296.8546 38.7032 38.8314 447122.2163 0.0164 0.0553
ENERGY: 2000 6.5016 10.6438 2.7533 0.1784 -15572.0612 1785.3954 0.0000 0.0000 2669.6641 -11096.9246 299.2729 -13766.5887 -11090.9341 297.1696 130.1392 130.0763 430544.5847 2.5852 2.6036
ENERGY: 3000 7.2602 6.3668 1.3281 0.0939 -15160.0326 1444.6732 0.0000 0.0000 2615.4322 -11084.8782 293.1934 -13700.3104 -11079.3863 297.8793 -128.7073 -128.6698 438557.1451 0.1724 0.1551
ENERGY: 4000 3.6458 5.7051 2.9520 0.3007 -15234.5705 1595.2194 0.0000 0.0000 2629.6414 -10997.1061 294.7863 -13626.7474 -10991.5016 301.9227 -8.8484 -8.7873 431073.3572 1.3694 1.3286
ENERGY: 5000 4.1831 6.2422 3.1832 0.2168 -15326.7175 1642.9525 0.0000 0.0000 2675.8893 -10994.0504 299.9708 -13669.9397 -10990.8063 301.7830 22.5966 22.2501 433841.7493 0.9582 0.9480
TCL: Running FEP window  13: Lambda1 0.25   Lambda2 0.1875 [dLambda -0.0625]
TCL: Setting parameter firsttimestep to 0
TCL: Setting parameter alchLambda to 0.25
Info: NONBONDED TABLE R-SQUARED SPACING: 0.0625
Info: NONBONDED TABLE SIZE: 769 POINTS
TCL: Setting parameter alchLambda2 to 0.1875
Info: NONBONDED TABLE R-SQUARED SPACING: 0.0625
Info: NONBONDED TABLE SIZE: 769 POINTS
TCL: Running for 5000 steps
ETITLE: TS BOND ANGLE DIHED IMPRP ELECT VDW BOUNDARY MISC KINETIC TOTAL TEMP POTENTIAL TOTAL3 TEMPAVG PRESSURE GPRESSURE VOLUME PRESSAVG GPRESSAVG
ENERGY: 0 4.1831 6.2422 3.1832 0.2168 -15326.7175 1643.0852 0.0000 0.0000 2675.8070 -10994.0001 299.9615 -13669.8070 -10988.1256 299.9615 21.9404 21.8393 433841.7493 21.9404 21.8393
ENERGY: 1000 5.1128 5.1355 4.2805 0.4267 -15272.5779 1590.3440 0.0000 0.0000 2690.0452 -10977.2332 301.5577 -13667.2784 -10970.8315 302.1894 -5.5637 -5.6392 431673.6528 1.6341 1.6122
ENERGY: 2000 5.1798 4.5939 1.5260 0.1195 -15391.0476 1653.6058 0.0000 0.0000 2622.5853 -11103.4371 293.9953 -13726.0224 -11100.6775 298.9545 31.4137 32.3729 408057.7984 0.4021 0.4318
ENERGY: 3000 3.4181 6.5337 3.6826 0.1349 -15520.8180 1699.0467 0.0000 0.0000 2700.6871 -11107.3149 302.7506 -13808.0020 -11102.8527 299.4029 50.4281 50.9910 391795.6452 1.4129 1.4079
ENERGY: 4000 2.0722 3.7834 5.2507 0.3512 -15431.2652 1586.4112 0.0000 0.0000 2670.7209 -11162.6757 299.3914 -13833.3966 -11158.7989 298.0998 -54.9773 -54.5325 382837.5340 2.1437 2.1091
ENERGY: 5000 1.7453 5.7831 3.7146 0.3513 -15252.5125 1522.7598 0.0000 0.0000 2630.6964 -11087.4620 294.9046 -13718.1584 -11079.2661 298.6071 -83.3461 -82.8707 375710.1522 2.2714 2.2926
TCL: Running FEP window  14: Lambda1 0.1875 Lambda2 0.125  [dLambda -0.0625]
TCL: Setting parameter firsttimestep to 0
TCL: Setting parameter alchLambda to 0.1875
Info: NONBONDED TABLE R-SQUARED SPACING: 0.0625
Info: NONBONDED TABLE SIZE: 769 POINTS
TCL: Setting parameter alchLambda2 to 0.125
Info: NONBONDED TABLE R-SQUARED SPACING: 0.0625
Info: NONBONDED TABLE SIZE: 769 POINTS
TCL: Running for 5000 steps
ETITLE: TS BOND ANGLE DIHED IMPRP ELECT VDW BOUNDARY MISC KINETIC TOTAL TEMP POTENTIAL TOTAL3 TEMPAVG PRESSURE GPRESSURE VOLUME PRESSAVG GPRESSAVG
ENERGY: 0 1.7453 5.7831 3.7146 0.3513 -15252.5125 1523.0296 0.0000 0.0000 2630.6134 -11087.2752 294.8953 -13717.8886 -11082.2687 294.8953 -82.5292 -82.4685 375710.1522 -82.5292 -82.4685
ENERGY: 1000 3.6292 3.4620 1.5667 0.1254 -15475.4502 1728.4252 0.0000 0.0000 2726.5431 -11011.6985 305.6491 -13738.2416 -11006.3095 302.0624 91.4744 91.2038 372741.7987 1.0803 1.0795
ENERGY: 2000 1.9469 5.8208 7.2695 0.4043 -15335.6920 1599.8215 0.0000 0.0000 2638.5129 -11081.9161 295.7808 -13720.4291 -11076.7637 300.8632 -36.0293 -35.6125 377969.8091 -0.8901 -0.8555
ENERGY: 3000 1.7939 3.7659 2.8558 0.2290 -15396.8970 1702.8875 0.0000 0.0000 2649.0037 -11036.3614 296.9568 -13685.3651 -11028.4728 297.0062 84.6287 84.4357 377224.6820 -0.9252 -0.8799
ENERGY: 4000 1.5168 3.4629 3.2679 0.2644 -15473.9598 1670.0496 0.0000 0.0000 2680.2745 -11115.1237 300.4624 -13795.3982 -11108.3835 299.2686 20.6764 21.3023 375726.5055 3.4557 3.4856
ENERGY: 5000 1.3022 3.2279 3.5496 0.3498 -15288.0228 1552.5264 0.0000 0.0000 2616.5553 -11110.5116 293.3193 -13727.0669 -11105.2873 298.4030 -47.7054 -48.9637 386245.9907 0.4223 0.4075
TCL: Running FEP window  15: Lambda1 0.125  Lambda2 0.0625 [dLambda -0.0625]
TCL: Setting parameter firsttimestep to 0
TCL: Setting parameter alchLambda to 0.125
Info: NONBONDED TABLE R-SQUARED SPACING: 0.0625
Info: NONBONDED TABLE SIZE: 769 POINTS
TCL: Setting parameter alchLambda2 to 0.0625
Info: NONBONDED TABLE R-SQUARED SPACING: 0.0625
Info: NONBONDED TABLE SIZE: 769 POINTS
TCL: Running for 5000 steps
ETITLE: TS BOND ANGLE DIHED IMPRP ELECT VDW BOUNDARY MISC KINETIC TOTAL TEMP POTENTIAL TOTAL3 TEMPAVG PRESSURE GPRESSURE VOLUME PRESSAVG GPRESSAVG
ENERGY: 0 1.3022 3.2279 3.5496 0.3498 -15288.0228 1552.6300 0.0000 0.0000 2616.4750 -11110.4883 293.3103 -13726.9633 -11105.3828 293.3103 -48.9997 -49.0297 386245.9907 -48.9997 -49.0297
ENERGY: 1000 1.8631 7.5364 3.9163 0.3330 -15428.8618 1578.5998 0.0000 0.0000 2616.7095 -11219.9038 293.3366 -13836.6132 -11215.7525 295.0941 -30.0746 -30.3812 392908.8631 0.1420 0.1610
ENERGY: 2000 3.5600 5.4832 2.5927 0.1142 -15566.0550 1707.6322 0.0000 0.0000 2652.0387 -11194.6339 297.2971 -13846.6726 -11190.7400 293.4166 63.4129 63.3727 386633.3262 2.2898 2.3307
ENERGY: 3000 7.3720 10.2485 4.3080 0.1126 -15464.5607 1668.8663 0.0000 0.0000 2683.4945 -11090.1587 300.8233 -13773.6532 -11085.0118 297.3601 14.6862 15.5255 390430.5824 -1.4730 -1.4355
ENERGY: 4000 2.8998 7.5866 1.9016 0.1413 -15492.8958 1655.4248 0.0000 0.0000 2647.1628 -11177.7788 296.7505 -13824.9416 -11173.1527 295.1742 10.0956 10.0190 381405.8549 1.6442 1.6507
ENERGY: 5000 1.7615 5.1532 2.7543 0.1157 -15440.2667 1605.2158 0.0000 0.0000 2598.4081 -11226.8582 291.2850 -13825.2663 -11221.2795 294.2266 -60.7306 -60.1317 379209.5712 1.0397 1.0425
TCL: Running FEP window  16: Lambda1 0.0625 Lambda2 0.0    [dLambda -0.0625]
TCL: Setting parameter firsttimestep to 0
TCL: Setting parameter alchLambda to 0.0625
Info: NONBONDED TABLE R-SQUARED SPACING: 0.0625
Info: NONBONDED TABLE SIZE: 769 POINTS
TCL: Setting parameter alchLambda2 to 0.0
Info: NONBONDED TABLE R-SQUARED SPACING: 0.0625
Info: NONBONDED TABLE SIZE: 769 POINTS
TCL: Running for 5000 steps
ETITLE: TS BOND ANGLE DIHED IMPRP ELECT VDW BOUNDARY MISC KINETIC TOTAL TEMP POTENTIAL TOTAL3 TEMPAVG PRESSURE GPRESSURE VOLUME PRESSAVG GPRESSAVG
ENERGY: 0 1.7615 5.1532 2.7543 0.1157 -15440.2667 1605.3091 0.0000 0.0000 2598.3275 -11226.8455 291.2760 -13825.1730 -11220.9004 291.2760 -60.2024 -60.1390 379209.5712 -60.2024 -60.1390
ENERGY: 1000 1.7372 8.5424 4.7061 0.3947 -15476.5054 1580.1073 0.0000 0.0000 2684.2352 -11196.7826 300.9063 -13881.0178 -11191.4565 295.2776 -14.8026 -14.0139 361602.4612 0.0829 0.1052
ENERGY: 2000 2.0644 3.3813 2.2302 0.2177 -15503.3849 1640.8667 0.0000 0.0000 2642.7884 -11211.8362 296.2601 -13854.6247 -11206.4543 294.1949 19.1226 20.5313 360544.2959 -1.1415 -1.1428
ENERGY: 3000 1.2660 3.8308 4.8625 0.3098 -15620.2389 1644.2096 0.0000 0.0000 2610.2450 -11355.5152 292.6119 -13965.7602 -11350.3953 290.5929 -34.5973 -34.8597 362512.0661 -1.8428 -1.8525
ENERGY: 4000 1.4417 3.9177 3.0079 0.1218 -15690.9955 1731.1207 0.0000 0.0000 2689.2537 -11262.1320 301.4689 -13951.3856 -11257.8158 292.3629 76.9887 76.3825 344003.9047 1.2406 1.2207
ENERGY: 5000 2.5570 6.0029 3.8616 0.3578 -15583.8941 1639.5700 0.0000 0.0000 2669.2484 -11262.2963 299.2263 -13931.5448 -11259.3587 292.4698 -28.8070 -28.7510 347545.9596 0.5136 0.5578
