Info: SIMULATION PARAMETERS:
Info: TIMESTEP               2
Info: NUMBER OF STEPS        0
Info: STEPS PER CYCLE        10
Info: PERIODIC CELL BASIS 1  39.806 0 0
Info: PERIODIC CELL BASIS 2  0 37.835 0
Info: PERIODIC CELL BASIS 3  0 0 42.851
Info: PERIODIC CELL CENTER   0 0 0
Info: WRAPPING WATERS AROUND PERIODIC BOUNDARIES ON OUTPUT.
Info: WRAPPING ALL CLUSTERS AROUND PERIODIC BOUNDARIES ON OUTPUT.
Info: FIRST LDB TIMESTEP     50
Info: LAST LDB TIMESTEP     -1
Info: HOM BACKGROUND SCALING 1
Info: PME BACKGROUND SCALING 1
Info: MIN ATOMS PER PATCH    40
Info: EMPTY PATCH LOAD       40 ATOMS
Info: INITIAL TEMPERATURE    300
Info: CENTER OF MASS MOVING INITIALLY? NO
Info: DIELECTRIC             1
Info: EXCLUDE                SCALED ONE-FOUR
Info: 1-4 ELECTROSTATICS SCALED BY 0.833333
Info: MODIFIED 1-4 VDW PARAMETERS WILL BE USED
Info: DCD FILENAME           mobley_3234716_min.dcd
Info: DCD FREQUENCY          5000
Info: DCD FIRST STEP         5000
Info: DCD FILE WILL CONTAIN UNIT CELL DATA
Info: XST FILENAME           mobley_3234716_min.xst
Info: XST FREQUENCY          5000
Info: NO VELOCITY DCD OUTPUT
Info: NO FORCE DCD OUTPUT
Info: OUTPUT FILENAME        mobley_3234716_min
Info: BINARY OUTPUT FILES WILL BE USED
Info: RESTART FILENAME       mobley_3234716_min.restart
Info: RESTART FREQUENCY      5000
Info: BINARY RESTART FILES WILL BE USED
Info: CUTOFF                 9
Info: PAIRLIST DISTANCE      11
Info: PAIRLIST SHRINK RATE   0.01
Info: PAIRLIST GROW RATE     0.01
Info: PAIRLIST TRIGGER       0.3
Info: PAIRLISTS PER CYCLE    2
Info: PAIRLISTS ENABLED
Info: MARGIN                 8
Info: HYDROGEN GROUP CUTOFF  2.5
Info: PATCH DIMENSION        21.5
Info: ENERGY OUTPUT STEPS    5000
Info: ENERGY EVALUATION STEPS    5000
Info: OUTPUT ENERGY PRECISION 4
Info: CROSSTERM ENERGY INCLUDED IN DIHEDRAL
Info: TIMING OUTPUT STEPS    50000
Info: PRESSURE OUTPUT STEPS  5000
Info: LANGEVIN DYNAMICS ACTIVE
Info: LANGEVIN TEMPERATURE   300
Info: LANGEVIN USING BBK INTEGRATOR
Info: LANGEVIN DAMPING COEFFICIENT IS 1 INVERSE PS
Info: LANGEVIN DYNAMICS APPLIED TO HYDROGENS
Info: LANGEVIN PISTON PRESSURE CONTROL ACTIVE
Info:        TARGET PRESSURE IS 1.01325 BAR
Info:     OSCILLATION PERIOD IS 50 FS
Info:             DECAY TIME IS 25 FS
Info:     PISTON TEMPERATURE IS 300 K
Info:       PRESSURE CONTROL IS GROUP-BASED
Info:    INITIAL STRAIN RATE IS 0 0 0
Info:       CELL FLUCTUATION IS ISOTROPIC
Info: PARTICLE MESH EWALD (PME) ACTIVE
Info: PME TOLERANCE               1e-06
Info: PME EWALD COEFFICIENT       0.348832
Info: PME INTERPOLATION ORDER     4
Info: PME GRID DIMENSIONS         40 40 44
Info: PME MAXIMUM GRID SPACING    1
Info: FULL ELECTROSTATIC EVALUATION FREQUENCY      2
Info: USING VERLET I (r-RESPA) MTS SCHEME.
Info: C1 SPLITTING OF LONG RANGE ELECTROSTATICS
Info: PLACING ATOMS IN PATCHES BY HYDROGEN GROUPS
Info: RIGID BONDS TO HYDROGEN : ALL
Info:         ERROR TOLERANCE : 1e-08
Info:          MAX ITERATIONS : 100
Info: RIGID WATER USING SETTLE ALGORITHM
Info: RANDOM NUMBER SEED     1741322131
Info: USE HYDROGEN BONDS?    NO
Info: Using AMBER format force field!
Info: AMBER PARM FILE        mobley_3234716.prmtop
Info: COORDINATE PDB         mobley_3234716.pdb
Info: Exclusions will be read from PARM file!
Info: SCNB (VDW SCALING)     2
Info: USING ARITHMETIC MEAN TO COMBINE L-J SIGMA PARAMETERS
Info: SUMMARY OF PARAMETERS:
Info: 6 BONDS
Info: 5 ANGLES
Info:   5 HARMONIC
Info:   0 COSINE-BASED
Info: 3 DIHEDRAL
Info: 0 IMPROPER
Info: 0 CROSSTERM
Info: 0 VDW
Info: 21 VDW_PAIRS
Info: 0 NBTHOLE_PAIRS
Info: STRUCTURE SUMMARY:
Info: 4644 ATOMS
Info: 4644 BONDS
Info: 30 ANGLES
Info: 42 DIHEDRALS
Info: 0 IMPROPERS
Info: 0 CROSSTERMS
Info: 4707 EXCLUSIONS
Info: 4636 RIGID BONDS
Info: 9296 DEGREES OF FREEDOM
Info: 1550 HYDROGEN GROUPS
Info: 4 ATOMS IN LARGEST HYDROGEN GROUP
Info: 1550 MIGRATION GROUPS
Info: 4 ATOMS IN LARGEST MIGRATION GROUP
Info: TOTAL MASS = 27886.8 amu
Info: TOTAL CHARGE = 0.000100061 e
Info: MASS DENSITY = 0.717555 g/cm^3
Info: ATOM DENSITY = 0.0719596 atoms/A^3
Info: ADDED 0 IMPLICIT EXCLUSIONS
Info: NONBONDED TABLE R-SQUARED SPACING: 0.0625
Info: NONBONDED TABLE SIZE: 705 POINTS
Info: REMOVING COM VELOCITY -0.117535 -0.170881 -0.142861
TCL: Minimizing for 2000 steps
ETITLE: TS BOND ANGLE DIHED IMPRP ELECT VDW BOUNDARY MISC KINETIC TOTAL TEMP POTENTIAL TOTAL3 TEMPAVG PRESSURE GPRESSURE VOLUME PRESSAVG GPRESSAVG
ENERGY: 0 0.2962 0.1544 0.0002 0.0000 -14411.1809 1667.0881 0.0000 0.0000 0.0000 -12743.6420 0.0000 -12743.6420 -12743.6420 0.0000 11202.1974 -15504.8021 64536.1775 11202.1974 -15504.8021
ENERGY: 400 3.8252 2.5642 0.1058 0.0000 -19345.2194 2840.1415 0.0000 0.0000 0.0000 -16498.5828 0.0000 -16498.5828 -16498.5828 0.0000 15699.6154 15224.0652 64536.1775 15699.6154 15224.0652
ENERGY: 800 6.1329 2.1305 0.3764 0.0000 -20389.8188 3260.8387 0.0000 0.0000 0.0000 -17120.3404 0.0000 -17120.3404 -17120.3404 0.0000 17764.2887 17142.0065 64536.1775 17764.2887 17142.0065
ENERGY: 1200 6.5614 3.4275 0.4888 0.0000 -20866.7314 3495.5239 0.0000 0.0000 0.0000 -17360.7297 0.0000 -17360.7297 -17360.7297 0.0000 18985.8275 18397.8157 64536.1775 18985.8275 18397.8157
ENERGY: 1600 1.3803 0.7345 0.0505 0.0000 -21065.7188 3582.4499 0.0000 0.0000 0.0000 -17481.1037 0.0000 -17481.1037 -17481.1037 0.0000 19474.1049 18896.7078 64536.1775 19474.1049 18896.7078
ENERGY: 2000 0.6283 0.4362 0.0743 0.0000 -21209.1333 3658.4719 0.0000 0.0000 0.0000 -17549.5226 0.0000 -17549.5226 -17549.5226 0.0000 19883.6991 19384.7546 64536.1775 19883.6991 19384.7546
TCL: Exiting due to exit command.
Info: NAMD 3.0.1 for Linux-x86_64-multicore
Info: Please visit http://www.ks.uiuc.edu/Research/namd/
Info: for updates, documentation, and support information.
Info: Please cite Phillips et al., J. Chem. Phys. 153:044130 (2020) doi:10.1063/5.0014475
Info: in all publications reporting results obtained with NAMD.
Info: Based on Charm++/Converse 80000 for multicore-linux-x86_64-gcc
Info: Built Mon Oct 14 11:11:06 CDT 2024 by dhardy on athine.ks.uiuc.edu
Info: 1 NAMD  3.0.1  Linux-x86_64-multicore  16    k014  z5358697
Info: Running on 16 processors, 1 nodes, 1 physical nodes.
Info: CPU topology information available.
Info: Charm++/Converse parallel runtime startup completed at 0.00996356 s
Info: 1043.45 MB of memory in use based on /proc/self/stat
Info: Configuration file is mobley_3234716_equil.namd
Info: Working in the current directory /srv/scratch/z5358697/prod_prep_3/3234716
TCL: Running 25000 steps at 30 kelvin.
TCL: Suspending until startup complete.
Info: SIMULATION PARAMETERS:
Info: TIMESTEP               2
Info: NUMBER OF STEPS        0
Info: STEPS PER CYCLE        10
Info: PERIODIC CELL BASIS 1  39.806 0 0
Info: PERIODIC CELL BASIS 2  0 37.835 0
Info: PERIODIC CELL BASIS 3  0 0 42.851
Info: PERIODIC CELL CENTER   0 0 0
Info: WRAPPING WATERS AROUND PERIODIC BOUNDARIES ON OUTPUT.
Info: WRAPPING ALL CLUSTERS AROUND PERIODIC BOUNDARIES ON OUTPUT.
Info: FIRST LDB TIMESTEP     50
Info: LAST LDB TIMESTEP     -1
Info: HOM BACKGROUND SCALING 1
Info: PME BACKGROUND SCALING 1
Info: MIN ATOMS PER PATCH    40
Info: EMPTY PATCH LOAD       40 ATOMS
Info: INITIAL TEMPERATURE    300
Info: CENTER OF MASS MOVING INITIALLY? NO
Info: DIELECTRIC             1
Info: EXCLUDE                SCALED ONE-FOUR
Info: 1-4 ELECTROSTATICS SCALED BY 0.833333
Info: MODIFIED 1-4 VDW PARAMETERS WILL BE USED
Info: DCD FILENAME           mobley_3234716_equil.dcd
Info: DCD FREQUENCY          5000
Info: DCD FIRST STEP         5000
Info: DCD FILE WILL CONTAIN UNIT CELL DATA
Info: XST FILENAME           mobley_3234716_equil.xst
Info: XST FREQUENCY          5000
Info: NO VELOCITY DCD OUTPUT
Info: NO FORCE DCD OUTPUT
Info: OUTPUT FILENAME        mobley_3234716_equil
Info: BINARY OUTPUT FILES WILL BE USED
Info: RESTART FILENAME       mobley_3234716_equil.restart
Info: RESTART FREQUENCY      5000
Info: BINARY RESTART FILES WILL BE USED
Info: CUTOFF                 9
Info: PAIRLIST DISTANCE      11
Info: PAIRLIST SHRINK RATE   0.01
Info: PAIRLIST GROW RATE     0.01
Info: PAIRLIST TRIGGER       0.3
Info: PAIRLISTS PER CYCLE    2
Info: PAIRLISTS ENABLED
Info: MARGIN                 8
Info: HYDROGEN GROUP CUTOFF  2.5
Info: PATCH DIMENSION        21.5
Info: ENERGY OUTPUT STEPS    5000
Info: ENERGY EVALUATION STEPS    5000
Info: OUTPUT ENERGY PRECISION 4
Info: CROSSTERM ENERGY INCLUDED IN DIHEDRAL
Info: TIMING OUTPUT STEPS    50000
Info: PRESSURE OUTPUT STEPS  5000
Info: LANGEVIN DYNAMICS ACTIVE
Info: LANGEVIN TEMPERATURE   30
Info: LANGEVIN USING BBK INTEGRATOR
Info: LANGEVIN DAMPING COEFFICIENT IS 1 INVERSE PS
Info: LANGEVIN DYNAMICS APPLIED TO HYDROGENS
Info: LANGEVIN PISTON PRESSURE CONTROL ACTIVE
Info:        TARGET PRESSURE IS 1.01325 BAR
Info:     OSCILLATION PERIOD IS 50 FS
Info:             DECAY TIME IS 25 FS
Info:     PISTON TEMPERATURE IS 300 K
Info:       PRESSURE CONTROL IS GROUP-BASED
Info:    INITIAL STRAIN RATE IS 0 0 0
Info:       CELL FLUCTUATION IS ISOTROPIC
Info: PARTICLE MESH EWALD (PME) ACTIVE
Info: PME TOLERANCE               1e-06
Info: PME EWALD COEFFICIENT       0.348832
Info: PME INTERPOLATION ORDER     4
Info: PME GRID DIMENSIONS         40 40 44
Info: PME MAXIMUM GRID SPACING    1
Info: FULL ELECTROSTATIC EVALUATION FREQUENCY      2
Info: USING VERLET I (r-RESPA) MTS SCHEME.
Info: C1 SPLITTING OF LONG RANGE ELECTROSTATICS
Info: PLACING ATOMS IN PATCHES BY HYDROGEN GROUPS
Info: RIGID BONDS TO HYDROGEN : ALL
Info:         ERROR TOLERANCE : 1e-08
Info:          MAX ITERATIONS : 100
Info: RIGID WATER USING SETTLE ALGORITHM
Info: RANDOM NUMBER SEED     1741322144
Info: USE HYDROGEN BONDS?    NO
Info: Using AMBER format force field!
Info: AMBER PARM FILE        mobley_3234716.prmtop
Info: COORDINATE PDB         mobley_3234716.pdb
Info: Exclusions will be read from PARM file!
Info: SCNB (VDW SCALING)     2
Info: USING ARITHMETIC MEAN TO COMBINE L-J SIGMA PARAMETERS
Info: BINARY COORDINATES     mobley_3234716_min.coor
Info: SUMMARY OF PARAMETERS:
Info: 6 BONDS
Info: 5 ANGLES
Info:   5 HARMONIC
Info:   0 COSINE-BASED
Info: 3 DIHEDRAL
Info: 0 IMPROPER
Info: 0 CROSSTERM
Info: 0 VDW
Info: 21 VDW_PAIRS
Info: 0 NBTHOLE_PAIRS
Info: STRUCTURE SUMMARY:
Info: 4644 ATOMS
Info: 4644 BONDS
Info: 30 ANGLES
Info: 42 DIHEDRALS
Info: 0 IMPROPERS
Info: 0 CROSSTERMS
Info: 4707 EXCLUSIONS
Info: 4636 RIGID BONDS
Info: 9296 DEGREES OF FREEDOM
Info: 1550 HYDROGEN GROUPS
Info: 4 ATOMS IN LARGEST HYDROGEN GROUP
Info: 1550 MIGRATION GROUPS
Info: 4 ATOMS IN LARGEST MIGRATION GROUP
Info: TOTAL MASS = 27886.8 amu
Info: TOTAL CHARGE = 0.000100061 e
Info: MASS DENSITY = 0.717555 g/cm^3
Info: ATOM DENSITY = 0.0719596 atoms/A^3
Info: ADDED 0 IMPLICIT EXCLUSIONS
Info: NONBONDED TABLE R-SQUARED SPACING: 0.0625
Info: NONBONDED TABLE SIZE: 705 POINTS
Info: REMOVING COM VELOCITY 0.107626 0.0486028 0.00425842
TCL: Running for 25000 steps
ETITLE: TS BOND ANGLE DIHED IMPRP ELECT VDW BOUNDARY MISC KINETIC TOTAL TEMP POTENTIAL TOTAL3 TEMPAVG PRESSURE GPRESSURE VOLUME PRESSAVG GPRESSAVG
ENERGY: 0 0.6283 0.4362 0.0743 0.0000 -21209.1333 3658.4719 0.0000 0.0000 2781.8042 -14767.7184 301.1763 -17549.5226 -14767.1187 301.1763 241.5495 276.9585 64536.1775 241.5495 276.9585
ENERGY: 5000 0.4598 0.8549 0.3427 0.0000 -22295.6565 3863.2499 0.0000 0.0000 277.4777 -18153.2715 30.0415 -18430.7491 -18152.5259 48.1666 -7.9730 32.5158 45190.8919 2.4958 2.1640
ENERGY: 10000 0.1924 0.7795 0.2599 0.0000 -22310.9146 3858.0132 0.0000 0.0000 277.5911 -18174.0786 30.0538 -18451.6696 -18173.2865 29.9738 -52.5487 2.4100 45007.2369 3.3522 3.3281
ENERGY: 15000 0.7604 1.2488 0.4623 0.0000 -22297.6447 3830.2705 0.0000 0.0000 280.6955 -18184.2071 30.3899 -18464.9027 -18183.2136 30.1748 -298.5188 -223.4430 45012.0306 2.6111 2.6377
ENERGY: 20000 0.2420 0.6818 0.6017 0.0000 -22371.0707 3892.1111 0.0000 0.0000 273.1363 -18204.2978 29.5715 -18477.4340 -18203.6223 29.9491 89.5970 142.4380 44954.5043 0.7012 0.5523
ENERGY: 25000 0.1388 0.7007 0.2602 0.0000 -22407.0356 3924.7978 0.0000 0.0000 269.5400 -18211.5980 29.1822 -18481.1380 -18210.8945 30.1758 227.4154 270.6493 44927.9720 3.6603 3.7741
TCL: Running 25000 steps at 60 kelvin.
TCL: Setting parameter langevinTemp to 60
TCL: Running for 25000 steps
ETITLE: TS BOND ANGLE DIHED IMPRP ELECT VDW BOUNDARY MISC KINETIC TOTAL TEMP POTENTIAL TOTAL3 TEMPAVG PRESSURE GPRESSURE VOLUME PRESSAVG GPRESSAVG
ENERGY: 25000 0.1388 0.7007 0.2602 0.0000 -22407.0356 3924.7978 0.0000 0.0000 269.4011 -18211.7368 29.1671 -18481.1380 -18211.2251 29.1671 215.2380 270.8469 44927.9720 215.2380 270.8469
ENERGY: 30000 0.5087 1.8491 0.5972 0.0000 -21810.4266 3586.8393 0.0000 0.0000 560.7421 -17659.8902 60.7096 -18220.6323 -17658.4660 57.3065 -976.6092 -902.9303 45492.5557 0.1315 0.3271
ENERGY: 35000 1.0248 1.2850 0.4725 0.0000 -21942.9320 3703.6899 0.0000 0.0000 544.9325 -17691.5274 58.9980 -18236.4599 -17690.3200 60.2091 -250.4683 -228.7591 45123.3636 -2.4419 -2.2280
ENERGY: 40000 0.6833 0.9031 0.3831 0.0000 -21965.1430 3690.1923 0.0000 0.0000 564.8244 -17708.1569 61.1516 -18272.9813 -17706.0169 60.3705 -522.7876 -475.1470 45234.2004 0.2523 0.3062
ENERGY: 45000 0.5023 1.3692 0.1845 0.0000 -22166.7381 3857.0395 0.0000 0.0000 555.2846 -17752.3580 60.1187 -18307.6426 -17750.8529 60.2169 371.8197 421.9206 44921.6356 3.3088 3.0313
ENERGY: 50000 0.5739 1.0701 0.5039 0.0000 -22158.2705 3825.3332 0.0000 0.0000 542.0783 -17788.7111 58.6889 -18330.7894 -17786.6699 59.7271 125.3313 158.5798 44959.5395 4.2044 4.2407
TCL: Running 25000 steps at 90 kelvin.
TCL: Setting parameter langevinTemp to 90
TCL: Running for 25000 steps
ETITLE: TS BOND ANGLE DIHED IMPRP ELECT VDW BOUNDARY MISC KINETIC TOTAL TEMP POTENTIAL TOTAL3 TEMPAVG PRESSURE GPRESSURE VOLUME PRESSAVG GPRESSAVG
ENERGY: 50000 0.5739 1.0701 0.5039 0.0000 -22158.2705 3825.3332 0.0000 0.0000 541.8061 -17788.9832 58.6595 -18330.7894 -17788.0371 58.6595 98.2124 158.6820 44959.5395 98.2124 158.6820
ENERGY: 55000 1.0124 1.7805 0.7509 0.0000 -21660.8445 3625.9804 0.0000 0.0000 829.0500 -17202.2702 89.7584 -18031.3202 -17198.9747 86.9431 -309.6632 -246.1629 45454.9090 6.8757 7.0345
ENERGY: 60000 0.5782 1.1719 0.5087 0.0000 -21722.2709 3640.0554 0.0000 0.0000 838.6852 -17241.2715 90.8015 -18079.9566 -17238.7013 90.0923 -286.0140 -228.1462 45326.3303 6.1500 6.1463
ENERGY: 65000 0.6921 1.4425 1.0855 0.0000 -21618.2006 3525.1735 0.0000 0.0000 815.2431 -17274.5638 88.2636 -18089.8070 -17272.7073 90.3636 -1064.9815 -996.3361 45626.7022 4.3472 4.7739
ENERGY: 70000 0.3661 2.5590 0.6830 0.0000 -21853.8742 3731.9811 0.0000 0.0000 833.5746 -17284.7104 90.2482 -18118.2850 -17282.3989 90.1436 73.8007 149.6931 45177.9695 8.2923 8.3828
ENERGY: 75000 0.3936 1.6202 0.4399 0.0000 -21796.6882 3648.0205 0.0000 0.0000 849.7971 -17296.4168 92.0046 -18146.2139 -17293.8044 90.8305 -444.9212 -379.7664 45313.3197 0.2931 0.2461
TCL: Running 25000 steps at 120 kelvin.
TCL: Setting parameter langevinTemp to 120
TCL: Running for 25000 steps
ETITLE: TS BOND ANGLE DIHED IMPRP ELECT VDW BOUNDARY MISC KINETIC TOTAL TEMP POTENTIAL TOTAL3 TEMPAVG PRESSURE GPRESSURE VOLUME PRESSAVG GPRESSAVG
ENERGY: 75000 0.3936 1.6202 0.4399 0.0000 -21796.6882 3648.0205 0.0000 0.0000 849.3721 -17296.8418 91.9586 -18146.2139 -17295.0933 91.9586 -439.5634 -379.3390 45313.3197 -439.5634 -379.3390
ENERGY: 80000 1.9279 1.6305 1.4154 0.0000 -21397.6951 3513.5635 0.0000 0.0000 1129.1605 -16749.9973 122.2503 -17879.1578 -16747.5699 117.0438 -487.3007 -447.2306 45414.5960 4.8500 5.1040
ENERGY: 85000 1.0424 2.6492 0.8077 0.0000 -21430.1789 3544.8890 0.0000 0.0000 1107.0023 -16773.7884 119.8513 -17880.7906 -16771.3208 120.2378 -386.0121 -347.8070 45628.7386 4.1250 4.2828
ENERGY: 90000 0.6303 2.9914 0.7476 0.0000 -21603.2170 3649.8868 0.0000 0.0000 1114.0090 -16834.9518 120.6099 -17948.9608 -16831.7301 119.8057 152.3501 217.2479 45067.2745 2.5399 2.1893
ENERGY: 95000 0.5466 2.5646 0.5893 0.0000 -21536.6188 3623.7169 0.0000 0.0000 1112.6043 -16796.5971 120.4578 -17909.2014 -16793.2172 120.3822 36.1622 111.3231 45123.4095 7.4000 7.0673
ENERGY: 100000 0.8491 2.4777 0.5850 0.0000 -21588.4563 3600.0386 0.0000 0.0000 1111.5211 -16872.9848 120.3406 -17984.5060 -16869.7486 121.0172 -276.6990 -192.0901 45326.6314 5.0129 5.1684
TCL: Running 25000 steps at 150 kelvin.
TCL: Setting parameter langevinTemp to 150
TCL: Running for 25000 steps
ETITLE: TS BOND ANGLE DIHED IMPRP ELECT VDW BOUNDARY MISC KINETIC TOTAL TEMP POTENTIAL TOTAL3 TEMPAVG PRESSURE GPRESSURE VOLUME PRESSAVG GPRESSAVG
ENERGY: 100000 0.8491 2.4777 0.5850 0.0000 -21588.4563 3600.0386 0.0000 0.0000 1110.9433 -16873.5627 120.2780 -17984.5060 -16871.2210 120.2780 -249.6250 -192.4660 45326.6314 -249.6250 -192.4660
ENERGY: 105000 1.5857 2.5646 0.6145 0.0000 -20993.2773 3417.0266 0.0000 0.0000 1361.0814 -16210.4044 147.3596 -17571.4858 -16206.4728 146.4819 -434.2789 -359.8952 45714.4611 3.8959 3.4561
ENERGY: 110000 2.0926 4.6153 1.7129 0.0000 -21388.9905 3695.9305 0.0000 0.0000 1385.6267 -16299.0125 150.0170 -17684.6392 -16296.1154 150.9008 987.4751 1058.7887 44995.1090 2.9103 2.8966
ENERGY: 115000 0.7073 1.9059 2.2485 0.0000 -21213.7081 3557.0860 0.0000 0.0000 1390.1226 -16261.6378 150.5038 -17651.7604 -16258.4404 150.0894 354.5451 444.1485 44987.7042 1.9991 2.2040
ENERGY: 120000 1.0400 2.5916 1.7812 0.0000 -21197.4160 3534.8022 0.0000 0.0000 1376.1760 -16281.0251 148.9938 -17657.2010 -16277.1942 150.0560 305.0209 365.4208 44926.6688 4.7459 5.1189
ENERGY: 125000 2.4133 2.4283 0.9667 0.0000 -21282.6456 3684.9867 0.0000 0.0000 1383.1712 -16208.6793 149.7512 -17591.8505 -16205.0858 150.9138 1255.2667 1312.8113 44735.7698 6.9879 7.4438
TCL: Running 50000 steps at 180 kelvin.
TCL: Setting parameter langevinTemp to 180
TCL: Running for 50000 steps
ETITLE: TS BOND ANGLE DIHED IMPRP ELECT VDW BOUNDARY MISC KINETIC TOTAL TEMP POTENTIAL TOTAL3 TEMPAVG PRESSURE GPRESSURE VOLUME PRESSAVG GPRESSAVG
ENERGY: 125000 2.4133 2.4283 0.9667 0.0000 -21282.6456 3684.9867 0.0000 0.0000 1382.4808 -16209.3697 149.6764 -17591.8505 -16207.3165 149.6764 1257.5617 1313.6462 44735.7698 1257.5617 1313.6462
ENERGY: 135000 0.9623 5.8573 0.9309 0.0000 -20690.1470 3411.6838 0.0000 0.0000 1644.5519 -15626.1607 178.0499 -17270.7126 -15622.0148 179.4282 542.3639 658.4305 45027.1946 6.3333 5.8253
ENERGY: 145000 1.8408 3.1784 0.8096 0.0000 -20643.2885 3349.0725 0.0000 0.0000 1639.6600 -15648.7272 177.5203 -17288.3872 -15646.2281 180.2299 32.9553 103.2721 45422.9831 4.2185 4.1295
ENERGY: 155000 1.4474 3.8179 1.6383 0.0000 -20627.2446 3340.4418 0.0000 0.0000 1635.0858 -15644.8135 177.0251 -17279.8992 -15641.4853 180.2543 100.9261 169.8188 45242.5826 2.4457 2.4667
ENERGY: 165000 1.8102 4.9109 0.3538 0.0000 -20618.4164 3336.4857 0.0000 0.0000 1668.3535 -15606.5022 180.6269 -17274.8557 -15603.3895 180.3544 33.8714 40.5226 45571.5558 3.0180 3.0579
ENERGY: 175000 0.8127 3.2427 1.6521 0.0000 -20547.2145 3327.7907 0.0000 0.0000 1632.7925 -15580.9238 176.7768 -17213.7162 -15577.2862 179.7037 -75.8819 7.7575 45807.5868 8.2851 8.3287
TCL: Running 50000 steps at 210 kelvin.
TCL: Setting parameter langevinTemp to 210
TCL: Running for 50000 steps
ETITLE: TS BOND ANGLE DIHED IMPRP ELECT VDW BOUNDARY MISC KINETIC TOTAL TEMP POTENTIAL TOTAL3 TEMPAVG PRESSURE GPRESSURE VOLUME PRESSAVG GPRESSAVG
ENERGY: 175000 0.8127 3.2427 1.6521 0.0000 -20547.2145 3327.7907 0.0000 0.0000 1631.9605 -15581.7558 176.6867 -17213.7162 -15578.8871 176.6867 -45.3069 8.3573 45807.5868 -45.3069 8.3573
ENERGY: 185000 0.7870 4.2025 3.7028 0.0000 -19700.0890 3075.1931 0.0000 0.0000 1931.7968 -14684.4068 209.1490 -16616.2036 -14682.9607 210.6520 361.8690 468.9717 45215.4691 0.8258 0.8575
ENERGY: 195000 1.0476 4.4102 2.9396 0.0000 -19478.7083 2875.9171 0.0000 0.0000 1983.0935 -14611.3003 214.7027 -16594.3938 -14604.5900 210.7422 -594.5838 -473.1491 45122.6076 1.6150 1.7115
ENERGY: 205000 1.3174 2.0331 2.7419 0.0000 -19776.4334 3142.1946 0.0000 0.0000 1916.0579 -14712.0886 207.4450 -16628.1464 -14708.1302 208.9833 610.8453 649.9255 45010.7245 0.7009 0.0634
ENERGY: 215000 1.4287 2.0743 0.5905 0.0000 -19567.0984 2962.3341 0.0000 0.0000 1954.4332 -14646.2375 211.5997 -16600.6708 -14640.2031 209.5672 -295.3411 -204.4228 45289.6497 2.1334 1.1549
ENERGY: 225000 2.1597 4.0060 3.3436 0.0000 -19514.1157 2966.3047 0.0000 0.0000 1933.0342 -14605.2675 209.2829 -16538.3017 -14601.7980 209.7228 -144.3137 -14.4421 45513.0521 -2.4780 -2.5617
TCL: Running 50000 steps at 240 kelvin.
TCL: Setting parameter langevinTemp to 240
TCL: Running for 50000 steps
ETITLE: TS BOND ANGLE DIHED IMPRP ELECT VDW BOUNDARY MISC KINETIC TOTAL TEMP POTENTIAL TOTAL3 TEMPAVG PRESSURE GPRESSURE VOLUME PRESSAVG GPRESSAVG
ENERGY: 225000 2.1597 4.0060 3.3436 0.0000 -19514.1157 2966.3047 0.0000 0.0000 1932.0666 -14606.2352 209.1782 -16538.3017 -14602.7522 209.1782 -92.9332 -14.8753 45513.0521 -92.9332 -14.8753
ENERGY: 235000 3.3834 3.7083 5.1995 0.0000 -18485.1169 2619.2732 0.0000 0.0000 2171.2914 -13682.2611 235.0782 -15853.5525 -13678.7357 240.4065 -510.1653 -451.6542 46018.9379 -0.4486 -0.0670
ENERGY: 245000 2.2273 2.8286 2.4464 0.0000 -18443.5230 2573.0479 0.0000 0.0000 2239.7550 -13623.2179 242.4905 -15862.9728 -13617.1781 239.9870 -676.5563 -561.8332 45667.9460 -1.5039 -1.9012
ENERGY: 255000 1.3311 3.5868 2.9138 0.0000 -18464.1182 2627.4980 0.0000 0.0000 2251.6881 -13577.1004 243.7825 -15828.7886 -13570.2202 241.0620 -305.6685 -262.2329 45879.6089 5.4670 4.6479
ENERGY: 265000 2.8279 4.0131 3.3122 0.0000 -18604.9375 2775.3748 0.0000 0.0000 2204.8516 -13614.5580 238.7117 -15819.4096 -13609.3006 243.1108 548.3517 645.5801 45486.2843 -0.5375 -0.4086
ENERGY: 275000 2.0125 2.4122 1.1109 0.0000 -18581.9738 2764.2097 0.0000 0.0000 2220.8397 -13591.3887 240.4426 -15812.2284 -13586.1754 239.2151 321.8080 373.7057 45854.0167 3.1674 3.3393
TCL: Running 50000 steps at 270 kelvin.
TCL: Setting parameter langevinTemp to 270
TCL: Running for 50000 steps
ETITLE: TS BOND ANGLE DIHED IMPRP ELECT VDW BOUNDARY MISC KINETIC TOTAL TEMP POTENTIAL TOTAL3 TEMPAVG PRESSURE GPRESSURE VOLUME PRESSAVG GPRESSAVG
ENERGY: 275000 2.0125 2.4122 1.1109 0.0000 -18581.9738 2764.2097 0.0000 0.0000 2219.7706 -13592.4578 240.3269 -15812.2284 -13588.5209 240.3269 278.3672 372.8803 45854.0167 278.3672 372.8803
ENERGY: 285000 0.7612 4.3583 1.6147 0.0000 -17549.4902 2390.0921 0.0000 0.0000 2462.8500 -12689.8139 266.6443 -15152.6639 -12685.6268 268.9570 -357.5195 -234.0382 46698.6144 1.2935 0.8458
ENERGY: 295000 3.0420 4.2943 1.6074 0.0000 -17604.9707 2435.8782 0.0000 0.0000 2466.2784 -12693.8705 267.0154 -15160.1489 -12689.4306 271.3092 -24.3027 32.6048 46296.6950 -0.6782 -1.0011
ENERGY: 305000 2.1141 3.1575 1.4237 0.0000 -17559.9980 2361.8049 0.0000 0.0000 2509.4070 -12682.0908 271.6848 -15191.4979 -12676.2814 269.2759 -649.7797 -537.2819 46937.5668 1.7897 1.9929
ENERGY: 315000 3.6015 4.8356 1.7649 0.0000 -17583.1781 2341.6639 0.0000 0.0000 2462.4267 -12768.8856 266.5984 -15231.3123 -12764.8257 269.4576 -820.0431 -683.2996 46446.5834 0.1407 0.0514
ENERGY: 325000 1.4011 5.6874 5.8431 0.0000 -17696.0852 2452.0013 0.0000 0.0000 2552.4876 -12678.6646 276.3490 -15231.1522 -12670.5591 268.6007 -222.4413 -147.2175 46630.6948 3.4403 3.1913
TCL: Running 1000000 steps at 300 kelvin.
TCL: Setting parameter langevinTemp to 300
TCL: Running for 1000000 steps
ETITLE: TS BOND ANGLE DIHED IMPRP ELECT VDW BOUNDARY MISC KINETIC TOTAL TEMP POTENTIAL TOTAL3 TEMPAVG PRESSURE GPRESSURE VOLUME PRESSAVG GPRESSAVG
ENERGY: 325000 1.4011 5.6874 5.8431 0.0000 -17696.0852 2452.0013 0.0000 0.0000 2551.2074 -12679.9448 276.2104 -15231.1522 -12675.6409 276.2104 -227.1913 -144.8859 46630.6948 -227.1913 -144.8859
ENERGY: 525000 2.0411 6.2746 2.4347 0.0000 -16889.0948 2308.3179 0.0000 0.0000 2751.9618 -11818.0647 297.9454 -14570.0265 -11814.1889 299.3293 322.9702 456.7607 47356.6228 2.9352 3.2076
ENERGY: 725000 1.5792 4.2689 1.8468 0.0000 -16894.1925 2307.6915 0.0000 0.0000 2747.3502 -11831.4559 297.4461 -14578.8061 -11827.7128 300.3618 111.1436 224.8209 47867.2028 4.7082 4.6558
ENERGY: 925000 2.5612 5.4466 2.4604 0.0000 -16938.2686 2293.8291 0.0000 0.0000 2803.9761 -11829.9952 303.5768 -14633.9713 -11825.7187 300.2611 144.0164 202.4811 47472.8519 4.1531 4.1563
ENERGY: 1125000 1.7099 7.6617 2.4901 0.0000 -16701.7050 2202.2393 0.0000 0.0000 2863.1762 -11624.4278 309.9862 -14487.6040 -11618.6568 302.2346 -298.9759 -215.6312 48442.9175 -0.6316 -1.2584
ENERGY: 1325000 1.8908 6.8090 2.4966 0.0000 -16986.6258 2319.2740 0.0000 0.0000 2823.7249 -11832.4305 305.7149 -14656.1554 -11829.5546 301.2784 107.7947 208.6063 47820.3205 8.1265 7.4382
TCL: Exiting due to exit command.
