Info: SIMULATION PARAMETERS:
Info: TIMESTEP               2
Info: NUMBER OF STEPS        0
Info: STEPS PER CYCLE        10
Info: PERIODIC CELL BASIS 1  36.592 0 0
Info: PERIODIC CELL BASIS 2  0 34.26 0
Info: PERIODIC CELL BASIS 3  0 0 35.723
Info: PERIODIC CELL CENTER   0 0 0
Info: WRAPPING WATERS AROUND PERIODIC BOUNDARIES ON OUTPUT.
Info: WRAPPING ALL CLUSTERS AROUND PERIODIC BOUNDARIES ON OUTPUT.
Info: FIRST LDB TIMESTEP     50
Info: LAST LDB TIMESTEP     -1
Info: HOM BACKGROUND SCALING 1
Info: PME BACKGROUND SCALING 1
Info: MIN ATOMS PER PATCH    40
Info: EMPTY PATCH LOAD       40 ATOMS
Info: INITIAL TEMPERATURE    300
Info: CENTER OF MASS MOVING INITIALLY? NO
Info: DIELECTRIC             1
Info: EXCLUDE                SCALED ONE-FOUR
Info: 1-4 ELECTROSTATICS SCALED BY 0.833333
Info: MODIFIED 1-4 VDW PARAMETERS WILL BE USED
Info: DCD FILENAME           mobley_4553008_equil.dcd
Info: DCD FREQUENCY          100000
Info: DCD FIRST STEP         100000
Info: DCD FILE WILL CONTAIN UNIT CELL DATA
Info: XST FILENAME           mobley_4553008_equil.xst
Info: XST FREQUENCY          100000
Info: NO VELOCITY DCD OUTPUT
Info: NO FORCE DCD OUTPUT
Info: OUTPUT FILENAME        mobley_4553008_equil
Info: BINARY OUTPUT FILES WILL BE USED
Info: RESTART FILENAME       mobley_4553008_equil.restart
Info: RESTART FREQUENCY      100000
Info: BINARY RESTART FILES WILL BE USED
Info: CUTOFF                 9
Info: PAIRLIST DISTANCE      11
Info: PAIRLIST SHRINK RATE   0.01
Info: PAIRLIST GROW RATE     0.01
Info: PAIRLIST TRIGGER       0.3
Info: PAIRLISTS PER CYCLE    2
Info: PAIRLISTS ENABLED
Info: MARGIN                 8
Info: HYDROGEN GROUP CUTOFF  2.5
Info: PATCH DIMENSION        21.5
Info: ENERGY OUTPUT STEPS    100000
Info: ENERGY EVALUATION STEPS    100000
Info: OUTPUT ENERGY PRECISION 4
Info: CROSSTERM ENERGY INCLUDED IN DIHEDRAL
Info: TIMING OUTPUT STEPS    1000000
Info: PRESSURE OUTPUT STEPS  100000
Info: LANGEVIN DYNAMICS ACTIVE
Info: LANGEVIN TEMPERATURE   30
Info: LANGEVIN USING BBK INTEGRATOR
Info: LANGEVIN DAMPING COEFFICIENT IS 1 INVERSE PS
Info: LANGEVIN DYNAMICS APPLIED TO HYDROGENS
Info: LANGEVIN PISTON PRESSURE CONTROL ACTIVE
Info:        TARGET PRESSURE IS 1.01325 BAR
Info:     OSCILLATION PERIOD IS 50 FS
Info:             DECAY TIME IS 25 FS
Info:     PISTON TEMPERATURE IS 300 K
Info:       PRESSURE CONTROL IS GROUP-BASED
Info:    INITIAL STRAIN RATE IS 0 0 0
Info:       CELL FLUCTUATION IS ISOTROPIC
Info: PARTICLE MESH EWALD (PME) ACTIVE
Info: PME TOLERANCE               1e-06
Info: PME EWALD COEFFICIENT       0.348832
Info: PME INTERPOLATION ORDER     4
Info: PME GRID DIMENSIONS         40 36 36
Info: PME MAXIMUM GRID SPACING    1
Info: FULL ELECTROSTATIC EVALUATION FREQUENCY      2
Info: USING VERLET I (r-RESPA) MTS SCHEME.
Info: C1 SPLITTING OF LONG RANGE ELECTROSTATICS
Info: PLACING ATOMS IN PATCHES BY HYDROGEN GROUPS
Info: RIGID BONDS TO HYDROGEN : ALL
Info:         ERROR TOLERANCE : 1e-08
Info:          MAX ITERATIONS : 100
Info: RIGID WATER USING SETTLE ALGORITHM
Info: RANDOM NUMBER SEED     1742143620
Info: USE HYDROGEN BONDS?    NO
Info: Using AMBER format force field!
Info: AMBER PARM FILE        mobley_4553008.prmtop
Info: COORDINATE PDB         mobley_4553008.pdb
Info: Exclusions will be read from PARM file!
Info: SCNB (VDW SCALING)     2
Info: USING ARITHMETIC MEAN TO COMBINE L-J SIGMA PARAMETERS
Info: BINARY COORDINATES     mobley_4553008_min.coor
Info: SUMMARY OF PARAMETERS:
Info: 5 BONDS
Info: 3 ANGLES
Info:   3 HARMONIC
Info:   0 COSINE-BASED
Info: 2 DIHEDRAL
Info: 0 IMPROPER
Info: 0 CROSSTERM
Info: 0 VDW
Info: 15 VDW_PAIRS
Info: 0 NBTHOLE_PAIRS
Info: STRUCTURE SUMMARY:
Info: 2979 ATOMS
Info: 2979 BONDS
Info: 18 ANGLES
Info: 30 DIHEDRALS
Info: 0 IMPROPERS
Info: 0 CROSSTERMS
Info: 3018 EXCLUSIONS
Info: 2971 RIGID BONDS
Info: 5966 DEGREES OF FREEDOM
Info: 997 HYDROGEN GROUPS
Info: 3 ATOMS IN LARGEST HYDROGEN GROUP
Info: 997 MIGRATION GROUPS
Info: 3 ATOMS IN LARGEST MIGRATION GROUP
Info: TOTAL MASS = 17964.8 amu
Info: TOTAL CHARGE = 0.000300009 e
Info: MASS DENSITY = 0.666132 g/cm^3
Info: ATOM DENSITY = 0.0665195 atoms/A^3
Info: ADDED 0 IMPLICIT EXCLUSIONS
Info: NONBONDED TABLE R-SQUARED SPACING: 0.0625
Info: NONBONDED TABLE SIZE: 705 POINTS
Info: REMOVING COM VELOCITY 0.0205106 -0.117364 -0.0346808
TCL: Running for 100000 steps
ETITLE: TS BOND ANGLE DIHED IMPRP ELECT VDW BOUNDARY MISC KINETIC TOTAL TEMP POTENTIAL TOTAL3 TEMPAVG PRESSURE GPRESSURE VOLUME PRESSAVG GPRESSAVG
ENERGY: 0 0.1087 0.0392 0.0209 0.0000 -13720.5037 2376.4902 0.0000 0.0000 1798.0121 -9545.8325 303.3191 -11343.8447 -9545.4728 303.3191 179.0423 220.4424 44783.8503 179.0423 220.4424
ENERGY: 100000 0.3281 0.4574 0.3825 0.0000 -14320.7957 2458.3041 0.0000 0.0000 178.6138 -11682.7098 30.1316 -11861.3236 -11682.3525 30.9321 -221.5088 -153.2785 28935.0886 3.3421 3.3884
TCL: Running 100000 steps at 60 kelvin.
TCL: Setting parameter langevinTemp to 60
TCL: Running for 100000 steps
ETITLE: TS BOND ANGLE DIHED IMPRP ELECT VDW BOUNDARY MISC KINETIC TOTAL TEMP POTENTIAL TOTAL3 TEMPAVG PRESSURE GPRESSURE VOLUME PRESSAVG GPRESSAVG
ENERGY: 100000 0.3281 0.4574 0.3825 0.0000 -14320.7957 2458.3041 0.0000 0.0000 178.5254 -11682.7982 30.1167 -11861.3236 -11682.3385 30.1167 -224.7880 -153.4476 28935.0886 -224.7880 -153.4476
ENERGY: 200000 0.2245 0.6362 0.4889 0.0000 -14228.6053 2408.7364 0.0000 0.0000 356.9967 -11461.5226 60.2242 -11818.5192 -11461.0623 59.9252 -263.9490 -175.3889 28599.8309 3.7733 3.8533
TCL: Running 100000 steps at 90 kelvin.
TCL: Setting parameter langevinTemp to 90
TCL: Running for 100000 steps
ETITLE: TS BOND ANGLE DIHED IMPRP ELECT VDW BOUNDARY MISC KINETIC TOTAL TEMP POTENTIAL TOTAL3 TEMPAVG PRESSURE GPRESSURE VOLUME PRESSAVG GPRESSAVG
ENERGY: 200000 0.2245 0.6362 0.4889 0.0000 -14228.6053 2408.7364 0.0000 0.0000 356.8261 -11461.6931 60.1955 -11818.5192 -11460.9506 60.1955 -237.3096 -175.0738 28599.8309 -237.3096 -175.0738
ENERGY: 300000 1.1564 0.8699 0.5467 0.0000 -14230.0840 2515.1126 0.0000 0.0000 533.4497 -11178.9488 89.9913 -11712.3985 -11177.4328 89.8949 1099.9883 1151.1692 28377.7937 4.8049 4.7886
TCL: Running 100000 steps at 120 kelvin.
TCL: Setting parameter langevinTemp to 120
TCL: Running for 100000 steps
ETITLE: TS BOND ANGLE DIHED IMPRP ELECT VDW BOUNDARY MISC KINETIC TOTAL TEMP POTENTIAL TOTAL3 TEMPAVG PRESSURE GPRESSURE VOLUME PRESSAVG GPRESSAVG
ENERGY: 300000 1.1564 0.8699 0.5467 0.0000 -14230.0840 2515.1126 0.0000 0.0000 533.1844 -11179.2141 89.9466 -11712.3985 -11178.0683 89.9466 1088.9344 1151.5049 28377.7937 1088.9344 1151.5049
ENERGY: 400000 0.6125 1.2126 1.0350 0.0000 -13781.3031 2221.5585 0.0000 0.0000 709.2206 -10847.6639 119.6433 -11556.8845 -10846.1915 119.9855 -954.2802 -874.6594 28932.9767 3.6805 3.6803
TCL: Running 100000 steps at 150 kelvin.
TCL: Setting parameter langevinTemp to 150
TCL: Running for 100000 steps
ETITLE: TS BOND ANGLE DIHED IMPRP ELECT VDW BOUNDARY MISC KINETIC TOTAL TEMP POTENTIAL TOTAL3 TEMPAVG PRESSURE GPRESSURE VOLUME PRESSAVG GPRESSAVG
ENERGY: 400000 0.6125 1.2126 1.0350 0.0000 -13781.3031 2221.5585 0.0000 0.0000 708.8474 -10848.0372 119.5804 -11556.8845 -10846.4525 119.5804 -947.0683 -875.2299 28932.9767 -947.0683 -875.2299
ENERGY: 500000 1.3518 1.5822 1.0073 0.0000 -13728.8338 2322.7499 0.0000 0.0000 890.4893 -10511.6533 150.2228 -11402.1427 -10510.3379 149.7812 405.3236 481.0096 29068.5329 4.5944 4.6667
TCL: Running 100000 steps at 180 kelvin.
TCL: Setting parameter langevinTemp to 180
TCL: Running for 100000 steps
ETITLE: TS BOND ANGLE DIHED IMPRP ELECT VDW BOUNDARY MISC KINETIC TOTAL TEMP POTENTIAL TOTAL3 TEMPAVG PRESSURE GPRESSURE VOLUME PRESSAVG GPRESSAVG
ENERGY: 500000 1.3518 1.5822 1.0073 0.0000 -13728.8338 2322.7499 0.0000 0.0000 890.0536 -10512.0890 150.1493 -11402.1427 -10510.4220 150.1493 426.4117 480.8787 29068.5329 426.4117 480.8787
ENERGY: 600000 1.0695 2.6746 1.4873 0.0000 -13138.7364 2054.4446 0.0000 0.0000 1034.4154 -10044.6449 174.5027 -11079.0603 -10042.3464 180.0944 -857.8759 -845.6529 29615.4618 3.4767 3.4964
TCL: Running 100000 steps at 210 kelvin.
TCL: Setting parameter langevinTemp to 210
TCL: Running for 100000 steps
ETITLE: TS BOND ANGLE DIHED IMPRP ELECT VDW BOUNDARY MISC KINETIC TOTAL TEMP POTENTIAL TOTAL3 TEMPAVG PRESSURE GPRESSURE VOLUME PRESSAVG GPRESSAVG
ENERGY: 600000 1.0695 2.6746 1.4873 0.0000 -13138.7364 2054.4446 0.0000 0.0000 1033.8927 -10045.1676 174.4145 -11079.0603 -10043.1771 174.4145 -895.9051 -845.5914 29615.4618 -895.9051 -845.5914
ENERGY: 700000 1.4327 1.3870 3.9908 0.0000 -12468.0320 1874.9638 0.0000 0.0000 1240.1042 -9346.1535 209.2017 -10586.2577 -9344.5980 209.7335 -446.7089 -415.9253 29308.4241 4.3013 4.2701
TCL: Running 100000 steps at 240 kelvin.
TCL: Setting parameter langevinTemp to 240
TCL: Running for 100000 steps
ETITLE: TS BOND ANGLE DIHED IMPRP ELECT VDW BOUNDARY MISC KINETIC TOTAL TEMP POTENTIAL TOTAL3 TEMPAVG PRESSURE GPRESSURE VOLUME PRESSAVG GPRESSAVG
ENERGY: 700000 1.4327 1.3870 3.9908 0.0000 -12468.0320 1874.9638 0.0000 0.0000 1239.4981 -9346.7597 209.0995 -10586.2577 -9344.6704 209.0995 -501.3720 -416.8503 29308.4241 -501.3720 -416.8503
ENERGY: 800000 1.5422 2.8685 2.8154 0.0000 -11882.8924 1695.3407 0.0000 0.0000 1467.6743 -8712.6512 247.5921 -10180.3256 -8706.8868 239.7096 -235.9096 -159.8926 29471.8416 3.3251 3.1363
TCL: Running 100000 steps at 270 kelvin.
TCL: Setting parameter langevinTemp to 270
TCL: Running for 100000 steps
ETITLE: TS BOND ANGLE DIHED IMPRP ELECT VDW BOUNDARY MISC KINETIC TOTAL TEMP POTENTIAL TOTAL3 TEMPAVG PRESSURE GPRESSURE VOLUME PRESSAVG GPRESSAVG
ENERGY: 800000 1.5422 2.8685 2.8154 0.0000 -11882.8924 1695.3407 0.0000 0.0000 1466.9704 -8713.3552 247.4734 -10180.3256 -8711.1136 247.4734 -226.3777 -156.4717 29471.8416 -226.3777 -156.4717
ENERGY: 900000 3.0516 1.6634 3.9699 0.0000 -11321.4751 1624.0190 0.0000 0.0000 1544.0288 -8144.7424 260.4729 -9688.7712 -8139.8282 269.9941 371.4944 464.6476 29860.3911 3.9037 3.8589
TCL: Running 1000000 steps at 300 kelvin.
TCL: Setting parameter langevinTemp to 300
TCL: Running for 1000000 steps
ETITLE: TS BOND ANGLE DIHED IMPRP ELECT VDW BOUNDARY MISC KINETIC TOTAL TEMP POTENTIAL TOTAL3 TEMPAVG PRESSURE GPRESSURE VOLUME PRESSAVG GPRESSAVG
ENERGY: 900000 3.0516 1.6634 3.9699 0.0000 -11321.4751 1624.0190 0.0000 0.0000 1543.2555 -8145.5157 260.3424 -9688.7712 -8142.5054 260.3424 383.4877 465.5418 29860.3911 383.4877 465.5418
ENERGY: 1100000 4.3763 2.4644 1.9757 0.0000 -10989.2934 1597.8848 0.0000 0.0000 1801.8310 -7580.7612 303.9633 -9382.5922 -7578.6118 300.7108 984.1429 1033.5378 30548.3074 2.9754 3.1127
ENERGY: 1300000 1.3974 5.1483 2.1446 0.0000 -10810.4803 1434.6294 0.0000 0.0000 1768.2729 -7598.8875 298.3022 -9367.1605 -7597.6430 300.1044 -308.8155 -241.0054 30913.4268 4.8759 4.7573
ENERGY: 1500000 3.4588 1.7901 3.1414 0.0000 -10709.0444 1369.8602 0.0000 0.0000 1836.9896 -7493.8043 309.8945 -9330.7939 -7489.3557 300.8382 -412.2058 -343.2085 30585.5101 3.3831 3.3553
ENERGY: 1700000 1.2158 0.6177 2.9372 0.0000 -10769.3646 1413.6420 0.0000 0.0000 1715.0306 -7635.9212 289.3204 -9350.9518 -7631.6595 300.0973 -335.2920 -211.8880 30720.7521 3.4172 3.4258
ENERGY: 1900000 2.9979 3.0827 4.5349 0.0000 -10796.9663 1463.6168 0.0000 0.0000 1734.0618 -7588.6723 292.5309 -9322.7341 -7586.6866 300.0850 157.7467 218.5667 30687.3479 2.4462 2.2786
TCL: Exiting due to exit command.
