Info: SIMULATION PARAMETERS:
Info: TIMESTEP               1
Info: NUMBER OF STEPS        0
Info: STEPS PER CYCLE        10
Info: PERIODIC CELL BASIS 1  30 0 0
Info: PERIODIC CELL BASIS 2  0 30 0
Info: PERIODIC CELL BASIS 3  0 0 30
Info: PERIODIC CELL CENTER   0 0 0
Info: WRAPPING ALL CLUSTERS AROUND PERIODIC BOUNDARIES ON OUTPUT.
Info: FIRST LDB TIMESTEP     50
Info: LAST LDB TIMESTEP     -1
Info: HOM BACKGROUND SCALING 1
Info: MIN ATOMS PER PATCH    40
Info: EMPTY PATCH LOAD       40 ATOMS
Info: INITIAL TEMPERATURE    298
Info: CENTER OF MASS MOVING INITIALLY? NO
Info: DIELECTRIC             1
Info: EXCLUDE                SCALED ONE-FOUR
Info: 1-4 ELECTROSTATICS SCALED BY 1
Info: MODIFIED 1-4 VDW PARAMETERS WILL BE USED
Info: DCD FILENAME           output.dcd
Info: DCD FREQUENCY          2500
Info: DCD FIRST STEP         2500
Info: DCD FILE WILL CONTAIN UNIT CELL DATA
Info: NO EXTENDED SYSTEM TRAJECTORY OUTPUT
Info: NO VELOCITY DCD OUTPUT
Info: NO FORCE DCD OUTPUT
Info: OUTPUT FILENAME        output
Info: BINARY OUTPUT FILES WILL BE USED
Info: NO RESTART FILE
Info: SWITCHING ACTIVE
Info: SWITCHING ON           10
Info: SWITCHING OFF          12
Info: PAIRLIST DISTANCE      14
Info: PAIRLIST SHRINK RATE   0.01
Info: PAIRLIST GROW RATE     0.01
Info: PAIRLIST TRIGGER       0.3
Info: PAIRLISTS PER CYCLE    2
Info: PAIRLISTS ENABLED
Info: MARGIN                 0
Info: HYDROGEN GROUP CUTOFF  2.5
Info: PATCH DIMENSION        16.5
Info: ENERGY OUTPUT STEPS    2500
Info: ENERGY EVALUATION STEPS    2500
Info: OUTPUT ENERGY PRECISION 4
Info: CROSSTERM ENERGY INCLUDED IN DIHEDRAL
Info: TIMING OUTPUT STEPS    2500
Info: LANGEVIN DYNAMICS ACTIVE
Info: LANGEVIN TEMPERATURE   298
Info: LANGEVIN USING BBK INTEGRATOR
Info: LANGEVIN DAMPING COEFFICIENT IS 2 INVERSE PS
Info: LANGEVIN DYNAMICS APPLIED TO HYDROGENS
Info: MULTILEVEL SUMMATION METHOD (MSM) FOR ELECTROSTATICS ACTIVE
Info: MSM WITH C1 CUBIC INTERPOLATION AND C2 TAYLOR SPLITTING
Info: FULL ELECTROSTATIC EVALUATION FREQUENCY      1
Info: USING VERLET I (r-RESPA) MTS SCHEME.
Info: C1 SPLITTING OF LONG RANGE ELECTROSTATICS
Info: PLACING ATOMS IN PATCHES BY HYDROGEN GROUPS
Info: RIGID BONDS TO HYDROGEN : ALL
Info:         ERROR TOLERANCE : 1e-08
Info:          MAX ITERATIONS : 100
Info: RIGID WATER USING SETTLE ALGORITHM
Info: RANDOM NUMBER SEED     1740281964
Info: USE HYDROGEN BONDS?    NO
Info: COORDINATE PDB         ionized.pdb
Info: STRUCTURE FILE         ionized.psf
Info: PARAMETER file: CHARMM format!
Info: PARAMETERS             par_all27_prot_lipid.inp
Info: USING ARITHMETIC MEAN TO COMBINE L-J SIGMA PARAMETERS
Info: SUMMARY OF PARAMETERS:
Info: 180 BONDS
Info: 447 ANGLES
Info: 566 DIHEDRAL
Info: 46 IMPROPER
Info: 6 CROSSTERM
Info: 119 VDW
Info: 0 VDW_PAIRS
Info: 0 NBTHOLE_PAIRS
Info: STRUCTURE SUMMARY:
Info: 2476 ATOMS
Info: 1650 BONDS
Info: 825 ANGLES
Info: 0 DIHEDRALS
Info: 0 IMPROPERS
Info: 0 CROSSTERMS
Info: 0 EXCLUSIONS
Info: 2475 RIGID BONDS
Info: 4953 DEGREES OF FREEDOM
Info: 826 HYDROGEN GROUPS
Info: 3 ATOMS IN LARGEST HYDROGEN GROUP
Info: 826 MIGRATION GROUPS
Info: 3 ATOMS IN LARGEST MIGRATION GROUP
Info: TOTAL MASS = 14885.7 amu
Info: TOTAL CHARGE = 1 e
Info: MASS DENSITY = 0.915513 g/cm^3
Info: ATOM DENSITY = 0.0917037 atoms/A^3
Info: ADDED 2475 IMPLICIT EXCLUSIONS
Info: NONBONDED TABLE R-SQUARED SPACING: 0.0625
Info: NONBONDED TABLE SIZE: 769 POINTS
Info: REMOVING COM VELOCITY -0.159404 -0.0418929 -0.142458
Info: MSM using C1 cubic interpolation
Info: MSM using C2 Taylor splitting function
Info: MSM block size decomposition along X is 8 grid points
Info: MSM block size decomposition along Y is 8 grid points
Info: MSM block size decomposition along Z is 8 grid points
Info: MSM grid spacing along X is 2.5 A
Info: MSM grid spacing along Y is 2.5 A
Info: MSM grid spacing along Z is 2.5 A
Info: MSM using 3 levels
Info:     level 0:  [0..11] x [0..11] x [0..11]
Info:     level 1:  [0..5] x [0..5] x [0..5]
Info:     level 2:  [0..2] x [0..2] x [0..2]
Info: MSM finished calculating stencils
Info: MSM finished creating map for grid levels
Info: MSM finished creating map for patches
Info: MSM has 9 interpolation / anterpolation objects (one per patch)
Info: MSM grid level 0 decomposed into 8 blocks ( 2 x 2 x 2 )
Info: MSM grid level 1 decomposed into 1 block ( 1 x 1 x 1 )
Info: MSM grid level 2 decomposed into 1 block ( 1 x 1 x 1 )
Info: MSM grid cutoff calculation decomposed into 783 work objects
TCL: Minimizing for 1000 steps
ETITLE: TS BOND ANGLE DIHED IMPRP ELECT VDW BOUNDARY MISC KINETIC TOTAL TEMP POTENTIAL TOTAL3 TEMPAVG PRESSURE GPRESSURE VOLUME PRESSAVG GPRESSAVG
ENERGY: 0 0.0000 0.0000 0.0000 0.0000 -7348.6496 6353.7252 0.0000 0.0000 0.0000 -994.9244 0.0000 -994.9244 -994.9244 0.0000 75204.0846 46356.0499 27000.0000 75204.0846 46356.0499
ENERGY: 200 0.0000 0.0000 0.0000 0.0000 -10389.6236 1021.4091 0.0000 0.0000 0.0000 -9368.2145 0.0000 -9368.2145 -9368.2145 0.0000 17872.1097 17807.0659 27000.0000 17872.1097 17807.0659
ENERGY: 400 0.0000 0.0000 0.0000 0.0000 -10935.6889 1252.2018 0.0000 0.0000 0.0000 -9683.4871 0.0000 -9683.4871 -9683.4871 0.0000 20440.2412 20341.9646 27000.0000 20440.2412 20341.9646
ENERGY: 600 0.0000 0.0000 0.0000 0.0000 -11094.2124 1296.1632 0.0000 0.0000 0.0000 -9798.0493 0.0000 -9798.0493 -9798.0493 0.0000 20956.4734 20869.0882 27000.0000 20956.4734 20869.0882
ENERGY: 800 0.0000 0.0000 0.0000 0.0000 -11184.5436 1318.7589 0.0000 0.0000 0.0000 -9865.7847 0.0000 -9865.7847 -9865.7847 0.0000 21202.9375 21138.9502 27000.0000 21202.9375 21138.9502
ENERGY: 1000 0.0000 0.0000 0.0000 0.0000 -11263.8893 1339.1341 0.0000 0.0000 0.0000 -9924.7551 0.0000 -9924.7551 -9924.7551 0.0000 21435.4054 21373.3453 27000.0000 21435.4054 21373.3453
TCL: Running for 500000 steps
ETITLE: TS BOND ANGLE DIHED IMPRP ELECT VDW BOUNDARY MISC KINETIC TOTAL TEMP POTENTIAL TOTAL3 TEMPAVG PRESSURE GPRESSURE VOLUME PRESSAVG GPRESSAVG
ENERGY: 2500 0.0000 0.0000 0.0000 0.0000 -9104.8944 923.5777 0.0000 0.0000 1353.3884 -6827.9283 275.0075 -8181.3167 -6826.5063 242.8335 -1195.0041 -1118.8187 27000.0000 -1102.9881 -1104.1786
ENERGY: 102500 0.0000 0.0000 0.0000 0.0000 -8706.4929 784.1973 0.0000 0.0000 1442.6560 -6479.6396 293.1466 -7922.2956 -6477.9161 298.2855 -1575.2107 -1628.3515 27000.0000 -1224.5042 -1226.0582
ENERGY: 202500 0.0000 0.0000 0.0000 0.0000 -8813.0493 832.5190 0.0000 0.0000 1457.5706 -6522.9597 296.1772 -7980.5303 -6524.1369 298.4484 -1389.2227 -1352.7068 27000.0000 -1446.5358 -1447.6532
ENERGY: 300000 0.0000 0.0000 0.0000 0.0000 -8876.3425 872.2634 0.0000 0.0000 1509.9122 -6494.1669 306.8130 -8004.0791 -6493.3113 299.3252 -836.4694 -981.9803 27000.0000 -1271.7080 -1274.4625
ENERGY: 400000 0.0000 0.0000 0.0000 0.0000 -8884.3294 826.0036 0.0000 0.0000 1468.0355 -6590.2903 298.3037 -8058.3258 -6589.4843 294.5435 -1619.5014 -1605.8353 27000.0000 -1393.3041 -1394.6095
ENERGY: 500000 0.0000 0.0000 0.0000 0.0000 -8958.7104 887.1569 0.0000 0.0000 1441.0994 -6630.4542 292.8303 -8071.5535 -6630.7697 294.6577 -1157.9200 -1126.1225 27000.0000 -1268.8812 -1268.1931
