Info: SIMULATION PARAMETERS:
Info: TIMESTEP               2
Info: NUMBER OF STEPS        0
Info: STEPS PER CYCLE        10
Info: PERIODIC CELL BASIS 1  36.005 0 0
Info: PERIODIC CELL BASIS 2  0 35.847 0
Info: PERIODIC CELL BASIS 3  0 0 34.68
Info: PERIODIC CELL CENTER   0 0 0
Info: WRAPPING WATERS AROUND PERIODIC BOUNDARIES ON OUTPUT.
Info: WRAPPING ALL CLUSTERS AROUND PERIODIC BOUNDARIES ON OUTPUT.
Info: FIRST LDB TIMESTEP     50
Info: LAST LDB TIMESTEP     -1
Info: HOM BACKGROUND SCALING 1
Info: PME BACKGROUND SCALING 1
Info: MIN ATOMS PER PATCH    40
Info: EMPTY PATCH LOAD       40 ATOMS
Info: INITIAL TEMPERATURE    300
Info: CENTER OF MASS MOVING INITIALLY? NO
Info: DIELECTRIC             1
Info: EXCLUDE                SCALED ONE-FOUR
Info: 1-4 ELECTROSTATICS SCALED BY 0.833333
Info: MODIFIED 1-4 VDW PARAMETERS WILL BE USED
Info: DCD FILENAME           mobley_2493732_equil.dcd
Info: DCD FREQUENCY          100000
Info: DCD FIRST STEP         100000
Info: DCD FILE WILL CONTAIN UNIT CELL DATA
Info: XST FILENAME           mobley_2493732_equil.xst
Info: XST FREQUENCY          100000
Info: NO VELOCITY DCD OUTPUT
Info: NO FORCE DCD OUTPUT
Info: OUTPUT FILENAME        mobley_2493732_equil
Info: BINARY OUTPUT FILES WILL BE USED
Info: RESTART FILENAME       mobley_2493732_equil.restart
Info: RESTART FREQUENCY      100000
Info: BINARY RESTART FILES WILL BE USED
Info: CUTOFF                 9
Info: PAIRLIST DISTANCE      11
Info: PAIRLIST SHRINK RATE   0.01
Info: PAIRLIST GROW RATE     0.01
Info: PAIRLIST TRIGGER       0.3
Info: PAIRLISTS PER CYCLE    2
Info: PAIRLISTS ENABLED
Info: MARGIN                 8
Info: HYDROGEN GROUP CUTOFF  2.5
Info: PATCH DIMENSION        21.5
Info: ENERGY OUTPUT STEPS    100000
Info: ENERGY EVALUATION STEPS    100000
Info: OUTPUT ENERGY PRECISION 4
Info: CROSSTERM ENERGY INCLUDED IN DIHEDRAL
Info: TIMING OUTPUT STEPS    1000000
Info: PRESSURE OUTPUT STEPS  100000
Info: FIXED ATOMS ACTIVE
Info: LANGEVIN DYNAMICS ACTIVE
Info: LANGEVIN TEMPERATURE   30
Info: LANGEVIN USING BBK INTEGRATOR
Info: LANGEVIN DAMPING COEFFICIENT IS 1 INVERSE PS
Info: LANGEVIN DYNAMICS APPLIED TO HYDROGENS
Info: LANGEVIN PISTON PRESSURE CONTROL ACTIVE
Info:        TARGET PRESSURE IS 1.01325 BAR
Info:     OSCILLATION PERIOD IS 50 FS
Info:             DECAY TIME IS 25 FS
Info:     PISTON TEMPERATURE IS 300 K
Info:       PRESSURE CONTROL IS GROUP-BASED
Info:    INITIAL STRAIN RATE IS 0 0 0
Info:       CELL FLUCTUATION IS ISOTROPIC
Info: PARTICLE MESH EWALD (PME) ACTIVE
Info: PME TOLERANCE               1e-06
Info: PME EWALD COEFFICIENT       0.348832
Info: PME INTERPOLATION ORDER     4
Info: PME GRID DIMENSIONS         40 36 36
Info: PME MAXIMUM GRID SPACING    1
Info: FULL ELECTROSTATIC EVALUATION FREQUENCY      2
Info: USING VERLET I (r-RESPA) MTS SCHEME.
Info: C1 SPLITTING OF LONG RANGE ELECTROSTATICS
Info: PLACING ATOMS IN PATCHES BY HYDROGEN GROUPS
Info: RIGID BONDS TO HYDROGEN : ALL
Info:         ERROR TOLERANCE : 1e-08
Info:          MAX ITERATIONS : 100
Info: RIGID WATER USING SETTLE ALGORITHM
Info: RANDOM NUMBER SEED     1741925289
Info: USE HYDROGEN BONDS?    NO
Info: Using AMBER format force field!
Info: AMBER PARM FILE        mobley_2493732.prmtop
Info: COORDINATE PDB         mobley_2493732.pdb
Info: Exclusions will be read from PARM file!
Info: SCNB (VDW SCALING)     2
Info: USING ARITHMETIC MEAN TO COMBINE L-J SIGMA PARAMETERS
Info: BINARY COORDINATES     mobley_2493732_min.coor
Info: SUMMARY OF PARAMETERS:
Info: 5 BONDS
Info: 4 ANGLES
Info:   4 HARMONIC
Info:   0 COSINE-BASED
Info: 1 DIHEDRAL
Info: 0 IMPROPER
Info: 0 CROSSTERM
Info: 0 VDW
Info: 15 VDW_PAIRS
Info: 0 NBTHOLE_PAIRS
Info: STRUCTURE SUMMARY:
Info: 2940 ATOMS
Info: 2939 BONDS
Info: 6 ANGLES
Info: 4 DIHEDRALS
Info: 0 IMPROPERS
Info: 0 CROSSTERMS
Info: 2949 EXCLUSIONS
Info: 6 FIXED ATOMS
Info: 2936 RIGID BONDS
Info: 2 RIGID BONDS BETWEEN FIXED ATOMS
Info: 5868 DEGREES OF FREEDOM
Info: 982 HYDROGEN GROUPS
Info: 3 ATOMS IN LARGEST HYDROGEN GROUP
Info: 982 MIGRATION GROUPS
Info: 3 ATOMS IN LARGEST MIGRATION GROUP
Info: 4 HYDROGEN GROUPS WITH ALL ATOMS FIXED
Info: TOTAL MASS = 17716.6 amu
Info: TOTAL CHARGE = 0.000100017 e
Info: MASS DENSITY = 0.657271 g/cm^3
Info: ATOM DENSITY = 0.0656829 atoms/A^3
Info: ADDED 0 IMPLICIT EXCLUSIONS
Info: NONBONDED TABLE R-SQUARED SPACING: 0.0625
Info: NONBONDED TABLE SIZE: 705 POINTS
Info: REMOVING COM VELOCITY 0.054242 -0.0813959 0.159174
TCL: Running for 100000 steps
ETITLE: TS BOND ANGLE DIHED IMPRP ELECT VDW BOUNDARY MISC KINETIC TOTAL TEMP POTENTIAL TOTAL3 TEMPAVG PRESSURE GPRESSURE VOLUME PRESSAVG GPRESSAVG
ENERGY: 0 0.0000 0.0000 0.0000 0.0000 -13628.6464 2393.4318 0.0000 0.0000 1780.9975 -9454.2171 305.4665 -11235.2146 -9453.8667 305.4665 459.6638 489.6687 44760.4784 459.6638 489.6687
ENERGY: 100000 0.0000 0.0000 0.0000 0.0000 -14264.0308 2565.5147 0.0000 0.0000 172.3883 -11526.1278 29.5671 -11698.5161 -11525.7219 30.8498 682.7922 742.4610 29834.1990 1.8771 1.8886
TCL: Running 100000 steps at 60 kelvin.
TCL: Setting parameter langevinTemp to 60
TCL: Running for 100000 steps
ETITLE: TS BOND ANGLE DIHED IMPRP ELECT VDW BOUNDARY MISC KINETIC TOTAL TEMP POTENTIAL TOTAL3 TEMPAVG PRESSURE GPRESSURE VOLUME PRESSAVG GPRESSAVG
ENERGY: 100000 0.0000 0.0000 0.0000 0.0000 -14264.0308 2565.5147 0.0000 0.0000 172.2997 -11526.2164 29.5519 -11698.5161 -11525.8490 29.5519 701.3172 742.3553 29834.1990 701.3172 742.3553
ENERGY: 200000 0.0000 0.0000 0.0000 0.0000 -14004.0408 2415.4870 0.0000 0.0000 348.6173 -11239.9365 59.7928 -11588.5538 -11239.1910 59.8527 -176.6194 -105.1828 30135.9048 3.9110 3.9903
TCL: Running 100000 steps at 90 kelvin.
TCL: Setting parameter langevinTemp to 90
TCL: Running for 100000 steps
ETITLE: TS BOND ANGLE DIHED IMPRP ELECT VDW BOUNDARY MISC KINETIC TOTAL TEMP POTENTIAL TOTAL3 TEMPAVG PRESSURE GPRESSURE VOLUME PRESSAVG GPRESSAVG
ENERGY: 200000 0.0000 0.0000 0.0000 0.0000 -14004.0408 2415.4870 0.0000 0.0000 348.4373 -11240.1165 59.7620 -11588.5538 -11239.3710 59.7620 -146.3583 -105.3022 30135.9048 -146.3583 -105.3022
ENERGY: 300000 0.0000 0.0000 0.0000 0.0000 -13785.0520 2271.8026 0.0000 0.0000 514.6397 -10998.6097 88.2681 -11513.2495 -10997.3618 89.9633 -866.1245 -806.9898 29772.3228 3.9490 3.9023
TCL: Running 100000 steps at 120 kelvin.
TCL: Setting parameter langevinTemp to 120
TCL: Running for 100000 steps
ETITLE: TS BOND ANGLE DIHED IMPRP ELECT VDW BOUNDARY MISC KINETIC TOTAL TEMP POTENTIAL TOTAL3 TEMPAVG PRESSURE GPRESSURE VOLUME PRESSAVG GPRESSAVG
ENERGY: 300000 0.0000 0.0000 0.0000 0.0000 -13785.0520 2271.8026 0.0000 0.0000 514.3858 -10998.8637 88.2245 -11513.2495 -10998.0219 88.2245 -859.7409 -806.5437 29772.3228 -859.7409 -806.5437
ENERGY: 400000 0.0000 0.0000 0.0000 0.0000 -13622.0147 2210.3652 0.0000 0.0000 675.5731 -10736.0765 115.8704 -11411.6496 -10735.2097 119.7421 -1073.9453 -1024.3401 29496.0121 4.1337 4.2137
TCL: Running 100000 steps at 150 kelvin.
TCL: Setting parameter langevinTemp to 150
TCL: Running for 100000 steps
ETITLE: TS BOND ANGLE DIHED IMPRP ELECT VDW BOUNDARY MISC KINETIC TOTAL TEMP POTENTIAL TOTAL3 TEMPAVG PRESSURE GPRESSURE VOLUME PRESSAVG GPRESSAVG
ENERGY: 400000 0.0000 0.0000 0.0000 0.0000 -13622.0147 2210.3652 0.0000 0.0000 675.2317 -10736.4179 115.8119 -11411.6496 -10734.8275 115.8119 -1075.9789 -1024.5541 29496.0121 -1075.9789 -1024.5541
ENERGY: 500000 0.0000 0.0000 0.0000 0.0000 -13399.0703 2157.3649 0.0000 0.0000 879.6126 -10362.0927 150.8661 -11241.7054 -10360.7388 149.8705 -690.2913 -676.8118 29234.6402 3.2019 3.0580
TCL: Running 100000 steps at 180 kelvin.
TCL: Setting parameter langevinTemp to 180
TCL: Running for 100000 steps
ETITLE: TS BOND ANGLE DIHED IMPRP ELECT VDW BOUNDARY MISC KINETIC TOTAL TEMP POTENTIAL TOTAL3 TEMPAVG PRESSURE GPRESSURE VOLUME PRESSAVG GPRESSAVG
ENERGY: 500000 0.0000 0.0000 0.0000 0.0000 -13399.0703 2157.3649 0.0000 0.0000 879.1701 -10362.5353 150.7902 -11241.7054 -10360.8337 150.7902 -733.1668 -678.1025 29234.6402 -733.1668 -678.1025
ENERGY: 600000 0.0000 0.0000 0.0000 0.0000 -13164.7556 2160.1832 0.0000 0.0000 1069.2039 -9935.3686 183.3837 -11004.5725 -9932.0386 180.2117 377.8112 389.6858 28716.6292 3.3666 3.3131
TCL: Running 100000 steps at 210 kelvin.
TCL: Setting parameter langevinTemp to 210
TCL: Running for 100000 steps
ETITLE: TS BOND ANGLE DIHED IMPRP ELECT VDW BOUNDARY MISC KINETIC TOTAL TEMP POTENTIAL TOTAL3 TEMPAVG PRESSURE GPRESSURE VOLUME PRESSAVG GPRESSAVG
ENERGY: 600000 0.0000 0.0000 0.0000 0.0000 -13164.7556 2160.1832 0.0000 0.0000 1068.6602 -9935.9122 183.2905 -11004.5725 -9934.1127 183.2905 328.5191 390.0716 28716.6292 328.5191 390.0716
ENERGY: 700000 0.0000 0.0000 0.0000 0.0000 -12406.6623 1945.3622 0.0000 0.0000 1243.5453 -9217.7548 213.2858 -10461.3001 -9215.5646 209.7317 475.2545 535.5088 28821.5681 3.2070 3.3102
TCL: Running 100000 steps at 240 kelvin.
TCL: Setting parameter langevinTemp to 240
TCL: Running for 100000 steps
ETITLE: TS BOND ANGLE DIHED IMPRP ELECT VDW BOUNDARY MISC KINETIC TOTAL TEMP POTENTIAL TOTAL3 TEMPAVG PRESSURE GPRESSURE VOLUME PRESSAVG GPRESSAVG
ENERGY: 700000 0.0000 0.0000 0.0000 0.0000 -12406.6623 1945.3622 0.0000 0.0000 1242.9273 -9218.3728 213.1798 -10461.3001 -9216.8837 213.1798 464.5288 535.7772 28821.5681 464.5288 535.7772
ENERGY: 800000 0.0000 0.0000 0.0000 0.0000 -11740.0352 1638.2839 0.0000 0.0000 1441.8603 -8659.8911 247.2996 -10101.7514 -8656.2458 240.1622 -705.0841 -589.0081 28984.6623 4.0453 4.1489
TCL: Running 100000 steps at 270 kelvin.
TCL: Setting parameter langevinTemp to 270
TCL: Running for 100000 steps
ETITLE: TS BOND ANGLE DIHED IMPRP ELECT VDW BOUNDARY MISC KINETIC TOTAL TEMP POTENTIAL TOTAL3 TEMPAVG PRESSURE GPRESSURE VOLUME PRESSAVG GPRESSAVG
ENERGY: 800000 0.0000 0.0000 0.0000 0.0000 -11740.0352 1638.2839 0.0000 0.0000 1441.2120 -8660.5394 247.1884 -10101.7514 -8658.3015 247.1884 -687.1228 -584.7717 28984.6623 -687.1228 -584.7717
ENERGY: 900000 0.0000 0.0000 0.0000 0.0000 -11234.9380 1598.5323 0.0000 0.0000 1587.4487 -8048.9570 272.2701 -9636.4057 -8045.1479 270.1560 461.1533 540.9050 29311.8495 2.8805 2.7710
TCL: Running 1000000 steps at 300 kelvin.
TCL: Setting parameter langevinTemp to 300
TCL: Running for 1000000 steps
ETITLE: TS BOND ANGLE DIHED IMPRP ELECT VDW BOUNDARY MISC KINETIC TOTAL TEMP POTENTIAL TOTAL3 TEMPAVG PRESSURE GPRESSURE VOLUME PRESSAVG GPRESSAVG
ENERGY: 900000 0.0000 0.0000 0.0000 0.0000 -11234.9380 1598.5323 0.0000 0.0000 1586.6506 -8049.7551 272.1332 -9636.4057 -8048.0066 272.1332 460.6185 541.4966 29311.8495 460.6185 541.4966
ENERGY: 1100000 0.0000 0.0000 0.0000 0.0000 -10745.3292 1433.3713 0.0000 0.0000 1715.8678 -7596.0901 294.2958 -9311.9579 -7592.3652 299.5627 -345.0888 -271.9346 30608.5957 4.0745 3.9965
ENERGY: 1300000 0.0000 0.0000 0.0000 0.0000 -10711.9628 1388.6767 0.0000 0.0000 1751.5185 -7571.7676 300.4104 -9323.2861 -7570.2327 300.6729 -463.6334 -431.3211 30276.0960 4.1371 3.9174
ENERGY: 1500000 0.0000 0.0000 0.0000 0.0000 -10749.3486 1495.6040 0.0000 0.0000 1746.5989 -7507.1458 299.5666 -9253.7447 -7503.4843 299.5049 473.6110 642.7089 30010.6874 3.4967 3.4878
ENERGY: 1700000 0.0000 0.0000 0.0000 0.0000 -10695.9154 1448.0532 0.0000 0.0000 1740.3142 -7507.5479 298.4887 -9247.8621 -7504.7331 300.1405 212.0496 334.4234 29806.7881 1.8883 1.7807
ENERGY: 1900000 0.0000 0.0000 0.0000 0.0000 -10663.6122 1403.4442 0.0000 0.0000 1723.2582 -7536.9097 295.5634 -9260.1680 -7532.7049 299.9067 -54.2591 -2.2057 30043.2459 3.2134 3.0984
TCL: Exiting due to exit command.
