Info: SIMULATION PARAMETERS:
Info: TIMESTEP               2
Info: NUMBER OF STEPS        0
Info: STEPS PER CYCLE        10
Info: PERIODIC CELL BASIS 1  30.9671 0 0
Info: PERIODIC CELL BASIS 2  0 31.1944 0
Info: PERIODIC CELL BASIS 3  0 0 30.9176
Info: PERIODIC CELL CENTER   0 0 0
Info: WRAPPING WATERS AROUND PERIODIC BOUNDARIES ON OUTPUT.
Info: WRAPPING ALL CLUSTERS AROUND PERIODIC BOUNDARIES ON OUTPUT.
Info: FIRST LDB TIMESTEP     50
Info: LAST LDB TIMESTEP     -1
Info: HOM BACKGROUND SCALING 1
Info: PME BACKGROUND SCALING 1
Info: MIN ATOMS PER PATCH    40
Info: EMPTY PATCH LOAD       40 ATOMS
Info: VELOCITY FILE          mobley_1952272_equil.vel
Info: CENTER OF MASS MOVING INITIALLY? NO
Info: DIELECTRIC             1
Info: EXCLUDE                SCALED ONE-FOUR
Info: 1-4 ELECTROSTATICS SCALED BY 0.833333
Info: MODIFIED 1-4 VDW PARAMETERS WILL BE USED
Info: DCD FILENAME           mobley_1952272_prod.dcd
Info: DCD FREQUENCY          100000
Info: DCD FIRST STEP         100000
Info: DCD FILE WILL CONTAIN UNIT CELL DATA
Info: XST FILENAME           mobley_1952272_prod.xst
Info: XST FREQUENCY          100000
Info: NO VELOCITY DCD OUTPUT
Info: NO FORCE DCD OUTPUT
Info: OUTPUT FILENAME        mobley_1952272_prod
Info: BINARY OUTPUT FILES WILL BE USED
Info: RESTART FILENAME       mobley_1952272_prod.restart
Info: RESTART FREQUENCY      100000
Info: BINARY RESTART FILES WILL BE USED
Info: CUTOFF                 9
Info: PAIRLIST DISTANCE      11
Info: PAIRLIST SHRINK RATE   0.01
Info: PAIRLIST GROW RATE     0.01
Info: PAIRLIST TRIGGER       0.3
Info: PAIRLISTS PER CYCLE    2
Info: PAIRLISTS ENABLED
Info: MARGIN                 2
Info: HYDROGEN GROUP CUTOFF  2.5
Info: PATCH DIMENSION        15.5
Info: ENERGY OUTPUT STEPS    100000
Info: ENERGY EVALUATION STEPS    100000
Info: OUTPUT ENERGY PRECISION 4
Info: CROSSTERM ENERGY INCLUDED IN DIHEDRAL
Info: TIMING OUTPUT STEPS    1000000
Info: PRESSURE OUTPUT STEPS  100000
Info: ALCHEMICAL FEP ON
Info: FEP CURRENT LAMBDA VALUE     1
Info: FEP COMPARISON LAMBDA VALUE  0.95
Info: FEP INTRA-ALCHEMICAL NON-BONDED INTERACTIONS WILL BE RETAINED
Info: FEP INTRA-ALCHEMICAL BONDED INTERACTIONS WILL BE RETAINED
Info: FEP VDW SHIFTING COEFFICIENT 5
Info: FEP ELEC. ACTIVE FOR ANNIHILATED PARTICLES BETWEEN LAMBDA = 0 AND LAMBDA = 0.5
Info: FEP ELEC. ACTIVE FOR EXNIHILATED PARTICLES BETWEEN LAMBDA = 0.5 AND LAMBDA = 1
Info: FEP VDW ACTIVE FOR ANNIHILATED PARTICLES BETWEEN LAMBDA = 0 AND LAMBDA = 1
Info: FEP VDW ACTIVE FOR EXNIHILATED PARTICLES BETWEEN LAMBDA = 0 AND LAMBDA = 1
Info: FEP BOND ACTIVE FOR ANNIHILATED PARTICLES BETWEEN LAMBDA = 1 AND LAMBDA = 1
Info: FEP BOND ACTIVE FOR EXNIHILATED PARTICLES BETWEEN LAMBDA = 0 AND LAMBDA = 0
Info: LANGEVIN DYNAMICS ACTIVE
Info: LANGEVIN TEMPERATURE   300
Info: LANGEVIN USING BBK INTEGRATOR
Info: LANGEVIN DAMPING COEFFICIENT IS 1 INVERSE PS
Info: LANGEVIN DYNAMICS APPLIED TO HYDROGENS
Info: LANGEVIN PISTON PRESSURE CONTROL ACTIVE
Info:        TARGET PRESSURE IS 1.01325 BAR
Info:     OSCILLATION PERIOD IS 50 FS
Info:             DECAY TIME IS 25 FS
Info:     PISTON TEMPERATURE IS 300 K
Info:       PRESSURE CONTROL IS GROUP-BASED
Info:    INITIAL STRAIN RATE IS -0.000471605 -0.000471605 -0.000471605
Info:       CELL FLUCTUATION IS ISOTROPIC
Info: PARTICLE MESH EWALD (PME) ACTIVE
Info: PME TOLERANCE               1e-06
Info: PME EWALD COEFFICIENT       0.348832
Info: PME INTERPOLATION ORDER     4
Info: PME GRID DIMENSIONS         32 32 32
Info: PME MAXIMUM GRID SPACING    1
Info: PME CALCULATION WILL BE PERFORMED ON GPU
Info: FULL ELECTROSTATIC EVALUATION FREQUENCY      2
Info: USING VERLET I (r-RESPA) MTS SCHEME.
Info: C1 SPLITTING OF LONG RANGE ELECTROSTATICS
Info: PLACING ATOMS IN PATCHES BY HYDROGEN GROUPS
Info: RIGID BONDS TO HYDROGEN : ALL
Info:         ERROR TOLERANCE : 1e-08
Info:          MAX ITERATIONS : 100
Info: RIGID WATER USING SETTLE ALGORITHM
Info: RANDOM NUMBER SEED     1742372472
Info: USE HYDROGEN BONDS?    NO
Info: Using AMBER format force field!
Info: AMBER PARM FILE        mobley_1952272.prmtop
Info: COORDINATE PDB         mobley_1952272.pdb
Info: Exclusions will be read from PARM file!
Info: SCNB (VDW SCALING)     2
Info: USING ARITHMETIC MEAN TO COMBINE L-J SIGMA PARAMETERS
Info: BINARY COORDINATES     mobley_1952272_equil.coor
Info: SUMMARY OF PARAMETERS:
Info: 5 BONDS
Info: 4 ANGLES
Info:   4 HARMONIC
Info:   0 COSINE-BASED
Info: 1 DIHEDRAL
Info: 0 IMPROPER
Info: 0 CROSSTERM
Info: 0 VDW
Info: 21 VDW_PAIRS
Info: 0 NBTHOLE_PAIRS
Info: To read alchdata from file: mobley_1952272.pdb
Info: To read alchflag data from column: 5
Info: STRUCTURE SUMMARY:
Info: 2905 ATOMS
Info: 2904 BONDS
Info: 9 ANGLES
Info: 6 DIHEDRALS
Info: 0 IMPROPERS
Info: 0 CROSSTERMS
Info: 2919 EXCLUSIONS
Info: 2901 RIGID BONDS
Info: ALCH: 0 ATOMS TO DISAPPEAR IN FINAL STATE
Info: ALCH: 7 ATOMS TO APPEAR IN FINAL STATE
Info: 5814 DEGREES OF FREEDOM
Info: 970 HYDROGEN GROUPS
Info: 4 ATOMS IN LARGEST HYDROGEN GROUP
Info: 970 MIGRATION GROUPS
Info: 4 ATOMS IN LARGEST MIGRATION GROUP
Info: TOTAL MASS = 17464.5 amu
Info: TOTAL CHARGE = 9.99793e-05 e
Info: MASS DENSITY = 0.971028 g/cm^3
Info: ATOM DENSITY = 0.0972664 atoms/A^3
Info: ADDED 0 IMPLICIT EXCLUSIONS
Info: NONBONDED TABLE R-SQUARED SPACING: 0.0625
Info: NONBONDED TABLE SIZE: 705 POINTS
Info: REMOVING COM VELOCITY -0.122651 -0.0788229 -0.0148568
Info: Use 3D box decompostion in PME FFT.
Info: Updated CUDA force table with 4096 elements.
Info: Updated CUDA LJ table with 6 x 6 elements.
Info: Found 10 unique exclusion lists needing 12 bytes
TCL: Running for 1500000 steps
ETITLE: TS BOND ANGLE DIHED IMPRP ELECT VDW BOUNDARY MISC KINETIC TOTAL TEMP POTENTIAL TOTALAVG TEMPAVG PRESSURE GPRESSURE VOLUME PRESSAVG GPRESSAVG
ENERGY: 0 1.2344 3.9953 0.0000 0.0000 -10619.0141 1476.1623 0.0000 0.0000 1709.9898 -7427.6324 296.0117 -9137.6221 -7427.6324 296.0117 336.2204 423.7112 29866.4426 336.2204 423.7112
ENERGY: 300000 0.1648 2.3082 0.0000 0.0000 -10547.6725 1399.9550 0.0000 0.0000 1764.7323 -7380.5122 305.4880 -9145.2445 -7385.6548 300.7629 -209.2041 -144.0639 30138.7390 39.5427 97.4176
ENERGY: 600000 1.0260 4.7797 0.0000 0.0000 -10588.0309 1438.9886 0.0000 0.0000 1746.8508 -7396.3858 302.3926 -9143.2366 -7385.4450 300.1318 75.8890 185.4383 30068.9684 -123.4950 -56.0365
ENERGY: 900000 1.7269 3.1531 0.0000 0.0000 -10419.3289 1331.2204 0.0000 0.0000 1770.1533 -7313.0752 306.4264 -9083.2285 -7383.2951 302.0146 -630.2379 -649.2552 30533.3580 -220.1344 -159.7059
ENERGY: 1200000 3.0235 1.3652 0.0000 0.0000 -10645.0964 1512.8031 0.0000 0.0000 1705.9161 -7421.9884 295.3065 -9127.9046 -7383.5702 301.8703 1130.3467 1176.9175 29426.1736 -53.1313 4.3305
ENERGY: 1500000 1.1077 2.8254 0.0000 0.0000 -10581.1288 1432.1926 0.0000 0.0000 1699.0697 -7445.9334 294.1213 -9145.0031 -7386.3586 300.9747 -112.4129 -8.9043 30147.4063 2.9157 61.0629
TCL: Running FEP window   2: Lambda1 0.95   Lambda2 0.8999999999999999 [dLambda -0.050000000000000044]
TCL: Setting parameter firsttimestep to 0
TCL: Setting parameter alchLambda to 0.95
Info: NONBONDED TABLE R-SQUARED SPACING: 0.0625
Info: NONBONDED TABLE SIZE: 705 POINTS
TCL: Setting parameter alchLambda2 to 0.8999999999999999
Info: NONBONDED TABLE R-SQUARED SPACING: 0.0625
Info: NONBONDED TABLE SIZE: 705 POINTS
TCL: Running for 1500000 steps
ETITLE: TS BOND ANGLE DIHED IMPRP ELECT VDW BOUNDARY MISC KINETIC TOTAL TEMP POTENTIAL TOTALAVG TEMPAVG PRESSURE GPRESSURE VOLUME PRESSAVG GPRESSAVG
ENERGY: 0 1.1077 2.8254 0.0000 0.0000 -10580.5889 1432.1655 0.0000 0.0000 1698.1790 -7446.3113 293.9672 -9144.4902 -7446.3113 293.9672 -106.9442 -16.9460 30147.4063 -106.9442 -16.9460
ENERGY: 300000 0.3261 2.3633 0.0000 0.0000 -10532.7460 1405.3374 0.0000 0.0000 1714.9994 -7409.7197 296.8789 -9124.7192 -7432.7385 296.3134 169.8237 197.5311 29532.4178 334.1717 379.3921
ENERGY: 600000 0.9509 3.8897 0.0000 0.0000 -10515.5010 1405.7475 0.0000 0.0000 1756.0978 -7348.8151 303.9933 -9104.9130 -7419.7972 299.3253 -53.0032 -23.7961 30056.9829 269.6821 322.0990
ENERGY: 900000 0.9988 2.9405 0.0000 0.0000 -10554.5635 1413.5061 0.0000 0.0000 1745.6117 -7391.5064 302.1781 -9137.1181 -7410.0297 301.9750 32.7846 109.4351 29864.9875 232.1931 295.3546
ENERGY: 1200000 7.1797 1.8439 0.0000 0.0000 -10609.2687 1468.1383 0.0000 0.0000 1786.6211 -7345.4856 309.2771 -9132.1067 -7398.7935 302.3393 72.2538 177.2508 30560.4986 146.6251 216.5703
ENERGY: 1500000 0.4646 4.2266 0.0000 0.0000 -10655.1908 1495.8975 0.0000 0.0000 1740.6233 -7413.9788 301.3146 -9154.6021 -7406.0771 301.7347 454.4746 527.8496 29977.4529 167.1051 235.4678
TCL: Running FEP window   3: Lambda1 0.8999999999999999 Lambda2 0.8499999999999999 [dLambda -0.050000000000000044]
TCL: Setting parameter firsttimestep to 0
TCL: Setting parameter alchLambda to 0.8999999999999999
Info: NONBONDED TABLE R-SQUARED SPACING: 0.0625
Info: NONBONDED TABLE SIZE: 705 POINTS
TCL: Setting parameter alchLambda2 to 0.8499999999999999
Info: NONBONDED TABLE R-SQUARED SPACING: 0.0625
Info: NONBONDED TABLE SIZE: 705 POINTS
TCL: Running for 1500000 steps
ETITLE: TS BOND ANGLE DIHED IMPRP ELECT VDW BOUNDARY MISC KINETIC TOTAL TEMP POTENTIAL TOTALAVG TEMPAVG PRESSURE GPRESSURE VOLUME PRESSAVG GPRESSAVG
ENERGY: 0 0.4646 4.2266 0.0000 0.0000 -10654.6525 1495.9189 0.0000 0.0000 1739.7460 -7414.2964 301.1627 -9154.0424 -7414.2964 301.1627 429.9254 521.5444 29977.4529 429.9254 521.5444
ENERGY: 300000 2.5078 3.7177 0.0000 0.0000 -10667.5672 1456.8353 0.0000 0.0000 1731.8884 -7472.6180 299.8025 -9204.5064 -7411.2736 300.0438 134.8559 169.7987 29654.2679 349.2351 417.9177
ENERGY: 600000 0.0849 2.7324 0.0000 0.0000 -10610.6338 1432.9261 0.0000 0.0000 1711.6896 -7463.2008 296.3059 -9174.8904 -7397.4247 300.4363 -32.6380 67.1294 29791.7127 241.5233 305.4529
ENERGY: 900000 1.3358 1.8581 0.0000 0.0000 -10524.6195 1343.8872 0.0000 0.0000 1729.3835 -7448.1550 299.3689 -9177.5385 -7408.8691 300.9553 -796.8554 -716.4641 30147.2613 96.5519 159.4373
ENERGY: 1200000 1.3441 1.9406 0.0000 0.0000 -10604.3076 1412.8265 0.0000 0.0000 1726.6050 -7461.5914 298.8879 -9188.1964 -7400.7541 301.9364 -178.7934 -96.8075 30214.0116 61.0785 124.8019
ENERGY: 1500000 2.0357 2.5976 0.0000 0.0000 -10582.7927 1404.3042 0.0000 0.0000 1733.6031 -7440.2520 300.0993 -9173.8551 -7396.6041 301.7614 -13.1211 32.2463 29335.3889 25.1127 87.3780
TCL: Running FEP window   4: Lambda1 0.8499999999999999 Lambda2 0.7999999999999998 [dLambda -0.050000000000000044]
TCL: Setting parameter firsttimestep to 0
TCL: Setting parameter alchLambda to 0.8499999999999999
Info: NONBONDED TABLE R-SQUARED SPACING: 0.0625
Info: NONBONDED TABLE SIZE: 705 POINTS
TCL: Setting parameter alchLambda2 to 0.7999999999999998
Info: NONBONDED TABLE R-SQUARED SPACING: 0.0625
Info: NONBONDED TABLE SIZE: 705 POINTS
TCL: Running for 1500000 steps
ETITLE: TS BOND ANGLE DIHED IMPRP ELECT VDW BOUNDARY MISC KINETIC TOTAL TEMP POTENTIAL TOTALAVG TEMPAVG PRESSURE GPRESSURE VOLUME PRESSAVG GPRESSAVG
ENERGY: 0 2.0357 2.5976 0.0000 0.0000 -10582.1480 1404.5681 0.0000 0.0000 1732.7385 -7440.2079 299.9497 -9172.9464 -7440.2079 299.9497 -51.7036 30.2888 29335.3889 -51.7036 30.2888
ENERGY: 300000 1.4667 2.1146 0.0000 0.0000 -10628.3294 1424.8751 0.0000 0.0000 1746.1850 -7453.6880 302.2774 -9199.8731 -7398.0672 302.4718 81.2766 49.7089 29921.1322 -2.8256 24.8017
ENERGY: 600000 0.2958 1.9629 0.0000 0.0000 -10657.6167 1464.7743 0.0000 0.0000 1727.9930 -7462.5907 299.1282 -9190.5837 -7415.5923 301.6170 394.9126 494.8093 29263.7891 -130.7664 -90.2343
ENERGY: 900000 0.8170 2.8815 0.0000 0.0000 -10612.4342 1376.3511 0.0000 0.0000 1749.4541 -7482.9306 302.8433 -9232.3847 -7408.9645 303.2996 -566.2203 -554.6067 29946.6967 -86.6568 -42.4273
ENERGY: 1200000 0.8205 2.5583 0.0000 0.0000 -10365.8610 1309.4436 0.0000 0.0000 1704.0626 -7348.9761 294.9857 -9053.0387 -7408.9860 302.8269 -723.5109 -733.1532 30329.5203 -132.5186 -91.0136
ENERGY: 1500000 1.1429 3.5118 0.0000 0.0000 -10631.4316 1472.4958 0.0000 0.0000 1740.9486 -7413.3326 301.3709 -9154.2811 -7399.1452 303.1479 323.7518 403.4289 29786.8657 -11.4382 35.6055
TCL: Running FEP window   5: Lambda1 0.7999999999999998 Lambda2 0.7499999999999998 [dLambda -0.050000000000000044]
TCL: Setting parameter firsttimestep to 0
TCL: Setting parameter alchLambda to 0.7999999999999998
Info: NONBONDED TABLE R-SQUARED SPACING: 0.0625
Info: NONBONDED TABLE SIZE: 705 POINTS
TCL: Setting parameter alchLambda2 to 0.7499999999999998
Info: NONBONDED TABLE R-SQUARED SPACING: 0.0625
Info: NONBONDED TABLE SIZE: 705 POINTS
TCL: Running for 1500000 steps
ETITLE: TS BOND ANGLE DIHED IMPRP ELECT VDW BOUNDARY MISC KINETIC TOTAL TEMP POTENTIAL TOTALAVG TEMPAVG PRESSURE GPRESSURE VOLUME PRESSAVG GPRESSAVG
ENERGY: 0 1.1429 3.5118 0.0000 0.0000 -10631.2995 1472.3422 0.0000 0.0000 1740.1084 -7414.1943 301.2254 -9154.3027 -7414.1943 301.2254 303.8284 396.3162 29786.8657 303.8284 396.3162
ENERGY: 300000 0.9175 1.9408 0.0000 0.0000 -10489.5123 1407.6980 0.0000 0.0000 1686.4213 -7392.5347 291.9318 -9078.9560 -7425.4081 297.5806 -144.7742 -49.7492 30440.1729 9.3971 93.0949
ENERGY: 600000 0.4190 4.0774 0.0000 0.0000 -10542.8296 1356.2392 0.0000 0.0000 1670.5805 -7511.5136 289.1897 -9182.0941 -7428.4023 297.9284 -646.5291 -526.8506 29882.5214 -237.2420 -163.3635
ENERGY: 900000 2.1191 3.7248 0.0000 0.0000 -10429.0522 1367.8941 0.0000 0.0000 1731.1447 -7324.1695 299.6738 -9055.3142 -7418.8239 297.8626 21.6434 27.9652 29571.3615 -236.5326 -175.5894
ENERGY: 1200000 0.9111 4.0165 0.0000 0.0000 -10652.3074 1461.4836 0.0000 0.0000 1719.5127 -7466.3835 297.6602 -9185.8962 -7421.1824 298.9279 211.4589 258.7161 29782.4952 -261.9060 -199.6322
ENERGY: 1500000 1.1164 2.5008 0.0000 0.0000 -10531.4572 1402.8511 0.0000 0.0000 1784.3266 -7340.6623 308.8799 -9124.9888 -7410.9934 299.7271 -184.0505 -130.1941 30099.9226 -265.8327 -202.7828
TCL: Running FEP window   6: Lambda1 0.7499999999999998 Lambda2 0.6999999999999997 [dLambda -0.050000000000000044]
TCL: Setting parameter firsttimestep to 0
TCL: Setting parameter alchLambda to 0.7499999999999998
Info: NONBONDED TABLE R-SQUARED SPACING: 0.0625
Info: NONBONDED TABLE SIZE: 705 POINTS
TCL: Setting parameter alchLambda2 to 0.6999999999999997
Info: NONBONDED TABLE R-SQUARED SPACING: 0.0625
Info: NONBONDED TABLE SIZE: 705 POINTS
TCL: Running for 1500000 steps
ETITLE: TS BOND ANGLE DIHED IMPRP ELECT VDW BOUNDARY MISC KINETIC TOTAL TEMP POTENTIAL TOTALAVG TEMPAVG PRESSURE GPRESSURE VOLUME PRESSAVG GPRESSAVG
ENERGY: 0 1.1164 2.5008 0.0000 0.0000 -10530.7961 1401.5941 0.0000 0.0000 1783.4490 -7342.1358 308.7280 -9125.5848 -7342.1358 308.7280 -221.3358 -150.6226 30099.9226 -221.3358 -150.6226
ENERGY: 300000 1.4918 3.9835 0.0000 0.0000 -10505.3876 1368.2671 0.0000 0.0000 1708.9435 -7422.7015 295.8306 -9131.6451 -7377.1854 300.6709 -290.2690 -256.6162 29860.1602 -227.7816 -174.8580
ENERGY: 600000 1.2375 0.9646 0.0000 0.0000 -10528.5271 1367.9841 0.0000 0.0000 1681.7476 -7476.5931 291.1228 -9158.3408 -7391.1284 299.9561 -705.5411 -607.5801 29983.0599 -174.5566 -100.5368
ENERGY: 900000 0.9537 1.5948 0.0000 0.0000 -10661.2205 1472.9642 0.0000 0.0000 1665.1186 -7520.5893 288.2442 -9185.7079 -7407.6149 298.5306 -8.5791 43.9317 30071.1569 -83.6657 -9.0035
ENERGY: 1200000 2.2563 1.7819 0.0000 0.0000 -10511.0679 1334.1698 0.0000 0.0000 1727.4101 -7445.4498 299.0273 -9172.8599 -7406.8708 298.7684 -828.5320 -684.4806 29933.9983 -95.1559 -18.8652
ENERGY: 1500000 0.3302 3.7227 0.0000 0.0000 -10537.0064 1440.5824 0.0000 0.0000 1801.1170 -7291.2541 311.7865 -9092.3711 -7393.7124 299.8466 383.0505 417.5053 30246.8756 -1.0178 76.3900
TCL: Running FEP window   7: Lambda1 0.6999999999999997 Lambda2 0.6499999999999997 [dLambda -0.050000000000000044]
TCL: Setting parameter firsttimestep to 0
TCL: Setting parameter alchLambda to 0.6999999999999997
Info: NONBONDED TABLE R-SQUARED SPACING: 0.0625
Info: NONBONDED TABLE SIZE: 705 POINTS
TCL: Setting parameter alchLambda2 to 0.6499999999999997
Info: NONBONDED TABLE R-SQUARED SPACING: 0.0625
Info: NONBONDED TABLE SIZE: 705 POINTS
TCL: Running for 1500000 steps
ETITLE: TS BOND ANGLE DIHED IMPRP ELECT VDW BOUNDARY MISC KINETIC TOTAL TEMP POTENTIAL TOTALAVG TEMPAVG PRESSURE GPRESSURE VOLUME PRESSAVG GPRESSAVG
ENERGY: 0 0.3302 3.7227 0.0000 0.0000 -10536.7541 1440.6143 0.0000 0.0000 1800.2582 -7291.8286 311.6378 -9092.0869 -7291.8286 311.6378 342.8136 418.9529 30246.8756 342.8136 418.9529
ENERGY: 300000 1.0137 2.0775 0.0000 0.0000 -10640.2329 1447.8546 0.0000 0.0000 1723.8809 -7465.4063 298.4163 -9189.2872 -7376.7770 303.9342 -92.2936 -16.3529 29949.2997 91.8728 161.0515
ENERGY: 600000 0.2533 2.7798 0.0000 0.0000 -10410.7802 1329.9058 0.0000 0.0000 1745.8535 -7331.9878 302.2200 -9077.8413 -7392.8264 302.4381 -611.6061 -541.8818 30253.6127 -102.8043 -45.5624
ENERGY: 900000 0.4659 4.0821 0.0000 0.0000 -10715.7803 1535.4146 0.0000 0.0000 1736.8951 -7438.9225 300.6692 -9175.8176 -7394.9971 302.3327 912.8442 927.3742 29771.3972 -35.6877 22.7567
ENERGY: 1200000 0.2168 0.9442 0.0000 0.0000 -10658.5992 1508.2586 0.0000 0.0000 1733.4869 -7415.6928 300.0792 -9149.1796 -7397.6438 301.3768 641.8477 714.6382 29832.0598 -26.8850 41.9501
ENERGY: 1500000 0.8301 2.9971 0.0000 0.0000 -10451.2597 1342.6325 0.0000 0.0000 1735.2258 -7369.5741 300.3802 -9104.7999 -7399.3642 300.7452 -546.3914 -515.0785 30135.3076 -41.5568 20.1760
TCL: Running FEP window   8: Lambda1 0.6499999999999997 Lambda2 0.5999999999999996 [dLambda -0.050000000000000044]
TCL: Setting parameter firsttimestep to 0
TCL: Setting parameter alchLambda to 0.6499999999999997
Info: NONBONDED TABLE R-SQUARED SPACING: 0.0625
Info: NONBONDED TABLE SIZE: 705 POINTS
TCL: Setting parameter alchLambda2 to 0.5999999999999996
Info: NONBONDED TABLE R-SQUARED SPACING: 0.0625
Info: NONBONDED TABLE SIZE: 705 POINTS
TCL: Running for 1500000 steps
ETITLE: TS BOND ANGLE DIHED IMPRP ELECT VDW BOUNDARY MISC KINETIC TOTAL TEMP POTENTIAL TOTALAVG TEMPAVG PRESSURE GPRESSURE VOLUME PRESSAVG GPRESSAVG
ENERGY: 0 0.8301 2.9971 0.0000 0.0000 -10451.0994 1342.8418 0.0000 0.0000 1734.3867 -7370.0436 300.2350 -9104.4303 -7370.0436 300.2350 -608.3110 -515.5540 30135.3076 -608.3110 -515.5540
ENERGY: 300000 2.1173 1.0832 0.0000 0.0000 -10427.2260 1330.1922 0.0000 0.0000 1712.9322 -7380.9011 296.5210 -9093.8333 -7388.2021 298.0380 -783.2929 -704.9424 30093.7580 -125.9445 -54.4322
ENERGY: 600000 0.8551 2.9102 0.0000 0.0000 -10577.7992 1464.7263 0.0000 0.0000 1719.0227 -7390.2850 297.5754 -9109.3076 -7383.4919 298.0487 486.4507 568.0588 29682.8343 -171.9398 -106.0237
ENERGY: 900000 0.8953 1.7185 0.0000 0.0000 -10554.2875 1445.7675 0.0000 0.0000 1727.0116 -7378.8946 298.9583 -9105.9062 -7377.3341 297.7043 173.6186 194.7525 30332.9405 -145.9006 -82.7487
ENERGY: 1200000 1.0141 2.8171 0.0000 0.0000 -10456.0284 1261.9622 0.0000 0.0000 1731.1711 -7459.0638 299.6783 -9190.2350 -7394.2295 297.9954 -1507.8190 -1481.7441 30292.0548 -179.8868 -122.7407
ENERGY: 1500000 0.2623 1.3094 0.0000 0.0000 -10557.5452 1414.5402 0.0000 0.0000 1692.5045 -7448.9288 292.9849 -9141.4333 -7405.9156 297.5853 -174.5097 -43.2209 29971.2605 -166.8511 -107.1198
TCL: Running FEP window   9: Lambda1 0.5999999999999996 Lambda2 0.5499999999999996 [dLambda -0.050000000000000044]
TCL: Setting parameter firsttimestep to 0
TCL: Setting parameter alchLambda to 0.5999999999999996
Info: NONBONDED TABLE R-SQUARED SPACING: 0.0625
Info: NONBONDED TABLE SIZE: 705 POINTS
TCL: Setting parameter alchLambda2 to 0.5499999999999996
Info: NONBONDED TABLE R-SQUARED SPACING: 0.0625
Info: NONBONDED TABLE SIZE: 705 POINTS
TCL: Running for 1500000 steps
ETITLE: TS BOND ANGLE DIHED IMPRP ELECT VDW BOUNDARY MISC KINETIC TOTAL TEMP POTENTIAL TOTALAVG TEMPAVG PRESSURE GPRESSURE VOLUME PRESSAVG GPRESSAVG
ENERGY: 0 0.2623 1.3094 0.0000 0.0000 -10557.3254 1414.2249 0.0000 0.0000 1691.6569 -7449.8719 292.8381 -9141.5288 -7449.8719 292.8381 -131.9645 -52.0256 29971.2605 -131.9645 -52.0256
ENERGY: 300000 0.5685 3.8609 0.0000 0.0000 -10443.7538 1297.6917 0.0000 0.0000 1770.2004 -7371.4323 306.4346 -9141.6327 -7400.3861 299.4056 -861.6147 -776.7792 29686.8593 -467.8579 -383.5077
ENERGY: 600000 0.4455 2.0576 0.0000 0.0000 -10501.1195 1347.9157 0.0000 0.0000 1687.9977 -7462.7029 292.2047 -9150.7006 -7392.9178 299.5902 -652.4499 -584.1286 30005.2806 -485.8273 -407.5322
ENERGY: 900000 1.2986 2.5609 0.0000 0.0000 -10600.6927 1447.6195 0.0000 0.0000 1670.6690 -7478.5446 289.2050 -9149.2137 -7398.9959 299.3260 424.2614 535.6401 29383.2927 -416.8377 -334.4855
ENERGY: 1200000 2.7615 2.5172 0.0000 0.0000 -10505.9318 1381.7087 0.0000 0.0000 1751.8662 -7367.0782 303.2608 -9118.9443 -7398.8498 299.5046 -243.5248 -199.5055 29817.6462 -365.8947 -289.5075
ENERGY: 1500000 0.9182 1.9578 0.0000 0.0000 -10470.5932 1379.5866 0.0000 0.0000 1730.2564 -7357.8741 299.5200 -9088.1306 -7390.3992 299.8736 -261.2132 -251.2030 30115.6232 -297.1413 -229.8453
TCL: Running FEP window  10: Lambda1 0.5499999999999996 Lambda2 0.4999999999999996 [dLambda -0.04999999999999999]
TCL: Setting parameter firsttimestep to 0
TCL: Setting parameter alchLambda to 0.5499999999999996
Info: NONBONDED TABLE R-SQUARED SPACING: 0.0625
Info: NONBONDED TABLE SIZE: 705 POINTS
TCL: Setting parameter alchLambda2 to 0.4999999999999996
Info: NONBONDED TABLE R-SQUARED SPACING: 0.0625
Info: NONBONDED TABLE SIZE: 705 POINTS
TCL: Running for 1500000 steps
ETITLE: TS BOND ANGLE DIHED IMPRP ELECT VDW BOUNDARY MISC KINETIC TOTAL TEMP POTENTIAL TOTALAVG TEMPAVG PRESSURE GPRESSURE VOLUME PRESSAVG GPRESSAVG
ENERGY: 0 0.9182 1.9578 0.0000 0.0000 -10470.3812 1379.5317 0.0000 0.0000 1729.3719 -7358.6016 299.3669 -9087.9735 -7358.6016 299.3669 -330.5621 -257.1892 30115.6232 -330.5621 -257.1892
ENERGY: 300000 0.6079 2.2599 0.0000 0.0000 -10513.9751 1435.8890 0.0000 0.0000 1686.0580 -7389.1603 291.8689 -9075.2183 -7364.8186 298.6122 223.5398 235.3008 30147.6541 -346.5604 -301.4271
ENERGY: 600000 0.8014 2.7839 0.0000 0.0000 -10479.0806 1420.6087 0.0000 0.0000 1742.5200 -7312.3665 301.6429 -9054.8866 -7379.3966 298.5441 153.6598 179.7555 30280.2659 -231.0573 -176.2995
ENERGY: 900000 1.4865 2.4634 0.0000 0.0000 -10754.3196 1498.7660 0.0000 0.0000 1767.0045 -7484.5993 305.8814 -9251.6038 -7395.6031 299.8553 133.7582 171.8797 29931.6465 -139.5297 -86.0441
ENERGY: 1200000 0.0756 2.5327 0.0000 0.0000 -10487.4126 1369.9548 0.0000 0.0000 1772.5124 -7342.3371 306.8348 -9114.8495 -7390.3186 301.1370 -307.3567 -265.8419 30021.8129 -270.2094 -214.0784
ENERGY: 1500000 1.9397 3.4751 0.0000 0.0000 -10726.7024 1538.6579 0.0000 0.0000 1770.5318 -7412.0980 306.4920 -9182.6297 -7393.3591 301.0138 813.4827 871.9626 29867.2103 -137.8002 -85.1868
TCL: Running FEP window  11: Lambda1 0.4999999999999996 Lambda2 0.4499999999999996 [dLambda -0.04999999999999999]
TCL: Setting parameter firsttimestep to 0
TCL: Setting parameter alchLambda to 0.4999999999999996
Info: NONBONDED TABLE R-SQUARED SPACING: 0.0625
Info: NONBONDED TABLE SIZE: 705 POINTS
TCL: Setting parameter alchLambda2 to 0.4499999999999996
Info: NONBONDED TABLE R-SQUARED SPACING: 0.0625
Info: NONBONDED TABLE SIZE: 705 POINTS
TCL: Running for 1500000 steps
ETITLE: TS BOND ANGLE DIHED IMPRP ELECT VDW BOUNDARY MISC KINETIC TOTAL TEMP POTENTIAL TOTALAVG TEMPAVG PRESSURE GPRESSURE VOLUME PRESSAVG GPRESSAVG
ENERGY: 0 1.9397 3.4751 0.0000 0.0000 -10726.3352 1538.5793 0.0000 0.0000 1769.6624 -7412.6786 306.3415 -9182.3410 -7412.6786 306.3415 783.3958 869.5875 29867.2103 783.3958 869.5875
ENERGY: 300000 1.4993 1.9961 0.0000 0.0000 -10470.7544 1340.9893 0.0000 0.0000 1771.5798 -7354.6899 306.6734 -9126.2697 -7398.2381 300.7448 -559.6196 -474.4476 29760.8112 -99.2026 -46.9785
ENERGY: 600000 0.4475 1.9834 0.0000 0.0000 -10466.9213 1394.8466 0.0000 0.0000 1787.9646 -7281.6792 309.5097 -9069.6438 -7372.2955 302.9191 -97.3148 -30.5651 29959.8957 108.3437 168.3038
ENERGY: 900000 0.1742 1.9695 0.0000 0.0000 -10593.2798 1394.3106 0.0000 0.0000 1748.3327 -7448.4928 302.6491 -9196.8255 -7384.3676 302.6656 -635.4820 -517.0368 30246.5745 13.0717 82.2665
ENERGY: 1200000 1.3399 0.9416 0.0000 0.0000 -10614.1025 1512.4036 0.0000 0.0000 1728.3931 -7371.0243 299.1975 -9099.4174 -7397.5375 302.4739 1192.7059 1226.5520 29208.9690 156.7584 221.6933
ENERGY: 1500000 0.4862 2.4335 0.0000 0.0000 -10548.3895 1391.5780 0.0000 0.0000 1709.7776 -7444.1142 295.9750 -9153.8918 -7401.4462 301.9074 -364.7235 -333.7439 30099.1608 60.8379 128.4469
TCL: Running FEP window  12: Lambda1 0.4499999999999996 Lambda2 0.39999999999999963 [dLambda -0.04999999999999999]
TCL: Setting parameter firsttimestep to 0
TCL: Setting parameter alchLambda to 0.4499999999999996
Info: NONBONDED TABLE R-SQUARED SPACING: 0.0625
Info: NONBONDED TABLE SIZE: 705 POINTS
TCL: Setting parameter alchLambda2 to 0.39999999999999963
Info: NONBONDED TABLE R-SQUARED SPACING: 0.0625
Info: NONBONDED TABLE SIZE: 705 POINTS
TCL: Running for 1500000 steps
ETITLE: TS BOND ANGLE DIHED IMPRP ELECT VDW BOUNDARY MISC KINETIC TOTAL TEMP POTENTIAL TOTALAVG TEMPAVG PRESSURE GPRESSURE VOLUME PRESSAVG GPRESSAVG
ENERGY: 0 0.4862 2.4335 0.0000 0.0000 -10548.3900 1391.4984 0.0000 0.0000 1708.9307 -7445.0412 295.8284 -9153.9719 -7445.0412 295.8284 -402.7745 -338.6177 30099.1608 -402.7745 -338.6177
ENERGY: 300000 0.3116 1.0448 0.0000 0.0000 -10558.0710 1417.1781 0.0000 0.0000 1710.8807 -7428.6557 296.1659 -9139.5365 -7472.2182 293.4113 -160.9548 -122.1397 29859.2986 -279.6244 -244.0001
ENERGY: 600000 0.9455 7.0173 0.0000 0.0000 -10574.9997 1428.4745 0.0000 0.0000 1775.8323 -7362.7302 307.4095 -9138.5624 -7410.7629 297.7037 25.9176 96.7840 30027.2146 -205.7065 -154.6849
ENERGY: 900000 0.1757 2.1915 0.0000 0.0000 -10693.9907 1518.7902 0.0000 0.0000 1784.3706 -7388.4627 308.8876 -9172.8333 -7393.0077 299.5971 400.7660 498.2210 30323.0960 -120.9600 -66.9332
ENERGY: 1200000 0.7704 3.1343 0.0000 0.0000 -10499.1431 1329.4498 0.0000 0.0000 1735.7973 -7429.9912 300.4792 -9165.7886 -7397.4876 299.5923 -785.1000 -665.3091 29932.5931 -115.5656 -57.2874
ENERGY: 1500000 0.5708 3.2214 0.0000 0.0000 -10506.8582 1417.8366 0.0000 0.0000 1786.5713 -7298.6580 309.2685 -9085.2293 -7399.2347 300.2235 249.6007 306.1437 29789.2745 -49.7270 8.5163
TCL: Running FEP window  13: Lambda1 0.39999999999999963 Lambda2 0.34999999999999964 [dLambda -0.04999999999999999]
TCL: Setting parameter firsttimestep to 0
TCL: Setting parameter alchLambda to 0.39999999999999963
Info: NONBONDED TABLE R-SQUARED SPACING: 0.0625
Info: NONBONDED TABLE SIZE: 705 POINTS
TCL: Setting parameter alchLambda2 to 0.34999999999999964
Info: NONBONDED TABLE R-SQUARED SPACING: 0.0625
Info: NONBONDED TABLE SIZE: 705 POINTS
TCL: Running for 1500000 steps
ETITLE: TS BOND ANGLE DIHED IMPRP ELECT VDW BOUNDARY MISC KINETIC TOTAL TEMP POTENTIAL TOTALAVG TEMPAVG PRESSURE GPRESSURE VOLUME PRESSAVG GPRESSAVG
ENERGY: 0 0.5708 3.2214 0.0000 0.0000 -10506.8585 1418.0786 0.0000 0.0000 1785.6831 -7299.3045 309.1148 -9084.9876 -7299.3045 309.1148 214.6710 303.6442 29789.2745 214.6710 303.6442
ENERGY: 300000 1.9817 1.5433 0.0000 0.0000 -10639.1088 1426.9329 0.0000 0.0000 1720.5784 -7488.0725 297.8447 -9208.6510 -7394.5927 302.5802 136.9656 141.5845 29437.0701 -55.5605 -23.9309
ENERGY: 600000 0.8008 1.3471 0.0000 0.0000 -10577.2313 1464.8233 0.0000 0.0000 1744.6128 -7365.6473 302.0052 -9110.2601 -7372.9800 301.3489 420.6479 513.5816 29729.5859 -89.7061 -42.4322
ENERGY: 900000 0.6858 4.8443 0.0000 0.0000 -10581.0763 1428.5056 0.0000 0.0000 1696.5435 -7450.4971 293.6840 -9147.0406 -7402.7177 299.7287 -105.2324 6.4189 29872.9866 -37.3562 14.0836
ENERGY: 1200000 2.3767 3.3975 0.0000 0.0000 -10581.7386 1446.2693 0.0000 0.0000 1765.5670 -7364.1280 305.6325 -9129.6950 -7405.1795 299.6685 224.0397 329.7388 29920.6506 -27.9868 31.8691
ENERGY: 1500000 1.7393 1.7113 0.0000 0.0000 -10508.4255 1351.5836 0.0000 0.0000 1719.4739 -7433.9175 297.6535 -9153.3914 -7410.6144 298.7762 -649.0702 -566.8576 29943.5111 -58.0747 -1.0558
TCL: Running FEP window  14: Lambda1 0.34999999999999964 Lambda2 0.29999999999999966 [dLambda -0.04999999999999999]
TCL: Setting parameter firsttimestep to 0
TCL: Setting parameter alchLambda to 0.34999999999999964
Info: NONBONDED TABLE R-SQUARED SPACING: 0.0625
Info: NONBONDED TABLE SIZE: 705 POINTS
TCL: Setting parameter alchLambda2 to 0.29999999999999966
Info: NONBONDED TABLE R-SQUARED SPACING: 0.0625
Info: NONBONDED TABLE SIZE: 705 POINTS
TCL: Running for 1500000 steps
ETITLE: TS BOND ANGLE DIHED IMPRP ELECT VDW BOUNDARY MISC KINETIC TOTAL TEMP POTENTIAL TOTALAVG TEMPAVG PRESSURE GPRESSURE VOLUME PRESSAVG GPRESSAVG
ENERGY: 0 1.7393 1.7112 0.0000 0.0000 -10508.4260 1351.8543 0.0000 0.0000 1718.5900 -7434.5311 297.5005 -9153.1212 -7434.5311 297.5005 -645.4459 -567.4028 29943.5111 -645.4459 -567.4028
ENERGY: 300000 2.5429 2.9371 0.0000 0.0000 -10474.7491 1356.1804 0.0000 0.0000 1771.7227 -7341.3659 306.6981 -9113.0886 -7416.6451 304.2006 -187.4526 -211.4851 29828.8868 28.4574 73.3858
ENERGY: 600000 1.6219 4.5392 0.0000 0.0000 -10647.6696 1438.5933 0.0000 0.0000 1703.6356 -7499.2797 294.9117 -9202.9153 -7427.6781 301.0627 79.6540 106.9153 29742.9112 -115.6068 -65.3730
ENERGY: 900000 0.4140 2.6046 0.0000 0.0000 -10495.2206 1364.3405 0.0000 0.0000 1733.4698 -7394.3917 300.0763 -9127.8615 -7417.9974 300.2693 -298.9570 -206.4596 29715.4749 -191.7725 -140.4537
ENERGY: 1200000 0.7127 2.9783 0.0000 0.0000 -10535.5281 1405.9981 0.0000 0.0000 1747.2648 -7378.5742 302.4643 -9125.8390 -7414.3270 300.4208 166.7726 182.7716 29615.1557 -180.2441 -128.0723
ENERGY: 1500000 0.5774 1.3794 0.0000 0.0000 -10690.2775 1495.3002 0.0000 0.0000 1720.0396 -7472.9809 297.7514 -9193.0205 -7419.6356 299.4238 486.8990 613.4490 29566.2564 -90.7198 -33.9029
TCL: Running FEP window  15: Lambda1 0.29999999999999966 Lambda2 0.24999999999999967 [dLambda -0.04999999999999999]
TCL: Setting parameter firsttimestep to 0
TCL: Setting parameter alchLambda to 0.29999999999999966
Info: NONBONDED TABLE R-SQUARED SPACING: 0.0625
Info: NONBONDED TABLE SIZE: 705 POINTS
TCL: Setting parameter alchLambda2 to 0.24999999999999967
Info: NONBONDED TABLE R-SQUARED SPACING: 0.0625
Info: NONBONDED TABLE SIZE: 705 POINTS
TCL: Running for 1500000 steps
ETITLE: TS BOND ANGLE DIHED IMPRP ELECT VDW BOUNDARY MISC KINETIC TOTAL TEMP POTENTIAL TOTALAVG TEMPAVG PRESSURE GPRESSURE VOLUME PRESSAVG GPRESSAVG
ENERGY: 0 0.5774 1.3794 0.0000 0.0000 -10690.2775 1495.3623 0.0000 0.0000 1719.1538 -7473.8046 297.5980 -9192.9584 -7473.8046 297.5980 522.3351 609.4728 29566.2564 522.3351 609.4728
ENERGY: 300000 0.6588 2.0871 0.0000 0.0000 -10507.1809 1399.5646 0.0000 0.0000 1712.8058 -7392.0647 296.4992 -9104.8704 -7380.9400 299.9679 6.1699 103.4731 29697.8082 242.7061 331.7508
ENERGY: 600000 0.6709 3.5415 0.0000 0.0000 -10623.8354 1457.4678 0.0000 0.0000 1782.4955 -7379.6596 308.5630 -9162.1551 -7382.5752 300.7940 255.1503 306.4031 29949.2061 396.7323 451.4437
ENERGY: 900000 0.6372 4.3083 0.0000 0.0000 -10521.2310 1317.7992 0.0000 0.0000 1718.6449 -7479.8413 297.5100 -9198.4862 -7401.5553 300.2421 -947.2285 -828.0524 29622.2938 129.4608 198.5428
ENERGY: 1200000 0.6914 1.7918 0.0000 0.0000 -10634.0662 1419.3788 0.0000 0.0000 1776.8822 -7435.3220 307.5913 -9212.2042 -7404.1145 300.6097 404.6911 439.0182 28911.8843 128.6793 185.7594
ENERGY: 1500000 0.7350 4.9756 0.0000 0.0000 -10633.9998 1385.4708 0.0000 0.0000 1772.6009 -7470.2175 306.8501 -9242.8184 -7401.8855 300.9759 -795.0077 -707.0205 30183.4656 -4.8109 55.1190
TCL: Running FEP window  16: Lambda1 0.24999999999999967 Lambda2 0.19999999999999968 [dLambda -0.04999999999999999]
TCL: Setting parameter firsttimestep to 0
TCL: Setting parameter alchLambda to 0.24999999999999967
Info: NONBONDED TABLE R-SQUARED SPACING: 0.0625
Info: NONBONDED TABLE SIZE: 705 POINTS
TCL: Setting parameter alchLambda2 to 0.19999999999999968
Info: NONBONDED TABLE R-SQUARED SPACING: 0.0625
Info: NONBONDED TABLE SIZE: 705 POINTS
TCL: Running for 1500000 steps
ETITLE: TS BOND ANGLE DIHED IMPRP ELECT VDW BOUNDARY MISC KINETIC TOTAL TEMP POTENTIAL TOTALAVG TEMPAVG PRESSURE GPRESSURE VOLUME PRESSAVG GPRESSAVG
ENERGY: 0 0.7350 4.9756 0.0000 0.0000 -10633.9999 1385.5096 0.0000 0.0000 1771.7691 -7471.0106 306.7061 -9242.7797 -7471.0106 306.7061 -788.4376 -709.7370 30183.4656 -788.4376 -709.7370
ENERGY: 300000 0.5075 1.8934 0.0000 0.0000 -10595.8815 1445.9782 0.0000 0.0000 1759.4384 -7388.0640 304.5716 -9147.5024 -7391.3055 307.7363 214.5890 272.8343 29554.0125 -204.2206 -138.9672
ENERGY: 600000 0.6449 3.2808 0.0000 0.0000 -10556.7877 1397.4817 0.0000 0.0000 1741.0130 -7414.3672 301.3820 -9155.3802 -7400.9722 304.4058 -261.8432 -186.6823 29955.3361 -92.6997 -30.8062
ENERGY: 900000 0.8864 3.7814 0.0000 0.0000 -10465.7780 1374.7429 0.0000 0.0000 1686.4774 -7399.8898 291.9415 -9086.3672 -7401.3909 303.2469 -358.3929 -239.0970 29982.9961 -125.3489 -60.9529
ENERGY: 1200000 0.4118 2.1167 0.0000 0.0000 -10466.9971 1426.3638 0.0000 0.0000 1730.1102 -7307.9947 299.4947 -9038.1049 -7389.4750 303.2220 232.2577 255.9677 30182.1850 -75.5640 -10.0244
ENERGY: 1500000 4.0706 2.7616 0.0000 0.0000 -10494.2893 1390.9854 0.0000 0.0000 1702.6452 -7393.8265 294.7403 -9096.4717 -7386.2272 303.4825 -96.0426 -32.1260 29868.2115 -24.2401 35.2881
TCL: Running FEP window  17: Lambda1 0.19999999999999968 Lambda2 0.1499999999999997 [dLambda -0.04999999999999999]
TCL: Setting parameter firsttimestep to 0
TCL: Setting parameter alchLambda to 0.19999999999999968
Info: NONBONDED TABLE R-SQUARED SPACING: 0.0625
Info: NONBONDED TABLE SIZE: 705 POINTS
TCL: Setting parameter alchLambda2 to 0.1499999999999997
Info: NONBONDED TABLE R-SQUARED SPACING: 0.0625
Info: NONBONDED TABLE SIZE: 705 POINTS
TCL: Running for 1500000 steps
ETITLE: TS BOND ANGLE DIHED IMPRP ELECT VDW BOUNDARY MISC KINETIC TOTAL TEMP POTENTIAL TOTALAVG TEMPAVG PRESSURE GPRESSURE VOLUME PRESSAVG GPRESSAVG
ENERGY: 0 4.0706 2.7616 0.0000 0.0000 -10494.2881 1390.9012 0.0000 0.0000 1701.8075 -7394.7472 294.5953 -9096.5547 -7394.7472 294.5953 -120.0892 -35.1183 29868.2115 -120.0892 -35.1183
ENERGY: 300000 1.2250 2.7481 0.0000 0.0000 -10564.8927 1453.5416 0.0000 0.0000 1750.1475 -7357.2305 302.9633 -9107.3780 -7375.6558 299.9303 784.1886 716.8817 29225.1903 58.5992 95.6893
ENERGY: 600000 0.1878 2.9807 0.0000 0.0000 -10507.1738 1401.4622 0.0000 0.0000 1782.3033 -7320.2397 308.5297 -9102.5430 -7382.2412 302.4576 -103.1799 -38.0412 30121.5719 25.9485 70.9765
ENERGY: 900000 1.1037 1.8611 0.0000 0.0000 -10536.6777 1381.4759 0.0000 0.0000 1780.3195 -7371.9174 308.1863 -9152.2369 -7369.1346 302.8563 -246.6156 -198.4339 29712.4857 -91.4462 -47.0828
ENERGY: 1200000 0.0407 2.4634 0.0000 0.0000 -10515.2048 1364.9875 0.0000 0.0000 1807.7258 -7339.9874 312.9305 -9147.7132 -7362.0929 303.2196 -207.5700 -179.8517 29558.4833 -30.0451 18.9742
ENERGY: 1500000 0.5875 1.1255 0.0000 0.0000 -10511.1142 1354.0808 0.0000 0.0000 1742.7391 -7412.5814 301.6808 -9155.3204 -7372.2285 303.0921 -831.4586 -738.4624 30548.1619 -141.6919 -89.6135
TCL: Running FEP window  18: Lambda1 0.1499999999999997 Lambda2 0.09999999999999969 [dLambda -0.05 ]
TCL: Setting parameter firsttimestep to 0
TCL: Setting parameter alchLambda to 0.1499999999999997
Info: NONBONDED TABLE R-SQUARED SPACING: 0.0625
Info: NONBONDED TABLE SIZE: 705 POINTS
TCL: Setting parameter alchLambda2 to 0.09999999999999969
Info: NONBONDED TABLE R-SQUARED SPACING: 0.0625
Info: NONBONDED TABLE SIZE: 705 POINTS
TCL: Running for 1500000 steps
ETITLE: TS BOND ANGLE DIHED IMPRP ELECT VDW BOUNDARY MISC KINETIC TOTAL TEMP POTENTIAL TOTALAVG TEMPAVG PRESSURE GPRESSURE VOLUME PRESSAVG GPRESSAVG
ENERGY: 0 0.5875 1.1255 0.0000 0.0000 -10511.1130 1353.9922 0.0000 0.0000 1741.8707 -7413.5371 301.5305 -9155.4078 -7413.5371 301.5305 -815.3683 -740.3268 30548.1619 -815.3683 -740.3268
ENERGY: 300000 0.2701 1.2811 0.0000 0.0000 -10553.0131 1410.2317 0.0000 0.0000 1768.0379 -7373.1921 306.0603 -9141.2301 -7391.7735 299.8869 -303.4330 -192.7475 30115.3311 -208.6716 -139.2580
ENERGY: 600000 0.2458 3.6023 0.0000 0.0000 -10531.5588 1428.5415 0.0000 0.0000 1744.4460 -7354.7232 301.9763 -9099.1692 -7381.4344 300.0727 -172.7547 -71.3127 30468.5700 -52.0929 18.1758
ENERGY: 900000 0.5727 1.8686 0.0000 0.0000 -10594.0912 1491.5440 0.0000 0.0000 1791.2241 -7308.8818 310.0739 -9100.1059 -7376.6982 301.3870 631.8546 674.2590 29905.2933 23.5148 91.7743
ENERGY: 1200000 0.9941 2.6736 0.0000 0.0000 -10585.2871 1414.3060 0.0000 0.0000 1773.4458 -7393.8675 306.9964 -9167.3133 -7377.3868 301.0486 25.8817 121.3409 29664.1342 -15.9381 58.0238
ENERGY: 1500000 0.2006 5.2200 0.0000 0.0000 -10699.4139 1517.9203 0.0000 0.0000 1746.8686 -7429.2045 302.3957 -9176.0730 -7390.4441 300.3198 576.1428 597.6063 29936.1685 15.4068 88.0376
TCL: Running FEP window  19: Lambda1 0.09999999999999969 Lambda2 0.049999999999999684 [dLambda -0.05 ]
TCL: Setting parameter firsttimestep to 0
TCL: Setting parameter alchLambda to 0.09999999999999969
Info: NONBONDED TABLE R-SQUARED SPACING: 0.0625
Info: NONBONDED TABLE SIZE: 705 POINTS
TCL: Setting parameter alchLambda2 to 0.049999999999999684
Info: NONBONDED TABLE R-SQUARED SPACING: 0.0625
Info: NONBONDED TABLE SIZE: 705 POINTS
TCL: Running for 1500000 steps
ETITLE: TS BOND ANGLE DIHED IMPRP ELECT VDW BOUNDARY MISC KINETIC TOTAL TEMP POTENTIAL TOTALAVG TEMPAVG PRESSURE GPRESSURE VOLUME PRESSAVG GPRESSAVG
ENERGY: 0 0.2006 5.2200 0.0000 0.0000 -10699.4121 1517.9361 0.0000 0.0000 1745.9828 -7430.0725 302.2424 -9176.0554 -7430.0725 302.2424 522.6898 598.6014 29936.1685 522.6898 598.6014
ENERGY: 300000 0.0608 3.6912 0.0000 0.0000 -10500.0268 1337.2985 0.0000 0.0000 1714.7710 -7444.2054 296.8394 -9158.9764 -7414.4229 298.3264 -845.9486 -768.0586 29893.6342 -125.6960 -51.1789
ENERGY: 600000 1.2674 2.4572 0.0000 0.0000 -10427.0437 1366.4330 0.0000 0.0000 1779.8330 -7277.0531 308.1021 -9056.8861 -7418.7869 298.5323 -282.8529 -203.0938 30390.3920 -98.9311 -37.2182
ENERGY: 900000 0.0732 2.6219 0.0000 0.0000 -10566.8243 1358.2524 0.0000 0.0000 1738.7503 -7467.1265 300.9903 -9205.8767 -7412.5688 300.3852 -760.4135 -694.7471 29938.4771 -267.5949 -199.5791
ENERGY: 1200000 0.4049 3.1263 0.0000 0.0000 -10503.1474 1351.4010 0.0000 0.0000 1701.4849 -7446.7303 294.5394 -9148.2152 -7419.8340 299.6210 -625.2130 -533.2968 29622.2385 -229.8390 -158.3614
ENERGY: 1500000 0.8713 1.9095 0.0000 0.0000 -10635.8565 1404.1202 0.0000 0.0000 1762.8929 -7466.0626 305.1696 -9228.9555 -7417.0923 300.5788 -372.3270 -291.3551 29613.6289 -228.2917 -164.7165
TCL: Running FEP window  20: Lambda1 0.049999999999999684 Lambda2 0.0    [dLambda -0.049999999999999684]
TCL: Setting parameter firsttimestep to 0
TCL: Setting parameter alchLambda to 0.049999999999999684
Info: NONBONDED TABLE R-SQUARED SPACING: 0.0625
Info: NONBONDED TABLE SIZE: 705 POINTS
TCL: Setting parameter alchLambda2 to 0.0
Info: NONBONDED TABLE R-SQUARED SPACING: 0.0625
Info: NONBONDED TABLE SIZE: 705 POINTS
TCL: Running for 1500000 steps
ETITLE: TS BOND ANGLE DIHED IMPRP ELECT VDW BOUNDARY MISC KINETIC TOTAL TEMP POTENTIAL TOTALAVG TEMPAVG PRESSURE GPRESSURE VOLUME PRESSAVG GPRESSAVG
ENERGY: 0 0.8713 1.9095 0.0000 0.0000 -10635.8559 1404.2376 0.0000 0.0000 1762.0510 -7466.7864 305.0239 -9228.8374 -7466.7864 305.0239 -384.0928 -292.0666 29613.6289 -384.0928 -292.0666
ENERGY: 300000 0.4484 3.3935 0.0000 0.0000 -10498.7356 1461.4921 0.0000 0.0000 1677.2368 -7356.1647 290.3419 -9033.4015 -7444.1718 295.9507 382.5156 392.7803 30309.6432 52.0725 93.7532
ENERGY: 600000 1.5354 1.5163 0.0000 0.0000 -10529.5582 1400.9487 0.0000 0.0000 1660.4379 -7465.1199 287.4339 -9125.5578 -7440.0746 295.9732 -122.2262 -123.4996 29706.6890 -85.0546 -37.9514
ENERGY: 900000 0.7186 4.8985 0.0000 0.0000 -10558.6789 1428.0185 0.0000 0.0000 1767.1503 -7357.8930 305.9066 -9125.0433 -7416.7083 299.0401 -269.6297 -187.6931 29946.1519 13.2889 69.3263
ENERGY: 1200000 0.8972 1.3572 0.0000 0.0000 -10519.8760 1388.5266 0.0000 0.0000 1760.8338 -7368.2612 304.8132 -9129.0950 -7406.1713 299.4256 35.2398 53.2409 29501.4728 -6.9176 43.7561
ENERGY: 1500000 0.1237 2.5342 0.0000 0.0000 -10630.6582 1476.8403 0.0000 0.0000 1734.5222 -7416.6378 300.2584 -9151.1600 -7401.6307 300.0430 479.2415 580.9387 29470.0211 23.1123 81.1219
TCL: Exiting due to exit command.
