Info: SIMULATION PARAMETERS:
Info: TIMESTEP               1
Info: NUMBER OF STEPS        0
Info: STEPS PER CYCLE        10
Info: PERIODIC CELL BASIS 1  30 0 0
Info: PERIODIC CELL BASIS 2  0 30 0
Info: PERIODIC CELL BASIS 3  0 0 30
Info: PERIODIC CELL CENTER   0 0 0
Info: WRAPPING ALL CLUSTERS AROUND PERIODIC BOUNDARIES ON OUTPUT.
Info: FIRST LDB TIMESTEP     50
Info: LAST LDB TIMESTEP     -1
Info: HOM BACKGROUND SCALING 1
Info: MIN ATOMS PER PATCH    40
Info: EMPTY PATCH LOAD       40 ATOMS
Info: INITIAL TEMPERATURE    298
Info: CENTER OF MASS MOVING INITIALLY? NO
Info: DIELECTRIC             1
Info: EXCLUDE                SCALED ONE-FOUR
Info: 1-4 ELECTROSTATICS SCALED BY 1
Info: MODIFIED 1-4 VDW PARAMETERS WILL BE USED
Info: DCD FILENAME           output.dcd
Info: DCD FREQUENCY          5
Info: DCD FIRST STEP         5
Info: DCD FILE WILL CONTAIN UNIT CELL DATA
Info: NO EXTENDED SYSTEM TRAJECTORY OUTPUT
Info: NO VELOCITY DCD OUTPUT
Info: NO FORCE DCD OUTPUT
Info: OUTPUT FILENAME        output
Info: BINARY OUTPUT FILES WILL BE USED
Info: NO RESTART FILE
Info: SWITCHING ACTIVE
Info: SWITCHING ON           10
Info: SWITCHING OFF          12
Info: PAIRLIST DISTANCE      14
Info: PAIRLIST SHRINK RATE   0.01
Info: PAIRLIST GROW RATE     0.01
Info: PAIRLIST TRIGGER       0.3
Info: PAIRLISTS PER CYCLE    2
Info: PAIRLISTS ENABLED
Info: MARGIN                 0
Info: HYDROGEN GROUP CUTOFF  2.5
Info: PATCH DIMENSION        16.5
Info: ENERGY OUTPUT STEPS    5
Info: ENERGY EVALUATION STEPS    5
Info: OUTPUT ENERGY PRECISION 4
Info: CROSSTERM ENERGY INCLUDED IN DIHEDRAL
Info: TIMING OUTPUT STEPS    5
Info: LANGEVIN DYNAMICS ACTIVE
Info: LANGEVIN TEMPERATURE   298
Info: LANGEVIN USING BBK INTEGRATOR
Info: LANGEVIN DAMPING COEFFICIENT IS 2 INVERSE PS
Info: LANGEVIN DYNAMICS APPLIED TO HYDROGENS
Info: MULTILEVEL SUMMATION METHOD (MSM) FOR ELECTROSTATICS ACTIVE
Info: MSM WITH C1 CUBIC INTERPOLATION AND C2 TAYLOR SPLITTING
Info: FULL ELECTROSTATIC EVALUATION FREQUENCY      1
Info: USING VERLET I (r-RESPA) MTS SCHEME.
Info: C1 SPLITTING OF LONG RANGE ELECTROSTATICS
Info: PLACING ATOMS IN PATCHES BY HYDROGEN GROUPS
Info: RIGID BONDS TO HYDROGEN : ALL
Info:         ERROR TOLERANCE : 1e-08
Info:          MAX ITERATIONS : 100
Info: RIGID WATER USING SETTLE ALGORITHM
Info: RANDOM NUMBER SEED     1740281742
Info: USE HYDROGEN BONDS?    NO
Info: COORDINATE PDB         ionized.pdb
Info: STRUCTURE FILE         ionized.psf
Info: PARAMETER file: CHARMM format!
Info: PARAMETERS             par_all27_prot_lipid.inp
Info: USING ARITHMETIC MEAN TO COMBINE L-J SIGMA PARAMETERS
Info: SUMMARY OF PARAMETERS:
Info: 180 BONDS
Info: 447 ANGLES
Info: 566 DIHEDRAL
Info: 46 IMPROPER
Info: 6 CROSSTERM
Info: 119 VDW
Info: 0 VDW_PAIRS
Info: 0 NBTHOLE_PAIRS
Info: STRUCTURE SUMMARY:
Info: 2476 ATOMS
Info: 1650 BONDS
Info: 825 ANGLES
Info: 0 DIHEDRALS
Info: 0 IMPROPERS
Info: 0 CROSSTERMS
Info: 0 EXCLUSIONS
Info: 2475 RIGID BONDS
Info: 4953 DEGREES OF FREEDOM
Info: 826 HYDROGEN GROUPS
Info: 3 ATOMS IN LARGEST HYDROGEN GROUP
Info: 826 MIGRATION GROUPS
Info: 3 ATOMS IN LARGEST MIGRATION GROUP
Info: TOTAL MASS = 14885.7 amu
Info: TOTAL CHARGE = 1 e
Info: MASS DENSITY = 0.915513 g/cm^3
Info: ATOM DENSITY = 0.0917037 atoms/A^3
Info: ADDED 2475 IMPLICIT EXCLUSIONS
Info: NONBONDED TABLE R-SQUARED SPACING: 0.0625
Info: NONBONDED TABLE SIZE: 769 POINTS
Info: REMOVING COM VELOCITY 0.0735097 0.0115564 0.0929062
Info: MSM using C1 cubic interpolation
Info: MSM using C2 Taylor splitting function
Info: MSM block size decomposition along X is 8 grid points
Info: MSM block size decomposition along Y is 8 grid points
Info: MSM block size decomposition along Z is 8 grid points
Info: MSM grid spacing along X is 2.5 A
Info: MSM grid spacing along Y is 2.5 A
Info: MSM grid spacing along Z is 2.5 A
Info: MSM using 3 levels
Info:     level 0:  [0..11] x [0..11] x [0..11]
Info:     level 1:  [0..5] x [0..5] x [0..5]
Info:     level 2:  [0..2] x [0..2] x [0..2]
Info: MSM finished calculating stencils
Info: MSM finished creating map for grid levels
Info: MSM finished creating map for patches
Info: MSM has 9 interpolation / anterpolation objects (one per patch)
Info: MSM grid level 0 decomposed into 8 blocks ( 2 x 2 x 2 )
Info: MSM grid level 1 decomposed into 1 block ( 1 x 1 x 1 )
Info: MSM grid level 2 decomposed into 1 block ( 1 x 1 x 1 )
Info: MSM grid cutoff calculation decomposed into 783 work objects
TCL: Minimizing for 1000 steps
ETITLE: TS BOND ANGLE DIHED IMPRP ELECT VDW BOUNDARY MISC KINETIC TOTAL TEMP POTENTIAL TOTAL3 TEMPAVG PRESSURE GPRESSURE VOLUME PRESSAVG GPRESSAVG
ENERGY: 0 0.0000 0.0000 0.0000 0.0000 -7348.6497 6353.7252 0.0000 0.0000 0.0000 -994.9246 0.0000 -994.9246 -994.9246 0.0000 75204.0846 46356.0499 27000.0000 75204.0846 46356.0499
ENERGY: 200 0.0000 0.0000 0.0000 0.0000 -10388.6887 1020.6244 0.0000 0.0000 0.0000 -9368.0643 0.0000 -9368.0643 -9368.0643 0.0000 17862.8518 17801.1099 27000.0000 17862.8518 17801.1099
ENERGY: 400 0.0000 0.0000 0.0000 0.0000 -10935.8603 1250.7510 0.0000 0.0000 0.0000 -9685.1094 0.0000 -9685.1094 -9685.1094 0.0000 20424.2326 20332.0929 27000.0000 20424.2326 20332.0929
ENERGY: 600 0.0000 0.0000 0.0000 0.0000 -11091.3420 1294.2906 0.0000 0.0000 0.0000 -9797.0513 0.0000 -9797.0513 -9797.0513 0.0000 20937.4414 20855.9658 27000.0000 20937.4414 20855.9658
ENERGY: 800 0.0000 0.0000 0.0000 0.0000 -11195.7596 1324.0812 0.0000 0.0000 0.0000 -9871.6784 0.0000 -9871.6784 -9871.6784 0.0000 21267.7338 21212.2721 27000.0000 21267.7338 21212.2721
ENERGY: 1000 0.0000 0.0000 0.0000 0.0000 -11268.9409 1344.9909 0.0000 0.0000 0.0000 -9923.9500 0.0000 -9923.9500 -9923.9500 0.0000 21500.8261 21446.1084 27000.0000 21500.8261 21446.1084
TCL: Running for 1000 steps
ETITLE: TS BOND ANGLE DIHED IMPRP ELECT VDW BOUNDARY MISC KINETIC TOTAL TEMP POTENTIAL TOTAL3 TEMPAVG PRESSURE GPRESSURE VOLUME PRESSAVG GPRESSAVG
ENERGY: 1000 0.0000 0.0000 0.0000 0.0000 -11268.9410 1344.9909 0.0000 0.0000 1444.6767 -8479.2734 293.5572 -9923.9500 -8479.4788 293.5572 -2521.7124 -2521.7124 27000.0000 -2521.7124 -2521.7124
ENERGY: 1200 0.0000 0.0000 0.0000 0.0000 -10004.7357 1125.3486 0.0000 0.0000 923.7092 -7955.6778 187.6970 -8879.3871 -7955.5408 188.2542 -1846.1956 -1756.4904 27000.0000 -1792.7281 -1787.8515
ENERGY: 1400 0.0000 0.0000 0.0000 0.0000 -9873.2031 1161.5912 0.0000 0.0000 1101.0721 -7610.5398 223.7370 -8711.6119 -7610.5582 222.2464 -799.4205 -750.2739 27000.0000 -712.6496 -706.2308
ENERGY: 1600 0.0000 0.0000 0.0000 0.0000 -9576.3724 1029.0328 0.0000 0.0000 1188.6233 -7358.7163 241.5273 -8547.3396 -7360.6001 239.8760 -1422.2211 -1328.2317 27000.0000 -1285.4728 -1260.4288
ENERGY: 1800 0.0000 0.0000 0.0000 0.0000 -9491.0144 1053.5027 0.0000 0.0000 1235.4282 -7202.0835 251.0381 -8437.5118 -7201.6720 250.4569 -843.9018 -765.6742 27000.0000 -727.3862 -737.5647
ENERGY: 2000 0.0000 0.0000 0.0000 0.0000 -9299.9369 951.5849 0.0000 0.0000 1312.9057 -7035.4463 266.7814 -8348.3520 -7034.9417 266.7638 -1328.6686 -1380.2729 27000.0000 -1400.0249 -1444.5839
