Info: SIMULATION PARAMETERS:
Info: TIMESTEP               2
Info: NUMBER OF STEPS        0
Info: STEPS PER CYCLE        10
Info: PERIODIC CELL BASIS 1  39.806 0 0
Info: PERIODIC CELL BASIS 2  0 42.118 0
Info: PERIODIC CELL BASIS 3  0 0 40.862
Info: PERIODIC CELL CENTER   0 0 0
Info: WRAPPING WATERS AROUND PERIODIC BOUNDARIES ON OUTPUT.
Info: WRAPPING ALL CLUSTERS AROUND PERIODIC BOUNDARIES ON OUTPUT.
Info: FIRST LDB TIMESTEP     50
Info: LAST LDB TIMESTEP     -1
Info: HOM BACKGROUND SCALING 1
Info: PME BACKGROUND SCALING 1
Info: MIN ATOMS PER PATCH    40
Info: EMPTY PATCH LOAD       40 ATOMS
Info: INITIAL TEMPERATURE    300
Info: CENTER OF MASS MOVING INITIALLY? NO
Info: DIELECTRIC             1
Info: EXCLUDE                SCALED ONE-FOUR
Info: 1-4 ELECTROSTATICS SCALED BY 0.833333
Info: MODIFIED 1-4 VDW PARAMETERS WILL BE USED
Info: DCD FILENAME           mobley_9534740_min.dcd
Info: DCD FREQUENCY          5000
Info: DCD FIRST STEP         5000
Info: DCD FILE WILL CONTAIN UNIT CELL DATA
Info: XST FILENAME           mobley_9534740_min.xst
Info: XST FREQUENCY          5000
Info: NO VELOCITY DCD OUTPUT
Info: NO FORCE DCD OUTPUT
Info: OUTPUT FILENAME        mobley_9534740_min
Info: BINARY OUTPUT FILES WILL BE USED
Info: RESTART FILENAME       mobley_9534740_min.restart
Info: RESTART FREQUENCY      5000
Info: BINARY RESTART FILES WILL BE USED
Info: CUTOFF                 9
Info: PAIRLIST DISTANCE      11
Info: PAIRLIST SHRINK RATE   0.01
Info: PAIRLIST GROW RATE     0.01
Info: PAIRLIST TRIGGER       0.3
Info: PAIRLISTS PER CYCLE    2
Info: PAIRLISTS ENABLED
Info: MARGIN                 8
Info: HYDROGEN GROUP CUTOFF  2.5
Info: PATCH DIMENSION        21.5
Info: ENERGY OUTPUT STEPS    5000
Info: ENERGY EVALUATION STEPS    5000
Info: OUTPUT ENERGY PRECISION 4
Info: CROSSTERM ENERGY INCLUDED IN DIHEDRAL
Info: TIMING OUTPUT STEPS    50000
Info: PRESSURE OUTPUT STEPS  5000
Info: LANGEVIN DYNAMICS ACTIVE
Info: LANGEVIN TEMPERATURE   300
Info: LANGEVIN USING BBK INTEGRATOR
Info: LANGEVIN DAMPING COEFFICIENT IS 1 INVERSE PS
Info: LANGEVIN DYNAMICS APPLIED TO HYDROGENS
Info: LANGEVIN PISTON PRESSURE CONTROL ACTIVE
Info:        TARGET PRESSURE IS 1.01325 BAR
Info:     OSCILLATION PERIOD IS 50 FS
Info:             DECAY TIME IS 25 FS
Info:     PISTON TEMPERATURE IS 300 K
Info:       PRESSURE CONTROL IS GROUP-BASED
Info:    INITIAL STRAIN RATE IS 0 0 0
Info:       CELL FLUCTUATION IS ISOTROPIC
Info: PARTICLE MESH EWALD (PME) ACTIVE
Info: PME TOLERANCE               1e-06
Info: PME EWALD COEFFICIENT       0.348832
Info: PME INTERPOLATION ORDER     4
Info: PME GRID DIMENSIONS         40 44 44
Info: PME MAXIMUM GRID SPACING    1
Info: FULL ELECTROSTATIC EVALUATION FREQUENCY      2
Info: USING VERLET I (r-RESPA) MTS SCHEME.
Info: C1 SPLITTING OF LONG RANGE ELECTROSTATICS
Info: PLACING ATOMS IN PATCHES BY HYDROGEN GROUPS
Info: RIGID BONDS TO HYDROGEN : ALL
Info:         ERROR TOLERANCE : 1e-08
Info:          MAX ITERATIONS : 100
Info: RIGID WATER USING SETTLE ALGORITHM
Info: RANDOM NUMBER SEED     1741402031
Info: USE HYDROGEN BONDS?    NO
Info: Using AMBER format force field!
Info: AMBER PARM FILE        mobley_9534740.prmtop
Info: COORDINATE PDB         mobley_9534740.pdb
Info: Exclusions will be read from PARM file!
Info: SCNB (VDW SCALING)     2
Info: USING ARITHMETIC MEAN TO COMBINE L-J SIGMA PARAMETERS
Info: SUMMARY OF PARAMETERS:
Info: 8 BONDS
Info: 13 ANGLES
Info:   13 HARMONIC
Info:   0 COSINE-BASED
Info: 18 DIHEDRAL
Info: 0 IMPROPER
Info: 0 CROSSTERM
Info: 0 VDW
Info: 36 VDW_PAIRS
Info: 0 NBTHOLE_PAIRS
Info: STRUCTURE SUMMARY:
Info: 5013 ATOMS
Info: 5013 BONDS
Info: 42 ANGLES
Info: 88 DIHEDRALS
Info: 0 IMPROPERS
Info: 0 CROSSTERMS
Info: 5118 EXCLUSIONS
Info: 5001 RIGID BONDS
Info: 10038 DEGREES OF FREEDOM
Info: 1675 HYDROGEN GROUPS
Info: 3 ATOMS IN LARGEST HYDROGEN GROUP
Info: 1675 MIGRATION GROUPS
Info: 3 ATOMS IN LARGEST MIGRATION GROUP
Info: TOTAL MASS = 30140.8 amu
Info: TOTAL CHARGE = 4.84288e-08 e
Info: MASS DENSITY = 0.730597 g/cm^3
Info: ATOM DENSITY = 0.0731748 atoms/A^3
Info: ADDED 0 IMPLICIT EXCLUSIONS
Info: NONBONDED TABLE R-SQUARED SPACING: 0.0625
Info: NONBONDED TABLE SIZE: 705 POINTS
Info: REMOVING COM VELOCITY -0.0437673 0.0123336 0.156257
TCL: Minimizing for 2000 steps
ETITLE: TS BOND ANGLE DIHED IMPRP ELECT VDW BOUNDARY MISC KINETIC TOTAL TEMP POTENTIAL TOTAL3 TEMPAVG PRESSURE GPRESSURE VOLUME PRESSAVG GPRESSAVG
ENERGY: 0 0.0695 1.7216 17.0104 0.0000 -15661.9343 1778.8980 0.0000 0.0000 0.0000 -13864.2348 0.0000 -13864.2348 -13864.2348 0.0000 11385.4929 -15965.6621 68507.1497 11385.4929 -15965.6621
ENERGY: 400 2.9394 4.1057 16.7070 0.0000 -20982.2459 3102.9144 0.0000 0.0000 0.0000 -17855.5794 0.0000 -17855.5794 -17855.5794 0.0000 16201.7318 16329.1436 68507.1497 16201.7318 16329.1436
ENERGY: 800 1.7049 2.7619 16.3890 0.0000 -22027.2832 3580.1375 0.0000 0.0000 0.0000 -18426.2899 0.0000 -18426.2899 -18426.2899 0.0000 18345.0637 18447.0906 68507.1497 18345.0637 18447.0906
ENERGY: 1200 9.2193 12.2515 16.4822 0.0000 -22588.7978 3854.0708 0.0000 0.0000 0.0000 -18696.7741 0.0000 -18696.7741 -18696.7741 0.0000 19611.3561 19704.9950 68507.1497 19611.3561 19704.9950
ENERGY: 1600 0.7049 2.1751 16.4653 0.0000 -22817.5375 3933.0719 0.0000 0.0000 0.0000 -18865.1204 0.0000 -18865.1204 -18865.1204 0.0000 20033.5289 20121.7233 68507.1497 20033.5289 20121.7233
ENERGY: 2000 0.6308 1.7938 16.4156 0.0000 -22953.3634 3996.1678 0.0000 0.0000 0.0000 -18938.3554 0.0000 -18938.3554 -18938.3554 0.0000 20339.1254 20428.2825 68507.1497 20339.1254 20428.2825
TCL: Exiting due to exit command.
Info: NAMD 3.0.1 for Linux-x86_64-multicore
Info: Please visit http://www.ks.uiuc.edu/Research/namd/
Info: for updates, documentation, and support information.
Info: Please cite Phillips et al., J. Chem. Phys. 153:044130 (2020) doi:10.1063/5.0014475
Info: in all publications reporting results obtained with NAMD.
Info: Based on Charm++/Converse 80000 for multicore-linux-x86_64-gcc
Info: Built Mon Oct 14 11:11:06 CDT 2024 by dhardy on athine.ks.uiuc.edu
Info: 1 NAMD  3.0.1  Linux-x86_64-multicore  16    k078  z5358697
Info: Running on 16 processors, 1 nodes, 1 physical nodes.
Info: CPU topology information available.
Info: Charm++/Converse parallel runtime startup completed at 0.00517108 s
Info: 1043.48 MB of memory in use based on /proc/self/stat
Info: Configuration file is mobley_9534740_equil.namd
Info: Working in the current directory /srv/scratch/z5358697/prod_prep_12/9534740
TCL: Running 25000 steps at 30 kelvin.
TCL: Suspending until startup complete.
Info: SIMULATION PARAMETERS:
Info: TIMESTEP               2
Info: NUMBER OF STEPS        0
Info: STEPS PER CYCLE        10
Info: PERIODIC CELL BASIS 1  39.806 0 0
Info: PERIODIC CELL BASIS 2  0 42.118 0
Info: PERIODIC CELL BASIS 3  0 0 40.862
Info: PERIODIC CELL CENTER   0 0 0
Info: WRAPPING WATERS AROUND PERIODIC BOUNDARIES ON OUTPUT.
Info: WRAPPING ALL CLUSTERS AROUND PERIODIC BOUNDARIES ON OUTPUT.
Info: FIRST LDB TIMESTEP     50
Info: LAST LDB TIMESTEP     -1
Info: HOM BACKGROUND SCALING 1
Info: PME BACKGROUND SCALING 1
Info: MIN ATOMS PER PATCH    40
Info: EMPTY PATCH LOAD       40 ATOMS
Info: INITIAL TEMPERATURE    300
Info: CENTER OF MASS MOVING INITIALLY? NO
Info: DIELECTRIC             1
Info: EXCLUDE                SCALED ONE-FOUR
Info: 1-4 ELECTROSTATICS SCALED BY 0.833333
Info: MODIFIED 1-4 VDW PARAMETERS WILL BE USED
Info: DCD FILENAME           mobley_9534740_equil.dcd
Info: DCD FREQUENCY          5000
Info: DCD FIRST STEP         5000
Info: DCD FILE WILL CONTAIN UNIT CELL DATA
Info: XST FILENAME           mobley_9534740_equil.xst
Info: XST FREQUENCY          5000
Info: NO VELOCITY DCD OUTPUT
Info: NO FORCE DCD OUTPUT
Info: OUTPUT FILENAME        mobley_9534740_equil
Info: BINARY OUTPUT FILES WILL BE USED
Info: RESTART FILENAME       mobley_9534740_equil.restart
Info: RESTART FREQUENCY      5000
Info: BINARY RESTART FILES WILL BE USED
Info: CUTOFF                 9
Info: PAIRLIST DISTANCE      11
Info: PAIRLIST SHRINK RATE   0.01
Info: PAIRLIST GROW RATE     0.01
Info: PAIRLIST TRIGGER       0.3
Info: PAIRLISTS PER CYCLE    2
Info: PAIRLISTS ENABLED
Info: MARGIN                 8
Info: HYDROGEN GROUP CUTOFF  2.5
Info: PATCH DIMENSION        21.5
Info: ENERGY OUTPUT STEPS    5000
Info: ENERGY EVALUATION STEPS    5000
Info: OUTPUT ENERGY PRECISION 4
Info: CROSSTERM ENERGY INCLUDED IN DIHEDRAL
Info: TIMING OUTPUT STEPS    50000
Info: PRESSURE OUTPUT STEPS  5000
Info: LANGEVIN DYNAMICS ACTIVE
Info: LANGEVIN TEMPERATURE   30
Info: LANGEVIN USING BBK INTEGRATOR
Info: LANGEVIN DAMPING COEFFICIENT IS 1 INVERSE PS
Info: LANGEVIN DYNAMICS APPLIED TO HYDROGENS
Info: LANGEVIN PISTON PRESSURE CONTROL ACTIVE
Info:        TARGET PRESSURE IS 1.01325 BAR
Info:     OSCILLATION PERIOD IS 50 FS
Info:             DECAY TIME IS 25 FS
Info:     PISTON TEMPERATURE IS 300 K
Info:       PRESSURE CONTROL IS GROUP-BASED
Info:    INITIAL STRAIN RATE IS 0 0 0
Info:       CELL FLUCTUATION IS ISOTROPIC
Info: PARTICLE MESH EWALD (PME) ACTIVE
Info: PME TOLERANCE               1e-06
Info: PME EWALD COEFFICIENT       0.348832
Info: PME INTERPOLATION ORDER     4
Info: PME GRID DIMENSIONS         40 44 44
Info: PME MAXIMUM GRID SPACING    1
Info: FULL ELECTROSTATIC EVALUATION FREQUENCY      2
Info: USING VERLET I (r-RESPA) MTS SCHEME.
Info: C1 SPLITTING OF LONG RANGE ELECTROSTATICS
Info: PLACING ATOMS IN PATCHES BY HYDROGEN GROUPS
Info: RIGID BONDS TO HYDROGEN : ALL
Info:         ERROR TOLERANCE : 1e-08
Info:          MAX ITERATIONS : 100
Info: RIGID WATER USING SETTLE ALGORITHM
Info: RANDOM NUMBER SEED     1741402047
Info: USE HYDROGEN BONDS?    NO
Info: Using AMBER format force field!
Info: AMBER PARM FILE        mobley_9534740.prmtop
Info: COORDINATE PDB         mobley_9534740.pdb
Info: Exclusions will be read from PARM file!
Info: SCNB (VDW SCALING)     2
Info: USING ARITHMETIC MEAN TO COMBINE L-J SIGMA PARAMETERS
Info: BINARY COORDINATES     mobley_9534740_min.coor
Info: SUMMARY OF PARAMETERS:
Info: 8 BONDS
Info: 13 ANGLES
Info:   13 HARMONIC
Info:   0 COSINE-BASED
Info: 18 DIHEDRAL
Info: 0 IMPROPER
Info: 0 CROSSTERM
Info: 0 VDW
Info: 36 VDW_PAIRS
Info: 0 NBTHOLE_PAIRS
Info: STRUCTURE SUMMARY:
Info: 5013 ATOMS
Info: 5013 BONDS
Info: 42 ANGLES
Info: 88 DIHEDRALS
Info: 0 IMPROPERS
Info: 0 CROSSTERMS
Info: 5118 EXCLUSIONS
Info: 5001 RIGID BONDS
Info: 10038 DEGREES OF FREEDOM
Info: 1675 HYDROGEN GROUPS
Info: 3 ATOMS IN LARGEST HYDROGEN GROUP
Info: 1675 MIGRATION GROUPS
Info: 3 ATOMS IN LARGEST MIGRATION GROUP
Info: TOTAL MASS = 30140.8 amu
Info: TOTAL CHARGE = 4.84288e-08 e
Info: MASS DENSITY = 0.730597 g/cm^3
Info: ATOM DENSITY = 0.0731748 atoms/A^3
Info: ADDED 0 IMPLICIT EXCLUSIONS
Info: NONBONDED TABLE R-SQUARED SPACING: 0.0625
Info: NONBONDED TABLE SIZE: 705 POINTS
Info: REMOVING COM VELOCITY 0.0769571 0.0234143 0.0917434
TCL: Running for 25000 steps
ETITLE: TS BOND ANGLE DIHED IMPRP ELECT VDW BOUNDARY MISC KINETIC TOTAL TEMP POTENTIAL TOTAL3 TEMPAVG PRESSURE GPRESSURE VOLUME PRESSAVG GPRESSAVG
ENERGY: 0 0.6308 1.7938 16.4156 0.0000 -22953.3634 3996.1678 0.0000 0.0000 3052.2162 -15886.1391 306.0261 -18938.3554 -15885.5464 306.0261 289.0333 330.9762 68507.1497 289.0333 330.9762
ENERGY: 5000 0.8936 3.0881 17.4188 0.0000 -23813.4955 4017.7046 0.0000 0.0000 302.0559 -19472.3345 30.2852 -19774.3904 -19471.4615 47.8397 -580.5785 -523.2555 48678.3441 2.5286 2.1706
ENERGY: 10000 1.2533 2.9303 16.8863 0.0000 -23881.9072 4026.2976 0.0000 0.0000 295.8768 -19538.6629 29.6657 -19834.5397 -19537.8287 30.3430 -662.6480 -599.7739 48627.9671 1.3350 1.3371
ENERGY: 15000 1.0988 2.8440 16.9916 0.0000 -24087.8398 4223.7930 0.0000 0.0000 300.1133 -19542.9991 30.0904 -19843.1124 -19542.0305 29.9152 283.8679 345.0235 48338.0335 3.6155 3.6509
ENERGY: 20000 1.0545 1.6143 16.9104 0.0000 -23892.9987 4003.9168 0.0000 0.0000 292.8904 -19576.6123 29.3662 -19869.5026 -19575.7941 30.3588 -906.5650 -849.6735 48636.7252 3.7186 3.7685
ENERGY: 25000 1.0901 2.4802 16.5517 0.0000 -23985.9700 4086.2732 0.0000 0.0000 297.9972 -19581.5776 29.8783 -19879.5748 -19580.8133 30.1603 -369.0401 -308.6476 48260.5123 1.3830 1.4463
TCL: Running 25000 steps at 60 kelvin.
TCL: Setting parameter langevinTemp to 60
TCL: Running for 25000 steps
ETITLE: TS BOND ANGLE DIHED IMPRP ELECT VDW BOUNDARY MISC KINETIC TOTAL TEMP POTENTIAL TOTAL3 TEMPAVG PRESSURE GPRESSURE VOLUME PRESSAVG GPRESSAVG
ENERGY: 25000 1.0901 2.4802 16.5517 0.0000 -23985.9700 4086.2732 0.0000 0.0000 297.8443 -19581.7305 29.8629 -19879.5748 -19581.0735 29.8629 -361.6558 -308.8096 48260.5123 -361.6558 -308.8096
ENERGY: 30000 1.3496 4.5774 16.7643 0.0000 -23708.4489 4064.5899 0.0000 0.0000 607.1038 -19014.0640 60.8704 -19621.1678 -19012.2438 57.3231 163.1092 223.9390 48303.9159 3.0069 3.1049
ENERGY: 35000 0.7874 2.9624 17.3654 0.0000 -23829.3952 4129.6386 0.0000 0.0000 600.1344 -19078.5070 60.1716 -19678.6414 -19077.0750 60.0582 330.9364 386.3254 48073.3742 1.7556 2.0859
ENERGY: 40000 1.8440 3.7215 17.5954 0.0000 -23587.6588 3858.7484 0.0000 0.0000 596.6629 -19109.0865 59.8236 -19705.7494 -19107.8489 60.0295 -1100.2711 -1037.9733 48393.0171 -1.9711 -1.7737
ENERGY: 45000 0.6767 3.2601 17.5191 0.0000 -23817.9438 4056.1762 0.0000 0.0000 592.2109 -19148.1007 59.3772 -19740.3117 -19146.8651 60.3529 -192.8347 -115.2843 48151.4878 3.5475 3.5064
ENERGY: 50000 1.4352 3.7713 17.3142 0.0000 -23822.5117 4058.5354 0.0000 0.0000 592.4721 -19148.9834 59.4034 -19741.4556 -19147.7072 60.0230 -217.9869 -144.5194 48112.0475 -0.0718 0.1813
TCL: Running 25000 steps at 90 kelvin.
TCL: Setting parameter langevinTemp to 90
TCL: Running for 25000 steps
ETITLE: TS BOND ANGLE DIHED IMPRP ELECT VDW BOUNDARY MISC KINETIC TOTAL TEMP POTENTIAL TOTAL3 TEMPAVG PRESSURE GPRESSURE VOLUME PRESSAVG GPRESSAVG
ENERGY: 50000 1.4352 3.7713 17.3142 0.0000 -23822.5117 4058.5354 0.0000 0.0000 592.1738 -19149.2818 59.3735 -19741.4556 -19148.0853 59.3735 -216.4565 -144.3810 48112.0475 -216.4565 -144.3810
ENERGY: 55000 0.9632 3.7935 17.1796 0.0000 -23508.1258 4003.4522 0.0000 0.0000 898.6500 -18584.0874 90.1019 -19482.7375 -18582.7932 86.9323 133.9855 201.3837 48337.5885 2.4881 2.7676
ENERGY: 60000 1.5311 5.0035 17.1800 0.0000 -23515.9931 4012.0176 0.0000 0.0000 898.2578 -18582.0030 90.0625 -19480.2608 -18579.8793 90.6026 22.0933 130.0040 48510.5023 3.5440 3.4568
ENERGY: 65000 0.7865 6.2468 17.6129 0.0000 -23432.0194 3887.8565 0.0000 0.0000 900.2129 -18619.3039 90.2586 -19519.5168 -18616.6298 91.2236 -592.9458 -516.1437 48587.2506 -1.4251 -1.3839
ENERGY: 70000 1.2193 5.6983 17.2318 0.0000 -23471.2733 3903.3684 0.0000 0.0000 909.7178 -18634.0377 91.2116 -19543.7555 -18630.4759 89.8462 -644.1915 -568.2089 48665.4278 1.4667 1.6471
ENERGY: 75000 1.6297 5.0454 17.2081 0.0000 -23604.0141 4014.4175 0.0000 0.0000 916.4963 -18649.2171 91.8912 -19565.7134 -18647.4787 89.7657 -100.4877 -27.0897 48501.7847 -0.6834 -0.4471
TCL: Running 25000 steps at 120 kelvin.
TCL: Setting parameter langevinTemp to 120
TCL: Running for 25000 steps
ETITLE: TS BOND ANGLE DIHED IMPRP ELECT VDW BOUNDARY MISC KINETIC TOTAL TEMP POTENTIAL TOTAL3 TEMPAVG PRESSURE GPRESSURE VOLUME PRESSAVG GPRESSAVG
ENERGY: 75000 1.6297 5.0454 17.2081 0.0000 -23604.0141 4014.4175 0.0000 0.0000 916.0485 -18649.6649 91.8463 -19565.7134 -18647.6565 91.8463 -79.4629 -28.1902 48501.7847 -79.4629 -28.1902
ENERGY: 80000 1.4223 6.0483 17.1372 0.0000 -23369.5652 4091.8274 0.0000 0.0000 1184.9431 -18068.1869 118.8066 -19253.1300 -18064.7341 116.3558 1020.5565 1053.3733 48518.6207 1.2898 1.3352
ENERGY: 85000 2.6635 5.2113 16.8620 0.0000 -23365.8188 4054.0725 0.0000 0.0000 1206.3449 -18080.6646 120.9525 -19287.0094 -18077.2557 119.5195 706.0554 768.4581 48523.3135 5.5251 5.1032
ENERGY: 90000 1.6417 4.5670 17.4092 0.0000 -23114.9178 3856.6801 0.0000 0.0000 1179.0421 -18055.5777 118.2150 -19234.6198 -18052.5112 120.7314 -151.3017 -118.5727 48807.4196 3.9745 3.9876
ENERGY: 95000 1.9418 7.0599 17.0455 0.0000 -23140.9147 3834.0184 0.0000 0.0000 1202.9685 -18077.8806 120.6139 -19280.8491 -18075.7309 120.7104 -382.4952 -356.0503 48792.1648 -0.5794 -0.1667
ENERGY: 100000 2.5257 5.7533 17.4649 0.0000 -23278.0279 3903.4624 0.0000 0.0000 1197.3060 -18151.5156 120.0462 -19348.8216 -18148.3779 120.3628 -147.9811 -113.9184 48706.2330 0.7323 0.9508
TCL: Running 25000 steps at 150 kelvin.
TCL: Setting parameter langevinTemp to 150
TCL: Running for 25000 steps
ETITLE: TS BOND ANGLE DIHED IMPRP ELECT VDW BOUNDARY MISC KINETIC TOTAL TEMP POTENTIAL TOTAL3 TEMPAVG PRESSURE GPRESSURE VOLUME PRESSAVG GPRESSAVG
ENERGY: 100000 2.5257 5.7533 17.4649 0.0000 -23278.0279 3903.4624 0.0000 0.0000 1196.7024 -18152.1192 119.9857 -19348.8216 -18149.3502 119.9857 -156.4325 -114.1430 48706.2330 -156.4325 -114.1430
ENERGY: 105000 3.0711 6.0934 18.1782 0.0000 -22701.6436 3719.5176 0.0000 0.0000 1486.1400 -17468.6434 149.0057 -18954.7834 -17465.7437 146.8879 -222.8987 -143.1661 48840.5975 7.5911 7.8505
ENERGY: 110000 2.3045 5.1930 17.5081 0.0000 -22652.6676 3627.3316 0.0000 0.0000 1479.2760 -17521.0544 148.3175 -19000.3303 -17517.6102 150.6938 -844.8978 -728.5711 49141.1253 2.6081 2.4907
ENERGY: 115000 1.5619 3.9612 16.4470 0.0000 -22837.9528 3761.6777 0.0000 0.0000 1520.8424 -17533.4627 152.4851 -19054.3050 -17530.1731 149.1473 -172.0571 -119.7866 48875.1745 -0.0039 -0.0751
ENERGY: 120000 1.8409 5.6493 17.7810 0.0000 -22784.0725 3734.2657 0.0000 0.0000 1512.5826 -17511.9531 151.6569 -19024.5356 -17509.6652 150.2354 -294.8238 -247.9057 48948.7384 8.0036 8.1881
ENERGY: 125000 2.9682 7.3323 17.0806 0.0000 -22836.7402 3769.3053 0.0000 0.0000 1488.2371 -17551.8167 149.2160 -19040.0538 -17549.2340 149.3154 -226.0624 -141.1259 49004.9011 -0.5301 -0.6514
TCL: Running 50000 steps at 180 kelvin.
TCL: Setting parameter langevinTemp to 180
TCL: Running for 50000 steps
ETITLE: TS BOND ANGLE DIHED IMPRP ELECT VDW BOUNDARY MISC KINETIC TOTAL TEMP POTENTIAL TOTAL3 TEMPAVG PRESSURE GPRESSURE VOLUME PRESSAVG GPRESSAVG
ENERGY: 125000 2.9682 7.3323 17.0806 0.0000 -22836.7402 3769.3053 0.0000 0.0000 1487.5022 -17552.5516 149.1423 -19040.0538 -17549.5180 149.1423 -204.6543 -142.5699 49004.9011 -204.6543 -142.5699
ENERGY: 135000 3.6349 5.3399 16.8977 0.0000 -22077.2857 3525.2709 0.0000 0.0000 1797.4988 -16728.6435 180.2237 -18526.1423 -16724.5807 180.9619 -444.3506 -356.4591 49404.5402 3.0409 2.7953
ENERGY: 145000 2.6878 5.5091 17.4621 0.0000 -22186.2176 3579.7127 0.0000 0.0000 1779.4955 -16801.3504 178.4186 -18580.8459 -16795.2886 179.3911 -187.2713 -83.6364 49248.1030 7.4910 7.3250
ENERGY: 155000 1.8833 11.9320 16.8085 0.0000 -22291.0836 3620.6787 0.0000 0.0000 1793.4606 -16846.3206 179.8188 -18639.7812 -16843.3005 180.9988 -91.9098 27.5295 49177.7730 4.3264 4.4632
ENERGY: 165000 2.5512 7.5175 18.0030 0.0000 -22241.4907 3587.6350 0.0000 0.0000 1784.3462 -16841.4379 178.9049 -18625.7841 -16835.4180 179.8274 -36.8128 41.1293 48816.3546 2.3463 2.4586
ENERGY: 175000 2.8983 5.4414 17.5688 0.0000 -22344.3444 3692.9889 0.0000 0.0000 1804.6956 -16820.7515 180.9452 -18625.4471 -16818.4979 178.9004 290.9436 356.1052 49022.2105 6.8180 7.0222
TCL: Running 50000 steps at 210 kelvin.
TCL: Setting parameter langevinTemp to 210
TCL: Running for 50000 steps
ETITLE: TS BOND ANGLE DIHED IMPRP ELECT VDW BOUNDARY MISC KINETIC TOTAL TEMP POTENTIAL TOTAL3 TEMPAVG PRESSURE GPRESSURE VOLUME PRESSAVG GPRESSAVG
ENERGY: 175000 2.8983 5.4414 17.5688 0.0000 -22344.3444 3692.9889 0.0000 0.0000 1803.8085 -16821.6385 180.8563 -18625.4471 -16818.4477 180.8563 293.3482 354.8382 49022.2105 293.3482 354.8382
ENERGY: 185000 3.5377 6.4440 17.4516 0.0000 -21118.0803 3277.3375 0.0000 0.0000 2064.5363 -15748.7732 206.9978 -17813.3095 -15743.8334 209.2639 223.7744 271.9658 48838.7798 4.6592 4.0914
ENERGY: 195000 4.0240 6.8390 16.5767 0.0000 -21025.6215 3205.2140 0.0000 0.0000 2117.0334 -15675.9345 212.2613 -17792.9679 -15672.8108 210.9867 -160.1784 -61.9832 48937.3099 3.6301 3.4352
ENERGY: 205000 4.6935 6.5600 16.5698 0.0000 -21040.9278 3218.2072 0.0000 0.0000 2072.3272 -15722.5701 207.7789 -17794.8974 -15715.2177 211.2670 -151.8426 -105.0044 49173.1479 2.9240 2.8164
ENERGY: 215000 3.7227 9.7012 17.3692 0.0000 -21088.6815 3197.2520 0.0000 0.0000 2132.5384 -15728.0979 213.8159 -17860.6363 -15724.4805 210.7962 -278.9885 -169.9373 48927.0167 6.8809 6.7866
ENERGY: 225000 4.8215 8.8886 18.1543 0.0000 -21090.6054 3216.3680 0.0000 0.0000 2117.1995 -15725.1734 212.2780 -17842.3729 -15719.2467 210.0274 -241.8043 -146.1290 49130.7894 5.3524 5.4068
TCL: Running 50000 steps at 240 kelvin.
TCL: Setting parameter langevinTemp to 240
TCL: Running for 50000 steps
ETITLE: TS BOND ANGLE DIHED IMPRP ELECT VDW BOUNDARY MISC KINETIC TOTAL TEMP POTENTIAL TOTAL3 TEMPAVG PRESSURE GPRESSURE VOLUME PRESSAVG GPRESSAVG
ENERGY: 225000 4.8215 8.8886 18.1543 0.0000 -21090.6054 3216.3680 0.0000 0.0000 2116.1670 -15726.2059 212.1745 -17842.3729 -15722.5929 212.1745 -223.0651 -145.3665 49130.7894 -223.0651 -145.3665
ENERGY: 235000 1.6573 8.4275 17.5841 0.0000 -19909.8264 2831.7280 0.0000 0.0000 2353.2683 -14697.1612 235.9471 -17050.4295 -14692.4391 241.2412 -490.0042 -405.3886 49786.9785 3.3409 3.7763
ENERGY: 245000 2.2155 10.1494 17.6250 0.0000 -19981.9204 2962.5886 0.0000 0.0000 2372.3953 -14616.9466 237.8648 -16989.3419 -14611.7962 241.8668 320.1619 362.2307 49364.0661 -1.3415 -1.9695
ENERGY: 255000 6.6351 7.6850 18.0186 0.0000 -20073.2308 2999.9066 0.0000 0.0000 2331.2986 -14709.6869 233.7443 -17040.9855 -14704.3476 240.1638 247.4341 362.9962 49393.6425 4.4530 3.9081
ENERGY: 265000 4.3874 5.5284 18.3977 0.0000 -20010.5924 2944.4407 0.0000 0.0000 2428.0082 -14609.8299 243.4408 -17037.8381 -14604.4787 238.4349 158.5801 223.8372 49187.6951 1.9007 1.6584
ENERGY: 275000 4.2127 10.7563 18.2273 0.0000 -20132.9471 2918.4852 0.0000 0.0000 2459.4715 -14721.7941 246.5954 -17181.2656 -14714.6446 238.5747 -310.8550 -227.9760 49514.0422 6.2241 6.8637
TCL: Running 50000 steps at 270 kelvin.
TCL: Setting parameter langevinTemp to 270
TCL: Running for 50000 steps
ETITLE: TS BOND ANGLE DIHED IMPRP ELECT VDW BOUNDARY MISC KINETIC TOTAL TEMP POTENTIAL TOTAL3 TEMPAVG PRESSURE GPRESSURE VOLUME PRESSAVG GPRESSAVG
ENERGY: 275000 4.2127 10.7563 18.2273 0.0000 -20132.9471 2918.4852 0.0000 0.0000 2458.2667 -14722.9989 246.4746 -17181.2656 -14719.4734 246.4746 -315.9622 -226.9880 49514.0422 -315.9622 -226.9880
ENERGY: 285000 1.9905 11.6414 17.6662 0.0000 -18982.3448 2580.0699 0.0000 0.0000 2657.7587 -13713.2180 266.4764 -16370.9767 -13709.6526 268.5156 -310.1508 -268.1875 49699.4185 4.0701 4.0747
ENERGY: 295000 3.5633 12.4165 19.9660 0.0000 -19104.7523 2773.6113 0.0000 0.0000 2694.2238 -13600.9713 270.1325 -16295.1951 -13595.7388 271.8084 682.6863 772.2740 50147.2672 3.2846 3.5971
ENERGY: 305000 4.8156 11.3740 17.1364 0.0000 -18949.2421 2551.6605 0.0000 0.0000 2643.2454 -13721.0102 265.0212 -16364.2556 -13713.9225 268.1248 -614.8588 -509.7235 50184.7262 0.9741 0.4179
ENERGY: 315000 2.6240 9.1087 17.9919 0.0000 -18863.4528 2515.2958 0.0000 0.0000 2747.8642 -13570.5681 275.5107 -16318.4323 -13563.6248 269.7577 -592.2915 -521.8385 50058.7092 -0.0806 0.0046
ENERGY: 325000 4.6058 11.8109 17.3126 0.0000 -19253.2900 2698.2850 0.0000 0.0000 2637.1720 -13884.1037 264.4123 -16521.2757 -13876.5802 268.9886 -262.7692 -217.2809 50745.8068 2.6235 2.8445
TCL: Running 1000000 steps at 300 kelvin.
TCL: Setting parameter langevinTemp to 300
TCL: Running for 1000000 steps
ETITLE: TS BOND ANGLE DIHED IMPRP ELECT VDW BOUNDARY MISC KINETIC TOTAL TEMP POTENTIAL TOTAL3 TEMPAVG PRESSURE GPRESSURE VOLUME PRESSAVG GPRESSAVG
ENERGY: 325000 4.6058 11.8109 17.3126 0.0000 -19253.2900 2698.2850 0.0000 0.0000 2635.8645 -13885.4113 264.2812 -16521.2757 -13881.4542 264.2812 -291.9462 -214.7109 50745.8068 -291.9462 -214.7109
ENERGY: 525000 4.0012 13.7364 17.4711 0.0000 -18140.7738 2388.4078 0.0000 0.0000 2969.5844 -12747.5729 297.7411 -15717.1573 -12741.4156 299.7288 -433.9091 -355.0152 51792.1493 -2.4079 -2.2235
ENERGY: 725000 5.7500 14.5285 19.3642 0.0000 -18318.3297 2537.8787 0.0000 0.0000 2943.3379 -12797.4702 295.1096 -15740.8082 -12798.9993 300.6496 119.2702 223.0825 51575.2883 5.3511 5.6370
ENERGY: 925000 3.7267 9.4362 17.6148 0.0000 -18094.2826 2327.4673 0.0000 0.0000 2961.0055 -12775.0322 296.8810 -15736.0376 -12768.6243 299.7964 -714.9914 -570.5953 51585.3483 2.5702 2.8487
ENERGY: 1125000 4.6073 10.0612 17.3158 0.0000 -18193.4489 2487.2094 0.0000 0.0000 3009.7051 -12664.5501 301.7638 -15674.2552 -12654.8943 299.1963 129.3822 225.7158 51897.2945 1.2466 1.4747
ENERGY: 1325000 3.1805 19.3047 17.9890 0.0000 -18253.9540 2562.1203 0.0000 0.0000 3074.4931 -12576.8664 308.2597 -15651.3595 -12568.1043 301.4505 760.9644 823.4286 51226.0887 1.7310 0.5480
TCL: Exiting due to exit command.
