Info: SIMULATION PARAMETERS:
Info: TIMESTEP               2
Info: NUMBER OF STEPS        0
Info: STEPS PER CYCLE        10
Info: PERIODIC CELL BASIS 1  39.546 0 0
Info: PERIODIC CELL BASIS 2  0 42.118 0
Info: PERIODIC CELL BASIS 3  0 0 40.136
Info: PERIODIC CELL CENTER   0 0 0
Info: WRAPPING WATERS AROUND PERIODIC BOUNDARIES ON OUTPUT.
Info: WRAPPING ALL CLUSTERS AROUND PERIODIC BOUNDARIES ON OUTPUT.
Info: FIRST LDB TIMESTEP     50
Info: LAST LDB TIMESTEP     -1
Info: HOM BACKGROUND SCALING 1
Info: PME BACKGROUND SCALING 1
Info: MIN ATOMS PER PATCH    40
Info: EMPTY PATCH LOAD       40 ATOMS
Info: INITIAL TEMPERATURE    300
Info: CENTER OF MASS MOVING INITIALLY? NO
Info: DIELECTRIC             1
Info: EXCLUDE                SCALED ONE-FOUR
Info: 1-4 ELECTROSTATICS SCALED BY 0.833333
Info: MODIFIED 1-4 VDW PARAMETERS WILL BE USED
Info: DCD FILENAME           mobley_9974966_min.dcd
Info: DCD FREQUENCY          5000
Info: DCD FIRST STEP         5000
Info: DCD FILE WILL CONTAIN UNIT CELL DATA
Info: XST FILENAME           mobley_9974966_min.xst
Info: XST FREQUENCY          5000
Info: NO VELOCITY DCD OUTPUT
Info: NO FORCE DCD OUTPUT
Info: OUTPUT FILENAME        mobley_9974966_min
Info: BINARY OUTPUT FILES WILL BE USED
Info: RESTART FILENAME       mobley_9974966_min.restart
Info: RESTART FREQUENCY      5000
Info: BINARY RESTART FILES WILL BE USED
Info: CUTOFF                 9
Info: PAIRLIST DISTANCE      11
Info: PAIRLIST SHRINK RATE   0.01
Info: PAIRLIST GROW RATE     0.01
Info: PAIRLIST TRIGGER       0.3
Info: PAIRLISTS PER CYCLE    2
Info: PAIRLISTS ENABLED
Info: MARGIN                 8
Info: HYDROGEN GROUP CUTOFF  2.5
Info: PATCH DIMENSION        21.5
Info: ENERGY OUTPUT STEPS    5000
Info: ENERGY EVALUATION STEPS    5000
Info: OUTPUT ENERGY PRECISION 4
Info: CROSSTERM ENERGY INCLUDED IN DIHEDRAL
Info: TIMING OUTPUT STEPS    50000
Info: PRESSURE OUTPUT STEPS  5000
Info: LANGEVIN DYNAMICS ACTIVE
Info: LANGEVIN TEMPERATURE   300
Info: LANGEVIN USING BBK INTEGRATOR
Info: LANGEVIN DAMPING COEFFICIENT IS 1 INVERSE PS
Info: LANGEVIN DYNAMICS APPLIED TO HYDROGENS
Info: LANGEVIN PISTON PRESSURE CONTROL ACTIVE
Info:        TARGET PRESSURE IS 1.01325 BAR
Info:     OSCILLATION PERIOD IS 50 FS
Info:             DECAY TIME IS 25 FS
Info:     PISTON TEMPERATURE IS 300 K
Info:       PRESSURE CONTROL IS GROUP-BASED
Info:    INITIAL STRAIN RATE IS 0 0 0
Info:       CELL FLUCTUATION IS ISOTROPIC
Info: PARTICLE MESH EWALD (PME) ACTIVE
Info: PME TOLERANCE               1e-06
Info: PME EWALD COEFFICIENT       0.348832
Info: PME INTERPOLATION ORDER     4
Info: PME GRID DIMENSIONS         40 44 44
Info: PME MAXIMUM GRID SPACING    1
Info: FULL ELECTROSTATIC EVALUATION FREQUENCY      2
Info: USING VERLET I (r-RESPA) MTS SCHEME.
Info: C1 SPLITTING OF LONG RANGE ELECTROSTATICS
Info: PLACING ATOMS IN PATCHES BY HYDROGEN GROUPS
Info: RIGID BONDS TO HYDROGEN : ALL
Info:         ERROR TOLERANCE : 1e-08
Info:          MAX ITERATIONS : 100
Info: RIGID WATER USING SETTLE ALGORITHM
Info: RANDOM NUMBER SEED     1741403700
Info: USE HYDROGEN BONDS?    NO
Info: Using AMBER format force field!
Info: AMBER PARM FILE        mobley_9974966.prmtop
Info: COORDINATE PDB         mobley_9974966.pdb
Info: Exclusions will be read from PARM file!
Info: SCNB (VDW SCALING)     2
Info: USING ARITHMETIC MEAN TO COMBINE L-J SIGMA PARAMETERS
Info: SUMMARY OF PARAMETERS:
Info: 6 BONDS
Info: 7 ANGLES
Info:   7 HARMONIC
Info:   0 COSINE-BASED
Info: 4 DIHEDRAL
Info: 0 IMPROPER
Info: 0 CROSSTERM
Info: 0 VDW
Info: 21 VDW_PAIRS
Info: 0 NBTHOLE_PAIRS
Info: STRUCTURE SUMMARY:
Info: 4848 ATOMS
Info: 4847 BONDS
Info: 37 ANGLES
Info: 42 DIHEDRALS
Info: 0 IMPROPERS
Info: 0 CROSSTERMS
Info: 4926 EXCLUSIONS
Info: 4841 RIGID BONDS
Info: 9703 DEGREES OF FREEDOM
Info: 1616 HYDROGEN GROUPS
Info: 4 ATOMS IN LARGEST HYDROGEN GROUP
Info: 1616 MIGRATION GROUPS
Info: 4 ATOMS IN LARGEST MIGRATION GROUP
Info: TOTAL MASS = 29106 amu
Info: TOTAL CHARGE = 0.000399999 e
Info: MASS DENSITY = 0.722998 g/cm^3
Info: ATOM DENSITY = 0.0725201 atoms/A^3
Info: ADDED 0 IMPLICIT EXCLUSIONS
Info: NONBONDED TABLE R-SQUARED SPACING: 0.0625
Info: NONBONDED TABLE SIZE: 705 POINTS
Info: REMOVING COM VELOCITY 0.191082 -0.0884273 -0.138196
TCL: Minimizing for 2000 steps
ETITLE: TS BOND ANGLE DIHED IMPRP ELECT VDW BOUNDARY MISC KINETIC TOTAL TEMP POTENTIAL TOTAL3 TEMPAVG PRESSURE GPRESSURE VOLUME PRESSAVG GPRESSAVG
ENERGY: 0 0.3404 0.6561 1.3629 0.0000 -15015.3210 1689.8364 0.0000 0.0000 0.0000 -13323.1251 0.0000 -13323.1251 -13323.1251 0.0000 11055.8059 -15798.4087 66850.4585 11055.8059 -15798.4087
ENERGY: 400 2.7393 2.7524 1.4990 0.0000 -20445.2518 3076.9506 0.0000 0.0000 0.0000 -17361.3107 0.0000 -17361.3107 -17361.3107 0.0000 16337.4723 16168.6096 66850.4585 16337.4723 16168.6096
ENERGY: 800 11.4136 6.7348 1.5819 0.0000 -21433.7074 3478.5807 0.0000 0.0000 0.0000 -17935.3964 0.0000 -17935.3964 -17935.3964 0.0000 18195.2740 17960.9812 66850.4585 18195.2740 17960.9812
ENERGY: 1200 3.4041 2.4024 1.6624 0.0000 -21968.1660 3742.9739 0.0000 0.0000 0.0000 -18217.7233 0.0000 -18217.7233 -18217.7233 0.0000 19492.3207 19176.9535 66850.4585 19492.3207 19176.9535
ENERGY: 1600 0.2395 0.5153 1.6985 0.0000 -22163.2655 3823.1615 0.0000 0.0000 0.0000 -18337.6508 0.0000 -18337.6508 -18337.6508 0.0000 19886.4135 19560.1279 66850.4585 19886.4135 19560.1279
ENERGY: 2000 0.0709 0.5399 1.5954 0.0000 -22296.7281 3882.9496 0.0000 0.0000 0.0000 -18411.5723 0.0000 -18411.5723 -18411.5723 0.0000 20198.8449 19864.1112 66850.4585 20198.8449 19864.1112
TCL: Exiting due to exit command.
Info: NAMD 3.0.1 for Linux-x86_64-multicore
Info: Please visit http://www.ks.uiuc.edu/Research/namd/
Info: for updates, documentation, and support information.
Info: Please cite Phillips et al., J. Chem. Phys. 153:044130 (2020) doi:10.1063/5.0014475
Info: in all publications reporting results obtained with NAMD.
Info: Based on Charm++/Converse 80000 for multicore-linux-x86_64-gcc
Info: Built Mon Oct 14 11:11:06 CDT 2024 by dhardy on athine.ks.uiuc.edu
Info: 1 NAMD  3.0.1  Linux-x86_64-multicore  16    k062  z5358697
Info: Running on 16 processors, 1 nodes, 1 physical nodes.
Info: CPU topology information available.
Info: Charm++/Converse parallel runtime startup completed at 0.00837662 s
Info: 1043.46 MB of memory in use based on /proc/self/stat
Info: Configuration file is mobley_9974966_equil.namd
Info: Working in the current directory /srv/scratch/z5358697/prod_prep_12/9974966
TCL: Running 25000 steps at 30 kelvin.
TCL: Suspending until startup complete.
Info: SIMULATION PARAMETERS:
Info: TIMESTEP               2
Info: NUMBER OF STEPS        0
Info: STEPS PER CYCLE        10
Info: PERIODIC CELL BASIS 1  39.546 0 0
Info: PERIODIC CELL BASIS 2  0 42.118 0
Info: PERIODIC CELL BASIS 3  0 0 40.136
Info: PERIODIC CELL CENTER   0 0 0
Info: WRAPPING WATERS AROUND PERIODIC BOUNDARIES ON OUTPUT.
Info: WRAPPING ALL CLUSTERS AROUND PERIODIC BOUNDARIES ON OUTPUT.
Info: FIRST LDB TIMESTEP     50
Info: LAST LDB TIMESTEP     -1
Info: HOM BACKGROUND SCALING 1
Info: PME BACKGROUND SCALING 1
Info: MIN ATOMS PER PATCH    40
Info: EMPTY PATCH LOAD       40 ATOMS
Info: INITIAL TEMPERATURE    300
Info: CENTER OF MASS MOVING INITIALLY? NO
Info: DIELECTRIC             1
Info: EXCLUDE                SCALED ONE-FOUR
Info: 1-4 ELECTROSTATICS SCALED BY 0.833333
Info: MODIFIED 1-4 VDW PARAMETERS WILL BE USED
Info: DCD FILENAME           mobley_9974966_equil.dcd
Info: DCD FREQUENCY          5000
Info: DCD FIRST STEP         5000
Info: DCD FILE WILL CONTAIN UNIT CELL DATA
Info: XST FILENAME           mobley_9974966_equil.xst
Info: XST FREQUENCY          5000
Info: NO VELOCITY DCD OUTPUT
Info: NO FORCE DCD OUTPUT
Info: OUTPUT FILENAME        mobley_9974966_equil
Info: BINARY OUTPUT FILES WILL BE USED
Info: RESTART FILENAME       mobley_9974966_equil.restart
Info: RESTART FREQUENCY      5000
Info: BINARY RESTART FILES WILL BE USED
Info: CUTOFF                 9
Info: PAIRLIST DISTANCE      11
Info: PAIRLIST SHRINK RATE   0.01
Info: PAIRLIST GROW RATE     0.01
Info: PAIRLIST TRIGGER       0.3
Info: PAIRLISTS PER CYCLE    2
Info: PAIRLISTS ENABLED
Info: MARGIN                 8
Info: HYDROGEN GROUP CUTOFF  2.5
Info: PATCH DIMENSION        21.5
Info: ENERGY OUTPUT STEPS    5000
Info: ENERGY EVALUATION STEPS    5000
Info: OUTPUT ENERGY PRECISION 4
Info: CROSSTERM ENERGY INCLUDED IN DIHEDRAL
Info: TIMING OUTPUT STEPS    50000
Info: PRESSURE OUTPUT STEPS  5000
Info: LANGEVIN DYNAMICS ACTIVE
Info: LANGEVIN TEMPERATURE   30
Info: LANGEVIN USING BBK INTEGRATOR
Info: LANGEVIN DAMPING COEFFICIENT IS 1 INVERSE PS
Info: LANGEVIN DYNAMICS APPLIED TO HYDROGENS
Info: LANGEVIN PISTON PRESSURE CONTROL ACTIVE
Info:        TARGET PRESSURE IS 1.01325 BAR
Info:     OSCILLATION PERIOD IS 50 FS
Info:             DECAY TIME IS 25 FS
Info:     PISTON TEMPERATURE IS 300 K
Info:       PRESSURE CONTROL IS GROUP-BASED
Info:    INITIAL STRAIN RATE IS 0 0 0
Info:       CELL FLUCTUATION IS ISOTROPIC
Info: PARTICLE MESH EWALD (PME) ACTIVE
Info: PME TOLERANCE               1e-06
Info: PME EWALD COEFFICIENT       0.348832
Info: PME INTERPOLATION ORDER     4
Info: PME GRID DIMENSIONS         40 44 44
Info: PME MAXIMUM GRID SPACING    1
Info: FULL ELECTROSTATIC EVALUATION FREQUENCY      2
Info: USING VERLET I (r-RESPA) MTS SCHEME.
Info: C1 SPLITTING OF LONG RANGE ELECTROSTATICS
Info: PLACING ATOMS IN PATCHES BY HYDROGEN GROUPS
Info: RIGID BONDS TO HYDROGEN : ALL
Info:         ERROR TOLERANCE : 1e-08
Info:          MAX ITERATIONS : 100
Info: RIGID WATER USING SETTLE ALGORITHM
Info: RANDOM NUMBER SEED     1741403717
Info: USE HYDROGEN BONDS?    NO
Info: Using AMBER format force field!
Info: AMBER PARM FILE        mobley_9974966.prmtop
Info: COORDINATE PDB         mobley_9974966.pdb
Info: Exclusions will be read from PARM file!
Info: SCNB (VDW SCALING)     2
Info: USING ARITHMETIC MEAN TO COMBINE L-J SIGMA PARAMETERS
Info: BINARY COORDINATES     mobley_9974966_min.coor
Info: SUMMARY OF PARAMETERS:
Info: 6 BONDS
Info: 7 ANGLES
Info: 4 DIHEDRAL
Info: 0 IMPROPER
Info: 0 CROSSTERM
Info: 0 VDW
Info: 21 VDW_PAIRS
Info: 0 NBTHOLE_PAIRS
Info: STRUCTURE SUMMARY:
Info: 4848 ATOMS
Info: 4847 BONDS
Info: 37 ANGLES
Info: 42 DIHEDRALS
Info: 0 IMPROPERS
Info: 0 CROSSTERMS
Info: 4926 EXCLUSIONS
Info: 4841 RIGID BONDS
Info: 9703 DEGREES OF FREEDOM
Info: 1616 HYDROGEN GROUPS
Info: 4 ATOMS IN LARGEST HYDROGEN GROUP
Info: 1616 MIGRATION GROUPS
Info: 4 ATOMS IN LARGEST MIGRATION GROUP
Info: TOTAL MASS = 29106 amu
Info: TOTAL CHARGE = 0.000399999 e
Info: MASS DENSITY = 0.722998 g/cm^3
Info: ATOM DENSITY = 0.0725201 atoms/A^3
Info: ADDED 0 IMPLICIT EXCLUSIONS
Info: NONBONDED TABLE R-SQUARED SPACING: 0.0625
Info: NONBONDED TABLE SIZE: 705 POINTS
Info: REMOVING COM VELOCITY -0.0571481 -0.0716775 0.00686222
TCL: Running for 25000 steps
ETITLE: TS BOND ANGLE DIHED IMPRP ELECT VDW BOUNDARY MISC KINETIC TOTAL TEMP POTENTIAL TOTAL3 TEMPAVG PRESSURE GPRESSURE VOLUME PRESSAVG GPRESSAVG
ENERGY: 0 0.0709 0.5399 1.5954 0.0000 -22296.7281 3882.9496 0.0000 0.0000 2877.8014 -15533.7708 298.5006 -18411.5722 -15533.2316 298.5006 253.5662 300.6322 66850.4585 253.5662 300.6322
ENERGY: 5000 0.3341 1.3854 1.7670 0.0000 -23330.8648 4084.1975 0.0000 0.0000 305.7076 -18937.4732 31.7096 -19243.1808 -18936.5287 47.5493 2.4321 76.6812 47129.2758 2.7527 2.6546
ENERGY: 10000 0.1080 1.3620 1.7023 0.0000 -23254.9427 3984.9794 0.0000 0.0000 288.5774 -18978.2135 29.9328 -19266.7909 -18977.4247 30.3134 -498.9973 -419.5270 47138.6987 2.6568 2.5050
ENERGY: 15000 0.0805 1.2823 2.0578 0.0000 -23507.2819 4210.0108 0.0000 0.0000 288.5469 -19005.3036 29.9296 -19293.8505 -19004.3356 30.0178 641.4630 702.4954 46892.1024 0.4421 0.3641
ENERGY: 20000 0.0866 1.4472 1.6741 0.0000 -23531.0290 4236.0957 0.0000 0.0000 287.3819 -19004.3434 29.8088 -19291.7253 -19003.4424 30.0290 785.3664 836.2005 46895.6480 2.2006 2.0620
ENERGY: 25000 0.3418 0.8413 1.7240 0.0000 -23449.2595 4130.3014 0.0000 0.0000 298.8423 -19017.2087 30.9975 -19316.0509 -19016.5717 29.8862 209.3284 267.9337 46968.5926 5.9746 6.0524
TCL: Running 25000 steps at 60 kelvin.
TCL: Setting parameter langevinTemp to 60
TCL: Running for 25000 steps
ETITLE: TS BOND ANGLE DIHED IMPRP ELECT VDW BOUNDARY MISC KINETIC TOTAL TEMP POTENTIAL TOTAL3 TEMPAVG PRESSURE GPRESSURE VOLUME PRESSAVG GPRESSAVG
ENERGY: 25000 0.3418 0.8413 1.7240 0.0000 -23449.2595 4130.3014 0.0000 0.0000 298.6960 -19017.3549 30.9823 -19316.0509 -19016.6193 30.9823 200.6579 267.5897 46968.5926 200.6579 267.5897
ENERGY: 30000 0.0661 1.5674 1.8063 0.0000 -23176.4195 4092.0408 0.0000 0.0000 585.8677 -18495.0712 60.7693 -19080.9389 -18493.9073 57.3515 607.3317 687.9499 46811.3684 0.1496 0.1109
ENERGY: 35000 0.2785 3.1687 1.5185 0.0000 -23101.3575 4011.0230 0.0000 0.0000 578.0193 -18507.3494 59.9552 -19085.3687 -18506.5945 60.0979 220.2086 294.2163 46882.5752 8.6798 8.4398
ENERGY: 40000 0.2585 2.1020 1.4237 0.0000 -23092.5342 3971.4246 0.0000 0.0000 561.3862 -18555.9392 58.2299 -19117.3254 -18554.0261 60.0268 -121.1966 -53.6128 47062.8158 2.7170 2.6440
ENERGY: 45000 0.2113 2.5240 1.4403 0.0000 -23046.3414 3905.2747 0.0000 0.0000 569.5547 -18567.3362 59.0772 -19136.8910 -18565.6793 60.0961 -419.8899 -364.8014 47023.2774 3.9395 3.9990
ENERGY: 50000 0.3606 2.9310 1.5151 0.0000 -23283.0438 4124.5660 0.0000 0.0000 578.6428 -18575.0282 60.0198 -19153.6710 -18574.1983 60.2974 650.2614 696.4077 46895.3847 -1.7796 -1.6023
TCL: Running 25000 steps at 90 kelvin.
TCL: Setting parameter langevinTemp to 90
TCL: Running for 25000 steps
ETITLE: TS BOND ANGLE DIHED IMPRP ELECT VDW BOUNDARY MISC KINETIC TOTAL TEMP POTENTIAL TOTAL3 TEMPAVG PRESSURE GPRESSURE VOLUME PRESSAVG GPRESSAVG
ENERGY: 50000 0.3606 2.9310 1.5151 0.0000 -23283.0438 4124.5660 0.0000 0.0000 578.3588 -18575.3121 59.9904 -19153.6710 -18574.1368 59.9904 632.6754 696.0092 46895.3847 632.6754 696.0092
ENERGY: 55000 0.8049 3.8024 1.9723 0.0000 -22760.9360 3842.8092 0.0000 0.0000 883.2950 -18028.2521 91.6200 -18911.5472 -18025.8548 87.2566 -259.3847 -165.5639 47219.3061 2.6256 2.4186
ENERGY: 60000 0.4585 3.2752 1.8238 0.0000 -22786.6512 3844.8921 0.0000 0.0000 878.2314 -18057.9703 91.0947 -18936.2017 -18056.0149 89.8352 -164.3719 -121.9914 46937.5253 4.4865 4.6945
ENERGY: 65000 0.4798 2.4335 2.1520 0.0000 -22859.9760 3894.1971 0.0000 0.0000 866.3913 -18094.3224 89.8666 -18960.7137 -18091.9275 89.5263 45.8735 90.5176 46835.1926 1.0058 1.1281
ENERGY: 70000 0.6243 2.0296 2.1395 0.0000 -22832.8561 3830.5618 0.0000 0.0000 873.8665 -18123.6344 90.6420 -18997.5009 -18120.9150 90.6069 -480.2558 -393.8321 47109.8150 6.8440 6.8665
ENERGY: 75000 0.9427 3.2813 1.8085 0.0000 -22848.4355 3820.1767 0.0000 0.0000 848.4631 -18173.7633 88.0070 -19022.2263 -18171.7975 90.0010 -526.0714 -493.3603 46944.8413 3.6198 3.8669
TCL: Running 25000 steps at 120 kelvin.
TCL: Setting parameter langevinTemp to 120
TCL: Running for 25000 steps
ETITLE: TS BOND ANGLE DIHED IMPRP ELECT VDW BOUNDARY MISC KINETIC TOTAL TEMP POTENTIAL TOTAL3 TEMPAVG PRESSURE GPRESSURE VOLUME PRESSAVG GPRESSAVG
ENERGY: 75000 0.9427 3.2813 1.8085 0.0000 -22848.4355 3820.1767 0.0000 0.0000 848.0323 -18174.1940 87.9623 -19022.2263 -18172.3059 87.9623 -546.1459 -493.3763 46944.8413 -546.1459 -493.3763
ENERGY: 80000 0.1404 4.2054 1.9352 0.0000 -22438.7754 3773.4868 0.0000 0.0000 1192.7649 -17466.2428 123.7198 -18659.0077 -17464.0066 116.3181 146.9086 219.1203 46890.3700 5.5913 5.5131
ENERGY: 85000 0.3409 3.2430 1.9054 0.0000 -22502.6178 3810.2758 0.0000 0.0000 1134.4200 -17552.4328 117.6680 -18686.8528 -17550.0010 120.5697 239.0949 268.9205 46908.3669 1.0691 0.9326
ENERGY: 90000 0.6823 4.5763 2.6002 0.0000 -22401.7721 3684.0769 0.0000 0.0000 1154.9847 -17554.8516 119.8010 -18709.8363 -17552.7662 120.0163 -421.2729 -386.3579 46998.0710 3.8282 3.6402
ENERGY: 95000 0.1243 4.0468 1.7290 0.0000 -22339.6807 3595.7157 0.0000 0.0000 1149.9462 -17588.1188 119.2784 -18738.0649 -17585.9595 119.8447 -938.5945 -893.5041 47150.3014 6.0828 6.3808
ENERGY: 100000 0.8768 3.9264 1.5545 0.0000 -22692.1856 3932.9578 0.0000 0.0000 1166.8388 -17586.0313 121.0306 -18752.8701 -17584.1084 119.5245 913.0542 974.5713 46429.8156 2.9539 3.0285
TCL: Running 25000 steps at 150 kelvin.
TCL: Setting parameter langevinTemp to 150
TCL: Running for 25000 steps
ETITLE: TS BOND ANGLE DIHED IMPRP ELECT VDW BOUNDARY MISC KINETIC TOTAL TEMP POTENTIAL TOTAL3 TEMPAVG PRESSURE GPRESSURE VOLUME PRESSAVG GPRESSAVG
ENERGY: 100000 0.8768 3.9264 1.5545 0.0000 -22692.1856 3932.9578 0.0000 0.0000 1166.2667 -17586.6034 120.9713 -18752.8701 -17584.8305 120.9713 916.9874 974.3536 46429.8156 916.9874 974.3536
ENERGY: 105000 0.8767 5.3140 2.5544 0.0000 -22075.5793 3711.4817 0.0000 0.0000 1457.5481 -16897.8043 151.1845 -18355.3524 -16895.2889 147.5786 415.7422 496.4194 47136.4657 -2.7584 -3.2547
ENERGY: 110000 0.5934 4.5009 2.2508 0.0000 -22143.8103 3802.3365 0.0000 0.0000 1460.4665 -16873.6622 151.4872 -18334.1287 -16871.4639 150.1327 980.4019 1053.1903 47139.8980 -0.6803 -0.2292
ENERGY: 115000 0.7991 3.8982 1.7040 0.0000 -21942.3397 3533.5575 0.0000 0.0000 1440.7959 -16961.5850 149.4469 -18402.3809 -16958.8053 150.1190 -518.1312 -447.2242 47251.7824 3.2411 2.7532
ENERGY: 120000 0.5536 6.3883 1.4845 0.0000 -21943.0354 3515.8204 0.0000 0.0000 1391.4579 -17027.3305 144.3293 -18418.7885 -17024.9066 150.4076 -741.8639 -684.7287 47506.0548 2.4120 2.0544
ENERGY: 125000 0.2887 4.3838 2.0141 0.0000 -22106.9079 3669.1512 0.0000 0.0000 1448.1060 -16982.9640 150.2051 -18431.0700 -16979.3193 150.0233 111.5819 173.4648 47238.2289 3.4933 3.3055
TCL: Running 50000 steps at 180 kelvin.
TCL: Setting parameter langevinTemp to 180
TCL: Running for 50000 steps
ETITLE: TS BOND ANGLE DIHED IMPRP ELECT VDW BOUNDARY MISC KINETIC TOTAL TEMP POTENTIAL TOTAL3 TEMPAVG PRESSURE GPRESSURE VOLUME PRESSAVG GPRESSAVG
ENERGY: 125000 0.2887 4.3838 2.0141 0.0000 -22106.9079 3669.1512 0.0000 0.0000 1447.3913 -16983.6787 150.1310 -18431.0700 -16980.4378 150.1310 116.9792 172.9992 47238.2289 116.9792 172.9992
ENERGY: 135000 1.4880 6.5322 1.5522 0.0000 -21357.9366 3387.7152 0.0000 0.0000 1737.7638 -16222.8853 180.2499 -17960.6491 -16218.7743 180.1572 -315.4079 -268.3016 47536.0386 -0.4888 -0.5064
ENERGY: 145000 0.8521 4.8042 1.5757 0.0000 -21443.6941 3421.8431 0.0000 0.0000 1745.2162 -16269.4028 181.0229 -18014.6190 -16265.7598 180.5746 -344.6597 -282.6684 47605.4281 3.9674 4.2126
ENERGY: 155000 0.7023 7.0434 1.7027 0.0000 -21328.4583 3347.7021 0.0000 0.0000 1685.4794 -16285.8285 174.8267 -17971.3078 -16280.6197 179.7261 -524.7747 -498.8444 47525.8764 1.8857 2.0695
ENERGY: 165000 1.3097 7.3723 2.5321 0.0000 -21737.6931 3639.8092 0.0000 0.0000 1692.4920 -16394.1779 175.5541 -18086.6698 -16391.6122 178.8080 785.8981 855.8961 47120.3586 -3.7399 -3.6808
ENERGY: 175000 0.9772 7.5384 2.0802 0.0000 -21518.9905 3542.0556 0.0000 0.0000 1735.4061 -16230.9330 180.0054 -17966.3391 -16227.3107 180.8860 540.7065 578.6560 47312.8252 2.2407 2.3333
TCL: Running 50000 steps at 210 kelvin.
TCL: Setting parameter langevinTemp to 210
TCL: Running for 50000 steps
ETITLE: TS BOND ANGLE DIHED IMPRP ELECT VDW BOUNDARY MISC KINETIC TOTAL TEMP POTENTIAL TOTAL3 TEMPAVG PRESSURE GPRESSURE VOLUME PRESSAVG GPRESSAVG
ENERGY: 175000 0.9772 7.5384 2.0802 0.0000 -21518.9905 3542.0556 0.0000 0.0000 1734.4973 -16231.8418 179.9111 -17966.3391 -16228.7074 179.9111 526.1098 578.5083 47312.8252 526.1098 578.5083
ENERGY: 185000 0.8423 6.8110 2.3174 0.0000 -20572.2695 3201.2074 0.0000 0.0000 2006.9549 -15354.1366 208.1718 -17361.0914 -15349.3132 208.9849 102.4378 175.8495 47443.7632 5.2465 5.5228
ENERGY: 195000 1.7210 6.2766 2.0755 0.0000 -20346.5835 3108.1226 0.0000 0.0000 2036.5505 -15191.8373 211.2416 -17228.3878 -15187.4468 212.2623 82.9038 144.5847 47281.2837 -0.5345 -0.1026
ENERGY: 205000 1.7473 5.3181 2.2006 0.0000 -20388.7872 3017.9251 0.0000 0.0000 2014.6343 -15346.9618 208.9684 -17361.5961 -15339.9796 209.1521 -724.2128 -641.4710 47537.3180 0.0747 0.0083
ENERGY: 215000 1.9937 6.6222 2.1200 0.0000 -20410.2873 3118.4553 0.0000 0.0000 2012.6386 -15268.4575 208.7614 -17281.0961 -15263.5001 209.0541 151.1971 237.1094 46881.9861 2.3313 2.0500
ENERGY: 225000 1.6568 7.8274 2.9827 0.0000 -20495.6484 3222.2676 0.0000 0.0000 2028.6017 -15232.3123 210.4172 -17260.9140 -15228.9342 210.3169 420.6939 485.2804 47377.5215 -4.0069 -3.6812
TCL: Running 50000 steps at 240 kelvin.
TCL: Setting parameter langevinTemp to 240
TCL: Running for 50000 steps
ETITLE: TS BOND ANGLE DIHED IMPRP ELECT VDW BOUNDARY MISC KINETIC TOTAL TEMP POTENTIAL TOTAL3 TEMPAVG PRESSURE GPRESSURE VOLUME PRESSAVG GPRESSAVG
ENERGY: 225000 1.6568 7.8274 2.9827 0.0000 -20495.6484 3222.2676 0.0000 0.0000 2027.5904 -15233.3236 210.3123 -17260.9140 -15229.4730 210.3123 409.3909 483.5001 47377.5215 409.3909 483.5001
ENERGY: 235000 0.9321 9.9052 3.6407 0.0000 -19195.3597 2698.1238 0.0000 0.0000 2272.6358 -14210.1220 235.7296 -16482.7578 -14207.0648 240.1915 -625.3758 -530.8067 48278.9896 0.8543 1.3433
ENERGY: 245000 1.9460 8.6033 2.2095 0.0000 -19345.2377 2810.1482 0.0000 0.0000 2257.5195 -14264.8112 234.1617 -16522.3307 -14259.5682 239.5797 4.2260 120.8387 47455.9025 4.4913 4.2368
ENERGY: 255000 3.8440 9.0898 3.3881 0.0000 -19131.1205 2628.8169 0.0000 0.0000 2373.8705 -14112.1113 246.2302 -16485.9818 -14107.1283 240.1835 -1160.3328 -1062.7583 48746.1041 3.5719 2.9300
ENERGY: 265000 1.6595 7.8260 2.1976 0.0000 -19332.3378 2823.3728 0.0000 0.0000 2340.8033 -14156.4787 242.8003 -16497.2820 -14150.3268 240.4002 60.5290 124.8922 47906.4682 3.1375 2.1414
ENERGY: 275000 3.0493 6.6550 2.5954 0.0000 -19140.6610 2667.1272 0.0000 0.0000 2314.9642 -14146.2700 240.1202 -16461.2342 -14140.9973 240.6647 -502.7465 -428.7998 47375.0266 3.9541 3.7091
TCL: Running 50000 steps at 270 kelvin.
TCL: Setting parameter langevinTemp to 270
TCL: Running for 50000 steps
ETITLE: TS BOND ANGLE DIHED IMPRP ELECT VDW BOUNDARY MISC KINETIC TOTAL TEMP POTENTIAL TOTAL3 TEMPAVG PRESSURE GPRESSURE VOLUME PRESSAVG GPRESSAVG
ENERGY: 275000 3.0493 6.6550 2.5954 0.0000 -19140.6610 2667.1272 0.0000 0.0000 2313.8312 -14147.4030 240.0026 -16461.2342 -14144.0609 240.0026 -500.4720 -428.6041 47375.0266 -500.4720 -428.6041
ENERGY: 285000 3.7775 9.5576 1.7330 0.0000 -18436.4341 2501.9628 0.0000 0.0000 2613.8881 -13305.5151 271.1261 -15919.4032 -13298.7596 267.7376 -444.9678 -402.6754 48576.3159 4.1091 4.3517
ENERGY: 295000 1.9181 8.6681 3.5288 0.0000 -18520.1325 2658.2806 0.0000 0.0000 2572.4455 -13275.2914 266.8275 -15847.7369 -13272.4274 272.5070 290.9367 386.0033 48770.3878 3.7125 3.8370
ENERGY: 305000 1.1312 9.1228 3.3554 0.0000 -18456.0480 2584.7068 0.0000 0.0000 2547.3766 -13310.3552 264.2272 -15857.7318 -13306.5027 272.8807 368.2480 484.3335 47687.0729 3.7131 3.0687
ENERGY: 315000 0.8803 9.9362 2.2941 0.0000 -18517.8741 2604.5903 0.0000 0.0000 2603.2041 -13296.9690 270.0179 -15900.1731 -13293.4352 268.7139 53.1247 77.6296 48692.8388 4.6841 4.2911
ENERGY: 325000 0.2465 6.5656 1.9808 0.0000 -18528.5056 2533.4458 0.0000 0.0000 2590.0918 -13396.1752 268.6578 -15986.2670 -13389.8760 270.1563 -69.1224 -26.4392 47959.9931 -1.3658 -1.7861
TCL: Running 1000000 steps at 300 kelvin.
TCL: Setting parameter langevinTemp to 300
TCL: Running for 1000000 steps
ETITLE: TS BOND ANGLE DIHED IMPRP ELECT VDW BOUNDARY MISC KINETIC TOTAL TEMP POTENTIAL TOTAL3 TEMPAVG PRESSURE GPRESSURE VOLUME PRESSAVG GPRESSAVG
ENERGY: 325000 0.2465 6.5656 1.9808 0.0000 -18528.5056 2533.4458 0.0000 0.0000 2588.7834 -13397.4836 268.5221 -15986.2670 -13393.2535 268.5221 -104.3239 -26.7357 47959.9931 -104.3239 -26.7357
ENERGY: 525000 2.2152 12.3635 4.0742 0.0000 -17489.6293 2258.4648 0.0000 0.0000 2886.3622 -12326.1493 299.3885 -15212.5115 -12319.6325 302.2042 -534.1196 -384.3413 49772.5432 0.1508 0.1254
ENERGY: 725000 2.0705 10.6723 3.8609 0.0000 -17565.1696 2310.5908 0.0000 0.0000 2848.2949 -12389.6803 295.4400 -15237.9752 -12380.8792 299.0622 -501.1283 -421.2384 50494.5160 3.2555 3.0835
ENERGY: 925000 1.8634 7.7822 1.9005 0.0000 -17575.2988 2305.0758 0.0000 0.0000 2903.6437 -12355.0333 301.1811 -15258.6770 -12346.1112 298.6832 -486.3854 -430.3084 50169.5172 1.5967 1.5844
ENERGY: 1125000 1.8264 10.3134 2.1279 0.0000 -17463.1332 2244.5468 0.0000 0.0000 2935.1614 -12269.1573 304.4503 -15204.3188 -12262.0100 298.6947 -761.2352 -646.3815 50441.0593 2.6636 3.0992
ENERGY: 1325000 2.9630 6.4087 2.9725 0.0000 -17682.6716 2426.7461 0.0000 0.0000 2935.7918 -12307.7895 304.5156 -15243.5813 -12302.8449 300.4638 241.0560 378.4829 49487.4818 4.2543 4.0999
TCL: Exiting due to exit command.
