Info: SIMULATION PARAMETERS:
Info: TIMESTEP               2
Info: NUMBER OF STEPS        0
Info: STEPS PER CYCLE        10
Info: PERIODIC CELL BASIS 1  36.005 0 0
Info: PERIODIC CELL BASIS 2  0 34.26 0
Info: PERIODIC CELL BASIS 3  0 0 36.199
Info: PERIODIC CELL CENTER   0 0 0
Info: WRAPPING WATERS AROUND PERIODIC BOUNDARIES ON OUTPUT.
Info: WRAPPING ALL CLUSTERS AROUND PERIODIC BOUNDARIES ON OUTPUT.
Info: FIRST LDB TIMESTEP     50
Info: LAST LDB TIMESTEP     -1
Info: HOM BACKGROUND SCALING 1
Info: PME BACKGROUND SCALING 1
Info: MIN ATOMS PER PATCH    40
Info: EMPTY PATCH LOAD       40 ATOMS
Info: INITIAL TEMPERATURE    300
Info: CENTER OF MASS MOVING INITIALLY? NO
Info: DIELECTRIC             1
Info: EXCLUDE                SCALED ONE-FOUR
Info: 1-4 ELECTROSTATICS SCALED BY 0.833333
Info: MODIFIED 1-4 VDW PARAMETERS WILL BE USED
Info: DCD FILENAME           mobley_3999471_equil.dcd
Info: DCD FREQUENCY          100000
Info: DCD FIRST STEP         100000
Info: DCD FILE WILL CONTAIN UNIT CELL DATA
Info: XST FILENAME           mobley_3999471_equil.xst
Info: XST FREQUENCY          100000
Info: NO VELOCITY DCD OUTPUT
Info: NO FORCE DCD OUTPUT
Info: OUTPUT FILENAME        mobley_3999471_equil
Info: BINARY OUTPUT FILES WILL BE USED
Info: RESTART FILENAME       mobley_3999471_equil.restart
Info: RESTART FREQUENCY      100000
Info: BINARY RESTART FILES WILL BE USED
Info: CUTOFF                 9
Info: PAIRLIST DISTANCE      11
Info: PAIRLIST SHRINK RATE   0.01
Info: PAIRLIST GROW RATE     0.01
Info: PAIRLIST TRIGGER       0.3
Info: PAIRLISTS PER CYCLE    2
Info: PAIRLISTS ENABLED
Info: MARGIN                 8
Info: HYDROGEN GROUP CUTOFF  2.5
Info: PATCH DIMENSION        21.5
Info: ENERGY OUTPUT STEPS    100000
Info: ENERGY EVALUATION STEPS    100000
Info: OUTPUT ENERGY PRECISION 4
Info: CROSSTERM ENERGY INCLUDED IN DIHEDRAL
Info: TIMING OUTPUT STEPS    1000000
Info: PRESSURE OUTPUT STEPS  100000
Info: LANGEVIN DYNAMICS ACTIVE
Info: LANGEVIN TEMPERATURE   30
Info: LANGEVIN USING BBK INTEGRATOR
Info: LANGEVIN DAMPING COEFFICIENT IS 1 INVERSE PS
Info: LANGEVIN DYNAMICS APPLIED TO HYDROGENS
Info: LANGEVIN PISTON PRESSURE CONTROL ACTIVE
Info:        TARGET PRESSURE IS 1.01325 BAR
Info:     OSCILLATION PERIOD IS 50 FS
Info:             DECAY TIME IS 25 FS
Info:     PISTON TEMPERATURE IS 300 K
Info:       PRESSURE CONTROL IS GROUP-BASED
Info:    INITIAL STRAIN RATE IS 0 0 0
Info:       CELL FLUCTUATION IS ISOTROPIC
Info: PARTICLE MESH EWALD (PME) ACTIVE
Info: PME TOLERANCE               1e-06
Info: PME EWALD COEFFICIENT       0.348832
Info: PME INTERPOLATION ORDER     4
Info: PME GRID DIMENSIONS         40 36 40
Info: PME MAXIMUM GRID SPACING    1
Info: FULL ELECTROSTATIC EVALUATION FREQUENCY      2
Info: USING VERLET I (r-RESPA) MTS SCHEME.
Info: C1 SPLITTING OF LONG RANGE ELECTROSTATICS
Info: PLACING ATOMS IN PATCHES BY HYDROGEN GROUPS
Info: RIGID BONDS TO HYDROGEN : ALL
Info:         ERROR TOLERANCE : 1e-08
Info:          MAX ITERATIONS : 100
Info: RIGID WATER USING SETTLE ALGORITHM
Info: RANDOM NUMBER SEED     1742353127
Info: USE HYDROGEN BONDS?    NO
Info: Using AMBER format force field!
Info: AMBER PARM FILE        mobley_3999471.prmtop
Info: COORDINATE PDB         mobley_3999471.pdb
Info: Exclusions will be read from PARM file!
Info: SCNB (VDW SCALING)     2
Info: USING ARITHMETIC MEAN TO COMBINE L-J SIGMA PARAMETERS
Info: BINARY COORDINATES     mobley_3999471_min.coor
Info: SUMMARY OF PARAMETERS:
Info: 6 BONDS
Info: 6 ANGLES
Info:   6 HARMONIC
Info:   0 COSINE-BASED
Info: 2 DIHEDRAL
Info: 0 IMPROPER
Info: 0 CROSSTERM
Info: 0 VDW
Info: 21 VDW_PAIRS
Info: 0 NBTHOLE_PAIRS
Info: STRUCTURE SUMMARY:
Info: 2981 ATOMS
Info: 2980 BONDS
Info: 12 ANGLES
Info: 9 DIHEDRALS
Info: 0 IMPROPERS
Info: 0 CROSSTERMS
Info: 3001 EXCLUSIONS
Info: 2977 RIGID BONDS
Info: 5966 DEGREES OF FREEDOM
Info: 995 HYDROGEN GROUPS
Info: 4 ATOMS IN LARGEST HYDROGEN GROUP
Info: 995 MIGRATION GROUPS
Info: 4 ATOMS IN LARGEST MIGRATION GROUP
Info: TOTAL MASS = 17952.8 amu
Info: TOTAL CHARGE = 0.000100009 e
Info: MASS DENSITY = 0.667644 g/cm^3
Info: ATOM DENSITY = 0.0667598 atoms/A^3
Info: ADDED 0 IMPLICIT EXCLUSIONS
Info: NONBONDED TABLE R-SQUARED SPACING: 0.0625
Info: NONBONDED TABLE SIZE: 705 POINTS
Info: REMOVING COM VELOCITY 0.0152419 0.040158 0.0276311
TCL: Running for 100000 steps
ETITLE: TS BOND ANGLE DIHED IMPRP ELECT VDW BOUNDARY MISC KINETIC TOTAL TEMP POTENTIAL TOTAL3 TEMPAVG PRESSURE GPRESSURE VOLUME PRESSAVG GPRESSAVG
ENERGY: 0 0.0036 0.0657 0.0020 0.0000 -13854.1161 2441.9566 0.0000 0.0000 1835.1522 -9576.9359 309.5845 -11412.0881 -9576.5834 309.5845 570.9442 597.5526 44652.5995 570.9442 597.5526
ENERGY: 100000 0.0006 0.3311 0.0219 0.0000 -14198.9345 2381.7956 0.0000 0.0000 177.5301 -11639.2552 29.9488 -11816.7853 -11638.7074 30.8553 -899.2038 -818.3944 30307.8043 2.7614 2.8466
TCL: Running 100000 steps at 60 kelvin.
TCL: Setting parameter langevinTemp to 60
TCL: Running for 100000 steps
ETITLE: TS BOND ANGLE DIHED IMPRP ELECT VDW BOUNDARY MISC KINETIC TOTAL TEMP POTENTIAL TOTAL3 TEMPAVG PRESSURE GPRESSURE VOLUME PRESSAVG GPRESSAVG
ENERGY: 100000 0.0006 0.3311 0.0219 0.0000 -14198.9345 2381.7956 0.0000 0.0000 177.4430 -11639.3424 29.9341 -11816.7853 -11638.9728 29.9341 -875.2828 -818.2543 30307.8043 -875.2828 -818.2543
ENERGY: 200000 0.0296 0.3132 0.0060 0.0000 -14228.4956 2495.1564 0.0000 0.0000 367.2794 -11365.7109 61.9589 -11732.9903 -11364.6607 59.8914 614.7616 653.9827 29711.4310 3.2577 3.2619
TCL: Running 100000 steps at 90 kelvin.
TCL: Setting parameter langevinTemp to 90
TCL: Running for 100000 steps
ETITLE: TS BOND ANGLE DIHED IMPRP ELECT VDW BOUNDARY MISC KINETIC TOTAL TEMP POTENTIAL TOTAL3 TEMPAVG PRESSURE GPRESSURE VOLUME PRESSAVG GPRESSAVG
ENERGY: 200000 0.0296 0.3132 0.0060 0.0000 -14228.4956 2495.1564 0.0000 0.0000 367.0998 -11365.8905 61.9286 -11732.9903 -11365.2566 61.9286 598.7997 654.2528 29711.4310 598.7997 654.2528
ENERGY: 300000 0.1040 0.9057 0.0703 0.0000 -14110.2513 2416.5032 0.0000 0.0000 560.3459 -11132.3222 94.5286 -11692.6681 -11130.8121 89.9978 142.5266 199.3842 29306.5713 3.7275 3.7568
TCL: Running 100000 steps at 120 kelvin.
TCL: Setting parameter langevinTemp to 120
TCL: Running for 100000 steps
ETITLE: TS BOND ANGLE DIHED IMPRP ELECT VDW BOUNDARY MISC KINETIC TOTAL TEMP POTENTIAL TOTAL3 TEMPAVG PRESSURE GPRESSURE VOLUME PRESSAVG GPRESSAVG
ENERGY: 300000 0.1040 0.9057 0.0703 0.0000 -14110.2513 2416.5032 0.0000 0.0000 560.0724 -11132.5957 94.4825 -11692.6681 -11131.4722 94.4825 149.6501 198.8344 29306.5713 149.6501 198.8344
ENERGY: 400000 0.2193 1.8681 0.0764 0.0000 -13873.4500 2286.3302 0.0000 0.0000 717.8827 -10867.0733 121.1046 -11584.9560 -10864.6692 120.1030 -627.2493 -549.5577 29465.6809 2.2502 2.2899
TCL: Running 100000 steps at 150 kelvin.
TCL: Setting parameter langevinTemp to 150
TCL: Running for 100000 steps
ETITLE: TS BOND ANGLE DIHED IMPRP ELECT VDW BOUNDARY MISC KINETIC TOTAL TEMP POTENTIAL TOTAL3 TEMPAVG PRESSURE GPRESSURE VOLUME PRESSAVG GPRESSAVG
ENERGY: 400000 0.2193 1.8681 0.0764 0.0000 -13873.4500 2286.3302 0.0000 0.0000 717.5261 -10867.4299 121.0444 -11584.9560 -10865.9811 121.0444 -609.2737 -548.7717 29465.6809 -609.2737 -548.7717
ENERGY: 500000 0.2884 0.5314 0.2057 0.0000 -13808.9278 2398.6301 0.0000 0.0000 874.5398 -10534.7324 147.5322 -11409.2722 -10533.7388 150.2550 719.2798 777.5211 29587.3975 4.7860 4.7923
TCL: Running 100000 steps at 180 kelvin.
TCL: Setting parameter langevinTemp to 180
TCL: Running for 100000 steps
ETITLE: TS BOND ANGLE DIHED IMPRP ELECT VDW BOUNDARY MISC KINETIC TOTAL TEMP POTENTIAL TOTAL3 TEMPAVG PRESSURE GPRESSURE VOLUME PRESSAVG GPRESSAVG
ENERGY: 500000 0.2884 0.5314 0.2057 0.0000 -13808.9278 2398.6301 0.0000 0.0000 874.0979 -10535.1743 147.4576 -11409.2722 -10533.6786 147.4576 723.6556 777.0618 29587.3975 723.6556 777.0618
ENERGY: 600000 0.2971 1.7579 0.1040 0.0000 -13346.7742 2209.4279 0.0000 0.0000 1051.1681 -10084.0193 177.3288 -11135.1874 -10082.6657 179.9926 811.7918 906.0509 28485.0929 4.3969 4.4834
TCL: Running 100000 steps at 210 kelvin.
TCL: Setting parameter langevinTemp to 210
TCL: Running for 100000 steps
ETITLE: TS BOND ANGLE DIHED IMPRP ELECT VDW BOUNDARY MISC KINETIC TOTAL TEMP POTENTIAL TOTAL3 TEMPAVG PRESSURE GPRESSURE VOLUME PRESSAVG GPRESSAVG
ENERGY: 600000 0.2971 1.7579 0.1040 0.0000 -13346.7742 2209.4279 0.0000 0.0000 1050.6419 -10084.5455 177.2400 -11135.1874 -10082.6350 177.2400 846.6033 904.7108 28485.0929 846.6033 904.7108
ENERGY: 700000 0.1425 2.7243 0.0681 0.0000 -12385.9706 1774.8222 0.0000 0.0000 1220.8064 -9387.4071 205.9463 -10608.2134 -9383.7873 209.6250 -830.8877 -793.1582 28954.0590 2.0599 2.1163
TCL: Running 100000 steps at 240 kelvin.
TCL: Setting parameter langevinTemp to 240
TCL: Running for 100000 steps
ETITLE: TS BOND ANGLE DIHED IMPRP ELECT VDW BOUNDARY MISC KINETIC TOTAL TEMP POTENTIAL TOTAL3 TEMPAVG PRESSURE GPRESSURE VOLUME PRESSAVG GPRESSAVG
ENERGY: 700000 0.1425 2.7243 0.0681 0.0000 -12385.9706 1774.8222 0.0000 0.0000 1220.1970 -9388.0164 205.8435 -10608.2134 -9386.3958 205.8435 -843.7872 -792.2379 28954.0590 -843.7872 -792.2379
ENERGY: 800000 0.3866 4.0569 0.0579 0.0000 -11923.8155 1706.9280 0.0000 0.0000 1415.1120 -8797.2740 238.7250 -10212.3860 -8794.0192 240.4462 -209.0783 -177.4949 29162.6113 3.4228 3.3456
TCL: Running 100000 steps at 270 kelvin.
TCL: Setting parameter langevinTemp to 270
TCL: Running for 100000 steps
ETITLE: TS BOND ANGLE DIHED IMPRP ELECT VDW BOUNDARY MISC KINETIC TOTAL TEMP POTENTIAL TOTAL3 TEMPAVG PRESSURE GPRESSURE VOLUME PRESSAVG GPRESSAVG
ENERGY: 800000 0.3866 4.0569 0.0579 0.0000 -11923.8155 1706.9280 0.0000 0.0000 1414.3604 -8798.0256 238.5982 -10212.3860 -8795.2796 238.5982 -262.3864 -178.6180 29162.6113 -262.3864 -178.6180
ENERGY: 900000 0.7869 6.3653 0.1260 0.0000 -11473.1214 1607.8735 0.0000 0.0000 1587.1997 -8270.7700 267.7557 -9857.9697 -8267.8637 269.9742 -17.8623 32.4481 29809.8500 2.4584 2.3785
TCL: Running 1000000 steps at 300 kelvin.
TCL: Setting parameter langevinTemp to 300
TCL: Running for 1000000 steps
ETITLE: TS BOND ANGLE DIHED IMPRP ELECT VDW BOUNDARY MISC KINETIC TOTAL TEMP POTENTIAL TOTAL3 TEMPAVG PRESSURE GPRESSURE VOLUME PRESSAVG GPRESSAVG
ENERGY: 900000 0.7869 6.3653 0.1260 0.0000 -11473.1214 1607.8735 0.0000 0.0000 1586.4252 -8271.5445 267.6250 -9857.9697 -8269.0402 267.6250 -48.0608 31.6882 29809.8500 -48.0608 31.6882
ENERGY: 1100000 1.2555 2.4961 0.0728 0.0000 -10830.2471 1453.8604 0.0000 0.0000 1739.4831 -7633.0792 293.4454 -9372.5623 -7626.9274 299.9228 -199.8591 -145.5901 31074.3219 3.6329 3.6792
ENERGY: 1300000 0.8411 4.0648 0.5359 0.0000 -10838.9447 1489.7789 0.0000 0.0000 1760.0207 -7583.7033 296.9101 -9343.7241 -7581.3576 300.1278 203.3857 267.9590 30937.4694 3.9232 3.9655
ENERGY: 1500000 1.8493 4.0265 0.3590 0.0000 -10824.8212 1454.5459 0.0000 0.0000 1771.2243 -7592.8163 298.8001 -9364.0406 -7590.7709 299.3602 -28.4587 13.7560 30722.1863 3.1941 3.1667
ENERGY: 1700000 0.3479 3.1476 0.1259 0.0000 -10859.1649 1497.9506 0.0000 0.0000 1737.1626 -7620.4301 293.0540 -9357.5928 -7618.0046 299.7436 313.6930 312.1561 30804.8583 3.3146 3.3300
ENERGY: 1900000 0.1663 2.6926 0.0614 0.0000 -10863.8826 1510.7819 0.0000 0.0000 1794.3265 -7555.8539 302.6973 -9350.1804 -7554.7517 300.2565 742.0656 827.6911 30371.2885 4.2057 4.2867
TCL: Exiting due to exit command.
