Info: SIMULATION PARAMETERS:
Info: TIMESTEP               2
Info: NUMBER OF STEPS        0
Info: STEPS PER CYCLE        10
Info: PERIODIC CELL BASIS 1  34.986 0 0
Info: PERIODIC CELL BASIS 2  0 35.779 0
Info: PERIODIC CELL BASIS 3  0 0 35.644
Info: PERIODIC CELL CENTER   0 0 0
Info: WRAPPING WATERS AROUND PERIODIC BOUNDARIES ON OUTPUT.
Info: WRAPPING ALL CLUSTERS AROUND PERIODIC BOUNDARIES ON OUTPUT.
Info: FIRST LDB TIMESTEP     50
Info: LAST LDB TIMESTEP     -1
Info: HOM BACKGROUND SCALING 1
Info: PME BACKGROUND SCALING 1
Info: MIN ATOMS PER PATCH    40
Info: EMPTY PATCH LOAD       40 ATOMS
Info: INITIAL TEMPERATURE    300
Info: CENTER OF MASS MOVING INITIALLY? NO
Info: DIELECTRIC             1
Info: EXCLUDE                SCALED ONE-FOUR
Info: 1-4 ELECTROSTATICS SCALED BY 0.833333
Info: MODIFIED 1-4 VDW PARAMETERS WILL BE USED
Info: DCD FILENAME           mobley_2146331_equil.dcd
Info: DCD FREQUENCY          100000
Info: DCD FIRST STEP         100000
Info: DCD FILE WILL CONTAIN UNIT CELL DATA
Info: XST FILENAME           mobley_2146331_equil.xst
Info: XST FREQUENCY          100000
Info: NO VELOCITY DCD OUTPUT
Info: NO FORCE DCD OUTPUT
Info: OUTPUT FILENAME        mobley_2146331_equil
Info: BINARY OUTPUT FILES WILL BE USED
Info: RESTART FILENAME       mobley_2146331_equil.restart
Info: RESTART FREQUENCY      100000
Info: BINARY RESTART FILES WILL BE USED
Info: CUTOFF                 9
Info: PAIRLIST DISTANCE      11
Info: PAIRLIST SHRINK RATE   0.01
Info: PAIRLIST GROW RATE     0.01
Info: PAIRLIST TRIGGER       0.3
Info: PAIRLISTS PER CYCLE    2
Info: PAIRLISTS ENABLED
Info: MARGIN                 8
Info: HYDROGEN GROUP CUTOFF  2.5
Info: PATCH DIMENSION        21.5
Info: ENERGY OUTPUT STEPS    100000
Info: ENERGY EVALUATION STEPS    100000
Info: OUTPUT ENERGY PRECISION 4
Info: CROSSTERM ENERGY INCLUDED IN DIHEDRAL
Info: TIMING OUTPUT STEPS    1000000
Info: PRESSURE OUTPUT STEPS  100000
Info: LANGEVIN DYNAMICS ACTIVE
Info: LANGEVIN TEMPERATURE   30
Info: LANGEVIN USING BBK INTEGRATOR
Info: LANGEVIN DAMPING COEFFICIENT IS 1 INVERSE PS
Info: LANGEVIN DYNAMICS APPLIED TO HYDROGENS
Info: LANGEVIN PISTON PRESSURE CONTROL ACTIVE
Info:        TARGET PRESSURE IS 1.01325 BAR
Info:     OSCILLATION PERIOD IS 50 FS
Info:             DECAY TIME IS 25 FS
Info:     PISTON TEMPERATURE IS 300 K
Info:       PRESSURE CONTROL IS GROUP-BASED
Info:    INITIAL STRAIN RATE IS 0 0 0
Info:       CELL FLUCTUATION IS ISOTROPIC
Info: PARTICLE MESH EWALD (PME) ACTIVE
Info: PME TOLERANCE               1e-06
Info: PME EWALD COEFFICIENT       0.348832
Info: PME INTERPOLATION ORDER     4
Info: PME GRID DIMENSIONS         36 36 36
Info: PME MAXIMUM GRID SPACING    1
Info: FULL ELECTROSTATIC EVALUATION FREQUENCY      2
Info: USING VERLET I (r-RESPA) MTS SCHEME.
Info: C1 SPLITTING OF LONG RANGE ELECTROSTATICS
Info: PLACING ATOMS IN PATCHES BY HYDROGEN GROUPS
Info: RIGID BONDS TO HYDROGEN : ALL
Info:         ERROR TOLERANCE : 1e-08
Info:          MAX ITERATIONS : 100
Info: RIGID WATER USING SETTLE ALGORITHM
Info: RANDOM NUMBER SEED     1742443013
Info: USE HYDROGEN BONDS?    NO
Info: Using AMBER format force field!
Info: AMBER PARM FILE        mobley_2146331.prmtop
Info: COORDINATE PDB         mobley_2146331.pdb
Info: Exclusions will be read from PARM file!
Info: SCNB (VDW SCALING)     2
Info: USING ARITHMETIC MEAN TO COMBINE L-J SIGMA PARAMETERS
Info: BINARY COORDINATES     mobley_2146331_min.coor
Info: SUMMARY OF PARAMETERS:
Info: 4 BONDS
Info: 2 ANGLES
Info:   2 HARMONIC
Info:   0 COSINE-BASED
Info: 1 DIHEDRAL
Info: 0 IMPROPER
Info: 0 CROSSTERM
Info: 0 VDW
Info: 15 VDW_PAIRS
Info: 0 NBTHOLE_PAIRS
Info: STRUCTURE SUMMARY:
Info: 2944 ATOMS
Info: 2943 BONDS
Info: 3 ANGLES
Info: 1 DIHEDRALS
Info: 0 IMPROPERS
Info: 0 CROSSTERMS
Info: 2946 EXCLUSIONS
Info: 2942 RIGID BONDS
Info: 5890 DEGREES OF FREEDOM
Info: 982 HYDROGEN GROUPS
Info: 3 ATOMS IN LARGEST HYDROGEN GROUP
Info: 982 MIGRATION GROUPS
Info: 3 ATOMS IN LARGEST MIGRATION GROUP
Info: TOTAL MASS = 17685.7 amu
Info: TOTAL CHARGE = -9.9998e-05 e
Info: MASS DENSITY = 0.658223 g/cm^3
Info: ATOM DENSITY = 0.0659825 atoms/A^3
Info: ADDED 0 IMPLICIT EXCLUSIONS
Info: NONBONDED TABLE R-SQUARED SPACING: 0.0625
Info: NONBONDED TABLE SIZE: 705 POINTS
Info: REMOVING COM VELOCITY 0.0102733 -0.056262 0.0223458
TCL: Running for 100000 steps
ETITLE: TS BOND ANGLE DIHED IMPRP ELECT VDW BOUNDARY MISC KINETIC TOTAL TEMP POTENTIAL TOTAL3 TEMPAVG PRESSURE GPRESSURE VOLUME PRESSAVG GPRESSAVG
ENERGY: 0 0.0011 0.0601 0.0002 0.0000 -13658.3186 2419.5309 0.0000 0.0000 1761.3607 -9477.3656 300.9701 -11238.7263 -9477.0274 300.9701 538.8068 571.8937 44617.8794 538.8068 571.8937
ENERGY: 100000 0.1699 0.1005 0.0283 0.0000 -14153.7572 2407.3873 0.0000 0.0000 176.8474 -11569.2236 30.2186 -11746.0710 -11568.7106 30.9056 -613.2780 -551.3858 29093.7950 4.6558 4.7143
TCL: Running 100000 steps at 60 kelvin.
TCL: Setting parameter langevinTemp to 60
TCL: Running for 100000 steps
ETITLE: TS BOND ANGLE DIHED IMPRP ELECT VDW BOUNDARY MISC KINETIC TOTAL TEMP POTENTIAL TOTAL3 TEMPAVG PRESSURE GPRESSURE VOLUME PRESSAVG GPRESSAVG
ENERGY: 100000 0.1699 0.1005 0.0283 0.0000 -14153.7572 2407.3873 0.0000 0.0000 176.7559 -11569.3152 30.2029 -11746.0710 -11568.9304 30.2029 -617.7581 -551.2229 29093.7950 -617.7581 -551.2229
ENERGY: 200000 0.4418 0.5150 0.1610 0.0000 -14161.6240 2438.5650 0.0000 0.0000 356.6240 -11365.3171 60.9376 -11721.9411 -11364.5604 59.8260 18.2557 29.0801 28381.3633 3.4824 3.4461
TCL: Running 100000 steps at 90 kelvin.
TCL: Setting parameter langevinTemp to 90
TCL: Running for 100000 steps
ETITLE: TS BOND ANGLE DIHED IMPRP ELECT VDW BOUNDARY MISC KINETIC TOTAL TEMP POTENTIAL TOTAL3 TEMPAVG PRESSURE GPRESSURE VOLUME PRESSAVG GPRESSAVG
ENERGY: 200000 0.4418 0.5150 0.1610 0.0000 -14161.6240 2438.5650 0.0000 0.0000 356.4481 -11365.4930 60.9076 -11721.9411 -11364.6185 60.9076 -19.6807 28.6639 28381.3633 -19.6807 28.6639
ENERGY: 300000 0.0248 0.3608 0.0027 0.0000 -13970.5019 2383.8841 0.0000 0.0000 516.2544 -11069.9751 88.2143 -11586.2295 -11068.6712 90.1007 -33.9567 32.7879 28507.0660 4.2967 4.2559
TCL: Running 100000 steps at 120 kelvin.
TCL: Setting parameter langevinTemp to 120
TCL: Running for 100000 steps
ETITLE: TS BOND ANGLE DIHED IMPRP ELECT VDW BOUNDARY MISC KINETIC TOTAL TEMP POTENTIAL TOTAL3 TEMPAVG PRESSURE GPRESSURE VOLUME PRESSAVG GPRESSAVG
ENERGY: 300000 0.0248 0.3608 0.0027 0.0000 -13970.5019 2383.8841 0.0000 0.0000 515.9955 -11070.2340 88.1700 -11586.2295 -11069.1814 88.1700 -23.4430 32.2655 28507.0660 -23.4430 32.2655
ENERGY: 400000 0.8789 0.1657 0.0026 0.0000 -13786.3085 2319.7054 0.0000 0.0000 702.3682 -10763.1877 120.0162 -11465.5559 -10761.0053 119.9802 -73.1738 -15.5394 28572.6323 3.5634 3.5229
TCL: Running 100000 steps at 150 kelvin.
TCL: Setting parameter langevinTemp to 150
TCL: Running for 100000 steps
ETITLE: TS BOND ANGLE DIHED IMPRP ELECT VDW BOUNDARY MISC KINETIC TOTAL TEMP POTENTIAL TOTAL3 TEMPAVG PRESSURE GPRESSURE VOLUME PRESSAVG GPRESSAVG
ENERGY: 400000 0.8789 0.1657 0.0026 0.0000 -13786.3085 2319.7054 0.0000 0.0000 702.0042 -10763.5517 119.9540 -11465.5559 -10762.3155 119.9540 -64.0685 -15.1087 28572.6323 -64.0685 -15.1087
ENERGY: 500000 0.6115 0.3842 0.0007 0.0000 -13649.2922 2333.3730 0.0000 0.0000 890.7425 -10424.1803 152.2044 -11314.9228 -10422.4446 150.0993 521.9200 590.3768 28755.4722 4.6035 4.4693
TCL: Running 100000 steps at 180 kelvin.
TCL: Setting parameter langevinTemp to 180
TCL: Running for 100000 steps
ETITLE: TS BOND ANGLE DIHED IMPRP ELECT VDW BOUNDARY MISC KINETIC TOTAL TEMP POTENTIAL TOTAL3 TEMPAVG PRESSURE GPRESSURE VOLUME PRESSAVG GPRESSAVG
ENERGY: 500000 0.6115 0.3842 0.0007 0.0000 -13649.2922 2333.3730 0.0000 0.0000 890.2953 -10424.6275 152.1280 -11314.9228 -10422.6629 152.1280 539.0918 590.0745 28755.4722 539.0918 590.0745
ENERGY: 600000 0.0000 0.2925 0.0038 0.0000 -13135.2572 2096.3191 0.0000 0.0000 1055.2076 -9983.4341 180.3072 -11038.6417 -9981.1438 179.7267 -457.5742 -370.3787 28920.8101 3.7001 3.6693
TCL: Running 100000 steps at 210 kelvin.
TCL: Setting parameter langevinTemp to 210
TCL: Running for 100000 steps
ETITLE: TS BOND ANGLE DIHED IMPRP ELECT VDW BOUNDARY MISC KINETIC TOTAL TEMP POTENTIAL TOTAL3 TEMPAVG PRESSURE GPRESSURE VOLUME PRESSAVG GPRESSAVG
ENERGY: 600000 0.0000 0.2925 0.0038 0.0000 -13135.2572 2096.3191 0.0000 0.0000 1054.6798 -9983.9619 180.2170 -11038.6417 -9981.5906 180.2170 -449.9026 -371.4999 28920.8101 -449.9026 -371.4999
ENERGY: 700000 0.0561 0.2203 0.4119 0.0000 -12455.7141 1927.7852 0.0000 0.0000 1231.7396 -9295.5010 210.4718 -10527.2406 -9293.3305 210.1098 43.9681 133.1471 28737.8787 3.3406 3.2715
TCL: Running 100000 steps at 240 kelvin.
TCL: Setting parameter langevinTemp to 240
TCL: Running for 100000 steps
ETITLE: TS BOND ANGLE DIHED IMPRP ELECT VDW BOUNDARY MISC KINETIC TOTAL TEMP POTENTIAL TOTAL3 TEMPAVG PRESSURE GPRESSURE VOLUME PRESSAVG GPRESSAVG
ENERGY: 700000 0.0561 0.2203 0.4119 0.0000 -12455.7141 1927.7852 0.0000 0.0000 1231.1361 -9296.1045 210.3687 -10527.2406 -9294.1425 210.3687 54.6334 130.7026 28737.8787 54.6334 130.7026
ENERGY: 800000 0.3289 0.7971 0.0473 0.0000 -11860.0798 1765.7533 0.0000 0.0000 1428.2812 -8664.8719 244.0556 -10093.1532 -8663.2264 240.1589 389.9512 472.7190 28821.6879 4.7467 4.9137
TCL: Running 100000 steps at 270 kelvin.
TCL: Setting parameter langevinTemp to 270
TCL: Running for 100000 steps
ETITLE: TS BOND ANGLE DIHED IMPRP ELECT VDW BOUNDARY MISC KINETIC TOTAL TEMP POTENTIAL TOTAL3 TEMPAVG PRESSURE GPRESSURE VOLUME PRESSAVG GPRESSAVG
ENERGY: 800000 0.3289 0.7971 0.0473 0.0000 -11860.0798 1765.7533 0.0000 0.0000 1427.5931 -8665.5601 243.9380 -10093.1532 -8663.6114 243.9380 386.4650 471.3164 28821.6879 386.4650 471.3164
ENERGY: 900000 0.2014 0.1830 0.1983 0.0000 -11348.5745 1647.7632 0.0000 0.0000 1563.0934 -8137.1351 267.0915 -9700.2285 -8134.7241 270.6071 643.7613 734.2002 29289.2464 3.0749 3.2387
TCL: Running 1000000 steps at 300 kelvin.
TCL: Setting parameter langevinTemp to 300
TCL: Running for 1000000 steps
ETITLE: TS BOND ANGLE DIHED IMPRP ELECT VDW BOUNDARY MISC KINETIC TOTAL TEMP POTENTIAL TOTAL3 TEMPAVG PRESSURE GPRESSURE VOLUME PRESSAVG GPRESSAVG
ENERGY: 900000 0.2014 0.1830 0.1983 0.0000 -11348.5745 1647.7632 0.0000 0.0000 1562.2587 -8137.9698 266.9488 -9700.2285 -8135.5430 266.9488 638.4545 735.1964 29289.2464 638.4545 735.1964
ENERGY: 1100000 0.0092 0.6854 0.3259 0.0000 -10753.1188 1498.8122 0.0000 0.0000 1726.9483 -7526.3378 295.0900 -9253.2861 -7524.1273 300.2923 372.1935 451.3083 30282.2312 4.1121 4.1026
ENERGY: 1300000 0.0678 0.2604 1.8913 0.0000 -10844.7784 1506.9830 0.0000 0.0000 1825.4506 -7510.1254 311.9214 -9335.5760 -7504.2287 299.9921 394.3429 534.6977 30123.9865 4.5376 4.6503
ENERGY: 1500000 0.6736 0.5798 0.4988 0.0000 -10696.1088 1471.9676 0.0000 0.0000 1758.9072 -7463.4817 300.5509 -9222.3889 -7462.3042 301.1159 241.2432 338.6647 30580.7642 3.0715 3.1837
ENERGY: 1700000 0.1534 0.5857 0.6739 0.0000 -10716.9342 1439.7505 0.0000 0.0000 1730.2560 -7545.5148 295.6551 -9275.7707 -7543.3355 299.5840 -125.0448 -61.7291 30351.7489 3.3559 3.4043
ENERGY: 1900000 0.1076 1.1658 0.0005 0.0000 -10640.5605 1386.5358 0.0000 0.0000 1699.9391 -7552.8117 290.4748 -9252.7508 -7547.1538 300.0520 -266.5212 -324.8035 30140.3890 3.3435 3.2568
TCL: Exiting due to exit command.
