Info: SIMULATION PARAMETERS:
Info: TIMESTEP               2
Info: NUMBER OF STEPS        0
Info: STEPS PER CYCLE        10
Info: PERIODIC CELL BASIS 1  30 0 0
Info: PERIODIC CELL BASIS 2  0 30 0
Info: PERIODIC CELL BASIS 3  0 0 30
Info: PERIODIC CELL CENTER   0 0 0
Info: WRAPPING ALL CLUSTERS AROUND PERIODIC BOUNDARIES ON OUTPUT.
Info: FIRST LDB TIMESTEP     50
Info: LAST LDB TIMESTEP     -1
Info: HOM BACKGROUND SCALING 1
Info: MIN ATOMS PER PATCH    40
Info: EMPTY PATCH LOAD       40 ATOMS
Info: INITIAL TEMPERATURE    298
Info: CENTER OF MASS MOVING INITIALLY? NO
Info: DIELECTRIC             1
Info: EXCLUDE                SCALED ONE-FOUR
Info: 1-4 ELECTROSTATICS SCALED BY 1
Info: MODIFIED 1-4 VDW PARAMETERS WILL BE USED
Info: DCD FILENAME           output.dcd
Info: DCD FREQUENCY          200
Info: DCD FIRST STEP         200
Info: DCD FILE WILL CONTAIN UNIT CELL DATA
Info: NO EXTENDED SYSTEM TRAJECTORY OUTPUT
Info: NO VELOCITY DCD OUTPUT
Info: NO FORCE DCD OUTPUT
Info: OUTPUT FILENAME        output
Info: BINARY OUTPUT FILES WILL BE USED
Info: NO RESTART FILE
Info: SWITCHING ACTIVE
Info: SWITCHING ON           10
Info: SWITCHING OFF          12
Info: PAIRLIST DISTANCE      14
Info: PAIRLIST SHRINK RATE   0.01
Info: PAIRLIST GROW RATE     0.01
Info: PAIRLIST TRIGGER       0.3
Info: PAIRLISTS PER CYCLE    2
Info: PAIRLISTS ENABLED
Info: MARGIN                 0
Info: HYDROGEN GROUP CUTOFF  2.5
Info: PATCH DIMENSION        16.5
Info: ENERGY OUTPUT STEPS    200
Info: ENERGY EVALUATION STEPS    200
Info: OUTPUT ENERGY PRECISION 4
Info: CROSSTERM ENERGY INCLUDED IN DIHEDRAL
Info: TIMING OUTPUT STEPS    200
Info: LANGEVIN DYNAMICS ACTIVE
Info: LANGEVIN TEMPERATURE   298
Info: LANGEVIN USING BBK INTEGRATOR
Info: LANGEVIN DAMPING COEFFICIENT IS 1 INVERSE PS
Info: LANGEVIN DYNAMICS NOT APPLIED TO HYDROGENS
Info: MULTILEVEL SUMMATION METHOD (MSM) FOR ELECTROSTATICS ACTIVE
Info: MSM WITH C1 CUBIC INTERPOLATION AND C2 TAYLOR SPLITTING
Info: FULL ELECTROSTATIC EVALUATION FREQUENCY      2
Info: USING VERLET I (r-RESPA) MTS SCHEME.
Info: C1 SPLITTING OF LONG RANGE ELECTROSTATICS
Info: PLACING ATOMS IN PATCHES BY HYDROGEN GROUPS
Info: RIGID BONDS TO HYDROGEN : ALL
Info:         ERROR TOLERANCE : 1e-08
Info:          MAX ITERATIONS : 100
Info: RIGID WATER USING SETTLE ALGORITHM
Info: RANDOM NUMBER SEED     1740213999
Info: USE HYDROGEN BONDS?    NO
Info: COORDINATE PDB         ionized.pdb
Info: STRUCTURE FILE         ionized.psf
Info: PARAMETER file: CHARMM format!
Info: PARAMETERS             par_all27_prot_lipid.inp
Info: USING ARITHMETIC MEAN TO COMBINE L-J SIGMA PARAMETERS
Info: SUMMARY OF PARAMETERS:
Info: 180 BONDS
Info: 447 ANGLES
Info: 566 DIHEDRAL
Info: 46 IMPROPER
Info: 6 CROSSTERM
Info: 119 VDW
Info: 0 VDW_PAIRS
Info: 0 NBTHOLE_PAIRS
Info: STRUCTURE SUMMARY:
Info: 2476 ATOMS
Info: 1650 BONDS
Info: 825 ANGLES
Info: 0 DIHEDRALS
Info: 0 IMPROPERS
Info: 0 CROSSTERMS
Info: 0 EXCLUSIONS
Info: 2475 RIGID BONDS
Info: 4953 DEGREES OF FREEDOM
Info: 826 HYDROGEN GROUPS
Info: 3 ATOMS IN LARGEST HYDROGEN GROUP
Info: 826 MIGRATION GROUPS
Info: 3 ATOMS IN LARGEST MIGRATION GROUP
Info: TOTAL MASS = 14885.7 amu
Info: TOTAL CHARGE = 1 e
Info: MASS DENSITY = 0.915513 g/cm^3
Info: ATOM DENSITY = 0.0917037 atoms/A^3
Info: ADDED 2475 IMPLICIT EXCLUSIONS
Info: NONBONDED TABLE R-SQUARED SPACING: 0.0625
Info: NONBONDED TABLE SIZE: 769 POINTS
Info: REMOVING COM VELOCITY -0.0644777 0.00183561 0.180734
Info: MSM using C1 cubic interpolation
Info: MSM using C2 Taylor splitting function
Info: MSM block size decomposition along X is 8 grid points
Info: MSM block size decomposition along Y is 8 grid points
Info: MSM block size decomposition along Z is 8 grid points
Info: MSM grid spacing along X is 2.5 A
Info: MSM grid spacing along Y is 2.5 A
Info: MSM grid spacing along Z is 2.5 A
Info: MSM using 3 levels
Info:     level 0:  [0..11] x [0..11] x [0..11]
Info:     level 1:  [0..5] x [0..5] x [0..5]
Info:     level 2:  [0..2] x [0..2] x [0..2]
Info: MSM finished calculating stencils
Info: MSM finished creating map for grid levels
Info: MSM finished creating map for patches
Info: MSM has 9 interpolation / anterpolation objects (one per patch)
Info: MSM grid level 0 decomposed into 8 blocks ( 2 x 2 x 2 )
Info: MSM grid level 1 decomposed into 1 block ( 1 x 1 x 1 )
Info: MSM grid level 2 decomposed into 1 block ( 1 x 1 x 1 )
Info: MSM grid cutoff calculation decomposed into 783 work objects
TCL: Minimizing for 100 steps
ETITLE: TS BOND ANGLE DIHED IMPRP ELECT VDW BOUNDARY MISC KINETIC TOTAL TEMP POTENTIAL TOTAL3 TEMPAVG PRESSURE GPRESSURE VOLUME PRESSAVG GPRESSAVG
ENERGY: 0 0.0000 0.0000 0.0000 0.0000 -7348.6496 6353.7252 0.0000 0.0000 0.0000 -994.9244 0.0000 -994.9244 -994.9244 0.0000 75204.0846 46356.0498 27000.0000 75204.0846 46356.0498
ENERGY: 20 0.0000 0.0000 0.0000 0.0000 -8744.5981 644.7588 0.0000 0.0000 0.0000 -8099.8393 0.0000 -8099.8393 -8099.8393 0.0000 14286.6716 -2608.4261 27000.0000 14286.6716 -2608.4261
ENERGY: 40 0.0000 0.0000 0.0000 0.0000 -9255.3680 673.7888 0.0000 0.0000 0.0000 -8581.5792 0.0000 -8581.5792 -8581.5792 0.0000 14306.7126 -3612.4729 27000.0000 14306.7126 -3612.4729
ENERGY: 60 0.0000 0.0000 0.0000 0.0000 -9570.7013 738.1056 0.0000 0.0000 0.0000 -8832.5956 0.0000 -8832.5956 -8832.5956 0.0000 14889.9963 -3661.0805 27000.0000 14889.9963 -3661.0805
ENERGY: 80 0.0000 0.0000 0.0000 0.0000 -9709.9643 782.3927 0.0000 0.0000 0.0000 -8927.5716 0.0000 -8927.5716 -8927.5716 0.0000 15330.9898 -3519.5204 27000.0000 15330.9898 -3519.5204
ENERGY: 100 0.0000 0.0000 0.0000 0.0000 -9872.8050 825.3029 0.0000 0.0000 0.0000 -9047.5021 0.0000 -9047.5021 -9047.5021 0.0000 15763.8762 15684.4275 27000.0000 15763.8762 15684.4275
TCL: Running for 40000 steps
ETITLE: TS BOND ANGLE DIHED IMPRP ELECT VDW BOUNDARY MISC KINETIC TOTAL TEMP POTENTIAL TOTAL3 TEMPAVG PRESSURE GPRESSURE VOLUME PRESSAVG GPRESSAVG
ENERGY: 200 0.0000 0.0000 0.0000 0.0000 -9444.7558 910.2721 0.0000 0.0000 1041.9493 -7492.5344 211.7233 -8534.4837 -7490.6687 194.5121 -2502.3194 -2461.9231 27000.0000 -2505.6981 -2505.2850
ENERGY: 8200 0.0000 0.0000 0.0000 0.0000 -8664.2818 802.2956 0.0000 0.0000 1468.0878 -6393.8984 298.3143 -7861.9862 -6391.9824 300.1269 -1312.5874 -1287.1769 27000.0000 -1327.3322 -1326.8920
ENERGY: 16200 0.0000 0.0000 0.0000 0.0000 -8763.4478 822.5749 0.0000 0.0000 1397.8899 -6542.9830 284.0501 -7940.8728 -6540.0991 297.4570 -1422.4935 -1388.9256 27000.0000 -1360.1946 -1359.4908
ENERGY: 24000 0.0000 0.0000 0.0000 0.0000 -8878.8851 857.4509 0.0000 0.0000 1422.4535 -6598.9807 289.0415 -8021.4342 -6596.7835 294.1415 -1313.5879 -1266.7214 27000.0000 -1336.1198 -1335.6069
ENERGY: 32000 0.0000 0.0000 0.0000 0.0000 -8850.6529 884.6637 0.0000 0.0000 1448.5045 -6517.4847 294.3350 -7965.9892 -6514.4142 295.9973 -867.3580 -834.4254 27000.0000 -1243.3914 -1243.1638
ENERGY: 40000 0.0000 0.0000 0.0000 0.0000 -8748.5686 795.1892 0.0000 0.0000 1461.9290 -6491.4505 297.0628 -7953.3795 -6488.1148 297.0245 -1683.9778 -1647.5568 27000.0000 -1678.5966 -1678.8626
