Info: SIMULATION PARAMETERS:
Info: TIMESTEP               2
Info: NUMBER OF STEPS        0
Info: STEPS PER CYCLE        10
Info: PERIODIC CELL BASIS 1  43.508 0 0
Info: PERIODIC CELL BASIS 2  0 41.891 0
Info: PERIODIC CELL BASIS 3  0 0 39.119
Info: PERIODIC CELL CENTER   0 0 0
Info: WRAPPING WATERS AROUND PERIODIC BOUNDARIES ON OUTPUT.
Info: WRAPPING ALL CLUSTERS AROUND PERIODIC BOUNDARIES ON OUTPUT.
Info: FIRST LDB TIMESTEP     50
Info: LAST LDB TIMESTEP     -1
Info: HOM BACKGROUND SCALING 1
Info: PME BACKGROUND SCALING 1
Info: MIN ATOMS PER PATCH    40
Info: EMPTY PATCH LOAD       40 ATOMS
Info: INITIAL TEMPERATURE    300
Info: CENTER OF MASS MOVING INITIALLY? NO
Info: DIELECTRIC             1
Info: EXCLUDE                SCALED ONE-FOUR
Info: 1-4 ELECTROSTATICS SCALED BY 0.833333
Info: MODIFIED 1-4 VDW PARAMETERS WILL BE USED
Info: DCD FILENAME           mobley_7378987_min.dcd
Info: DCD FREQUENCY          5000
Info: DCD FIRST STEP         5000
Info: DCD FILE WILL CONTAIN UNIT CELL DATA
Info: XST FILENAME           mobley_7378987_min.xst
Info: XST FREQUENCY          5000
Info: NO VELOCITY DCD OUTPUT
Info: NO FORCE DCD OUTPUT
Info: OUTPUT FILENAME        mobley_7378987_min
Info: BINARY OUTPUT FILES WILL BE USED
Info: RESTART FILENAME       mobley_7378987_min.restart
Info: RESTART FREQUENCY      5000
Info: BINARY RESTART FILES WILL BE USED
Info: CUTOFF                 9
Info: PAIRLIST DISTANCE      11
Info: PAIRLIST SHRINK RATE   0.01
Info: PAIRLIST GROW RATE     0.01
Info: PAIRLIST TRIGGER       0.3
Info: PAIRLISTS PER CYCLE    2
Info: PAIRLISTS ENABLED
Info: MARGIN                 8
Info: HYDROGEN GROUP CUTOFF  2.5
Info: PATCH DIMENSION        21.5
Info: ENERGY OUTPUT STEPS    5000
Info: ENERGY EVALUATION STEPS    5000
Info: OUTPUT ENERGY PRECISION 4
Info: CROSSTERM ENERGY INCLUDED IN DIHEDRAL
Info: TIMING OUTPUT STEPS    50000
Info: PRESSURE OUTPUT STEPS  5000
Info: LANGEVIN DYNAMICS ACTIVE
Info: LANGEVIN TEMPERATURE   300
Info: LANGEVIN USING BBK INTEGRATOR
Info: LANGEVIN DAMPING COEFFICIENT IS 1 INVERSE PS
Info: LANGEVIN DYNAMICS APPLIED TO HYDROGENS
Info: LANGEVIN PISTON PRESSURE CONTROL ACTIVE
Info:        TARGET PRESSURE IS 1.01325 BAR
Info:     OSCILLATION PERIOD IS 50 FS
Info:             DECAY TIME IS 25 FS
Info:     PISTON TEMPERATURE IS 300 K
Info:       PRESSURE CONTROL IS GROUP-BASED
Info:    INITIAL STRAIN RATE IS 0 0 0
Info:       CELL FLUCTUATION IS ISOTROPIC
Info: PARTICLE MESH EWALD (PME) ACTIVE
Info: PME TOLERANCE               1e-06
Info: PME EWALD COEFFICIENT       0.348832
Info: PME INTERPOLATION ORDER     4
Info: PME GRID DIMENSIONS         44 44 40
Info: PME MAXIMUM GRID SPACING    1
Info: FULL ELECTROSTATIC EVALUATION FREQUENCY      2
Info: USING VERLET I (r-RESPA) MTS SCHEME.
Info: C1 SPLITTING OF LONG RANGE ELECTROSTATICS
Info: PLACING ATOMS IN PATCHES BY HYDROGEN GROUPS
Info: RIGID BONDS TO HYDROGEN : ALL
Info:         ERROR TOLERANCE : 1e-08
Info:          MAX ITERATIONS : 100
Info: RIGID WATER USING SETTLE ALGORITHM
Info: RANDOM NUMBER SEED     1741386754
Info: USE HYDROGEN BONDS?    NO
Info: Using AMBER format force field!
Info: AMBER PARM FILE        mobley_7378987.prmtop
Info: COORDINATE PDB         mobley_7378987.pdb
Info: Exclusions will be read from PARM file!
Info: SCNB (VDW SCALING)     2
Info: USING ARITHMETIC MEAN TO COMBINE L-J SIGMA PARAMETERS
Info: SUMMARY OF PARAMETERS:
Info: 14 BONDS
Info: 23 ANGLES
Info:   23 HARMONIC
Info:   0 COSINE-BASED
Info: 10 DIHEDRAL
Info: 0 IMPROPER
Info: 0 CROSSTERM
Info: 0 VDW
Info: 55 VDW_PAIRS
Info: 0 NBTHOLE_PAIRS
Info: STRUCTURE SUMMARY:
Info: 5025 ATOMS
Info: 5026 BONDS
Info: 43 ANGLES
Info: 56 DIHEDRALS
Info: 0 IMPROPERS
Info: 0 CROSSTERMS
Info: 5115 EXCLUSIONS
Info: 5011 RIGID BONDS
Info: 10064 DEGREES OF FREEDOM
Info: 1681 HYDROGEN GROUPS
Info: 4 ATOMS IN LARGEST HYDROGEN GROUP
Info: 1681 MIGRATION GROUPS
Info: 4 ATOMS IN LARGEST MIGRATION GROUP
Info: TOTAL MASS = 30226.9 amu
Info: TOTAL CHARGE = -0.000199961 e
Info: MASS DENSITY = 0.704004 g/cm^3
Info: ATOM DENSITY = 0.0704788 atoms/A^3
Info: ADDED 0 IMPLICIT EXCLUSIONS
Info: NONBONDED TABLE R-SQUARED SPACING: 0.0625
Info: NONBONDED TABLE SIZE: 705 POINTS
Info: REMOVING COM VELOCITY -0.119055 0.0787661 0.0966312
TCL: Minimizing for 2000 steps
ETITLE: TS BOND ANGLE DIHED IMPRP ELECT VDW BOUNDARY MISC KINETIC TOTAL TEMP POTENTIAL TOTAL3 TEMPAVG PRESSURE GPRESSURE VOLUME PRESSAVG GPRESSAVG
ENERGY: 0 1.9605 1.6562 0.0003 0.0000 -15689.5061 1716.2171 0.0000 0.0000 0.0000 -13969.6721 0.0000 -13969.6721 -13969.6721 0.0000 10483.5866 -15150.5831 71298.0401 10483.5866 -15150.5831
ENERGY: 400 3.0706 5.7756 0.3322 0.0000 -21175.7274 3063.2194 0.0000 0.0000 0.0000 -18103.3296 0.0000 -18103.3296 -18103.3296 0.0000 15323.6947 15409.8313 71298.0401 15323.6947 15409.8313
ENERGY: 800 1.3935 2.2563 0.1951 0.0000 -22030.1558 3450.6741 0.0000 0.0000 0.0000 -18575.6368 0.0000 -18575.6368 -18575.6368 0.0000 16956.9989 17007.7905 71298.0401 16956.9989 17007.7905
ENERGY: 1200 3.9782 3.3156 0.3162 0.0000 -22537.3835 3668.0324 0.0000 0.0000 0.0000 -18861.7412 0.0000 -18861.7412 -18861.7412 0.0000 17974.4712 18043.6167 71298.0401 17974.4712 18043.6167
ENERGY: 1600 0.8502 2.0815 0.2280 0.0000 -22846.0844 3812.4158 0.0000 0.0000 0.0000 -19030.5088 0.0000 -19030.5088 -19030.5088 0.0000 18639.2285 18711.0122 71298.0401 18639.2285 18711.0122
ENERGY: 2000 0.7050 2.1424 0.5375 0.0000 -23043.9345 3909.6684 0.0000 0.0000 0.0000 -19130.8813 0.0000 -19130.8813 -19130.8813 0.0000 19147.4249 19188.0060 71298.0401 19147.4249 19188.0060
TCL: Exiting due to exit command.
Info: NAMD 3.0.1 for Linux-x86_64-multicore
Info: Please visit http://www.ks.uiuc.edu/Research/namd/
Info: for updates, documentation, and support information.
Info: Please cite Phillips et al., J. Chem. Phys. 153:044130 (2020) doi:10.1063/5.0014475
Info: in all publications reporting results obtained with NAMD.
Info: Based on Charm++/Converse 80000 for multicore-linux-x86_64-gcc
Info: Built Mon Oct 14 11:11:06 CDT 2024 by dhardy on athine.ks.uiuc.edu
Info: 1 NAMD  3.0.1  Linux-x86_64-multicore  16    k063  z5358697
Info: Running on 16 processors, 1 nodes, 1 physical nodes.
Info: CPU topology information available.
Info: Charm++/Converse parallel runtime startup completed at 0.0387539 s
Info: 1043.46 MB of memory in use based on /proc/self/stat
Info: Configuration file is mobley_7378987_equil.namd
Info: Working in the current directory /srv/scratch/z5358697/prod_prep_9/7378987
TCL: Running 25000 steps at 30 kelvin.
TCL: Suspending until startup complete.
Info: SIMULATION PARAMETERS:
Info: TIMESTEP               2
Info: NUMBER OF STEPS        0
Info: STEPS PER CYCLE        10
Info: PERIODIC CELL BASIS 1  43.508 0 0
Info: PERIODIC CELL BASIS 2  0 41.891 0
Info: PERIODIC CELL BASIS 3  0 0 39.119
Info: PERIODIC CELL CENTER   0 0 0
Info: WRAPPING WATERS AROUND PERIODIC BOUNDARIES ON OUTPUT.
Info: WRAPPING ALL CLUSTERS AROUND PERIODIC BOUNDARIES ON OUTPUT.
Info: FIRST LDB TIMESTEP     50
Info: LAST LDB TIMESTEP     -1
Info: HOM BACKGROUND SCALING 1
Info: PME BACKGROUND SCALING 1
Info: MIN ATOMS PER PATCH    40
Info: EMPTY PATCH LOAD       40 ATOMS
Info: INITIAL TEMPERATURE    300
Info: CENTER OF MASS MOVING INITIALLY? NO
Info: DIELECTRIC             1
Info: EXCLUDE                SCALED ONE-FOUR
Info: 1-4 ELECTROSTATICS SCALED BY 0.833333
Info: MODIFIED 1-4 VDW PARAMETERS WILL BE USED
Info: DCD FILENAME           mobley_7378987_equil.dcd
Info: DCD FREQUENCY          5000
Info: DCD FIRST STEP         5000
Info: DCD FILE WILL CONTAIN UNIT CELL DATA
Info: XST FILENAME           mobley_7378987_equil.xst
Info: XST FREQUENCY          5000
Info: NO VELOCITY DCD OUTPUT
Info: NO FORCE DCD OUTPUT
Info: OUTPUT FILENAME        mobley_7378987_equil
Info: BINARY OUTPUT FILES WILL BE USED
Info: RESTART FILENAME       mobley_7378987_equil.restart
Info: RESTART FREQUENCY      5000
Info: BINARY RESTART FILES WILL BE USED
Info: CUTOFF                 9
Info: PAIRLIST DISTANCE      11
Info: PAIRLIST SHRINK RATE   0.01
Info: PAIRLIST GROW RATE     0.01
Info: PAIRLIST TRIGGER       0.3
Info: PAIRLISTS PER CYCLE    2
Info: PAIRLISTS ENABLED
Info: MARGIN                 8
Info: HYDROGEN GROUP CUTOFF  2.5
Info: PATCH DIMENSION        21.5
Info: ENERGY OUTPUT STEPS    5000
Info: ENERGY EVALUATION STEPS    5000
Info: OUTPUT ENERGY PRECISION 4
Info: CROSSTERM ENERGY INCLUDED IN DIHEDRAL
Info: TIMING OUTPUT STEPS    50000
Info: PRESSURE OUTPUT STEPS  5000
Info: LANGEVIN DYNAMICS ACTIVE
Info: LANGEVIN TEMPERATURE   30
Info: LANGEVIN USING BBK INTEGRATOR
Info: LANGEVIN DAMPING COEFFICIENT IS 1 INVERSE PS
Info: LANGEVIN DYNAMICS APPLIED TO HYDROGENS
Info: LANGEVIN PISTON PRESSURE CONTROL ACTIVE
Info:        TARGET PRESSURE IS 1.01325 BAR
Info:     OSCILLATION PERIOD IS 50 FS
Info:             DECAY TIME IS 25 FS
Info:     PISTON TEMPERATURE IS 300 K
Info:       PRESSURE CONTROL IS GROUP-BASED
Info:    INITIAL STRAIN RATE IS 0 0 0
Info:       CELL FLUCTUATION IS ISOTROPIC
Info: PARTICLE MESH EWALD (PME) ACTIVE
Info: PME TOLERANCE               1e-06
Info: PME EWALD COEFFICIENT       0.348832
Info: PME INTERPOLATION ORDER     4
Info: PME GRID DIMENSIONS         44 44 40
Info: PME MAXIMUM GRID SPACING    1
Info: FULL ELECTROSTATIC EVALUATION FREQUENCY      2
Info: USING VERLET I (r-RESPA) MTS SCHEME.
Info: C1 SPLITTING OF LONG RANGE ELECTROSTATICS
Info: PLACING ATOMS IN PATCHES BY HYDROGEN GROUPS
Info: RIGID BONDS TO HYDROGEN : ALL
Info:         ERROR TOLERANCE : 1e-08
Info:          MAX ITERATIONS : 100
Info: RIGID WATER USING SETTLE ALGORITHM
Info: RANDOM NUMBER SEED     1741386773
Info: USE HYDROGEN BONDS?    NO
Info: Using AMBER format force field!
Info: AMBER PARM FILE        mobley_7378987.prmtop
Info: COORDINATE PDB         mobley_7378987.pdb
Info: Exclusions will be read from PARM file!
Info: SCNB (VDW SCALING)     2
Info: USING ARITHMETIC MEAN TO COMBINE L-J SIGMA PARAMETERS
Info: BINARY COORDINATES     mobley_7378987_min.coor
Info: SUMMARY OF PARAMETERS:
Info: 14 BONDS
Info: 23 ANGLES
Info:   23 HARMONIC
Info:   0 COSINE-BASED
Info: 10 DIHEDRAL
Info: 0 IMPROPER
Info: 0 CROSSTERM
Info: 0 VDW
Info: 55 VDW_PAIRS
Info: 0 NBTHOLE_PAIRS
Info: STRUCTURE SUMMARY:
Info: 5025 ATOMS
Info: 5026 BONDS
Info: 43 ANGLES
Info: 56 DIHEDRALS
Info: 0 IMPROPERS
Info: 0 CROSSTERMS
Info: 5115 EXCLUSIONS
Info: 5011 RIGID BONDS
Info: 10064 DEGREES OF FREEDOM
Info: 1681 HYDROGEN GROUPS
Info: 4 ATOMS IN LARGEST HYDROGEN GROUP
Info: 1681 MIGRATION GROUPS
Info: 4 ATOMS IN LARGEST MIGRATION GROUP
Info: TOTAL MASS = 30226.9 amu
Info: TOTAL CHARGE = -0.000199961 e
Info: MASS DENSITY = 0.704004 g/cm^3
Info: ATOM DENSITY = 0.0704788 atoms/A^3
Info: ADDED 0 IMPLICIT EXCLUSIONS
Info: NONBONDED TABLE R-SQUARED SPACING: 0.0625
Info: NONBONDED TABLE SIZE: 705 POINTS
Info: REMOVING COM VELOCITY -0.0615069 -0.116233 0.0528204
TCL: Running for 25000 steps
ETITLE: TS BOND ANGLE DIHED IMPRP ELECT VDW BOUNDARY MISC KINETIC TOTAL TEMP POTENTIAL TOTAL3 TEMPAVG PRESSURE GPRESSURE VOLUME PRESSAVG GPRESSAVG
ENERGY: 0 0.7050 2.1424 0.5375 0.0000 -23043.9345 3909.6684 0.0000 0.0000 3040.6877 -16090.1936 304.0826 -19130.8813 -16089.5642 304.0826 9.3709 54.9243 71298.0401 9.3709 54.9243
ENERGY: 5000 1.4278 2.5177 0.2138 0.0000 -24162.1208 4178.9188 0.0000 0.0000 301.7992 -19677.2435 30.1813 -19979.0428 -19676.2772 47.6991 85.8004 148.1109 50496.6065 -0.8706 -0.8249
ENERGY: 10000 0.8496 2.5207 0.8534 0.0000 -24463.7565 4416.9216 0.0000 0.0000 302.2749 -19740.3363 30.2289 -20042.6112 -19739.9066 30.4285 1150.4728 1196.0446 49987.1353 1.5366 1.6753
ENERGY: 15000 1.3404 2.6697 0.3825 0.0000 -24200.5809 4142.7041 0.0000 0.0000 299.9265 -19753.5577 29.9940 -20053.4843 -19752.9679 30.0517 -343.3695 -296.6897 50542.8085 -1.7963 -1.8768
ENERGY: 20000 1.1381 3.5926 0.4630 0.0000 -24225.8437 4147.0342 0.0000 0.0000 294.3826 -19779.2331 29.4396 -20073.6157 -19778.2420 30.1982 -341.5237 -291.7047 50469.2877 0.3865 0.3191
ENERGY: 25000 1.4849 3.2119 0.6473 0.0000 -24193.2611 4100.0008 0.0000 0.0000 303.6122 -19784.3039 30.3626 -20087.9161 -19783.2323 30.0866 -619.3445 -578.8482 50449.1239 -2.1661 -1.9942
TCL: Running 25000 steps at 60 kelvin.
TCL: Setting parameter langevinTemp to 60
TCL: Running for 25000 steps
ETITLE: TS BOND ANGLE DIHED IMPRP ELECT VDW BOUNDARY MISC KINETIC TOTAL TEMP POTENTIAL TOTAL3 TEMPAVG PRESSURE GPRESSURE VOLUME PRESSAVG GPRESSAVG
ENERGY: 25000 1.4849 3.2119 0.6473 0.0000 -24193.2611 4100.0008 0.0000 0.0000 303.4599 -19784.4562 30.3474 -20087.9161 -19783.8086 30.3474 -629.2057 -578.8259 50449.1239 -629.2057 -578.8259
ENERGY: 30000 0.8855 3.1359 0.8424 0.0000 -23976.8443 4149.9273 0.0000 0.0000 604.2158 -19217.8376 60.4243 -19822.0533 -19216.8378 57.0550 267.3180 322.2992 50037.4330 -0.1564 -0.4152
ENERGY: 35000 1.3778 3.3690 0.6688 0.0000 -24001.0685 4100.6756 0.0000 0.0000 618.8348 -19276.1426 61.8863 -19894.9774 -19274.4285 60.5547 -50.6469 -20.2041 50135.3611 6.7875 6.6079
ENERGY: 40000 1.8904 3.6265 0.9336 0.0000 -24086.0849 4185.1870 0.0000 0.0000 615.5624 -19278.8851 61.5590 -19894.4475 -19277.7469 60.2460 398.4440 440.6517 49784.4493 1.4162 1.4545
ENERGY: 45000 1.1302 3.9715 0.8250 0.0000 -24047.8757 4110.3180 0.0000 0.0000 598.7589 -19332.8721 59.8786 -19931.6310 -19331.6112 60.0115 -13.0574 26.1092 49741.0196 1.8831 1.8049
ENERGY: 50000 1.7861 2.7183 0.5865 0.0000 -23995.6888 4050.5738 0.0000 0.0000 607.7096 -19332.3144 60.7737 -19940.0240 -19330.6678 60.0056 -335.6191 -264.8433 49695.5272 2.5796 2.7840
TCL: Running 25000 steps at 90 kelvin.
TCL: Setting parameter langevinTemp to 90
TCL: Running for 25000 steps
ETITLE: TS BOND ANGLE DIHED IMPRP ELECT VDW BOUNDARY MISC KINETIC TOTAL TEMP POTENTIAL TOTAL3 TEMPAVG PRESSURE GPRESSURE VOLUME PRESSAVG GPRESSAVG
ENERGY: 50000 1.7861 2.7183 0.5865 0.0000 -23995.6888 4050.5738 0.0000 0.0000 607.4138 -19332.6102 60.7441 -19940.0240 -19331.3834 60.7441 -323.5843 -264.5344 49695.5272 -323.5843 -264.5344
ENERGY: 55000 2.4175 4.1678 0.9391 0.0000 -23674.2014 4021.2481 0.0000 0.0000 922.6820 -18722.7469 92.2724 -19645.4289 -18720.9320 87.6375 296.9386 358.5166 49695.3689 4.2243 4.1254
ENERGY: 60000 3.1702 3.7678 0.7139 0.0000 -23675.4844 3935.2229 0.0000 0.0000 913.8220 -18818.7875 91.3864 -19732.6095 -18816.7669 90.5624 -429.0170 -357.4576 49861.7975 1.8527 1.7739
ENERGY: 65000 1.6529 4.4729 0.7439 0.0000 -23933.5923 4157.9335 0.0000 0.0000 910.1540 -18858.6352 91.0195 -19768.7892 -18856.7235 90.2401 676.5394 708.1613 49342.3980 -3.6659 -3.7418
ENERGY: 70000 3.2137 5.3425 1.5354 0.0000 -23790.6466 3997.5229 0.0000 0.0000 916.3302 -18866.7018 91.6372 -19783.0320 -18864.5814 90.1225 -188.2528 -173.7798 49377.5734 3.1043 3.0836
ENERGY: 75000 1.9845 5.4581 1.6486 0.0000 -23795.1657 3995.8571 0.0000 0.0000 905.9601 -18884.2574 90.6001 -19790.2175 -18882.7033 89.9937 -126.8186 -56.1937 48923.6315 3.3773 3.0002
TCL: Running 25000 steps at 120 kelvin.
TCL: Setting parameter langevinTemp to 120
TCL: Running for 25000 steps
ETITLE: TS BOND ANGLE DIHED IMPRP ELECT VDW BOUNDARY MISC KINETIC TOTAL TEMP POTENTIAL TOTAL3 TEMPAVG PRESSURE GPRESSURE VOLUME PRESSAVG GPRESSAVG
ENERGY: 75000 1.9845 5.4581 1.6486 0.0000 -23795.1657 3995.8571 0.0000 0.0000 905.5111 -18884.7063 90.5552 -19790.2175 -18882.6654 90.5552 -111.3164 -56.5917 48923.6315 -111.3164 -56.5917
ENERGY: 80000 1.2344 5.9854 1.0892 0.0000 -23253.3247 3764.9620 0.0000 0.0000 1218.5973 -18261.4563 121.8653 -19480.0536 -18258.3057 117.3247 -519.6139 -455.3050 49331.7972 -0.3888 -0.6994
ENERGY: 85000 1.8383 5.1891 1.2721 0.0000 -23405.1209 3889.7554 0.0000 0.0000 1211.5347 -18295.5314 121.1590 -19507.0660 -18291.9954 119.6523 73.4940 108.2835 49070.5627 1.8730 1.8048
ENERGY: 90000 1.9310 5.2995 2.4665 0.0000 -23187.3602 3656.7269 0.0000 0.0000 1202.5519 -18318.3843 120.2607 -19520.9362 -18315.6783 120.0806 -1196.5214 -1140.0646 49581.4832 2.6037 2.8868
ENERGY: 95000 2.3604 6.5703 1.5864 0.0000 -23488.7780 3941.0169 0.0000 0.0000 1179.4499 -18357.7941 117.9504 -19537.2440 -18354.7044 118.7965 307.4664 308.9129 48842.3845 -1.6687 -1.5534
ENERGY: 100000 1.5061 6.4707 1.0565 0.0000 -23430.8103 3835.4800 0.0000 0.0000 1210.7438 -18375.5531 121.0799 -19586.2969 -18372.0577 120.5975 -376.1938 -325.0108 49015.0813 1.5561 1.3550
TCL: Running 25000 steps at 150 kelvin.
TCL: Setting parameter langevinTemp to 150
TCL: Running for 25000 steps
ETITLE: TS BOND ANGLE DIHED IMPRP ELECT VDW BOUNDARY MISC KINETIC TOTAL TEMP POTENTIAL TOTAL3 TEMPAVG PRESSURE GPRESSURE VOLUME PRESSAVG GPRESSAVG
ENERGY: 100000 1.5061 6.4707 1.0565 0.0000 -23430.8103 3835.4800 0.0000 0.0000 1210.1533 -18376.1436 121.0208 -19586.2969 -18373.7150 121.0208 -372.9963 -324.4354 49015.0813 -372.9963 -324.4354
ENERGY: 105000 4.8318 6.7431 1.1996 0.0000 -22986.2932 3772.4548 0.0000 0.0000 1503.6804 -17697.3835 150.3749 -19201.0639 -17695.5303 146.6746 78.3283 149.0844 49297.5650 -0.4120 -0.0883
ENERGY: 110000 2.2584 4.2143 0.8449 0.0000 -23057.1073 3845.2030 0.0000 0.0000 1491.4662 -17713.1204 149.1534 -19204.5867 -17710.0035 150.0553 450.3212 487.0750 49225.6410 -0.2718 -0.6641
ENERGY: 115000 3.5435 7.2530 2.6142 0.0000 -22770.0452 3543.1756 0.0000 0.0000 1493.0797 -17720.3793 149.3148 -19213.4590 -17716.8378 149.5961 -1252.7497 -1225.1986 49720.8328 0.4013 0.4493
ENERGY: 120000 2.5494 7.5280 4.2630 0.0000 -22990.3469 3749.3492 0.0000 0.0000 1506.1862 -17720.4711 150.6255 -19226.6573 -17717.0812 150.0068 -134.6507 -101.5493 49184.0660 2.1693 2.3459
ENERGY: 125000 1.5179 5.3496 2.6914 0.0000 -23040.3013 3738.4230 0.0000 0.0000 1541.9724 -17750.3471 154.2043 -19292.3194 -17747.0840 150.4954 -217.6290 -167.7870 49022.2559 5.5334 5.4141
TCL: Running 50000 steps at 180 kelvin.
TCL: Setting parameter langevinTemp to 180
TCL: Running for 50000 steps
ETITLE: TS BOND ANGLE DIHED IMPRP ELECT VDW BOUNDARY MISC KINETIC TOTAL TEMP POTENTIAL TOTAL3 TEMPAVG PRESSURE GPRESSURE VOLUME PRESSAVG GPRESSAVG
ENERGY: 125000 1.5179 5.3496 2.6914 0.0000 -23040.3013 3738.4230 0.0000 0.0000 1541.2394 -17751.0801 154.1309 -19292.3194 -17748.1725 154.1309 -230.5951 -167.5615 49022.2559 -230.5951 -167.5615
ENERGY: 135000 4.0918 6.6234 1.6999 0.0000 -22266.0615 3490.5824 0.0000 0.0000 1812.8661 -16950.1980 181.2949 -18763.0640 -16944.5362 179.7380 -406.0314 -360.1941 49503.5831 4.9713 5.7642
ENERGY: 145000 4.6253 7.1038 1.9396 0.0000 -22297.5768 3475.1215 0.0000 0.0000 1800.8336 -17007.9530 180.0916 -18808.7866 -17003.3274 180.3185 -549.1738 -503.8869 49342.4623 -0.7041 -0.8398
ENERGY: 155000 1.5094 6.9532 1.9874 0.0000 -22213.2269 3348.1634 0.0000 0.0000 1768.5419 -17086.0716 176.8622 -18854.6135 -17082.4976 178.7144 -1263.2583 -1195.9759 49270.3841 2.9671 2.7960
ENERGY: 165000 3.0203 6.9283 1.9016 0.0000 -22663.5135 3735.0778 0.0000 0.0000 1822.8365 -17093.7490 182.2919 -18916.5855 -17089.7999 180.1678 564.9189 673.8046 48803.5415 8.0434 7.5564
ENERGY: 175000 3.4940 9.8072 3.3257 0.0000 -22425.8797 3474.9766 0.0000 0.0000 1772.8580 -17161.4183 177.2939 -18934.2763 -17156.5836 179.1951 -796.7863 -709.0417 49030.8289 1.0081 1.3846
TCL: Running 50000 steps at 210 kelvin.
TCL: Setting parameter langevinTemp to 210
TCL: Running for 50000 steps
ETITLE: TS BOND ANGLE DIHED IMPRP ELECT VDW BOUNDARY MISC KINETIC TOTAL TEMP POTENTIAL TOTAL3 TEMPAVG PRESSURE GPRESSURE VOLUME PRESSAVG GPRESSAVG
ENERGY: 175000 3.4940 9.8072 3.3257 0.0000 -22425.8797 3474.9766 0.0000 0.0000 1771.9458 -17162.3305 177.2026 -18934.2763 -17158.8407 177.2026 -766.4258 -708.8874 49030.8289 -766.4258 -708.8874
ENERGY: 185000 3.4168 7.4803 4.2511 0.0000 -21515.1379 3399.7532 0.0000 0.0000 2068.5131 -16031.7234 206.8607 -18100.2365 -16027.3070 210.4262 448.3695 563.3659 49493.6916 1.7447 1.9124
ENERGY: 195000 5.0874 5.1820 2.5375 0.0000 -21218.9341 3162.8291 0.0000 0.0000 2099.6354 -15943.6626 209.9731 -18043.2980 -15939.5036 211.0992 -377.9337 -252.4849 49180.9638 3.6423 3.7700
ENERGY: 205000 2.8795 5.9631 1.0692 0.0000 -21350.0666 3253.5251 0.0000 0.0000 2087.3076 -15999.3222 208.7403 -18086.6298 -15996.3297 210.1717 128.6327 151.0802 49034.8879 1.1501 0.7058
ENERGY: 215000 4.3408 8.4320 2.2041 0.0000 -21221.6843 3140.6149 0.0000 0.0000 2092.0453 -15974.0472 209.2141 -18066.0925 -15970.8530 210.3379 -567.5042 -503.1098 49330.3610 3.8460 4.1743
ENERGY: 225000 4.2156 6.6174 1.0182 0.0000 -21191.1611 3081.5029 0.0000 0.0000 2103.3754 -15994.4315 210.3471 -18097.8069 -15989.3648 209.2165 -684.2916 -615.2584 48876.1439 4.2498 4.1318
TCL: Running 50000 steps at 240 kelvin.
TCL: Setting parameter langevinTemp to 240
TCL: Running for 50000 steps
ETITLE: TS BOND ANGLE DIHED IMPRP ELECT VDW BOUNDARY MISC KINETIC TOTAL TEMP POTENTIAL TOTAL3 TEMPAVG PRESSURE GPRESSURE VOLUME PRESSAVG GPRESSAVG
ENERGY: 225000 4.2156 6.6174 1.0182 0.0000 -21191.1611 3081.5029 0.0000 0.0000 2102.3433 -15995.4636 210.2439 -18097.8069 -15991.3383 210.2439 -695.4628 -615.3391 48876.1439 -695.4628 -615.3391
ENERGY: 235000 5.2452 9.4634 2.5737 0.0000 -20283.1974 2915.3838 0.0000 0.0000 2419.0685 -14931.4628 241.9179 -17350.5314 -14924.8808 238.6879 -335.2819 -254.9544 49779.5811 3.3505 3.4560
ENERGY: 245000 7.3658 6.9676 4.1391 0.0000 -20353.7818 3025.1799 0.0000 0.0000 2382.4525 -14927.6768 238.2561 -17310.1293 -14923.1198 239.7842 554.1432 644.2779 49361.9645 2.1011 2.7145
ENERGY: 255000 4.2816 5.6695 4.5281 0.0000 -20299.7275 2870.1868 0.0000 0.0000 2427.9371 -14987.1242 242.8048 -17415.0614 -14980.9767 239.7103 -405.4729 -297.1555 49050.8041 1.8574 2.3660
ENERGY: 265000 3.4824 7.6287 6.3566 0.0000 -20274.0648 2921.7657 0.0000 0.0000 2407.1443 -14927.6871 240.7254 -17334.8314 -14923.5732 240.8584 -146.1542 -62.6166 49641.0448 -1.6175 -1.3322
ENERGY: 275000 2.6660 9.6034 2.7072 0.0000 -20291.0858 2897.1283 0.0000 0.0000 2494.4812 -14884.4996 249.4595 -17378.9809 -14876.9944 240.9788 -261.1319 -177.1296 49453.1561 1.1677 1.4626
TCL: Running 50000 steps at 270 kelvin.
TCL: Setting parameter langevinTemp to 270
TCL: Running for 50000 steps
ETITLE: TS BOND ANGLE DIHED IMPRP ELECT VDW BOUNDARY MISC KINETIC TOTAL TEMP POTENTIAL TOTAL3 TEMPAVG PRESSURE GPRESSURE VOLUME PRESSAVG GPRESSAVG
ENERGY: 275000 2.6660 9.6034 2.7072 0.0000 -20291.0858 2897.1283 0.0000 0.0000 2493.3096 -14885.6713 249.3423 -17378.9809 -14881.3267 249.3423 -249.7521 -176.4437 49453.1561 -249.7521 -176.4437
ENERGY: 285000 4.9313 8.2073 3.1358 0.0000 -19437.5103 2854.8037 0.0000 0.0000 2700.4209 -13866.0114 270.0544 -16566.4322 -13861.4859 268.6632 1163.9458 1213.8863 49939.4379 -1.7942 -2.5149
ENERGY: 295000 3.9210 5.2859 2.4312 0.0000 -19263.4855 2654.4513 0.0000 0.0000 2697.4481 -13899.9480 269.7571 -16597.3962 -13894.4315 269.1268 -13.4595 69.2636 50256.3231 6.1313 6.1809
ENERGY: 305000 8.5169 7.4021 3.1412 0.0000 -19254.3399 2617.3395 0.0000 0.0000 2650.7290 -13967.2112 265.0850 -16617.9402 -13961.5630 272.0126 -396.3064 -269.0127 50779.4880 -0.1138 0.8637
ENERGY: 315000 6.7042 9.7473 5.2012 0.0000 -19318.1253 2621.0680 0.0000 0.0000 2674.6606 -14000.7441 267.4782 -16675.4047 -13993.6075 270.9084 -262.3023 -214.4827 50315.6991 0.4519 0.6401
ENERGY: 325000 5.7902 11.1109 4.9067 0.0000 -19427.5691 2751.7655 0.0000 0.0000 2695.1948 -13958.8010 269.5317 -16653.9958 -13952.2774 270.0452 252.8833 370.6233 50092.7080 4.5663 4.7850
TCL: Running 1000000 steps at 300 kelvin.
TCL: Setting parameter langevinTemp to 300
TCL: Running for 1000000 steps
ETITLE: TS BOND ANGLE DIHED IMPRP ELECT VDW BOUNDARY MISC KINETIC TOTAL TEMP POTENTIAL TOTAL3 TEMPAVG PRESSURE GPRESSURE VOLUME PRESSAVG GPRESSAVG
ENERGY: 325000 5.7902 11.1109 4.9067 0.0000 -19427.5691 2751.7655 0.0000 0.0000 2693.8339 -13960.1619 269.3956 -16653.9958 -13955.8864 269.3956 275.4522 370.7690 50092.7080 275.4522 370.7690
ENERGY: 525000 7.7386 10.3312 5.5828 0.0000 -18398.3495 2427.2199 0.0000 0.0000 2981.6567 -12965.8205 298.1792 -15947.4771 -12962.1662 302.0288 -202.1142 -142.6256 51602.9318 2.3573 2.2739
ENERGY: 725000 5.8777 10.8393 5.0853 0.0000 -18491.9105 2524.1173 0.0000 0.0000 3064.5946 -12881.3962 306.4734 -15945.9908 -12874.6630 300.1429 147.5194 277.4840 51873.6698 0.0227 0.7110
ENERGY: 925000 4.9750 9.6758 3.4874 0.0000 -18531.5178 2570.2934 0.0000 0.0000 3036.8072 -12906.2791 303.6945 -15943.0863 -12899.7832 302.4666 460.4453 515.2623 51703.6605 0.5652 0.1448
ENERGY: 1125000 4.5725 6.1753 2.4929 0.0000 -18257.8068 2418.2725 0.0000 0.0000 3010.2045 -12816.0890 301.0341 -15826.2935 -12812.2669 299.3843 -29.0531 37.2352 51674.4880 3.2328 3.7418
ENERGY: 1325000 7.1625 11.6044 7.0785 0.0000 -18323.1509 2430.3842 0.0000 0.0000 2990.2055 -12876.7159 299.0342 -15866.9213 -12871.9237 300.9209 -220.2249 -145.9067 52407.3891 1.4575 1.5739
TCL: Exiting due to exit command.
