Info: SIMULATION PARAMETERS:
Info: TIMESTEP               2
Info: NUMBER OF STEPS        0
Info: STEPS PER CYCLE        10
Info: PERIODIC CELL BASIS 1  43.924 0 0
Info: PERIODIC CELL BASIS 2  0 41.891 0
Info: PERIODIC CELL BASIS 3  0 0 43.557
Info: PERIODIC CELL CENTER   0 0 0
Info: WRAPPING WATERS AROUND PERIODIC BOUNDARIES ON OUTPUT.
Info: WRAPPING ALL CLUSTERS AROUND PERIODIC BOUNDARIES ON OUTPUT.
Info: FIRST LDB TIMESTEP     50
Info: LAST LDB TIMESTEP     -1
Info: HOM BACKGROUND SCALING 1
Info: PME BACKGROUND SCALING 1
Info: MIN ATOMS PER PATCH    40
Info: EMPTY PATCH LOAD       40 ATOMS
Info: INITIAL TEMPERATURE    300
Info: CENTER OF MASS MOVING INITIALLY? NO
Info: DIELECTRIC             1
Info: EXCLUDE                SCALED ONE-FOUR
Info: 1-4 ELECTROSTATICS SCALED BY 0.833333
Info: MODIFIED 1-4 VDW PARAMETERS WILL BE USED
Info: DCD FILENAME           mobley_6055410_min.dcd
Info: DCD FREQUENCY          5000
Info: DCD FIRST STEP         5000
Info: DCD FILE WILL CONTAIN UNIT CELL DATA
Info: XST FILENAME           mobley_6055410_min.xst
Info: XST FREQUENCY          5000
Info: NO VELOCITY DCD OUTPUT
Info: NO FORCE DCD OUTPUT
Info: OUTPUT FILENAME        mobley_6055410_min
Info: BINARY OUTPUT FILES WILL BE USED
Info: RESTART FILENAME       mobley_6055410_min.restart
Info: RESTART FREQUENCY      5000
Info: BINARY RESTART FILES WILL BE USED
Info: CUTOFF                 9
Info: PAIRLIST DISTANCE      11
Info: PAIRLIST SHRINK RATE   0.01
Info: PAIRLIST GROW RATE     0.01
Info: PAIRLIST TRIGGER       0.3
Info: PAIRLISTS PER CYCLE    2
Info: PAIRLISTS ENABLED
Info: MARGIN                 8
Info: HYDROGEN GROUP CUTOFF  2.5
Info: PATCH DIMENSION        21.5
Info: ENERGY OUTPUT STEPS    5000
Info: ENERGY EVALUATION STEPS    5000
Info: OUTPUT ENERGY PRECISION 4
Info: CROSSTERM ENERGY INCLUDED IN DIHEDRAL
Info: TIMING OUTPUT STEPS    50000
Info: PRESSURE OUTPUT STEPS  5000
Info: LANGEVIN DYNAMICS ACTIVE
Info: LANGEVIN TEMPERATURE   300
Info: LANGEVIN USING BBK INTEGRATOR
Info: LANGEVIN DAMPING COEFFICIENT IS 1 INVERSE PS
Info: LANGEVIN DYNAMICS APPLIED TO HYDROGENS
Info: LANGEVIN PISTON PRESSURE CONTROL ACTIVE
Info:        TARGET PRESSURE IS 1.01325 BAR
Info:     OSCILLATION PERIOD IS 50 FS
Info:             DECAY TIME IS 25 FS
Info:     PISTON TEMPERATURE IS 300 K
Info:       PRESSURE CONTROL IS GROUP-BASED
Info:    INITIAL STRAIN RATE IS 0 0 0
Info:       CELL FLUCTUATION IS ISOTROPIC
Info: PARTICLE MESH EWALD (PME) ACTIVE
Info: PME TOLERANCE               1e-06
Info: PME EWALD COEFFICIENT       0.348832
Info: PME INTERPOLATION ORDER     4
Info: PME GRID DIMENSIONS         44 44 44
Info: PME MAXIMUM GRID SPACING    1
Info: FULL ELECTROSTATIC EVALUATION FREQUENCY      2
Info: USING VERLET I (r-RESPA) MTS SCHEME.
Info: C1 SPLITTING OF LONG RANGE ELECTROSTATICS
Info: PLACING ATOMS IN PATCHES BY HYDROGEN GROUPS
Info: RIGID BONDS TO HYDROGEN : ALL
Info:         ERROR TOLERANCE : 1e-08
Info:          MAX ITERATIONS : 100
Info: RIGID WATER USING SETTLE ALGORITHM
Info: RANDOM NUMBER SEED     1741349101
Info: USE HYDROGEN BONDS?    NO
Info: Using AMBER format force field!
Info: AMBER PARM FILE        mobley_6055410.prmtop
Info: COORDINATE PDB         mobley_6055410.pdb
Info: Exclusions will be read from PARM file!
Info: SCNB (VDW SCALING)     2
Info: USING ARITHMETIC MEAN TO COMBINE L-J SIGMA PARAMETERS
Info: SUMMARY OF PARAMETERS:
Info: 12 BONDS
Info: 15 ANGLES
Info:   15 HARMONIC
Info:   0 COSINE-BASED
Info: 9 DIHEDRAL
Info: 0 IMPROPER
Info: 0 CROSSTERM
Info: 0 VDW
Info: 36 VDW_PAIRS
Info: 0 NBTHOLE_PAIRS
Info: STRUCTURE SUMMARY:
Info: 5795 ATOMS
Info: 5796 BONDS
Info: 41 ANGLES
Info: 69 DIHEDRALS
Info: 0 IMPROPERS
Info: 0 CROSSTERMS
Info: 5891 EXCLUSIONS
Info: 5777 RIGID BONDS
Info: 11608 DEGREES OF FREEDOM
Info: 1941 HYDROGEN GROUPS
Info: 3 ATOMS IN LARGEST HYDROGEN GROUP
Info: 1941 MIGRATION GROUPS
Info: 3 ATOMS IN LARGEST MIGRATION GROUP
Info: TOTAL MASS = 34895 amu
Info: TOTAL CHARGE = -0.000200089 e
Info: MASS DENSITY = 0.723005 g/cm^3
Info: ATOM DENSITY = 0.0723058 atoms/A^3
Info: ADDED 0 IMPLICIT EXCLUSIONS
Info: NONBONDED TABLE R-SQUARED SPACING: 0.0625
Info: NONBONDED TABLE SIZE: 705 POINTS
Info: REMOVING COM VELOCITY -0.119446 0.052753 -0.104295
TCL: Minimizing for 2000 steps
ETITLE: TS BOND ANGLE DIHED IMPRP ELECT VDW BOUNDARY MISC KINETIC TOTAL TEMP POTENTIAL TOTAL3 TEMPAVG PRESSURE GPRESSURE VOLUME PRESSAVG GPRESSAVG
ENERGY: 0 1.0577 1.5823 9.9693 0.0000 -18203.2532 2050.4486 0.0000 0.0000 0.0000 -16140.1953 0.0000 -16140.1953 -16140.1953 0.0000 11230.6338 -16027.1971 80145.7635 11230.6338 -16027.1971
ENERGY: 400 3.4007 4.0459 9.4569 0.0000 -24564.9292 3780.1290 0.0000 0.0000 0.0000 -20767.8967 0.0000 -20767.8967 -20767.8967 0.0000 16739.2662 16895.3354 80145.7635 16739.2662 16895.3354
ENERGY: 800 1.7146 2.9025 7.8988 0.0000 -25554.8621 4128.9375 0.0000 0.0000 0.0000 -21413.4088 0.0000 -21413.4088 -21413.4088 0.0000 18125.1357 18257.8568 80145.7635 18125.1357 18257.8568
ENERGY: 1200 1.1737 2.5201 6.9644 0.0000 -26078.9464 4359.3071 0.0000 0.0000 0.0000 -21708.9812 0.0000 -21708.9812 -21708.9812 0.0000 19095.8132 19221.6945 80145.7635 19095.8132 19221.6945
ENERGY: 1600 17.7968 13.0900 7.3169 0.0000 -26355.9564 4469.0493 0.0000 0.0000 0.0000 -21848.7035 0.0000 -21848.7035 -21848.7035 0.0000 19553.8838 19668.1929 80145.7635 19553.8838 19668.1929
ENERGY: 2000 0.9052 2.0632 6.8738 0.0000 -26502.3158 4530.5255 0.0000 0.0000 0.0000 -21961.9481 0.0000 -21961.9481 -21961.9481 0.0000 19828.5784 19945.1140 80145.7635 19828.5784 19945.1140
TCL: Exiting due to exit command.
Info: NAMD 3.0.1 for Linux-x86_64-multicore
Info: Please visit http://www.ks.uiuc.edu/Research/namd/
Info: for updates, documentation, and support information.
Info: Please cite Phillips et al., J. Chem. Phys. 153:044130 (2020) doi:10.1063/5.0014475
Info: in all publications reporting results obtained with NAMD.
Info: Based on Charm++/Converse 80000 for multicore-linux-x86_64-gcc
Info: Built Mon Oct 14 11:11:06 CDT 2024 by dhardy on athine.ks.uiuc.edu
Info: 1 NAMD  3.0.1  Linux-x86_64-multicore  16    k010  z5358697
Info: Running on 16 processors, 1 nodes, 1 physical nodes.
Info: CPU topology information available.
Info: Charm++/Converse parallel runtime startup completed at 0.0094487 s
Info: 1043.45 MB of memory in use based on /proc/self/stat
Info: Configuration file is mobley_6055410_equil.namd
Info: Working in the current directory /srv/scratch/z5358697/prod_prep_7/6055410
TCL: Running 25000 steps at 30 kelvin.
TCL: Suspending until startup complete.
Info: SIMULATION PARAMETERS:
Info: TIMESTEP               2
Info: NUMBER OF STEPS        0
Info: STEPS PER CYCLE        10
Info: PERIODIC CELL BASIS 1  43.924 0 0
Info: PERIODIC CELL BASIS 2  0 41.891 0
Info: PERIODIC CELL BASIS 3  0 0 43.557
Info: PERIODIC CELL CENTER   0 0 0
Info: WRAPPING WATERS AROUND PERIODIC BOUNDARIES ON OUTPUT.
Info: WRAPPING ALL CLUSTERS AROUND PERIODIC BOUNDARIES ON OUTPUT.
Info: FIRST LDB TIMESTEP     50
Info: LAST LDB TIMESTEP     -1
Info: HOM BACKGROUND SCALING 1
Info: PME BACKGROUND SCALING 1
Info: MIN ATOMS PER PATCH    40
Info: EMPTY PATCH LOAD       40 ATOMS
Info: INITIAL TEMPERATURE    300
Info: CENTER OF MASS MOVING INITIALLY? NO
Info: DIELECTRIC             1
Info: EXCLUDE                SCALED ONE-FOUR
Info: 1-4 ELECTROSTATICS SCALED BY 0.833333
Info: MODIFIED 1-4 VDW PARAMETERS WILL BE USED
Info: DCD FILENAME           mobley_6055410_equil.dcd
Info: DCD FREQUENCY          5000
Info: DCD FIRST STEP         5000
Info: DCD FILE WILL CONTAIN UNIT CELL DATA
Info: XST FILENAME           mobley_6055410_equil.xst
Info: XST FREQUENCY          5000
Info: NO VELOCITY DCD OUTPUT
Info: NO FORCE DCD OUTPUT
Info: OUTPUT FILENAME        mobley_6055410_equil
Info: BINARY OUTPUT FILES WILL BE USED
Info: RESTART FILENAME       mobley_6055410_equil.restart
Info: RESTART FREQUENCY      5000
Info: BINARY RESTART FILES WILL BE USED
Info: CUTOFF                 9
Info: PAIRLIST DISTANCE      11
Info: PAIRLIST SHRINK RATE   0.01
Info: PAIRLIST GROW RATE     0.01
Info: PAIRLIST TRIGGER       0.3
Info: PAIRLISTS PER CYCLE    2
Info: PAIRLISTS ENABLED
Info: MARGIN                 8
Info: HYDROGEN GROUP CUTOFF  2.5
Info: PATCH DIMENSION        21.5
Info: ENERGY OUTPUT STEPS    5000
Info: ENERGY EVALUATION STEPS    5000
Info: OUTPUT ENERGY PRECISION 4
Info: CROSSTERM ENERGY INCLUDED IN DIHEDRAL
Info: TIMING OUTPUT STEPS    50000
Info: PRESSURE OUTPUT STEPS  5000
Info: LANGEVIN DYNAMICS ACTIVE
Info: LANGEVIN TEMPERATURE   30
Info: LANGEVIN USING BBK INTEGRATOR
Info: LANGEVIN DAMPING COEFFICIENT IS 1 INVERSE PS
Info: LANGEVIN DYNAMICS APPLIED TO HYDROGENS
Info: LANGEVIN PISTON PRESSURE CONTROL ACTIVE
Info:        TARGET PRESSURE IS 1.01325 BAR
Info:     OSCILLATION PERIOD IS 50 FS
Info:             DECAY TIME IS 25 FS
Info:     PISTON TEMPERATURE IS 300 K
Info:       PRESSURE CONTROL IS GROUP-BASED
Info:    INITIAL STRAIN RATE IS 0 0 0
Info:       CELL FLUCTUATION IS ISOTROPIC
Info: PARTICLE MESH EWALD (PME) ACTIVE
Info: PME TOLERANCE               1e-06
Info: PME EWALD COEFFICIENT       0.348832
Info: PME INTERPOLATION ORDER     4
Info: PME GRID DIMENSIONS         44 44 44
Info: PME MAXIMUM GRID SPACING    1
Info: FULL ELECTROSTATIC EVALUATION FREQUENCY      2
Info: USING VERLET I (r-RESPA) MTS SCHEME.
Info: C1 SPLITTING OF LONG RANGE ELECTROSTATICS
Info: PLACING ATOMS IN PATCHES BY HYDROGEN GROUPS
Info: RIGID BONDS TO HYDROGEN : ALL
Info:         ERROR TOLERANCE : 1e-08
Info:          MAX ITERATIONS : 100
Info: RIGID WATER USING SETTLE ALGORITHM
Info: RANDOM NUMBER SEED     1741349117
Info: USE HYDROGEN BONDS?    NO
Info: Using AMBER format force field!
Info: AMBER PARM FILE        mobley_6055410.prmtop
Info: COORDINATE PDB         mobley_6055410.pdb
Info: Exclusions will be read from PARM file!
Info: SCNB (VDW SCALING)     2
Info: USING ARITHMETIC MEAN TO COMBINE L-J SIGMA PARAMETERS
Info: BINARY COORDINATES     mobley_6055410_min.coor
Info: SUMMARY OF PARAMETERS:
Info: 12 BONDS
Info: 15 ANGLES
Info:   15 HARMONIC
Info:   0 COSINE-BASED
Info: 9 DIHEDRAL
Info: 0 IMPROPER
Info: 0 CROSSTERM
Info: 0 VDW
Info: 36 VDW_PAIRS
Info: 0 NBTHOLE_PAIRS
Info: STRUCTURE SUMMARY:
Info: 5795 ATOMS
Info: 5796 BONDS
Info: 41 ANGLES
Info: 69 DIHEDRALS
Info: 0 IMPROPERS
Info: 0 CROSSTERMS
Info: 5891 EXCLUSIONS
Info: 5777 RIGID BONDS
Info: 11608 DEGREES OF FREEDOM
Info: 1941 HYDROGEN GROUPS
Info: 3 ATOMS IN LARGEST HYDROGEN GROUP
Info: 1941 MIGRATION GROUPS
Info: 3 ATOMS IN LARGEST MIGRATION GROUP
Info: TOTAL MASS = 34895 amu
Info: TOTAL CHARGE = -0.000200089 e
Info: MASS DENSITY = 0.723005 g/cm^3
Info: ATOM DENSITY = 0.0723058 atoms/A^3
Info: ADDED 0 IMPLICIT EXCLUSIONS
Info: NONBONDED TABLE R-SQUARED SPACING: 0.0625
Info: NONBONDED TABLE SIZE: 705 POINTS
Info: REMOVING COM VELOCITY 0.154196 0.109073 -0.00422049
TCL: Running for 25000 steps
ETITLE: TS BOND ANGLE DIHED IMPRP ELECT VDW BOUNDARY MISC KINETIC TOTAL TEMP POTENTIAL TOTAL3 TEMPAVG PRESSURE GPRESSURE VOLUME PRESSAVG GPRESSAVG
ENERGY: 0 0.9052 2.0632 6.8738 0.0000 -26502.3158 4530.5255 0.0000 0.0000 3470.1904 -18491.7576 300.8751 -21961.9481 -18491.0946 300.8751 191.5404 232.7823 80145.7635 191.5404 232.7823
ENERGY: 5000 2.0001 1.2849 10.0739 0.0000 -27655.8940 4596.6692 0.0000 0.0000 356.6449 -22689.2210 30.9221 -23045.8659 -22688.3007 48.3496 -815.7729 -733.5573 55948.6731 3.2735 3.1716
ENERGY: 10000 1.6352 2.8335 8.7632 0.0000 -27717.2550 4601.8016 0.0000 0.0000 341.2233 -22760.9983 29.5850 -23102.2216 -22759.7978 30.1926 -907.0779 -835.4798 55912.4585 2.9011 2.9925
ENERGY: 15000 1.2325 2.2535 8.8479 0.0000 -27837.4966 4724.4084 0.0000 0.0000 341.3735 -22759.3809 29.5980 -23100.7544 -22758.7475 30.0395 -253.0738 -188.2651 55620.4095 2.1006 2.1529
ENERGY: 20000 1.1906 2.0697 9.5372 0.0000 -27936.2611 4808.0654 0.0000 0.0000 351.1571 -22764.2412 30.4463 -23115.3983 -22763.1214 30.1679 89.0015 161.1987 55464.8530 4.2759 4.4425
ENERGY: 25000 1.2035 1.8478 8.7587 0.0000 -27853.4287 4709.8104 0.0000 0.0000 346.4549 -22785.3534 30.0386 -23131.8082 -22784.3400 30.0875 -345.8981 -272.1659 55379.1060 0.6557 0.5772
TCL: Running 25000 steps at 60 kelvin.
TCL: Setting parameter langevinTemp to 60
TCL: Running for 25000 steps
ETITLE: TS BOND ANGLE DIHED IMPRP ELECT VDW BOUNDARY MISC KINETIC TOTAL TEMP POTENTIAL TOTAL3 TEMPAVG PRESSURE GPRESSURE VOLUME PRESSAVG GPRESSAVG
ENERGY: 25000 1.2035 1.8478 8.7587 0.0000 -27853.4287 4709.8104 0.0000 0.0000 346.2821 -22785.5261 30.0236 -23131.8082 -22784.7300 30.0236 -334.4140 -272.1586 55379.1060 -334.4140 -272.1586
ENERGY: 30000 1.1079 2.9893 8.6380 0.0000 -27526.9431 4700.1717 0.0000 0.0000 706.4613 -22107.5747 61.2522 -22814.0361 -22106.1952 56.9641 276.5875 351.1777 55377.7996 1.4022 1.7064
ENERGY: 35000 2.8464 2.7853 9.2174 0.0000 -27630.9317 4737.2134 0.0000 0.0000 711.7720 -22167.0972 61.7126 -22878.8693 -22165.2591 60.2929 358.2255 407.6932 55082.3513 1.1428 0.9330
ENERGY: 40000 2.9120 2.4459 8.5784 0.0000 -27446.0356 4545.4404 0.0000 0.0000 687.3407 -22199.3181 59.5943 -22886.6588 -22197.8940 60.2322 -678.6060 -607.1373 55457.7154 0.0158 -0.1343
ENERGY: 45000 1.9492 2.1065 9.9740 0.0000 -27623.6151 4694.1723 0.0000 0.0000 685.6413 -22229.7718 59.4470 -22915.4131 -22227.5577 59.5852 -8.9959 28.0414 55483.6568 -2.7330 -2.6853
ENERGY: 50000 1.8151 2.3325 10.7029 0.0000 -27703.5929 4736.8252 0.0000 0.0000 703.9650 -22247.9522 61.0357 -22951.9172 -22246.1162 60.3429 167.1637 217.3405 55322.0521 -3.7323 -3.5388
TCL: Running 25000 steps at 90 kelvin.
TCL: Setting parameter langevinTemp to 90
TCL: Running for 25000 steps
ETITLE: TS BOND ANGLE DIHED IMPRP ELECT VDW BOUNDARY MISC KINETIC TOTAL TEMP POTENTIAL TOTAL3 TEMPAVG PRESSURE GPRESSURE VOLUME PRESSAVG GPRESSAVG
ENERGY: 50000 1.8151 2.3325 10.7029 0.0000 -27703.5929 4736.8252 0.0000 0.0000 703.6207 -22248.2965 61.0059 -22951.9172 -22246.8996 61.0059 170.4951 217.7208 55322.0521 170.4951 217.7208
ENERGY: 55000 1.4605 2.9994 10.9028 0.0000 -27022.5225 4421.8006 0.0000 0.0000 1056.5728 -21528.7864 91.6078 -22585.3592 -21525.6990 87.0092 -581.4848 -550.8534 56105.0003 7.0303 7.3003
ENERGY: 60000 1.5558 3.8025 11.0346 0.0000 -27074.3406 4461.5188 0.0000 0.0000 1020.7187 -21575.7102 88.4991 -22596.4290 -21572.6725 90.0435 -482.4039 -425.1532 56075.7007 6.4649 6.1068
ENERGY: 65000 1.5466 4.5322 10.9947 0.0000 -27487.4439 4831.0489 0.0000 0.0000 1021.0858 -21618.2358 88.5310 -22639.3216 -21615.1921 89.7618 1189.4343 1238.6867 55324.2709 0.0580 0.5492
ENERGY: 70000 2.7614 4.1858 10.0183 0.0000 -27281.1344 4588.5445 0.0000 0.0000 1006.9932 -21668.6311 87.3091 -22675.6243 -21667.8073 89.9886 -58.2823 -13.7954 55913.9206 3.6039 3.7323
ENERGY: 75000 2.1775 4.6562 8.9505 0.0000 -27179.4207 4483.8204 0.0000 0.0000 1051.4128 -21628.4033 91.1604 -22679.8161 -21624.4930 90.0097 -460.9468 -403.0380 55923.8326 4.4402 4.3051
TCL: Running 25000 steps at 120 kelvin.
TCL: Setting parameter langevinTemp to 120
TCL: Running for 25000 steps
ETITLE: TS BOND ANGLE DIHED IMPRP ELECT VDW BOUNDARY MISC KINETIC TOTAL TEMP POTENTIAL TOTAL3 TEMPAVG PRESSURE GPRESSURE VOLUME PRESSAVG GPRESSAVG
ENERGY: 75000 2.1775 4.6562 8.9505 0.0000 -27179.4207 4483.8204 0.0000 0.0000 1050.9184 -21628.8977 91.1175 -22679.8161 -21627.1245 91.1175 -460.3338 -402.6016 55923.8326 -460.3338 -402.6016
ENERGY: 80000 2.9123 3.1566 12.6025 0.0000 -26902.1994 4593.1161 0.0000 0.0000 1365.7776 -20924.6343 118.4167 -22290.4118 -20921.4233 116.3749 843.7582 873.8875 55757.9096 4.1295 4.1252
ENERGY: 85000 2.9057 2.4545 10.6771 0.0000 -26543.9851 4182.9233 0.0000 0.0000 1386.5003 -20958.5242 120.2134 -22345.0245 -20954.6199 120.0742 -1212.5305 -1187.2846 56652.4318 3.7921 3.9792
ENERGY: 90000 1.8721 3.0876 10.3769 0.0000 -26901.5373 4518.4016 0.0000 0.0000 1388.0352 -20979.7639 120.3465 -22367.7991 -20975.0029 120.3479 160.8510 215.8273 56208.6287 5.9877 6.0668
ENERGY: 95000 2.9476 4.7632 9.5901 0.0000 -26861.6621 4439.1163 0.0000 0.0000 1361.7855 -21043.4594 118.0706 -22405.2449 -21039.2676 120.5640 -204.9703 -177.9282 56200.9236 4.1526 4.0859
ENERGY: 100000 4.3783 3.4363 10.1853 0.0000 -26939.6910 4449.4026 0.0000 0.0000 1373.8401 -21098.4484 119.1157 -22472.2885 -21094.6993 120.3348 -322.1967 -266.4674 56190.5201 4.6256 4.7125
TCL: Running 25000 steps at 150 kelvin.
TCL: Setting parameter langevinTemp to 150
TCL: Running for 25000 steps
ETITLE: TS BOND ANGLE DIHED IMPRP ELECT VDW BOUNDARY MISC KINETIC TOTAL TEMP POTENTIAL TOTAL3 TEMPAVG PRESSURE GPRESSURE VOLUME PRESSAVG GPRESSAVG
ENERGY: 100000 4.3783 3.4363 10.1853 0.0000 -26939.6910 4449.4026 0.0000 0.0000 1373.1431 -21099.1454 119.0553 -22472.2885 -21096.0818 119.0553 -322.4037 -267.1747 56190.5201 -322.4037 -267.1747
ENERGY: 105000 3.0144 3.8479 12.0672 0.0000 -26307.9793 4318.4825 0.0000 0.0000 1711.8085 -20258.7588 148.4185 -21970.5673 -20255.5726 146.8514 -107.8634 -32.2524 56582.0219 3.6838 3.7601
ENERGY: 110000 3.0967 4.7550 12.3117 0.0000 -25997.0201 3996.0407 0.0000 0.0000 1713.7851 -20267.0308 148.5899 -21980.8159 -20261.8719 148.9393 -1496.0064 -1460.7816 57302.4470 4.7485 4.5500
ENERGY: 115000 4.3028 2.9007 12.1952 0.0000 -26232.8732 4262.8926 0.0000 0.0000 1735.9370 -20214.6448 150.5106 -21950.5819 -20209.2891 151.5019 -285.3743 -235.9282 56942.3250 1.3781 1.0714
ENERGY: 120000 2.0461 5.7925 10.3912 0.0000 -26372.7069 4346.2616 0.0000 0.0000 1706.8926 -20301.3229 147.9923 -22008.2155 -20297.2646 150.4137 33.1248 112.9853 56658.2904 8.3118 7.7974
ENERGY: 125000 4.5216 4.9725 12.8224 0.0000 -26386.4531 4270.7975 0.0000 0.0000 1733.6198 -20359.7193 150.3096 -22093.3391 -20354.5257 149.9016 -685.0954 -604.5081 56857.3884 2.7987 2.7433
TCL: Running 50000 steps at 180 kelvin.
TCL: Setting parameter langevinTemp to 180
TCL: Running for 50000 steps
ETITLE: TS BOND ANGLE DIHED IMPRP ELECT VDW BOUNDARY MISC KINETIC TOTAL TEMP POTENTIAL TOTAL3 TEMPAVG PRESSURE GPRESSURE VOLUME PRESSAVG GPRESSAVG
ENERGY: 125000 4.5216 4.9725 12.8224 0.0000 -26386.4531 4270.7975 0.0000 0.0000 1732.7810 -20360.5581 150.2369 -22093.3391 -20356.6407 150.2369 -665.5230 -604.0056 56857.3884 -665.5230 -604.0056
ENERGY: 135000 4.5036 5.8078 11.4254 0.0000 -25741.0725 4179.4136 0.0000 0.0000 2039.9450 -19499.9771 176.8689 -21539.9221 -19494.0682 180.8464 170.6445 240.8725 56458.8279 2.5569 2.5314
ENERGY: 145000 3.6062 5.0135 8.6655 0.0000 -25598.3458 4006.3775 0.0000 0.0000 2066.9774 -19507.7058 179.2127 -21574.6832 -19502.4126 178.7773 -668.6957 -631.4136 56816.9166 4.9833 5.0257
ENERGY: 155000 4.1309 4.3710 13.0140 0.0000 -25692.2411 4091.0764 0.0000 0.0000 2116.2509 -19463.3979 183.4848 -21579.6488 -19458.6508 180.1671 -274.4119 -220.6213 56712.7418 4.6201 5.0313
ENERGY: 165000 2.8772 4.4797 11.4472 0.0000 -25730.2419 4077.1625 0.0000 0.0000 2072.9837 -19561.2917 179.7334 -21634.2754 -19555.5343 180.0826 -417.6596 -353.2304 56784.8317 8.6604 8.6265
ENERGY: 175000 4.6773 4.5227 11.4498 0.0000 -25623.8868 3997.1632 0.0000 0.0000 2032.7396 -19573.3343 176.2442 -21606.0739 -19568.3030 178.8560 -761.4810 -707.0144 56817.7428 1.5874 1.6328
TCL: Running 50000 steps at 210 kelvin.
TCL: Setting parameter langevinTemp to 210
TCL: Running for 50000 steps
ETITLE: TS BOND ANGLE DIHED IMPRP ELECT VDW BOUNDARY MISC KINETIC TOTAL TEMP POTENTIAL TOTAL3 TEMPAVG PRESSURE GPRESSURE VOLUME PRESSAVG GPRESSAVG
ENERGY: 175000 4.6773 4.5227 11.4498 0.0000 -25623.8868 3997.1632 0.0000 0.0000 2031.6889 -19574.3850 176.1531 -21606.0739 -19570.5542 176.1531 -768.1623 -706.7529 56817.7428 -768.1623 -706.7529
ENERGY: 185000 4.9624 8.9078 12.1261 0.0000 -24606.6282 3796.9153 0.0000 0.0000 2388.8200 -18394.8967 207.1173 -20783.7167 -18389.1858 210.4215 -60.7817 32.8568 56858.9177 0.5229 0.5011
ENERGY: 195000 4.0326 7.9865 13.4190 0.0000 -24308.6703 3664.4787 0.0000 0.0000 2388.5946 -18230.1590 207.0978 -20618.7536 -18225.9631 209.2099 -170.8318 -83.1933 56382.8884 8.0021 7.6126
ENERGY: 205000 4.1387 8.0599 13.9085 0.0000 -24439.8424 3661.6465 0.0000 0.0000 2443.6974 -18308.3914 211.8753 -20752.0888 -18299.5333 210.6045 -328.4072 -259.6743 56339.5343 4.6065 4.4589
ENERGY: 215000 4.5720 4.4877 14.1321 0.0000 -24269.2204 3576.1315 0.0000 0.0000 2453.8242 -18216.0730 212.7534 -20669.8972 -18211.1795 209.3910 -630.3523 -551.7291 56528.4785 2.1869 2.1689
ENERGY: 225000 3.0389 2.9185 11.7635 0.0000 -24518.3884 3853.7053 0.0000 0.0000 2346.9646 -18299.9976 203.4883 -20646.9622 -18293.8911 211.0761 656.7454 768.2439 56193.3311 0.2628 -0.0711
TCL: Running 50000 steps at 240 kelvin.
TCL: Setting parameter langevinTemp to 240
TCL: Running for 50000 steps
ETITLE: TS BOND ANGLE DIHED IMPRP ELECT VDW BOUNDARY MISC KINETIC TOTAL TEMP POTENTIAL TOTAL3 TEMPAVG PRESSURE GPRESSURE VOLUME PRESSAVG GPRESSAVG
ENERGY: 225000 3.0389 2.9185 11.7635 0.0000 -24518.3884 3853.7053 0.0000 0.0000 2345.7407 -18301.2215 203.3822 -20646.9622 -18297.2602 203.3822 684.8323 768.6369 56193.3311 684.8323 768.6369
ENERGY: 235000 6.4612 7.4787 12.0474 0.0000 -23201.8551 3327.4614 0.0000 0.0000 2770.5917 -17077.8148 240.2180 -19848.4065 -17070.9043 240.1676 -267.9322 -195.9609 57177.3339 1.5762 1.3464
ENERGY: 245000 4.7951 10.0043 19.2071 0.0000 -23238.0165 3455.9345 0.0000 0.0000 2810.1534 -16937.9222 243.6481 -19748.0756 -16931.8473 239.8779 621.4841 762.0984 56604.9291 0.3671 1.2982
ENERGY: 255000 6.3807 5.1429 15.6601 0.0000 -23015.0006 3258.1339 0.0000 0.0000 2796.7808 -16932.9022 242.4887 -19729.6831 -16930.1298 241.1900 -592.6373 -529.2108 57701.8460 1.3372 0.7863
ENERGY: 265000 2.6497 4.1616 11.7600 0.0000 -23190.2286 3355.8295 0.0000 0.0000 2776.8951 -17038.9326 240.7645 -19815.8278 -17028.3644 238.2664 -165.2134 -95.3321 57149.6364 4.7855 4.5849
ENERGY: 275000 4.3671 5.3764 19.1107 0.0000 -23255.9520 3331.3666 0.0000 0.0000 2799.9399 -17095.7914 242.7625 -19895.7313 -17090.2939 238.8442 -194.7160 -78.1484 56767.7360 2.8606 2.8113
TCL: Running 50000 steps at 270 kelvin.
TCL: Setting parameter langevinTemp to 270
TCL: Running for 50000 steps
ETITLE: TS BOND ANGLE DIHED IMPRP ELECT VDW BOUNDARY MISC KINETIC TOTAL TEMP POTENTIAL TOTAL3 TEMPAVG PRESSURE GPRESSURE VOLUME PRESSAVG GPRESSAVG
ENERGY: 275000 4.3671 5.3764 19.1107 0.0000 -23255.9520 3331.3666 0.0000 0.0000 2798.5322 -17097.1991 242.6405 -19895.7313 -17092.0821 242.6405 -162.3253 -79.2906 56767.7360 -162.3253 -79.2906
ENERGY: 285000 3.8337 6.9027 11.2271 0.0000 -22162.4274 3094.2718 0.0000 0.0000 3169.9617 -15876.2304 274.8445 -19046.1921 -15870.8643 269.8380 255.2180 296.9345 57832.4407 9.6824 9.3943
ENERGY: 295000 3.9687 4.2623 12.7451 0.0000 -22205.3947 3087.8037 0.0000 0.0000 3077.0850 -16019.5299 266.7918 -19096.6149 -16011.9748 269.6991 -76.6154 38.6366 57936.7880 6.9806 7.2524
ENERGY: 305000 8.5513 7.9391 11.8598 0.0000 -22188.8355 3072.9096 0.0000 0.0000 3125.1938 -15962.3818 270.9630 -19087.5757 -15957.2640 269.1996 -196.8771 -59.1774 57565.5173 -0.3978 -0.0727
ENERGY: 315000 3.7685 5.8108 15.9934 0.0000 -21918.8836 2932.0504 0.0000 0.0000 3112.3744 -15848.8861 269.8515 -18961.2606 -15841.4097 271.7277 -573.7260 -475.8111 58531.0884 1.3412 1.6567
ENERGY: 325000 10.1480 5.6816 11.5673 0.0000 -22122.8179 3102.5634 0.0000 0.0000 3103.8619 -15888.9956 269.1134 -18992.8575 -15883.9193 270.6581 365.3462 428.1184 57641.9559 4.8234 4.6026
TCL: Running 1000000 steps at 300 kelvin.
TCL: Setting parameter langevinTemp to 300
TCL: Running for 1000000 steps
ETITLE: TS BOND ANGLE DIHED IMPRP ELECT VDW BOUNDARY MISC KINETIC TOTAL TEMP POTENTIAL TOTAL3 TEMPAVG PRESSURE GPRESSURE VOLUME PRESSAVG GPRESSAVG
ENERGY: 325000 10.1480 5.6816 11.5673 0.0000 -22122.8179 3102.5634 0.0000 0.0000 3102.3411 -15890.5164 268.9816 -18992.8575 -15885.5613 268.9816 344.1843 428.1186 57641.9559 344.1843 428.1186
ENERGY: 525000 8.8849 7.5089 16.6953 0.0000 -21041.0131 2822.9676 0.0000 0.0000 3468.2678 -14716.6886 300.7084 -18184.9564 -14710.1595 300.0265 -7.9865 114.4559 60074.8829 -0.4189 -0.4477
ENERGY: 725000 4.4542 7.9495 21.7808 0.0000 -21194.2116 2896.2647 0.0000 0.0000 3398.3457 -14865.4168 294.6460 -18263.7625 -14858.0174 298.9790 91.7255 158.7936 60083.2014 4.7913 4.5804
ENERGY: 925000 5.5355 5.0227 13.5044 0.0000 -21251.0845 2971.4954 0.0000 0.0000 3450.4453 -14805.0813 299.1632 -18255.5266 -14796.9171 300.5691 743.7247 780.5754 59157.6768 -3.4988 -2.9275
ENERGY: 1125000 6.1460 9.9694 11.8607 0.0000 -21216.5217 2907.3052 0.0000 0.0000 3435.8417 -14845.3987 297.8970 -18281.2405 -14842.7612 301.1670 153.6421 218.2616 59315.9563 3.6638 3.6891
ENERGY: 1325000 5.8729 6.6203 14.1069 0.0000 -21026.7855 2809.8197 0.0000 0.0000 3452.0476 -14738.3182 299.3021 -18190.3657 -14730.7150 300.1300 -292.5510 -213.8709 60735.5214 4.1069 3.8916
TCL: Exiting due to exit command.
