Info: SIMULATION PARAMETERS:
Info: TIMESTEP               2
Info: NUMBER OF STEPS        0
Info: STEPS PER CYCLE        10
Info: PERIODIC CELL BASIS 1  31.981 0 0
Info: PERIODIC CELL BASIS 2  0 31.599 0
Info: PERIODIC CELL BASIS 3  0 0 31.349
Info: PERIODIC CELL CENTER   0 0 0
Info: WRAPPING WATERS AROUND PERIODIC BOUNDARIES ON OUTPUT.
Info: WRAPPING ALL CLUSTERS AROUND PERIODIC BOUNDARIES ON OUTPUT.
Info: FIRST LDB TIMESTEP     50
Info: LAST LDB TIMESTEP     -1
Info: HOM BACKGROUND SCALING 1
Info: PME BACKGROUND SCALING 1
Info: MIN ATOMS PER PATCH    40
Info: EMPTY PATCH LOAD       40 ATOMS
Info: INITIAL TEMPERATURE    300
Info: CENTER OF MASS MOVING INITIALLY? NO
Info: DIELECTRIC             1
Info: EXCLUDE                SCALED ONE-FOUR
Info: 1-4 ELECTROSTATICS SCALED BY 0.833333
Info: MODIFIED 1-4 VDW PARAMETERS WILL BE USED
Info: DCD FILENAME           mobley_8983100_min.dcd
Info: DCD FREQUENCY          5000
Info: DCD FIRST STEP         5000
Info: DCD FILE WILL CONTAIN UNIT CELL DATA
Info: XST FILENAME           mobley_8983100_min.xst
Info: XST FREQUENCY          5000
Info: NO VELOCITY DCD OUTPUT
Info: NO FORCE DCD OUTPUT
Info: OUTPUT FILENAME        mobley_8983100_min
Info: BINARY OUTPUT FILES WILL BE USED
Info: RESTART FILENAME       mobley_8983100_min.restart
Info: RESTART FREQUENCY      5000
Info: BINARY RESTART FILES WILL BE USED
Info: CUTOFF                 9
Info: PAIRLIST DISTANCE      11
Info: PAIRLIST SHRINK RATE   0.01
Info: PAIRLIST GROW RATE     0.01
Info: PAIRLIST TRIGGER       0.3
Info: PAIRLISTS PER CYCLE    2
Info: PAIRLISTS ENABLED
Info: MARGIN                 8
Info: HYDROGEN GROUP CUTOFF  2.5
Info: PATCH DIMENSION        21.5
Info: ENERGY OUTPUT STEPS    5000
Info: ENERGY EVALUATION STEPS    5000
Info: OUTPUT ENERGY PRECISION 4
Info: CROSSTERM ENERGY INCLUDED IN DIHEDRAL
Info: TIMING OUTPUT STEPS    50000
Info: PRESSURE OUTPUT STEPS  5000
Info: FIXED ATOMS ACTIVE
Info: LANGEVIN DYNAMICS ACTIVE
Info: LANGEVIN TEMPERATURE   300
Info: LANGEVIN USING BBK INTEGRATOR
Info: LANGEVIN DAMPING COEFFICIENT IS 1 INVERSE PS
Info: LANGEVIN DYNAMICS APPLIED TO HYDROGENS
Info: LANGEVIN PISTON PRESSURE CONTROL ACTIVE
Info:        TARGET PRESSURE IS 1.01325 BAR
Info:     OSCILLATION PERIOD IS 50 FS
Info:             DECAY TIME IS 25 FS
Info:     PISTON TEMPERATURE IS 300 K
Info:       PRESSURE CONTROL IS GROUP-BASED
Info:    INITIAL STRAIN RATE IS 0 0 0
Info:       CELL FLUCTUATION IS ISOTROPIC
Info: PARTICLE MESH EWALD (PME) ACTIVE
Info: PME TOLERANCE               1e-06
Info: PME EWALD COEFFICIENT       0.348832
Info: PME INTERPOLATION ORDER     4
Info: PME GRID DIMENSIONS         32 32 32
Info: PME MAXIMUM GRID SPACING    1
Info: FULL ELECTROSTATIC EVALUATION FREQUENCY      2
Info: USING VERLET I (r-RESPA) MTS SCHEME.
Info: C1 SPLITTING OF LONG RANGE ELECTROSTATICS
Info: PLACING ATOMS IN PATCHES BY HYDROGEN GROUPS
Info: RIGID BONDS TO HYDROGEN : ALL
Info:         ERROR TOLERANCE : 1e-08
Info:          MAX ITERATIONS : 100
Info: RIGID WATER USING SETTLE ALGORITHM
Info: RANDOM NUMBER SEED     1741671303
Info: USE HYDROGEN BONDS?    NO
Info: Using AMBER format force field!
Info: AMBER PARM FILE        mobley_8983100.prmtop
Info: COORDINATE PDB         mobley_8983100.pdb
Info: Exclusions will be read from PARM file!
Info: SCNB (VDW SCALING)     2
Info: USING ARITHMETIC MEAN TO COMBINE L-J SIGMA PARAMETERS
Info: SUMMARY OF PARAMETERS:
Info: 4 BONDS
Info: 2 ANGLES
Info:   2 HARMONIC
Info:   0 COSINE-BASED
Info: 0 DIHEDRAL
Info: 0 IMPROPER
Info: 0 CROSSTERM
Info: 0 VDW
Info: 15 VDW_PAIRS
Info: 0 NBTHOLE_PAIRS
Info: STRUCTURE SUMMARY:
Info: 2027 ATOMS
Info: 2026 BONDS
Info: 6 ANGLES
Info: 0 DIHEDRALS
Info: 0 IMPROPERS
Info: 0 CROSSTERMS
Info: 2032 EXCLUSIONS
Info: 5 FIXED ATOMS
Info: 2025 RIGID BONDS
Info: 3 RIGID BONDS BETWEEN FIXED ATOMS
Info: 4044 DEGREES OF FREEDOM
Info: 676 HYDROGEN GROUPS
Info: 4 ATOMS IN LARGEST HYDROGEN GROUP
Info: 676 MIGRATION GROUPS
Info: 4 ATOMS IN LARGEST MIGRATION GROUP
Info: 2 HYDROGEN GROUPS WITH ALL ATOMS FIXED
Info: TOTAL MASS = 12237.7 amu
Info: TOTAL CHARGE = 3.72529e-09 e
Info: MASS DENSITY = 0.641462 g/cm^3
Info: ATOM DENSITY = 0.063983 atoms/A^3
Info: ADDED 0 IMPLICIT EXCLUSIONS
Info: NONBONDED TABLE R-SQUARED SPACING: 0.0625
Info: NONBONDED TABLE SIZE: 705 POINTS
Info: REMOVING COM VELOCITY 0.124745 0.1154 -0.159179
TCL: Minimizing for 2000 steps
ETITLE: TS BOND ANGLE DIHED IMPRP ELECT VDW BOUNDARY MISC KINETIC TOTAL TEMP POTENTIAL TOTAL3 TEMPAVG PRESSURE GPRESSURE VOLUME PRESSAVG GPRESSAVG
ENERGY: 0 0.0000 0.0000 0.0000 0.0000 -5836.5851 650.1996 0.0000 0.0000 0.0000 -5186.3855 0.0000 -5186.3855 -5186.3855 0.0000 8947.6395 -13105.8302 31680.2843 8947.6395 -13105.8302
ENERGY: 400 0.0000 0.0000 0.0000 0.0000 -8842.6423 1509.8784 0.0000 0.0000 0.0000 -7332.7639 0.0000 -7332.7639 -7332.7639 0.0000 16545.9835 15700.5537 31680.2843 16545.9835 15700.5537
ENERGY: 800 0.0000 0.0000 0.0000 0.0000 -9095.6578 1581.3676 0.0000 0.0000 0.0000 -7514.2902 0.0000 -7514.2902 -7514.2902 0.0000 17374.0912 16423.7084 31680.2843 17374.0912 16423.7084
ENERGY: 1200 0.0000 0.0000 0.0000 0.0000 -9178.0784 1608.1384 0.0000 0.0000 0.0000 -7569.9400 0.0000 -7569.9400 -7569.9400 0.0000 17694.3153 16772.2623 31680.2843 17694.3153 16772.2623
ENERGY: 1600 0.0000 0.0000 0.0000 0.0000 -9233.2503 1623.4694 0.0000 0.0000 0.0000 -7609.7809 0.0000 -7609.7809 -7609.7809 0.0000 17810.2554 16862.7857 31680.2843 17810.2554 16862.7857
ENERGY: 2000 0.0000 0.0000 0.0000 0.0000 -9280.3762 1638.3869 0.0000 0.0000 0.0000 -7641.9893 0.0000 -7641.9893 -7641.9893 0.0000 17980.5714 17072.1475 31680.2843 17980.5714 17072.1475
TCL: Exiting due to exit command.
Info: NAMD 3.0.1 for Linux-x86_64-multicore
Info: Please visit http://www.ks.uiuc.edu/Research/namd/
Info: for updates, documentation, and support information.
Info: Please cite Phillips et al., J. Chem. Phys. 153:044130 (2020) doi:10.1063/5.0014475
Info: in all publications reporting results obtained with NAMD.
Info: Based on Charm++/Converse 80000 for multicore-linux-x86_64-gcc
Info: Built Mon Oct 14 11:11:06 CDT 2024 by dhardy on athine.ks.uiuc.edu
Info: 1 NAMD  3.0.1  Linux-x86_64-multicore  16    k147  z5358697
Info: Running on 16 processors, 1 nodes, 1 physical nodes.
Info: CPU topology information available.
Info: Charm++/Converse parallel runtime startup completed at 0.00339389 s
Info: 1043.63 MB of memory in use based on /proc/self/stat
Info: Configuration file is equil.namd
Info: Working in the current directory /srv/scratch/z5358697/min-equil/2
TCL: Running 25000 steps at 30 kelvin.
TCL: Suspending until startup complete.
Info: SIMULATION PARAMETERS:
Info: TIMESTEP               2
Info: NUMBER OF STEPS        0
Info: STEPS PER CYCLE        10
Info: PERIODIC CELL BASIS 1  31.981 0 0
Info: PERIODIC CELL BASIS 2  0 31.599 0
Info: PERIODIC CELL BASIS 3  0 0 31.349
Info: PERIODIC CELL CENTER   0 0 0
Info: WRAPPING WATERS AROUND PERIODIC BOUNDARIES ON OUTPUT.
Info: WRAPPING ALL CLUSTERS AROUND PERIODIC BOUNDARIES ON OUTPUT.
Info: FIRST LDB TIMESTEP     50
Info: LAST LDB TIMESTEP     -1
Info: HOM BACKGROUND SCALING 1
Info: PME BACKGROUND SCALING 1
Info: MIN ATOMS PER PATCH    40
Info: EMPTY PATCH LOAD       40 ATOMS
Info: INITIAL TEMPERATURE    300
Info: CENTER OF MASS MOVING INITIALLY? NO
Info: DIELECTRIC             1
Info: EXCLUDE                SCALED ONE-FOUR
Info: 1-4 ELECTROSTATICS SCALED BY 0.833333
Info: MODIFIED 1-4 VDW PARAMETERS WILL BE USED
Info: DCD FILENAME           mobley_8983100_equil.dcd
Info: DCD FREQUENCY          5000
Info: DCD FIRST STEP         5000
Info: DCD FILE WILL CONTAIN UNIT CELL DATA
Info: XST FILENAME           mobley_8983100_equil.xst
Info: XST FREQUENCY          5000
Info: NO VELOCITY DCD OUTPUT
Info: NO FORCE DCD OUTPUT
Info: OUTPUT FILENAME        mobley_8983100_equil
Info: BINARY OUTPUT FILES WILL BE USED
Info: RESTART FILENAME       mobley_8983100_equil.restart
Info: RESTART FREQUENCY      5000
Info: BINARY RESTART FILES WILL BE USED
Info: CUTOFF                 9
Info: PAIRLIST DISTANCE      11
Info: PAIRLIST SHRINK RATE   0.01
Info: PAIRLIST GROW RATE     0.01
Info: PAIRLIST TRIGGER       0.3
Info: PAIRLISTS PER CYCLE    2
Info: PAIRLISTS ENABLED
Info: MARGIN                 8
Info: HYDROGEN GROUP CUTOFF  2.5
Info: PATCH DIMENSION        21.5
Info: ENERGY OUTPUT STEPS    5000
Info: ENERGY EVALUATION STEPS    5000
Info: OUTPUT ENERGY PRECISION 4
Info: CROSSTERM ENERGY INCLUDED IN DIHEDRAL
Info: TIMING OUTPUT STEPS    50000
Info: PRESSURE OUTPUT STEPS  5000
Info: FIXED ATOMS ACTIVE
Info: LANGEVIN DYNAMICS ACTIVE
Info: LANGEVIN TEMPERATURE   30
Info: LANGEVIN USING BBK INTEGRATOR
Info: LANGEVIN DAMPING COEFFICIENT IS 1 INVERSE PS
Info: LANGEVIN DYNAMICS APPLIED TO HYDROGENS
Info: LANGEVIN PISTON PRESSURE CONTROL ACTIVE
Info:        TARGET PRESSURE IS 1.01325 BAR
Info:     OSCILLATION PERIOD IS 50 FS
Info:             DECAY TIME IS 25 FS
Info:     PISTON TEMPERATURE IS 300 K
Info:       PRESSURE CONTROL IS GROUP-BASED
Info:    INITIAL STRAIN RATE IS 0 0 0
Info:       CELL FLUCTUATION IS ISOTROPIC
Info: PARTICLE MESH EWALD (PME) ACTIVE
Info: PME TOLERANCE               1e-06
Info: PME EWALD COEFFICIENT       0.348832
Info: PME INTERPOLATION ORDER     4
Info: PME GRID DIMENSIONS         32 32 32
Info: PME MAXIMUM GRID SPACING    1
Info: FULL ELECTROSTATIC EVALUATION FREQUENCY      2
Info: USING VERLET I (r-RESPA) MTS SCHEME.
Info: C1 SPLITTING OF LONG RANGE ELECTROSTATICS
Info: PLACING ATOMS IN PATCHES BY HYDROGEN GROUPS
Info: RIGID BONDS TO HYDROGEN : ALL
Info:         ERROR TOLERANCE : 1e-08
Info:          MAX ITERATIONS : 100
Info: RIGID WATER USING SETTLE ALGORITHM
Info: RANDOM NUMBER SEED     1741671305
Info: USE HYDROGEN BONDS?    NO
Info: Using AMBER format force field!
Info: AMBER PARM FILE        mobley_8983100.prmtop
Info: COORDINATE PDB         mobley_8983100.pdb
Info: Exclusions will be read from PARM file!
Info: SCNB (VDW SCALING)     2
Info: USING ARITHMETIC MEAN TO COMBINE L-J SIGMA PARAMETERS
Info: BINARY COORDINATES     mobley_8983100_min.coor
Info: SUMMARY OF PARAMETERS:
Info: 4 BONDS
Info: 2 ANGLES
Info:   2 HARMONIC
Info:   0 COSINE-BASED
Info: 0 DIHEDRAL
Info: 0 IMPROPER
Info: 0 CROSSTERM
Info: 0 VDW
Info: 15 VDW_PAIRS
Info: 0 NBTHOLE_PAIRS
Info: STRUCTURE SUMMARY:
Info: 2027 ATOMS
Info: 2026 BONDS
Info: 6 ANGLES
Info: 0 DIHEDRALS
Info: 0 IMPROPERS
Info: 0 CROSSTERMS
Info: 2032 EXCLUSIONS
Info: 5 FIXED ATOMS
Info: 2025 RIGID BONDS
Info: 3 RIGID BONDS BETWEEN FIXED ATOMS
Info: 4044 DEGREES OF FREEDOM
Info: 676 HYDROGEN GROUPS
Info: 4 ATOMS IN LARGEST HYDROGEN GROUP
Info: 676 MIGRATION GROUPS
Info: 4 ATOMS IN LARGEST MIGRATION GROUP
Info: 2 HYDROGEN GROUPS WITH ALL ATOMS FIXED
Info: TOTAL MASS = 12237.7 amu
Info: TOTAL CHARGE = 3.72529e-09 e
Info: MASS DENSITY = 0.641462 g/cm^3
Info: ATOM DENSITY = 0.063983 atoms/A^3
Info: ADDED 0 IMPLICIT EXCLUSIONS
Info: NONBONDED TABLE R-SQUARED SPACING: 0.0625
Info: NONBONDED TABLE SIZE: 705 POINTS
Info: REMOVING COM VELOCITY 0.10113 0.148697 0.0530435
TCL: Running for 25000 steps
ETITLE: TS BOND ANGLE DIHED IMPRP ELECT VDW BOUNDARY MISC KINETIC TOTAL TEMP POTENTIAL TOTAL3 TEMPAVG PRESSURE GPRESSURE VOLUME PRESSAVG GPRESSAVG
ENERGY: 0 0.0000 0.0000 0.0000 0.0000 -9280.3762 1638.3869 0.0000 0.0000 1229.3079 -6412.6815 305.9426 -7641.9893 -6412.4571 305.9426 506.4537 543.4129 31680.2843 506.4537 543.4129
ENERGY: 5000 0.0000 0.0000 0.0000 0.0000 -9656.6323 1637.7245 0.0000 0.0000 125.6135 -7893.2943 31.2619 -8018.9078 -7892.8374 48.8034 -408.8341 -353.2518 20087.9141 -1.8335 -1.9135
ENERGY: 10000 0.0000 0.0000 0.0000 0.0000 -9588.5029 1550.3724 0.0000 0.0000 116.6582 -7921.4723 29.0332 -8038.1305 -7921.1632 30.2369 -1543.0461 -1512.1531 20106.2803 4.0700 4.2257
ENERGY: 15000 0.0000 0.0000 0.0000 0.0000 -9720.3700 1672.3962 0.0000 0.0000 119.6446 -7928.3292 29.7764 -8047.9738 -7928.0373 30.2690 -110.7786 -59.6186 19903.2258 -2.5418 -2.2367
ENERGY: 20000 0.0000 0.0000 0.0000 0.0000 -9575.5812 1517.1571 0.0000 0.0000 121.9403 -7936.4839 30.3477 -8058.4242 -7936.3382 30.3433 -2015.8222 -1962.6385 20016.6385 5.0328 5.0293
ENERGY: 25000 0.0000 0.0000 0.0000 0.0000 -9881.5831 1817.2141 0.0000 0.0000 130.0604 -7934.3087 32.3686 -8064.3690 -7934.1635 30.1401 1775.4548 1807.2212 19494.5798 2.4598 2.4412
TCL: Running 25000 steps at 60 kelvin.
TCL: Setting parameter langevinTemp to 60
TCL: Running for 25000 steps
ETITLE: TS BOND ANGLE DIHED IMPRP ELECT VDW BOUNDARY MISC KINETIC TOTAL TEMP POTENTIAL TOTAL3 TEMPAVG PRESSURE GPRESSURE VOLUME PRESSAVG GPRESSAVG
ENERGY: 25000 0.0000 0.0000 0.0000 0.0000 -9881.5831 1817.2141 0.0000 0.0000 130.0027 -7934.3663 32.3543 -8064.3690 -7934.1683 32.3543 1758.6004 1807.0711 19494.5798 1758.6004 1807.0711
ENERGY: 30000 0.0000 0.0000 0.0000 0.0000 -9516.2159 1558.4077 0.0000 0.0000 252.1810 -7705.6273 62.7612 -7957.8083 -7704.3884 57.3010 -1183.3277 -1127.7943 20223.9955 11.7604 11.8941
ENERGY: 35000 0.0000 0.0000 0.0000 0.0000 -9690.4506 1718.9203 0.0000 0.0000 238.1429 -7733.3873 59.2675 -7971.5302 -7733.1567 59.9757 648.5642 720.9838 19951.1583 9.0140 9.3404
ENERGY: 40000 0.0000 0.0000 0.0000 0.0000 -9753.3290 1773.9652 0.0000 0.0000 236.4094 -7742.9544 58.8361 -7979.3638 -7742.4018 60.8181 1385.4604 1436.6990 19913.8155 5.8225 6.2293
ENERGY: 45000 0.0000 0.0000 0.0000 0.0000 -9669.3153 1671.3493 0.0000 0.0000 237.3066 -7760.6594 59.0594 -7997.9660 -7759.9338 60.8929 -6.2806 57.9276 20029.4636 3.3976 3.0677
ENERGY: 50000 0.0000 0.0000 0.0000 0.0000 -9784.6918 1797.7534 0.0000 0.0000 238.7274 -7748.2110 59.4130 -7986.9385 -7748.1874 60.5287 1650.0012 1748.8319 19703.9100 5.2070 5.1486
TCL: Running 25000 steps at 90 kelvin.
TCL: Setting parameter langevinTemp to 90
TCL: Running for 25000 steps
ETITLE: TS BOND ANGLE DIHED IMPRP ELECT VDW BOUNDARY MISC KINETIC TOTAL TEMP POTENTIAL TOTAL3 TEMPAVG PRESSURE GPRESSURE VOLUME PRESSAVG GPRESSAVG
ENERGY: 50000 0.0000 0.0000 0.0000 0.0000 -9784.6918 1797.7534 0.0000 0.0000 238.6057 -7748.3327 59.3827 -7986.9385 -7748.0205 59.3827 1705.8331 1748.6776 19703.9100 1705.8331 1748.6776
ENERGY: 55000 0.0000 0.0000 0.0000 0.0000 -9486.2248 1611.6461 0.0000 0.0000 360.6653 -7513.9134 89.7602 -7874.5787 -7512.9083 87.6343 122.8570 199.2137 19745.8540 7.9788 8.3653
ENERGY: 60000 0.0000 0.0000 0.0000 0.0000 -9531.7723 1592.4947 0.0000 0.0000 360.3437 -7578.9339 89.6801 -7939.2776 -7578.0158 91.9712 -403.2083 -330.6547 19558.4891 2.4429 2.6786
ENERGY: 65000 0.0000 0.0000 0.0000 0.0000 -9580.5465 1648.0788 0.0000 0.0000 377.7329 -7554.7349 94.0078 -7932.4678 -7553.7424 90.4685 379.0870 437.2573 19499.7351 1.8966 1.8736
ENERGY: 70000 0.0000 0.0000 0.0000 0.0000 -9433.7005 1506.7488 0.0000 0.0000 360.5898 -7566.3620 89.7414 -7926.9517 -7565.7357 92.3000 -1438.0039 -1370.9929 19855.8300 3.2336 3.3492
ENERGY: 75000 0.0000 0.0000 0.0000 0.0000 -9657.0030 1695.3864 0.0000 0.0000 352.8832 -7608.7333 87.8234 -7961.6165 -7608.6155 90.8426 710.0216 769.6087 19626.7669 3.6829 3.5552
TCL: Running 25000 steps at 120 kelvin.
TCL: Setting parameter langevinTemp to 120
TCL: Running for 25000 steps
ETITLE: TS BOND ANGLE DIHED IMPRP ELECT VDW BOUNDARY MISC KINETIC TOTAL TEMP POTENTIAL TOTAL3 TEMPAVG PRESSURE GPRESSURE VOLUME PRESSAVG GPRESSAVG
ENERGY: 75000 0.0000 0.0000 0.0000 0.0000 -9657.0030 1695.3864 0.0000 0.0000 352.7056 -7608.9109 87.7792 -7961.6165 -7608.3318 87.7792 712.7755 768.5911 19626.7669 712.7755 768.5911
ENERGY: 80000 0.0000 0.0000 0.0000 0.0000 -9434.9156 1601.5758 0.0000 0.0000 495.5482 -7337.7916 123.3290 -7833.3398 -7336.8502 118.1326 303.5533 347.3250 19731.9588 7.2233 7.8630
ENERGY: 85000 0.0000 0.0000 0.0000 0.0000 -9380.5447 1558.4050 0.0000 0.0000 483.2946 -7338.8451 120.2794 -7822.1397 -7337.8260 117.9522 -208.0983 -159.3335 19832.0621 10.0726 9.6214
ENERGY: 90000 0.0000 0.0000 0.0000 0.0000 -9407.4914 1550.8989 0.0000 0.0000 496.4288 -7360.1637 123.5481 -7856.5925 -7358.5409 120.7214 -425.4146 -422.9998 19913.0158 3.1606 3.6426
ENERGY: 95000 0.0000 0.0000 0.0000 0.0000 -9363.2807 1520.2708 0.0000 0.0000 477.5819 -7365.4280 118.8576 -7843.0100 -7364.5190 120.3105 -989.8059 -955.0228 20097.5092 5.1349 5.4094
ENERGY: 100000 0.0000 0.0000 0.0000 0.0000 -9466.3191 1607.8048 0.0000 0.0000 483.7606 -7374.7538 120.3954 -7858.5144 -7373.2382 119.3953 185.9230 226.0726 19811.7378 6.4328 6.7553
TCL: Running 25000 steps at 150 kelvin.
TCL: Setting parameter langevinTemp to 150
TCL: Running for 25000 steps
ETITLE: TS BOND ANGLE DIHED IMPRP ELECT VDW BOUNDARY MISC KINETIC TOTAL TEMP POTENTIAL TOTAL3 TEMPAVG PRESSURE GPRESSURE VOLUME PRESSAVG GPRESSAVG
ENERGY: 100000 0.0000 0.0000 0.0000 0.0000 -9466.3191 1607.8048 0.0000 0.0000 483.5191 -7374.9953 120.3352 -7858.5144 -7374.0477 120.3352 174.3943 226.6181 19811.7378 174.3943 226.6181
ENERGY: 105000 0.0000 0.0000 0.0000 0.0000 -9284.7626 1547.6887 0.0000 0.0000 600.3354 -7136.7384 149.4078 -7737.0738 -7135.0248 145.7610 24.8077 91.8597 20059.0217 9.8663 10.2020
ENERGY: 110000 0.0000 0.0000 0.0000 0.0000 -9258.1425 1538.4403 0.0000 0.0000 603.4284 -7116.2738 150.1775 -7719.7022 -7114.9081 148.2423 220.0643 315.6320 19788.3867 3.6025 3.4996
ENERGY: 115000 0.0000 0.0000 0.0000 0.0000 -9203.2227 1504.3949 0.0000 0.0000 607.4998 -7091.3281 151.1908 -7698.8279 -7090.1880 150.1385 -151.4337 -129.9032 19980.7607 1.3074 0.9075
ENERGY: 120000 0.0000 0.0000 0.0000 0.0000 -9220.7174 1516.1501 0.0000 0.0000 579.3658 -7125.2014 144.1890 -7704.5673 -7124.1796 150.8497 -140.1087 -113.4605 20077.4542 -3.4844 -3.5232
ENERGY: 125000 0.0000 0.0000 0.0000 0.0000 -9177.6587 1459.6011 0.0000 0.0000 591.0483 -7127.0093 147.0964 -7718.0575 -7126.7271 148.5593 -914.9238 -825.5117 19975.4834 9.6429 9.2426
TCL: Running 50000 steps at 180 kelvin.
TCL: Setting parameter langevinTemp to 180
TCL: Running for 50000 steps
ETITLE: TS BOND ANGLE DIHED IMPRP ELECT VDW BOUNDARY MISC KINETIC TOTAL TEMP POTENTIAL TOTAL3 TEMPAVG PRESSURE GPRESSURE VOLUME PRESSAVG GPRESSAVG
ENERGY: 125000 0.0000 0.0000 0.0000 0.0000 -9177.6587 1459.6011 0.0000 0.0000 590.7422 -7127.3154 147.0203 -7718.0575 -7125.9990 147.0203 -874.0368 -827.5100 19975.4834 -874.0368 -827.5100
ENERGY: 135000 0.0000 0.0000 0.0000 0.0000 -8958.4682 1407.5728 0.0000 0.0000 738.1797 -6812.7157 183.7136 -7550.8954 -6810.0424 176.6277 -619.0027 -526.5139 19992.3079 8.9222 8.8353
ENERGY: 145000 0.0000 0.0000 0.0000 0.0000 -8999.7924 1427.0795 0.0000 0.0000 683.5415 -6889.1714 170.1156 -7572.7129 -6887.8158 178.8068 -493.4509 -455.5972 19889.2181 4.2917 4.4599
ENERGY: 155000 0.0000 0.0000 0.0000 0.0000 -9121.3125 1556.8842 0.0000 0.0000 738.8203 -6825.6079 183.8730 -7564.4283 -6823.8604 182.5813 951.8565 1030.9599 19832.0114 2.1475 2.0321
ENERGY: 165000 0.0000 0.0000 0.0000 0.0000 -9026.0138 1442.7998 0.0000 0.0000 749.5243 -6833.6896 186.5370 -7583.2139 -6831.4030 182.3860 -483.2632 -376.6224 19976.9093 7.4429 7.7456
ENERGY: 175000 0.0000 0.0000 0.0000 0.0000 -9164.4127 1558.8001 0.0000 0.0000 734.6635 -6870.9491 182.8385 -7605.6126 -6870.1301 178.0713 977.5679 1073.0316 19716.9056 12.4460 12.5537
TCL: Running 50000 steps at 210 kelvin.
TCL: Setting parameter langevinTemp to 210
TCL: Running for 50000 steps
ETITLE: TS BOND ANGLE DIHED IMPRP ELECT VDW BOUNDARY MISC KINETIC TOTAL TEMP POTENTIAL TOTAL3 TEMPAVG PRESSURE GPRESSURE VOLUME PRESSAVG GPRESSAVG
ENERGY: 175000 0.0000 0.0000 0.0000 0.0000 -9164.4127 1558.8001 0.0000 0.0000 734.2794 -6871.3333 182.7429 -7605.6126 -6870.1753 182.7429 1004.8055 1070.9282 19716.9056 1004.8055 1070.9282
ENERGY: 185000 0.0000 0.0000 0.0000 0.0000 -8576.4941 1328.5791 0.0000 0.0000 813.5260 -6434.3890 202.4653 -7247.9150 -6434.2707 208.6620 -23.2956 10.4537 20007.1122 4.8156 5.1233
ENERGY: 195000 0.0000 0.0000 0.0000 0.0000 -8533.0472 1301.4100 0.0000 0.0000 802.4076 -6429.2296 199.6983 -7231.6372 -6428.0777 210.4880 -60.6761 70.5919 19721.1069 10.6073 10.5298
ENERGY: 205000 0.0000 0.0000 0.0000 0.0000 -8625.5948 1368.7715 0.0000 0.0000 818.9283 -6437.8950 203.8098 -7256.8232 -6435.8101 210.1849 600.0490 676.0785 19834.2977 0.6870 0.7786
ENERGY: 215000 0.0000 0.0000 0.0000 0.0000 -8509.5626 1259.4891 0.0000 0.0000 841.9012 -6408.1723 209.5272 -7250.0735 -6406.1219 209.5686 -336.5074 -270.6989 19469.8791 6.4379 6.0401
ENERGY: 225000 0.0000 0.0000 0.0000 0.0000 -8582.3519 1288.3418 0.0000 0.0000 849.5079 -6444.5021 211.4203 -7294.0100 -6444.2968 209.6770 -560.9944 -413.6908 20017.5860 -0.3024 -0.2412
TCL: Running 50000 steps at 240 kelvin.
TCL: Setting parameter langevinTemp to 240
TCL: Running for 50000 steps
ETITLE: TS BOND ANGLE DIHED IMPRP ELECT VDW BOUNDARY MISC KINETIC TOTAL TEMP POTENTIAL TOTAL3 TEMPAVG PRESSURE GPRESSURE VOLUME PRESSAVG GPRESSAVG
ENERGY: 225000 0.0000 0.0000 0.0000 0.0000 -8582.3519 1288.3418 0.0000 0.0000 849.0866 -6444.9234 211.3154 -7294.0100 -6443.0798 211.3154 -487.8766 -416.5413 20017.5860 -487.8766 -416.5413
ENERGY: 235000 0.0000 0.0000 0.0000 0.0000 -8077.9178 1162.3063 0.0000 0.0000 1005.4974 -5910.1142 250.2420 -6915.6116 -5908.9513 239.9614 320.7988 460.6965 19450.0631 0.8736 1.7230
ENERGY: 245000 0.0000 0.0000 0.0000 0.0000 -8049.6034 1107.3901 0.0000 0.0000 962.2883 -5979.9249 239.4884 -6942.2132 -5977.4563 240.5909 -1086.3152 -1031.9264 20242.2913 1.8485 1.4083
ENERGY: 255000 0.0000 0.0000 0.0000 0.0000 -8070.7595 1133.5060 0.0000 0.0000 950.6566 -5986.5968 236.5936 -6937.2535 -5983.3033 238.7073 -306.6517 -267.3657 19798.0367 9.5469 9.4171
ENERGY: 265000 0.0000 0.0000 0.0000 0.0000 -8135.8471 1144.1914 0.0000 0.0000 938.9836 -6052.6721 233.6885 -6991.6557 -6050.1109 238.6282 -737.5165 -566.9134 19920.0577 6.2237 6.6785
ENERGY: 275000 0.0000 0.0000 0.0000 0.0000 -8081.2331 1144.5830 0.0000 0.0000 929.4781 -6007.1720 231.3228 -6936.6501 -6004.5721 240.1049 -410.4442 -355.0682 20123.3674 3.9760 2.9475
TCL: Running 50000 steps at 270 kelvin.
TCL: Setting parameter langevinTemp to 270
TCL: Running for 50000 steps
ETITLE: TS BOND ANGLE DIHED IMPRP ELECT VDW BOUNDARY MISC KINETIC TOTAL TEMP POTENTIAL TOTAL3 TEMPAVG PRESSURE GPRESSURE VOLUME PRESSAVG GPRESSAVG
ENERGY: 275000 0.0000 0.0000 0.0000 0.0000 -8081.2331 1144.5830 0.0000 0.0000 929.0048 -6007.6453 231.2050 -6936.6501 -6005.5875 231.2050 -425.3492 -352.8246 20123.3674 -425.3492 -352.8246
ENERGY: 285000 0.0000 0.0000 0.0000 0.0000 -7738.5162 1052.7782 0.0000 0.0000 1086.7624 -5598.9756 270.4667 -6685.7380 -5597.7819 267.7366 -251.3829 -48.1993 19950.4648 7.8735 7.4694
ENERGY: 295000 0.0000 0.0000 0.0000 0.0000 -7758.0692 1082.3699 0.0000 0.0000 1088.0957 -5587.6036 270.7985 -6675.6993 -5586.0854 272.2139 212.2197 248.5700 20316.7775 10.9430 10.2930
ENERGY: 305000 0.0000 0.0000 0.0000 0.0000 -7695.4015 1028.7076 0.0000 0.0000 1064.2691 -5602.4248 264.8687 -6666.6938 -5602.5922 269.7068 -966.6460 -914.2057 20873.9468 -0.7632 -0.6755
ENERGY: 315000 0.0000 0.0000 0.0000 0.0000 -7702.4617 1070.6241 0.0000 0.0000 1113.1452 -5518.6923 277.0327 -6631.8375 -5516.3748 269.6816 -171.5074 -1.7821 20615.5285 -0.4042 -0.0804
ENERGY: 325000 0.0000 0.0000 0.0000 0.0000 -7793.1035 1123.7703 0.0000 0.0000 1122.5604 -5546.7728 279.3759 -6669.3332 -5545.1395 269.7420 563.7515 663.0193 20140.9341 4.6318 4.6514
TCL: Running 1000000 steps at 300 kelvin.
TCL: Setting parameter langevinTemp to 300
TCL: Running for 1000000 steps
ETITLE: TS BOND ANGLE DIHED IMPRP ELECT VDW BOUNDARY MISC KINETIC TOTAL TEMP POTENTIAL TOTAL3 TEMPAVG PRESSURE GPRESSURE VOLUME PRESSAVG GPRESSAVG
ENERGY: 325000 0.0000 0.0000 0.0000 0.0000 -7793.1035 1123.7703 0.0000 0.0000 1122.0236 -5547.3096 279.2423 -6669.3332 -5545.6617 279.2423 565.5514 660.0998 20140.9341 565.5514 660.0998
ENERGY: 525000 0.0000 0.0000 0.0000 0.0000 -7383.4192 979.7117 0.0000 0.0000 1260.2801 -5143.4274 313.6507 -6403.7075 -5139.4454 299.8910 -433.1811 -281.4090 20865.6140 3.6827 4.1360
ENERGY: 725000 0.0000 0.0000 0.0000 0.0000 -7441.1824 1022.6191 0.0000 0.0000 1240.8937 -5177.6697 308.8260 -6418.5634 -5175.3935 302.3025 318.9497 422.1053 20768.0618 5.8836 5.6702
ENERGY: 925000 0.0000 0.0000 0.0000 0.0000 -7360.9375 992.4513 0.0000 0.0000 1194.5306 -5173.9556 297.2874 -6368.4863 -5171.0319 299.8674 64.4990 100.1881 20729.0809 8.3849 9.4795
ENERGY: 1125000 0.0000 0.0000 0.0000 0.0000 -7279.4452 931.6720 0.0000 0.0000 1159.6393 -5188.1339 288.6039 -6347.7732 -5184.5897 296.1235 -631.6685 -535.6143 20955.4449 -1.2461 -1.5612
ENERGY: 1325000 0.0000 0.0000 0.0000 0.0000 -7382.2929 1028.4304 0.0000 0.0000 1239.1599 -5114.7026 308.3945 -6353.8625 -5113.2246 300.3737 364.2496 416.8652 21050.8898 3.7136 3.5068
TCL: Exiting due to exit command.
