Info: SIMULATION PARAMETERS:
Info: TIMESTEP               2
Info: NUMBER OF STEPS        0
Info: STEPS PER CYCLE        10
Info: PERIODIC CELL BASIS 1  32.221 0 0
Info: PERIODIC CELL BASIS 2  0 30.86 0
Info: PERIODIC CELL BASIS 3  0 0 31.349
Info: PERIODIC CELL CENTER   0 0 0
Info: WRAPPING WATERS AROUND PERIODIC BOUNDARIES ON OUTPUT.
Info: WRAPPING ALL CLUSTERS AROUND PERIODIC BOUNDARIES ON OUTPUT.
Info: FIRST LDB TIMESTEP     50
Info: LAST LDB TIMESTEP     -1
Info: HOM BACKGROUND SCALING 1
Info: PME BACKGROUND SCALING 1
Info: MIN ATOMS PER PATCH    40
Info: EMPTY PATCH LOAD       40 ATOMS
Info: INITIAL TEMPERATURE    300
Info: CENTER OF MASS MOVING INITIALLY? NO
Info: DIELECTRIC             1
Info: EXCLUDE                SCALED ONE-FOUR
Info: 1-4 ELECTROSTATICS SCALED BY 0.833333
Info: MODIFIED 1-4 VDW PARAMETERS WILL BE USED
Info: DCD FILENAME           mobley_7015518_min.dcd
Info: DCD FREQUENCY          5000
Info: DCD FIRST STEP         5000
Info: DCD FILE WILL CONTAIN UNIT CELL DATA
Info: XST FILENAME           mobley_7015518_min.xst
Info: XST FREQUENCY          5000
Info: NO VELOCITY DCD OUTPUT
Info: NO FORCE DCD OUTPUT
Info: OUTPUT FILENAME        mobley_7015518_min
Info: BINARY OUTPUT FILES WILL BE USED
Info: RESTART FILENAME       mobley_7015518_min.restart
Info: RESTART FREQUENCY      5000
Info: BINARY RESTART FILES WILL BE USED
Info: CUTOFF                 9
Info: PAIRLIST DISTANCE      11
Info: PAIRLIST SHRINK RATE   0.01
Info: PAIRLIST GROW RATE     0.01
Info: PAIRLIST TRIGGER       0.3
Info: PAIRLISTS PER CYCLE    2
Info: PAIRLISTS ENABLED
Info: MARGIN                 8
Info: HYDROGEN GROUP CUTOFF  2.5
Info: PATCH DIMENSION        21.5
Info: ENERGY OUTPUT STEPS    5000
Info: ENERGY EVALUATION STEPS    5000
Info: OUTPUT ENERGY PRECISION 4
Info: CROSSTERM ENERGY INCLUDED IN DIHEDRAL
Info: TIMING OUTPUT STEPS    50000
Info: PRESSURE OUTPUT STEPS  5000
Info: FIXED ATOMS ACTIVE
Info: LANGEVIN DYNAMICS ACTIVE
Info: LANGEVIN TEMPERATURE   300
Info: LANGEVIN USING BBK INTEGRATOR
Info: LANGEVIN DAMPING COEFFICIENT IS 1 INVERSE PS
Info: LANGEVIN DYNAMICS APPLIED TO HYDROGENS
Info: LANGEVIN PISTON PRESSURE CONTROL ACTIVE
Info:        TARGET PRESSURE IS 1.01325 BAR
Info:     OSCILLATION PERIOD IS 50 FS
Info:             DECAY TIME IS 25 FS
Info:     PISTON TEMPERATURE IS 300 K
Info:       PRESSURE CONTROL IS GROUP-BASED
Info:    INITIAL STRAIN RATE IS 0 0 0
Info:       CELL FLUCTUATION IS ISOTROPIC
Info: PARTICLE MESH EWALD (PME) ACTIVE
Info: PME TOLERANCE               1e-06
Info: PME EWALD COEFFICIENT       0.348832
Info: PME INTERPOLATION ORDER     4
Info: PME GRID DIMENSIONS         36 32 32
Info: PME MAXIMUM GRID SPACING    1
Info: FULL ELECTROSTATIC EVALUATION FREQUENCY      2
Info: USING VERLET I (r-RESPA) MTS SCHEME.
Info: C1 SPLITTING OF LONG RANGE ELECTROSTATICS
Info: PLACING ATOMS IN PATCHES BY HYDROGEN GROUPS
Info: RIGID BONDS TO HYDROGEN : ALL
Info:         ERROR TOLERANCE : 1e-08
Info:          MAX ITERATIONS : 100
Info: RIGID WATER USING SETTLE ALGORITHM
Info: RANDOM NUMBER SEED     1741671304
Info: USE HYDROGEN BONDS?    NO
Info: Using AMBER format force field!
Info: AMBER PARM FILE        mobley_7015518.prmtop
Info: COORDINATE PDB         mobley_7015518.pdb
Info: Exclusions will be read from PARM file!
Info: SCNB (VDW SCALING)     2
Info: USING ARITHMETIC MEAN TO COMBINE L-J SIGMA PARAMETERS
Info: SUMMARY OF PARAMETERS:
Info: 4 BONDS
Info: 3 ANGLES
Info:   3 HARMONIC
Info:   0 COSINE-BASED
Info: 1 DIHEDRAL
Info: 0 IMPROPER
Info: 0 CROSSTERM
Info: 0 VDW
Info: 15 VDW_PAIRS
Info: 0 NBTHOLE_PAIRS
Info: STRUCTURE SUMMARY:
Info: 2034 ATOMS
Info: 2033 BONDS
Info: 13 ANGLES
Info: 6 DIHEDRALS
Info: 0 IMPROPERS
Info: 0 CROSSTERMS
Info: 2052 EXCLUSIONS
Info: 9 FIXED ATOMS
Info: 2031 RIGID BONDS
Info: 6 RIGID BONDS BETWEEN FIXED ATOMS
Info: 4050 DEGREES OF FREEDOM
Info: 678 HYDROGEN GROUPS
Info: 4 ATOMS IN LARGEST HYDROGEN GROUP
Info: 678 MIGRATION GROUPS
Info: 4 ATOMS IN LARGEST MIGRATION GROUP
Info: 3 HYDROGEN GROUPS WITH ALL ATOMS FIXED
Info: TOTAL MASS = 12206.9 amu
Info: TOTAL CHARGE = 9.99942e-05 e
Info: MASS DENSITY = 0.650287 g/cm^3
Info: ATOM DENSITY = 0.0652518 atoms/A^3
Info: ADDED 0 IMPLICIT EXCLUSIONS
Info: NONBONDED TABLE R-SQUARED SPACING: 0.0625
Info: NONBONDED TABLE SIZE: 705 POINTS
Info: REMOVING COM VELOCITY -0.211253 0.00303217 0.201247
TCL: Minimizing for 2000 steps
ETITLE: TS BOND ANGLE DIHED IMPRP ELECT VDW BOUNDARY MISC KINETIC TOTAL TEMP POTENTIAL TOTAL3 TEMPAVG PRESSURE GPRESSURE VOLUME PRESSAVG GPRESSAVG
ENERGY: 0 0.0000 0.0000 0.0000 0.0000 -5846.9862 652.4000 0.0000 0.0000 0.0000 -5194.5862 0.0000 -5194.5862 -5194.5862 0.0000 9142.4736 -13193.3119 31171.5665 9142.4736 -13193.3119
ENERGY: 400 0.0000 0.0000 0.0000 0.0000 -8870.3527 1473.2466 0.0000 0.0000 0.0000 -7397.1061 0.0000 -7397.1061 -7397.1061 0.0000 16371.7560 15684.0197 31171.5665 16371.7560 15684.0197
ENERGY: 800 0.0000 0.0000 0.0000 0.0000 -9135.0370 1567.8778 0.0000 0.0000 0.0000 -7567.1592 0.0000 -7567.1592 -7567.1592 0.0000 17376.7926 16601.3027 31171.5665 17376.7926 16601.3027
ENERGY: 1200 0.0000 0.0000 0.0000 0.0000 -9231.0641 1587.2303 0.0000 0.0000 0.0000 -7643.8338 0.0000 -7643.8338 -7643.8338 0.0000 17620.5317 16766.0298 31171.5665 17620.5317 16766.0298
ENERGY: 1600 0.0000 0.0000 0.0000 0.0000 -9295.9743 1597.9046 0.0000 0.0000 0.0000 -7698.0697 0.0000 -7698.0697 -7698.0697 0.0000 17754.3189 16885.9566 31171.5665 17754.3189 16885.9566
ENERGY: 2000 0.0000 0.0000 0.0000 0.0000 -9326.0780 1606.8405 0.0000 0.0000 0.0000 -7719.2375 0.0000 -7719.2375 -7719.2375 0.0000 17874.6150 17017.4972 31171.5665 17874.6150 17017.4972
TCL: Exiting due to exit command.
Info: NAMD 3.0.1 for Linux-x86_64-multicore
Info: Please visit http://www.ks.uiuc.edu/Research/namd/
Info: for updates, documentation, and support information.
Info: Please cite Phillips et al., J. Chem. Phys. 153:044130 (2020) doi:10.1063/5.0014475
Info: in all publications reporting results obtained with NAMD.
Info: Based on Charm++/Converse 80000 for multicore-linux-x86_64-gcc
Info: Built Mon Oct 14 11:11:06 CDT 2024 by dhardy on athine.ks.uiuc.edu
Info: 1 NAMD  3.0.1  Linux-x86_64-multicore  16    k012  z5358697
Info: Running on 16 processors, 1 nodes, 1 physical nodes.
Info: CPU topology information available.
Info: Charm++/Converse parallel runtime startup completed at 0.00910253 s
Info: 1043.45 MB of memory in use based on /proc/self/stat
Info: Configuration file is equil.namd
Info: Working in the current directory /srv/scratch/z5358697/min-equil/9
TCL: Running 25000 steps at 30 kelvin.
TCL: Suspending until startup complete.
Info: SIMULATION PARAMETERS:
Info: TIMESTEP               2
Info: NUMBER OF STEPS        0
Info: STEPS PER CYCLE        10
Info: PERIODIC CELL BASIS 1  32.221 0 0
Info: PERIODIC CELL BASIS 2  0 30.86 0
Info: PERIODIC CELL BASIS 3  0 0 31.349
Info: PERIODIC CELL CENTER   0 0 0
Info: WRAPPING WATERS AROUND PERIODIC BOUNDARIES ON OUTPUT.
Info: WRAPPING ALL CLUSTERS AROUND PERIODIC BOUNDARIES ON OUTPUT.
Info: FIRST LDB TIMESTEP     50
Info: LAST LDB TIMESTEP     -1
Info: HOM BACKGROUND SCALING 1
Info: PME BACKGROUND SCALING 1
Info: MIN ATOMS PER PATCH    40
Info: EMPTY PATCH LOAD       40 ATOMS
Info: INITIAL TEMPERATURE    300
Info: CENTER OF MASS MOVING INITIALLY? NO
Info: DIELECTRIC             1
Info: EXCLUDE                SCALED ONE-FOUR
Info: 1-4 ELECTROSTATICS SCALED BY 0.833333
Info: MODIFIED 1-4 VDW PARAMETERS WILL BE USED
Info: DCD FILENAME           mobley_7015518_equil.dcd
Info: DCD FREQUENCY          5000
Info: DCD FIRST STEP         5000
Info: DCD FILE WILL CONTAIN UNIT CELL DATA
Info: XST FILENAME           mobley_7015518_equil.xst
Info: XST FREQUENCY          5000
Info: NO VELOCITY DCD OUTPUT
Info: NO FORCE DCD OUTPUT
Info: OUTPUT FILENAME        mobley_7015518_equil
Info: BINARY OUTPUT FILES WILL BE USED
Info: RESTART FILENAME       mobley_7015518_equil.restart
Info: RESTART FREQUENCY      5000
Info: BINARY RESTART FILES WILL BE USED
Info: CUTOFF                 9
Info: PAIRLIST DISTANCE      11
Info: PAIRLIST SHRINK RATE   0.01
Info: PAIRLIST GROW RATE     0.01
Info: PAIRLIST TRIGGER       0.3
Info: PAIRLISTS PER CYCLE    2
Info: PAIRLISTS ENABLED
Info: MARGIN                 8
Info: HYDROGEN GROUP CUTOFF  2.5
Info: PATCH DIMENSION        21.5
Info: ENERGY OUTPUT STEPS    5000
Info: ENERGY EVALUATION STEPS    5000
Info: OUTPUT ENERGY PRECISION 4
Info: CROSSTERM ENERGY INCLUDED IN DIHEDRAL
Info: TIMING OUTPUT STEPS    50000
Info: PRESSURE OUTPUT STEPS  5000
Info: FIXED ATOMS ACTIVE
Info: LANGEVIN DYNAMICS ACTIVE
Info: LANGEVIN TEMPERATURE   30
Info: LANGEVIN USING BBK INTEGRATOR
Info: LANGEVIN DAMPING COEFFICIENT IS 1 INVERSE PS
Info: LANGEVIN DYNAMICS APPLIED TO HYDROGENS
Info: LANGEVIN PISTON PRESSURE CONTROL ACTIVE
Info:        TARGET PRESSURE IS 1.01325 BAR
Info:     OSCILLATION PERIOD IS 50 FS
Info:             DECAY TIME IS 25 FS
Info:     PISTON TEMPERATURE IS 300 K
Info:       PRESSURE CONTROL IS GROUP-BASED
Info:    INITIAL STRAIN RATE IS 0 0 0
Info:       CELL FLUCTUATION IS ISOTROPIC
Info: PARTICLE MESH EWALD (PME) ACTIVE
Info: PME TOLERANCE               1e-06
Info: PME EWALD COEFFICIENT       0.348832
Info: PME INTERPOLATION ORDER     4
Info: PME GRID DIMENSIONS         36 32 32
Info: PME MAXIMUM GRID SPACING    1
Info: FULL ELECTROSTATIC EVALUATION FREQUENCY      2
Info: USING VERLET I (r-RESPA) MTS SCHEME.
Info: C1 SPLITTING OF LONG RANGE ELECTROSTATICS
Info: PLACING ATOMS IN PATCHES BY HYDROGEN GROUPS
Info: RIGID BONDS TO HYDROGEN : ALL
Info:         ERROR TOLERANCE : 1e-08
Info:          MAX ITERATIONS : 100
Info: RIGID WATER USING SETTLE ALGORITHM
Info: RANDOM NUMBER SEED     1741671306
Info: USE HYDROGEN BONDS?    NO
Info: Using AMBER format force field!
Info: AMBER PARM FILE        mobley_7015518.prmtop
Info: COORDINATE PDB         mobley_7015518.pdb
Info: Exclusions will be read from PARM file!
Info: SCNB (VDW SCALING)     2
Info: USING ARITHMETIC MEAN TO COMBINE L-J SIGMA PARAMETERS
Info: BINARY COORDINATES     mobley_7015518_min.coor
Info: SUMMARY OF PARAMETERS:
Info: 4 BONDS
Info: 3 ANGLES
Info:   3 HARMONIC
Info:   0 COSINE-BASED
Info: 1 DIHEDRAL
Info: 0 IMPROPER
Info: 0 CROSSTERM
Info: 0 VDW
Info: 15 VDW_PAIRS
Info: 0 NBTHOLE_PAIRS
Info: STRUCTURE SUMMARY:
Info: 2034 ATOMS
Info: 2033 BONDS
Info: 13 ANGLES
Info: 6 DIHEDRALS
Info: 0 IMPROPERS
Info: 0 CROSSTERMS
Info: 2052 EXCLUSIONS
Info: 9 FIXED ATOMS
Info: 2031 RIGID BONDS
Info: 6 RIGID BONDS BETWEEN FIXED ATOMS
Info: 4050 DEGREES OF FREEDOM
Info: 678 HYDROGEN GROUPS
Info: 4 ATOMS IN LARGEST HYDROGEN GROUP
Info: 678 MIGRATION GROUPS
Info: 4 ATOMS IN LARGEST MIGRATION GROUP
Info: 3 HYDROGEN GROUPS WITH ALL ATOMS FIXED
Info: TOTAL MASS = 12206.9 amu
Info: TOTAL CHARGE = 9.99942e-05 e
Info: MASS DENSITY = 0.650287 g/cm^3
Info: ATOM DENSITY = 0.0652518 atoms/A^3
Info: ADDED 0 IMPLICIT EXCLUSIONS
Info: NONBONDED TABLE R-SQUARED SPACING: 0.0625
Info: NONBONDED TABLE SIZE: 705 POINTS
Info: REMOVING COM VELOCITY 0.258616 0.210976 0.0536811
TCL: Running for 25000 steps
ETITLE: TS BOND ANGLE DIHED IMPRP ELECT VDW BOUNDARY MISC KINETIC TOTAL TEMP POTENTIAL TOTAL3 TEMPAVG PRESSURE GPRESSURE VOLUME PRESSAVG GPRESSAVG
ENERGY: 0 0.0000 0.0000 0.0000 0.0000 -9326.0780 1606.8405 0.0000 0.0000 1184.0361 -6535.2014 294.2391 -7719.2375 -6534.9641 294.2391 8.3714 44.5395 31171.5665 8.3714 44.5395
ENERGY: 5000 0.0000 0.0000 0.0000 0.0000 -9732.3994 1659.6401 0.0000 0.0000 122.1154 -7950.6440 30.3463 -8072.7594 -7950.1603 47.2249 -376.9472 -330.4311 19991.0274 3.2931 3.7397
ENERGY: 10000 0.0000 0.0000 0.0000 0.0000 -9856.6694 1786.1141 0.0000 0.0000 126.6559 -7943.8994 31.4746 -8070.5552 -7943.8747 29.8717 1234.7268 1324.2853 19715.8013 3.0391 3.1543
ENERGY: 15000 0.0000 0.0000 0.0000 0.0000 -9778.4314 1698.2247 0.0000 0.0000 122.2976 -7957.9091 30.3916 -8080.2067 -7957.5587 30.3576 13.5069 102.1199 19914.8937 3.4346 3.3142
ENERGY: 20000 0.0000 0.0000 0.0000 0.0000 -9740.2453 1653.8480 0.0000 0.0000 121.7466 -7964.6507 30.2546 -8086.3973 -7964.3005 30.3784 -560.0927 -473.8685 20003.2502 5.2194 5.3689
ENERGY: 25000 0.0000 0.0000 0.0000 0.0000 -9844.1366 1759.5855 0.0000 0.0000 122.3944 -7962.1567 30.4156 -8084.5511 -7961.7684 29.9182 771.9380 846.1011 19837.4087 6.5779 6.6661
TCL: Running 25000 steps at 60 kelvin.
TCL: Setting parameter langevinTemp to 60
TCL: Running for 25000 steps
ETITLE: TS BOND ANGLE DIHED IMPRP ELECT VDW BOUNDARY MISC KINETIC TOTAL TEMP POTENTIAL TOTAL3 TEMPAVG PRESSURE GPRESSURE VOLUME PRESSAVG GPRESSAVG
ENERGY: 25000 0.0000 0.0000 0.0000 0.0000 -9844.1366 1759.5855 0.0000 0.0000 122.3334 -7962.2177 30.4005 -8084.5511 -7962.0134 30.4005 781.8994 846.5265 19837.4087 781.8994 846.5265
ENERGY: 30000 0.0000 0.0000 0.0000 0.0000 -9526.6152 1560.2185 0.0000 0.0000 238.1037 -7728.2930 59.1700 -7966.3967 -7727.6946 57.7911 -1085.2171 -973.1086 20161.5894 2.4774 2.2432
ENERGY: 35000 0.0000 0.0000 0.0000 0.0000 -9551.5118 1570.8868 0.0000 0.0000 244.4376 -7736.1873 60.7440 -7980.6249 -7735.2733 60.0779 -925.7431 -852.6048 20090.5846 4.3498 4.0930
ENERGY: 40000 0.0000 0.0000 0.0000 0.0000 -9521.0298 1536.3242 0.0000 0.0000 231.7188 -7752.9868 57.5833 -7984.7056 -7752.5083 59.9454 -1439.1759 -1377.1022 20248.9169 6.7846 6.6992
ENERGY: 45000 0.0000 0.0000 0.0000 0.0000 -9542.4602 1552.7529 0.0000 0.0000 247.8178 -7741.8894 61.5840 -7989.7072 -7740.6289 59.9405 -1209.8053 -1158.6030 20112.4248 2.9838 3.3621
ENERGY: 50000 0.0000 0.0000 0.0000 0.0000 -9593.6501 1602.0902 0.0000 0.0000 239.8410 -7751.7189 59.6017 -7991.5599 -7750.7292 60.1599 -610.1880 -555.8772 20060.1850 -1.2627 -1.1360
TCL: Running 25000 steps at 90 kelvin.
TCL: Setting parameter langevinTemp to 90
TCL: Running for 25000 steps
ETITLE: TS BOND ANGLE DIHED IMPRP ELECT VDW BOUNDARY MISC KINETIC TOTAL TEMP POTENTIAL TOTAL3 TEMPAVG PRESSURE GPRESSURE VOLUME PRESSAVG GPRESSAVG
ENERGY: 50000 0.0000 0.0000 0.0000 0.0000 -9593.6501 1602.0902 0.0000 0.0000 239.7288 -7751.8311 59.5738 -7991.5599 -7751.2825 59.5738 -613.6425 -555.4796 20060.1850 -613.6425 -555.4796
ENERGY: 55000 0.0000 0.0000 0.0000 0.0000 -9472.9942 1600.7584 0.0000 0.0000 370.8509 -7501.3849 92.1583 -7872.2358 -7499.9394 87.4637 91.7521 72.7458 20005.5383 5.1720 5.3752
ENERGY: 60000 0.0000 0.0000 0.0000 0.0000 -9518.8669 1632.7233 0.0000 0.0000 369.8908 -7516.2528 91.9198 -7886.1436 -7515.8427 89.6767 429.0481 516.2389 19855.6909 3.6198 3.5137
ENERGY: 65000 0.0000 0.0000 0.0000 0.0000 -9514.2266 1617.0161 0.0000 0.0000 366.3452 -7530.8652 91.0387 -7897.2104 -7530.2472 89.7177 15.9912 85.5084 20012.8816 7.4254 6.8648
ENERGY: 70000 0.0000 0.0000 0.0000 0.0000 -9579.0404 1670.9662 0.0000 0.0000 361.7273 -7546.3468 89.8911 -7908.0742 -7545.2416 89.6817 692.3439 751.8357 19860.6151 1.6918 1.4500
ENERGY: 75000 0.0000 0.0000 0.0000 0.0000 -9536.0684 1616.2412 0.0000 0.0000 367.0974 -7552.7298 91.2256 -7919.8272 -7551.4646 90.3381 -78.4058 51.2026 19913.7446 8.5804 8.9849
TCL: Running 25000 steps at 120 kelvin.
TCL: Setting parameter langevinTemp to 120
TCL: Running for 25000 steps
ETITLE: TS BOND ANGLE DIHED IMPRP ELECT VDW BOUNDARY MISC KINETIC TOTAL TEMP POTENTIAL TOTAL3 TEMPAVG PRESSURE GPRESSURE VOLUME PRESSAVG GPRESSAVG
ENERGY: 75000 0.0000 0.0000 0.0000 0.0000 -9536.0684 1616.2412 0.0000 0.0000 366.9080 -7552.9192 91.1785 -7919.8272 -7552.2425 91.1785 -25.2813 51.9721 19913.7446 -25.2813 51.9721
ENERGY: 80000 0.0000 0.0000 0.0000 0.0000 -9280.6608 1495.8808 0.0000 0.0000 482.6371 -7302.1430 119.9378 -7784.7800 -7300.8274 118.6444 -649.9346 -575.7375 19968.8757 5.6344 6.6727
ENERGY: 85000 0.0000 0.0000 0.0000 0.0000 -9353.0395 1521.6770 0.0000 0.0000 478.2401 -7353.1224 118.8451 -7831.3625 -7351.9187 120.4077 -752.0505 -697.9906 20198.0811 4.4095 4.1955
ENERGY: 90000 0.0000 0.0000 0.0000 0.0000 -9290.1562 1472.7260 0.0000 0.0000 498.8024 -7318.6278 123.9549 -7817.4301 -7317.3789 120.4955 -1231.0145 -1184.1684 20217.6026 -3.7823 -3.7049
ENERGY: 95000 0.0000 0.0000 0.0000 0.0000 -9372.8057 1549.5458 0.0000 0.0000 476.5508 -7346.7090 118.4253 -7823.2599 -7345.0309 121.3053 -271.8928 -189.9282 19959.1175 -2.2053 -2.3367
ENERGY: 100000 0.0000 0.0000 0.0000 0.0000 -9426.9256 1569.3990 0.0000 0.0000 479.5252 -7378.0014 119.1645 -7857.5266 -7376.5738 118.8838 -6.9698 27.9535 19785.1699 13.8948 13.6516
TCL: Running 25000 steps at 150 kelvin.
TCL: Setting parameter langevinTemp to 150
TCL: Running for 25000 steps
ETITLE: TS BOND ANGLE DIHED IMPRP ELECT VDW BOUNDARY MISC KINETIC TOTAL TEMP POTENTIAL TOTAL3 TEMPAVG PRESSURE GPRESSURE VOLUME PRESSAVG GPRESSAVG
ENERGY: 100000 0.0000 0.0000 0.0000 0.0000 -9426.9256 1569.3990 0.0000 0.0000 479.2718 -7378.2548 119.1015 -7857.5266 -7377.4271 119.1015 -18.9481 28.3645 19785.1699 -18.9481 28.3645
ENERGY: 105000 0.0000 0.0000 0.0000 0.0000 -9171.4870 1508.5061 0.0000 0.0000 587.9918 -7074.9892 146.1190 -7662.9810 -7073.9109 145.8081 298.2553 380.3716 19616.7228 7.8144 7.0871
ENERGY: 110000 0.0000 0.0000 0.0000 0.0000 -9278.7364 1576.1752 0.0000 0.0000 619.1358 -7083.4254 153.8584 -7702.5612 -7081.8024 148.7321 1029.3656 1084.7173 19527.2457 4.5462 4.9593
ENERGY: 115000 0.0000 0.0000 0.0000 0.0000 -9250.6004 1534.7198 0.0000 0.0000 631.8048 -7084.0757 157.0067 -7715.8806 -7082.1437 148.4412 493.2782 572.1174 19617.8428 0.2456 -0.0909
ENERGY: 120000 0.0000 0.0000 0.0000 0.0000 -9153.7407 1446.0573 0.0000 0.0000 636.0289 -7071.6545 158.0564 -7707.6834 -7070.7079 152.0010 -761.6235 -647.0459 19858.3613 6.1884 6.5713
ENERGY: 125000 0.0000 0.0000 0.0000 0.0000 -9179.1787 1465.1280 0.0000 0.0000 605.1416 -7108.9091 150.3808 -7714.0507 -7106.6879 150.6710 -694.4626 -528.1656 19800.6951 4.0863 4.0120
TCL: Running 50000 steps at 180 kelvin.
TCL: Setting parameter langevinTemp to 180
TCL: Running for 50000 steps
ETITLE: TS BOND ANGLE DIHED IMPRP ELECT VDW BOUNDARY MISC KINETIC TOTAL TEMP POTENTIAL TOTAL3 TEMPAVG PRESSURE GPRESSURE VOLUME PRESSAVG GPRESSAVG
ENERGY: 125000 0.0000 0.0000 0.0000 0.0000 -9179.1787 1465.1280 0.0000 0.0000 604.8488 -7109.2020 150.3080 -7714.0507 -7107.9037 150.3080 -595.8796 -527.9984 19800.6951 -595.8796 -527.9984
ENERGY: 135000 0.0000 0.0000 0.0000 0.0000 -9140.6682 1546.1357 0.0000 0.0000 733.5623 -6860.9702 182.2940 -7594.5325 -6859.1850 180.5005 1065.2794 1146.6804 19741.8569 11.1617 12.3260
ENERGY: 145000 0.0000 0.0000 0.0000 0.0000 -8894.0780 1363.7150 0.0000 0.0000 714.9223 -6815.4406 177.6619 -7530.3630 -6814.5132 180.2721 -846.4101 -795.0157 19940.6129 0.7598 0.6596
ENERGY: 155000 0.0000 0.0000 0.0000 0.0000 -8931.4371 1396.2366 0.0000 0.0000 730.8779 -6804.3226 181.6269 -7535.2005 -6802.2766 180.0977 -522.9766 -473.7679 19977.3455 11.6908 11.1399
ENERGY: 165000 0.0000 0.0000 0.0000 0.0000 -9012.1386 1447.7296 0.0000 0.0000 716.8497 -6847.5593 178.1408 -7564.4090 -6845.9582 179.0658 -147.7734 -102.7742 19983.6555 2.9522 2.2557
ENERGY: 175000 0.0000 0.0000 0.0000 0.0000 -9054.8806 1464.0452 0.0000 0.0000 697.8271 -6893.0083 173.4136 -7590.8354 -6891.0365 180.9800 -72.4974 -48.8415 20101.6530 -0.4534 -0.8578
TCL: Running 50000 steps at 210 kelvin.
TCL: Setting parameter langevinTemp to 210
TCL: Running for 50000 steps
ETITLE: TS BOND ANGLE DIHED IMPRP ELECT VDW BOUNDARY MISC KINETIC TOTAL TEMP POTENTIAL TOTAL3 TEMPAVG PRESSURE GPRESSURE VOLUME PRESSAVG GPRESSAVG
ENERGY: 175000 0.0000 0.0000 0.0000 0.0000 -9054.8806 1464.0452 0.0000 0.0000 697.4872 -6893.3482 173.3291 -7590.8354 -6891.6978 173.3291 -108.2551 -49.7105 20101.6530 -108.2551 -49.7105
ENERGY: 185000 0.0000 0.0000 0.0000 0.0000 -8560.5635 1323.9032 0.0000 0.0000 827.9081 -6408.7522 205.7394 -7236.6602 -6407.1511 211.0818 45.9868 167.4510 20026.8594 -1.2560 -1.5671
ENERGY: 195000 0.0000 0.0000 0.0000 0.0000 -8561.0058 1287.4898 0.0000 0.0000 834.4488 -6439.0672 207.3648 -7273.5160 -6436.5037 209.8497 -203.9195 -165.1949 19835.1728 7.9154 7.7304
ENERGY: 205000 0.0000 0.0000 0.0000 0.0000 -8538.0952 1327.3421 0.0000 0.0000 855.3239 -6355.4292 212.5524 -7210.7531 -6354.4462 212.2586 612.2450 752.9433 19619.3657 9.8507 9.8337
ENERGY: 215000 0.0000 0.0000 0.0000 0.0000 -8430.1138 1188.8001 0.0000 0.0000 851.6516 -6389.6621 211.6398 -7241.3137 -6386.5362 212.8250 -1296.2845 -1211.4032 19710.2659 4.3770 4.8076
ENERGY: 225000 0.0000 0.0000 0.0000 0.0000 -8680.2839 1384.2637 0.0000 0.0000 830.7878 -6465.2324 206.4550 -7296.0202 -6462.3695 209.1648 805.3313 874.3930 19650.1416 6.2247 6.3007
TCL: Running 50000 steps at 240 kelvin.
TCL: Setting parameter langevinTemp to 240
TCL: Running for 50000 steps
ETITLE: TS BOND ANGLE DIHED IMPRP ELECT VDW BOUNDARY MISC KINETIC TOTAL TEMP POTENTIAL TOTAL3 TEMPAVG PRESSURE GPRESSURE VOLUME PRESSAVG GPRESSAVG
ENERGY: 225000 0.0000 0.0000 0.0000 0.0000 -8680.2839 1384.2637 0.0000 0.0000 830.3316 -6465.6886 206.3417 -7296.0202 -6464.2498 206.3417 781.5994 875.1332 19650.1416 781.5994 875.1332
ENERGY: 235000 0.0000 0.0000 0.0000 0.0000 -8132.7133 1112.0973 0.0000 0.0000 952.2174 -6068.3985 236.6309 -7020.6159 -6066.3294 237.0840 -1184.3321 -1096.0462 20102.3613 8.0670 7.8515
ENERGY: 245000 0.0000 0.0000 0.0000 0.0000 -8129.5383 1184.6954 0.0000 0.0000 977.9995 -5966.8434 243.0379 -6944.8429 -5965.2574 242.5490 46.3029 101.3061 20042.4163 0.6196 0.0963
ENERGY: 255000 0.0000 0.0000 0.0000 0.0000 -8348.3526 1356.0138 0.0000 0.0000 964.2272 -6028.1116 239.6154 -6992.3388 -6026.1191 241.3740 1767.8223 1905.9504 20053.8115 1.2426 1.4835
ENERGY: 265000 0.0000 0.0000 0.0000 0.0000 -8247.5542 1246.1719 0.0000 0.0000 943.9122 -6057.4701 234.5670 -7001.3824 -6057.0918 239.4372 187.1554 321.3371 20224.8543 8.8434 9.6358
ENERGY: 275000 0.0000 0.0000 0.0000 0.0000 -8168.3777 1194.2791 0.0000 0.0000 980.0276 -5994.0710 243.5419 -6974.0986 -5993.2163 239.1506 221.3828 225.4661 19990.8648 14.6156 15.2022
TCL: Running 50000 steps at 270 kelvin.
TCL: Setting parameter langevinTemp to 270
TCL: Running for 50000 steps
ETITLE: TS BOND ANGLE DIHED IMPRP ELECT VDW BOUNDARY MISC KINETIC TOTAL TEMP POTENTIAL TOTAL3 TEMPAVG PRESSURE GPRESSURE VOLUME PRESSAVG GPRESSAVG
ENERGY: 275000 0.0000 0.0000 0.0000 0.0000 -8168.3777 1194.2791 0.0000 0.0000 979.5431 -5994.5555 243.4215 -6974.0986 -5992.8154 243.4215 139.7746 225.5861 19990.8648 139.7746 225.5861
ENERGY: 285000 0.0000 0.0000 0.0000 0.0000 -7635.6707 997.3765 0.0000 0.0000 1113.3218 -5524.9723 276.6662 -6638.2941 -5521.1934 270.0661 -874.9166 -785.5881 20649.6961 8.3720 9.1085
ENERGY: 295000 0.0000 0.0000 0.0000 0.0000 -7743.0468 1102.0712 0.0000 0.0000 1107.3351 -5533.6405 275.1785 -6640.9756 -5529.2861 270.9508 394.0077 456.1452 20427.6432 -0.2321 0.3646
ENERGY: 305000 0.0000 0.0000 0.0000 0.0000 -7766.6413 1097.4609 0.0000 0.0000 1069.3123 -5599.8681 265.7296 -6669.1804 -5595.9666 271.4076 127.1206 180.6898 20373.2447 -0.6676 -1.3075
ENERGY: 315000 0.0000 0.0000 0.0000 0.0000 -7595.2468 954.9610 0.0000 0.0000 1044.4193 -5595.8666 259.5436 -6640.2859 -5594.0709 269.7828 -1506.5522 -1488.2649 20772.7490 6.4155 5.5972
ENERGY: 325000 0.0000 0.0000 0.0000 0.0000 -7714.6923 1072.4095 0.0000 0.0000 1118.3721 -5523.9107 277.9212 -6642.2828 -5521.0455 271.5581 276.7206 380.3575 20219.4213 0.4908 -0.2977
TCL: Running 1000000 steps at 300 kelvin.
TCL: Setting parameter langevinTemp to 300
TCL: Running for 1000000 steps
ETITLE: TS BOND ANGLE DIHED IMPRP ELECT VDW BOUNDARY MISC KINETIC TOTAL TEMP POTENTIAL TOTAL3 TEMPAVG PRESSURE GPRESSURE VOLUME PRESSAVG GPRESSAVG
ENERGY: 325000 0.0000 0.0000 0.0000 0.0000 -7714.6923 1072.4095 0.0000 0.0000 1117.8105 -5524.4723 277.7816 -6642.2828 -5522.5074 277.7816 279.2356 381.7418 20219.4213 279.2356 381.7418
ENERGY: 525000 0.0000 0.0000 0.0000 0.0000 -7424.8122 1005.4183 0.0000 0.0000 1146.1964 -5273.1976 284.8357 -6419.3940 -5271.2924 298.5002 190.4887 219.6897 20739.8527 3.1286 3.1149
ENERGY: 725000 0.0000 0.0000 0.0000 0.0000 -7265.2159 921.3888 0.0000 0.0000 1154.4318 -5189.3952 286.8822 -6343.8271 -5187.8888 301.3582 -770.1805 -726.5368 21293.3297 -0.6419 -0.0619
ENERGY: 925000 0.0000 0.0000 0.0000 0.0000 -7385.4304 936.9626 0.0000 0.0000 1191.2888 -5257.1790 296.0414 -6448.4678 -5254.7932 300.0565 -918.3760 -854.7480 21070.5659 -0.9634 -0.4326
ENERGY: 1125000 0.0000 0.0000 0.0000 0.0000 -7530.5286 1083.8675 0.0000 0.0000 1185.7020 -5260.9591 294.6530 -6446.6611 -5257.8399 302.0192 1012.3667 1111.1814 20516.5316 3.1333 3.1167
ENERGY: 1325000 0.0000 0.0000 0.0000 0.0000 -7432.9092 1042.2145 0.0000 0.0000 1218.5778 -5172.1169 302.8228 -6390.6947 -5169.8975 304.5506 757.2812 820.2900 20730.9745 5.1353 5.2639
TCL: Exiting due to exit command.
