Info: SIMULATION PARAMETERS:
Info: TIMESTEP               2
Info: NUMBER OF STEPS        0
Info: STEPS PER CYCLE        10
Info: PERIODIC CELL BASIS 1  31.981 0 0
Info: PERIODIC CELL BASIS 2  0 31.785 0
Info: PERIODIC CELL BASIS 3  0 0 30.728
Info: PERIODIC CELL CENTER   0 0 0
Info: WRAPPING WATERS AROUND PERIODIC BOUNDARIES ON OUTPUT.
Info: WRAPPING ALL CLUSTERS AROUND PERIODIC BOUNDARIES ON OUTPUT.
Info: FIRST LDB TIMESTEP     50
Info: LAST LDB TIMESTEP     -1
Info: HOM BACKGROUND SCALING 1
Info: PME BACKGROUND SCALING 1
Info: MIN ATOMS PER PATCH    40
Info: EMPTY PATCH LOAD       40 ATOMS
Info: INITIAL TEMPERATURE    300
Info: CENTER OF MASS MOVING INITIALLY? NO
Info: DIELECTRIC             1
Info: EXCLUDE                SCALED ONE-FOUR
Info: 1-4 ELECTROSTATICS SCALED BY 0.833333
Info: MODIFIED 1-4 VDW PARAMETERS WILL BE USED
Info: DCD FILENAME           mobley_7261305_min.dcd
Info: DCD FREQUENCY          5000
Info: DCD FIRST STEP         5000
Info: DCD FILE WILL CONTAIN UNIT CELL DATA
Info: XST FILENAME           mobley_7261305_min.xst
Info: XST FREQUENCY          5000
Info: NO VELOCITY DCD OUTPUT
Info: NO FORCE DCD OUTPUT
Info: OUTPUT FILENAME        mobley_7261305_min
Info: BINARY OUTPUT FILES WILL BE USED
Info: RESTART FILENAME       mobley_7261305_min.restart
Info: RESTART FREQUENCY      5000
Info: BINARY RESTART FILES WILL BE USED
Info: CUTOFF                 9
Info: PAIRLIST DISTANCE      11
Info: PAIRLIST SHRINK RATE   0.01
Info: PAIRLIST GROW RATE     0.01
Info: PAIRLIST TRIGGER       0.3
Info: PAIRLISTS PER CYCLE    2
Info: PAIRLISTS ENABLED
Info: MARGIN                 8
Info: HYDROGEN GROUP CUTOFF  2.5
Info: PATCH DIMENSION        21.5
Info: ENERGY OUTPUT STEPS    5000
Info: ENERGY EVALUATION STEPS    5000
Info: OUTPUT ENERGY PRECISION 4
Info: CROSSTERM ENERGY INCLUDED IN DIHEDRAL
Info: TIMING OUTPUT STEPS    50000
Info: PRESSURE OUTPUT STEPS  5000
Info: FIXED ATOMS ACTIVE
Info: LANGEVIN DYNAMICS ACTIVE
Info: LANGEVIN TEMPERATURE   300
Info: LANGEVIN USING BBK INTEGRATOR
Info: LANGEVIN DAMPING COEFFICIENT IS 1 INVERSE PS
Info: LANGEVIN DYNAMICS APPLIED TO HYDROGENS
Info: LANGEVIN PISTON PRESSURE CONTROL ACTIVE
Info:        TARGET PRESSURE IS 1.01325 BAR
Info:     OSCILLATION PERIOD IS 50 FS
Info:             DECAY TIME IS 25 FS
Info:     PISTON TEMPERATURE IS 300 K
Info:       PRESSURE CONTROL IS GROUP-BASED
Info:    INITIAL STRAIN RATE IS 0 0 0
Info:       CELL FLUCTUATION IS ISOTROPIC
Info: PARTICLE MESH EWALD (PME) ACTIVE
Info: PME TOLERANCE               1e-06
Info: PME EWALD COEFFICIENT       0.348832
Info: PME INTERPOLATION ORDER     4
Info: PME GRID DIMENSIONS         32 32 32
Info: PME MAXIMUM GRID SPACING    1
Info: FULL ELECTROSTATIC EVALUATION FREQUENCY      2
Info: USING VERLET I (r-RESPA) MTS SCHEME.
Info: C1 SPLITTING OF LONG RANGE ELECTROSTATICS
Info: PLACING ATOMS IN PATCHES BY HYDROGEN GROUPS
Info: RIGID BONDS TO HYDROGEN : ALL
Info:         ERROR TOLERANCE : 1e-08
Info:          MAX ITERATIONS : 100
Info: RIGID WATER USING SETTLE ALGORITHM
Info: RANDOM NUMBER SEED     1741671304
Info: USE HYDROGEN BONDS?    NO
Info: Using AMBER format force field!
Info: AMBER PARM FILE        mobley_7261305.prmtop
Info: COORDINATE PDB         mobley_7261305.pdb
Info: Exclusions will be read from PARM file!
Info: SCNB (VDW SCALING)     2
Info: USING ARITHMETIC MEAN TO COMBINE L-J SIGMA PARAMETERS
Info: SUMMARY OF PARAMETERS:
Info: 4 BONDS
Info: 2 ANGLES
Info:   2 HARMONIC
Info:   0 COSINE-BASED
Info: 1 DIHEDRAL
Info: 0 IMPROPER
Info: 0 CROSSTERM
Info: 0 VDW
Info: 10 VDW_PAIRS
Info: 0 NBTHOLE_PAIRS
Info: STRUCTURE SUMMARY:
Info: 2001 ATOMS
Info: 2000 BONDS
Info: 6 ANGLES
Info: 4 DIHEDRALS
Info: 0 IMPROPERS
Info: 0 CROSSTERMS
Info: 2010 EXCLUSIONS
Info: 6 FIXED ATOMS
Info: 1999 RIGID BONDS
Info: 4 RIGID BONDS BETWEEN FIXED ATOMS
Info: 3990 DEGREES OF FREEDOM
Info: 667 HYDROGEN GROUPS
Info: 3 ATOMS IN LARGEST HYDROGEN GROUP
Info: 667 MIGRATION GROUPS
Info: 3 ATOMS IN LARGEST MIGRATION GROUP
Info: 2 HYDROGEN GROUPS WITH ALL ATOMS FIXED
Info: TOTAL MASS = 12012.7 amu
Info: TOTAL CHARGE = -0.000200033 e
Info: MASS DENSITY = 0.638633 g/cm^3
Info: ATOM DENSITY = 0.0640617 atoms/A^3
Info: ADDED 0 IMPLICIT EXCLUSIONS
Info: NONBONDED TABLE R-SQUARED SPACING: 0.0625
Info: NONBONDED TABLE SIZE: 705 POINTS
Info: REMOVING COM VELOCITY -0.207765 -0.00461954 0.184874
TCL: Minimizing for 2000 steps
ETITLE: TS BOND ANGLE DIHED IMPRP ELECT VDW BOUNDARY MISC KINETIC TOTAL TEMP POTENTIAL TOTAL3 TEMPAVG PRESSURE GPRESSURE VOLUME PRESSAVG GPRESSAVG
ENERGY: 0 0.0000 0.0000 0.0000 0.0000 -5809.8861 645.5214 0.0000 0.0000 0.0000 -5164.3647 0.0000 -5164.3647 -5164.3647 0.0000 9008.2639 -12943.9650 31235.5063 9008.2639 -12943.9650
ENERGY: 400 0.0000 0.0000 0.0000 0.0000 -8844.8987 1478.9472 0.0000 0.0000 0.0000 -7365.9515 0.0000 -7365.9515 -7365.9515 0.0000 16441.2496 15840.9278 31235.5063 16441.2496 15840.9278
ENERGY: 800 0.0000 0.0000 0.0000 0.0000 -9088.8566 1570.5165 0.0000 0.0000 0.0000 -7518.3401 0.0000 -7518.3401 -7518.3401 0.0000 17464.6693 16830.0023 31235.5063 17464.6693 16830.0023
ENERGY: 1200 0.0000 0.0000 0.0000 0.0000 -9163.8065 1591.1123 0.0000 0.0000 0.0000 -7572.6942 0.0000 -7572.6942 -7572.6942 0.0000 17748.6732 17025.7866 31235.5063 17748.6732 17025.7866
ENERGY: 1600 0.0000 0.0000 0.0000 0.0000 -9223.4390 1611.6500 0.0000 0.0000 0.0000 -7611.7891 0.0000 -7611.7891 -7611.7891 0.0000 17923.8927 17257.3238 31235.5063 17923.8927 17257.3238
ENERGY: 2000 0.0000 0.0000 0.0000 0.0000 -9226.6068 1604.6710 0.0000 0.0000 0.0000 -7621.9357 0.0000 -7621.9357 -7621.9357 0.0000 17857.9093 17184.0953 31235.5063 17857.9093 17184.0953
TCL: Exiting due to exit command.
Info: NAMD 3.0.1 for Linux-x86_64-multicore
Info: Please visit http://www.ks.uiuc.edu/Research/namd/
Info: for updates, documentation, and support information.
Info: Please cite Phillips et al., J. Chem. Phys. 153:044130 (2020) doi:10.1063/5.0014475
Info: in all publications reporting results obtained with NAMD.
Info: Based on Charm++/Converse 80000 for multicore-linux-x86_64-gcc
Info: Built Mon Oct 14 11:11:06 CDT 2024 by dhardy on athine.ks.uiuc.edu
Info: 1 NAMD  3.0.1  Linux-x86_64-multicore  16    k006  z5358697
Info: Running on 16 processors, 1 nodes, 1 physical nodes.
Info: CPU topology information available.
Info: Charm++/Converse parallel runtime startup completed at 0.0106725 s
Info: 1043.45 MB of memory in use based on /proc/self/stat
Info: Configuration file is equil.namd
Info: Working in the current directory /srv/scratch/z5358697/min-equil/11
TCL: Running 25000 steps at 30 kelvin.
TCL: Suspending until startup complete.
Info: SIMULATION PARAMETERS:
Info: TIMESTEP               2
Info: NUMBER OF STEPS        0
Info: STEPS PER CYCLE        10
Info: PERIODIC CELL BASIS 1  31.981 0 0
Info: PERIODIC CELL BASIS 2  0 31.785 0
Info: PERIODIC CELL BASIS 3  0 0 30.728
Info: PERIODIC CELL CENTER   0 0 0
Info: WRAPPING WATERS AROUND PERIODIC BOUNDARIES ON OUTPUT.
Info: WRAPPING ALL CLUSTERS AROUND PERIODIC BOUNDARIES ON OUTPUT.
Info: FIRST LDB TIMESTEP     50
Info: LAST LDB TIMESTEP     -1
Info: HOM BACKGROUND SCALING 1
Info: PME BACKGROUND SCALING 1
Info: MIN ATOMS PER PATCH    40
Info: EMPTY PATCH LOAD       40 ATOMS
Info: INITIAL TEMPERATURE    300
Info: CENTER OF MASS MOVING INITIALLY? NO
Info: DIELECTRIC             1
Info: EXCLUDE                SCALED ONE-FOUR
Info: 1-4 ELECTROSTATICS SCALED BY 0.833333
Info: MODIFIED 1-4 VDW PARAMETERS WILL BE USED
Info: DCD FILENAME           mobley_7261305_equil.dcd
Info: DCD FREQUENCY          5000
Info: DCD FIRST STEP         5000
Info: DCD FILE WILL CONTAIN UNIT CELL DATA
Info: XST FILENAME           mobley_7261305_equil.xst
Info: XST FREQUENCY          5000
Info: NO VELOCITY DCD OUTPUT
Info: NO FORCE DCD OUTPUT
Info: OUTPUT FILENAME        mobley_7261305_equil
Info: BINARY OUTPUT FILES WILL BE USED
Info: RESTART FILENAME       mobley_7261305_equil.restart
Info: RESTART FREQUENCY      5000
Info: BINARY RESTART FILES WILL BE USED
Info: CUTOFF                 9
Info: PAIRLIST DISTANCE      11
Info: PAIRLIST SHRINK RATE   0.01
Info: PAIRLIST GROW RATE     0.01
Info: PAIRLIST TRIGGER       0.3
Info: PAIRLISTS PER CYCLE    2
Info: PAIRLISTS ENABLED
Info: MARGIN                 8
Info: HYDROGEN GROUP CUTOFF  2.5
Info: PATCH DIMENSION        21.5
Info: ENERGY OUTPUT STEPS    5000
Info: ENERGY EVALUATION STEPS    5000
Info: OUTPUT ENERGY PRECISION 4
Info: CROSSTERM ENERGY INCLUDED IN DIHEDRAL
Info: TIMING OUTPUT STEPS    50000
Info: PRESSURE OUTPUT STEPS  5000
Info: FIXED ATOMS ACTIVE
Info: LANGEVIN DYNAMICS ACTIVE
Info: LANGEVIN TEMPERATURE   30
Info: LANGEVIN USING BBK INTEGRATOR
Info: LANGEVIN DAMPING COEFFICIENT IS 1 INVERSE PS
Info: LANGEVIN DYNAMICS APPLIED TO HYDROGENS
Info: LANGEVIN PISTON PRESSURE CONTROL ACTIVE
Info:        TARGET PRESSURE IS 1.01325 BAR
Info:     OSCILLATION PERIOD IS 50 FS
Info:             DECAY TIME IS 25 FS
Info:     PISTON TEMPERATURE IS 300 K
Info:       PRESSURE CONTROL IS GROUP-BASED
Info:    INITIAL STRAIN RATE IS 0 0 0
Info:       CELL FLUCTUATION IS ISOTROPIC
Info: PARTICLE MESH EWALD (PME) ACTIVE
Info: PME TOLERANCE               1e-06
Info: PME EWALD COEFFICIENT       0.348832
Info: PME INTERPOLATION ORDER     4
Info: PME GRID DIMENSIONS         32 32 32
Info: PME MAXIMUM GRID SPACING    1
Info: FULL ELECTROSTATIC EVALUATION FREQUENCY      2
Info: USING VERLET I (r-RESPA) MTS SCHEME.
Info: C1 SPLITTING OF LONG RANGE ELECTROSTATICS
Info: PLACING ATOMS IN PATCHES BY HYDROGEN GROUPS
Info: RIGID BONDS TO HYDROGEN : ALL
Info:         ERROR TOLERANCE : 1e-08
Info:          MAX ITERATIONS : 100
Info: RIGID WATER USING SETTLE ALGORITHM
Info: RANDOM NUMBER SEED     1741671306
Info: USE HYDROGEN BONDS?    NO
Info: Using AMBER format force field!
Info: AMBER PARM FILE        mobley_7261305.prmtop
Info: COORDINATE PDB         mobley_7261305.pdb
Info: Exclusions will be read from PARM file!
Info: SCNB (VDW SCALING)     2
Info: USING ARITHMETIC MEAN TO COMBINE L-J SIGMA PARAMETERS
Info: BINARY COORDINATES     mobley_7261305_min.coor
Info: SUMMARY OF PARAMETERS:
Info: 4 BONDS
Info: 2 ANGLES
Info:   2 HARMONIC
Info:   0 COSINE-BASED
Info: 1 DIHEDRAL
Info: 0 IMPROPER
Info: 0 CROSSTERM
Info: 0 VDW
Info: 10 VDW_PAIRS
Info: 0 NBTHOLE_PAIRS
Info: STRUCTURE SUMMARY:
Info: 2001 ATOMS
Info: 2000 BONDS
Info: 6 ANGLES
Info: 4 DIHEDRALS
Info: 0 IMPROPERS
Info: 0 CROSSTERMS
Info: 2010 EXCLUSIONS
Info: 6 FIXED ATOMS
Info: 1999 RIGID BONDS
Info: 4 RIGID BONDS BETWEEN FIXED ATOMS
Info: 3990 DEGREES OF FREEDOM
Info: 667 HYDROGEN GROUPS
Info: 3 ATOMS IN LARGEST HYDROGEN GROUP
Info: 667 MIGRATION GROUPS
Info: 3 ATOMS IN LARGEST MIGRATION GROUP
Info: 2 HYDROGEN GROUPS WITH ALL ATOMS FIXED
Info: TOTAL MASS = 12012.7 amu
Info: TOTAL CHARGE = -0.000200033 e
Info: MASS DENSITY = 0.638633 g/cm^3
Info: ATOM DENSITY = 0.0640617 atoms/A^3
Info: ADDED 0 IMPLICIT EXCLUSIONS
Info: NONBONDED TABLE R-SQUARED SPACING: 0.0625
Info: NONBONDED TABLE SIZE: 705 POINTS
Info: REMOVING COM VELOCITY 0.275682 0.221336 0.06597
TCL: Running for 25000 steps
ETITLE: TS BOND ANGLE DIHED IMPRP ELECT VDW BOUNDARY MISC KINETIC TOTAL TEMP POTENTIAL TOTAL3 TEMPAVG PRESSURE GPRESSURE VOLUME PRESSAVG GPRESSAVG
ENERGY: 0 0.0000 0.0000 0.0000 0.0000 -9226.6068 1604.6710 0.0000 0.0000 1154.4637 -6467.4720 291.2043 -7621.9357 -6467.2499 291.2043 370.9986 395.8242 31235.5063 370.9986 395.8242
ENERGY: 5000 0.0000 0.0000 0.0000 0.0000 -9573.8797 1612.8726 0.0000 0.0000 123.4528 -7837.5543 31.1400 -7961.0071 -7837.1447 46.7476 -256.5587 -213.8840 19991.8947 3.9256 3.9760
ENERGY: 10000 0.0000 0.0000 0.0000 0.0000 -9729.8164 1742.2888 0.0000 0.0000 117.3130 -7870.2146 29.5913 -7987.5276 -7870.0572 30.5346 1342.9069 1415.9195 19591.4810 3.2167 3.4046
ENERGY: 15000 0.0000 0.0000 0.0000 0.0000 -9647.8022 1646.6894 0.0000 0.0000 122.8990 -7878.2137 31.0003 -8001.1127 -7878.1001 29.8787 60.9619 139.0846 19650.5691 3.5536 3.4082
ENERGY: 20000 0.0000 0.0000 0.0000 0.0000 -9603.9699 1592.2485 0.0000 0.0000 117.6644 -7894.0569 29.6799 -8011.7214 -7893.8990 30.3929 -668.8965 -599.6182 19650.2318 5.8031 5.6145
ENERGY: 25000 0.0000 0.0000 0.0000 0.0000 -9750.8636 1725.9101 0.0000 0.0000 118.9548 -7905.9988 30.0054 -8024.9535 -7905.8365 30.1695 918.7508 986.2154 19467.0160 7.0061 6.9456
TCL: Running 25000 steps at 60 kelvin.
TCL: Setting parameter langevinTemp to 60
TCL: Running for 25000 steps
ETITLE: TS BOND ANGLE DIHED IMPRP ELECT VDW BOUNDARY MISC KINETIC TOTAL TEMP POTENTIAL TOTAL3 TEMPAVG PRESSURE GPRESSURE VOLUME PRESSAVG GPRESSAVG
ENERGY: 25000 0.0000 0.0000 0.0000 0.0000 -9750.8636 1725.9101 0.0000 0.0000 118.8940 -7906.0595 29.9901 -8024.9535 -7905.8075 29.9901 911.9605 986.1502 19467.0160 911.9605 986.1502
ENERGY: 30000 0.0000 0.0000 0.0000 0.0000 -9455.0521 1531.8065 0.0000 0.0000 228.8112 -7694.4343 57.7158 -7923.2455 -7693.3972 57.0136 -1046.1270 -965.0618 19778.1257 2.4743 2.4177
ENERGY: 35000 0.0000 0.0000 0.0000 0.0000 -9503.5807 1549.9468 0.0000 0.0000 242.4339 -7711.1999 61.1520 -7953.6339 -7710.9181 60.1817 -953.8072 -895.2055 19716.7338 4.7335 4.3845
ENERGY: 40000 0.0000 0.0000 0.0000 0.0000 -9466.2705 1516.1328 0.0000 0.0000 234.5102 -7715.6276 59.1533 -7950.1377 -7714.7659 59.8840 -1452.0069 -1406.9554 19801.6186 7.3138 7.0453
ENERGY: 45000 0.0000 0.0000 0.0000 0.0000 -9479.4499 1525.6011 0.0000 0.0000 236.6412 -7717.2076 59.6909 -7953.8488 -7716.5850 60.2849 -1281.6737 -1256.6986 19747.7953 4.0613 3.6451
ENERGY: 50000 0.0000 0.0000 0.0000 0.0000 -9560.9946 1592.7391 0.0000 0.0000 238.6190 -7729.6365 60.1897 -7968.2555 -7729.0313 60.3747 -520.8040 -489.8575 19653.6079 -0.6907 -0.9298
TCL: Running 25000 steps at 90 kelvin.
TCL: Setting parameter langevinTemp to 90
TCL: Running for 25000 steps
ETITLE: TS BOND ANGLE DIHED IMPRP ELECT VDW BOUNDARY MISC KINETIC TOTAL TEMP POTENTIAL TOTAL3 TEMPAVG PRESSURE GPRESSURE VOLUME PRESSAVG GPRESSAVG
ENERGY: 50000 0.0000 0.0000 0.0000 0.0000 -9560.9946 1592.7391 0.0000 0.0000 238.5005 -7729.7550 60.1599 -7968.2555 -7729.1621 60.1599 -532.4156 -489.5461 19653.6079 -532.4156 -489.5461
ENERGY: 55000 0.0000 0.0000 0.0000 0.0000 -9433.4494 1581.7913 0.0000 0.0000 361.0722 -7490.5860 91.0776 -7851.6582 -7489.4026 87.3321 17.7611 71.4284 19556.4416 6.4433 5.6378
ENERGY: 60000 0.0000 0.0000 0.0000 0.0000 -9513.3712 1635.8086 0.0000 0.0000 361.0634 -7516.4992 91.0754 -7877.5626 -7515.4808 91.7191 505.3104 548.0882 19496.3598 3.2620 3.6876
ENERGY: 65000 0.0000 0.0000 0.0000 0.0000 -9473.1835 1588.7206 0.0000 0.0000 349.0161 -7535.4468 88.0365 -7884.4628 -7534.5271 89.9976 19.9327 124.7333 19358.8358 6.7526 7.0488
ENERGY: 70000 0.0000 0.0000 0.0000 0.0000 -9547.1326 1647.3207 0.0000 0.0000 355.0491 -7544.7628 89.5583 -7899.8119 -7543.9809 90.9225 545.3415 635.6247 19427.3199 1.4399 1.8357
ENERGY: 75000 0.0000 0.0000 0.0000 0.0000 -9514.7303 1608.2664 0.0000 0.0000 357.5633 -7548.9006 90.1925 -7906.4639 -7548.2926 89.9915 -5.6151 78.1513 19525.1400 9.1515 9.2886
TCL: Running 25000 steps at 120 kelvin.
TCL: Setting parameter langevinTemp to 120
TCL: Running for 25000 steps
ETITLE: TS BOND ANGLE DIHED IMPRP ELECT VDW BOUNDARY MISC KINETIC TOTAL TEMP POTENTIAL TOTAL3 TEMPAVG PRESSURE GPRESSURE VOLUME PRESSAVG GPRESSAVG
ENERGY: 75000 0.0000 0.0000 0.0000 0.0000 -9514.7303 1608.2664 0.0000 0.0000 357.3879 -7549.0761 90.1482 -7906.4639 -7548.3654 90.1482 26.5488 77.6207 19525.1400 26.5488 77.6207
ENERGY: 80000 0.0000 0.0000 0.0000 0.0000 -9297.3173 1509.1432 0.0000 0.0000 450.9453 -7337.2288 113.7474 -7788.1741 -7336.2585 116.9252 -557.7067 -556.9195 19726.8950 6.7946 6.7427
ENERGY: 85000 0.0000 0.0000 0.0000 0.0000 -9275.8193 1493.4829 0.0000 0.0000 468.4046 -7313.9318 118.1513 -7782.3364 -7313.0782 119.3626 -811.8794 -705.6423 19701.6835 4.3134 4.2627
ENERGY: 90000 0.0000 0.0000 0.0000 0.0000 -9245.8208 1449.4245 0.0000 0.0000 460.3948 -7336.0015 116.1309 -7796.3963 -7334.5397 120.4030 -1320.6223 -1264.8999 19800.3296 -3.2439 -3.8110
ENERGY: 95000 0.0000 0.0000 0.0000 0.0000 -9335.0986 1541.2726 0.0000 0.0000 470.8860 -7322.9401 118.7772 -7793.8261 -7322.3420 121.0731 -222.4335 -167.2978 19640.0278 -2.3483 -2.3658
ENERGY: 100000 0.0000 0.0000 0.0000 0.0000 -9374.8135 1560.9317 0.0000 0.0000 481.5174 -7332.3644 121.4589 -7813.8818 -7330.5793 120.8512 -168.5943 -64.5217 19667.9300 13.0804 13.7295
TCL: Running 25000 steps at 150 kelvin.
TCL: Setting parameter langevinTemp to 150
TCL: Running for 25000 steps
ETITLE: TS BOND ANGLE DIHED IMPRP ELECT VDW BOUNDARY MISC KINETIC TOTAL TEMP POTENTIAL TOTAL3 TEMPAVG PRESSURE GPRESSURE VOLUME PRESSAVG GPRESSAVG
ENERGY: 100000 0.0000 0.0000 0.0000 0.0000 -9374.8135 1560.9317 0.0000 0.0000 481.2735 -7332.6083 121.3974 -7813.8818 -7331.9755 121.3974 -117.8099 -63.7858 19667.9300 -117.8099 -63.7858
ENERGY: 105000 0.0000 0.0000 0.0000 0.0000 -9224.6662 1545.4374 0.0000 0.0000 579.3501 -7099.8787 146.1365 -7679.2288 -7098.1658 146.6298 345.8039 471.4906 19641.5036 6.1510 7.0546
ENERGY: 110000 0.0000 0.0000 0.0000 0.0000 -9241.5251 1578.7907 0.0000 0.0000 589.5347 -7073.1997 148.7055 -7662.7344 -7071.4504 146.8791 946.5973 1009.4296 19565.2903 3.2433 4.8592
ENERGY: 115000 0.0000 0.0000 0.0000 0.0000 -9173.2366 1537.4982 0.0000 0.0000 629.1682 -7006.5702 158.7027 -7635.7384 -7004.4265 152.9627 604.7114 621.3822 19693.2032 -0.5262 -0.0689
ENERGY: 120000 0.0000 0.0000 0.0000 0.0000 -9153.0336 1454.3026 0.0000 0.0000 599.8120 -7098.9190 151.2978 -7698.7310 -7097.4897 151.5485 -742.6801 -695.9123 19736.3657 6.9711 6.5472
ENERGY: 125000 0.0000 0.0000 0.0000 0.0000 -9135.9804 1442.5355 0.0000 0.0000 602.9185 -7090.5265 152.0814 -7693.4449 -7089.3419 150.3091 -705.3286 -636.9984 19469.4335 3.4942 3.9906
TCL: Running 50000 steps at 180 kelvin.
TCL: Setting parameter langevinTemp to 180
TCL: Running for 50000 steps
ETITLE: TS BOND ANGLE DIHED IMPRP ELECT VDW BOUNDARY MISC KINETIC TOTAL TEMP POTENTIAL TOTAL3 TEMPAVG PRESSURE GPRESSURE VOLUME PRESSAVG GPRESSAVG
ENERGY: 125000 0.0000 0.0000 0.0000 0.0000 -9135.9804 1442.5355 0.0000 0.0000 602.6094 -7090.8355 152.0034 -7693.4449 -7089.7144 152.0034 -685.8020 -636.6715 19469.4335 -685.8020 -636.6715
ENERGY: 135000 0.0000 0.0000 0.0000 0.0000 -9056.5012 1515.8951 0.0000 0.0000 718.4923 -6822.1139 181.2340 -7540.6062 -6820.0387 181.2067 1092.5359 1230.1128 19250.0953 12.2239 12.4930
ENERGY: 145000 0.0000 0.0000 0.0000 0.0000 -8863.5828 1354.7310 0.0000 0.0000 694.4969 -6814.3549 175.1813 -7508.8518 -6813.1128 181.9173 -878.7228 -811.9435 19546.0062 0.7869 0.7929
ENERGY: 155000 0.0000 0.0000 0.0000 0.0000 -8959.8043 1383.7333 0.0000 0.0000 714.0705 -6862.0006 180.1186 -7576.0710 -6860.5306 178.0850 -687.6635 -573.7648 19319.0381 11.4744 11.4337
ENERGY: 165000 0.0000 0.0000 0.0000 0.0000 -8947.8553 1408.3759 0.0000 0.0000 710.1029 -6829.3765 179.1178 -7539.4794 -6827.9780 179.7552 -311.5349 -212.9689 19429.9234 1.8190 2.3610
ENERGY: 175000 0.0000 0.0000 0.0000 0.0000 -8931.7047 1412.0908 0.0000 0.0000 702.8200 -6816.7939 177.2808 -7519.6139 -6815.2695 181.5504 -166.8031 -37.9939 19507.6201 -1.3466 -0.9534
TCL: Running 50000 steps at 210 kelvin.
TCL: Setting parameter langevinTemp to 210
TCL: Running for 50000 steps
ETITLE: TS BOND ANGLE DIHED IMPRP ELECT VDW BOUNDARY MISC KINETIC TOTAL TEMP POTENTIAL TOTAL3 TEMPAVG PRESSURE GPRESSURE VOLUME PRESSAVG GPRESSAVG
ENERGY: 175000 0.0000 0.0000 0.0000 0.0000 -8931.7047 1412.0908 0.0000 0.0000 702.4832 -6817.1307 177.1958 -7519.6139 -6815.9776 177.1958 -103.6823 -39.9020 19507.6201 -103.6823 -39.9020
ENERGY: 185000 0.0000 0.0000 0.0000 0.0000 -8554.5550 1312.5150 0.0000 0.0000 828.6697 -6413.3703 209.0253 -7242.0400 -6412.2256 212.1864 0.5660 64.0005 19594.5976 -2.2988 -1.7086
ENERGY: 195000 0.0000 0.0000 0.0000 0.0000 -8513.8532 1274.9812 0.0000 0.0000 851.2350 -6387.6370 214.7173 -7238.8720 -6385.7493 211.1205 -218.0841 -105.2321 19501.2914 8.0258 7.8696
ENERGY: 205000 0.0000 0.0000 0.0000 0.0000 -8561.5559 1344.2646 0.0000 0.0000 815.0531 -6402.2383 205.5907 -7217.2914 -6401.7203 211.4714 713.2493 706.3240 19600.3217 9.0432 10.1557
ENERGY: 215000 0.0000 0.0000 0.0000 0.0000 -8433.7418 1202.9749 0.0000 0.0000 836.8356 -6393.9313 211.0851 -7230.7669 -6392.5281 209.4533 -1305.7542 -1231.1430 19821.4704 6.6016 5.1666
ENERGY: 225000 0.0000 0.0000 0.0000 0.0000 -8530.1255 1323.1807 0.0000 0.0000 846.1316 -6360.8132 213.4300 -7206.9448 -6359.1511 211.1949 740.7426 851.7092 19213.2409 5.8125 6.1493
TCL: Running 50000 steps at 240 kelvin.
TCL: Setting parameter langevinTemp to 240
TCL: Running for 50000 steps
ETITLE: TS BOND ANGLE DIHED IMPRP ELECT VDW BOUNDARY MISC KINETIC TOTAL TEMP POTENTIAL TOTAL3 TEMPAVG PRESSURE GPRESSURE VOLUME PRESSAVG GPRESSAVG
ENERGY: 225000 0.0000 0.0000 0.0000 0.0000 -8530.1255 1323.1807 0.0000 0.0000 845.7155 -6361.2293 213.3250 -7206.9448 -6360.7270 213.3250 771.8061 850.8168 19213.2409 771.8061 850.8168
ENERGY: 235000 0.0000 0.0000 0.0000 0.0000 -8034.9624 1089.3110 0.0000 0.0000 959.3113 -5986.3401 241.9786 -6945.6514 -5984.0617 241.9556 -1130.9763 -1035.3322 20023.7401 7.1389 8.0769
ENERGY: 245000 0.0000 0.0000 0.0000 0.0000 -8132.9327 1192.1998 0.0000 0.0000 989.8775 -5950.8554 249.6887 -6940.7329 -5948.4294 238.0320 211.8196 288.6642 19735.1667 -1.0431 0.2601
ENERGY: 255000 0.0000 0.0000 0.0000 0.0000 -8239.3400 1317.1934 0.0000 0.0000 929.3004 -5992.8461 234.4086 -6922.1466 -5990.0259 238.4832 1649.2569 1715.1719 19813.1944 1.3314 1.6938
ENERGY: 265000 0.0000 0.0000 0.0000 0.0000 -8122.4366 1189.9324 0.0000 0.0000 946.4140 -5986.0901 238.7254 -6932.5041 -5983.8078 238.9666 302.0884 420.6596 19443.8722 9.5455 9.9025
ENERGY: 275000 0.0000 0.0000 0.0000 0.0000 -8234.6217 1222.7678 0.0000 0.0000 948.4234 -6063.4305 239.2323 -7011.8539 -6062.2066 238.1268 -13.3147 129.6759 19919.3976 15.3406 15.2937
TCL: Running 50000 steps at 270 kelvin.
TCL: Setting parameter langevinTemp to 270
TCL: Running for 50000 steps
ETITLE: TS BOND ANGLE DIHED IMPRP ELECT VDW BOUNDARY MISC KINETIC TOTAL TEMP POTENTIAL TOTAL3 TEMPAVG PRESSURE GPRESSURE VOLUME PRESSAVG GPRESSAVG
ENERGY: 275000 0.0000 0.0000 0.0000 0.0000 -8234.6217 1222.7678 0.0000 0.0000 947.9585 -6063.8954 239.1150 -7011.8539 -6062.1765 239.1150 39.8860 127.9502 19919.3976 39.8860 127.9502
ENERGY: 285000 0.0000 0.0000 0.0000 0.0000 -7689.4895 1028.4113 0.0000 0.0000 1028.5458 -5632.5324 259.4425 -6661.0782 -5632.2883 269.2618 -606.0417 -519.5058 20076.4414 9.0416 8.9697
ENERGY: 295000 0.0000 0.0000 0.0000 0.0000 -7805.8694 1117.5744 0.0000 0.0000 1085.2600 -5603.0349 273.7482 -6688.2950 -5601.2681 268.5890 402.1537 507.0354 19941.3398 -0.1993 0.3453
ENERGY: 305000 0.0000 0.0000 0.0000 0.0000 -7656.9997 1059.0540 0.0000 0.0000 1098.3840 -5499.5617 277.0586 -6597.9457 -5499.0353 269.1602 120.3413 143.5800 20128.2330 -1.2680 -1.0900
ENERGY: 315000 0.0000 0.0000 0.0000 0.0000 -7673.3521 965.9970 0.0000 0.0000 1080.3169 -5627.0382 272.5014 -6707.3551 -5625.1261 270.1830 -1588.7795 -1464.6526 20214.4108 5.1289 5.7406
ENERGY: 325000 0.0000 0.0000 0.0000 0.0000 -7696.6364 1077.6227 0.0000 0.0000 1063.5362 -5555.4774 268.2686 -6619.0137 -5552.9785 270.5361 47.4576 139.3162 20311.9463 -0.5317 -0.1080
TCL: Running 1000000 steps at 300 kelvin.
TCL: Setting parameter langevinTemp to 300
TCL: Running for 1000000 steps
ETITLE: TS BOND ANGLE DIHED IMPRP ELECT VDW BOUNDARY MISC KINETIC TOTAL TEMP POTENTIAL TOTAL3 TEMPAVG PRESSURE GPRESSURE VOLUME PRESSAVG GPRESSAVG
ENERGY: 325000 0.0000 0.0000 0.0000 0.0000 -7696.6364 1077.6227 0.0000 0.0000 1062.9889 -5556.0248 268.1305 -6619.0137 -5554.0111 268.1305 59.5500 139.3956 20311.9463 59.5500 139.3956
ENERGY: 525000 0.0000 0.0000 0.0000 0.0000 -7381.8180 991.5197 0.0000 0.0000 1213.4362 -5176.8621 306.0796 -6390.2983 -5172.8930 301.6938 66.1764 207.2968 20474.1280 4.1133 3.0381
ENERGY: 725000 0.0000 0.0000 0.0000 0.0000 -7405.3943 925.4799 0.0000 0.0000 1217.8026 -5262.1119 307.1810 -6479.9145 -5259.3772 300.5914 -974.0137 -859.6850 20473.0179 0.1961 -0.1562
ENERGY: 925000 0.0000 0.0000 0.0000 0.0000 -7392.1545 961.4022 0.0000 0.0000 1116.9182 -5313.8340 281.7337 -6430.7522 -5310.8218 300.3607 -712.7539 -698.8691 20878.7113 -0.8247 -0.4960
ENERGY: 1125000 0.0000 0.0000 0.0000 0.0000 -7396.5310 1048.8561 0.0000 0.0000 1193.0406 -5154.6343 300.9350 -6347.6749 -5152.2723 299.6938 942.6894 1016.2268 20492.0465 3.5075 3.2873
ENERGY: 1325000 0.0000 0.0000 0.0000 0.0000 -7408.5349 1022.1387 0.0000 0.0000 1194.5154 -5191.8807 301.3070 -6386.3961 -5190.2195 299.2527 647.9905 609.1660 20373.2980 5.1334 5.2854
TCL: Exiting due to exit command.
