Info: SIMULATION PARAMETERS:
Info: TIMESTEP               2
Info: NUMBER OF STEPS        0
Info: STEPS PER CYCLE        10
Info: PERIODIC CELL BASIS 1  30.4028 0 0
Info: PERIODIC CELL BASIS 2  0 31.7999 0
Info: PERIODIC CELL BASIS 3  0 0 31.8684
Info: PERIODIC CELL CENTER   0 0 0
Info: WRAPPING WATERS AROUND PERIODIC BOUNDARIES ON OUTPUT.
Info: WRAPPING ALL CLUSTERS AROUND PERIODIC BOUNDARIES ON OUTPUT.
Info: FIRST LDB TIMESTEP     50
Info: LAST LDB TIMESTEP     -1
Info: HOM BACKGROUND SCALING 1
Info: PME BACKGROUND SCALING 1
Info: MIN ATOMS PER PATCH    40
Info: EMPTY PATCH LOAD       40 ATOMS
Info: VELOCITY FILE          mobley_3395921_equil.vel
Info: CENTER OF MASS MOVING INITIALLY? NO
Info: DIELECTRIC             1
Info: EXCLUDE                SCALED ONE-FOUR
Info: 1-4 ELECTROSTATICS SCALED BY 0.833333
Info: MODIFIED 1-4 VDW PARAMETERS WILL BE USED
Info: DCD FILENAME           mobley_3395921_prod.dcd
Info: DCD FREQUENCY          100000
Info: DCD FIRST STEP         100000
Info: DCD FILE WILL CONTAIN UNIT CELL DATA
Info: XST FILENAME           mobley_3395921_prod.xst
Info: XST FREQUENCY          100000
Info: NO VELOCITY DCD OUTPUT
Info: NO FORCE DCD OUTPUT
Info: OUTPUT FILENAME        mobley_3395921_prod
Info: BINARY OUTPUT FILES WILL BE USED
Info: RESTART FILENAME       mobley_3395921_prod.restart
Info: RESTART FREQUENCY      100000
Info: BINARY RESTART FILES WILL BE USED
Info: CUTOFF                 9
Info: PAIRLIST DISTANCE      11
Info: PAIRLIST SHRINK RATE   0.01
Info: PAIRLIST GROW RATE     0.01
Info: PAIRLIST TRIGGER       0.3
Info: PAIRLISTS PER CYCLE    2
Info: PAIRLISTS ENABLED
Info: MARGIN                 2
Info: HYDROGEN GROUP CUTOFF  2.5
Info: PATCH DIMENSION        15.5
Info: ENERGY OUTPUT STEPS    100000
Info: ENERGY EVALUATION STEPS    100000
Info: OUTPUT ENERGY PRECISION 4
Info: CROSSTERM ENERGY INCLUDED IN DIHEDRAL
Info: TIMING OUTPUT STEPS    1000000
Info: PRESSURE OUTPUT STEPS  100000
Info: ALCHEMICAL FEP ON
Info: FEP CURRENT LAMBDA VALUE     1
Info: FEP COMPARISON LAMBDA VALUE  0.95
Info: FEP INTRA-ALCHEMICAL NON-BONDED INTERACTIONS WILL BE RETAINED
Info: FEP INTRA-ALCHEMICAL BONDED INTERACTIONS WILL BE RETAINED
Info: FEP VDW SHIFTING COEFFICIENT 5
Info: FEP ELEC. ACTIVE FOR ANNIHILATED PARTICLES BETWEEN LAMBDA = 0 AND LAMBDA = 0.5
Info: FEP ELEC. ACTIVE FOR EXNIHILATED PARTICLES BETWEEN LAMBDA = 0.5 AND LAMBDA = 1
Info: FEP VDW ACTIVE FOR ANNIHILATED PARTICLES BETWEEN LAMBDA = 0 AND LAMBDA = 1
Info: FEP VDW ACTIVE FOR EXNIHILATED PARTICLES BETWEEN LAMBDA = 0 AND LAMBDA = 1
Info: FEP BOND ACTIVE FOR ANNIHILATED PARTICLES BETWEEN LAMBDA = 1 AND LAMBDA = 1
Info: FEP BOND ACTIVE FOR EXNIHILATED PARTICLES BETWEEN LAMBDA = 0 AND LAMBDA = 0
Info: LANGEVIN DYNAMICS ACTIVE
Info: LANGEVIN TEMPERATURE   300
Info: LANGEVIN USING BBK INTEGRATOR
Info: LANGEVIN DAMPING COEFFICIENT IS 1 INVERSE PS
Info: LANGEVIN DYNAMICS APPLIED TO HYDROGENS
Info: LANGEVIN PISTON PRESSURE CONTROL ACTIVE
Info:        TARGET PRESSURE IS 1.01325 BAR
Info:     OSCILLATION PERIOD IS 50 FS
Info:             DECAY TIME IS 25 FS
Info:     PISTON TEMPERATURE IS 300 K
Info:       PRESSURE CONTROL IS GROUP-BASED
Info:    INITIAL STRAIN RATE IS -5.33705e-06 -5.33705e-06 -5.33705e-06
Info:       CELL FLUCTUATION IS ISOTROPIC
Info: PARTICLE MESH EWALD (PME) ACTIVE
Info: PME TOLERANCE               1e-06
Info: PME EWALD COEFFICIENT       0.348832
Info: PME INTERPOLATION ORDER     4
Info: PME GRID DIMENSIONS         32 32 32
Info: PME MAXIMUM GRID SPACING    1
Info: PME CALCULATION WILL BE PERFORMED ON GPU
Info: FULL ELECTROSTATIC EVALUATION FREQUENCY      2
Info: USING VERLET I (r-RESPA) MTS SCHEME.
Info: C1 SPLITTING OF LONG RANGE ELECTROSTATICS
Info: PLACING ATOMS IN PATCHES BY HYDROGEN GROUPS
Info: RIGID BONDS TO HYDROGEN : ALL
Info:         ERROR TOLERANCE : 1e-08
Info:          MAX ITERATIONS : 100
Info: RIGID WATER USING SETTLE ALGORITHM
Info: RANDOM NUMBER SEED     1742346539
Info: USE HYDROGEN BONDS?    NO
Info: Using AMBER format force field!
Info: AMBER PARM FILE        mobley_3395921.prmtop
Info: COORDINATE PDB         mobley_3395921.pdb
Info: Exclusions will be read from PARM file!
Info: SCNB (VDW SCALING)     2
Info: USING ARITHMETIC MEAN TO COMBINE L-J SIGMA PARAMETERS
Info: BINARY COORDINATES     mobley_3395921_equil.coor
Info: SUMMARY OF PARAMETERS:
Info: 6 BONDS
Info: 8 ANGLES
Info:   8 HARMONIC
Info:   0 COSINE-BASED
Info: 10 DIHEDRAL
Info: 0 IMPROPER
Info: 0 CROSSTERM
Info: 0 VDW
Info: 21 VDW_PAIRS
Info: 0 NBTHOLE_PAIRS
Info: To read alchdata from file: mobley_3395921.pdb
Info: To read alchflag data from column: 5
Info: STRUCTURE SUMMARY:
Info: 2953 ATOMS
Info: 2953 BONDS
Info: 31 ANGLES
Info: 50 DIHEDRALS
Info: 0 IMPROPERS
Info: 0 CROSSTERMS
Info: 3023 EXCLUSIONS
Info: 2947 RIGID BONDS
Info: ALCH: 0 ATOMS TO DISAPPEAR IN FINAL STATE
Info: ALCH: 16 ATOMS TO APPEAR IN FINAL STATE
Info: 5912 DEGREES OF FREEDOM
Info: 985 HYDROGEN GROUPS
Info: 3 ATOMS IN LARGEST HYDROGEN GROUP
Info: 985 MIGRATION GROUPS
Info: 3 ATOMS IN LARGEST MIGRATION GROUP
Info: TOTAL MASS = 17723.8 amu
Info: TOTAL CHARGE = -0.000300013 e
Info: MASS DENSITY = 0.95525 g/cm^3
Info: ATOM DENSITY = 0.0958439 atoms/A^3
Info: ADDED 0 IMPLICIT EXCLUSIONS
Info: NONBONDED TABLE R-SQUARED SPACING: 0.0625
Info: NONBONDED TABLE SIZE: 705 POINTS
Info: REMOVING COM VELOCITY -0.0633028 0.0742686 0.389033
Info: Use 3D box decompostion in PME FFT.
Info: Updated CUDA force table with 4096 elements.
Info: Updated CUDA LJ table with 6 x 6 elements.
Info: Found 17 unique exclusion lists needing 40 bytes
TCL: Running for 1500000 steps
ETITLE: TS BOND ANGLE DIHED IMPRP ELECT VDW BOUNDARY MISC KINETIC TOTAL TEMP POTENTIAL TOTALAVG TEMPAVG PRESSURE GPRESSURE VOLUME PRESSAVG GPRESSAVG
ENERGY: 0 0.8648 4.8027 3.7949 0.0000 -10741.6450 1469.7374 0.0000 0.0000 1777.9020 -7484.5433 302.6661 -9262.4452 -7484.5433 302.6661 150.9585 227.2392 30810.5236 150.9585 227.2392
ENERGY: 300000 3.0983 9.4779 2.4919 0.0000 -10768.7977 1434.4010 0.0000 0.0000 1762.5644 -7556.7643 300.0551 -9319.3287 -7477.4730 302.7990 -364.4700 -319.3589 30629.0200 -178.6294 -103.4122
ENERGY: 600000 1.2315 7.3223 1.8616 0.0000 -10777.5408 1460.0576 0.0000 0.0000 1731.4054 -7575.6623 294.7506 -9307.0677 -7506.0260 299.7684 81.0275 164.1998 30073.3477 -81.1947 1.7554
ENERGY: 900000 2.7154 6.8437 2.5582 0.0000 -10788.3143 1475.1083 0.0000 0.0000 1720.7648 -7580.3239 292.9392 -9301.0886 -7510.1755 299.2520 109.5952 154.8027 30659.3383 23.0490 108.9116
ENERGY: 1200000 2.7912 10.3319 2.4071 0.0000 -10460.6789 1286.7984 0.0000 0.0000 1748.1607 -7410.1897 297.6030 -9158.3504 -7502.6266 298.6122 -1136.9852 -1146.0471 30970.1803 -156.3352 -82.6698
ENERGY: 1500000 1.7716 6.9541 2.0104 0.0000 -10619.0718 1422.9406 0.0000 0.0000 1740.1323 -7445.2627 296.2363 -9185.3950 -7508.1807 298.1131 -200.8555 -138.1605 30915.5506 -167.0930 -98.9256
TCL: Running FEP window   2: Lambda1 0.95   Lambda2 0.8999999999999999 [dLambda -0.050000000000000044]
TCL: Setting parameter firsttimestep to 0
TCL: Setting parameter alchLambda to 0.95
Info: NONBONDED TABLE R-SQUARED SPACING: 0.0625
Info: NONBONDED TABLE SIZE: 705 POINTS
TCL: Setting parameter alchLambda2 to 0.8999999999999999
Info: NONBONDED TABLE R-SQUARED SPACING: 0.0625
Info: NONBONDED TABLE SIZE: 705 POINTS
TCL: Running for 1500000 steps
ETITLE: TS BOND ANGLE DIHED IMPRP ELECT VDW BOUNDARY MISC KINETIC TOTAL TEMP POTENTIAL TOTALAVG TEMPAVG PRESSURE GPRESSURE VOLUME PRESSAVG GPRESSAVG
ENERGY: 0 1.7716 6.9541 2.0104 0.0000 -10618.3701 1422.6705 0.0000 0.0000 1739.2614 -7445.7021 296.0880 -9184.9635 -7445.7021 296.0880 -233.5176 -151.8122 30915.5506 -233.5176 -151.8122
ENERGY: 300000 1.7726 7.5487 2.3200 0.0000 -10597.1989 1392.9795 0.0000 0.0000 1742.6192 -7449.9589 296.6596 -9192.5782 -7459.2513 299.9223 -187.6423 -174.7142 30579.4428 -229.1201 -190.6379
ENERGY: 600000 1.0051 9.7663 2.2557 0.0000 -10691.9886 1434.1809 0.0000 0.0000 1731.5550 -7513.2256 294.7761 -9244.7806 -7466.2669 297.9312 -167.7471 -81.7367 30730.1964 -255.8164 -210.0524
ENERGY: 900000 2.3468 6.1500 2.0283 0.0000 -10856.0919 1479.0533 0.0000 0.0000 1771.2544 -7595.2592 301.5344 -9366.5135 -7488.9818 299.7432 -130.8317 -79.9661 30517.7696 -152.0486 -92.0602
ENERGY: 1200000 4.7086 6.5336 3.1636 0.0000 -10582.2830 1380.1456 0.0000 0.0000 1777.6307 -7410.1010 302.6199 -9187.7317 -7485.3648 300.5057 -573.7933 -542.6360 30883.6426 -272.8303 -208.7934
ENERGY: 1500000 1.2342 11.3133 2.6846 0.0000 -10577.0283 1405.9011 0.0000 0.0000 1754.4276 -7401.4674 298.6699 -9155.8950 -7473.6351 300.3415 -140.9449 -84.0535 30598.1338 -196.3671 -134.3698
TCL: Running FEP window   3: Lambda1 0.8999999999999999 Lambda2 0.8499999999999999 [dLambda -0.050000000000000044]
TCL: Setting parameter firsttimestep to 0
TCL: Setting parameter alchLambda to 0.8999999999999999
Info: NONBONDED TABLE R-SQUARED SPACING: 0.0625
Info: NONBONDED TABLE SIZE: 705 POINTS
TCL: Setting parameter alchLambda2 to 0.8499999999999999
Info: NONBONDED TABLE R-SQUARED SPACING: 0.0625
Info: NONBONDED TABLE SIZE: 705 POINTS
TCL: Running for 1500000 steps
ETITLE: TS BOND ANGLE DIHED IMPRP ELECT VDW BOUNDARY MISC KINETIC TOTAL TEMP POTENTIAL TOTALAVG TEMPAVG PRESSURE GPRESSURE VOLUME PRESSAVG GPRESSAVG
ENERGY: 0 1.2342 11.3133 2.6846 0.0000 -10576.5232 1405.9761 0.0000 0.0000 1753.5334 -7401.7816 298.5176 -9155.3150 -7401.7816 298.5176 -173.2156 -93.0205 30598.1338 -173.2156 -93.0205
ENERGY: 300000 2.3423 8.1654 2.1056 0.0000 -10793.3642 1491.4929 0.0000 0.0000 1731.9236 -7557.3345 294.8388 -9289.2581 -7464.2948 294.8083 308.4823 391.9135 30220.2149 -244.2970 -167.4691
ENERGY: 600000 2.0750 8.4831 2.5499 0.0000 -10865.5380 1495.1505 0.0000 0.0000 1774.9068 -7582.3727 302.1562 -9357.2795 -7497.2194 297.2966 415.6145 362.6769 30006.4713 12.5710 64.6664
ENERGY: 900000 1.3488 10.6392 2.8399 0.0000 -10551.4804 1320.3156 0.0000 0.0000 1717.5081 -7498.8289 292.3848 -9216.3370 -7499.9556 296.7482 -714.6768 -639.0002 30414.2949 -141.9057 -83.6319
ENERGY: 1200000 2.0797 6.6965 2.7755 0.0000 -10662.7059 1410.7000 0.0000 0.0000 1762.2589 -7478.1952 300.0030 -9240.4541 -7495.2726 297.6110 -173.4962 -153.7106 30617.2173 -94.2945 -41.5098
ENERGY: 1500000 1.3182 8.0810 2.6943 0.0000 -10731.8330 1476.5248 0.0000 0.0000 1746.4549 -7496.7597 297.3126 -9243.2145 -7493.1281 297.7619 122.7685 122.1865 30690.7980 -78.9452 -24.4678
TCL: Running FEP window   4: Lambda1 0.8499999999999999 Lambda2 0.7999999999999998 [dLambda -0.050000000000000044]
TCL: Setting parameter firsttimestep to 0
TCL: Setting parameter alchLambda to 0.8499999999999999
Info: NONBONDED TABLE R-SQUARED SPACING: 0.0625
Info: NONBONDED TABLE SIZE: 705 POINTS
TCL: Setting parameter alchLambda2 to 0.7999999999999998
Info: NONBONDED TABLE R-SQUARED SPACING: 0.0625
Info: NONBONDED TABLE SIZE: 705 POINTS
TCL: Running for 1500000 steps
ETITLE: TS BOND ANGLE DIHED IMPRP ELECT VDW BOUNDARY MISC KINETIC TOTAL TEMP POTENTIAL TOTALAVG TEMPAVG PRESSURE GPRESSURE VOLUME PRESSAVG GPRESSAVG
ENERGY: 0 1.3182 8.0810 2.6943 0.0000 -10731.2103 1477.0712 0.0000 0.0000 1745.5706 -7496.4749 297.1621 -9242.0455 -7496.4749 297.1621 33.9311 121.0875 30690.7980 33.9311 121.0875
ENERGY: 300000 1.9667 5.4846 2.2139 0.0000 -10648.3779 1435.0165 0.0000 0.0000 1737.5535 -7466.1427 295.7973 -9203.6961 -7473.6051 300.1939 50.5935 98.8565 30525.0066 -265.7512 -195.5473
ENERGY: 600000 2.4721 6.4618 2.4686 0.0000 -10719.9042 1461.5187 0.0000 0.0000 1708.2683 -7538.7147 290.8118 -9246.9830 -7500.8269 297.6318 140.4327 108.2200 30631.2564 -212.1133 -146.4594
ENERGY: 900000 1.2285 6.8301 2.7141 0.0000 -10698.1202 1446.1069 0.0000 0.0000 1780.2036 -7461.0371 303.0579 -9241.2407 -7499.2589 298.7959 294.7172 371.1628 30147.2841 -126.7236 -66.9386
ENERGY: 1200000 0.5168 4.2400 3.0675 0.0000 -10547.9461 1345.0180 0.0000 0.0000 1772.2326 -7422.8713 301.7009 -9195.1038 -7491.4246 299.4004 -377.4413 -347.6897 30291.1270 -112.5186 -60.5044
ENERGY: 1500000 0.7071 6.4426 3.0186 0.0000 -10639.3334 1391.4437 0.0000 0.0000 1821.0776 -7416.6437 310.0162 -9237.7213 -7498.3568 299.3910 -515.8071 -466.3086 31075.5958 -132.7209 -81.7496
TCL: Running FEP window   5: Lambda1 0.7999999999999998 Lambda2 0.7499999999999998 [dLambda -0.050000000000000044]
TCL: Setting parameter firsttimestep to 0
TCL: Setting parameter alchLambda to 0.7999999999999998
Info: NONBONDED TABLE R-SQUARED SPACING: 0.0625
Info: NONBONDED TABLE SIZE: 705 POINTS
TCL: Setting parameter alchLambda2 to 0.7499999999999998
Info: NONBONDED TABLE R-SQUARED SPACING: 0.0625
Info: NONBONDED TABLE SIZE: 705 POINTS
TCL: Running for 1500000 steps
ETITLE: TS BOND ANGLE DIHED IMPRP ELECT VDW BOUNDARY MISC KINETIC TOTAL TEMP POTENTIAL TOTALAVG TEMPAVG PRESSURE GPRESSURE VOLUME PRESSAVG GPRESSAVG
ENERGY: 0 0.7071 6.4426 3.0186 0.0000 -10638.4039 1391.0844 0.0000 0.0000 1820.2120 -7416.9393 309.8688 -9237.1513 -7416.9393 309.8688 -553.4415 -477.9799 31075.5958 -553.4415 -477.9799
ENERGY: 300000 2.1296 6.1400 3.0387 0.0000 -10674.3197 1421.6061 0.0000 0.0000 1777.5272 -7463.8782 302.6023 -9241.4054 -7454.5945 304.3442 -25.5475 11.2873 30229.8624 -82.1877 -29.1611
ENERGY: 600000 3.8668 7.4181 1.9864 0.0000 -10819.6357 1460.1262 0.0000 0.0000 1752.3789 -7593.8593 298.3211 -9346.2382 -7478.4483 304.4088 129.1849 115.6985 29924.8040 -119.3899 -69.0479
ENERGY: 900000 0.9219 12.4763 2.1684 0.0000 -10781.4653 1518.8159 0.0000 0.0000 1738.0220 -7509.0608 295.8770 -9247.0828 -7479.2312 302.0888 735.8775 815.7039 30145.3099 -98.6137 -38.5118
ENERGY: 1200000 1.4925 7.9962 2.2361 0.0000 -10679.0132 1454.0506 0.0000 0.0000 1734.4504 -7478.7873 295.2690 -9213.2377 -7486.3014 301.3924 26.9558 118.0826 30597.0661 -25.4430 32.9784
ENERGY: 1500000 2.2720 6.8647 2.4042 0.0000 -10620.1173 1347.9050 0.0000 0.0000 1777.9233 -7482.7481 302.6697 -9260.6714 -7476.8409 301.8260 -1000.2270 -909.4198 30627.1188 -139.1409 -77.2456
TCL: Running FEP window   6: Lambda1 0.7499999999999998 Lambda2 0.6999999999999997 [dLambda -0.050000000000000044]
TCL: Setting parameter firsttimestep to 0
TCL: Setting parameter alchLambda to 0.7499999999999998
Info: NONBONDED TABLE R-SQUARED SPACING: 0.0625
Info: NONBONDED TABLE SIZE: 705 POINTS
TCL: Setting parameter alchLambda2 to 0.6999999999999997
Info: NONBONDED TABLE R-SQUARED SPACING: 0.0625
Info: NONBONDED TABLE SIZE: 705 POINTS
TCL: Running for 1500000 steps
ETITLE: TS BOND ANGLE DIHED IMPRP ELECT VDW BOUNDARY MISC KINETIC TOTAL TEMP POTENTIAL TOTALAVG TEMPAVG PRESSURE GPRESSURE VOLUME PRESSAVG GPRESSAVG
ENERGY: 0 2.2720 6.8647 2.4042 0.0000 -10618.8163 1347.3618 0.0000 0.0000 1777.0334 -7482.8802 302.5182 -9259.9136 -7482.8802 302.5182 -986.0401 -916.4635 30627.1188 -986.0401 -916.4635
ENERGY: 300000 2.3832 9.0567 2.1134 0.0000 -10632.1276 1447.7331 0.0000 0.0000 1767.8996 -7402.9416 300.9633 -9170.8412 -7448.9161 302.6477 2.1743 53.3381 30672.7804 -283.8865 -226.6199
ENERGY: 600000 1.3577 6.1625 2.2828 0.0000 -10703.1248 1448.5694 0.0000 0.0000 1762.0442 -7482.7083 299.9665 -9244.7524 -7458.1172 300.6090 128.7925 182.7990 30275.5429 -226.6335 -159.9771
ENERGY: 900000 2.1258 6.2986 2.7661 0.0000 -10731.1381 1420.0081 0.0000 0.0000 1764.1448 -7535.7946 300.3241 -9299.9394 -7468.7738 300.2956 -331.4243 -346.9701 30658.2967 -189.4985 -132.8649
ENERGY: 1200000 2.1371 7.9946 2.8278 0.0000 -10762.4544 1551.5146 0.0000 0.0000 1800.7617 -7397.2185 306.5577 -9197.9802 -7468.9420 300.2682 1029.2605 1058.3177 30470.9680 -201.8823 -145.9013
ENERGY: 1500000 1.6010 7.2970 1.9746 0.0000 -10556.2931 1358.5733 0.0000 0.0000 1788.1991 -7398.6482 304.4191 -9186.8472 -7477.4571 299.9362 -561.9361 -506.6273 30527.6800 -259.7152 -204.3521
TCL: Running FEP window   7: Lambda1 0.6999999999999997 Lambda2 0.6499999999999997 [dLambda -0.050000000000000044]
TCL: Setting parameter firsttimestep to 0
TCL: Setting parameter alchLambda to 0.6999999999999997
Info: NONBONDED TABLE R-SQUARED SPACING: 0.0625
Info: NONBONDED TABLE SIZE: 705 POINTS
TCL: Setting parameter alchLambda2 to 0.6499999999999997
Info: NONBONDED TABLE R-SQUARED SPACING: 0.0625
Info: NONBONDED TABLE SIZE: 705 POINTS
TCL: Running for 1500000 steps
ETITLE: TS BOND ANGLE DIHED IMPRP ELECT VDW BOUNDARY MISC KINETIC TOTAL TEMP POTENTIAL TOTALAVG TEMPAVG PRESSURE GPRESSURE VOLUME PRESSAVG GPRESSAVG
ENERGY: 0 1.6010 7.2970 1.9746 0.0000 -10555.4257 1358.5770 0.0000 0.0000 1787.3154 -7398.6606 304.2686 -9185.9761 -7398.6606 304.2686 -601.1964 -509.9047 30527.6800 -601.1964 -509.9047
ENERGY: 300000 1.3602 6.2863 2.1210 0.0000 -10948.9267 1546.5779 0.0000 0.0000 1752.7918 -7639.7896 298.3914 -9392.5813 -7499.5732 299.4515 692.8020 701.5703 29687.6903 9.8934 88.6608
ENERGY: 600000 1.9918 4.4760 2.7734 0.0000 -10613.7545 1371.7830 0.0000 0.0000 1821.5942 -7411.1361 310.1042 -9232.7302 -7467.3870 300.7658 -493.0118 -448.5433 30291.9998 -65.2237 8.8869
ENERGY: 900000 2.0994 9.5001 2.4638 0.0000 -10774.8061 1427.6746 0.0000 0.0000 1762.6131 -7570.4551 300.0633 -9333.0682 -7484.7629 299.5386 -219.3020 -191.2030 30251.8930 -11.0618 49.6402
ENERGY: 1200000 2.0550 8.1057 3.0005 0.0000 -10618.6724 1373.9216 0.0000 0.0000 1740.3791 -7491.2105 296.2783 -9231.5896 -7478.4785 299.6543 -800.5315 -682.0958 31039.5431 -87.4540 -29.2054
ENERGY: 1500000 0.9645 8.2464 3.1549 0.0000 -10655.0586 1444.5011 0.0000 0.0000 1720.0852 -7478.1065 292.8235 -9198.1917 -7479.6464 300.2669 113.8842 161.4727 30309.2709 -14.3912 40.7835
TCL: Running FEP window   8: Lambda1 0.6499999999999997 Lambda2 0.5999999999999996 [dLambda -0.050000000000000044]
TCL: Setting parameter firsttimestep to 0
TCL: Setting parameter alchLambda to 0.6499999999999997
Info: NONBONDED TABLE R-SQUARED SPACING: 0.0625
Info: NONBONDED TABLE SIZE: 705 POINTS
TCL: Setting parameter alchLambda2 to 0.5999999999999996
Info: NONBONDED TABLE R-SQUARED SPACING: 0.0625
Info: NONBONDED TABLE SIZE: 705 POINTS
TCL: Running for 1500000 steps
ETITLE: TS BOND ANGLE DIHED IMPRP ELECT VDW BOUNDARY MISC KINETIC TOTAL TEMP POTENTIAL TOTALAVG TEMPAVG PRESSURE GPRESSURE VOLUME PRESSAVG GPRESSAVG
ENERGY: 0 0.9645 8.2464 3.1549 0.0000 -10654.8746 1444.9795 0.0000 0.0000 1719.2534 -7478.2759 292.6819 -9197.5293 -7478.2759 292.6819 68.4237 162.0518 30309.2709 68.4237 162.0518
ENERGY: 300000 2.3365 4.9859 2.0284 0.0000 -10655.7599 1419.7574 0.0000 0.0000 1798.9219 -7427.7297 306.2445 -9226.6516 -7468.4077 298.2855 -322.1430 -243.6647 30626.0303 -114.3024 -43.9246
ENERGY: 600000 1.9246 8.3147 2.2342 0.0000 -10810.9728 1495.9981 0.0000 0.0000 1787.5388 -7514.9624 304.3066 -9302.5013 -7488.5782 297.8812 239.5626 221.2101 30397.1828 -242.0737 -190.1717
ENERGY: 900000 1.5565 8.1449 2.8286 0.0000 -10616.2411 1358.1416 0.0000 0.0000 1766.8715 -7478.6979 300.7883 -9245.5695 -7502.4841 297.2463 -830.2920 -731.2311 30661.5174 -174.6986 -107.2322
ENERGY: 1200000 2.4286 11.2683 2.9138 0.0000 -10681.7473 1440.1399 0.0000 0.0000 1741.8289 -7483.1678 296.5251 -9224.9967 -7496.7709 296.9824 -333.5894 -242.1642 30746.3936 -22.8209 46.8601
ENERGY: 1500000 1.2565 8.8683 2.7702 0.0000 -10723.2288 1431.6599 0.0000 0.0000 1717.5139 -7561.1599 292.3858 -9278.6739 -7498.3827 296.9783 -97.2849 23.9196 30267.8528 8.5876 78.6797
TCL: Running FEP window   9: Lambda1 0.5999999999999996 Lambda2 0.5499999999999996 [dLambda -0.050000000000000044]
TCL: Setting parameter firsttimestep to 0
TCL: Setting parameter alchLambda to 0.5999999999999996
Info: NONBONDED TABLE R-SQUARED SPACING: 0.0625
Info: NONBONDED TABLE SIZE: 705 POINTS
TCL: Setting parameter alchLambda2 to 0.5499999999999996
Info: NONBONDED TABLE R-SQUARED SPACING: 0.0625
Info: NONBONDED TABLE SIZE: 705 POINTS
TCL: Running for 1500000 steps
ETITLE: TS BOND ANGLE DIHED IMPRP ELECT VDW BOUNDARY MISC KINETIC TOTAL TEMP POTENTIAL TOTALAVG TEMPAVG PRESSURE GPRESSURE VOLUME PRESSAVG GPRESSAVG
ENERGY: 0 1.2565 8.8683 2.7702 0.0000 -10723.1468 1432.2255 0.0000 0.0000 1716.6559 -7561.3703 292.2397 -9278.0262 -7561.3703 292.2397 -75.9794 22.6625 30267.8528 -75.9794 22.6625
ENERGY: 300000 1.3837 7.6356 3.3950 0.0000 -10689.2254 1409.1600 0.0000 0.0000 1803.2405 -7464.4106 306.9797 -9267.6511 -7474.5759 299.0932 -375.0773 -223.7092 30376.1690 -53.3532 47.4125
ENERGY: 600000 1.2039 8.9958 2.5126 0.0000 -10741.5554 1453.3766 0.0000 0.0000 1748.0565 -7527.4100 297.5853 -9275.4665 -7477.7891 298.6789 -133.0713 -36.0619 30489.4166 -161.9699 -65.0392
ENERGY: 900000 3.6668 5.3331 3.6599 0.0000 -10844.0429 1523.6955 0.0000 0.0000 1775.1660 -7532.5216 302.2003 -9307.6876 -7495.0705 298.9539 593.2689 630.8022 29900.0290 3.8605 86.7791
ENERGY: 1200000 2.9893 8.4021 1.9218 0.0000 -10589.9640 1397.8553 0.0000 0.0000 1782.8699 -7395.9256 303.5118 -9178.7955 -7488.7125 298.9647 -140.5697 -71.3651 30228.8961 -76.8916 0.0952
ENERGY: 1500000 1.9378 11.0889 2.6977 0.0000 -10672.7709 1428.8149 0.0000 0.0000 1705.9978 -7522.2337 290.4253 -9228.2315 -7484.4128 298.7777 -70.0809 1.2590 30128.7288 -102.2699 -28.3692
TCL: Running FEP window  10: Lambda1 0.5499999999999996 Lambda2 0.4999999999999996 [dLambda -0.04999999999999999]
TCL: Setting parameter firsttimestep to 0
TCL: Setting parameter alchLambda to 0.5499999999999996
Info: NONBONDED TABLE R-SQUARED SPACING: 0.0625
Info: NONBONDED TABLE SIZE: 705 POINTS
TCL: Setting parameter alchLambda2 to 0.4999999999999996
Info: NONBONDED TABLE R-SQUARED SPACING: 0.0625
Info: NONBONDED TABLE SIZE: 705 POINTS
TCL: Running for 1500000 steps
ETITLE: TS BOND ANGLE DIHED IMPRP ELECT VDW BOUNDARY MISC KINETIC TOTAL TEMP POTENTIAL TOTALAVG TEMPAVG PRESSURE GPRESSURE VOLUME PRESSAVG GPRESSAVG
ENERGY: 0 1.9378 11.0889 2.6977 0.0000 -10673.3826 1429.1016 0.0000 0.0000 1705.1308 -7523.4258 290.2777 -9228.5565 -7523.4258 290.2777 -95.9233 -2.2712 30128.7288 -95.9233 -2.2712
ENERGY: 300000 1.9310 5.5871 3.2883 0.0000 -10697.6577 1452.1243 0.0000 0.0000 1754.0013 -7480.7257 298.5973 -9234.7270 -7486.1946 296.5129 258.6565 293.6643 29989.8324 -83.8356 -37.7223
ENERGY: 600000 0.7317 7.3616 2.4399 0.0000 -10666.0460 1414.6527 0.0000 0.0000 1783.8426 -7457.0174 303.6774 -9240.8600 -7490.2726 297.6280 -364.5245 -310.1939 30705.1674 -81.9833 -30.3413
ENERGY: 900000 2.1881 5.3023 2.5293 0.0000 -10602.4127 1396.3044 0.0000 0.0000 1690.3044 -7505.7843 287.7537 -9196.0886 -7488.2411 296.9494 -322.6062 -259.4300 30354.6486 -42.1668 11.8409
ENERGY: 1200000 1.3042 8.9476 3.9975 0.0000 -10710.6005 1507.8448 0.0000 0.0000 1761.9314 -7426.5749 299.9473 -9188.5063 -7481.6487 296.7602 824.7649 811.6258 30229.1409 84.1648 138.3897
ENERGY: 1500000 1.7924 9.8410 2.5462 0.0000 -10582.9039 1354.3419 0.0000 0.0000 1756.7316 -7457.6508 299.0621 -9214.3824 -7471.6454 296.7489 -665.3569 -538.7265 30456.7448 -36.8942 22.7811
TCL: Running FEP window  11: Lambda1 0.4999999999999996 Lambda2 0.4499999999999996 [dLambda -0.04999999999999999]
TCL: Setting parameter firsttimestep to 0
TCL: Setting parameter alchLambda to 0.4999999999999996
Info: NONBONDED TABLE R-SQUARED SPACING: 0.0625
Info: NONBONDED TABLE SIZE: 705 POINTS
TCL: Setting parameter alchLambda2 to 0.4499999999999996
Info: NONBONDED TABLE R-SQUARED SPACING: 0.0625
Info: NONBONDED TABLE SIZE: 705 POINTS
TCL: Running for 1500000 steps
ETITLE: TS BOND ANGLE DIHED IMPRP ELECT VDW BOUNDARY MISC KINETIC TOTAL TEMP POTENTIAL TOTALAVG TEMPAVG PRESSURE GPRESSURE VOLUME PRESSAVG GPRESSAVG
ENERGY: 0 1.7924 9.8410 2.5462 0.0000 -10582.9947 1354.6023 0.0000 0.0000 1755.8223 -7458.3905 298.9073 -9214.2128 -7458.3905 298.9073 -635.4930 -541.3884 30456.7448 -635.4930 -541.3884
ENERGY: 300000 1.3795 11.4098 2.8342 0.0000 -10544.4812 1321.3436 0.0000 0.0000 1762.1042 -7445.4099 299.9767 -9207.5141 -7459.6205 300.4922 -860.1519 -825.7494 30776.6219 -680.6480 -612.2152
ENERGY: 600000 3.1000 4.9224 2.2744 0.0000 -10656.1078 1430.9201 0.0000 0.0000 1722.8507 -7492.0402 293.2943 -9214.8908 -7463.7583 299.6470 -230.1479 -137.7607 30592.1213 -522.2167 -451.8151
ENERGY: 900000 2.3368 9.9120 2.2271 0.0000 -10685.7010 1430.0823 0.0000 0.0000 1825.2073 -7415.9355 310.7192 -9241.1428 -7449.5768 302.2521 -342.7068 -254.0848 30735.8338 -462.3769 -391.5414
ENERGY: 1200000 2.0353 5.5170 2.2462 0.0000 -10567.8760 1346.8000 0.0000 0.0000 1785.6805 -7425.5970 303.9903 -9211.2775 -7456.9405 301.3983 -925.7274 -818.3955 30752.4350 -398.3645 -324.2558
ENERGY: 1500000 3.5194 9.0066 2.4021 0.0000 -10527.7029 1351.1035 0.0000 0.0000 1829.5109 -7332.1604 311.4519 -9161.6713 -7457.6708 300.7275 -405.7112 -330.9899 30354.8438 -369.7263 -293.3659
TCL: Running FEP window  12: Lambda1 0.4499999999999996 Lambda2 0.39999999999999963 [dLambda -0.04999999999999999]
TCL: Setting parameter firsttimestep to 0
TCL: Setting parameter alchLambda to 0.4499999999999996
Info: NONBONDED TABLE R-SQUARED SPACING: 0.0625
Info: NONBONDED TABLE SIZE: 705 POINTS
TCL: Setting parameter alchLambda2 to 0.39999999999999963
Info: NONBONDED TABLE R-SQUARED SPACING: 0.0625
Info: NONBONDED TABLE SIZE: 705 POINTS
TCL: Running for 1500000 steps
ETITLE: TS BOND ANGLE DIHED IMPRP ELECT VDW BOUNDARY MISC KINETIC TOTAL TEMP POTENTIAL TOTALAVG TEMPAVG PRESSURE GPRESSURE VOLUME PRESSAVG GPRESSAVG
ENERGY: 0 3.5194 9.0066 2.4021 0.0000 -10527.7020 1350.6718 0.0000 0.0000 1828.5959 -7333.5062 311.2961 -9162.1021 -7333.5062 311.2961 -419.2347 -343.7112 30354.8438 -419.2347 -343.7112
ENERGY: 300000 1.6056 6.7784 2.0354 0.0000 -10528.1174 1345.2933 0.0000 0.0000 1805.2340 -7367.1706 307.3190 -9172.4046 -7412.0871 302.7456 -462.4879 -403.0733 30163.1790 -119.3399 -57.5037
ENERGY: 600000 2.6233 6.1477 2.5905 0.0000 -10629.2194 1376.2771 0.0000 0.0000 1738.3279 -7503.2529 295.9291 -9241.5808 -7451.3209 302.9937 -435.5256 -495.5871 30253.7369 -112.6291 -64.9161
ENERGY: 900000 2.4777 8.3322 2.9528 0.0000 -10816.4660 1537.5424 0.0000 0.0000 1766.0382 -7499.1226 300.6464 -9265.1608 -7458.3616 303.0646 532.6973 601.5523 30440.8242 -82.8145 -30.5390
ENERGY: 1200000 1.5792 8.3983 3.0534 0.0000 -10738.5114 1451.3375 0.0000 0.0000 1651.7974 -7622.3455 281.1983 -9274.1430 -7474.6940 301.7163 -23.2523 39.9962 30015.3377 -141.4501 -85.5661
ENERGY: 1500000 0.9801 11.4043 3.1625 0.0000 -10571.7025 1346.8386 0.0000 0.0000 1766.2843 -7443.0327 300.6883 -9209.3170 -7473.3927 300.9834 -658.3251 -621.4407 30328.3590 -175.3785 -123.1657
TCL: Running FEP window  13: Lambda1 0.39999999999999963 Lambda2 0.34999999999999964 [dLambda -0.04999999999999999]
TCL: Setting parameter firsttimestep to 0
TCL: Setting parameter alchLambda to 0.39999999999999963
Info: NONBONDED TABLE R-SQUARED SPACING: 0.0625
Info: NONBONDED TABLE SIZE: 705 POINTS
TCL: Setting parameter alchLambda2 to 0.34999999999999964
Info: NONBONDED TABLE R-SQUARED SPACING: 0.0625
Info: NONBONDED TABLE SIZE: 705 POINTS
TCL: Running for 1500000 steps
ETITLE: TS BOND ANGLE DIHED IMPRP ELECT VDW BOUNDARY MISC KINETIC TOTAL TEMP POTENTIAL TOTALAVG TEMPAVG PRESSURE GPRESSURE VOLUME PRESSAVG GPRESSAVG
ENERGY: 0 0.9801 11.4043 3.1625 0.0000 -10571.7029 1347.3057 0.0000 0.0000 1765.4295 -7443.4207 300.5428 -9208.8503 -7443.4207 300.5428 -695.1115 -623.3022 30328.3590 -695.1115 -623.3022
ENERGY: 300000 1.8209 4.9822 3.0476 0.0000 -10653.5908 1414.9645 0.0000 0.0000 1815.7977 -7412.9779 309.1174 -9228.7756 -7429.2508 305.1698 -358.8361 -301.2024 30756.2864 -297.3368 -223.3406
ENERGY: 600000 1.4505 10.1418 1.9194 0.0000 -10779.8710 1546.0384 0.0000 0.0000 1766.5015 -7453.8194 300.7253 -9220.3208 -7422.9791 305.1752 722.6508 794.6220 30446.6137 32.5787 93.8007
ENERGY: 900000 2.8773 7.0931 3.2494 0.0000 -10786.1741 1515.8332 0.0000 0.0000 1773.1112 -7484.0099 301.8505 -9257.1211 -7438.0461 303.1556 578.2477 618.4683 30251.3698 39.5810 109.9263
ENERGY: 1200000 0.2823 7.5232 2.8131 0.0000 -10534.6180 1321.6603 0.0000 0.0000 1748.7941 -7453.5450 297.7108 -9202.3392 -7442.5596 302.7737 -871.3842 -824.6334 30616.4776 -74.9857 -10.1533
ENERGY: 1500000 2.7000 4.9924 3.1521 0.0000 -10754.9698 1477.5030 0.0000 0.0000 1804.2586 -7462.3637 307.1530 -9266.6223 -7442.3940 302.7432 248.0389 290.5657 30163.3379 -74.3955 -10.3162
TCL: Running FEP window  14: Lambda1 0.34999999999999964 Lambda2 0.29999999999999966 [dLambda -0.04999999999999999]
TCL: Setting parameter firsttimestep to 0
TCL: Setting parameter alchLambda to 0.34999999999999964
Info: NONBONDED TABLE R-SQUARED SPACING: 0.0625
Info: NONBONDED TABLE SIZE: 705 POINTS
TCL: Setting parameter alchLambda2 to 0.29999999999999966
Info: NONBONDED TABLE R-SQUARED SPACING: 0.0625
Info: NONBONDED TABLE SIZE: 705 POINTS
TCL: Running for 1500000 steps
ETITLE: TS BOND ANGLE DIHED IMPRP ELECT VDW BOUNDARY MISC KINETIC TOTAL TEMP POTENTIAL TOTALAVG TEMPAVG PRESSURE GPRESSURE VOLUME PRESSAVG GPRESSAVG
ENERGY: 0 2.7000 4.9924 3.1521 0.0000 -10754.9698 1477.6277 0.0000 0.0000 1803.3761 -7463.1215 307.0028 -9266.4976 -7463.1215 307.0028 206.4731 286.3662 30163.3379 206.4731 286.3662
ENERGY: 300000 1.2160 6.6303 2.9467 0.0000 -10693.7255 1448.6115 0.0000 0.0000 1786.7997 -7447.5213 304.1808 -9234.3210 -7488.9380 301.1197 188.1758 275.7596 30091.1844 108.3146 199.3365
ENERGY: 600000 2.4703 5.2101 2.4722 0.0000 -10573.1650 1363.5728 0.0000 0.0000 1808.6238 -7390.8158 307.8961 -9199.4396 -7474.9936 301.5203 -656.5694 -578.3509 30688.7619 -143.0375 -59.2690
ENERGY: 900000 0.7258 9.7713 2.7875 0.0000 -10702.3410 1440.1983 0.0000 0.0000 1807.2923 -7441.5658 307.6694 -9248.8581 -7478.7164 301.4496 -135.0546 -55.3593 30196.5291 -188.9333 -119.6306
ENERGY: 1200000 0.4501 10.1589 2.5574 0.0000 -10721.1751 1468.1241 0.0000 0.0000 1737.1739 -7502.7107 295.7326 -9239.8847 -7486.4176 301.1642 229.0399 291.9186 30242.0054 -155.9790 -85.6028
ENERGY: 1500000 2.6873 8.3413 3.5225 0.0000 -10614.0744 1439.5407 0.0000 0.0000 1763.4530 -7396.5295 300.2063 -9159.9825 -7484.1353 300.2630 -39.7155 37.9477 30650.2496 -201.4485 -128.6585
TCL: Running FEP window  15: Lambda1 0.29999999999999966 Lambda2 0.24999999999999967 [dLambda -0.04999999999999999]
TCL: Setting parameter firsttimestep to 0
TCL: Setting parameter alchLambda to 0.29999999999999966
Info: NONBONDED TABLE R-SQUARED SPACING: 0.0625
Info: NONBONDED TABLE SIZE: 705 POINTS
TCL: Setting parameter alchLambda2 to 0.24999999999999967
Info: NONBONDED TABLE R-SQUARED SPACING: 0.0625
Info: NONBONDED TABLE SIZE: 705 POINTS
TCL: Running for 1500000 steps
ETITLE: TS BOND ANGLE DIHED IMPRP ELECT VDW BOUNDARY MISC KINETIC TOTAL TEMP POTENTIAL TOTALAVG TEMPAVG PRESSURE GPRESSURE VOLUME PRESSAVG GPRESSAVG
ENERGY: 0 2.6873 8.3413 3.5225 0.0000 -10614.0748 1439.4093 0.0000 0.0000 1762.5749 -7397.5393 300.0568 -9160.1143 -7397.5393 300.0568 -56.3639 33.5926 30650.2496 -56.3639 33.5926
ENERGY: 300000 2.3610 5.1117 2.2653 0.0000 -10688.4963 1434.7434 0.0000 0.0000 1752.8331 -7491.1818 298.3984 -9244.0149 -7404.3895 300.1063 -209.4534 -178.4132 30515.9636 30.9388 69.7356
ENERGY: 600000 3.2484 10.3099 2.2365 0.0000 -10646.1768 1436.1561 0.0000 0.0000 1736.9225 -7457.3033 295.6898 -9194.2258 -7443.8830 299.2448 248.6932 299.7234 30320.5755 -56.1386 -13.5987
ENERGY: 900000 1.6406 16.9190 2.7621 0.0000 -10676.8183 1320.1890 0.0000 0.0000 1737.3667 -7597.9409 295.7655 -9335.3077 -7472.7452 298.5811 -1178.7011 -1022.5404 29920.3117 -274.5246 -215.9535
ENERGY: 1200000 2.5386 4.6054 1.9966 0.0000 -10757.5031 1506.6372 0.0000 0.0000 1791.4152 -7450.3099 304.9666 -9241.7252 -7469.4712 299.1575 558.8724 597.3062 30473.1191 -144.4240 -86.2788
ENERGY: 1500000 0.6647 7.8437 2.0114 0.0000 -10830.9642 1552.8215 0.0000 0.0000 1732.6874 -7534.9355 294.9689 -9267.6229 -7475.8503 298.9700 1031.4353 1130.8731 29581.2855 -77.5947 -13.9063
TCL: Running FEP window  16: Lambda1 0.24999999999999967 Lambda2 0.19999999999999968 [dLambda -0.04999999999999999]
TCL: Setting parameter firsttimestep to 0
TCL: Setting parameter alchLambda to 0.24999999999999967
Info: NONBONDED TABLE R-SQUARED SPACING: 0.0625
Info: NONBONDED TABLE SIZE: 705 POINTS
TCL: Setting parameter alchLambda2 to 0.19999999999999968
Info: NONBONDED TABLE R-SQUARED SPACING: 0.0625
Info: NONBONDED TABLE SIZE: 705 POINTS
TCL: Running for 1500000 steps
ETITLE: TS BOND ANGLE DIHED IMPRP ELECT VDW BOUNDARY MISC KINETIC TOTAL TEMP POTENTIAL TOTALAVG TEMPAVG PRESSURE GPRESSURE VOLUME PRESSAVG GPRESSAVG
ENERGY: 0 0.6647 7.8437 2.0114 0.0000 -10830.9649 1553.1491 0.0000 0.0000 1731.7998 -7535.4961 294.8178 -9267.2959 -7535.4961 294.8178 1053.9002 1131.8019 29581.2855 1053.9002 1131.8019
ENERGY: 300000 0.6953 6.8417 2.2036 0.0000 -10692.1972 1455.1405 0.0000 0.0000 1829.6841 -7397.6320 311.4814 -9227.3161 -7458.5954 300.8801 299.9679 328.5302 30211.5834 175.9268 214.2486
ENERGY: 600000 4.5882 5.4382 1.9870 0.0000 -10874.3870 1524.0078 0.0000 0.0000 1812.0553 -7526.3105 308.4803 -9338.3658 -7477.6028 300.5192 710.7749 780.6934 29726.6191 209.9774 257.1184
ENERGY: 900000 0.9391 10.9800 2.9388 0.0000 -10703.5056 1433.7104 0.0000 0.0000 1721.8177 -7533.1195 293.1184 -9254.9372 -7474.3684 300.8052 -211.7613 -90.9054 30155.6983 119.3547 179.0080
ENERGY: 1200000 2.1473 8.7883 2.5750 0.0000 -10701.3631 1457.7708 0.0000 0.0000 1822.8451 -7407.2366 310.3171 -9230.0817 -7472.1976 301.2547 148.5478 179.9943 30601.7829 115.2240 168.3802
ENERGY: 1500000 2.3959 6.8600 2.4775 0.0000 -10644.6863 1399.5328 0.0000 0.0000 1805.7934 -7427.6268 307.4143 -9233.4202 -7471.1085 301.6075 -156.5713 -62.0166 29844.4572 62.0358 118.5640
TCL: Running FEP window  17: Lambda1 0.19999999999999968 Lambda2 0.1499999999999997 [dLambda -0.04999999999999999]
TCL: Setting parameter firsttimestep to 0
TCL: Setting parameter alchLambda to 0.19999999999999968
Info: NONBONDED TABLE R-SQUARED SPACING: 0.0625
Info: NONBONDED TABLE SIZE: 705 POINTS
TCL: Setting parameter alchLambda2 to 0.1499999999999997
Info: NONBONDED TABLE R-SQUARED SPACING: 0.0625
Info: NONBONDED TABLE SIZE: 705 POINTS
TCL: Running for 1500000 steps
ETITLE: TS BOND ANGLE DIHED IMPRP ELECT VDW BOUNDARY MISC KINETIC TOTAL TEMP POTENTIAL TOTALAVG TEMPAVG PRESSURE GPRESSURE VOLUME PRESSAVG GPRESSAVG
ENERGY: 0 2.3959 6.8600 2.4775 0.0000 -10644.6848 1400.0065 0.0000 0.0000 1804.9049 -7428.0400 307.2630 -9232.9449 -7428.0400 307.2630 -149.0594 -62.1498 29844.4572 -149.0594 -62.1498
ENERGY: 300000 0.8051 5.9395 1.9144 0.0000 -10749.8488 1507.0283 0.0000 0.0000 1763.0302 -7471.1314 300.1344 -9234.1616 -7483.1321 300.1099 555.3454 594.4496 30212.8079 -7.8426 38.6068
ENERGY: 600000 0.6247 5.3544 2.0798 0.0000 -10703.8735 1374.6022 0.0000 0.0000 1721.5920 -7599.6204 293.0800 -9321.2124 -7508.7729 299.8322 -569.8533 -448.3406 29665.6558 14.5992 69.8657
ENERGY: 900000 0.5956 10.0878 2.3260 0.0000 -10711.4713 1417.3754 0.0000 0.0000 1807.8362 -7473.2503 307.7620 -9281.0866 -7513.7051 300.4125 -270.5429 -280.5004 30438.6627 39.4527 86.7987
ENERGY: 1200000 2.7806 8.9498 1.9785 0.0000 -10750.5909 1468.2556 0.0000 0.0000 1829.8540 -7438.7724 311.5103 -9268.6264 -7499.3271 300.2343 137.6975 215.0560 30160.3235 -82.7704 -30.6031
ENERGY: 1500000 1.1289 6.4920 2.3706 0.0000 -10600.1108 1401.7678 0.0000 0.0000 1717.3822 -7470.9693 292.3633 -9188.3516 -7495.0267 299.3450 -214.2463 -141.3979 30477.7136 -46.0575 6.3564
TCL: Running FEP window  18: Lambda1 0.1499999999999997 Lambda2 0.09999999999999969 [dLambda -0.05 ]
TCL: Setting parameter firsttimestep to 0
TCL: Setting parameter alchLambda to 0.1499999999999997
Info: NONBONDED TABLE R-SQUARED SPACING: 0.0625
Info: NONBONDED TABLE SIZE: 705 POINTS
TCL: Setting parameter alchLambda2 to 0.09999999999999969
Info: NONBONDED TABLE R-SQUARED SPACING: 0.0625
Info: NONBONDED TABLE SIZE: 705 POINTS
TCL: Running for 1500000 steps
ETITLE: TS BOND ANGLE DIHED IMPRP ELECT VDW BOUNDARY MISC KINETIC TOTAL TEMP POTENTIAL TOTALAVG TEMPAVG PRESSURE GPRESSURE VOLUME PRESSAVG GPRESSAVG
ENERGY: 0 1.1289 6.4920 2.3706 0.0000 -10600.1119 1401.9746 0.0000 0.0000 1716.4691 -7471.6768 292.2079 -9188.1458 -7471.6768 292.2079 -213.0960 -142.2563 30477.7136 -213.0960 -142.2563
ENERGY: 300000 1.6851 10.2270 2.2817 0.0000 -10629.1108 1428.6150 0.0000 0.0000 1730.2164 -7456.0856 294.5482 -9186.3020 -7448.8307 299.8505 -81.0184 -13.5682 30548.1552 -54.4583 -1.6065
ENERGY: 600000 2.0233 6.3656 2.1439 0.0000 -10708.4045 1499.1812 0.0000 0.0000 1752.3042 -7446.3862 298.3084 -9198.6905 -7452.6791 300.5725 436.3800 463.0317 30381.8968 37.3101 81.8034
ENERGY: 900000 0.6651 5.6936 2.1451 0.0000 -10658.2852 1406.0301 0.0000 0.0000 1773.6322 -7470.1190 301.9392 -9243.7512 -7454.8321 301.7028 -304.1714 -235.3513 30279.9128 -48.1111 3.2267
ENERGY: 1200000 3.0899 6.7301 4.5658 0.0000 -10615.2614 1371.4860 0.0000 0.0000 1754.0789 -7475.3106 298.6105 -9229.3895 -7462.4538 300.9426 -661.9824 -553.7205 30564.1413 -132.0929 -81.2590
ENERGY: 1500000 2.7438 5.4494 4.1847 0.0000 -10578.4165 1352.1899 0.0000 0.0000 1772.3691 -7441.4797 301.7242 -9213.8487 -7465.1045 300.8113 -683.4935 -664.3318 30421.3083 -214.7753 -159.9891
TCL: Running FEP window  19: Lambda1 0.09999999999999969 Lambda2 0.049999999999999684 [dLambda -0.05 ]
TCL: Setting parameter firsttimestep to 0
TCL: Setting parameter alchLambda to 0.09999999999999969
Info: NONBONDED TABLE R-SQUARED SPACING: 0.0625
Info: NONBONDED TABLE SIZE: 705 POINTS
TCL: Setting parameter alchLambda2 to 0.049999999999999684
Info: NONBONDED TABLE R-SQUARED SPACING: 0.0625
Info: NONBONDED TABLE SIZE: 705 POINTS
TCL: Running for 1500000 steps
ETITLE: TS BOND ANGLE DIHED IMPRP ELECT VDW BOUNDARY MISC KINETIC TOTAL TEMP POTENTIAL TOTALAVG TEMPAVG PRESSURE GPRESSURE VOLUME PRESSAVG GPRESSAVG
ENERGY: 0 2.7438 5.4494 4.1847 0.0000 -10578.4164 1351.9001 0.0000 0.0000 1771.4966 -7442.6418 301.5757 -9214.1384 -7442.6418 301.5757 -741.7503 -669.0759 30421.3083 -741.7503 -669.0759
ENERGY: 300000 2.2350 9.0088 2.7822 0.0000 -10697.5578 1472.5307 0.0000 0.0000 1785.5065 -7425.4946 303.9607 -9211.0011 -7446.1100 301.7530 204.6365 258.7836 30287.0002 -1.9511 42.6523
ENERGY: 600000 1.4246 5.3166 2.2716 0.0000 -10834.7781 1561.1887 0.0000 0.0000 1787.2812 -7477.2955 304.2628 -9264.5767 -7479.3660 298.8643 883.8127 869.1163 30099.0818 154.1575 204.0671
ENERGY: 900000 2.3422 4.0031 2.7822 0.0000 -10801.5787 1513.1541 0.0000 0.0000 1744.2727 -7535.0245 296.9411 -9279.2971 -7489.4406 298.9356 304.6477 329.5163 30269.5997 28.6705 86.3905
ENERGY: 1200000 2.0296 6.5008 2.5169 0.0000 -10703.3557 1461.4540 0.0000 0.0000 1753.8810 -7476.9734 298.5768 -9230.8544 -7481.5691 300.0767 27.6455 120.5502 30640.1692 20.0285 82.1819
ENERGY: 1500000 1.5477 6.4849 2.5838 0.0000 -10674.4482 1447.8019 0.0000 0.0000 1699.4739 -7516.5559 289.3147 -9216.0298 -7483.2742 299.1485 203.1004 289.6280 30035.6130 36.2765 95.1539
TCL: Running FEP window  20: Lambda1 0.049999999999999684 Lambda2 0.0    [dLambda -0.049999999999999684]
TCL: Setting parameter firsttimestep to 0
TCL: Setting parameter alchLambda to 0.049999999999999684
Info: NONBONDED TABLE R-SQUARED SPACING: 0.0625
Info: NONBONDED TABLE SIZE: 705 POINTS
TCL: Setting parameter alchLambda2 to 0.0
Info: NONBONDED TABLE R-SQUARED SPACING: 0.0625
Info: NONBONDED TABLE SIZE: 705 POINTS
TCL: Running for 1500000 steps
ETITLE: TS BOND ANGLE DIHED IMPRP ELECT VDW BOUNDARY MISC KINETIC TOTAL TEMP POTENTIAL TOTALAVG TEMPAVG PRESSURE GPRESSURE VOLUME PRESSAVG GPRESSAVG
ENERGY: 0 1.5477 6.4849 2.5838 0.0000 -10674.4476 1447.8079 0.0000 0.0000 1698.5802 -7517.4431 289.1625 -9216.0233 -7517.4431 289.1625 197.4316 287.6971 30035.6130 197.4316 287.6971
ENERGY: 300000 1.2749 6.8804 2.1205 0.0000 -10677.4048 1459.2695 0.0000 0.0000 1776.1821 -7431.6774 302.3733 -9207.8596 -7446.0242 300.7862 -9.4059 65.1972 30573.0007 266.8289 347.4660
ENERGY: 600000 4.1463 4.0561 2.3481 0.0000 -10767.2280 1501.5531 0.0000 0.0000 1711.8128 -7543.3116 291.4152 -9255.1243 -7487.7686 298.6784 194.9051 270.2128 30418.4120 238.5016 320.1763
ENERGY: 900000 2.0995 4.4227 2.2920 0.0000 -10662.8534 1378.2190 0.0000 0.0000 1792.1818 -7483.6383 305.0971 -9275.8201 -7493.3562 299.5524 -655.0565 -586.1009 30301.5537 39.2939 112.3933
ENERGY: 1200000 0.9773 4.7680 2.7802 0.0000 -10755.4362 1479.1808 0.0000 0.0000 1743.4971 -7524.2328 296.8091 -9267.7299 -7482.0113 299.5939 189.2574 241.4366 30282.7669 -24.2023 42.9290
ENERGY: 1500000 3.4995 9.3118 2.2621 0.0000 -10774.9802 1434.0729 0.0000 0.0000 1757.4501 -7568.3838 299.1844 -9325.8339 -7487.2183 299.5802 -396.3685 -358.0495 30124.1667 -46.2952 16.9707
TCL: Exiting due to exit command.
