Info: SIMULATION PARAMETERS:
Info: TIMESTEP               2
Info: NUMBER OF STEPS        0
Info: STEPS PER CYCLE        10
Info: PERIODIC CELL BASIS 1  30.8695 0 0
Info: PERIODIC CELL BASIS 2  0 31.0961 0
Info: PERIODIC CELL BASIS 3  0 0 31.4285
Info: PERIODIC CELL CENTER   0 0 0
Info: WRAPPING WATERS AROUND PERIODIC BOUNDARIES ON OUTPUT.
Info: WRAPPING ALL CLUSTERS AROUND PERIODIC BOUNDARIES ON OUTPUT.
Info: FIRST LDB TIMESTEP     50
Info: LAST LDB TIMESTEP     -1
Info: HOM BACKGROUND SCALING 1
Info: PME BACKGROUND SCALING 1
Info: MIN ATOMS PER PATCH    40
Info: EMPTY PATCH LOAD       40 ATOMS
Info: VELOCITY FILE          mobley_9029594_equil.vel
Info: CENTER OF MASS MOVING INITIALLY? NO
Info: DIELECTRIC             1
Info: EXCLUDE                SCALED ONE-FOUR
Info: 1-4 ELECTROSTATICS SCALED BY 0.833333
Info: MODIFIED 1-4 VDW PARAMETERS WILL BE USED
Info: DCD FILENAME           mobley_9029594_prod.dcd
Info: DCD FREQUENCY          100000
Info: DCD FIRST STEP         100000
Info: DCD FILE WILL CONTAIN UNIT CELL DATA
Info: XST FILENAME           mobley_9029594_prod.xst
Info: XST FREQUENCY          100000
Info: NO VELOCITY DCD OUTPUT
Info: NO FORCE DCD OUTPUT
Info: OUTPUT FILENAME        mobley_9029594_prod
Info: BINARY OUTPUT FILES WILL BE USED
Info: RESTART FILENAME       mobley_9029594_prod.restart
Info: RESTART FREQUENCY      100000
Info: BINARY RESTART FILES WILL BE USED
Info: CUTOFF                 9
Info: PAIRLIST DISTANCE      11
Info: PAIRLIST SHRINK RATE   0.01
Info: PAIRLIST GROW RATE     0.01
Info: PAIRLIST TRIGGER       0.3
Info: PAIRLISTS PER CYCLE    2
Info: PAIRLISTS ENABLED
Info: MARGIN                 2
Info: HYDROGEN GROUP CUTOFF  2.5
Info: PATCH DIMENSION        15.5
Info: ENERGY OUTPUT STEPS    100000
Info: ENERGY EVALUATION STEPS    100000
Info: OUTPUT ENERGY PRECISION 4
Info: CROSSTERM ENERGY INCLUDED IN DIHEDRAL
Info: TIMING OUTPUT STEPS    1000000
Info: PRESSURE OUTPUT STEPS  100000
Info: ALCHEMICAL FEP ON
Info: FEP CURRENT LAMBDA VALUE     0
Info: FEP COMPARISON LAMBDA VALUE  0.05
Info: FEP INTRA-ALCHEMICAL NON-BONDED INTERACTIONS WILL BE RETAINED
Info: FEP INTRA-ALCHEMICAL BONDED INTERACTIONS WILL BE RETAINED
Info: FEP VDW SHIFTING COEFFICIENT 5
Info: FEP ELEC. ACTIVE FOR ANNIHILATED PARTICLES BETWEEN LAMBDA = 0 AND LAMBDA = 0.5
Info: FEP ELEC. ACTIVE FOR EXNIHILATED PARTICLES BETWEEN LAMBDA = 0.5 AND LAMBDA = 1
Info: FEP VDW ACTIVE FOR ANNIHILATED PARTICLES BETWEEN LAMBDA = 0 AND LAMBDA = 1
Info: FEP VDW ACTIVE FOR EXNIHILATED PARTICLES BETWEEN LAMBDA = 0 AND LAMBDA = 1
Info: FEP BOND ACTIVE FOR ANNIHILATED PARTICLES BETWEEN LAMBDA = 1 AND LAMBDA = 1
Info: FEP BOND ACTIVE FOR EXNIHILATED PARTICLES BETWEEN LAMBDA = 0 AND LAMBDA = 0
Info: LANGEVIN DYNAMICS ACTIVE
Info: LANGEVIN TEMPERATURE   300
Info: LANGEVIN USING BBK INTEGRATOR
Info: LANGEVIN DAMPING COEFFICIENT IS 1 INVERSE PS
Info: LANGEVIN DYNAMICS APPLIED TO HYDROGENS
Info: LANGEVIN PISTON PRESSURE CONTROL ACTIVE
Info:        TARGET PRESSURE IS 1.01325 BAR
Info:     OSCILLATION PERIOD IS 50 FS
Info:             DECAY TIME IS 25 FS
Info:     PISTON TEMPERATURE IS 300 K
Info:       PRESSURE CONTROL IS GROUP-BASED
Info:    INITIAL STRAIN RATE IS 0.000256539 0.000256539 0.000256539
Info:       CELL FLUCTUATION IS ISOTROPIC
Info: PARTICLE MESH EWALD (PME) ACTIVE
Info: PME TOLERANCE               1e-06
Info: PME EWALD COEFFICIENT       0.348832
Info: PME INTERPOLATION ORDER     4
Info: PME GRID DIMENSIONS         32 32 32
Info: PME MAXIMUM GRID SPACING    1
Info: PME CALCULATION WILL BE PERFORMED ON GPU
Info: FULL ELECTROSTATIC EVALUATION FREQUENCY      2
Info: USING VERLET I (r-RESPA) MTS SCHEME.
Info: C1 SPLITTING OF LONG RANGE ELECTROSTATICS
Info: PLACING ATOMS IN PATCHES BY HYDROGEN GROUPS
Info: RIGID BONDS TO HYDROGEN : ALL
Info:         ERROR TOLERANCE : 1e-08
Info:          MAX ITERATIONS : 100
Info: RIGID WATER USING SETTLE ALGORITHM
Info: RANDOM NUMBER SEED     1742471897
Info: USE HYDROGEN BONDS?    NO
Info: Using AMBER format force field!
Info: AMBER PARM FILE        mobley_9029594.prmtop
Info: COORDINATE PDB         mobley_9029594.pdb
Info: Exclusions will be read from PARM file!
Info: SCNB (VDW SCALING)     2
Info: USING ARITHMETIC MEAN TO COMBINE L-J SIGMA PARAMETERS
Info: BINARY COORDINATES     mobley_9029594_equil.coor
Info: SUMMARY OF PARAMETERS:
Info: 4 BONDS
Info: 2 ANGLES
Info:   2 HARMONIC
Info:   0 COSINE-BASED
Info: 0 DIHEDRAL
Info: 0 IMPROPER
Info: 0 CROSSTERM
Info: 0 VDW
Info: 15 VDW_PAIRS
Info: 0 NBTHOLE_PAIRS
Info: To read alchdata from file: mobley_9029594.pdb
Info: To read alchflag data from column: 5
Info: STRUCTURE SUMMARY:
Info: 2963 ATOMS
Info: 2962 BONDS
Info: 6 ANGLES
Info: 0 DIHEDRALS
Info: 0 IMPROPERS
Info: 0 CROSSTERMS
Info: 2968 EXCLUSIONS
Info: 2961 RIGID BONDS
Info: ALCH: 0 ATOMS TO DISAPPEAR IN FINAL STATE
Info: ALCH: 5 ATOMS TO APPEAR IN FINAL STATE
Info: 5928 DEGREES OF FREEDOM
Info: 988 HYDROGEN GROUPS
Info: 4 ATOMS IN LARGEST HYDROGEN GROUP
Info: 988 MIGRATION GROUPS
Info: 4 ATOMS IN LARGEST MIGRATION GROUP
Info: TOTAL MASS = 17797.8 amu
Info: TOTAL CHARGE = 7.45058e-09 e
Info: MASS DENSITY = 0.979638 g/cm^3
Info: ATOM DENSITY = 0.0982136 atoms/A^3
Info: ADDED 0 IMPLICIT EXCLUSIONS
Info: NONBONDED TABLE R-SQUARED SPACING: 0.0625
Info: NONBONDED TABLE SIZE: 705 POINTS
Info: REMOVING COM VELOCITY -0.0519339 0.10148 -0.0122691
Info: Use 3D box decompostion in PME FFT.
Info: Updated CUDA force table with 4096 elements.
Info: Updated CUDA LJ table with 5 x 5 elements.
Info: Found 8 unique exclusion lists needing 8 bytes
TCL: Running for 1500000 steps
ETITLE: TS BOND ANGLE DIHED IMPRP ELECT VDW BOUNDARY MISC KINETIC TOTAL TEMP POTENTIAL TOTALAVG TEMPAVG PRESSURE GPRESSURE VOLUME PRESSAVG GPRESSAVG
ENERGY: 0 0.0631 0.8785 0.0000 0.0000 -10819.0250 1452.6267 0.0000 0.0000 1809.3029 -7556.1538 307.1804 -9365.4568 -7556.1538 307.1804 -49.1255 25.9094 30168.9439 -49.1255 25.9094
ENERGY: 300000 0.7780 2.6124 0.0000 0.0000 -10833.6925 1429.9814 0.0000 0.0000 1728.3655 -7671.9552 293.4390 -9400.3207 -7556.5596 303.8262 -653.3166 -552.4336 30618.7465 -219.5316 -157.6701
ENERGY: 600000 0.1508 0.9855 0.0000 0.0000 -10737.0412 1469.9821 0.0000 0.0000 1764.2966 -7501.6262 299.5393 -9265.9228 -7561.5459 301.5434 208.7566 208.9790 30569.5961 36.9697 81.0098
ENERGY: 900000 0.0002 0.6468 0.0000 0.0000 -10836.8964 1513.5761 0.0000 0.0000 1766.9588 -7555.7145 299.9913 -9322.6733 -7566.2460 300.2334 291.5375 397.0830 30625.9466 8.9656 64.3114
ENERGY: 1200000 0.7899 1.8410 0.0000 0.0000 -10854.2261 1510.4905 0.0000 0.0000 1725.7672 -7615.3375 292.9978 -9341.1046 -7557.9605 301.5291 496.8202 532.7056 30028.5818 106.4487 160.6346
ENERGY: 1500000 0.6061 0.8359 0.0000 0.0000 -10857.5655 1440.9080 0.0000 0.0000 1784.1575 -7631.0581 302.9112 -9415.2155 -7561.6149 301.4817 -334.2587 -291.5317 30400.2973 142.0036 193.7091
TCL: Running FEP window   2: Lambda1 0.05   Lambda2 0.1    [dLambda 0.05  ]
TCL: Setting parameter firsttimestep to 0
TCL: Setting parameter alchLambda to 0.05
Info: NONBONDED TABLE R-SQUARED SPACING: 0.0625
Info: NONBONDED TABLE SIZE: 705 POINTS
TCL: Setting parameter alchLambda2 to 0.1
Info: NONBONDED TABLE R-SQUARED SPACING: 0.0625
Info: NONBONDED TABLE SIZE: 705 POINTS
TCL: Running for 1500000 steps
ETITLE: TS BOND ANGLE DIHED IMPRP ELECT VDW BOUNDARY MISC KINETIC TOTAL TEMP POTENTIAL TOTALAVG TEMPAVG PRESSURE GPRESSURE VOLUME PRESSAVG GPRESSAVG
ENERGY: 0 0.6061 0.8359 0.0000 0.0000 -10857.5653 1441.6802 0.0000 0.0000 1783.2696 -7631.1736 302.7605 -9414.4432 -7631.1736 302.7605 -362.4451 -286.9831 30400.2973 -362.4451 -286.9831
ENERGY: 300000 0.0324 1.5192 0.0000 0.0000 -10600.7184 1358.2617 0.0000 0.0000 1829.2106 -7411.6945 310.5603 -9240.9051 -7520.6244 304.5873 -561.8956 -425.2081 30432.7727 -22.8524 45.9640
ENERGY: 600000 0.3580 1.8590 0.0000 0.0000 -10918.2792 1519.4288 0.0000 0.0000 1789.5888 -7607.0446 303.8334 -9396.6334 -7549.8343 302.0238 647.3973 715.0667 29842.2807 -113.9981 -46.0369
ENERGY: 900000 0.9562 0.3952 0.0000 0.0000 -10571.6164 1317.4408 0.0000 0.0000 1759.1824 -7493.6419 298.6710 -9252.8243 -7568.9041 299.1561 -908.5754 -773.4737 30470.4979 -128.9857 -51.8653
ENERGY: 1200000 0.0499 1.7849 0.0000 0.0000 -10708.7590 1460.5695 0.0000 0.0000 1863.4976 -7382.8571 316.3815 -9246.3547 -7549.2411 300.6257 258.3585 244.9754 30865.1092 -39.3432 33.1334
ENERGY: 1500000 1.1870 2.3147 0.0000 0.0000 -10711.7872 1388.5565 0.0000 0.0000 1740.8136 -7578.9154 295.5524 -9319.7290 -7549.4366 300.3874 -543.7252 -463.7568 30638.0612 -36.7913 35.7829
TCL: Running FEP window   3: Lambda1 0.1    Lambda2 0.15000000000000002 [dLambda 0.05000000000000002]
TCL: Setting parameter firsttimestep to 0
TCL: Setting parameter alchLambda to 0.1
Info: NONBONDED TABLE R-SQUARED SPACING: 0.0625
Info: NONBONDED TABLE SIZE: 705 POINTS
TCL: Setting parameter alchLambda2 to 0.15000000000000002
Info: NONBONDED TABLE R-SQUARED SPACING: 0.0625
Info: NONBONDED TABLE SIZE: 705 POINTS
TCL: Running for 1500000 steps
ETITLE: TS BOND ANGLE DIHED IMPRP ELECT VDW BOUNDARY MISC KINETIC TOTAL TEMP POTENTIAL TOTALAVG TEMPAVG PRESSURE GPRESSURE VOLUME PRESSAVG GPRESSAVG
ENERGY: 0 1.1870 2.3147 0.0000 0.0000 -10711.7847 1389.1586 0.0000 0.0000 1739.9202 -7579.2042 295.4007 -9319.1244 -7579.2042 295.4007 -534.8812 -461.3187 30638.0612 -534.8812 -461.3187
ENERGY: 300000 0.0722 2.4281 0.0000 0.0000 -10800.6421 1452.2005 0.0000 0.0000 1745.2867 -7600.6546 296.3118 -9345.9412 -7570.2812 299.1116 35.0203 74.6122 30337.4068 -51.6787 28.9601
ENERGY: 600000 0.3279 0.8484 0.0000 0.0000 -10762.5715 1432.3026 0.0000 0.0000 1780.2600 -7548.8326 302.2495 -9329.0925 -7565.5777 299.7731 194.5373 263.7146 29819.7739 -299.6300 -230.8277
ENERGY: 900000 0.6283 1.3952 0.0000 0.0000 -10714.6281 1456.1769 0.0000 0.0000 1718.3878 -7538.0399 291.7450 -9256.4277 -7564.7387 298.5210 -140.0517 -56.7317 30914.2374 -272.2520 -203.8173
ENERGY: 1200000 0.4750 1.7142 0.0000 0.0000 -10706.2166 1402.6617 0.0000 0.0000 1711.4553 -7589.9103 290.5680 -9301.3656 -7562.0220 298.3563 -274.3078 -227.8404 30361.8823 -271.9649 -205.8142
ENERGY: 1500000 0.5540 2.6299 0.0000 0.0000 -10666.9931 1356.2158 0.0000 0.0000 1758.2821 -7549.3114 298.5181 -9307.5934 -7573.0601 297.7552 -587.2150 -533.6741 30347.0420 -311.6635 -246.7658
TCL: Running FEP window   4: Lambda1 0.15000000000000002 Lambda2 0.2    [dLambda 0.04999999999999999]
TCL: Setting parameter firsttimestep to 0
TCL: Setting parameter alchLambda to 0.15000000000000002
Info: NONBONDED TABLE R-SQUARED SPACING: 0.0625
Info: NONBONDED TABLE SIZE: 705 POINTS
TCL: Setting parameter alchLambda2 to 0.2
Info: NONBONDED TABLE R-SQUARED SPACING: 0.0625
Info: NONBONDED TABLE SIZE: 705 POINTS
TCL: Running for 1500000 steps
ETITLE: TS BOND ANGLE DIHED IMPRP ELECT VDW BOUNDARY MISC KINETIC TOTAL TEMP POTENTIAL TOTALAVG TEMPAVG PRESSURE GPRESSURE VOLUME PRESSAVG GPRESSAVG
ENERGY: 0 0.5540 2.6299 0.0000 0.0000 -10666.9918 1356.1319 0.0000 0.0000 1757.4280 -7550.2481 298.3731 -9307.6761 -7550.2481 298.3731 -614.6906 -532.7068 30347.0420 -614.6906 -532.7068
ENERGY: 300000 0.0005 2.8268 0.0000 0.0000 -10740.2523 1429.9546 0.0000 0.0000 1749.0343 -7558.4360 296.9481 -9307.4703 -7559.4184 298.5041 -83.4474 -22.6034 30379.2652 -500.6224 -420.2830
ENERGY: 600000 0.2757 4.2005 0.0000 0.0000 -10644.5597 1392.1116 0.0000 0.0000 1783.1068 -7464.8652 302.7328 -9247.9720 -7543.9552 298.4327 -266.1326 -295.6985 30712.1545 -379.8898 -313.9312
ENERGY: 900000 0.5384 2.5846 0.0000 0.0000 -10811.1525 1453.5803 0.0000 0.0000 1781.7468 -7572.7024 302.5020 -9354.4492 -7543.1514 299.8596 -42.6918 59.6112 30357.4134 -278.1428 -218.0337
ENERGY: 1200000 0.4697 0.6678 0.0000 0.0000 -10912.4717 1458.3689 0.0000 0.0000 1730.2792 -7722.6861 293.7639 -9452.9653 -7560.3478 299.8885 -523.3580 -528.4396 30769.3776 -215.8387 -159.0442
ENERGY: 1500000 0.0575 0.3304 0.0000 0.0000 -10732.8684 1474.3603 0.0000 0.0000 1826.0283 -7432.0918 310.0200 -9258.1201 -7549.9227 300.8170 258.7429 352.3501 30575.7590 -216.2601 -153.9984
TCL: Running FEP window   5: Lambda1 0.2    Lambda2 0.25   [dLambda 0.04999999999999999]
TCL: Setting parameter firsttimestep to 0
TCL: Setting parameter alchLambda to 0.2
Info: NONBONDED TABLE R-SQUARED SPACING: 0.0625
Info: NONBONDED TABLE SIZE: 705 POINTS
TCL: Setting parameter alchLambda2 to 0.25
Info: NONBONDED TABLE R-SQUARED SPACING: 0.0625
Info: NONBONDED TABLE SIZE: 705 POINTS
TCL: Running for 1500000 steps
ETITLE: TS BOND ANGLE DIHED IMPRP ELECT VDW BOUNDARY MISC KINETIC TOTAL TEMP POTENTIAL TOTALAVG TEMPAVG PRESSURE GPRESSURE VOLUME PRESSAVG GPRESSAVG
ENERGY: 0 0.0575 0.3304 0.0000 0.0000 -10732.8667 1475.0434 0.0000 0.0000 1825.1542 -7432.2812 309.8716 -9257.4354 -7432.2812 309.8716 270.8143 353.6524 30575.7590 270.8143 353.6524
ENERGY: 300000 0.3445 2.0771 0.0000 0.0000 -10789.5873 1453.0467 0.0000 0.0000 1760.4588 -7573.6602 298.8877 -9334.1191 -7517.7751 302.4360 -5.8224 24.4956 30365.2751 117.5841 194.9085
ENERGY: 600000 0.4636 1.4170 0.0000 0.0000 -10632.5331 1343.8878 0.0000 0.0000 1699.3319 -7587.4328 288.5097 -9286.7647 -7541.1812 299.9240 -901.7477 -816.5156 30800.9423 15.8016 90.9482
ENERGY: 900000 0.0045 1.5641 0.0000 0.0000 -10789.7535 1517.4642 0.0000 0.0000 1823.1846 -7447.5362 309.5372 -9270.7207 -7536.2914 300.8844 706.7690 756.2224 30487.0565 134.0898 203.1957
ENERGY: 1200000 0.3069 2.8777 0.0000 0.0000 -10711.1701 1468.2872 0.0000 0.0000 1771.7582 -7467.9400 300.8061 -9239.6982 -7536.2401 300.7702 273.7635 395.9664 30508.4100 116.7826 188.9240
ENERGY: 1500000 0.0322 3.9841 0.0000 0.0000 -10742.8592 1450.9093 0.0000 0.0000 1795.9002 -7492.0334 304.9049 -9287.9336 -7546.1319 300.2032 150.2078 205.6380 30378.4816 34.8941 101.6305
TCL: Running FEP window   6: Lambda1 0.25   Lambda2 0.3    [dLambda 0.04999999999999999]
TCL: Setting parameter firsttimestep to 0
TCL: Setting parameter alchLambda to 0.25
Info: NONBONDED TABLE R-SQUARED SPACING: 0.0625
Info: NONBONDED TABLE SIZE: 705 POINTS
TCL: Setting parameter alchLambda2 to 0.3
Info: NONBONDED TABLE R-SQUARED SPACING: 0.0625
Info: NONBONDED TABLE SIZE: 705 POINTS
TCL: Running for 1500000 steps
ETITLE: TS BOND ANGLE DIHED IMPRP ELECT VDW BOUNDARY MISC KINETIC TOTAL TEMP POTENTIAL TOTALAVG TEMPAVG PRESSURE GPRESSURE VOLUME PRESSAVG GPRESSAVG
ENERGY: 0 0.0322 3.9841 0.0000 0.0000 -10742.8577 1450.9931 0.0000 0.0000 1795.0171 -7492.8313 304.7550 -9287.8483 -7492.8313 304.7550 119.0962 206.3506 30378.4816 119.0962 206.3506
ENERGY: 300000 0.0004 1.9736 0.0000 0.0000 -10880.3020 1516.8184 0.0000 0.0000 1766.6699 -7594.8396 299.9422 -9361.5095 -7555.2507 297.1020 407.4436 470.7109 30341.5430 -343.2729 -261.8239
ENERGY: 600000 0.1996 4.0942 0.0000 0.0000 -10746.5838 1392.7978 0.0000 0.0000 1755.0804 -7594.4118 297.9746 -9349.4922 -7569.7104 298.4907 -663.7979 -540.2541 30590.3594 -410.5315 -328.5111
ENERGY: 900000 0.0624 3.2664 0.0000 0.0000 -10927.4054 1571.6404 0.0000 0.0000 1774.3445 -7578.0918 301.2452 -9352.4362 -7569.5008 298.4847 994.0101 1053.3618 30179.4807 -210.8069 -144.9918
ENERGY: 1200000 0.0779 1.1816 0.0000 0.0000 -10680.1880 1424.2264 0.0000 0.0000 1753.3906 -7501.3115 297.6877 -9254.7021 -7562.6593 299.7105 -28.9091 21.6811 30664.5860 -152.3618 -87.2853
ENERGY: 1500000 0.1658 0.8498 0.0000 0.0000 -10667.4924 1406.8225 0.0000 0.0000 1814.8867 -7444.7677 308.1284 -9259.6544 -7555.7607 299.9971 -355.6363 -282.3364 30984.3056 -141.8229 -72.2075
TCL: Running FEP window   7: Lambda1 0.3    Lambda2 0.35   [dLambda 0.04999999999999999]
TCL: Setting parameter firsttimestep to 0
TCL: Setting parameter alchLambda to 0.3
Info: NONBONDED TABLE R-SQUARED SPACING: 0.0625
Info: NONBONDED TABLE SIZE: 705 POINTS
TCL: Setting parameter alchLambda2 to 0.35
Info: NONBONDED TABLE R-SQUARED SPACING: 0.0625
Info: NONBONDED TABLE SIZE: 705 POINTS
TCL: Running for 1500000 steps
ETITLE: TS BOND ANGLE DIHED IMPRP ELECT VDW BOUNDARY MISC KINETIC TOTAL TEMP POTENTIAL TOTALAVG TEMPAVG PRESSURE GPRESSURE VOLUME PRESSAVG GPRESSAVG
ENERGY: 0 0.1658 0.8498 0.0000 0.0000 -10667.4920 1406.7051 0.0000 0.0000 1814.0398 -7445.7315 307.9846 -9259.7713 -7445.7315 307.9846 -365.1281 -283.0711 30984.3056 -365.1281 -283.0711
ENERGY: 300000 0.0932 2.4875 0.0000 0.0000 -10720.5507 1394.1267 0.0000 0.0000 1751.2064 -7572.6369 297.3169 -9323.8434 -7522.5316 301.1452 -269.9348 -221.9318 29979.2291 -471.4606 -404.7641
ENERGY: 600000 0.7553 1.2654 0.0000 0.0000 -10782.1563 1487.8962 0.0000 0.0000 1794.6314 -7497.6081 304.6895 -9292.2394 -7510.5931 301.2955 233.1511 277.5648 30633.9318 -113.5068 -49.4827
ENERGY: 900000 0.0118 1.6477 0.0000 0.0000 -10836.5779 1464.5850 0.0000 0.0000 1714.4529 -7655.8805 291.0769 -9370.3333 -7538.4381 301.0596 -207.1651 -114.2533 30556.6334 -45.9401 10.4379
ENERGY: 1200000 0.1783 0.9669 0.0000 0.0000 -10633.6981 1295.4683 0.0000 0.0000 1775.0450 -7562.0396 301.3641 -9337.0846 -7546.3240 300.1950 -1161.3201 -1110.3643 30501.2092 -127.0431 -71.6322
ENERGY: 1500000 0.2714 1.1803 0.0000 0.0000 -10656.1039 1358.4619 0.0000 0.0000 1790.2472 -7505.9431 303.9451 -9296.1903 -7543.2797 300.1033 -782.5633 -712.3672 30837.7725 -68.2105 -11.9319
TCL: Running FEP window   8: Lambda1 0.35   Lambda2 0.39999999999999997 [dLambda 0.04999999999999999]
TCL: Setting parameter firsttimestep to 0
TCL: Setting parameter alchLambda to 0.35
Info: NONBONDED TABLE R-SQUARED SPACING: 0.0625
Info: NONBONDED TABLE SIZE: 705 POINTS
TCL: Setting parameter alchLambda2 to 0.39999999999999997
Info: NONBONDED TABLE R-SQUARED SPACING: 0.0625
Info: NONBONDED TABLE SIZE: 705 POINTS
TCL: Running for 1500000 steps
ETITLE: TS BOND ANGLE DIHED IMPRP ELECT VDW BOUNDARY MISC KINETIC TOTAL TEMP POTENTIAL TOTALAVG TEMPAVG PRESSURE GPRESSURE VOLUME PRESSAVG GPRESSAVG
ENERGY: 0 0.2714 1.1803 0.0000 0.0000 -10656.1042 1358.2911 0.0000 0.0000 1789.3639 -7506.9974 303.7952 -9296.3613 -7506.9974 303.7952 -780.8056 -711.0922 30837.7725 -780.8056 -711.0922
ENERGY: 300000 0.2459 0.6926 0.0000 0.0000 -10830.8933 1483.2954 0.0000 0.0000 1787.1992 -7559.4602 303.4276 -9346.6594 -7545.9554 301.2151 33.5630 155.0366 30653.6033 -250.8947 -206.8716
ENERGY: 600000 0.0643 3.0483 0.0000 0.0000 -10883.2517 1531.8161 0.0000 0.0000 1737.5824 -7610.7406 295.0038 -9348.3230 -7547.1743 300.7531 545.7554 643.3334 30196.2570 -164.1425 -106.8926
ENERGY: 900000 0.4777 0.9039 0.0000 0.0000 -10792.8068 1460.2852 0.0000 0.0000 1768.4432 -7562.6968 300.2433 -9331.1400 -7551.8046 300.5995 57.6149 66.3410 30576.8699 -120.9865 -56.3904
ENERGY: 1200000 0.5232 1.0189 0.0000 0.0000 -10757.2127 1419.2866 0.0000 0.0000 1790.6969 -7545.6871 304.0215 -9336.3839 -7546.1025 301.1833 -316.9224 -315.7219 30644.6265 -189.9264 -134.7279
ENERGY: 1500000 0.7305 1.5143 0.0000 0.0000 -10814.0195 1483.6048 0.0000 0.0000 1764.9567 -7563.2132 299.6514 -9328.1699 -7550.6034 301.1146 80.5077 103.1905 30730.7395 -193.1451 -137.0432
TCL: Running FEP window   9: Lambda1 0.39999999999999997 Lambda2 0.44999999999999996 [dLambda 0.04999999999999999]
TCL: Setting parameter firsttimestep to 0
TCL: Setting parameter alchLambda to 0.39999999999999997
Info: NONBONDED TABLE R-SQUARED SPACING: 0.0625
Info: NONBONDED TABLE SIZE: 705 POINTS
TCL: Setting parameter alchLambda2 to 0.44999999999999996
Info: NONBONDED TABLE R-SQUARED SPACING: 0.0625
Info: NONBONDED TABLE SIZE: 705 POINTS
TCL: Running for 1500000 steps
ETITLE: TS BOND ANGLE DIHED IMPRP ELECT VDW BOUNDARY MISC KINETIC TOTAL TEMP POTENTIAL TOTALAVG TEMPAVG PRESSURE GPRESSURE VOLUME PRESSAVG GPRESSAVG
ENERGY: 0 0.7305 1.5143 0.0000 0.0000 -10814.0195 1483.6558 0.0000 0.0000 1764.1016 -7564.0172 299.5062 -9328.1189 -7564.0172 299.5062 35.5551 105.3531 30730.7395 35.5551 105.3531
ENERGY: 300000 1.0136 3.1239 0.0000 0.0000 -10754.6689 1440.7657 0.0000 0.0000 1743.4106 -7566.3550 295.9933 -9309.7657 -7516.2348 298.4281 -123.8626 -22.1354 30394.9223 -357.3634 -280.8214
ENERGY: 600000 0.1990 2.7470 0.0000 0.0000 -10646.6768 1393.7297 0.0000 0.0000 1727.8288 -7522.1723 293.3478 -9250.0011 -7530.8926 298.8496 -570.1545 -498.6771 31022.6327 -153.8314 -74.9078
ENERGY: 900000 0.0077 1.0330 0.0000 0.0000 -10631.6160 1359.8174 0.0000 0.0000 1763.6656 -7507.0923 299.4322 -9270.7579 -7539.1191 297.8770 -750.8024 -667.3742 30780.4824 -236.0330 -163.1706
ENERGY: 1200000 0.7896 3.5882 0.0000 0.0000 -10596.7201 1388.2473 0.0000 0.0000 1712.9649 -7491.1301 290.8243 -9204.0949 -7526.1294 298.0035 -222.7779 -185.0108 30720.2859 -171.0492 -96.0632
ENERGY: 1500000 0.2446 1.9015 0.0000 0.0000 -10702.4287 1431.0972 0.0000 0.0000 1753.5539 -7515.6314 297.7154 -9269.1854 -7526.9468 299.0174 -248.9643 -132.7714 30908.4038 -195.1810 -118.7656
TCL: Running FEP window  10: Lambda1 0.44999999999999996 Lambda2 0.49999999999999994 [dLambda 0.04999999999999999]
TCL: Setting parameter firsttimestep to 0
TCL: Setting parameter alchLambda to 0.44999999999999996
Info: NONBONDED TABLE R-SQUARED SPACING: 0.0625
Info: NONBONDED TABLE SIZE: 705 POINTS
TCL: Setting parameter alchLambda2 to 0.49999999999999994
Info: NONBONDED TABLE R-SQUARED SPACING: 0.0625
Info: NONBONDED TABLE SIZE: 705 POINTS
TCL: Running for 1500000 steps
ETITLE: TS BOND ANGLE DIHED IMPRP ELECT VDW BOUNDARY MISC KINETIC TOTAL TEMP POTENTIAL TOTALAVG TEMPAVG PRESSURE GPRESSURE VOLUME PRESSAVG GPRESSAVG
ENERGY: 0 0.2446 1.9015 0.0000 0.0000 -10702.4271 1430.8834 0.0000 0.0000 1752.6558 -7516.7417 297.5629 -9269.3976 -7516.7417 297.5629 -209.1259 -132.1686 30908.4038 -209.1259 -132.1686
ENERGY: 300000 0.0585 1.2301 0.0000 0.0000 -10932.8694 1487.5154 0.0000 0.0000 1714.3509 -7729.7145 291.0596 -9444.0654 -7601.3235 294.9308 -87.9534 10.5196 30302.1836 93.0329 177.0358
ENERGY: 600000 0.0699 0.3368 0.0000 0.0000 -10859.6704 1443.3428 0.0000 0.0000 1791.9338 -7623.9870 304.2315 -9415.9208 -7595.5402 299.7504 -106.7272 -113.9393 30229.6060 130.9076 197.2999
ENERGY: 900000 0.0093 1.2773 0.0000 0.0000 -10792.5928 1389.5043 0.0000 0.0000 1784.2703 -7617.5316 302.9304 -9401.8019 -7591.4775 300.9657 -557.8257 -432.7698 30237.8311 -56.3434 18.6633
ENERGY: 1200000 0.4323 0.8886 0.0000 0.0000 -10779.9834 1460.1813 0.0000 0.0000 1775.9559 -7542.5253 301.5188 -9318.4812 -7570.3635 301.4243 -72.0831 21.9975 30683.6913 -71.8608 6.6774
ENERGY: 1500000 0.0028 0.6448 0.0000 0.0000 -10873.7911 1577.0976 0.0000 0.0000 1790.5221 -7505.5238 303.9918 -9296.0459 -7575.6126 300.5471 1138.0622 1162.6776 30418.6033 -14.7186 56.4774
TCL: Running FEP window  11: Lambda1 0.49999999999999994 Lambda2 0.5499999999999999 [dLambda 0.04999999999999999]
TCL: Setting parameter firsttimestep to 0
TCL: Setting parameter alchLambda to 0.49999999999999994
Info: NONBONDED TABLE R-SQUARED SPACING: 0.0625
Info: NONBONDED TABLE SIZE: 705 POINTS
TCL: Setting parameter alchLambda2 to 0.5499999999999999
Info: NONBONDED TABLE R-SQUARED SPACING: 0.0625
Info: NONBONDED TABLE SIZE: 705 POINTS
TCL: Running for 1500000 steps
ETITLE: TS BOND ANGLE DIHED IMPRP ELECT VDW BOUNDARY MISC KINETIC TOTAL TEMP POTENTIAL TOTALAVG TEMPAVG PRESSURE GPRESSURE VOLUME PRESSAVG GPRESSAVG
ENERGY: 0 0.0028 0.6448 0.0000 0.0000 -10873.7916 1576.8914 0.0000 0.0000 1789.6151 -7506.6374 303.8378 -9296.2525 -7506.6374 303.8378 1066.6479 1160.9030 30418.6033 1066.6479 1160.9030
ENERGY: 300000 0.1409 2.7692 0.0000 0.0000 -10819.2936 1489.4747 0.0000 0.0000 1750.4827 -7576.4262 297.1940 -9326.9088 -7550.3073 299.7822 -71.8977 28.3211 30745.7852 532.7829 612.3482
ENERGY: 600000 0.8897 1.3307 0.0000 0.0000 -10947.7395 1562.9174 0.0000 0.0000 1762.5412 -7620.0604 299.2413 -9382.6016 -7551.2104 301.7117 505.3436 592.3831 30555.1899 278.5304 350.5699
ENERGY: 900000 0.0003 3.1580 0.0000 0.0000 -10921.6905 1564.7354 0.0000 0.0000 1740.1361 -7613.6608 295.4373 -9353.7968 -7564.4322 300.5000 829.7002 919.4268 30325.3101 226.5057 294.7323
ENERGY: 1200000 0.3639 2.3243 0.0000 0.0000 -10756.9139 1454.1425 0.0000 0.0000 1716.7530 -7583.3303 291.4674 -9300.0832 -7573.1671 299.2629 156.5891 145.3327 30264.2344 225.2970 290.2035
ENERGY: 1500000 0.1949 1.4744 0.0000 0.0000 -10936.2287 1535.4126 0.0000 0.0000 1746.6587 -7652.4882 296.5448 -9399.1469 -7578.7585 298.8675 379.7740 409.6071 30306.3212 194.7686 255.9008
TCL: Running FEP window  12: Lambda1 0.5499999999999999 Lambda2 0.6    [dLambda 0.050000000000000044]
TCL: Setting parameter firsttimestep to 0
TCL: Setting parameter alchLambda to 0.5499999999999999
Info: NONBONDED TABLE R-SQUARED SPACING: 0.0625
Info: NONBONDED TABLE SIZE: 705 POINTS
TCL: Setting parameter alchLambda2 to 0.6
Info: NONBONDED TABLE R-SQUARED SPACING: 0.0625
Info: NONBONDED TABLE SIZE: 705 POINTS
TCL: Running for 1500000 steps
ETITLE: TS BOND ANGLE DIHED IMPRP ELECT VDW BOUNDARY MISC KINETIC TOTAL TEMP POTENTIAL TOTALAVG TEMPAVG PRESSURE GPRESSURE VOLUME PRESSAVG GPRESSAVG
ENERGY: 0 0.1949 1.4744 0.0000 0.0000 -10936.1621 1535.5425 0.0000 0.0000 1745.7856 -7653.1648 296.3965 -9398.9504 -7653.1648 296.3965 320.4373 415.6054 30306.3212 320.4373 415.6054
ENERGY: 300000 0.0000 0.8790 0.0000 0.0000 -10693.4316 1366.6726 0.0000 0.0000 1827.7711 -7498.1089 310.3159 -9325.8800 -7545.8964 304.4239 -828.6524 -746.8018 30674.7278 372.7974 445.3659
ENERGY: 600000 0.0100 0.6275 0.0000 0.0000 -10971.6708 1558.0948 0.0000 0.0000 1776.5515 -7636.3870 301.6199 -9412.9385 -7559.8364 303.5875 569.6693 633.7240 30304.0962 363.4280 421.0787
ENERGY: 900000 1.0865 1.6842 0.0000 0.0000 -10785.3607 1465.5068 0.0000 0.0000 1758.3812 -7558.7021 298.5350 -9317.0833 -7563.4389 301.3346 -66.6396 30.7191 30697.7948 266.8516 333.8119
ENERGY: 1200000 0.0078 1.4327 0.0000 0.0000 -10722.8845 1391.2954 0.0000 0.0000 1808.2526 -7521.8960 307.0021 -9330.1486 -7558.0884 301.3666 -559.1723 -535.5990 30641.4993 114.2395 182.2491
ENERGY: 1500000 0.4254 0.8059 0.0000 0.0000 -10713.8881 1407.3437 0.0000 0.0000 1789.3155 -7515.9976 303.7870 -9305.3131 -7550.9712 301.2445 -227.8777 -214.8344 30225.9452 85.4424 145.8075
TCL: Running FEP window  13: Lambda1 0.6    Lambda2 0.65   [dLambda 0.050000000000000044]
TCL: Setting parameter firsttimestep to 0
TCL: Setting parameter alchLambda to 0.6
Info: NONBONDED TABLE R-SQUARED SPACING: 0.0625
Info: NONBONDED TABLE SIZE: 705 POINTS
TCL: Setting parameter alchLambda2 to 0.65
Info: NONBONDED TABLE R-SQUARED SPACING: 0.0625
Info: NONBONDED TABLE SIZE: 705 POINTS
TCL: Running for 1500000 steps
ETITLE: TS BOND ANGLE DIHED IMPRP ELECT VDW BOUNDARY MISC KINETIC TOTAL TEMP POTENTIAL TOTALAVG TEMPAVG PRESSURE GPRESSURE VOLUME PRESSAVG GPRESSAVG
ENERGY: 0 0.4254 0.8059 0.0000 0.0000 -10714.2434 1407.2411 0.0000 0.0000 1788.4377 -7517.3332 303.6379 -9305.7709 -7517.3332 303.6379 -287.5317 -213.4213 30225.9452 -287.5317 -213.4213
ENERGY: 300000 0.0752 1.2526 0.0000 0.0000 -10721.0556 1472.2753 0.0000 0.0000 1808.9445 -7438.5080 307.1195 -9247.4525 -7522.0623 299.7689 346.2999 425.7738 30766.1157 89.8429 176.0691
ENERGY: 600000 0.0182 0.7975 0.0000 0.0000 -10674.7892 1391.2384 0.0000 0.0000 1783.1469 -7499.5882 302.7397 -9282.7351 -7510.5879 300.0370 -589.1142 -520.6461 31104.9446 -60.3286 11.4628
ENERGY: 900000 0.0647 4.8954 0.0000 0.0000 -10746.6533 1436.7045 0.0000 0.0000 1827.1616 -7477.8272 310.2124 -9304.9888 -7503.6107 302.5514 -191.1787 -154.9665 30910.6549 -45.8171 16.8025
ENERGY: 1200000 0.0952 0.2879 0.0000 0.0000 -10744.7087 1456.3325 0.0000 0.0000 1776.5340 -7511.4592 301.6169 -9287.9932 -7520.0414 301.4887 236.5871 275.5066 30214.7055 64.2031 124.7920
ENERGY: 1500000 0.0001 1.5492 0.0000 0.0000 -10787.6790 1423.2259 0.0000 0.0000 1693.5841 -7669.3197 287.5338 -9362.9038 -7536.1220 300.4165 -665.0635 -613.3111 30897.2502 -13.0735 48.4545
TCL: Running FEP window  14: Lambda1 0.65   Lambda2 0.7000000000000001 [dLambda 0.050000000000000044]
TCL: Setting parameter firsttimestep to 0
TCL: Setting parameter alchLambda to 0.65
Info: NONBONDED TABLE R-SQUARED SPACING: 0.0625
Info: NONBONDED TABLE SIZE: 705 POINTS
TCL: Setting parameter alchLambda2 to 0.7000000000000001
Info: NONBONDED TABLE R-SQUARED SPACING: 0.0625
Info: NONBONDED TABLE SIZE: 705 POINTS
TCL: Running for 1500000 steps
ETITLE: TS BOND ANGLE DIHED IMPRP ELECT VDW BOUNDARY MISC KINETIC TOTAL TEMP POTENTIAL TOTALAVG TEMPAVG PRESSURE GPRESSURE VOLUME PRESSAVG GPRESSAVG
ENERGY: 0 0.0001 1.5492 0.0000 0.0000 -10788.0572 1423.0846 0.0000 0.0000 1692.6949 -7670.7283 287.3829 -9363.4232 -7670.7283 287.3829 -690.9193 -612.3758 30897.2502 -690.9193 -612.3758
ENERGY: 300000 0.0005 1.0420 0.0000 0.0000 -10911.1374 1538.0429 0.0000 0.0000 1794.5073 -7577.5448 304.6684 -9372.0521 -7595.2282 296.6866 306.0575 367.7316 30730.5585 -90.0900 -31.6426
ENERGY: 600000 0.0580 0.6640 0.0000 0.0000 -10784.0270 1507.6910 0.0000 0.0000 1812.0388 -7463.5752 307.6449 -9275.6140 -7558.3849 300.7320 409.9719 368.9873 31092.2057 -154.7633 -117.6897
ENERGY: 900000 0.2345 2.8180 0.0000 0.0000 -10880.5299 1506.0168 0.0000 0.0000 1772.7806 -7598.6800 300.9797 -9371.4606 -7572.3829 301.0009 473.2037 556.2035 30082.5052 -104.6342 -54.5576
ENERGY: 1200000 0.1338 2.3781 0.0000 0.0000 -10817.5307 1473.3589 0.0000 0.0000 1732.5951 -7609.0648 294.1571 -9341.6599 -7581.9842 299.4160 -40.0759 5.2249 30632.5231 -112.1888 -57.5257
ENERGY: 1500000 0.5302 1.5572 0.0000 0.0000 -10721.5475 1418.2254 0.0000 0.0000 1761.1494 -7540.0854 299.0049 -9301.2348 -7576.5980 300.1605 -354.9608 -311.6402 30824.0644 -181.2548 -126.2450
TCL: Running FEP window  15: Lambda1 0.7000000000000001 Lambda2 0.7500000000000001 [dLambda 0.050000000000000044]
TCL: Setting parameter firsttimestep to 0
TCL: Setting parameter alchLambda to 0.7000000000000001
Info: NONBONDED TABLE R-SQUARED SPACING: 0.0625
Info: NONBONDED TABLE SIZE: 705 POINTS
TCL: Setting parameter alchLambda2 to 0.7500000000000001
Info: NONBONDED TABLE R-SQUARED SPACING: 0.0625
Info: NONBONDED TABLE SIZE: 705 POINTS
TCL: Running for 1500000 steps
ETITLE: TS BOND ANGLE DIHED IMPRP ELECT VDW BOUNDARY MISC KINETIC TOTAL TEMP POTENTIAL TOTALAVG TEMPAVG PRESSURE GPRESSURE VOLUME PRESSAVG GPRESSAVG
ENERGY: 0 0.5302 1.5572 0.0000 0.0000 -10721.7335 1418.2938 0.0000 0.0000 1760.2860 -7541.0663 298.8584 -9301.3523 -7541.0663 298.8584 -389.7546 -305.9803 30824.0644 -389.7546 -305.9803
ENERGY: 300000 0.0774 0.8436 0.0000 0.0000 -10869.1793 1543.2741 0.0000 0.0000 1774.7792 -7550.2050 301.3190 -9324.9842 -7517.4636 301.4374 846.7729 920.5674 30209.5346 -112.4576 -36.0170
ENERGY: 600000 0.0102 0.8709 0.0000 0.0000 -10670.6089 1367.1753 0.0000 0.0000 1806.4371 -7496.1152 306.6938 -9302.5524 -7526.6772 300.0114 -741.9444 -627.2382 30618.4355 -150.7217 -76.4716
ENERGY: 900000 0.0598 1.5209 0.0000 0.0000 -10860.8896 1488.9309 0.0000 0.0000 1737.5057 -7632.8722 294.9908 -9370.3779 -7550.0103 298.4095 411.2680 376.4427 30054.5152 -54.0529 6.6519
ENERGY: 1200000 0.2789 2.5181 0.0000 0.0000 -10855.9213 1512.1377 0.0000 0.0000 1743.0953 -7597.8912 295.9398 -9340.9866 -7555.7282 299.1278 356.7008 440.3699 30444.8041 -57.8951 5.4645
ENERGY: 1500000 0.1378 3.2696 0.0000 0.0000 -10765.5598 1411.3052 0.0000 0.0000 1754.7588 -7596.0884 297.9200 -9350.8472 -7556.7799 299.2585 -547.9420 -422.0571 30469.3701 -120.1449 -54.5366
TCL: Running FEP window  16: Lambda1 0.7500000000000001 Lambda2 0.8000000000000002 [dLambda 0.050000000000000044]
TCL: Setting parameter firsttimestep to 0
TCL: Setting parameter alchLambda to 0.7500000000000001
Info: NONBONDED TABLE R-SQUARED SPACING: 0.0625
Info: NONBONDED TABLE SIZE: 705 POINTS
TCL: Setting parameter alchLambda2 to 0.8000000000000002
Info: NONBONDED TABLE R-SQUARED SPACING: 0.0625
Info: NONBONDED TABLE SIZE: 705 POINTS
TCL: Running for 1500000 steps
ETITLE: TS BOND ANGLE DIHED IMPRP ELECT VDW BOUNDARY MISC KINETIC TOTAL TEMP POTENTIAL TOTALAVG TEMPAVG PRESSURE GPRESSURE VOLUME PRESSAVG GPRESSAVG
ENERGY: 0 0.1378 3.2696 0.0000 0.0000 -10765.8933 1411.1825 0.0000 0.0000 1753.8346 -7597.4688 297.7631 -9351.3034 -7597.4688 297.7631 -510.4598 -423.3646 30469.3701 -510.4598 -423.3646
ENERGY: 300000 0.0310 2.5655 0.0000 0.0000 -10777.5535 1452.7566 0.0000 0.0000 1796.0144 -7526.1860 304.9243 -9322.2004 -7543.5779 302.3912 70.5899 90.9414 30545.2812 -71.2996 -3.6687
ENERGY: 600000 0.2393 0.9911 0.0000 0.0000 -10815.2141 1480.9535 0.0000 0.0000 1782.7321 -7550.2982 302.6692 -9333.0303 -7543.2345 301.2484 -35.5795 103.8144 30528.7386 -87.3557 -3.4691
ENERGY: 900000 0.0110 2.5548 0.0000 0.0000 -10816.6163 1464.6045 0.0000 0.0000 1803.7023 -7545.7438 306.2295 -9349.4461 -7531.2332 302.5192 28.2939 71.0542 30549.8447 -11.7005 67.5494
ENERGY: 1200000 0.0242 1.2726 0.0000 0.0000 -10680.4938 1405.8256 0.0000 0.0000 1748.0978 -7525.2736 296.7891 -9273.3714 -7527.0779 302.1171 -225.9466 -109.6378 30399.3089 45.2405 130.7816
ENERGY: 1500000 0.2132 4.3910 0.0000 0.0000 -10786.4980 1378.8419 0.0000 0.0000 1725.7628 -7677.2892 292.9971 -9403.0520 -7541.9128 301.4552 -664.0105 -640.5083 30329.9019 -17.3294 62.7650
TCL: Running FEP window  17: Lambda1 0.8000000000000002 Lambda2 0.8500000000000002 [dLambda 0.050000000000000044]
TCL: Setting parameter firsttimestep to 0
TCL: Setting parameter alchLambda to 0.8000000000000002
Info: NONBONDED TABLE R-SQUARED SPACING: 0.0625
Info: NONBONDED TABLE SIZE: 705 POINTS
TCL: Setting parameter alchLambda2 to 0.8500000000000002
Info: NONBONDED TABLE R-SQUARED SPACING: 0.0625
Info: NONBONDED TABLE SIZE: 705 POINTS
TCL: Running for 1500000 steps
ETITLE: TS BOND ANGLE DIHED IMPRP ELECT VDW BOUNDARY MISC KINETIC TOTAL TEMP POTENTIAL TOTALAVG TEMPAVG PRESSURE GPRESSURE VOLUME PRESSAVG GPRESSAVG
ENERGY: 0 0.2132 4.3910 0.0000 0.0000 -10786.7993 1378.9702 0.0000 0.0000 1724.8802 -7678.3448 292.8472 -9403.2250 -7678.3448 292.8472 -703.1074 -635.6474 30329.9019 -703.1074 -635.6474
ENERGY: 300000 0.0416 1.2689 0.0000 0.0000 -10703.7984 1438.1855 0.0000 0.0000 1829.0389 -7435.2635 310.5311 -9264.3024 -7534.0458 302.3087 -142.3926 -111.0905 31085.1415 -286.2411 -218.7194
ENERGY: 600000 0.1132 0.4403 0.0000 0.0000 -10787.2977 1479.8509 0.0000 0.0000 1805.7269 -7501.1664 306.5733 -9306.8933 -7547.1738 302.9539 168.8814 280.0479 30802.1359 -209.9636 -119.9976
ENERGY: 900000 0.2133 1.9619 0.0000 0.0000 -10701.2092 1402.2317 0.0000 0.0000 1767.6351 -7529.1673 300.1061 -9296.8024 -7555.3449 301.6647 -449.7434 -395.0092 30975.4399 -110.0063 -32.6967
ENERGY: 1200000 0.0086 4.8805 0.0000 0.0000 -10889.2538 1497.5828 0.0000 0.0000 1812.8494 -7573.9325 307.7825 -9386.7819 -7557.6850 302.4938 170.0736 197.2036 30707.9621 -187.3783 -115.5626
ENERGY: 1500000 0.0204 1.1418 0.0000 0.0000 -10769.3562 1466.8312 0.0000 0.0000 1793.0522 -7508.3105 304.4214 -9301.3628 -7545.0582 302.0902 232.1329 269.4412 30454.2169 -184.2453 -111.7160
TCL: Running FEP window  18: Lambda1 0.8500000000000002 Lambda2 0.9000000000000002 [dLambda 0.050000000000000044]
TCL: Setting parameter firsttimestep to 0
TCL: Setting parameter alchLambda to 0.8500000000000002
Info: NONBONDED TABLE R-SQUARED SPACING: 0.0625
Info: NONBONDED TABLE SIZE: 705 POINTS
TCL: Setting parameter alchLambda2 to 0.9000000000000002
Info: NONBONDED TABLE R-SQUARED SPACING: 0.0625
Info: NONBONDED TABLE SIZE: 705 POINTS
TCL: Running for 1500000 steps
ETITLE: TS BOND ANGLE DIHED IMPRP ELECT VDW BOUNDARY MISC KINETIC TOTAL TEMP POTENTIAL TOTALAVG TEMPAVG PRESSURE GPRESSURE VOLUME PRESSAVG GPRESSAVG
ENERGY: 0 0.0204 1.1418 0.0000 0.0000 -10769.6268 1466.9509 0.0000 0.0000 1792.1241 -7509.3895 304.2638 -9301.5137 -7509.3895 304.2638 184.2927 275.5532 30454.2169 184.2927 275.5532
ENERGY: 300000 0.0131 2.1022 0.0000 0.0000 -10686.2921 1459.7642 0.0000 0.0000 1790.4219 -7433.9907 303.9748 -9224.4126 -7473.8518 304.4552 177.2611 224.2481 30946.2918 -219.9290 -155.2702
ENERGY: 600000 0.0001 4.3932 0.0000 0.0000 -10730.1835 1445.3964 0.0000 0.0000 1778.2220 -7502.1717 301.9035 -9280.3938 -7483.3196 305.0377 276.9141 332.6758 30262.5487 -127.8094 -72.8952
ENERGY: 900000 0.0022 0.7448 0.0000 0.0000 -10795.1101 1449.3887 0.0000 0.0000 1783.1352 -7561.8392 302.7377 -9344.9744 -7505.5397 304.3671 -176.6554 -141.9984 30666.1954 -162.3007 -103.8671
ENERGY: 1200000 0.0089 4.5071 0.0000 0.0000 -10782.2398 1476.3651 0.0000 0.0000 1752.4739 -7548.8848 297.5320 -9301.3587 -7516.2894 302.7896 290.1659 358.3322 30413.7429 -182.2625 -117.9071
ENERGY: 1500000 0.2150 1.5004 0.0000 0.0000 -10781.6476 1391.5530 0.0000 0.0000 1748.1874 -7640.1917 296.8043 -9388.3791 -7535.4639 302.0791 -662.8661 -533.4555 30306.6815 -188.8130 -118.2912
TCL: Running FEP window  19: Lambda1 0.9000000000000002 Lambda2 0.9500000000000003 [dLambda 0.050000000000000044]
TCL: Setting parameter firsttimestep to 0
TCL: Setting parameter alchLambda to 0.9000000000000002
Info: NONBONDED TABLE R-SQUARED SPACING: 0.0625
Info: NONBONDED TABLE SIZE: 705 POINTS
TCL: Setting parameter alchLambda2 to 0.9500000000000003
Info: NONBONDED TABLE R-SQUARED SPACING: 0.0625
Info: NONBONDED TABLE SIZE: 705 POINTS
TCL: Running for 1500000 steps
ETITLE: TS BOND ANGLE DIHED IMPRP ELECT VDW BOUNDARY MISC KINETIC TOTAL TEMP POTENTIAL TOTALAVG TEMPAVG PRESSURE GPRESSURE VOLUME PRESSAVG GPRESSAVG
ENERGY: 0 0.2150 1.5004 0.0000 0.0000 -10781.6869 1391.7378 0.0000 0.0000 1747.3223 -7640.9114 296.6574 -9388.2337 -7640.9114 296.6574 -612.8904 -527.5757 30306.6815 -612.8904 -527.5757
ENERGY: 300000 0.6669 3.0015 0.0000 0.0000 -10780.0558 1456.4700 0.0000 0.0000 1751.2654 -7568.6520 297.3269 -9319.9174 -7545.3626 298.9769 152.8441 219.6604 30268.7428 -247.0853 -168.4126
ENERGY: 600000 0.4721 0.5086 0.0000 0.0000 -10871.2704 1514.2572 0.0000 0.0000 1785.9444 -7570.0880 303.2146 -9356.0324 -7554.7267 300.2997 512.8219 610.4196 30342.8562 -211.8093 -150.3782
ENERGY: 900000 0.0229 0.8557 0.0000 0.0000 -10804.1018 1440.2889 0.0000 0.0000 1793.8126 -7569.1216 304.5505 -9362.9342 -7552.8835 300.1455 -55.2939 33.8134 30407.0019 -227.4908 -162.4607
ENERGY: 1200000 0.4792 1.9139 0.0000 0.0000 -10751.8673 1412.7158 0.0000 0.0000 1742.8143 -7593.9440 295.8920 -9336.7583 -7556.3367 299.6444 -339.2000 -314.9938 30379.5017 -157.7551 -102.4730
ENERGY: 1500000 0.0233 0.9750 0.0000 0.0000 -10751.5694 1482.8513 0.0000 0.0000 1789.4368 -7478.2831 303.8075 -9267.7199 -7553.9624 300.1970 341.2035 441.4447 30606.3757 -93.6168 -34.3540
TCL: Running FEP window  20: Lambda1 0.9500000000000003 Lambda2 1.0    [dLambda 0.04999999999999971]
TCL: Setting parameter firsttimestep to 0
TCL: Setting parameter alchLambda to 0.9500000000000003
Info: NONBONDED TABLE R-SQUARED SPACING: 0.0625
Info: NONBONDED TABLE SIZE: 705 POINTS
TCL: Setting parameter alchLambda2 to 1.0
Info: NONBONDED TABLE R-SQUARED SPACING: 0.0625
Info: NONBONDED TABLE SIZE: 705 POINTS
TCL: Running for 1500000 steps
ETITLE: TS BOND ANGLE DIHED IMPRP ELECT VDW BOUNDARY MISC KINETIC TOTAL TEMP POTENTIAL TOTALAVG TEMPAVG PRESSURE GPRESSURE VOLUME PRESSAVG GPRESSAVG
ENERGY: 0 0.0233 0.9750 0.0000 0.0000 -10751.6507 1482.7761 0.0000 0.0000 1788.5156 -7479.3608 303.6511 -9267.8764 -7479.3608 303.6511 343.6133 443.5146 30606.3757 343.6133 443.5146
ENERGY: 300000 0.4078 2.5838 0.0000 0.0000 -10757.5016 1468.5643 0.0000 0.0000 1806.3269 -7479.6189 306.6751 -9285.9458 -7509.8138 303.6769 320.5856 330.9084 30703.1397 124.5130 172.3851
ENERGY: 600000 0.1658 0.5476 0.0000 0.0000 -10623.2963 1378.9720 0.0000 0.0000 1745.0955 -7498.5155 296.2793 -9243.6109 -7498.0950 301.8390 -593.9664 -561.7444 31226.7333 -198.8159 -138.1744
ENERGY: 900000 0.0008 1.9256 0.0000 0.0000 -10785.5631 1466.3600 0.0000 0.0000 1754.8587 -7562.4179 297.9369 -9317.2766 -7508.9237 301.3471 462.4254 537.3623 29963.8035 -136.9539 -72.2727
ENERGY: 1200000 0.2648 0.5470 0.0000 0.0000 -10756.8818 1431.9336 0.0000 0.0000 1787.0040 -7537.1323 303.3945 -9324.1363 -7519.1775 300.7915 -65.0832 -77.3043 30506.6737 -20.4327 39.5123
ENERGY: 1500000 0.4107 1.2111 0.0000 0.0000 -10947.8904 1514.7492 0.0000 0.0000 1827.9342 -7603.5853 310.3436 -9431.5195 -7537.0601 300.4157 292.3928 348.7120 30370.5220 -3.7213 54.5452
TCL: Exiting due to exit command.
