Info: SIMULATION PARAMETERS:
Info: TIMESTEP               2
Info: NUMBER OF STEPS        0
Info: STEPS PER CYCLE        10
Info: PERIODIC CELL BASIS 1  32.0121 0 0
Info: PERIODIC CELL BASIS 2  0 30.2289 0
Info: PERIODIC CELL BASIS 3  0 0 31.4501
Info: PERIODIC CELL CENTER   0 0 0
Info: WRAPPING WATERS AROUND PERIODIC BOUNDARIES ON OUTPUT.
Info: WRAPPING ALL CLUSTERS AROUND PERIODIC BOUNDARIES ON OUTPUT.
Info: FIRST LDB TIMESTEP     50
Info: LAST LDB TIMESTEP     -1
Info: HOM BACKGROUND SCALING 1
Info: PME BACKGROUND SCALING 1
Info: MIN ATOMS PER PATCH    40
Info: EMPTY PATCH LOAD       40 ATOMS
Info: VELOCITY FILE          mobley_1857976_equil.vel
Info: CENTER OF MASS MOVING INITIALLY? NO
Info: DIELECTRIC             1
Info: EXCLUDE                SCALED ONE-FOUR
Info: 1-4 ELECTROSTATICS SCALED BY 0.833333
Info: MODIFIED 1-4 VDW PARAMETERS WILL BE USED
Info: DCD FILENAME           mobley_1857976_prod.dcd
Info: DCD FREQUENCY          100000
Info: DCD FIRST STEP         100000
Info: DCD FILE WILL CONTAIN UNIT CELL DATA
Info: XST FILENAME           mobley_1857976_prod.xst
Info: XST FREQUENCY          100000
Info: NO VELOCITY DCD OUTPUT
Info: NO FORCE DCD OUTPUT
Info: OUTPUT FILENAME        mobley_1857976_prod
Info: BINARY OUTPUT FILES WILL BE USED
Info: RESTART FILENAME       mobley_1857976_prod.restart
Info: RESTART FREQUENCY      100000
Info: BINARY RESTART FILES WILL BE USED
Info: CUTOFF                 9
Info: PAIRLIST DISTANCE      11
Info: PAIRLIST SHRINK RATE   0.01
Info: PAIRLIST GROW RATE     0.01
Info: PAIRLIST TRIGGER       0.3
Info: PAIRLISTS PER CYCLE    2
Info: PAIRLISTS ENABLED
Info: MARGIN                 2
Info: HYDROGEN GROUP CUTOFF  2.5
Info: PATCH DIMENSION        15.5
Info: ENERGY OUTPUT STEPS    100000
Info: ENERGY EVALUATION STEPS    100000
Info: OUTPUT ENERGY PRECISION 4
Info: CROSSTERM ENERGY INCLUDED IN DIHEDRAL
Info: TIMING OUTPUT STEPS    1000000
Info: PRESSURE OUTPUT STEPS  100000
Info: ALCHEMICAL FEP ON
Info: FEP CURRENT LAMBDA VALUE     1
Info: FEP COMPARISON LAMBDA VALUE  0.95
Info: FEP INTRA-ALCHEMICAL NON-BONDED INTERACTIONS WILL BE RETAINED
Info: FEP INTRA-ALCHEMICAL BONDED INTERACTIONS WILL BE RETAINED
Info: FEP VDW SHIFTING COEFFICIENT 5
Info: FEP ELEC. ACTIVE FOR ANNIHILATED PARTICLES BETWEEN LAMBDA = 0 AND LAMBDA = 0.5
Info: FEP ELEC. ACTIVE FOR EXNIHILATED PARTICLES BETWEEN LAMBDA = 0.5 AND LAMBDA = 1
Info: FEP VDW ACTIVE FOR ANNIHILATED PARTICLES BETWEEN LAMBDA = 0 AND LAMBDA = 1
Info: FEP VDW ACTIVE FOR EXNIHILATED PARTICLES BETWEEN LAMBDA = 0 AND LAMBDA = 1
Info: FEP BOND ACTIVE FOR ANNIHILATED PARTICLES BETWEEN LAMBDA = 1 AND LAMBDA = 1
Info: FEP BOND ACTIVE FOR EXNIHILATED PARTICLES BETWEEN LAMBDA = 0 AND LAMBDA = 0
Info: LANGEVIN DYNAMICS ACTIVE
Info: LANGEVIN TEMPERATURE   300
Info: LANGEVIN USING BBK INTEGRATOR
Info: LANGEVIN DAMPING COEFFICIENT IS 1 INVERSE PS
Info: LANGEVIN DYNAMICS APPLIED TO HYDROGENS
Info: LANGEVIN PISTON PRESSURE CONTROL ACTIVE
Info:        TARGET PRESSURE IS 1.01325 BAR
Info:     OSCILLATION PERIOD IS 50 FS
Info:             DECAY TIME IS 25 FS
Info:     PISTON TEMPERATURE IS 300 K
Info:       PRESSURE CONTROL IS GROUP-BASED
Info:    INITIAL STRAIN RATE IS -0.000186933 -0.000186933 -0.000186933
Info:       CELL FLUCTUATION IS ISOTROPIC
Info: PARTICLE MESH EWALD (PME) ACTIVE
Info: PME TOLERANCE               1e-06
Info: PME EWALD COEFFICIENT       0.348832
Info: PME INTERPOLATION ORDER     4
Info: PME GRID DIMENSIONS         36 32 32
Info: PME MAXIMUM GRID SPACING    1
Info: PME CALCULATION WILL BE PERFORMED ON GPU
Info: FULL ELECTROSTATIC EVALUATION FREQUENCY      2
Info: USING VERLET I (r-RESPA) MTS SCHEME.
Info: C1 SPLITTING OF LONG RANGE ELECTROSTATICS
Info: PLACING ATOMS IN PATCHES BY HYDROGEN GROUPS
Info: RIGID BONDS TO HYDROGEN : ALL
Info:         ERROR TOLERANCE : 1e-08
Info:          MAX ITERATIONS : 100
Info: RIGID WATER USING SETTLE ALGORITHM
Info: RANDOM NUMBER SEED     1742427356
Info: USE HYDROGEN BONDS?    NO
Info: Using AMBER format force field!
Info: AMBER PARM FILE        mobley_1857976.prmtop
Info: COORDINATE PDB         mobley_1857976.pdb
Info: Exclusions will be read from PARM file!
Info: SCNB (VDW SCALING)     2
Info: USING ARITHMETIC MEAN TO COMBINE L-J SIGMA PARAMETERS
Info: BINARY COORDINATES     mobley_1857976_equil.coor
Info: SUMMARY OF PARAMETERS:
Info: 5 BONDS
Info: 4 ANGLES
Info:   4 HARMONIC
Info:   0 COSINE-BASED
Info: 4 DIHEDRAL
Info: 0 IMPROPER
Info: 0 CROSSTERM
Info: 0 VDW
Info: 15 VDW_PAIRS
Info: 0 NBTHOLE_PAIRS
Info: To read alchdata from file: mobley_1857976.pdb
Info: To read alchflag data from column: 5
Info: STRUCTURE SUMMARY:
Info: 2918 ATOMS
Info: 2917 BONDS
Info: 12 ANGLES
Info: 13 DIHEDRALS
Info: 0 IMPROPERS
Info: 0 CROSSTERMS
Info: 2938 EXCLUSIONS
Info: 2914 RIGID BONDS
Info: ALCH: 0 ATOMS TO DISAPPEAR IN FINAL STATE
Info: ALCH: 8 ATOMS TO APPEAR IN FINAL STATE
Info: 5840 DEGREES OF FREEDOM
Info: 974 HYDROGEN GROUPS
Info: 3 ATOMS IN LARGEST HYDROGEN GROUP
Info: 974 MIGRATION GROUPS
Info: 3 ATOMS IN LARGEST MIGRATION GROUP
Info: TOTAL MASS = 17574.5 amu
Info: TOTAL CHARGE = 1.11759e-08 e
Info: MASS DENSITY = 0.958919 g/cm^3
Info: ATOM DENSITY = 0.0958794 atoms/A^3
Info: ADDED 0 IMPLICIT EXCLUSIONS
Info: NONBONDED TABLE R-SQUARED SPACING: 0.0625
Info: NONBONDED TABLE SIZE: 705 POINTS
Info: REMOVING COM VELOCITY -0.301519 -0.0433845 0.245872
Info: Use 3D box decompostion in PME FFT.
Info: Updated CUDA force table with 4096 elements.
Info: Updated CUDA LJ table with 5 x 5 elements.
Info: Found 11 unique exclusion lists needing 16 bytes
TCL: Running for 1500000 steps
ETITLE: TS BOND ANGLE DIHED IMPRP ELECT VDW BOUNDARY MISC KINETIC TOTAL TEMP POTENTIAL TOTALAVG TEMPAVG PRESSURE GPRESSURE VOLUME PRESSAVG GPRESSAVG
ENERGY: 0 1.0090 1.9869 1.6166 0.0000 -10603.4893 1410.4312 0.0000 0.0000 1735.9676 -7452.4780 299.1708 -9188.4456 -7452.4780 299.1708 -316.0167 -250.7628 30434.0512 -316.0167 -250.7628
ENERGY: 300000 2.2921 4.5410 1.5575 0.0000 -10557.5650 1398.0860 0.0000 0.0000 1731.2611 -7419.8272 298.3597 -9151.0884 -7443.8702 294.9018 -334.4584 -226.6211 30287.6135 -344.0187 -287.0970
ENERGY: 600000 0.7151 1.5125 1.9690 0.0000 -10651.7239 1443.7153 0.0000 0.0000 1713.4608 -7490.3512 295.2920 -9203.8120 -7431.4364 296.7598 409.1229 473.5743 29585.1109 -178.1854 -116.1168
ENERGY: 900000 2.0545 2.6836 0.9217 0.0000 -10715.6521 1476.0476 0.0000 0.0000 1770.8328 -7463.1120 305.1793 -9233.9448 -7424.0335 299.0705 151.1462 133.7216 30167.3372 -116.3242 -62.7488
ENERGY: 1200000 1.7795 2.3850 1.6629 0.0000 -10601.7719 1431.1059 0.0000 0.0000 1708.1979 -7456.6407 294.3850 -9164.8386 -7424.5464 299.2349 116.6501 132.2745 30024.9468 40.6847 91.6285
ENERGY: 1500000 1.6434 4.7478 1.7141 0.0000 -10521.8873 1384.4142 0.0000 0.0000 1751.3938 -7377.9740 301.8293 -9129.3678 -7422.1477 299.7523 -437.5625 -354.3258 30549.5908 -65.3433 -9.7144
TCL: Running FEP window   2: Lambda1 0.95   Lambda2 0.8999999999999999 [dLambda -0.050000000000000044]
TCL: Setting parameter firsttimestep to 0
TCL: Setting parameter alchLambda to 0.95
Info: NONBONDED TABLE R-SQUARED SPACING: 0.0625
Info: NONBONDED TABLE SIZE: 705 POINTS
TCL: Setting parameter alchLambda2 to 0.8999999999999999
Info: NONBONDED TABLE R-SQUARED SPACING: 0.0625
Info: NONBONDED TABLE SIZE: 705 POINTS
TCL: Running for 1500000 steps
ETITLE: TS BOND ANGLE DIHED IMPRP ELECT VDW BOUNDARY MISC KINETIC TOTAL TEMP POTENTIAL TOTALAVG TEMPAVG PRESSURE GPRESSURE VOLUME PRESSAVG GPRESSAVG
ENERGY: 0 1.6434 4.7478 1.7141 0.0000 -10521.7747 1384.6842 0.0000 0.0000 1750.5394 -7378.4458 301.6820 -9128.9853 -7378.4458 301.6820 -442.4558 -359.4496 30549.5908 -442.4558 -359.4496
ENERGY: 300000 1.4904 4.2605 0.7907 0.0000 -10643.8053 1487.6898 0.0000 0.0000 1711.2484 -7438.3255 294.9107 -9149.5739 -7415.1769 297.3792 614.3930 644.6629 29598.6033 177.8525 234.5823
ENERGY: 600000 0.7493 2.3005 1.5733 0.0000 -10494.8546 1324.4851 0.0000 0.0000 1682.0083 -7483.7381 289.8716 -9165.7464 -7455.6686 296.5144 -774.8340 -714.2014 30065.9005 63.0499 116.4439
ENERGY: 900000 0.0034 4.3025 1.9134 0.0000 -10650.8836 1447.4387 0.0000 0.0000 1782.4646 -7414.7610 307.1839 -9197.2256 -7442.1901 297.9518 261.1783 332.1759 29992.5700 113.3743 174.9786
ENERGY: 1200000 2.3184 5.7515 1.1219 0.0000 -10728.2046 1464.4468 0.0000 0.0000 1803.1018 -7451.4643 310.7404 -9254.5660 -7442.5126 299.3986 -64.3998 47.0124 30095.7612 141.5375 205.6350
ENERGY: 1500000 1.9532 4.2718 0.8745 0.0000 -10622.9585 1462.3338 0.0000 0.0000 1787.0704 -7366.4547 307.9777 -9153.5251 -7436.2968 299.4348 367.3103 377.4934 30275.5752 112.9300 173.4515
TCL: Running FEP window   3: Lambda1 0.8999999999999999 Lambda2 0.8499999999999999 [dLambda -0.050000000000000044]
TCL: Setting parameter firsttimestep to 0
TCL: Setting parameter alchLambda to 0.8999999999999999
Info: NONBONDED TABLE R-SQUARED SPACING: 0.0625
Info: NONBONDED TABLE SIZE: 705 POINTS
TCL: Setting parameter alchLambda2 to 0.8499999999999999
Info: NONBONDED TABLE R-SQUARED SPACING: 0.0625
Info: NONBONDED TABLE SIZE: 705 POINTS
TCL: Running for 1500000 steps
ETITLE: TS BOND ANGLE DIHED IMPRP ELECT VDW BOUNDARY MISC KINETIC TOTAL TEMP POTENTIAL TOTALAVG TEMPAVG PRESSURE GPRESSURE VOLUME PRESSAVG GPRESSAVG
ENERGY: 0 1.9532 4.2718 0.8745 0.0000 -10622.7206 1461.9285 0.0000 0.0000 1786.2138 -7367.4788 307.8300 -9153.6926 -7367.4788 307.8300 291.6840 365.5368 30275.5752 291.6840 365.5368
ENERGY: 300000 0.5502 1.5755 0.7921 0.0000 -10499.6698 1309.0107 0.0000 0.0000 1766.3318 -7421.4095 304.4036 -9187.7413 -7406.2223 301.2972 -977.0754 -864.7258 30324.9255 -292.8878 -200.8698
ENERGY: 600000 2.4315 2.3947 0.9971 0.0000 -10689.7815 1512.1176 0.0000 0.0000 1781.6127 -7390.2279 307.0371 -9171.8406 -7394.1964 302.6706 967.0390 984.7276 29620.4488 90.2664 159.4877
ENERGY: 900000 1.0654 1.8620 0.8672 0.0000 -10545.9947 1419.3991 0.0000 0.0000 1741.3908 -7381.4102 300.1054 -9122.8010 -7409.5912 299.7682 121.2309 104.4066 30365.6766 -59.4362 -0.1368
ENERGY: 1200000 1.0520 5.4202 1.9749 0.0000 -10587.6353 1368.9746 0.0000 0.0000 1748.3553 -7461.8583 301.3056 -9210.2136 -7419.2050 300.0279 -574.3111 -552.8868 30172.8457 -79.0206 -15.4191
ENERGY: 1500000 1.0169 2.0978 1.5192 0.0000 -10608.6366 1408.2578 0.0000 0.0000 1713.4919 -7482.2531 295.2974 -9195.7449 -7417.5641 299.9808 -285.4800 -198.6052 30080.8337 -79.3022 -18.1757
TCL: Running FEP window   4: Lambda1 0.8499999999999999 Lambda2 0.7999999999999998 [dLambda -0.050000000000000044]
TCL: Setting parameter firsttimestep to 0
TCL: Setting parameter alchLambda to 0.8499999999999999
Info: NONBONDED TABLE R-SQUARED SPACING: 0.0625
Info: NONBONDED TABLE SIZE: 705 POINTS
TCL: Setting parameter alchLambda2 to 0.7999999999999998
Info: NONBONDED TABLE R-SQUARED SPACING: 0.0625
Info: NONBONDED TABLE SIZE: 705 POINTS
TCL: Running for 1500000 steps
ETITLE: TS BOND ANGLE DIHED IMPRP ELECT VDW BOUNDARY MISC KINETIC TOTAL TEMP POTENTIAL TOTALAVG TEMPAVG PRESSURE GPRESSURE VOLUME PRESSAVG GPRESSAVG
ENERGY: 0 1.0169 2.0978 1.5192 0.0000 -10608.4543 1408.5186 0.0000 0.0000 1712.6235 -7482.6783 295.1477 -9195.3018 -7482.6783 295.1477 -278.3982 -205.3638 30080.8337 -278.3982 -205.3638
ENERGY: 300000 1.0911 3.5745 1.1063 0.0000 -10505.4510 1354.1200 0.0000 0.0000 1760.3737 -7385.1853 303.3768 -9145.5590 -7446.1220 296.5809 -653.4710 -572.9909 30267.6358 -62.8639 -1.0460
ENERGY: 600000 1.3483 2.0784 1.5524 0.0000 -10615.9580 1466.5236 0.0000 0.0000 1728.3518 -7416.1035 297.8583 -9144.4553 -7416.9945 298.7392 255.8523 318.0091 30055.8818 12.7836 82.2449
ENERGY: 900000 0.8213 4.4594 0.8492 0.0000 -10619.1497 1470.4315 0.0000 0.0000 1746.5554 -7396.0328 300.9954 -9142.5883 -7417.4220 299.6831 605.2737 650.0726 29857.0012 24.7392 96.7418
ENERGY: 1200000 2.8674 6.2074 1.6659 0.0000 -10600.3460 1410.6715 0.0000 0.0000 1728.0262 -7450.9076 297.8022 -9178.9339 -7417.6716 299.8047 -148.4622 -79.3329 29766.6061 0.1459 71.2176
ENERGY: 1500000 2.0718 3.3881 0.9619 0.0000 -10532.5253 1357.0284 0.0000 0.0000 1774.3822 -7394.6929 305.7910 -9169.0751 -7414.5443 300.5661 -648.6542 -591.0125 30223.7059 -83.7870 -13.5358
TCL: Running FEP window   5: Lambda1 0.7999999999999998 Lambda2 0.7499999999999998 [dLambda -0.050000000000000044]
TCL: Setting parameter firsttimestep to 0
TCL: Setting parameter alchLambda to 0.7999999999999998
Info: NONBONDED TABLE R-SQUARED SPACING: 0.0625
Info: NONBONDED TABLE SIZE: 705 POINTS
TCL: Setting parameter alchLambda2 to 0.7499999999999998
Info: NONBONDED TABLE R-SQUARED SPACING: 0.0625
Info: NONBONDED TABLE SIZE: 705 POINTS
TCL: Running for 1500000 steps
ETITLE: TS BOND ANGLE DIHED IMPRP ELECT VDW BOUNDARY MISC KINETIC TOTAL TEMP POTENTIAL TOTALAVG TEMPAVG PRESSURE GPRESSURE VOLUME PRESSAVG GPRESSAVG
ENERGY: 0 2.0718 3.3881 0.9619 0.0000 -10532.2081 1357.1891 0.0000 0.0000 1773.4731 -7395.1241 305.6343 -9168.5972 -7395.1241 305.6343 -672.8729 -595.9740 30223.7059 -672.8729 -595.9740
ENERGY: 300000 0.4094 3.1078 1.8438 0.0000 -10651.1478 1497.8181 0.0000 0.0000 1715.7481 -7432.2207 295.6862 -9147.9687 -7405.1266 300.4997 518.3525 619.2785 30167.3767 -92.2415 -9.0612
ENERGY: 600000 0.1985 4.6952 1.4153 0.0000 -10622.7998 1413.6073 0.0000 0.0000 1723.1881 -7479.6955 296.9684 -9202.8836 -7406.2027 299.9604 -223.4911 -121.8410 30098.0658 -91.0494 -17.1986
ENERGY: 900000 0.5318 2.8728 0.9278 0.0000 -10612.2706 1454.2127 0.0000 0.0000 1726.1880 -7427.5376 297.4854 -9153.7256 -7424.4352 299.5449 66.7575 191.3999 30057.4460 -126.7327 -36.3108
ENERGY: 1200000 0.6686 2.0620 0.7535 0.0000 -10439.6539 1287.3331 0.0000 0.0000 1794.4075 -7354.4291 309.2421 -9148.8366 -7406.0502 300.1828 -1163.9269 -1040.8896 30276.0392 -210.7656 -125.0388
ENERGY: 1500000 0.2947 3.9566 1.0651 0.0000 -10676.6444 1464.0670 0.0000 0.0000 1762.5518 -7444.7092 303.7522 -9207.2610 -7409.8343 299.9430 34.3378 100.6459 30252.7720 -184.7560 -102.5464
TCL: Running FEP window   6: Lambda1 0.7499999999999998 Lambda2 0.6999999999999997 [dLambda -0.050000000000000044]
TCL: Setting parameter firsttimestep to 0
TCL: Setting parameter alchLambda to 0.7499999999999998
Info: NONBONDED TABLE R-SQUARED SPACING: 0.0625
Info: NONBONDED TABLE SIZE: 705 POINTS
TCL: Setting parameter alchLambda2 to 0.6999999999999997
Info: NONBONDED TABLE R-SQUARED SPACING: 0.0625
Info: NONBONDED TABLE SIZE: 705 POINTS
TCL: Running for 1500000 steps
ETITLE: TS BOND ANGLE DIHED IMPRP ELECT VDW BOUNDARY MISC KINETIC TOTAL TEMP POTENTIAL TOTALAVG TEMPAVG PRESSURE GPRESSURE VOLUME PRESSAVG GPRESSAVG
ENERGY: 0 0.2947 3.9566 1.0651 0.0000 -10675.8823 1463.8012 0.0000 0.0000 1761.7100 -7445.0547 303.6071 -9206.7647 -7445.0547 303.6071 14.6227 90.7187 30252.7720 14.6227 90.7187
ENERGY: 300000 0.6864 4.4527 1.0003 0.0000 -10559.3801 1422.4011 0.0000 0.0000 1757.1665 -7373.6730 302.8241 -9130.8395 -7432.0558 301.1909 15.9815 64.2183 30141.9174 34.9139 78.2782
ENERGY: 600000 0.5584 1.8787 1.6442 0.0000 -10500.5276 1325.7975 0.0000 0.0000 1674.5916 -7496.0572 288.5934 -9170.6488 -7443.3996 297.3446 -792.9271 -756.2089 30016.9862 -21.7848 20.2596
ENERGY: 900000 0.9996 3.7919 1.6269 0.0000 -10589.0965 1441.7237 0.0000 0.0000 1694.8090 -7446.1454 292.0776 -9140.9544 -7443.9520 296.4935 264.3512 345.5125 29853.7157 -98.8526 -45.9315
ENERGY: 1200000 0.5328 2.1536 2.5863 0.0000 -10547.9456 1408.5328 0.0000 0.0000 1796.8000 -7337.3400 309.6544 -9134.1400 -7437.9768 297.4493 131.5855 169.3124 29898.3369 -146.6934 -95.2830
ENERGY: 1500000 1.7595 3.4461 1.4734 0.0000 -10628.3972 1446.6264 0.0000 0.0000 1697.0336 -7478.0582 292.4610 -9175.0918 -7426.6358 298.8795 -76.0115 -35.1060 30219.2685 -179.0555 -130.2864
TCL: Running FEP window   7: Lambda1 0.6999999999999997 Lambda2 0.6499999999999997 [dLambda -0.050000000000000044]
TCL: Setting parameter firsttimestep to 0
TCL: Setting parameter alchLambda to 0.6999999999999997
Info: NONBONDED TABLE R-SQUARED SPACING: 0.0625
Info: NONBONDED TABLE SIZE: 705 POINTS
TCL: Setting parameter alchLambda2 to 0.6499999999999997
Info: NONBONDED TABLE R-SQUARED SPACING: 0.0625
Info: NONBONDED TABLE SIZE: 705 POINTS
TCL: Running for 1500000 steps
ETITLE: TS BOND ANGLE DIHED IMPRP ELECT VDW BOUNDARY MISC KINETIC TOTAL TEMP POTENTIAL TOTALAVG TEMPAVG PRESSURE GPRESSURE VOLUME PRESSAVG GPRESSAVG
ENERGY: 0 1.7595 3.4461 1.4734 0.0000 -10628.0851 1446.4328 0.0000 0.0000 1696.1761 -7478.7972 292.3132 -9174.9733 -7478.7972 292.3132 -124.2295 -45.9345 30219.2685 -124.2295 -45.9345
ENERGY: 300000 0.6701 4.3981 1.0982 0.0000 -10601.1778 1413.6903 0.0000 0.0000 1764.1260 -7417.1952 304.0235 -9181.3212 -7409.2276 304.5729 -269.9786 -203.6921 30238.8294 -350.3645 -253.2220
ENERGY: 600000 1.6136 2.1513 1.4990 0.0000 -10692.6314 1507.6555 0.0000 0.0000 1816.0640 -7363.6480 312.9743 -9179.7120 -7409.4332 302.7772 567.1291 635.8727 30292.5259 -69.1819 8.9703
ENERGY: 900000 0.8500 2.9201 0.8035 0.0000 -10568.2403 1435.0261 0.0000 0.0000 1727.4628 -7401.1778 297.7051 -9128.6406 -7397.6031 303.0591 -97.4721 -49.9136 30499.5823 -128.1977 -51.2744
ENERGY: 1200000 0.6511 5.3839 1.6681 0.0000 -10609.6955 1399.7584 0.0000 0.0000 1777.9061 -7424.3278 306.3983 -9202.2340 -7399.3878 303.6202 -79.4727 -90.6514 29957.8333 -113.3617 -44.6498
ENERGY: 1500000 0.6570 2.9781 0.9329 0.0000 -10631.5687 1384.0711 0.0000 0.0000 1776.6317 -7466.2979 306.1787 -9242.9297 -7414.8583 302.3488 -395.9821 -344.6449 29883.6405 -72.0536 -13.8720
TCL: Running FEP window   8: Lambda1 0.6499999999999997 Lambda2 0.5999999999999996 [dLambda -0.050000000000000044]
TCL: Setting parameter firsttimestep to 0
TCL: Setting parameter alchLambda to 0.6499999999999997
Info: NONBONDED TABLE R-SQUARED SPACING: 0.0625
Info: NONBONDED TABLE SIZE: 705 POINTS
TCL: Setting parameter alchLambda2 to 0.5999999999999996
Info: NONBONDED TABLE R-SQUARED SPACING: 0.0625
Info: NONBONDED TABLE SIZE: 705 POINTS
TCL: Running for 1500000 steps
ETITLE: TS BOND ANGLE DIHED IMPRP ELECT VDW BOUNDARY MISC KINETIC TOTAL TEMP POTENTIAL TOTALAVG TEMPAVG PRESSURE GPRESSURE VOLUME PRESSAVG GPRESSAVG
ENERGY: 0 0.6570 2.9781 0.9329 0.0000 -10631.4198 1384.4916 0.0000 0.0000 1775.7926 -7466.5677 306.0341 -9242.3603 -7466.5677 306.0341 -438.2920 -346.0779 29883.6405 -438.2920 -346.0779
ENERGY: 300000 0.6728 3.4923 1.5410 0.0000 -10609.0408 1320.8819 0.0000 0.0000 1732.1256 -7550.3272 298.5087 -9282.4529 -7474.5137 300.5469 -1031.6094 -945.2652 29595.5296 -276.0852 -207.4275
ENERGY: 600000 2.4687 1.5012 0.8050 0.0000 -10680.5786 1448.3465 0.0000 0.0000 1772.1160 -7455.3413 305.4005 -9227.4572 -7449.3472 302.8216 -47.8352 88.2870 29898.8315 -213.2842 -127.6090
ENERGY: 900000 1.6069 0.8951 1.5221 0.0000 -10627.8624 1410.1435 0.0000 0.0000 1757.3813 -7456.3135 302.8611 -9213.6948 -7430.4388 303.2070 -221.4750 -133.9510 30040.9234 -279.3825 -203.2111
ENERGY: 1200000 0.6427 4.0005 1.8855 0.0000 -10689.6423 1421.3732 0.0000 0.0000 1670.1251 -7591.6153 287.8237 -9261.7404 -7436.4503 301.5197 -411.8213 -361.8979 30173.5244 -342.8484 -274.9603
ENERGY: 1500000 1.1951 2.1887 0.7813 0.0000 -10526.1574 1453.2019 0.0000 0.0000 1766.6240 -7302.1664 304.4540 -9068.7905 -7430.2543 301.7906 569.2717 678.7686 30104.8861 -237.4053 -164.8517
TCL: Running FEP window   9: Lambda1 0.5999999999999996 Lambda2 0.5499999999999996 [dLambda -0.050000000000000044]
TCL: Setting parameter firsttimestep to 0
TCL: Setting parameter alchLambda to 0.5999999999999996
Info: NONBONDED TABLE R-SQUARED SPACING: 0.0625
Info: NONBONDED TABLE SIZE: 705 POINTS
TCL: Setting parameter alchLambda2 to 0.5499999999999996
Info: NONBONDED TABLE R-SQUARED SPACING: 0.0625
Info: NONBONDED TABLE SIZE: 705 POINTS
TCL: Running for 1500000 steps
ETITLE: TS BOND ANGLE DIHED IMPRP ELECT VDW BOUNDARY MISC KINETIC TOTAL TEMP POTENTIAL TOTALAVG TEMPAVG PRESSURE GPRESSURE VOLUME PRESSAVG GPRESSAVG
ENERGY: 0 1.1951 2.1887 0.7813 0.0000 -10525.7828 1452.8906 0.0000 0.0000 1765.7768 -7302.9504 304.3080 -9068.7271 -7302.9504 304.3080 585.8895 669.3729 30104.8861 585.8895 669.3729
ENERGY: 300000 1.0031 1.6688 2.1747 0.0000 -10588.8381 1325.0247 0.0000 0.0000 1748.9254 -7510.0414 301.4039 -9258.9668 -7398.4939 302.5188 -1181.0864 -1127.4740 30121.6538 -418.5664 -369.3446
ENERGY: 600000 0.2484 3.7226 1.5766 0.0000 -10537.2988 1420.7059 0.0000 0.0000 1785.8914 -7325.1538 307.7745 -9111.0453 -7396.5156 302.2054 135.2419 174.9698 30059.1445 -159.3836 -105.9080
ENERGY: 900000 0.8398 2.4107 1.5826 0.0000 -10518.9478 1409.8662 0.0000 0.0000 1742.0979 -7362.1506 300.2272 -9104.2485 -7417.1329 302.1050 67.5301 168.0766 30033.2271 -74.0135 -21.7737
ENERGY: 1200000 0.4765 2.6632 1.6335 0.0000 -10478.4359 1387.8966 0.0000 0.0000 1766.9803 -7318.7859 304.5154 -9085.7662 -7413.6927 302.1011 -315.8827 -277.6852 30765.0772 -181.8688 -128.8295
ENERGY: 1500000 1.5990 3.0707 1.5891 0.0000 -10574.6538 1429.4060 0.0000 0.0000 1720.5874 -7418.4016 296.5202 -9138.9890 -7417.3478 301.2054 97.4270 133.6538 29972.2566 -268.1048 -210.5650
TCL: Running FEP window  10: Lambda1 0.5499999999999996 Lambda2 0.4999999999999996 [dLambda -0.04999999999999999]
TCL: Setting parameter firsttimestep to 0
TCL: Setting parameter alchLambda to 0.5499999999999996
Info: NONBONDED TABLE R-SQUARED SPACING: 0.0625
Info: NONBONDED TABLE SIZE: 705 POINTS
TCL: Setting parameter alchLambda2 to 0.4999999999999996
Info: NONBONDED TABLE R-SQUARED SPACING: 0.0625
Info: NONBONDED TABLE SIZE: 705 POINTS
TCL: Running for 1500000 steps
ETITLE: TS BOND ANGLE DIHED IMPRP ELECT VDW BOUNDARY MISC KINETIC TOTAL TEMP POTENTIAL TOTALAVG TEMPAVG PRESSURE GPRESSURE VOLUME PRESSAVG GPRESSAVG
ENERGY: 0 1.5990 3.0707 1.5891 0.0000 -10574.5046 1429.4162 0.0000 0.0000 1719.7715 -7419.0581 296.3796 -9138.8295 -7419.0581 296.3796 44.7488 128.6083 29972.2566 44.7488 128.6083
ENERGY: 300000 0.0196 1.3200 1.8991 0.0000 -10518.1703 1376.2236 0.0000 0.0000 1757.8927 -7380.8153 302.9493 -9138.7079 -7423.7111 299.9560 -315.8718 -207.4759 30010.9497 -211.1818 -117.2134
ENERGY: 600000 1.2211 2.7027 1.0290 0.0000 -10450.8462 1305.2862 0.0000 0.0000 1765.8417 -7374.7656 304.3192 -9140.6073 -7429.6123 301.0717 -906.9577 -834.5176 30219.3985 -210.9700 -135.5869
ENERGY: 900000 1.1143 3.0996 1.4270 0.0000 -10600.3719 1489.6862 0.0000 0.0000 1786.1848 -7318.8601 307.8250 -9105.0449 -7400.1837 301.8164 416.2219 438.9189 30617.6916 -104.9794 -40.0618
ENERGY: 1200000 2.6274 3.3870 1.5892 0.0000 -10583.0793 1400.6882 0.0000 0.0000 1736.4208 -7438.3666 299.2489 -9174.7874 -7407.2969 301.7101 -273.3455 -252.2971 30063.7670 -91.4927 -34.6311
ENERGY: 1500000 1.1753 2.1824 1.5050 0.0000 -10564.6193 1381.5647 0.0000 0.0000 1718.0303 -7460.1615 296.0795 -9178.1918 -7414.4329 300.9404 -388.1985 -361.8005 29979.0516 -122.1686 -64.0441
TCL: Running FEP window  11: Lambda1 0.4999999999999996 Lambda2 0.4499999999999996 [dLambda -0.04999999999999999]
TCL: Setting parameter firsttimestep to 0
TCL: Setting parameter alchLambda to 0.4999999999999996
Info: NONBONDED TABLE R-SQUARED SPACING: 0.0625
Info: NONBONDED TABLE SIZE: 705 POINTS
TCL: Setting parameter alchLambda2 to 0.4499999999999996
Info: NONBONDED TABLE R-SQUARED SPACING: 0.0625
Info: NONBONDED TABLE SIZE: 705 POINTS
TCL: Running for 1500000 steps
ETITLE: TS BOND ANGLE DIHED IMPRP ELECT VDW BOUNDARY MISC KINETIC TOTAL TEMP POTENTIAL TOTALAVG TEMPAVG PRESSURE GPRESSURE VOLUME PRESSAVG GPRESSAVG
ENERGY: 0 1.1753 2.1824 1.5050 0.0000 -10564.6475 1381.8598 0.0000 0.0000 1717.1500 -7460.7750 295.9278 -9177.9250 -7460.7750 295.9278 -438.3701 -365.3950 29979.0516 -438.3701 -365.3950
ENERGY: 300000 0.6859 3.4167 1.0328 0.0000 -10593.9261 1438.2204 0.0000 0.0000 1723.4189 -7427.1514 297.0082 -9150.5703 -7485.4926 294.3852 237.3922 298.9093 29619.4336 8.6524 68.3949
ENERGY: 600000 0.6368 4.7133 1.7969 0.0000 -10526.2139 1412.7010 0.0000 0.0000 1728.4374 -7377.9285 297.8730 -9106.3658 -7429.6910 298.5728 90.6475 209.7299 29938.9928 18.3490 87.4446
ENERGY: 900000 0.5712 1.8080 1.3736 0.0000 -10652.1524 1493.8020 0.0000 0.0000 1685.6794 -7468.9183 290.5043 -9154.5977 -7425.0518 299.3713 507.9644 548.6014 29913.7989 171.4218 233.9192
ENERGY: 1200000 0.0746 1.9677 2.0580 0.0000 -10687.1493 1507.3635 0.0000 0.0000 1750.2314 -7425.4543 301.6289 -9175.6856 -7425.7536 300.2752 648.1098 747.2662 29836.2196 178.6101 243.6188
ENERGY: 1500000 0.4694 5.2390 1.2688 0.0000 -10662.3244 1489.9059 0.0000 0.0000 1687.6753 -7477.7660 290.8482 -9165.4413 -7423.9278 300.3970 493.6616 522.4050 30046.9913 291.2012 351.2145
TCL: Running FEP window  12: Lambda1 0.4499999999999996 Lambda2 0.39999999999999963 [dLambda -0.04999999999999999]
TCL: Setting parameter firsttimestep to 0
TCL: Setting parameter alchLambda to 0.4499999999999996
Info: NONBONDED TABLE R-SQUARED SPACING: 0.0625
Info: NONBONDED TABLE SIZE: 705 POINTS
TCL: Setting parameter alchLambda2 to 0.39999999999999963
Info: NONBONDED TABLE R-SQUARED SPACING: 0.0625
Info: NONBONDED TABLE SIZE: 705 POINTS
TCL: Running for 1500000 steps
ETITLE: TS BOND ANGLE DIHED IMPRP ELECT VDW BOUNDARY MISC KINETIC TOTAL TEMP POTENTIAL TOTALAVG TEMPAVG PRESSURE GPRESSURE VOLUME PRESSAVG GPRESSAVG
ENERGY: 0 0.4694 5.2390 1.2688 0.0000 -10662.3231 1490.0033 0.0000 0.0000 1686.8106 -7478.5320 290.6992 -9165.3426 -7478.5320 290.6992 434.3865 522.0364 30046.9913 434.3865 522.0364
ENERGY: 300000 1.1097 1.7630 3.0634 0.0000 -10393.5641 1311.3363 0.0000 0.0000 1715.9682 -7360.3236 295.7241 -9076.2918 -7413.7559 296.2705 -785.8840 -758.8688 30498.5463 -316.7047 -261.0883
ENERGY: 600000 0.0573 2.8714 0.7540 0.0000 -10599.6089 1428.9336 0.0000 0.0000 1692.9864 -7474.0062 291.7635 -9166.9926 -7404.3521 297.1044 40.8892 122.4480 29922.2952 -232.1716 -165.0241
ENERGY: 900000 0.3643 3.2364 1.6759 0.0000 -10638.8658 1497.4787 0.0000 0.0000 1720.9859 -7415.1247 296.5889 -9136.1106 -7411.3951 297.4632 592.9186 590.7158 30086.1077 -157.9251 -97.2340
ENERGY: 1200000 1.7052 3.4113 1.0292 0.0000 -10639.4563 1411.7984 0.0000 0.0000 1742.1245 -7479.3877 300.2318 -9221.5122 -7421.5864 298.2682 -19.9550 84.4150 29508.1162 -159.5880 -94.1352
ENERGY: 1500000 0.2335 3.6309 1.5577 0.0000 -10631.1903 1472.1518 0.0000 0.0000 1771.1988 -7382.4177 305.2424 -9153.6164 -7418.4486 299.0075 315.1115 365.1547 30443.2280 -118.1012 -55.4717
TCL: Running FEP window  13: Lambda1 0.39999999999999963 Lambda2 0.34999999999999964 [dLambda -0.04999999999999999]
TCL: Setting parameter firsttimestep to 0
TCL: Setting parameter alchLambda to 0.39999999999999963
Info: NONBONDED TABLE R-SQUARED SPACING: 0.0625
Info: NONBONDED TABLE SIZE: 705 POINTS
TCL: Setting parameter alchLambda2 to 0.34999999999999964
Info: NONBONDED TABLE R-SQUARED SPACING: 0.0625
Info: NONBONDED TABLE SIZE: 705 POINTS
TCL: Running for 1500000 steps
ETITLE: TS BOND ANGLE DIHED IMPRP ELECT VDW BOUNDARY MISC KINETIC TOTAL TEMP POTENTIAL TOTALAVG TEMPAVG PRESSURE GPRESSURE VOLUME PRESSAVG GPRESSAVG
ENERGY: 0 0.2335 3.6309 1.5577 0.0000 -10631.1914 1472.1285 0.0000 0.0000 1770.3504 -7383.2905 305.0962 -9153.6409 -7383.2905 305.0962 284.4493 364.0854 30443.2280 284.4493 364.0854
ENERGY: 300000 1.3097 3.0216 0.8539 0.0000 -10616.2456 1396.6896 0.0000 0.0000 1721.5217 -7492.8490 296.6812 -9214.3708 -7422.3847 299.6988 -393.8244 -337.2325 29934.8072 -66.2235 15.8831
ENERGY: 600000 1.4661 4.0206 2.9017 0.0000 -10565.1382 1372.9582 0.0000 0.0000 1669.9983 -7513.7933 287.8018 -9183.7916 -7454.2901 296.8001 -728.6137 -651.6365 30266.7727 -30.6997 30.9094
ENERGY: 900000 0.9667 4.9508 1.1358 0.0000 -10539.0961 1429.2016 0.0000 0.0000 1742.3966 -7360.4446 300.2787 -9102.8412 -7431.1828 297.8116 316.6785 395.4428 29917.6746 -85.8797 -30.0800
ENERGY: 1200000 0.9093 2.7885 2.1015 0.0000 -10621.1474 1499.2410 0.0000 0.0000 1770.6546 -7345.4526 305.1486 -9116.1071 -7432.2629 297.8041 726.4526 787.0437 29895.9717 -141.9897 -88.2750
ENERGY: 1500000 0.4679 3.8938 2.0252 0.0000 -10416.9381 1350.4377 0.0000 0.0000 1755.2460 -7304.8676 302.4931 -9060.1136 -7421.1913 298.4804 -599.5808 -608.2997 30790.1992 -200.2586 -155.0171
TCL: Running FEP window  14: Lambda1 0.34999999999999964 Lambda2 0.29999999999999966 [dLambda -0.04999999999999999]
TCL: Setting parameter firsttimestep to 0
TCL: Setting parameter alchLambda to 0.34999999999999964
Info: NONBONDED TABLE R-SQUARED SPACING: 0.0625
Info: NONBONDED TABLE SIZE: 705 POINTS
TCL: Setting parameter alchLambda2 to 0.29999999999999966
Info: NONBONDED TABLE R-SQUARED SPACING: 0.0625
Info: NONBONDED TABLE SIZE: 705 POINTS
TCL: Running for 1500000 steps
ETITLE: TS BOND ANGLE DIHED IMPRP ELECT VDW BOUNDARY MISC KINETIC TOTAL TEMP POTENTIAL TOTALAVG TEMPAVG PRESSURE GPRESSURE VOLUME PRESSAVG GPRESSAVG
ENERGY: 0 0.4679 3.8938 2.0252 0.0000 -10416.9398 1350.5832 0.0000 0.0000 1754.4219 -7305.5479 302.3511 -9059.9698 -7305.5479 302.3511 -692.2993 -610.4372 30790.1992 -692.2993 -610.4372
ENERGY: 300000 0.8933 3.8136 2.0896 0.0000 -10686.9176 1478.6820 0.0000 0.0000 1752.7144 -7448.7247 302.0569 -9201.4391 -7408.9614 300.8087 401.6814 482.9922 29686.0963 -70.3168 -1.8176
ENERGY: 600000 0.8348 2.7426 1.5536 0.0000 -10701.2031 1526.8084 0.0000 0.0000 1676.2046 -7493.0592 288.8714 -9169.2638 -7434.7639 298.2407 522.0106 593.4951 30245.4756 84.9037 146.7054
ENERGY: 900000 0.7993 3.5175 1.6125 0.0000 -10461.2287 1376.0301 0.0000 0.0000 1736.4045 -7342.8647 299.2461 -9079.2692 -7413.4657 299.8686 -418.9696 -349.2432 30475.5130 125.7441 190.5822
ENERGY: 1200000 0.3008 3.4044 1.5298 0.0000 -10715.6508 1436.6926 0.0000 0.0000 1681.0540 -7592.6692 289.7071 -9273.7231 -7435.0703 298.8430 11.5748 37.6298 29506.0603 10.7167 81.2407
ENERGY: 1500000 0.4664 2.3655 1.8150 0.0000 -10616.5996 1423.9727 0.0000 0.0000 1769.2236 -7418.7563 304.9020 -9187.9799 -7434.7976 299.8170 -222.7638 -186.4177 30227.6540 -94.7336 -23.7861
TCL: Running FEP window  15: Lambda1 0.29999999999999966 Lambda2 0.24999999999999967 [dLambda -0.04999999999999999]
TCL: Setting parameter firsttimestep to 0
TCL: Setting parameter alchLambda to 0.29999999999999966
Info: NONBONDED TABLE R-SQUARED SPACING: 0.0625
Info: NONBONDED TABLE SIZE: 705 POINTS
TCL: Setting parameter alchLambda2 to 0.24999999999999967
Info: NONBONDED TABLE R-SQUARED SPACING: 0.0625
Info: NONBONDED TABLE SIZE: 705 POINTS
TCL: Running for 1500000 steps
ETITLE: TS BOND ANGLE DIHED IMPRP ELECT VDW BOUNDARY MISC KINETIC TOTAL TEMP POTENTIAL TOTALAVG TEMPAVG PRESSURE GPRESSURE VOLUME PRESSAVG GPRESSAVG
ENERGY: 0 0.4664 2.3655 1.8150 0.0000 -10616.5994 1424.0573 0.0000 0.0000 1768.3228 -7419.5723 304.7467 -9187.8951 -7419.5723 304.7467 -273.2026 -190.0575 30227.6540 -273.2026 -190.0575
ENERGY: 300000 0.6095 4.7789 1.7659 0.0000 -10598.2861 1442.9686 0.0000 0.0000 1738.9147 -7409.2485 299.6787 -9148.1633 -7433.6887 299.3873 188.0037 157.7620 29888.0985 -192.2107 -151.8243
ENERGY: 600000 2.8694 3.4688 0.9394 0.0000 -10594.1442 1451.4588 0.0000 0.0000 1720.3627 -7415.0450 296.4815 -9135.4077 -7421.7890 299.9950 40.9335 30.2303 30501.7657 -140.6936 -101.0197
ENERGY: 900000 2.4251 1.4067 1.7930 0.0000 -10674.4789 1463.4757 0.0000 0.0000 1656.1101 -7549.2684 285.4084 -9205.3785 -7453.1737 297.6614 -306.8252 -237.8720 30545.8842 -121.4172 -70.2821
ENERGY: 1200000 1.7468 3.0953 2.5052 0.0000 -10573.4848 1450.2493 0.0000 0.0000 1756.9128 -7358.9754 302.7804 -9115.8882 -7450.3397 297.6965 388.4757 453.9999 29912.2799 19.9409 72.2693
ENERGY: 1500000 1.5203 3.1210 1.5394 0.0000 -10637.5436 1487.1894 0.0000 0.0000 1681.6083 -7462.5652 289.8027 -9144.1735 -7442.5674 297.3171 902.2446 904.9691 29496.0858 66.4814 119.6234
TCL: Running FEP window  16: Lambda1 0.24999999999999967 Lambda2 0.19999999999999968 [dLambda -0.04999999999999999]
TCL: Setting parameter firsttimestep to 0
TCL: Setting parameter alchLambda to 0.24999999999999967
Info: NONBONDED TABLE R-SQUARED SPACING: 0.0625
Info: NONBONDED TABLE SIZE: 705 POINTS
TCL: Setting parameter alchLambda2 to 0.19999999999999968
Info: NONBONDED TABLE R-SQUARED SPACING: 0.0625
Info: NONBONDED TABLE SIZE: 705 POINTS
TCL: Running for 1500000 steps
ETITLE: TS BOND ANGLE DIHED IMPRP ELECT VDW BOUNDARY MISC KINETIC TOTAL TEMP POTENTIAL TOTALAVG TEMPAVG PRESSURE GPRESSURE VOLUME PRESSAVG GPRESSAVG
ENERGY: 0 1.5203 3.1210 1.5394 0.0000 -10637.5429 1487.0335 0.0000 0.0000 1680.7538 -7463.5749 289.6554 -9144.3288 -7463.5749 289.6554 818.5082 902.0723 29496.0858 818.5082 902.0723
ENERGY: 300000 2.9149 2.6578 0.9278 0.0000 -10695.0490 1460.0952 0.0000 0.0000 1683.7168 -7544.7366 290.1660 -9228.4534 -7433.9909 292.8363 44.0348 125.0741 29791.7624 -108.7852 -47.6023
ENERGY: 600000 1.2427 2.3927 1.5500 0.0000 -10567.7269 1423.1314 0.0000 0.0000 1768.6556 -7370.7545 304.8041 -9139.4101 -7427.3119 297.5725 46.4767 186.3183 30016.1952 -13.2964 61.3951
ENERGY: 900000 0.9495 1.6011 0.7679 0.0000 -10664.6543 1397.8731 0.0000 0.0000 1739.2575 -7524.2052 299.7377 -9263.4627 -7423.0878 298.9152 -589.0631 -536.1022 29848.0899 -98.0031 -28.1563
ENERGY: 1200000 0.7826 3.3063 2.1306 0.0000 -10520.1711 1404.7859 0.0000 0.0000 1757.9806 -7351.1851 302.9644 -9109.1657 -7406.6267 300.2144 -92.6860 -25.0343 30152.8454 -113.5768 -48.0834
ENERGY: 1500000 0.0832 3.8474 1.5082 0.0000 -10667.6091 1550.3014 0.0000 0.0000 1755.5439 -7356.3251 302.5445 -9111.8690 -7396.7023 300.9116 1226.3619 1308.2684 29732.9745 -71.2475 -11.1718
TCL: Running FEP window  17: Lambda1 0.19999999999999968 Lambda2 0.1499999999999997 [dLambda -0.04999999999999999]
TCL: Setting parameter firsttimestep to 0
TCL: Setting parameter alchLambda to 0.19999999999999968
Info: NONBONDED TABLE R-SQUARED SPACING: 0.0625
Info: NONBONDED TABLE SIZE: 705 POINTS
TCL: Setting parameter alchLambda2 to 0.1499999999999997
Info: NONBONDED TABLE R-SQUARED SPACING: 0.0625
Info: NONBONDED TABLE SIZE: 705 POINTS
TCL: Running for 1500000 steps
ETITLE: TS BOND ANGLE DIHED IMPRP ELECT VDW BOUNDARY MISC KINETIC TOTAL TEMP POTENTIAL TOTALAVG TEMPAVG PRESSURE GPRESSURE VOLUME PRESSAVG GPRESSAVG
ENERGY: 0 0.0832 3.8474 1.5082 0.0000 -10667.6094 1550.1115 0.0000 0.0000 1754.6822 -7357.3768 302.3960 -9112.0591 -7357.3768 302.3960 1210.0958 1302.9441 29732.9745 1210.0958 1302.9441
ENERGY: 300000 1.5695 1.9031 2.7605 0.0000 -10374.4511 1315.7262 0.0000 0.0000 1773.3019 -7279.1900 305.6048 -9052.4919 -7418.1774 298.9466 -406.8576 -423.0297 29967.7246 238.6673 310.0408
ENERGY: 600000 0.8742 3.2542 0.7633 0.0000 -10566.0669 1450.4635 0.0000 0.0000 1773.9270 -7336.7848 305.7126 -9110.7118 -7411.1616 299.0445 176.1942 209.9004 30445.5682 90.1593 159.6283
ENERGY: 900000 0.7158 1.3426 1.5851 0.0000 -10544.6924 1440.8229 0.0000 0.0000 1754.8069 -7345.4192 302.4175 -9100.2261 -7410.2089 299.3248 178.9282 214.4264 30561.2961 29.7374 78.4140
ENERGY: 1200000 1.6122 2.4197 1.3209 0.0000 -10659.4984 1465.9393 0.0000 0.0000 1720.3853 -7467.8209 296.4854 -9188.2063 -7411.5955 300.0822 288.0112 336.6613 29603.5290 -46.1523 6.7904
ENERGY: 1500000 1.9408 1.5121 1.5360 0.0000 -10494.4292 1335.4399 0.0000 0.0000 1773.1282 -7380.8723 305.5749 -9154.0005 -7403.9472 300.5964 -528.5351 -430.5982 29876.4891 -79.1989 -24.3806
TCL: Running FEP window  18: Lambda1 0.1499999999999997 Lambda2 0.09999999999999969 [dLambda -0.05 ]
TCL: Setting parameter firsttimestep to 0
TCL: Setting parameter alchLambda to 0.1499999999999997
Info: NONBONDED TABLE R-SQUARED SPACING: 0.0625
Info: NONBONDED TABLE SIZE: 705 POINTS
TCL: Setting parameter alchLambda2 to 0.09999999999999969
Info: NONBONDED TABLE R-SQUARED SPACING: 0.0625
Info: NONBONDED TABLE SIZE: 705 POINTS
TCL: Running for 1500000 steps
ETITLE: TS BOND ANGLE DIHED IMPRP ELECT VDW BOUNDARY MISC KINETIC TOTAL TEMP POTENTIAL TOTALAVG TEMPAVG PRESSURE GPRESSURE VOLUME PRESSAVG GPRESSAVG
ENERGY: 0 1.9408 1.5121 1.5360 0.0000 -10494.4297 1335.7467 0.0000 0.0000 1772.2512 -7381.4430 305.4238 -9153.6942 -7381.4430 305.4238 -506.2655 -431.9826 29876.4891 -506.2655 -431.9826
ENERGY: 300000 0.4363 4.3586 1.5977 0.0000 -10454.3449 1385.2643 0.0000 0.0000 1751.7477 -7310.9403 301.8903 -9062.6881 -7387.9512 299.4631 10.0529 75.6576 30067.7206 -313.0777 -228.5864
ENERGY: 600000 1.1391 1.7226 1.5304 0.0000 -10604.1863 1395.3300 0.0000 0.0000 1788.0415 -7416.4228 308.1450 -9204.4643 -7399.9101 302.1780 -279.5229 -205.4633 29901.8187 -260.2769 -167.1282
ENERGY: 900000 0.1290 4.0808 0.8087 0.0000 -10707.8093 1491.9403 0.0000 0.0000 1771.6454 -7439.2052 305.3194 -9210.8506 -7406.4485 301.8453 326.7365 382.5039 29985.6843 -206.6246 -136.1203
ENERGY: 1200000 0.2580 2.5996 0.8837 0.0000 -10574.5160 1368.9626 0.0000 0.0000 1730.8548 -7470.9572 298.2896 -9201.8120 -7405.6272 301.8685 -626.6595 -489.6592 29980.5634 -120.4001 -41.8158
ENERGY: 1500000 0.2372 4.5609 0.9905 0.0000 -10472.2276 1313.1521 0.0000 0.0000 1773.4424 -7379.8445 305.6290 -9153.2869 -7399.7761 302.5632 -997.2820 -884.1555 30161.5320 -111.7173 -35.4314
TCL: Running FEP window  19: Lambda1 0.09999999999999969 Lambda2 0.049999999999999684 [dLambda -0.05 ]
TCL: Setting parameter firsttimestep to 0
TCL: Setting parameter alchLambda to 0.09999999999999969
Info: NONBONDED TABLE R-SQUARED SPACING: 0.0625
Info: NONBONDED TABLE SIZE: 705 POINTS
TCL: Setting parameter alchLambda2 to 0.049999999999999684
Info: NONBONDED TABLE R-SQUARED SPACING: 0.0625
Info: NONBONDED TABLE SIZE: 705 POINTS
TCL: Running for 1500000 steps
ETITLE: TS BOND ANGLE DIHED IMPRP ELECT VDW BOUNDARY MISC KINETIC TOTAL TEMP POTENTIAL TOTALAVG TEMPAVG PRESSURE GPRESSURE VOLUME PRESSAVG GPRESSAVG
ENERGY: 0 0.2372 4.5609 0.9905 0.0000 -10472.2276 1312.9207 0.0000 0.0000 1772.5803 -7380.9381 305.4805 -9153.5184 -7380.9381 305.4805 -979.5749 -887.4750 30161.5320 -979.5749 -887.4750
ENERGY: 300000 0.4169 2.0673 1.6729 0.0000 -10595.0635 1410.6938 0.0000 0.0000 1763.5155 -7416.6971 303.9183 -9180.2126 -7363.4188 305.6016 -210.6385 -133.7673 30093.7145 -360.1549 -289.0962
ENERGY: 600000 0.4337 2.0852 1.6927 0.0000 -10495.5129 1363.1088 0.0000 0.0000 1772.1981 -7355.9944 305.4146 -9128.1925 -7390.1736 301.3066 -487.0866 -396.7832 30330.4269 -328.2033 -250.3949
ENERGY: 900000 0.7699 2.1018 0.7603 0.0000 -10614.4134 1508.9387 0.0000 0.0000 1772.4795 -7329.3631 305.4631 -9101.8426 -7381.0862 302.0416 439.2817 448.4923 30853.1413 -200.2115 -129.9917
ENERGY: 1200000 2.0559 1.4532 2.2019 0.0000 -10661.9347 1429.6125 0.0000 0.0000 1756.2060 -7470.4052 302.6586 -9226.6112 -7393.1152 303.2203 122.7816 137.6241 29773.5337 -197.8415 -128.9735
ENERGY: 1500000 1.5337 8.1273 1.7221 0.0000 -10666.9977 1547.3096 0.0000 0.0000 1691.6889 -7416.6161 291.5399 -9108.3050 -7397.4904 302.7324 1434.6295 1465.2920 29520.0579 -49.6887 16.1071
TCL: Running FEP window  20: Lambda1 0.049999999999999684 Lambda2 0.0    [dLambda -0.049999999999999684]
TCL: Setting parameter firsttimestep to 0
TCL: Setting parameter alchLambda to 0.049999999999999684
Info: NONBONDED TABLE R-SQUARED SPACING: 0.0625
Info: NONBONDED TABLE SIZE: 705 POINTS
TCL: Setting parameter alchLambda2 to 0.0
Info: NONBONDED TABLE R-SQUARED SPACING: 0.0625
Info: NONBONDED TABLE SIZE: 705 POINTS
TCL: Running for 1500000 steps
ETITLE: TS BOND ANGLE DIHED IMPRP ELECT VDW BOUNDARY MISC KINETIC TOTAL TEMP POTENTIAL TOTALAVG TEMPAVG PRESSURE GPRESSURE VOLUME PRESSAVG GPRESSAVG
ENERGY: 0 1.5337 8.1273 1.7221 0.0000 -10666.9979 1547.5883 0.0000 0.0000 1690.8249 -7417.2016 291.3910 -9108.0266 -7417.2016 291.3910 1380.3850 1462.4897 29520.0579 1380.3850 1462.4897
ENERGY: 300000 1.3481 4.5426 1.5507 0.0000 -10447.4239 1359.4226 0.0000 0.0000 1725.9024 -7354.6574 297.4362 -9080.5598 -7386.5250 299.9049 -410.6974 -372.6366 30360.5958 202.2996 261.7186
ENERGY: 600000 0.9024 1.7896 1.8203 0.0000 -10640.1134 1454.9754 0.0000 0.0000 1781.6111 -7399.0146 307.0368 -9180.6257 -7395.1491 300.2531 290.2327 326.9210 29794.4286 80.2231 137.3474
ENERGY: 900000 0.8140 2.7091 1.6232 0.0000 -10675.2793 1485.4124 0.0000 0.0000 1720.2109 -7464.5097 296.4553 -9184.7207 -7403.6340 299.6025 238.4071 373.4498 30435.3123 -41.4699 26.6304
ENERGY: 1200000 2.0055 2.7331 1.8983 0.0000 -10622.3472 1439.9703 0.0000 0.0000 1784.7009 -7391.0390 307.5693 -9175.7399 -7406.9335 300.5486 -82.6396 55.7488 30287.0760 -8.5235 54.3388
ENERGY: 1500000 0.1198 1.9549 1.4970 0.0000 -10497.4444 1341.9860 0.0000 0.0000 1735.3341 -7416.5525 299.0616 -9151.8866 -7414.9832 300.4383 -698.5515 -662.7270 29997.2189 -141.8304 -82.9628
TCL: Exiting due to exit command.
