Info: SIMULATION PARAMETERS:
Info: TIMESTEP               1
Info: NUMBER OF STEPS        0
Info: STEPS PER CYCLE        10
Info: PERIODIC CELL BASIS 1  30 0 0
Info: PERIODIC CELL BASIS 2  0 30 0
Info: PERIODIC CELL BASIS 3  0 0 30
Info: PERIODIC CELL CENTER   0 0 0
Info: WRAPPING ALL CLUSTERS AROUND PERIODIC BOUNDARIES ON OUTPUT.
Info: FIRST LDB TIMESTEP     50
Info: LAST LDB TIMESTEP     -1
Info: HOM BACKGROUND SCALING 1
Info: MIN ATOMS PER PATCH    40
Info: EMPTY PATCH LOAD       40 ATOMS
Info: INITIAL TEMPERATURE    298
Info: CENTER OF MASS MOVING INITIALLY? NO
Info: DIELECTRIC             1
Info: EXCLUDE                SCALED ONE-FOUR
Info: 1-4 ELECTROSTATICS SCALED BY 1
Info: MODIFIED 1-4 VDW PARAMETERS WILL BE USED
Info: DCD FILENAME           output.dcd
Info: DCD FREQUENCY          25000
Info: DCD FIRST STEP         25000
Info: DCD FILE WILL CONTAIN UNIT CELL DATA
Info: NO EXTENDED SYSTEM TRAJECTORY OUTPUT
Info: NO VELOCITY DCD OUTPUT
Info: NO FORCE DCD OUTPUT
Info: OUTPUT FILENAME        output
Info: BINARY OUTPUT FILES WILL BE USED
Info: NO RESTART FILE
Info: SWITCHING ACTIVE
Info: SWITCHING ON           10
Info: SWITCHING OFF          12
Info: PAIRLIST DISTANCE      14
Info: PAIRLIST SHRINK RATE   0.01
Info: PAIRLIST GROW RATE     0.01
Info: PAIRLIST TRIGGER       0.3
Info: PAIRLISTS PER CYCLE    2
Info: PAIRLISTS ENABLED
Info: MARGIN                 0
Info: HYDROGEN GROUP CUTOFF  2.5
Info: PATCH DIMENSION        16.5
Info: ENERGY OUTPUT STEPS    25000
Info: ENERGY EVALUATION STEPS    25000
Info: OUTPUT ENERGY PRECISION 4
Info: CROSSTERM ENERGY INCLUDED IN DIHEDRAL
Info: TIMING OUTPUT STEPS    25000
Info: LANGEVIN DYNAMICS ACTIVE
Info: LANGEVIN TEMPERATURE   298
Info: LANGEVIN USING BBK INTEGRATOR
Info: LANGEVIN DAMPING COEFFICIENT IS 1 INVERSE PS
Info: LANGEVIN DYNAMICS NOT APPLIED TO HYDROGENS
Info: MULTILEVEL SUMMATION METHOD (MSM) FOR ELECTROSTATICS ACTIVE
Info: MSM WITH C1 CUBIC INTERPOLATION AND C2 TAYLOR SPLITTING
Info: FULL ELECTROSTATIC EVALUATION FREQUENCY      1
Info: USING VERLET I (r-RESPA) MTS SCHEME.
Info: C1 SPLITTING OF LONG RANGE ELECTROSTATICS
Info: PLACING ATOMS IN PATCHES BY HYDROGEN GROUPS
Info: RIGID BONDS TO HYDROGEN : ALL
Info:         ERROR TOLERANCE : 1e-08
Info:          MAX ITERATIONS : 100
Info: RIGID WATER USING SETTLE ALGORITHM
Info: RANDOM NUMBER SEED     1740262172
Info: USE HYDROGEN BONDS?    NO
Info: COORDINATE PDB         ionized.pdb
Info: STRUCTURE FILE         ionized.psf
Info: PARAMETER file: CHARMM format!
Info: PARAMETERS             par_all27_prot_lipid.inp
Info: USING ARITHMETIC MEAN TO COMBINE L-J SIGMA PARAMETERS
Info: SUMMARY OF PARAMETERS:
Info: 180 BONDS
Info: 447 ANGLES
Info: 566 DIHEDRAL
Info: 46 IMPROPER
Info: 6 CROSSTERM
Info: 119 VDW
Info: 0 VDW_PAIRS
Info: 0 NBTHOLE_PAIRS
Info: STRUCTURE SUMMARY:
Info: 2476 ATOMS
Info: 1650 BONDS
Info: 825 ANGLES
Info: 0 DIHEDRALS
Info: 0 IMPROPERS
Info: 0 CROSSTERMS
Info: 0 EXCLUSIONS
Info: 2475 RIGID BONDS
Info: 4953 DEGREES OF FREEDOM
Info: 826 HYDROGEN GROUPS
Info: 3 ATOMS IN LARGEST HYDROGEN GROUP
Info: 826 MIGRATION GROUPS
Info: 3 ATOMS IN LARGEST MIGRATION GROUP
Info: TOTAL MASS = 14885.7 amu
Info: TOTAL CHARGE = 1 e
Info: MASS DENSITY = 0.915513 g/cm^3
Info: ATOM DENSITY = 0.0917037 atoms/A^3
Info: ADDED 2475 IMPLICIT EXCLUSIONS
Info: NONBONDED TABLE R-SQUARED SPACING: 0.0625
Info: NONBONDED TABLE SIZE: 769 POINTS
Info: REMOVING COM VELOCITY -0.00612068 -0.029249 -0.174252
Info: MSM using C1 cubic interpolation
Info: MSM using C2 Taylor splitting function
Info: MSM block size decomposition along X is 8 grid points
Info: MSM block size decomposition along Y is 8 grid points
Info: MSM block size decomposition along Z is 8 grid points
Info: MSM grid spacing along X is 2.5 A
Info: MSM grid spacing along Y is 2.5 A
Info: MSM grid spacing along Z is 2.5 A
Info: MSM using 3 levels
Info:     level 0:  [0..11] x [0..11] x [0..11]
Info:     level 1:  [0..5] x [0..5] x [0..5]
Info:     level 2:  [0..2] x [0..2] x [0..2]
Info: MSM finished calculating stencils
Info: MSM finished creating map for grid levels
Info: MSM finished creating map for patches
Info: MSM has 9 interpolation / anterpolation objects (one per patch)
Info: MSM grid level 0 decomposed into 8 blocks ( 2 x 2 x 2 )
Info: MSM grid level 1 decomposed into 1 block ( 1 x 1 x 1 )
Info: MSM grid level 2 decomposed into 1 block ( 1 x 1 x 1 )
Info: MSM grid cutoff calculation decomposed into 783 work objects
TCL: Minimizing for 1000 steps
ETITLE: TS BOND ANGLE DIHED IMPRP ELECT VDW BOUNDARY MISC KINETIC TOTAL TEMP POTENTIAL TOTAL3 TEMPAVG PRESSURE GPRESSURE VOLUME PRESSAVG GPRESSAVG
ENERGY: 0 0.0000 0.0000 0.0000 0.0000 -7348.6496 6353.7252 0.0000 0.0000 0.0000 -994.9244 0.0000 -994.9244 -994.9244 0.0000 75204.0846 46356.0499 27000.0000 75204.0846 46356.0499
ENERGY: 200 0.0000 0.0000 0.0000 0.0000 -10389.6991 1021.4898 0.0000 0.0000 0.0000 -9368.2093 0.0000 -9368.2093 -9368.2093 0.0000 17873.0503 17812.2167 27000.0000 17873.0503 17812.2167
ENERGY: 400 0.0000 0.0000 0.0000 0.0000 -10935.2726 1251.6583 0.0000 0.0000 0.0000 -9683.6143 0.0000 -9683.6143 -9683.6143 0.0000 20433.7592 20353.7593 27000.0000 20433.7592 20353.7593
ENERGY: 600 0.0000 0.0000 0.0000 0.0000 -11088.1993 1293.8453 0.0000 0.0000 0.0000 -9794.3540 0.0000 -9794.3540 -9794.3540 0.0000 20934.3902 20856.1693 27000.0000 20934.3902 20856.1693
ENERGY: 800 0.0000 0.0000 0.0000 0.0000 -11186.5127 1320.3602 0.0000 0.0000 0.0000 -9866.1525 0.0000 -9866.1525 -9866.1525 0.0000 21220.4875 21166.2025 27000.0000 21220.4875 21166.2025
ENERGY: 1000 0.0000 0.0000 0.0000 0.0000 -11266.6965 1342.6349 0.0000 0.0000 0.0000 -9924.0616 0.0000 -9924.0616 -9924.0616 0.0000 21473.6137 21420.9222 27000.0000 21473.6137 21420.9222
TCL: Running for 5000000 steps
ETITLE: TS BOND ANGLE DIHED IMPRP ELECT VDW BOUNDARY MISC KINETIC TOTAL TEMP POTENTIAL TOTAL3 TEMPAVG PRESSURE GPRESSURE VOLUME PRESSAVG GPRESSAVG
ENERGY: 25000 0.0000 0.0000 0.0000 0.0000 -8762.6159 778.6879 0.0000 0.0000 1446.1284 -6537.7996 293.8522 -7983.9280 -6537.0558 273.7190 -1892.0227 -1892.1822 27000.0000 -1414.5254 -1414.6099
ENERGY: 1025000 0.0000 0.0000 0.0000 0.0000 -8859.3419 874.6600 0.0000 0.0000 1504.5194 -6480.1624 305.7172 -7984.6819 -6479.3521 296.9674 -997.8029 -990.3973 27000.0000 -1364.5310 -1364.5301
ENERGY: 2025000 0.0000 0.0000 0.0000 0.0000 -8942.6366 888.3514 0.0000 0.0000 1476.1570 -6578.1282 299.9540 -8054.2852 -6577.1611 294.5877 -947.3188 -958.8893 27000.0000 -1322.4676 -1322.3923
ENERGY: 3000000 0.0000 0.0000 0.0000 0.0000 -8838.9258 847.4708 0.0000 0.0000 1478.1892 -6513.2658 300.3669 -7991.4550 -6512.3448 299.1864 -1098.7718 -1098.9369 27000.0000 -1272.2111 -1272.0882
ENERGY: 4000000 0.0000 0.0000 0.0000 0.0000 -8918.1841 844.0001 0.0000 0.0000 1452.3276 -6621.8565 295.1118 -8074.1840 -6620.7000 294.5673 -1557.1331 -1547.7604 27000.0000 -1364.9137 -1364.8043
ENERGY: 5000000 0.0000 0.0000 0.0000 0.0000 -8849.7763 844.8242 0.0000 0.0000 1437.6664 -6567.2857 292.1327 -8004.9521 -6567.1820 300.1504 -1364.4778 -1368.0831 27000.0000 -1258.7325 -1258.6875
