Info: SIMULATION PARAMETERS:
Info: TIMESTEP               2
Info: NUMBER OF STEPS        0
Info: STEPS PER CYCLE        10
Info: PERIODIC CELL BASIS 1  39.546 0 0
Info: PERIODIC CELL BASIS 2  0 40.343 0
Info: PERIODIC CELL BASIS 3  0 0 40.47
Info: PERIODIC CELL CENTER   0 0 0
Info: WRAPPING WATERS AROUND PERIODIC BOUNDARIES ON OUTPUT.
Info: WRAPPING ALL CLUSTERS AROUND PERIODIC BOUNDARIES ON OUTPUT.
Info: FIRST LDB TIMESTEP     50
Info: LAST LDB TIMESTEP     -1
Info: HOM BACKGROUND SCALING 1
Info: PME BACKGROUND SCALING 1
Info: MIN ATOMS PER PATCH    40
Info: EMPTY PATCH LOAD       40 ATOMS
Info: INITIAL TEMPERATURE    300
Info: CENTER OF MASS MOVING INITIALLY? NO
Info: DIELECTRIC             1
Info: EXCLUDE                SCALED ONE-FOUR
Info: 1-4 ELECTROSTATICS SCALED BY 0.833333
Info: MODIFIED 1-4 VDW PARAMETERS WILL BE USED
Info: DCD FILENAME           mobley_9557440_min.dcd
Info: DCD FREQUENCY          5000
Info: DCD FIRST STEP         5000
Info: DCD FILE WILL CONTAIN UNIT CELL DATA
Info: XST FILENAME           mobley_9557440_min.xst
Info: XST FREQUENCY          5000
Info: NO VELOCITY DCD OUTPUT
Info: NO FORCE DCD OUTPUT
Info: OUTPUT FILENAME        mobley_9557440_min
Info: BINARY OUTPUT FILES WILL BE USED
Info: RESTART FILENAME       mobley_9557440_min.restart
Info: RESTART FREQUENCY      5000
Info: BINARY RESTART FILES WILL BE USED
Info: CUTOFF                 9
Info: PAIRLIST DISTANCE      11
Info: PAIRLIST SHRINK RATE   0.01
Info: PAIRLIST GROW RATE     0.01
Info: PAIRLIST TRIGGER       0.3
Info: PAIRLISTS PER CYCLE    2
Info: PAIRLISTS ENABLED
Info: MARGIN                 8
Info: HYDROGEN GROUP CUTOFF  2.5
Info: PATCH DIMENSION        21.5
Info: ENERGY OUTPUT STEPS    5000
Info: ENERGY EVALUATION STEPS    5000
Info: OUTPUT ENERGY PRECISION 4
Info: CROSSTERM ENERGY INCLUDED IN DIHEDRAL
Info: TIMING OUTPUT STEPS    50000
Info: PRESSURE OUTPUT STEPS  5000
Info: LANGEVIN DYNAMICS ACTIVE
Info: LANGEVIN TEMPERATURE   300
Info: LANGEVIN USING BBK INTEGRATOR
Info: LANGEVIN DAMPING COEFFICIENT IS 1 INVERSE PS
Info: LANGEVIN DYNAMICS APPLIED TO HYDROGENS
Info: LANGEVIN PISTON PRESSURE CONTROL ACTIVE
Info:        TARGET PRESSURE IS 1.01325 BAR
Info:     OSCILLATION PERIOD IS 50 FS
Info:             DECAY TIME IS 25 FS
Info:     PISTON TEMPERATURE IS 300 K
Info:       PRESSURE CONTROL IS GROUP-BASED
Info:    INITIAL STRAIN RATE IS 0 0 0
Info:       CELL FLUCTUATION IS ISOTROPIC
Info: PARTICLE MESH EWALD (PME) ACTIVE
Info: PME TOLERANCE               1e-06
Info: PME EWALD COEFFICIENT       0.348832
Info: PME INTERPOLATION ORDER     4
Info: PME GRID DIMENSIONS         40 44 44
Info: PME MAXIMUM GRID SPACING    1
Info: FULL ELECTROSTATIC EVALUATION FREQUENCY      2
Info: USING VERLET I (r-RESPA) MTS SCHEME.
Info: C1 SPLITTING OF LONG RANGE ELECTROSTATICS
Info: PLACING ATOMS IN PATCHES BY HYDROGEN GROUPS
Info: RIGID BONDS TO HYDROGEN : ALL
Info:         ERROR TOLERANCE : 1e-08
Info:          MAX ITERATIONS : 100
Info: RIGID WATER USING SETTLE ALGORITHM
Info: RANDOM NUMBER SEED     1741402133
Info: USE HYDROGEN BONDS?    NO
Info: Using AMBER format force field!
Info: AMBER PARM FILE        mobley_9557440.prmtop
Info: COORDINATE PDB         mobley_9557440.pdb
Info: Exclusions will be read from PARM file!
Info: SCNB (VDW SCALING)     2
Info: USING ARITHMETIC MEAN TO COMBINE L-J SIGMA PARAMETERS
Info: SUMMARY OF PARAMETERS:
Info: 10 BONDS
Info: 14 ANGLES
Info:   14 HARMONIC
Info:   0 COSINE-BASED
Info: 7 DIHEDRAL
Info: 0 IMPROPER
Info: 0 CROSSTERM
Info: 0 VDW
Info: 36 VDW_PAIRS
Info: 0 NBTHOLE_PAIRS
Info: STRUCTURE SUMMARY:
Info: 4689 ATOMS
Info: 4689 BONDS
Info: 18 ANGLES
Info: 31 DIHEDRALS
Info: 0 IMPROPERS
Info: 0 CROSSTERMS
Info: 4728 EXCLUSIONS
Info: 4680 RIGID BONDS
Info: 9387 DEGREES OF FREEDOM
Info: 1568 HYDROGEN GROUPS
Info: 3 ATOMS IN LARGEST HYDROGEN GROUP
Info: 1568 MIGRATION GROUPS
Info: 3 ATOMS IN LARGEST MIGRATION GROUP
Info: TOTAL MASS = 28233.5 amu
Info: TOTAL CHARGE = 0.000100046 e
Info: MASS DENSITY = 0.726139 g/cm^3
Info: ATOM DENSITY = 0.0726233 atoms/A^3
Info: ADDED 0 IMPLICIT EXCLUSIONS
Info: NONBONDED TABLE R-SQUARED SPACING: 0.0625
Info: NONBONDED TABLE SIZE: 705 POINTS
Info: REMOVING COM VELOCITY 0.0068738 -0.0991008 -0.093157
TCL: Minimizing for 2000 steps
ETITLE: TS BOND ANGLE DIHED IMPRP ELECT VDW BOUNDARY MISC KINETIC TOTAL TEMP POTENTIAL TOTAL3 TEMPAVG PRESSURE GPRESSURE VOLUME PRESSAVG GPRESSAVG
ENERGY: 0 0.8955 1.0699 12.0001 0.0000 -14897.2095 1701.4564 0.0000 0.0000 0.0000 -13181.7876 0.0000 -13181.7876 -13181.7876 0.0000 11339.5897 -15936.3888 64566.0111 11339.5897 -15936.3888
ENERGY: 400 3.1077 3.0030 13.0481 0.0000 -19792.4255 2828.0083 0.0000 0.0000 0.0000 -16945.2584 0.0000 -16945.2584 -16945.2584 0.0000 15780.3863 15596.2684 64566.0111 15780.3863 15596.2684
ENERGY: 800 10.6975 3.6197 12.4936 0.0000 -20861.3967 3348.4345 0.0000 0.0000 0.0000 -17486.1514 0.0000 -17486.1514 -17486.1514 0.0000 18297.0928 18088.1312 64566.0111 18297.0928 18088.1312
ENERGY: 1200 20.7128 6.2442 12.4963 0.0000 -21197.0461 3515.8927 0.0000 0.0000 0.0000 -17641.7002 0.0000 -17641.7002 -17641.7002 0.0000 19189.7296 18912.4709 64566.0111 19189.7296 18912.4709
ENERGY: 1600 1.0435 0.8606 12.0834 0.0000 -21410.2237 3614.5519 0.0000 0.0000 0.0000 -17781.6843 0.0000 -17781.6843 -17781.6843 0.0000 19733.3844 19423.0557 64566.0111 19733.3844 19423.0557
ENERGY: 2000 1.0064 0.8840 12.0701 0.0000 -21549.6648 3664.8447 0.0000 0.0000 0.0000 -17870.8597 0.0000 -17870.8597 -17870.8597 0.0000 19994.7839 19687.7289 64566.0111 19994.7839 19687.7289
TCL: Exiting due to exit command.
Info: NAMD 3.0.1 for Linux-x86_64-multicore
Info: Please visit http://www.ks.uiuc.edu/Research/namd/
Info: for updates, documentation, and support information.
Info: Please cite Phillips et al., J. Chem. Phys. 153:044130 (2020) doi:10.1063/5.0014475
Info: in all publications reporting results obtained with NAMD.
Info: Based on Charm++/Converse 80000 for multicore-linux-x86_64-gcc
Info: Built Mon Oct 14 11:11:06 CDT 2024 by dhardy on athine.ks.uiuc.edu
Info: 1 NAMD  3.0.1  Linux-x86_64-multicore  16    k061  z5358697
Info: Running on 16 processors, 1 nodes, 1 physical nodes.
Info: CPU topology information available.
Info: Charm++/Converse parallel runtime startup completed at 0.0104885 s
Info: 1043.46 MB of memory in use based on /proc/self/stat
Info: Configuration file is mobley_9557440_equil.namd
Info: Working in the current directory /srv/scratch/z5358697/prod_prep_12/9557440
TCL: Running 25000 steps at 30 kelvin.
TCL: Suspending until startup complete.
Info: SIMULATION PARAMETERS:
Info: TIMESTEP               2
Info: NUMBER OF STEPS        0
Info: STEPS PER CYCLE        10
Info: PERIODIC CELL BASIS 1  39.546 0 0
Info: PERIODIC CELL BASIS 2  0 40.343 0
Info: PERIODIC CELL BASIS 3  0 0 40.47
Info: PERIODIC CELL CENTER   0 0 0
Info: WRAPPING WATERS AROUND PERIODIC BOUNDARIES ON OUTPUT.
Info: WRAPPING ALL CLUSTERS AROUND PERIODIC BOUNDARIES ON OUTPUT.
Info: FIRST LDB TIMESTEP     50
Info: LAST LDB TIMESTEP     -1
Info: HOM BACKGROUND SCALING 1
Info: PME BACKGROUND SCALING 1
Info: MIN ATOMS PER PATCH    40
Info: EMPTY PATCH LOAD       40 ATOMS
Info: INITIAL TEMPERATURE    300
Info: CENTER OF MASS MOVING INITIALLY? NO
Info: DIELECTRIC             1
Info: EXCLUDE                SCALED ONE-FOUR
Info: 1-4 ELECTROSTATICS SCALED BY 0.833333
Info: MODIFIED 1-4 VDW PARAMETERS WILL BE USED
Info: DCD FILENAME           mobley_9557440_equil.dcd
Info: DCD FREQUENCY          5000
Info: DCD FIRST STEP         5000
Info: DCD FILE WILL CONTAIN UNIT CELL DATA
Info: XST FILENAME           mobley_9557440_equil.xst
Info: XST FREQUENCY          5000
Info: NO VELOCITY DCD OUTPUT
Info: NO FORCE DCD OUTPUT
Info: OUTPUT FILENAME        mobley_9557440_equil
Info: BINARY OUTPUT FILES WILL BE USED
Info: RESTART FILENAME       mobley_9557440_equil.restart
Info: RESTART FREQUENCY      5000
Info: BINARY RESTART FILES WILL BE USED
Info: CUTOFF                 9
Info: PAIRLIST DISTANCE      11
Info: PAIRLIST SHRINK RATE   0.01
Info: PAIRLIST GROW RATE     0.01
Info: PAIRLIST TRIGGER       0.3
Info: PAIRLISTS PER CYCLE    2
Info: PAIRLISTS ENABLED
Info: MARGIN                 8
Info: HYDROGEN GROUP CUTOFF  2.5
Info: PATCH DIMENSION        21.5
Info: ENERGY OUTPUT STEPS    5000
Info: ENERGY EVALUATION STEPS    5000
Info: OUTPUT ENERGY PRECISION 4
Info: CROSSTERM ENERGY INCLUDED IN DIHEDRAL
Info: TIMING OUTPUT STEPS    50000
Info: PRESSURE OUTPUT STEPS  5000
Info: LANGEVIN DYNAMICS ACTIVE
Info: LANGEVIN TEMPERATURE   30
Info: LANGEVIN USING BBK INTEGRATOR
Info: LANGEVIN DAMPING COEFFICIENT IS 1 INVERSE PS
Info: LANGEVIN DYNAMICS APPLIED TO HYDROGENS
Info: LANGEVIN PISTON PRESSURE CONTROL ACTIVE
Info:        TARGET PRESSURE IS 1.01325 BAR
Info:     OSCILLATION PERIOD IS 50 FS
Info:             DECAY TIME IS 25 FS
Info:     PISTON TEMPERATURE IS 300 K
Info:       PRESSURE CONTROL IS GROUP-BASED
Info:    INITIAL STRAIN RATE IS 0 0 0
Info:       CELL FLUCTUATION IS ISOTROPIC
Info: PARTICLE MESH EWALD (PME) ACTIVE
Info: PME TOLERANCE               1e-06
Info: PME EWALD COEFFICIENT       0.348832
Info: PME INTERPOLATION ORDER     4
Info: PME GRID DIMENSIONS         40 44 44
Info: PME MAXIMUM GRID SPACING    1
Info: FULL ELECTROSTATIC EVALUATION FREQUENCY      2
Info: USING VERLET I (r-RESPA) MTS SCHEME.
Info: C1 SPLITTING OF LONG RANGE ELECTROSTATICS
Info: PLACING ATOMS IN PATCHES BY HYDROGEN GROUPS
Info: RIGID BONDS TO HYDROGEN : ALL
Info:         ERROR TOLERANCE : 1e-08
Info:          MAX ITERATIONS : 100
Info: RIGID WATER USING SETTLE ALGORITHM
Info: RANDOM NUMBER SEED     1741402150
Info: USE HYDROGEN BONDS?    NO
Info: Using AMBER format force field!
Info: AMBER PARM FILE        mobley_9557440.prmtop
Info: COORDINATE PDB         mobley_9557440.pdb
Info: Exclusions will be read from PARM file!
Info: SCNB (VDW SCALING)     2
Info: USING ARITHMETIC MEAN TO COMBINE L-J SIGMA PARAMETERS
Info: BINARY COORDINATES     mobley_9557440_min.coor
Info: SUMMARY OF PARAMETERS:
Info: 10 BONDS
Info: 14 ANGLES
Info:   14 HARMONIC
Info:   0 COSINE-BASED
Info: 7 DIHEDRAL
Info: 0 IMPROPER
Info: 0 CROSSTERM
Info: 0 VDW
Info: 36 VDW_PAIRS
Info: 0 NBTHOLE_PAIRS
Info: STRUCTURE SUMMARY:
Info: 4689 ATOMS
Info: 4689 BONDS
Info: 18 ANGLES
Info: 31 DIHEDRALS
Info: 0 IMPROPERS
Info: 0 CROSSTERMS
Info: 4728 EXCLUSIONS
Info: 4680 RIGID BONDS
Info: 9387 DEGREES OF FREEDOM
Info: 1568 HYDROGEN GROUPS
Info: 3 ATOMS IN LARGEST HYDROGEN GROUP
Info: 1568 MIGRATION GROUPS
Info: 3 ATOMS IN LARGEST MIGRATION GROUP
Info: TOTAL MASS = 28233.5 amu
Info: TOTAL CHARGE = 0.000100046 e
Info: MASS DENSITY = 0.726139 g/cm^3
Info: ATOM DENSITY = 0.0726233 atoms/A^3
Info: ADDED 0 IMPLICIT EXCLUSIONS
Info: NONBONDED TABLE R-SQUARED SPACING: 0.0625
Info: NONBONDED TABLE SIZE: 705 POINTS
Info: REMOVING COM VELOCITY -0.0796684 0.110198 0.0131702
TCL: Running for 25000 steps
ETITLE: TS BOND ANGLE DIHED IMPRP ELECT VDW BOUNDARY MISC KINETIC TOTAL TEMP POTENTIAL TOTAL3 TEMPAVG PRESSURE GPRESSURE VOLUME PRESSAVG GPRESSAVG
ENERGY: 0 1.0064 0.8840 12.0701 0.0000 -21549.6648 3664.8447 0.0000 0.0000 2864.6152 -15006.2445 307.1354 -17870.8597 -15005.6327 307.1354 210.7862 241.2100 64566.0111 210.7862 241.2100
ENERGY: 5000 0.8291 2.2614 12.5218 0.0000 -22447.7056 3708.0750 0.0000 0.0000 285.6905 -18438.3278 30.6309 -18724.0183 -18437.7796 48.1973 -1063.2230 -987.7872 46710.2169 0.8311 0.7962
ENERGY: 10000 1.2094 0.8835 12.4259 0.0000 -22639.1821 3859.1925 0.0000 0.0000 285.1870 -18480.2838 30.5769 -18765.4708 -18479.5334 30.2201 -228.3920 -173.4022 46061.2182 0.4204 0.3768
ENERGY: 15000 1.2637 1.4645 12.5940 0.0000 -22849.7901 4038.0609 0.0000 0.0000 272.0336 -18524.3735 29.1666 -18796.4071 -18524.0659 30.0846 678.2268 758.9907 45630.9539 11.3251 11.2941
ENERGY: 20000 1.1861 1.2889 12.5386 0.0000 -22856.2616 4038.1778 0.0000 0.0000 282.9058 -18520.1645 30.3323 -18803.0702 -18519.7207 30.0978 673.5580 742.8055 45526.4045 1.6569 1.6138
ENERGY: 25000 2.0118 1.4007 12.6457 0.0000 -22649.7579 3803.9999 0.0000 0.0000 282.3717 -18547.3281 30.2750 -18829.6997 -18546.3789 30.2455 -641.2836 -601.1611 45927.7334 2.6037 2.5299
TCL: Running 25000 steps at 60 kelvin.
TCL: Setting parameter langevinTemp to 60
TCL: Running for 25000 steps
ETITLE: TS BOND ANGLE DIHED IMPRP ELECT VDW BOUNDARY MISC KINETIC TOTAL TEMP POTENTIAL TOTAL3 TEMPAVG PRESSURE GPRESSURE VOLUME PRESSAVG GPRESSAVG
ENERGY: 25000 2.0118 1.4007 12.6457 0.0000 -22649.7579 3803.9999 0.0000 0.0000 282.2289 -18547.4708 30.2597 -18829.6997 -18546.8350 30.2597 -659.0116 -601.2217 45927.7334 -659.0116 -601.2217
ENERGY: 30000 2.0794 1.8134 12.3774 0.0000 -22250.1186 3656.6432 0.0000 0.0000 571.5329 -18005.6724 61.2780 -18577.2053 -18004.0528 57.6026 -738.9369 -689.2049 45823.6978 2.5286 2.5571
ENERGY: 35000 1.3730 1.6783 13.1149 0.0000 -22416.1648 3786.6334 0.0000 0.0000 571.4819 -18041.8832 61.2726 -18613.3651 -18040.8085 60.4605 -137.8700 -84.6590 45727.1725 0.3761 0.2807
ENERGY: 40000 2.6630 1.8488 14.7452 0.0000 -22674.5929 4008.6777 0.0000 0.0000 548.9071 -18097.7512 58.8522 -18646.6583 -18097.2252 60.2491 1113.9464 1155.2979 45081.9884 7.6300 7.4045
ENERGY: 45000 1.0057 0.8337 13.1475 0.0000 -22489.8217 3819.5762 0.0000 0.0000 553.9329 -18101.3256 59.3910 -18655.2586 -18099.9914 60.3346 -23.6628 18.5768 45402.0215 3.4854 3.4241
ENERGY: 50000 1.8596 1.3924 12.9418 0.0000 -22620.4592 3927.5636 0.0000 0.0000 571.3988 -18105.3029 61.2637 -18676.7017 -18103.9117 60.5496 488.6251 579.2591 45266.2926 -2.1584 -1.9062
TCL: Running 25000 steps at 90 kelvin.
TCL: Setting parameter langevinTemp to 90
TCL: Running for 25000 steps
ETITLE: TS BOND ANGLE DIHED IMPRP ELECT VDW BOUNDARY MISC KINETIC TOTAL TEMP POTENTIAL TOTAL3 TEMPAVG PRESSURE GPRESSURE VOLUME PRESSAVG GPRESSAVG
ENERGY: 50000 1.8596 1.3924 12.9418 0.0000 -22620.4592 3927.5636 0.0000 0.0000 571.1175 -18105.5843 61.2335 -18676.7017 -18104.3882 61.2335 520.4787 579.1236 45266.2926 520.4787 579.1236
ENERGY: 55000 1.9148 1.9014 12.7242 0.0000 -22243.0755 3811.7851 0.0000 0.0000 844.4646 -17570.2855 90.5409 -18414.7500 -17568.3875 87.1790 597.8671 695.5290 45252.0047 3.7250 3.5736
ENERGY: 60000 2.9584 1.6320 12.8017 0.0000 -22197.3960 3739.0006 0.0000 0.0000 862.6756 -17578.3278 92.4935 -18441.0033 -17576.2121 90.7734 79.5445 147.5372 45641.6601 5.1354 5.0415
ENERGY: 65000 1.5552 1.9286 12.9564 0.0000 -22137.3771 3641.8820 0.0000 0.0000 830.0435 -17649.0114 88.9948 -18479.0549 -17646.6705 90.1913 -524.9246 -456.8541 45757.0482 4.1739 3.8872
ENERGY: 70000 1.4096 1.0224 12.4362 0.0000 -22247.5155 3730.6775 0.0000 0.0000 844.1055 -17657.8642 90.5024 -18501.9697 -17656.4730 89.5949 -216.5513 -170.5663 45689.8863 5.6947 5.3918
ENERGY: 75000 2.3542 1.5555 13.0768 0.0000 -22164.6921 3644.0941 0.0000 0.0000 849.5541 -17654.0574 91.0866 -18503.6115 -17651.6257 90.3545 -701.2965 -628.6418 45892.3826 7.4851 7.9019
TCL: Running 25000 steps at 120 kelvin.
TCL: Setting parameter langevinTemp to 120
TCL: Running for 25000 steps
ETITLE: TS BOND ANGLE DIHED IMPRP ELECT VDW BOUNDARY MISC KINETIC TOTAL TEMP POTENTIAL TOTAL3 TEMPAVG PRESSURE GPRESSURE VOLUME PRESSAVG GPRESSAVG
ENERGY: 75000 2.3542 1.5555 13.0768 0.0000 -22164.6921 3644.0941 0.0000 0.0000 849.1450 -17654.4665 91.0428 -18503.6115 -17652.5851 91.0428 -696.7807 -628.7019 45892.3826 -696.7807 -628.7019
ENERGY: 80000 1.5837 3.4442 12.6511 0.0000 -21561.1735 3369.3220 0.0000 0.0000 1151.9657 -17022.2068 123.5103 -18174.1725 -17019.3628 116.9797 -1478.7730 -1411.4085 46472.8848 -1.4642 -1.3913
ENERGY: 85000 2.2581 1.5058 13.2512 0.0000 -21755.8901 3517.8132 0.0000 0.0000 1108.2362 -17112.8256 118.8217 -18221.0618 -17109.6039 120.4695 -818.9244 -764.2671 46460.9603 4.2213 4.2440
ENERGY: 90000 4.9756 2.6859 12.8496 0.0000 -21972.8852 3710.8995 0.0000 0.0000 1132.7880 -17108.6865 121.4541 -18241.4745 -17105.5218 120.2619 358.1569 411.2964 45900.8997 2.5013 2.3007
ENERGY: 95000 2.0651 1.5051 13.6221 0.0000 -21884.5793 3656.3806 0.0000 0.0000 1134.3439 -17076.6625 121.6209 -18211.0064 -17074.4354 120.5578 94.0260 170.0206 45804.0889 3.0350 2.9383
ENERGY: 100000 0.9902 2.1054 13.8383 0.0000 -21929.9654 3663.0381 0.0000 0.0000 1117.3116 -17132.6816 119.7948 -18249.9933 -17129.1541 120.3990 39.3843 86.6041 45856.8021 1.3145 1.4630
TCL: Running 25000 steps at 150 kelvin.
TCL: Setting parameter langevinTemp to 150
TCL: Running for 25000 steps
ETITLE: TS BOND ANGLE DIHED IMPRP ELECT VDW BOUNDARY MISC KINETIC TOTAL TEMP POTENTIAL TOTAL3 TEMPAVG PRESSURE GPRESSURE VOLUME PRESSAVG GPRESSAVG
ENERGY: 100000 0.9902 2.1054 13.8383 0.0000 -21929.9654 3663.0381 0.0000 0.0000 1116.7706 -17133.2227 119.7368 -18249.9933 -17130.9824 119.7368 25.2200 86.9722 45856.8021 25.2200 86.9722
ENERGY: 105000 2.5142 2.0730 12.9820 0.0000 -21545.2467 3612.7112 0.0000 0.0000 1411.8096 -16503.1567 151.3700 -17914.9663 -16499.0067 146.4960 383.8863 443.3223 46217.7155 1.0254 1.6212
ENERGY: 110000 2.3906 1.8427 13.7795 0.0000 -21671.9081 3709.5377 0.0000 0.0000 1396.5238 -16547.8338 149.7311 -17944.3576 -16546.0386 149.9761 1033.8077 1087.4695 45674.5189 -1.8449 -2.0871
ENERGY: 115000 2.4900 2.8069 14.5166 0.0000 -21408.1042 3417.5458 0.0000 0.0000 1408.6835 -16562.0615 151.0348 -17970.7449 -16559.2349 149.6259 -788.6336 -763.9863 46537.3332 1.6381 1.1398
ENERGY: 120000 3.5148 3.6086 13.1139 0.0000 -21453.5395 3464.0127 0.0000 0.0000 1432.7400 -16536.5495 153.6141 -17969.2895 -16533.1172 151.3271 -467.0303 -408.4632 46286.4857 9.1437 9.0845
ENERGY: 125000 2.5044 2.4769 14.2372 0.0000 -21641.0482 3640.2918 0.0000 0.0000 1422.1103 -16559.4276 152.4744 -17981.5379 -16556.1506 149.9424 437.2497 462.0627 46080.3612 2.2722 2.3170
TCL: Running 50000 steps at 180 kelvin.
TCL: Setting parameter langevinTemp to 180
TCL: Running for 50000 steps
ETITLE: TS BOND ANGLE DIHED IMPRP ELECT VDW BOUNDARY MISC KINETIC TOTAL TEMP POTENTIAL TOTAL3 TEMPAVG PRESSURE GPRESSURE VOLUME PRESSAVG GPRESSAVG
ENERGY: 125000 2.5044 2.4769 14.2372 0.0000 -21641.0482 3640.2918 0.0000 0.0000 1421.4324 -16560.1055 152.4017 -17981.5379 -16557.3404 152.4017 413.0674 462.0945 46080.3612 413.0674 462.0945
ENERGY: 135000 1.1129 3.3332 13.8711 0.0000 -21006.4913 3393.3279 0.0000 0.0000 1673.5972 -15921.2489 179.4380 -17594.8462 -15917.1302 180.6692 328.5736 359.4634 45592.7143 4.5111 4.5855
ENERGY: 145000 3.1320 2.4576 14.4630 0.0000 -21047.5499 3434.9103 0.0000 0.0000 1695.8124 -15896.7747 181.8199 -17592.5871 -15894.9397 180.6681 284.2858 323.8897 46426.7991 2.9857 3.2504
ENERGY: 155000 3.1014 1.0298 16.1385 0.0000 -21013.8781 3318.8736 0.0000 0.0000 1706.6742 -15968.0607 182.9845 -17674.7349 -15963.5894 180.3606 -531.4310 -501.2438 46646.5199 -2.7835 -2.7247
ENERGY: 165000 2.4355 2.0179 12.8844 0.0000 -21031.8397 3342.8221 0.0000 0.0000 1701.5690 -15970.1108 182.4371 -17671.6797 -15967.3167 179.9208 -322.0314 -285.6935 46334.4754 2.5675 2.4443
ENERGY: 175000 2.3154 3.1164 12.6823 0.0000 -20968.3547 3383.9762 0.0000 0.0000 1673.3752 -15892.8892 179.4142 -17566.2644 -15887.0877 180.4754 22.2360 70.5119 46221.9869 5.0010 4.8039
TCL: Running 50000 steps at 210 kelvin.
TCL: Setting parameter langevinTemp to 210
TCL: Running for 50000 steps
ETITLE: TS BOND ANGLE DIHED IMPRP ELECT VDW BOUNDARY MISC KINETIC TOTAL TEMP POTENTIAL TOTAL3 TEMPAVG PRESSURE GPRESSURE VOLUME PRESSAVG GPRESSAVG
ENERGY: 175000 2.3154 3.1164 12.6823 0.0000 -20968.3547 3383.9762 0.0000 0.0000 1672.5114 -15893.7530 179.3216 -17566.2644 -15891.0106 179.3216 -2.5213 71.2768 46221.9869 -2.5213 71.2768
ENERGY: 185000 4.9784 5.2768 16.0460 0.0000 -19875.6889 2932.2826 0.0000 0.0000 1986.8641 -14930.2410 213.0256 -16917.1050 -14928.4956 209.4468 -457.1389 -373.8076 45799.8819 1.8685 2.0668
ENERGY: 195000 4.0490 3.4796 13.8552 0.0000 -19875.3801 2955.8395 0.0000 0.0000 1964.3787 -14933.7780 210.6147 -16898.1567 -14927.3033 209.1269 -304.8715 -213.1036 45495.4667 6.7179 6.7367
ENERGY: 205000 1.4177 1.7700 17.0210 0.0000 -20011.8318 3099.5564 0.0000 0.0000 1974.0414 -14918.0255 211.6508 -16892.0668 -14914.4418 210.5612 295.6530 371.7854 45799.4355 1.4142 1.2349
ENERGY: 215000 1.3103 4.4484 14.2478 0.0000 -19863.7520 3033.0790 0.0000 0.0000 2003.1080 -14807.5587 214.7672 -16810.6666 -14803.9366 209.4564 58.1877 131.9288 46047.1373 0.1431 0.0001
ENERGY: 225000 2.2819 0.8218 13.7231 0.0000 -19899.8569 2923.5133 0.0000 0.0000 1957.1758 -15002.3410 209.8425 -16959.5168 -14997.7846 209.9022 -883.0295 -821.5125 46459.4223 -0.4599 -0.8338
TCL: Running 50000 steps at 240 kelvin.
TCL: Setting parameter langevinTemp to 240
TCL: Running for 50000 steps
ETITLE: TS BOND ANGLE DIHED IMPRP ELECT VDW BOUNDARY MISC KINETIC TOTAL TEMP POTENTIAL TOTAL3 TEMPAVG PRESSURE GPRESSURE VOLUME PRESSAVG GPRESSAVG
ENERGY: 225000 2.2819 0.8218 13.7231 0.0000 -19899.8569 2923.5133 0.0000 0.0000 1956.1797 -15003.3371 209.7357 -16959.5168 -14999.5326 209.7357 -887.8521 -821.4675 46459.4223 -887.8521 -821.4675
ENERGY: 235000 1.1348 3.8557 14.2290 0.0000 -19076.5258 2802.0297 0.0000 0.0000 2258.6755 -13996.6011 242.1684 -16255.2767 -13994.3283 240.6476 450.5107 537.7269 45483.2708 1.6547 1.6664
ENERGY: 245000 1.4238 2.6418 14.0432 0.0000 -19197.1365 2863.1365 0.0000 0.0000 2229.3339 -14086.5574 239.0224 -16315.8912 -14081.0178 238.8267 367.5330 445.9210 46393.1154 0.0156 0.1454
ENERGY: 255000 1.3608 4.7413 13.5502 0.0000 -18929.3939 2755.2931 0.0000 0.0000 2216.6612 -13937.7873 237.6637 -16154.4485 -13931.7960 239.1101 251.9361 302.8255 46093.1298 1.7941 2.0005
ENERGY: 265000 2.4272 3.3037 13.8743 0.0000 -18754.6899 2598.7211 0.0000 0.0000 2208.3703 -13927.9933 236.7748 -16136.3636 -13923.9645 240.1597 -433.7485 -337.7002 45681.3734 1.9130 1.8991
ENERGY: 275000 2.7392 1.4313 16.1438 0.0000 -19012.8357 2799.1584 0.0000 0.0000 2255.6927 -13937.6704 241.8486 -16193.3630 -13931.9894 240.2409 471.6241 555.0685 45807.1208 3.6086 2.5276
TCL: Running 50000 steps at 270 kelvin.
TCL: Setting parameter langevinTemp to 270
TCL: Running for 50000 steps
ETITLE: TS BOND ANGLE DIHED IMPRP ELECT VDW BOUNDARY MISC KINETIC TOTAL TEMP POTENTIAL TOTAL3 TEMPAVG PRESSURE GPRESSURE VOLUME PRESSAVG GPRESSAVG
ENERGY: 275000 2.7392 1.4313 16.1438 0.0000 -19012.8357 2799.1584 0.0000 0.0000 2254.5899 -13938.7731 241.7303 -16193.3630 -13935.9081 241.7303 474.9028 555.7775 45807.1208 474.9028 555.7775
ENERGY: 285000 6.3492 3.7018 13.7428 0.0000 -18195.5956 2647.9854 0.0000 0.0000 2499.4301 -13024.3863 267.9813 -15523.8164 -13019.6056 270.9444 502.8373 575.9274 47676.8636 -2.1627 -2.3275
ENERGY: 295000 6.6824 3.2214 16.6034 0.0000 -18022.6206 2508.0997 0.0000 0.0000 2590.2144 -12897.7993 277.7150 -15488.0137 -12895.4186 271.1600 286.1877 327.5735 47129.9976 -1.8336 -2.1592
ENERGY: 305000 2.9396 5.0031 12.8347 0.0000 -17982.2227 2334.0580 0.0000 0.0000 2477.2553 -13150.1321 265.6038 -15627.3874 -13142.8306 269.8063 -1076.9789 -1017.7340 47441.8604 4.4456 5.1686
ENERGY: 315000 2.2735 2.0922 13.7526 0.0000 -17988.9082 2464.4723 0.0000 0.0000 2447.2741 -13059.0435 262.3893 -15506.3175 -13054.3371 271.7632 -384.6048 -281.0920 47477.4684 3.6239 2.8248
ENERGY: 325000 6.3945 2.5155 12.7538 0.0000 -18043.0536 2536.1325 0.0000 0.0000 2467.9146 -13017.3427 264.6023 -15485.2573 -13014.6460 270.8753 29.6091 144.7103 47492.6935 -1.9649 -2.2290
TCL: Running 1000000 steps at 300 kelvin.
TCL: Setting parameter langevinTemp to 300
TCL: Running for 1000000 steps
ETITLE: TS BOND ANGLE DIHED IMPRP ELECT VDW BOUNDARY MISC KINETIC TOTAL TEMP POTENTIAL TOTAL3 TEMPAVG PRESSURE GPRESSURE VOLUME PRESSAVG GPRESSAVG
ENERGY: 325000 6.3945 2.5155 12.7538 0.0000 -18043.0536 2536.1325 0.0000 0.0000 2466.6397 -13018.6177 264.4657 -15485.2573 -13014.9137 264.4657 50.8306 143.7208 47492.6935 50.8306 143.7208
ENERGY: 525000 1.4023 0.9271 15.9112 0.0000 -17242.7274 2306.1805 0.0000 0.0000 2824.4234 -12093.8829 302.8261 -14918.3063 -12086.6599 298.2889 -65.1889 17.6952 48379.4432 8.7395 8.1146
ENERGY: 725000 4.0529 2.9458 15.2898 0.0000 -17213.1473 2285.8376 0.0000 0.0000 2782.1811 -12122.8400 298.2971 -14905.0211 -12118.5061 300.9271 -178.3028 -74.6245 48456.5961 2.8789 3.6261
ENERGY: 925000 3.5015 4.5023 13.3652 0.0000 -17261.7570 2266.1042 0.0000 0.0000 2824.5973 -12149.6864 302.8448 -14974.2837 -12145.3191 299.0667 -340.5935 -291.0366 48191.7989 4.0311 4.9879
ENERGY: 1125000 2.8489 2.4421 15.1500 0.0000 -17031.8926 2187.8449 0.0000 0.0000 2863.2372 -11960.3695 306.9876 -14823.6067 -11952.8985 299.6298 -390.3395 -328.8624 48388.0792 0.9271 0.9680
ENERGY: 1325000 1.3316 2.6945 13.8645 0.0000 -17273.5819 2331.2882 0.0000 0.0000 2763.2987 -12161.1046 296.2725 -14924.4033 -12155.3548 299.6647 219.1643 280.1487 47885.2435 4.4781 4.1578
TCL: Exiting due to exit command.
