Info: SIMULATION PARAMETERS:
Info: TIMESTEP               2
Info: NUMBER OF STEPS        0
Info: STEPS PER CYCLE        10
Info: PERIODIC CELL BASIS 1  35.89 0 0
Info: PERIODIC CELL BASIS 2  0 35.779 0
Info: PERIODIC CELL BASIS 3  0 0 34.68
Info: PERIODIC CELL CENTER   0 0 0
Info: WRAPPING WATERS AROUND PERIODIC BOUNDARIES ON OUTPUT.
Info: WRAPPING ALL CLUSTERS AROUND PERIODIC BOUNDARIES ON OUTPUT.
Info: FIRST LDB TIMESTEP     50
Info: LAST LDB TIMESTEP     -1
Info: HOM BACKGROUND SCALING 1
Info: PME BACKGROUND SCALING 1
Info: MIN ATOMS PER PATCH    40
Info: EMPTY PATCH LOAD       40 ATOMS
Info: INITIAL TEMPERATURE    300
Info: CENTER OF MASS MOVING INITIALLY? NO
Info: DIELECTRIC             1
Info: EXCLUDE                SCALED ONE-FOUR
Info: 1-4 ELECTROSTATICS SCALED BY 0.833333
Info: MODIFIED 1-4 VDW PARAMETERS WILL BE USED
Info: DCD FILENAME           mobley_9209581_equil.dcd
Info: DCD FREQUENCY          100000
Info: DCD FIRST STEP         100000
Info: DCD FILE WILL CONTAIN UNIT CELL DATA
Info: XST FILENAME           mobley_9209581_equil.xst
Info: XST FREQUENCY          100000
Info: NO VELOCITY DCD OUTPUT
Info: NO FORCE DCD OUTPUT
Info: OUTPUT FILENAME        mobley_9209581_equil
Info: BINARY OUTPUT FILES WILL BE USED
Info: RESTART FILENAME       mobley_9209581_equil.restart
Info: RESTART FREQUENCY      100000
Info: BINARY RESTART FILES WILL BE USED
Info: CUTOFF                 9
Info: PAIRLIST DISTANCE      11
Info: PAIRLIST SHRINK RATE   0.01
Info: PAIRLIST GROW RATE     0.01
Info: PAIRLIST TRIGGER       0.3
Info: PAIRLISTS PER CYCLE    2
Info: PAIRLISTS ENABLED
Info: MARGIN                 8
Info: HYDROGEN GROUP CUTOFF  2.5
Info: PATCH DIMENSION        21.5
Info: ENERGY OUTPUT STEPS    100000
Info: ENERGY EVALUATION STEPS    100000
Info: OUTPUT ENERGY PRECISION 4
Info: CROSSTERM ENERGY INCLUDED IN DIHEDRAL
Info: TIMING OUTPUT STEPS    1000000
Info: PRESSURE OUTPUT STEPS  100000
Info: LANGEVIN DYNAMICS ACTIVE
Info: LANGEVIN TEMPERATURE   30
Info: LANGEVIN USING BBK INTEGRATOR
Info: LANGEVIN DAMPING COEFFICIENT IS 1 INVERSE PS
Info: LANGEVIN DYNAMICS APPLIED TO HYDROGENS
Info: LANGEVIN PISTON PRESSURE CONTROL ACTIVE
Info:        TARGET PRESSURE IS 1.01325 BAR
Info:     OSCILLATION PERIOD IS 50 FS
Info:             DECAY TIME IS 25 FS
Info:     PISTON TEMPERATURE IS 300 K
Info:       PRESSURE CONTROL IS GROUP-BASED
Info:    INITIAL STRAIN RATE IS 0 0 0
Info:       CELL FLUCTUATION IS ISOTROPIC
Info: PARTICLE MESH EWALD (PME) ACTIVE
Info: PME TOLERANCE               1e-06
Info: PME EWALD COEFFICIENT       0.348832
Info: PME INTERPOLATION ORDER     4
Info: PME GRID DIMENSIONS         36 36 36
Info: PME MAXIMUM GRID SPACING    1
Info: FULL ELECTROSTATIC EVALUATION FREQUENCY      2
Info: USING VERLET I (r-RESPA) MTS SCHEME.
Info: C1 SPLITTING OF LONG RANGE ELECTROSTATICS
Info: PLACING ATOMS IN PATCHES BY HYDROGEN GROUPS
Info: RIGID BONDS TO HYDROGEN : ALL
Info:         ERROR TOLERANCE : 1e-08
Info:          MAX ITERATIONS : 100
Info: RIGID WATER USING SETTLE ALGORITHM
Info: RANDOM NUMBER SEED     1742531058
Info: USE HYDROGEN BONDS?    NO
Info: Using AMBER format force field!
Info: AMBER PARM FILE        mobley_9209581.prmtop
Info: COORDINATE PDB         mobley_9209581.pdb
Info: Exclusions will be read from PARM file!
Info: SCNB (VDW SCALING)     2
Info: USING ARITHMETIC MEAN TO COMBINE L-J SIGMA PARAMETERS
Info: BINARY COORDINATES     mobley_9209581_min.coor
Info: SUMMARY OF PARAMETERS:
Info: 4 BONDS
Info: 3 ANGLES
Info:   3 HARMONIC
Info:   0 COSINE-BASED
Info: 1 DIHEDRAL
Info: 0 IMPROPER
Info: 0 CROSSTERM
Info: 0 VDW
Info: 15 VDW_PAIRS
Info: 0 NBTHOLE_PAIRS
Info: STRUCTURE SUMMARY:
Info: 2905 ATOMS
Info: 2904 BONDS
Info: 21 ANGLES
Info: 18 DIHEDRALS
Info: 0 IMPROPERS
Info: 0 CROSSTERMS
Info: 2943 EXCLUSIONS
Info: 2901 RIGID BONDS
Info: 5814 DEGREES OF FREEDOM
Info: 968 HYDROGEN GROUPS
Info: 4 ATOMS IN LARGEST HYDROGEN GROUP
Info: 968 MIGRATION GROUPS
Info: 4 ATOMS IN LARGEST MIGRATION GROUP
Info: TOTAL MASS = 17426.5 amu
Info: TOTAL CHARGE = 0.000399988 e
Info: MASS DENSITY = 0.649815 g/cm^3
Info: ATOM DENSITY = 0.0652327 atoms/A^3
Info: ADDED 0 IMPLICIT EXCLUSIONS
Info: NONBONDED TABLE R-SQUARED SPACING: 0.0625
Info: NONBONDED TABLE SIZE: 705 POINTS
Info: REMOVING COM VELOCITY 0.0889279 -0.042061 -0.0298825
TCL: Running for 100000 steps
ETITLE: TS BOND ANGLE DIHED IMPRP ELECT VDW BOUNDARY MISC KINETIC TOTAL TEMP POTENTIAL TOTAL3 TEMPAVG PRESSURE GPRESSURE VOLUME PRESSAVG GPRESSAVG
ENERGY: 0 0.1554 0.1173 0.0633 0.0000 -13452.0237 2398.5398 0.0000 0.0000 1716.0251 -9337.1228 297.0565 -11053.1479 -9336.7700 297.0565 569.3062 600.1598 44532.8762 569.3062 600.1598
ENERGY: 100000 0.0832 0.6087 0.1488 0.0000 -14050.2990 2479.1785 0.0000 0.0000 174.9083 -11395.3716 30.2779 -11570.2800 -11395.0215 30.8753 123.7700 159.8161 28713.1568 4.1834 4.1754
TCL: Running 100000 steps at 60 kelvin.
TCL: Setting parameter langevinTemp to 60
TCL: Running for 100000 steps
ETITLE: TS BOND ANGLE DIHED IMPRP ELECT VDW BOUNDARY MISC KINETIC TOTAL TEMP POTENTIAL TOTAL3 TEMPAVG PRESSURE GPRESSURE VOLUME PRESSAVG GPRESSAVG
ENERGY: 100000 0.0832 0.6087 0.1488 0.0000 -14050.2990 2479.1785 0.0000 0.0000 174.8227 -11395.4572 30.2631 -11570.2800 -11395.1235 30.2631 103.5600 159.6793 28713.1568 103.5600 159.6793
ENERGY: 200000 0.7476 0.7650 0.1637 0.0000 -13897.7014 2409.3689 0.0000 0.0000 344.9851 -11141.6710 59.7194 -11486.6561 -11140.9562 59.8949 3.7507 20.7958 28475.5687 2.8591 2.8757
TCL: Running 100000 steps at 90 kelvin.
TCL: Setting parameter langevinTemp to 90
TCL: Running for 100000 steps
ETITLE: TS BOND ANGLE DIHED IMPRP ELECT VDW BOUNDARY MISC KINETIC TOTAL TEMP POTENTIAL TOTAL3 TEMPAVG PRESSURE GPRESSURE VOLUME PRESSAVG GPRESSAVG
ENERGY: 200000 0.7476 0.7650 0.1637 0.0000 -13897.7014 2409.3689 0.0000 0.0000 344.8165 -11141.8396 59.6903 -11486.6561 -11141.0874 59.6903 -27.6504 21.1854 28475.5687 -27.6504 21.1854
ENERGY: 300000 0.6519 2.1272 0.1830 0.0000 -13812.2971 2393.6275 0.0000 0.0000 505.9004 -10909.8072 87.5750 -11415.7075 -10908.7405 89.9840 91.4083 181.9771 28368.5363 4.2249 4.2748
TCL: Running 100000 steps at 120 kelvin.
TCL: Setting parameter langevinTemp to 120
TCL: Running for 100000 steps
ETITLE: TS BOND ANGLE DIHED IMPRP ELECT VDW BOUNDARY MISC KINETIC TOTAL TEMP POTENTIAL TOTAL3 TEMPAVG PRESSURE GPRESSURE VOLUME PRESSAVG GPRESSAVG
ENERGY: 300000 0.6519 2.1272 0.1830 0.0000 -13812.2971 2393.6275 0.0000 0.0000 505.6452 -10910.0624 87.5309 -11415.7075 -10908.8162 87.5309 123.7662 181.3824 28368.5363 123.7662 181.3824
ENERGY: 400000 0.5200 1.0343 0.3629 0.0000 -13358.5983 2095.6759 0.0000 0.0000 713.0593 -10547.9459 123.4358 -11261.0052 -10546.1691 119.8899 -1790.9105 -1721.4079 28769.0274 4.2944 4.2826
TCL: Running 100000 steps at 150 kelvin.
TCL: Setting parameter langevinTemp to 150
TCL: Running for 100000 steps
ETITLE: TS BOND ANGLE DIHED IMPRP ELECT VDW BOUNDARY MISC KINETIC TOTAL TEMP POTENTIAL TOTAL3 TEMPAVG PRESSURE GPRESSURE VOLUME PRESSAVG GPRESSAVG
ENERGY: 400000 0.5200 1.0343 0.3629 0.0000 -13358.5983 2095.6759 0.0000 0.0000 712.7215 -10548.2836 123.3773 -11261.0052 -10546.6436 123.3773 -1773.8381 -1721.4252 28769.0274 -1773.8381 -1721.4252
ENERGY: 500000 1.1361 2.6340 0.4322 0.0000 -13328.2716 2212.0477 0.0000 0.0000 881.9967 -10230.0249 152.6801 -11112.0216 -10227.2306 150.2594 -171.1544 -133.8224 28408.9420 2.9573 3.1168
TCL: Running 100000 steps at 180 kelvin.
TCL: Setting parameter langevinTemp to 180
TCL: Running for 100000 steps
ETITLE: TS BOND ANGLE DIHED IMPRP ELECT VDW BOUNDARY MISC KINETIC TOTAL TEMP POTENTIAL TOTAL3 TEMPAVG PRESSURE GPRESSURE VOLUME PRESSAVG GPRESSAVG
ENERGY: 500000 1.1361 2.6340 0.4322 0.0000 -13328.2716 2212.0477 0.0000 0.0000 881.5751 -10230.4465 152.6071 -11112.0216 -10228.4884 152.6071 -193.8438 -134.4598 28408.9420 -193.8438 -134.4598
ENERGY: 600000 0.8394 2.2611 2.1920 0.0000 -12847.9611 2065.3434 0.0000 0.0000 1035.7194 -9741.6057 179.2906 -10777.3252 -9739.0226 179.6940 -46.6116 18.4248 28397.4232 3.6509 3.5787
TCL: Running 100000 steps at 210 kelvin.
TCL: Setting parameter langevinTemp to 210
TCL: Running for 100000 steps
ETITLE: TS BOND ANGLE DIHED IMPRP ELECT VDW BOUNDARY MISC KINETIC TOTAL TEMP POTENTIAL TOTAL3 TEMPAVG PRESSURE GPRESSURE VOLUME PRESSAVG GPRESSAVG
ENERGY: 600000 0.8394 2.2611 2.1920 0.0000 -12847.9611 2065.3434 0.0000 0.0000 1035.2051 -9742.1200 179.2016 -10777.3252 -9739.9958 179.2016 -68.0547 17.1508 28397.4232 -68.0547 17.1508
ENERGY: 700000 1.2164 4.1860 0.4758 0.0000 -12226.9320 1851.0578 0.0000 0.0000 1260.0857 -9109.9103 218.1300 -10369.9960 -9106.0792 210.4070 198.9283 272.6681 27743.9506 2.4047 2.4667
TCL: Running 100000 steps at 240 kelvin.
TCL: Setting parameter langevinTemp to 240
TCL: Running for 100000 steps
ETITLE: TS BOND ANGLE DIHED IMPRP ELECT VDW BOUNDARY MISC KINETIC TOTAL TEMP POTENTIAL TOTAL3 TEMPAVG PRESSURE GPRESSURE VOLUME PRESSAVG GPRESSAVG
ENERGY: 700000 1.2164 4.1860 0.4758 0.0000 -12226.9320 1851.0578 0.0000 0.0000 1259.4917 -9110.5044 218.0272 -10369.9960 -9108.0992 218.0272 201.7611 274.2374 27743.9506 201.7611 274.2374
ENERGY: 800000 0.7266 3.8619 0.7249 0.0000 -11520.3848 1660.7721 0.0000 0.0000 1400.1588 -8454.1406 242.3777 -9854.2994 -8451.1229 240.2867 -223.5488 -161.7819 28848.6298 3.3603 3.3607
TCL: Running 100000 steps at 270 kelvin.
TCL: Setting parameter langevinTemp to 270
TCL: Running for 100000 steps
ETITLE: TS BOND ANGLE DIHED IMPRP ELECT VDW BOUNDARY MISC KINETIC TOTAL TEMP POTENTIAL TOTAL3 TEMPAVG PRESSURE GPRESSURE VOLUME PRESSAVG GPRESSAVG
ENERGY: 800000 0.7266 3.8619 0.7249 0.0000 -11520.3848 1660.7721 0.0000 0.0000 1399.4981 -8454.8013 242.2633 -9854.2994 -8452.8999 242.2633 -238.8336 -160.3216 28848.6298 -238.8336 -160.3216
ENERGY: 900000 0.7745 5.3890 0.4439 0.0000 -10965.1356 1521.0890 0.0000 0.0000 1613.4872 -7823.9519 279.3064 -9437.4391 -7819.9430 269.7764 280.8290 354.4064 28918.0576 1.2497 1.2232
TCL: Running 1000000 steps at 300 kelvin.
TCL: Setting parameter langevinTemp to 300
TCL: Running for 1000000 steps
ETITLE: TS BOND ANGLE DIHED IMPRP ELECT VDW BOUNDARY MISC KINETIC TOTAL TEMP POTENTIAL TOTAL3 TEMPAVG PRESSURE GPRESSURE VOLUME PRESSAVG GPRESSAVG
ENERGY: 900000 0.7745 5.3890 0.4439 0.0000 -10965.1356 1521.0890 0.0000 0.0000 1612.7349 -7824.7042 279.1762 -9437.4391 -7822.2603 279.1762 263.5764 356.0054 28918.0576 263.5764 356.0054
ENERGY: 1100000 1.3390 5.4802 0.4540 0.0000 -10482.8800 1374.3796 0.0000 0.0000 1718.0846 -7383.1426 297.4130 -9101.2272 -7378.4674 300.0733 -137.0421 -85.6382 29392.7177 1.8197 1.8741
ENERGY: 1300000 1.7751 5.4685 1.0913 0.0000 -10416.8149 1301.8441 0.0000 0.0000 1735.4810 -7371.1550 300.4244 -9106.6360 -7368.1782 300.2955 -1417.5167 -1256.6055 30733.7362 2.8676 2.8950
ENERGY: 1500000 1.5813 4.6472 1.3155 0.0000 -10496.2010 1340.9198 0.0000 0.0000 1700.9921 -7446.7451 294.4541 -9147.7372 -7443.4822 300.8032 -730.4932 -648.5814 30028.3940 3.0683 3.1178
ENERGY: 1700000 2.8782 4.2601 2.5170 0.0000 -10569.9183 1487.7126 0.0000 0.0000 1737.6321 -7334.9183 300.7968 -9072.5504 -7332.0295 300.0413 512.0901 577.0480 29760.1020 3.4986 3.6233
ENERGY: 1900000 0.3525 7.3229 1.0766 0.0000 -10606.0542 1479.0824 0.0000 0.0000 1745.3833 -7372.8364 302.1386 -9118.2198 -7369.4857 299.8420 636.0057 793.5042 29496.5136 2.3842 2.3081
TCL: Exiting due to exit command.
