Info: SIMULATION PARAMETERS:
Info: TIMESTEP               2
Info: NUMBER OF STEPS        0
Info: STEPS PER CYCLE        10
Info: PERIODIC CELL BASIS 1  35.89 0 0
Info: PERIODIC CELL BASIS 2  0 34.1 0
Info: PERIODIC CELL BASIS 3  0 0 36.583
Info: PERIODIC CELL CENTER   0 0 0
Info: WRAPPING WATERS AROUND PERIODIC BOUNDARIES ON OUTPUT.
Info: WRAPPING ALL CLUSTERS AROUND PERIODIC BOUNDARIES ON OUTPUT.
Info: FIRST LDB TIMESTEP     50
Info: LAST LDB TIMESTEP     -1
Info: HOM BACKGROUND SCALING 1
Info: PME BACKGROUND SCALING 1
Info: MIN ATOMS PER PATCH    40
Info: EMPTY PATCH LOAD       40 ATOMS
Info: INITIAL TEMPERATURE    300
Info: CENTER OF MASS MOVING INITIALLY? NO
Info: DIELECTRIC             1
Info: EXCLUDE                SCALED ONE-FOUR
Info: 1-4 ELECTROSTATICS SCALED BY 0.833333
Info: MODIFIED 1-4 VDW PARAMETERS WILL BE USED
Info: DCD FILENAME           mobley_3053621_equil.dcd
Info: DCD FREQUENCY          100000
Info: DCD FIRST STEP         100000
Info: DCD FILE WILL CONTAIN UNIT CELL DATA
Info: XST FILENAME           mobley_3053621_equil.xst
Info: XST FREQUENCY          100000
Info: NO VELOCITY DCD OUTPUT
Info: NO FORCE DCD OUTPUT
Info: OUTPUT FILENAME        mobley_3053621_equil
Info: BINARY OUTPUT FILES WILL BE USED
Info: RESTART FILENAME       mobley_3053621_equil.restart
Info: RESTART FREQUENCY      100000
Info: BINARY RESTART FILES WILL BE USED
Info: CUTOFF                 9
Info: PAIRLIST DISTANCE      11
Info: PAIRLIST SHRINK RATE   0.01
Info: PAIRLIST GROW RATE     0.01
Info: PAIRLIST TRIGGER       0.3
Info: PAIRLISTS PER CYCLE    2
Info: PAIRLISTS ENABLED
Info: MARGIN                 8
Info: HYDROGEN GROUP CUTOFF  2.5
Info: PATCH DIMENSION        21.5
Info: ENERGY OUTPUT STEPS    100000
Info: ENERGY EVALUATION STEPS    100000
Info: OUTPUT ENERGY PRECISION 4
Info: CROSSTERM ENERGY INCLUDED IN DIHEDRAL
Info: TIMING OUTPUT STEPS    1000000
Info: PRESSURE OUTPUT STEPS  100000
Info: LANGEVIN DYNAMICS ACTIVE
Info: LANGEVIN TEMPERATURE   30
Info: LANGEVIN USING BBK INTEGRATOR
Info: LANGEVIN DAMPING COEFFICIENT IS 1 INVERSE PS
Info: LANGEVIN DYNAMICS APPLIED TO HYDROGENS
Info: LANGEVIN PISTON PRESSURE CONTROL ACTIVE
Info:        TARGET PRESSURE IS 1.01325 BAR
Info:     OSCILLATION PERIOD IS 50 FS
Info:             DECAY TIME IS 25 FS
Info:     PISTON TEMPERATURE IS 300 K
Info:       PRESSURE CONTROL IS GROUP-BASED
Info:    INITIAL STRAIN RATE IS 0 0 0
Info:       CELL FLUCTUATION IS ISOTROPIC
Info: PARTICLE MESH EWALD (PME) ACTIVE
Info: PME TOLERANCE               1e-06
Info: PME EWALD COEFFICIENT       0.348832
Info: PME INTERPOLATION ORDER     4
Info: PME GRID DIMENSIONS         36 36 40
Info: PME MAXIMUM GRID SPACING    1
Info: FULL ELECTROSTATIC EVALUATION FREQUENCY      2
Info: USING VERLET I (r-RESPA) MTS SCHEME.
Info: C1 SPLITTING OF LONG RANGE ELECTROSTATICS
Info: PLACING ATOMS IN PATCHES BY HYDROGEN GROUPS
Info: RIGID BONDS TO HYDROGEN : ALL
Info:         ERROR TOLERANCE : 1e-08
Info:          MAX ITERATIONS : 100
Info: RIGID WATER USING SETTLE ALGORITHM
Info: RANDOM NUMBER SEED     1742136671
Info: USE HYDROGEN BONDS?    NO
Info: Using AMBER format force field!
Info: AMBER PARM FILE        mobley_3053621.prmtop
Info: COORDINATE PDB         mobley_3053621.pdb
Info: Exclusions will be read from PARM file!
Info: SCNB (VDW SCALING)     2
Info: USING ARITHMETIC MEAN TO COMBINE L-J SIGMA PARAMETERS
Info: BINARY COORDINATES     mobley_3053621_min.coor
Info: SUMMARY OF PARAMETERS:
Info: 4 BONDS
Info: 2 ANGLES
Info:   2 HARMONIC
Info:   0 COSINE-BASED
Info: 2 DIHEDRAL
Info: 0 IMPROPER
Info: 0 CROSSTERM
Info: 0 VDW
Info: 10 VDW_PAIRS
Info: 0 NBTHOLE_PAIRS
Info: STRUCTURE SUMMARY:
Info: 2976 ATOMS
Info: 2976 BONDS
Info: 18 ANGLES
Info: 30 DIHEDRALS
Info: 0 IMPROPERS
Info: 0 CROSSTERMS
Info: 3015 EXCLUSIONS
Info: 2970 RIGID BONDS
Info: 5958 DEGREES OF FREEDOM
Info: 994 HYDROGEN GROUPS
Info: 3 ATOMS IN LARGEST HYDROGEN GROUP
Info: 994 MIGRATION GROUPS
Info: 3 ATOMS IN LARGEST MIGRATION GROUP
Info: TOTAL MASS = 17877.9 amu
Info: TOTAL CHARGE = -0.000100002 e
Info: MASS DENSITY = 0.663085 g/cm^3
Info: ATOM DENSITY = 0.06647 atoms/A^3
Info: ADDED 0 IMPLICIT EXCLUSIONS
Info: NONBONDED TABLE R-SQUARED SPACING: 0.0625
Info: NONBONDED TABLE SIZE: 705 POINTS
Info: REMOVING COM VELOCITY 0.091691 0.046222 0.0312084
TCL: Running for 100000 steps
ETITLE: TS BOND ANGLE DIHED IMPRP ELECT VDW BOUNDARY MISC KINETIC TOTAL TEMP POTENTIAL TOTAL3 TEMPAVG PRESSURE GPRESSURE VOLUME PRESSAVG GPRESSAVG
ENERGY: 0 0.1148 0.0037 0.0176 0.0000 -13822.0291 2440.0268 0.0000 0.0000 1771.9263 -9609.9398 299.3199 -11381.8661 -9609.6015 299.3199 437.2252 472.0191 44772.0680 437.2252 472.0191
ENERGY: 100000 0.1332 0.2685 0.3848 0.0000 -14334.4377 2519.1533 0.0000 0.0000 181.4511 -11633.0467 30.6513 -11814.4977 -11632.6142 30.9315 54.0826 115.0848 29849.3843 3.6634 3.6607
TCL: Running 100000 steps at 60 kelvin.
TCL: Setting parameter langevinTemp to 60
TCL: Running for 100000 steps
ETITLE: TS BOND ANGLE DIHED IMPRP ELECT VDW BOUNDARY MISC KINETIC TOTAL TEMP POTENTIAL TOTAL3 TEMPAVG PRESSURE GPRESSURE VOLUME PRESSAVG GPRESSAVG
ENERGY: 100000 0.1332 0.2685 0.3848 0.0000 -14334.4377 2519.1533 0.0000 0.0000 181.3626 -11633.1352 30.6364 -11814.4977 -11632.7433 30.6364 57.3007 114.9471 29849.3843 57.3007 114.9471
ENERGY: 200000 1.0958 0.8724 0.3308 0.0000 -14269.1163 2493.2826 0.0000 0.0000 355.8633 -11417.6713 60.1137 -11773.5347 -11416.9906 60.0493 154.0283 218.7849 29199.8405 3.8185 3.8132
TCL: Running 100000 steps at 90 kelvin.
TCL: Setting parameter langevinTemp to 90
TCL: Running for 100000 steps
ETITLE: TS BOND ANGLE DIHED IMPRP ELECT VDW BOUNDARY MISC KINETIC TOTAL TEMP POTENTIAL TOTAL3 TEMPAVG PRESSURE GPRESSURE VOLUME PRESSAVG GPRESSAVG
ENERGY: 200000 1.0958 0.8724 0.3308 0.0000 -14269.1163 2493.2826 0.0000 0.0000 355.6826 -11417.8521 60.0831 -11773.5347 -11416.9752 60.0831 162.0746 217.9500 29199.8405 162.0746 217.9500
ENERGY: 300000 0.3847 1.7356 1.2817 0.0000 -14143.2083 2432.7560 0.0000 0.0000 523.5367 -11183.5137 88.4376 -11707.0504 -11182.0305 90.0656 207.5593 254.8856 28811.1480 3.1106 3.1961
TCL: Running 100000 steps at 120 kelvin.
TCL: Setting parameter langevinTemp to 120
TCL: Running for 100000 steps
ETITLE: TS BOND ANGLE DIHED IMPRP ELECT VDW BOUNDARY MISC KINETIC TOTAL TEMP POTENTIAL TOTAL3 TEMPAVG PRESSURE GPRESSURE VOLUME PRESSAVG GPRESSAVG
ENERGY: 300000 0.3847 1.7356 1.2817 0.0000 -14143.2083 2432.7560 0.0000 0.0000 523.2836 -11183.7668 88.3949 -11707.0504 -11182.7424 88.3949 196.4130 255.3369 28811.1480 196.4130 255.3369
ENERGY: 400000 1.1294 0.4027 1.6484 0.0000 -13722.9227 2190.7597 0.0000 0.0000 738.6926 -10790.2899 124.7825 -11528.9825 -10788.4151 119.9655 -1174.4060 -1133.7908 29078.7185 4.1450 4.0977
TCL: Running 100000 steps at 150 kelvin.
TCL: Setting parameter langevinTemp to 150
TCL: Running for 100000 steps
ETITLE: TS BOND ANGLE DIHED IMPRP ELECT VDW BOUNDARY MISC KINETIC TOTAL TEMP POTENTIAL TOTAL3 TEMPAVG PRESSURE GPRESSURE VOLUME PRESSAVG GPRESSAVG
ENERGY: 400000 1.1294 0.4027 1.6484 0.0000 -13722.9227 2190.7597 0.0000 0.0000 738.3417 -10790.6408 124.7232 -11528.9825 -10789.1752 124.7232 -1177.6871 -1133.9152 29078.7185 -1177.6871 -1133.9152
ENERGY: 500000 0.5594 1.2906 1.4647 0.0000 -13593.2799 2199.8763 0.0000 0.0000 873.9036 -10516.1853 147.6228 -11390.0888 -10514.2466 150.0695 -595.6292 -563.8683 29063.2466 3.0475 3.0684
TCL: Running 100000 steps at 180 kelvin.
TCL: Setting parameter langevinTemp to 180
TCL: Running for 100000 steps
ETITLE: TS BOND ANGLE DIHED IMPRP ELECT VDW BOUNDARY MISC KINETIC TOTAL TEMP POTENTIAL TOTAL3 TEMPAVG PRESSURE GPRESSURE VOLUME PRESSAVG GPRESSAVG
ENERGY: 500000 0.5594 1.2906 1.4647 0.0000 -13593.2799 2199.8763 0.0000 0.0000 873.4702 -10516.6186 147.5496 -11390.0888 -10514.6000 147.5496 -615.4785 -564.5081 29063.2466 -615.4785 -564.5081
ENERGY: 600000 0.8142 1.4111 0.9227 0.0000 -13441.4808 2337.6551 0.0000 0.0000 1053.9798 -10046.6979 178.0419 -11100.6778 -10047.3146 179.7826 1693.1866 1756.7131 28762.6678 3.6213 3.6503
TCL: Running 100000 steps at 210 kelvin.
TCL: Setting parameter langevinTemp to 210
TCL: Running for 100000 steps
ETITLE: TS BOND ANGLE DIHED IMPRP ELECT VDW BOUNDARY MISC KINETIC TOTAL TEMP POTENTIAL TOTAL3 TEMPAVG PRESSURE GPRESSURE VOLUME PRESSAVG GPRESSAVG
ENERGY: 600000 0.8142 1.4111 0.9227 0.0000 -13441.4808 2337.6551 0.0000 0.0000 1053.4561 -10047.2217 177.9534 -11100.6778 -10045.4108 177.9534 1705.1327 1753.6357 28762.6678 1705.1327 1753.6357
ENERGY: 700000 2.6177 2.0573 2.4109 0.0000 -12446.5079 1861.7119 0.0000 0.0000 1261.4237 -9316.2864 213.0840 -10577.7101 -9314.5825 209.7720 -509.9042 -477.9986 29148.6534 3.7946 3.9164
TCL: Running 100000 steps at 240 kelvin.
TCL: Setting parameter langevinTemp to 240
TCL: Running for 100000 steps
ETITLE: TS BOND ANGLE DIHED IMPRP ELECT VDW BOUNDARY MISC KINETIC TOTAL TEMP POTENTIAL TOTAL3 TEMPAVG PRESSURE GPRESSURE VOLUME PRESSAVG GPRESSAVG
ENERGY: 700000 2.6177 2.0573 2.4109 0.0000 -12446.5079 1861.7119 0.0000 0.0000 1260.8153 -9316.8948 212.9812 -10577.7101 -9314.5732 212.9812 -580.8168 -479.1420 29148.6534 -580.8168 -479.1420
ENERGY: 800000 0.8621 2.2220 3.0009 0.0000 -11999.9438 1795.5100 0.0000 0.0000 1395.5813 -8802.7675 235.7464 -10198.3488 -8798.8629 239.8056 334.6750 432.9929 29204.4775 2.4272 2.4330
TCL: Running 100000 steps at 270 kelvin.
TCL: Setting parameter langevinTemp to 270
TCL: Running for 100000 steps
ETITLE: TS BOND ANGLE DIHED IMPRP ELECT VDW BOUNDARY MISC KINETIC TOTAL TEMP POTENTIAL TOTAL3 TEMPAVG PRESSURE GPRESSURE VOLUME PRESSAVG GPRESSAVG
ENERGY: 800000 0.8621 2.2220 3.0009 0.0000 -11999.9438 1795.5100 0.0000 0.0000 1394.9223 -8803.4265 235.6350 -10198.3488 -8801.1764 235.6350 359.8842 433.2970 29204.4775 359.8842 433.2970
ENERGY: 900000 0.7433 2.3096 1.6246 0.0000 -11292.7506 1615.8562 0.0000 0.0000 1569.1641 -8103.0528 265.0686 -9672.2169 -8098.5713 270.2159 541.8480 568.7291 29733.9815 2.6133 2.4220
TCL: Running 1000000 steps at 300 kelvin.
TCL: Setting parameter langevinTemp to 300
TCL: Running for 1000000 steps
ETITLE: TS BOND ANGLE DIHED IMPRP ELECT VDW BOUNDARY MISC KINETIC TOTAL TEMP POTENTIAL TOTAL3 TEMPAVG PRESSURE GPRESSURE VOLUME PRESSAVG GPRESSAVG
ENERGY: 900000 0.7433 2.3096 1.6246 0.0000 -11292.7506 1615.8562 0.0000 0.0000 1568.3798 -8103.8372 264.9361 -9672.2169 -8101.5330 264.9361 508.9097 570.2548 29733.9815 508.9097 570.2548
ENERGY: 1100000 1.1864 3.0891 3.2882 0.0000 -10937.9778 1479.8331 0.0000 0.0000 1761.1233 -7689.4578 297.4950 -9450.5811 -7684.6948 300.2246 -316.0653 -259.1054 30866.3597 1.6014 1.7465
ENERGY: 1300000 2.2985 2.9250 3.0782 0.0000 -10622.8514 1394.3167 0.0000 0.0000 1782.2919 -7437.9409 301.0709 -9220.2329 -7433.1915 300.7303 -24.9069 33.8854 30740.3962 3.2986 3.1518
ENERGY: 1500000 1.0811 1.2168 1.3725 0.0000 -10867.8478 1529.0958 0.0000 0.0000 1768.9613 -7566.1203 298.8190 -9335.0816 -7560.6741 300.4483 424.9422 482.1198 30994.1577 2.1046 2.0513
ENERGY: 1700000 1.8173 1.9069 1.7369 0.0000 -10669.1473 1361.1781 0.0000 0.0000 1763.2923 -7539.2158 297.8614 -9302.5081 -7536.1452 300.1452 -834.7779 -713.7427 30669.3336 4.2117 4.1074
ENERGY: 1900000 2.9794 1.5866 2.4637 0.0000 -10673.6504 1397.8296 0.0000 0.0000 1766.4328 -7502.3583 298.3919 -9268.7911 -7497.7854 300.4794 -306.8052 -182.2274 30721.7077 2.5476 2.6146
TCL: Exiting due to exit command.
