Info: SIMULATION PARAMETERS:
Info: TIMESTEP               2
Info: NUMBER OF STEPS        0
Info: STEPS PER CYCLE        10
Info: PERIODIC CELL BASIS 1  40.176 0 0
Info: PERIODIC CELL BASIS 2  0 39.757 0
Info: PERIODIC CELL BASIS 3  0 0 39.527
Info: PERIODIC CELL CENTER   0 0 0
Info: WRAPPING WATERS AROUND PERIODIC BOUNDARIES ON OUTPUT.
Info: WRAPPING ALL CLUSTERS AROUND PERIODIC BOUNDARIES ON OUTPUT.
Info: FIRST LDB TIMESTEP     50
Info: LAST LDB TIMESTEP     -1
Info: HOM BACKGROUND SCALING 1
Info: PME BACKGROUND SCALING 1
Info: MIN ATOMS PER PATCH    40
Info: EMPTY PATCH LOAD       40 ATOMS
Info: INITIAL TEMPERATURE    300
Info: CENTER OF MASS MOVING INITIALLY? NO
Info: DIELECTRIC             1
Info: EXCLUDE                SCALED ONE-FOUR
Info: 1-4 ELECTROSTATICS SCALED BY 0.833333
Info: MODIFIED 1-4 VDW PARAMETERS WILL BE USED
Info: DCD FILENAME           mobley_3968043_min.dcd
Info: DCD FREQUENCY          5000
Info: DCD FIRST STEP         5000
Info: DCD FILE WILL CONTAIN UNIT CELL DATA
Info: XST FILENAME           mobley_3968043_min.xst
Info: XST FREQUENCY          5000
Info: NO VELOCITY DCD OUTPUT
Info: NO FORCE DCD OUTPUT
Info: OUTPUT FILENAME        mobley_3968043_min
Info: BINARY OUTPUT FILES WILL BE USED
Info: RESTART FILENAME       mobley_3968043_min.restart
Info: RESTART FREQUENCY      5000
Info: BINARY RESTART FILES WILL BE USED
Info: CUTOFF                 9
Info: PAIRLIST DISTANCE      11
Info: PAIRLIST SHRINK RATE   0.01
Info: PAIRLIST GROW RATE     0.01
Info: PAIRLIST TRIGGER       0.3
Info: PAIRLISTS PER CYCLE    2
Info: PAIRLISTS ENABLED
Info: MARGIN                 8
Info: HYDROGEN GROUP CUTOFF  2.5
Info: PATCH DIMENSION        21.5
Info: ENERGY OUTPUT STEPS    5000
Info: ENERGY EVALUATION STEPS    5000
Info: OUTPUT ENERGY PRECISION 4
Info: CROSSTERM ENERGY INCLUDED IN DIHEDRAL
Info: TIMING OUTPUT STEPS    50000
Info: PRESSURE OUTPUT STEPS  5000
Info: LANGEVIN DYNAMICS ACTIVE
Info: LANGEVIN TEMPERATURE   300
Info: LANGEVIN USING BBK INTEGRATOR
Info: LANGEVIN DAMPING COEFFICIENT IS 1 INVERSE PS
Info: LANGEVIN DYNAMICS APPLIED TO HYDROGENS
Info: LANGEVIN PISTON PRESSURE CONTROL ACTIVE
Info:        TARGET PRESSURE IS 1.01325 BAR
Info:     OSCILLATION PERIOD IS 50 FS
Info:             DECAY TIME IS 25 FS
Info:     PISTON TEMPERATURE IS 300 K
Info:       PRESSURE CONTROL IS GROUP-BASED
Info:    INITIAL STRAIN RATE IS 0 0 0
Info:       CELL FLUCTUATION IS ISOTROPIC
Info: PARTICLE MESH EWALD (PME) ACTIVE
Info: PME TOLERANCE               1e-06
Info: PME EWALD COEFFICIENT       0.348832
Info: PME INTERPOLATION ORDER     4
Info: PME GRID DIMENSIONS         44 40 40
Info: PME MAXIMUM GRID SPACING    1
Info: FULL ELECTROSTATIC EVALUATION FREQUENCY      2
Info: USING VERLET I (r-RESPA) MTS SCHEME.
Info: C1 SPLITTING OF LONG RANGE ELECTROSTATICS
Info: PLACING ATOMS IN PATCHES BY HYDROGEN GROUPS
Info: RIGID BONDS TO HYDROGEN : ALL
Info:         ERROR TOLERANCE : 1e-08
Info:          MAX ITERATIONS : 100
Info: RIGID WATER USING SETTLE ALGORITHM
Info: RANDOM NUMBER SEED     1741331592
Info: USE HYDROGEN BONDS?    NO
Info: Using AMBER format force field!
Info: AMBER PARM FILE        mobley_3968043.prmtop
Info: COORDINATE PDB         mobley_3968043.pdb
Info: Exclusions will be read from PARM file!
Info: SCNB (VDW SCALING)     2
Info: USING ARITHMETIC MEAN TO COMBINE L-J SIGMA PARAMETERS
Info: SUMMARY OF PARAMETERS:
Info: 6 BONDS
Info: 7 ANGLES
Info:   7 HARMONIC
Info:   0 COSINE-BASED
Info: 15 DIHEDRAL
Info: 0 IMPROPER
Info: 0 CROSSTERM
Info: 0 VDW
Info: 21 VDW_PAIRS
Info: 0 NBTHOLE_PAIRS
Info: STRUCTURE SUMMARY:
Info: 4595 ATOMS
Info: 4595 BONDS
Info: 27 ANGLES
Info: 52 DIHEDRALS
Info: 0 IMPROPERS
Info: 0 CROSSTERMS
Info: 4656 EXCLUSIONS
Info: 4589 RIGID BONDS
Info: 9196 DEGREES OF FREEDOM
Info: 1533 HYDROGEN GROUPS
Info: 3 ATOMS IN LARGEST HYDROGEN GROUP
Info: 1533 MIGRATION GROUPS
Info: 3 ATOMS IN LARGEST MIGRATION GROUP
Info: TOTAL MASS = 27594.5 amu
Info: TOTAL CHARGE = 0.00030002 e
Info: MASS DENSITY = 0.725786 g/cm^3
Info: ATOM DENSITY = 0.0727799 atoms/A^3
Info: ADDED 0 IMPLICIT EXCLUSIONS
Info: NONBONDED TABLE R-SQUARED SPACING: 0.0625
Info: NONBONDED TABLE SIZE: 705 POINTS
Info: REMOVING COM VELOCITY -0.171298 0.145825 0.102359
TCL: Minimizing for 2000 steps
ETITLE: TS BOND ANGLE DIHED IMPRP ELECT VDW BOUNDARY MISC KINETIC TOTAL TEMP POTENTIAL TOTAL3 TEMPAVG PRESSURE GPRESSURE VOLUME PRESSAVG GPRESSAVG
ENERGY: 0 0.3225 7.2310 49.6715 0.0000 -14402.7430 1637.8594 0.0000 0.0000 0.0000 -12707.6586 0.0000 -12707.6586 -12707.6586 0.0000 11169.9194 -16072.3153 63135.5771 11169.9194 -16072.3153
ENERGY: 400 2.8644 10.3223 37.4950 0.0000 -19384.0481 2920.5073 0.0000 0.0000 0.0000 -16412.8592 0.0000 -16412.8592 -16412.8592 0.0000 16367.3651 16499.7113 63135.5771 16367.3651 16499.7113
ENERGY: 800 0.5050 8.0561 38.5872 0.0000 -20197.4200 3212.1017 0.0000 0.0000 0.0000 -16938.1700 0.0000 -16938.1700 -16938.1700 0.0000 17905.1870 18032.4676 63135.5771 17905.1870 18032.4676
ENERGY: 1200 0.4080 8.1180 38.5950 0.0000 -20696.0973 3454.2830 0.0000 0.0000 0.0000 -17194.6933 0.0000 -17194.6933 -17194.6933 0.0000 19163.3910 19286.6967 63135.5771 19163.3910 19286.6967
ENERGY: 1600 0.1371 7.9330 38.7633 0.0000 -20884.2945 3535.2109 0.0000 0.0000 0.0000 -17302.2502 0.0000 -17302.2502 -17302.2502 0.0000 19611.9341 19728.6419 63135.5771 19611.9341 19728.6419
ENERGY: 2000 0.5100 8.1438 38.3202 0.0000 -21076.3773 3638.0960 0.0000 0.0000 0.0000 -17391.3074 0.0000 -17391.3074 -17391.3074 0.0000 20167.4611 20268.6803 63135.5771 20167.4611 20268.6803
TCL: Exiting due to exit command.
Info: NAMD 3.0.1 for Linux-x86_64-multicore
Info: Please visit http://www.ks.uiuc.edu/Research/namd/
Info: for updates, documentation, and support information.
Info: Please cite Phillips et al., J. Chem. Phys. 153:044130 (2020) doi:10.1063/5.0014475
Info: in all publications reporting results obtained with NAMD.
Info: Based on Charm++/Converse 80000 for multicore-linux-x86_64-gcc
Info: Built Mon Oct 14 11:11:06 CDT 2024 by dhardy on athine.ks.uiuc.edu
Info: 1 NAMD  3.0.1  Linux-x86_64-multicore  16    k026  z5358697
Info: Running on 16 processors, 1 nodes, 1 physical nodes.
Info: CPU topology information available.
Info: Charm++/Converse parallel runtime startup completed at 0.0350735 s
Info: 1043.46 MB of memory in use based on /proc/self/stat
Info: Configuration file is mobley_3968043_equil.namd
Info: Working in the current directory /srv/scratch/z5358697/prod_prep_4/3968043
TCL: Running 25000 steps at 30 kelvin.
TCL: Suspending until startup complete.
Info: SIMULATION PARAMETERS:
Info: TIMESTEP               2
Info: NUMBER OF STEPS        0
Info: STEPS PER CYCLE        10
Info: PERIODIC CELL BASIS 1  40.176 0 0
Info: PERIODIC CELL BASIS 2  0 39.757 0
Info: PERIODIC CELL BASIS 3  0 0 39.527
Info: PERIODIC CELL CENTER   0 0 0
Info: WRAPPING WATERS AROUND PERIODIC BOUNDARIES ON OUTPUT.
Info: WRAPPING ALL CLUSTERS AROUND PERIODIC BOUNDARIES ON OUTPUT.
Info: FIRST LDB TIMESTEP     50
Info: LAST LDB TIMESTEP     -1
Info: HOM BACKGROUND SCALING 1
Info: PME BACKGROUND SCALING 1
Info: MIN ATOMS PER PATCH    40
Info: EMPTY PATCH LOAD       40 ATOMS
Info: INITIAL TEMPERATURE    300
Info: CENTER OF MASS MOVING INITIALLY? NO
Info: DIELECTRIC             1
Info: EXCLUDE                SCALED ONE-FOUR
Info: 1-4 ELECTROSTATICS SCALED BY 0.833333
Info: MODIFIED 1-4 VDW PARAMETERS WILL BE USED
Info: DCD FILENAME           mobley_3968043_equil.dcd
Info: DCD FREQUENCY          5000
Info: DCD FIRST STEP         5000
Info: DCD FILE WILL CONTAIN UNIT CELL DATA
Info: XST FILENAME           mobley_3968043_equil.xst
Info: XST FREQUENCY          5000
Info: NO VELOCITY DCD OUTPUT
Info: NO FORCE DCD OUTPUT
Info: OUTPUT FILENAME        mobley_3968043_equil
Info: BINARY OUTPUT FILES WILL BE USED
Info: RESTART FILENAME       mobley_3968043_equil.restart
Info: RESTART FREQUENCY      5000
Info: BINARY RESTART FILES WILL BE USED
Info: CUTOFF                 9
Info: PAIRLIST DISTANCE      11
Info: PAIRLIST SHRINK RATE   0.01
Info: PAIRLIST GROW RATE     0.01
Info: PAIRLIST TRIGGER       0.3
Info: PAIRLISTS PER CYCLE    2
Info: PAIRLISTS ENABLED
Info: MARGIN                 8
Info: HYDROGEN GROUP CUTOFF  2.5
Info: PATCH DIMENSION        21.5
Info: ENERGY OUTPUT STEPS    5000
Info: ENERGY EVALUATION STEPS    5000
Info: OUTPUT ENERGY PRECISION 4
Info: CROSSTERM ENERGY INCLUDED IN DIHEDRAL
Info: TIMING OUTPUT STEPS    50000
Info: PRESSURE OUTPUT STEPS  5000
Info: LANGEVIN DYNAMICS ACTIVE
Info: LANGEVIN TEMPERATURE   30
Info: LANGEVIN USING BBK INTEGRATOR
Info: LANGEVIN DAMPING COEFFICIENT IS 1 INVERSE PS
Info: LANGEVIN DYNAMICS APPLIED TO HYDROGENS
Info: LANGEVIN PISTON PRESSURE CONTROL ACTIVE
Info:        TARGET PRESSURE IS 1.01325 BAR
Info:     OSCILLATION PERIOD IS 50 FS
Info:             DECAY TIME IS 25 FS
Info:     PISTON TEMPERATURE IS 300 K
Info:       PRESSURE CONTROL IS GROUP-BASED
Info:    INITIAL STRAIN RATE IS 0 0 0
Info:       CELL FLUCTUATION IS ISOTROPIC
Info: PARTICLE MESH EWALD (PME) ACTIVE
Info: PME TOLERANCE               1e-06
Info: PME EWALD COEFFICIENT       0.348832
Info: PME INTERPOLATION ORDER     4
Info: PME GRID DIMENSIONS         44 40 40
Info: PME MAXIMUM GRID SPACING    1
Info: FULL ELECTROSTATIC EVALUATION FREQUENCY      2
Info: USING VERLET I (r-RESPA) MTS SCHEME.
Info: C1 SPLITTING OF LONG RANGE ELECTROSTATICS
Info: PLACING ATOMS IN PATCHES BY HYDROGEN GROUPS
Info: RIGID BONDS TO HYDROGEN : ALL
Info:         ERROR TOLERANCE : 1e-08
Info:          MAX ITERATIONS : 100
Info: RIGID WATER USING SETTLE ALGORITHM
Info: RANDOM NUMBER SEED     1741331610
Info: USE HYDROGEN BONDS?    NO
Info: Using AMBER format force field!
Info: AMBER PARM FILE        mobley_3968043.prmtop
Info: COORDINATE PDB         mobley_3968043.pdb
Info: Exclusions will be read from PARM file!
Info: SCNB (VDW SCALING)     2
Info: USING ARITHMETIC MEAN TO COMBINE L-J SIGMA PARAMETERS
Info: BINARY COORDINATES     mobley_3968043_min.coor
Info: SUMMARY OF PARAMETERS:
Info: 6 BONDS
Info: 7 ANGLES
Info:   7 HARMONIC
Info:   0 COSINE-BASED
Info: 15 DIHEDRAL
Info: 0 IMPROPER
Info: 0 CROSSTERM
Info: 0 VDW
Info: 21 VDW_PAIRS
Info: 0 NBTHOLE_PAIRS
Info: STRUCTURE SUMMARY:
Info: 4595 ATOMS
Info: 4595 BONDS
Info: 27 ANGLES
Info: 52 DIHEDRALS
Info: 0 IMPROPERS
Info: 0 CROSSTERMS
Info: 4656 EXCLUSIONS
Info: 4589 RIGID BONDS
Info: 9196 DEGREES OF FREEDOM
Info: 1533 HYDROGEN GROUPS
Info: 3 ATOMS IN LARGEST HYDROGEN GROUP
Info: 1533 MIGRATION GROUPS
Info: 3 ATOMS IN LARGEST MIGRATION GROUP
Info: TOTAL MASS = 27594.5 amu
Info: TOTAL CHARGE = 0.00030002 e
Info: MASS DENSITY = 0.725786 g/cm^3
Info: ATOM DENSITY = 0.0727799 atoms/A^3
Info: ADDED 0 IMPLICIT EXCLUSIONS
Info: NONBONDED TABLE R-SQUARED SPACING: 0.0625
Info: NONBONDED TABLE SIZE: 705 POINTS
Info: REMOVING COM VELOCITY -0.0533699 0.0197129 0.025569
TCL: Running for 25000 steps
ETITLE: TS BOND ANGLE DIHED IMPRP ELECT VDW BOUNDARY MISC KINETIC TOTAL TEMP POTENTIAL TOTAL3 TEMPAVG PRESSURE GPRESSURE VOLUME PRESSAVG GPRESSAVG
ENERGY: 0 0.5100 8.1438 38.3202 0.0000 -21076.3773 3638.0960 0.0000 0.0000 2769.3431 -14621.9642 303.0876 -17391.3074 -14621.4029 303.0876 198.3965 240.4238 63135.5771 198.3965 240.4238
ENERGY: 5000 0.5320 8.4319 38.5862 0.0000 -22243.9904 3943.7638 0.0000 0.0000 279.0396 -17973.6369 30.5392 -18252.6764 -17972.7735 48.0985 575.5305 645.9028 44078.7939 6.3799 6.2889
ENERGY: 10000 0.3912 7.6269 39.4820 0.0000 -22083.6627 3745.9497 0.0000 0.0000 278.6483 -18011.5647 30.4963 -18290.2129 -18010.8031 30.4410 -482.5520 -414.7767 44099.0644 1.1944 1.1628
ENERGY: 15000 0.6726 9.6287 37.5896 0.0000 -22291.9262 3923.4487 0.0000 0.0000 277.1451 -18043.4416 30.3318 -18320.5867 -18042.7555 30.2600 403.5793 454.2210 43920.7345 0.8383 0.8034
ENERGY: 20000 0.3451 8.0575 38.9811 0.0000 -22048.9870 3677.5702 0.0000 0.0000 271.6674 -18052.3657 29.7323 -18324.0331 -18051.6272 30.0432 -990.1236 -922.0557 44233.1136 6.1858 6.1242
ENERGY: 25000 0.3487 8.7497 37.9914 0.0000 -22294.8430 3918.2735 0.0000 0.0000 272.8390 -18056.6407 29.8606 -18329.4798 -18055.8029 29.9828 370.5751 444.1706 43903.1731 3.0645 3.1096
TCL: Running 25000 steps at 60 kelvin.
TCL: Setting parameter langevinTemp to 60
TCL: Running for 25000 steps
ETITLE: TS BOND ANGLE DIHED IMPRP ELECT VDW BOUNDARY MISC KINETIC TOTAL TEMP POTENTIAL TOTAL3 TEMPAVG PRESSURE GPRESSURE VOLUME PRESSAVG GPRESSAVG
ENERGY: 25000 0.3487 8.7497 37.9914 0.0000 -22294.8430 3918.2735 0.0000 0.0000 272.7015 -18056.7782 29.8455 -18329.4798 -18056.2726 29.8455 375.7092 444.1562 43903.1731 375.7092 444.1562
ENERGY: 30000 0.3464 10.3549 36.9377 0.0000 -21963.9821 3850.9696 0.0000 0.0000 548.8496 -17516.5239 60.0682 -18065.3735 -17514.3535 57.1687 675.7588 732.6417 43976.7079 0.2062 -0.1380
ENERGY: 35000 0.4550 9.5760 38.3038 0.0000 -21912.1477 3768.2305 0.0000 0.0000 545.3367 -17550.2457 59.6838 -18095.5824 -17549.0960 59.9176 167.0959 240.5927 43984.4560 1.7540 1.8048
ENERGY: 40000 0.2895 10.2284 37.7821 0.0000 -21969.9928 3824.5516 0.0000 0.0000 550.8376 -17546.3035 60.2858 -18097.1411 -17544.5980 60.2863 467.2099 534.3713 44002.4688 1.5806 1.4323
ENERGY: 45000 0.9839 7.6722 39.7634 0.0000 -21912.2425 3735.6977 0.0000 0.0000 549.6046 -17578.5207 60.1509 -18128.1253 -17577.3030 60.2372 -79.9589 -41.3692 44155.9773 2.3234 2.3740
ENERGY: 50000 0.5046 8.2373 38.8827 0.0000 -22022.1797 3838.3415 0.0000 0.0000 562.3995 -17573.8141 61.5512 -18136.2135 -17571.8594 59.9713 454.8181 526.8904 43883.2823 4.8584 5.0810
TCL: Running 25000 steps at 90 kelvin.
TCL: Setting parameter langevinTemp to 90
TCL: Running for 25000 steps
ETITLE: TS BOND ANGLE DIHED IMPRP ELECT VDW BOUNDARY MISC KINETIC TOTAL TEMP POTENTIAL TOTAL3 TEMPAVG PRESSURE GPRESSURE VOLUME PRESSAVG GPRESSAVG
ENERGY: 50000 0.5046 8.2373 38.8827 0.0000 -22022.1797 3838.3415 0.0000 0.0000 562.1306 -17574.0830 61.5217 -18136.2135 -17573.0229 61.5217 474.6975 527.1396 43883.2823 474.6975 527.1396
ENERGY: 55000 0.9044 9.3315 38.2795 0.0000 -21477.4759 3564.6177 0.0000 0.0000 825.7113 -17038.6317 90.3690 -17864.3429 -17036.7388 87.3714 -498.5426 -459.4387 44694.3465 1.9140 1.5296
ENERGY: 60000 0.6198 8.8091 39.6142 0.0000 -21452.2938 3525.5196 0.0000 0.0000 818.6351 -17059.0959 89.5946 -17877.7311 -17056.4955 91.0356 -796.8565 -722.3864 44798.6987 -0.1167 0.1318
ENERGY: 65000 0.6182 9.1800 38.7002 0.0000 -21778.9757 3820.9880 0.0000 0.0000 842.3264 -17067.1629 92.1875 -17909.4893 -17065.5714 90.0693 857.2285 924.2074 44182.1125 3.5778 3.4823
ENERGY: 70000 1.2471 7.9559 39.9389 0.0000 -21719.1137 3722.7708 0.0000 0.0000 803.8383 -17143.3626 87.9752 -17947.2009 -17142.3629 90.2540 235.9673 276.8608 44293.3921 0.8243 0.6897
ENERGY: 75000 0.9679 10.3646 37.4477 0.0000 -21693.1609 3723.5333 0.0000 0.0000 837.3602 -17083.4873 91.6439 -17920.8475 -17081.5650 90.2168 403.0741 452.9157 44228.3589 5.2311 5.0674
TCL: Running 25000 steps at 120 kelvin.
TCL: Setting parameter langevinTemp to 120
TCL: Running for 25000 steps
ETITLE: TS BOND ANGLE DIHED IMPRP ELECT VDW BOUNDARY MISC KINETIC TOTAL TEMP POTENTIAL TOTAL3 TEMPAVG PRESSURE GPRESSURE VOLUME PRESSAVG GPRESSAVG
ENERGY: 75000 0.9679 10.3646 37.4477 0.0000 -21693.1609 3723.5333 0.0000 0.0000 836.9436 -17083.9040 91.5983 -17920.8475 -17082.0952 91.5983 398.3505 452.7053 44228.3589 398.3505 452.7053
ENERGY: 80000 0.7291 9.4298 40.6952 0.0000 -21373.7460 3693.8818 0.0000 0.0000 1107.9641 -16521.0461 121.2599 -17629.0101 -16518.3302 117.1009 901.5014 936.8561 44376.8368 5.2127 5.1102
ENERGY: 85000 1.0796 11.7481 37.9245 0.0000 -21309.7138 3565.9498 0.0000 0.0000 1105.7690 -16587.2429 121.0196 -17693.0120 -16585.0279 119.3375 -24.7978 29.6804 44743.5157 -2.6259 -2.0065
ENERGY: 90000 1.3566 7.2666 42.6913 0.0000 -21252.3089 3529.4287 0.0000 0.0000 1092.4766 -16579.0890 119.5649 -17671.5656 -16576.4834 119.7485 -339.4491 -292.0527 44918.0659 0.4423 0.5608
ENERGY: 95000 0.6380 10.0053 37.8600 0.0000 -21200.1936 3450.1416 0.0000 0.0000 1094.8573 -16606.6914 119.8254 -17701.5487 -16604.4900 120.6285 -742.5674 -701.6560 45071.8573 4.3699 4.1175
ENERGY: 100000 0.7298 10.0481 37.8813 0.0000 -21451.6761 3659.8686 0.0000 0.0000 1086.0377 -16657.1105 118.8602 -17743.1482 -16653.4687 119.8580 303.8364 392.3641 44462.0438 3.9187 3.8120
TCL: Running 25000 steps at 150 kelvin.
TCL: Setting parameter langevinTemp to 150
TCL: Running for 25000 steps
ETITLE: TS BOND ANGLE DIHED IMPRP ELECT VDW BOUNDARY MISC KINETIC TOTAL TEMP POTENTIAL TOTAL3 TEMPAVG PRESSURE GPRESSURE VOLUME PRESSAVG GPRESSAVG
ENERGY: 100000 0.7298 10.0481 37.8813 0.0000 -21451.6761 3659.8686 0.0000 0.0000 1085.4866 -16657.6616 118.7998 -17743.1482 -16655.5508 118.7998 320.7191 392.8002 44462.0438 320.7191 392.8002
ENERGY: 105000 1.3753 11.6050 38.2029 0.0000 -20853.3301 3394.6268 0.0000 0.0000 1340.3264 -16067.1937 146.6905 -17407.5200 -16064.2320 147.0374 -479.2578 -439.3962 45210.8587 2.7080 2.7057
ENERGY: 110000 0.8610 12.6304 37.0405 0.0000 -20977.7831 3536.4381 0.0000 0.0000 1328.2589 -16062.5542 145.3698 -17390.8131 -16058.8948 149.9083 449.3043 521.9436 44694.1720 4.4680 4.3603
ENERGY: 115000 1.6273 8.4572 40.3876 0.0000 -20798.8958 3303.7796 0.0000 0.0000 1340.4116 -16104.2325 146.6998 -17444.6441 -16101.3729 149.4913 -892.5691 -836.1987 45068.7846 1.8724 1.8079
ENERGY: 120000 0.3616 8.9598 40.9429 0.0000 -21063.5916 3542.4914 0.0000 0.0000 1354.0130 -16116.8229 148.1884 -17470.8359 -16113.6009 148.9143 435.4471 475.0961 44616.9183 5.1635 5.5371
ENERGY: 125000 0.8921 9.1273 39.7511 0.0000 -20862.8773 3353.3008 0.0000 0.0000 1353.7903 -16106.0158 148.1640 -17459.8061 -16100.7163 150.4894 -707.0233 -668.1232 45158.3622 -0.7817 -0.9509
TCL: Running 50000 steps at 180 kelvin.
TCL: Setting parameter langevinTemp to 180
TCL: Running for 50000 steps
ETITLE: TS BOND ANGLE DIHED IMPRP ELECT VDW BOUNDARY MISC KINETIC TOTAL TEMP POTENTIAL TOTAL3 TEMPAVG PRESSURE GPRESSURE VOLUME PRESSAVG GPRESSAVG
ENERGY: 125000 0.8921 9.1273 39.7511 0.0000 -20862.8773 3353.3008 0.0000 0.0000 1353.1173 -16106.6888 148.0904 -17459.8061 -16103.9680 148.0904 -717.0017 -667.5154 45158.3622 -717.0017 -667.5154
ENERGY: 135000 1.1878 9.0535 39.9608 0.0000 -20420.1397 3325.2108 0.0000 0.0000 1640.1026 -15404.6242 179.4992 -17044.7269 -15402.9066 179.8951 114.8634 248.8416 45015.3856 -0.8479 -1.3379
ENERGY: 145000 1.9200 9.7587 39.6400 0.0000 -20353.9270 3272.3298 0.0000 0.0000 1660.6882 -15369.5902 181.7521 -17030.2785 -15366.6447 179.6331 -140.2559 -91.3029 45161.6888 3.6260 2.8446
ENERGY: 155000 0.6960 14.5866 35.6880 0.0000 -20262.7722 3132.3584 0.0000 0.0000 1688.3603 -15391.0829 184.7807 -17079.4432 -15385.9767 180.6157 -804.6474 -789.3215 45056.2637 3.8693 3.7356
ENERGY: 165000 1.7501 12.2697 36.6296 0.0000 -20505.2480 3387.5442 0.0000 0.0000 1684.1761 -15382.8783 184.3227 -17067.0544 -15379.2789 181.0314 668.3873 736.0292 44567.8811 1.8332 2.2193
ENERGY: 175000 2.3573 10.5081 38.6990 0.0000 -20515.6778 3343.3128 0.0000 0.0000 1610.0118 -15510.7888 176.2059 -17120.8006 -15507.4661 180.7331 -60.2082 29.1215 45120.9135 3.8306 3.4943
TCL: Running 50000 steps at 210 kelvin.
TCL: Setting parameter langevinTemp to 210
TCL: Running for 50000 steps
ETITLE: TS BOND ANGLE DIHED IMPRP ELECT VDW BOUNDARY MISC KINETIC TOTAL TEMP POTENTIAL TOTAL3 TEMPAVG PRESSURE GPRESSURE VOLUME PRESSAVG GPRESSAVG
ENERGY: 175000 2.3573 10.5081 38.6990 0.0000 -20515.6778 3343.3128 0.0000 0.0000 1609.2072 -15511.5934 176.1179 -17120.8006 -15507.8594 176.1179 -30.3974 28.4074 45120.9135 -30.3974 28.4074
ENERGY: 185000 2.9606 8.7881 41.2150 0.0000 -19522.9420 3038.5260 0.0000 0.0000 1934.7366 -14496.7158 211.7450 -16431.4523 -14493.1987 208.3452 149.2810 193.3419 45242.3895 5.6386 5.3460
ENERGY: 195000 1.2903 12.1226 38.8341 0.0000 -19376.7121 2964.1050 0.0000 0.0000 1899.0853 -14461.2748 207.8432 -16360.3601 -14455.8134 209.2038 -44.8457 0.4153 45090.4180 3.8217 3.8388
ENERGY: 205000 1.5342 9.7000 43.3422 0.0000 -19356.0269 2972.9020 0.0000 0.0000 1911.1758 -14417.3727 209.1665 -16328.5485 -14411.6160 208.9052 97.1697 149.5815 45115.5504 3.2261 3.2898
ENERGY: 215000 1.6023 10.5627 40.7741 0.0000 -19222.4469 2864.2312 0.0000 0.0000 1889.6482 -14415.6284 206.8104 -16305.2766 -14412.3314 210.7924 -459.2069 -357.5918 44789.3255 -1.4365 -0.5797
ENERGY: 225000 1.6144 11.2888 38.1128 0.0000 -19332.9569 2957.6633 0.0000 0.0000 1943.5135 -14380.7642 212.7056 -16324.2777 -14377.2766 208.4730 43.7307 139.6372 44885.0355 5.3569 5.5936
TCL: Running 50000 steps at 240 kelvin.
TCL: Setting parameter langevinTemp to 240
TCL: Running for 50000 steps
ETITLE: TS BOND ANGLE DIHED IMPRP ELECT VDW BOUNDARY MISC KINETIC TOTAL TEMP POTENTIAL TOTAL3 TEMPAVG PRESSURE GPRESSURE VOLUME PRESSAVG GPRESSAVG
ENERGY: 225000 1.6144 11.2888 38.1128 0.0000 -19332.9569 2957.6633 0.0000 0.0000 1942.5674 -14381.7103 212.6021 -16324.2777 -14378.6112 212.6021 65.0992 138.5766 44885.0355 65.0992 138.5766
ENERGY: 235000 2.4941 12.5755 38.5354 0.0000 -18210.4738 2591.5892 0.0000 0.0000 2227.3714 -13337.9081 243.7721 -15565.2795 -13335.2321 240.1126 -156.0411 -107.7572 45103.5534 1.9682 1.4587
ENERGY: 245000 1.7096 12.4092 38.3442 0.0000 -18403.9831 2681.7538 0.0000 0.0000 2222.2549 -13447.5114 243.2122 -15669.7663 -13442.6405 241.0032 15.9544 65.4540 45373.1027 7.2953 7.4065
ENERGY: 255000 1.3996 13.2078 39.4057 0.0000 -18506.2675 2779.3254 0.0000 0.0000 2195.9940 -13476.9349 240.3381 -15672.9289 -13470.8645 239.6594 632.6638 679.4227 45062.2674 0.1486 0.1890
ENERGY: 265000 3.4116 9.3660 40.3731 0.0000 -18350.8024 2679.9963 0.0000 0.0000 2190.1609 -13427.4945 239.6997 -15617.6554 -13421.9286 240.5996 108.0325 170.2932 45174.0092 5.1319 5.1435
ENERGY: 275000 0.8975 10.8101 39.6867 0.0000 -18276.6802 2638.6886 0.0000 0.0000 2143.6982 -13442.8991 234.6146 -15586.5973 -13437.8954 240.4083 -57.3718 25.2810 45230.8288 0.7182 0.2403
TCL: Running 50000 steps at 270 kelvin.
TCL: Setting parameter langevinTemp to 270
TCL: Running for 50000 steps
ETITLE: TS BOND ANGLE DIHED IMPRP ELECT VDW BOUNDARY MISC KINETIC TOTAL TEMP POTENTIAL TOTAL3 TEMPAVG PRESSURE GPRESSURE VOLUME PRESSAVG GPRESSAVG
ENERGY: 275000 0.8975 10.8101 39.6867 0.0000 -18276.6802 2638.6886 0.0000 0.0000 2142.6024 -13443.9949 234.4947 -15586.5973 -13440.4869 234.4947 -60.9463 24.9894 45230.8288 -60.9463 24.9894
ENERGY: 285000 3.0834 10.6910 39.1005 0.0000 -17403.2399 2283.9935 0.0000 0.0000 2479.8897 -12586.4816 271.4087 -15066.3714 -12581.8326 269.5410 -987.2723 -897.8412 46294.9988 5.5570 5.7781
ENERGY: 295000 1.8851 9.3705 40.9930 0.0000 -17203.0423 2201.0681 0.0000 0.0000 2429.8993 -12519.8262 265.9376 -14949.7255 -12513.3577 269.4926 -1186.1852 -1114.6100 46534.7444 5.0532 5.1815
ENERGY: 305000 0.6805 18.1404 38.7395 0.0000 -17564.2624 2465.7633 0.0000 0.0000 2437.6173 -12603.3214 266.7823 -15040.9387 -12597.8740 268.6589 -46.4364 6.8213 46259.9369 2.3510 3.4311
ENERGY: 315000 2.6328 12.1479 38.5795 0.0000 -17487.4977 2393.6918 0.0000 0.0000 2497.7996 -12542.6460 273.3688 -15040.4457 -12536.8282 271.5631 -446.2704 -336.3908 46378.0668 3.3400 3.3205
ENERGY: 325000 1.7073 17.4237 37.5664 0.0000 -17540.6361 2436.9334 0.0000 0.0000 2465.5989 -12581.4065 269.8447 -15047.0054 -12576.8337 270.3712 -11.4672 73.1247 45709.6658 2.2318 1.6799
TCL: Running 1000000 steps at 300 kelvin.
TCL: Setting parameter langevinTemp to 300
TCL: Running for 1000000 steps
ETITLE: TS BOND ANGLE DIHED IMPRP ELECT VDW BOUNDARY MISC KINETIC TOTAL TEMP POTENTIAL TOTAL3 TEMPAVG PRESSURE GPRESSURE VOLUME PRESSAVG GPRESSAVG
ENERGY: 325000 1.7073 17.4237 37.5664 0.0000 -17540.6361 2436.9334 0.0000 0.0000 2464.3864 -12582.6190 269.7120 -15047.0054 -12579.7314 269.7120 -9.5350 73.2351 45709.6658 -9.5350 73.2351
ENERGY: 525000 0.4394 13.5972 40.7846 0.0000 -16691.9298 2220.6231 0.0000 0.0000 2688.8967 -11727.5887 294.2832 -14416.4854 -11722.9364 299.5087 -173.0454 -102.4020 47165.4474 5.8370 5.5982
ENERGY: 725000 3.4378 13.9781 37.5219 0.0000 -16866.7702 2338.9635 0.0000 0.0000 2762.7881 -11710.0807 302.3702 -14472.8688 -11703.4590 299.4762 320.2637 439.5400 47172.2533 -0.9600 -0.7764
ENERGY: 925000 2.6638 15.9866 34.9668 0.0000 -16585.0046 2163.5329 0.0000 0.0000 2695.9325 -11671.9221 295.0533 -14367.8546 -11663.1175 300.3852 -381.9014 -286.8756 47340.2212 1.7107 1.5770
ENERGY: 1125000 1.6915 15.9203 38.0784 0.0000 -16832.4970 2346.9392 0.0000 0.0000 2715.4213 -11714.4462 297.1862 -14429.8676 -11710.6103 300.3335 669.4273 741.6641 46528.7584 1.0205 0.5083
ENERGY: 1325000 2.1078 12.9789 39.7356 0.0000 -16781.6920 2248.4284 0.0000 0.0000 2644.5354 -11833.9059 289.4282 -14478.4413 -11828.8652 299.2770 -291.8226 -233.1200 47308.7796 3.6290 3.7838
TCL: Exiting due to exit command.
