Info: SIMULATION PARAMETERS:
Info: TIMESTEP               2
Info: NUMBER OF STEPS        0
Info: STEPS PER CYCLE        10
Info: PERIODIC CELL BASIS 1  36.005 0 0
Info: PERIODIC CELL BASIS 2  0 34.1 0
Info: PERIODIC CELL BASIS 3  0 0 36.199
Info: PERIODIC CELL CENTER   0 0 0
Info: WRAPPING WATERS AROUND PERIODIC BOUNDARIES ON OUTPUT.
Info: WRAPPING ALL CLUSTERS AROUND PERIODIC BOUNDARIES ON OUTPUT.
Info: FIRST LDB TIMESTEP     50
Info: LAST LDB TIMESTEP     -1
Info: HOM BACKGROUND SCALING 1
Info: PME BACKGROUND SCALING 1
Info: MIN ATOMS PER PATCH    40
Info: EMPTY PATCH LOAD       40 ATOMS
Info: INITIAL TEMPERATURE    300
Info: CENTER OF MASS MOVING INITIALLY? NO
Info: DIELECTRIC             1
Info: EXCLUDE                SCALED ONE-FOUR
Info: 1-4 ELECTROSTATICS SCALED BY 0.833333
Info: MODIFIED 1-4 VDW PARAMETERS WILL BE USED
Info: DCD FILENAME           mobley_7814642_equil.dcd
Info: DCD FREQUENCY          100000
Info: DCD FIRST STEP         100000
Info: DCD FILE WILL CONTAIN UNIT CELL DATA
Info: XST FILENAME           mobley_7814642_equil.xst
Info: XST FREQUENCY          100000
Info: NO VELOCITY DCD OUTPUT
Info: NO FORCE DCD OUTPUT
Info: OUTPUT FILENAME        mobley_7814642_equil
Info: BINARY OUTPUT FILES WILL BE USED
Info: RESTART FILENAME       mobley_7814642_equil.restart
Info: RESTART FREQUENCY      100000
Info: BINARY RESTART FILES WILL BE USED
Info: CUTOFF                 9
Info: PAIRLIST DISTANCE      11
Info: PAIRLIST SHRINK RATE   0.01
Info: PAIRLIST GROW RATE     0.01
Info: PAIRLIST TRIGGER       0.3
Info: PAIRLISTS PER CYCLE    2
Info: PAIRLISTS ENABLED
Info: MARGIN                 8
Info: HYDROGEN GROUP CUTOFF  2.5
Info: PATCH DIMENSION        21.5
Info: ENERGY OUTPUT STEPS    100000
Info: ENERGY EVALUATION STEPS    100000
Info: OUTPUT ENERGY PRECISION 4
Info: CROSSTERM ENERGY INCLUDED IN DIHEDRAL
Info: TIMING OUTPUT STEPS    1000000
Info: PRESSURE OUTPUT STEPS  100000
Info: FIXED ATOMS ACTIVE
Info: LANGEVIN DYNAMICS ACTIVE
Info: LANGEVIN TEMPERATURE   30
Info: LANGEVIN USING BBK INTEGRATOR
Info: LANGEVIN DAMPING COEFFICIENT IS 1 INVERSE PS
Info: LANGEVIN DYNAMICS APPLIED TO HYDROGENS
Info: LANGEVIN PISTON PRESSURE CONTROL ACTIVE
Info:        TARGET PRESSURE IS 1.01325 BAR
Info:     OSCILLATION PERIOD IS 50 FS
Info:             DECAY TIME IS 25 FS
Info:     PISTON TEMPERATURE IS 300 K
Info:       PRESSURE CONTROL IS GROUP-BASED
Info:    INITIAL STRAIN RATE IS 0 0 0
Info:       CELL FLUCTUATION IS ISOTROPIC
Info: PARTICLE MESH EWALD (PME) ACTIVE
Info: PME TOLERANCE               1e-06
Info: PME EWALD COEFFICIENT       0.348832
Info: PME INTERPOLATION ORDER     4
Info: PME GRID DIMENSIONS         40 36 40
Info: PME MAXIMUM GRID SPACING    1
Info: FULL ELECTROSTATIC EVALUATION FREQUENCY      2
Info: USING VERLET I (r-RESPA) MTS SCHEME.
Info: C1 SPLITTING OF LONG RANGE ELECTROSTATICS
Info: PLACING ATOMS IN PATCHES BY HYDROGEN GROUPS
Info: RIGID BONDS TO HYDROGEN : ALL
Info:         ERROR TOLERANCE : 1e-08
Info:          MAX ITERATIONS : 100
Info: RIGID WATER USING SETTLE ALGORITHM
Info: RANDOM NUMBER SEED     1742205887
Info: USE HYDROGEN BONDS?    NO
Info: Using AMBER format force field!
Info: AMBER PARM FILE        mobley_7814642.prmtop
Info: COORDINATE PDB         mobley_7814642.pdb
Info: Exclusions will be read from PARM file!
Info: SCNB (VDW SCALING)     2
Info: USING ARITHMETIC MEAN TO COMBINE L-J SIGMA PARAMETERS
Info: BINARY COORDINATES     mobley_7814642_min.coor
Info: SUMMARY OF PARAMETERS:
Info: 5 BONDS
Info: 3 ANGLES
Info:   3 HARMONIC
Info:   0 COSINE-BASED
Info: 2 DIHEDRAL
Info: 0 IMPROPER
Info: 0 CROSSTERM
Info: 0 VDW
Info: 15 VDW_PAIRS
Info: 0 NBTHOLE_PAIRS
Info: STRUCTURE SUMMARY:
Info: 2976 ATOMS
Info: 2976 BONDS
Info: 18 ANGLES
Info: 30 DIHEDRALS
Info: 0 IMPROPERS
Info: 0 CROSSTERMS
Info: 3015 EXCLUSIONS
Info: 12 FIXED ATOMS
Info: 2967 RIGID BONDS
Info: 3 RIGID BONDS BETWEEN FIXED ATOMS
Info: 5928 DEGREES OF FREEDOM
Info: 997 HYDROGEN GROUPS
Info: 3 ATOMS IN LARGEST HYDROGEN GROUP
Info: 997 MIGRATION GROUPS
Info: 3 ATOMS IN LARGEST MIGRATION GROUP
Info: 9 HYDROGEN GROUPS WITH ALL ATOMS FIXED
Info: TOTAL MASS = 17981.2 amu
Info: TOTAL CHARGE = -3.72529e-09 e
Info: MASS DENSITY = 0.671839 g/cm^3
Info: ATOM DENSITY = 0.0669606 atoms/A^3
Info: ADDED 0 IMPLICIT EXCLUSIONS
Info: NONBONDED TABLE R-SQUARED SPACING: 0.0625
Info: NONBONDED TABLE SIZE: 705 POINTS
Info: REMOVING COM VELOCITY -0.0184425 -0.0956433 0.0239334
TCL: Running for 100000 steps
ETITLE: TS BOND ANGLE DIHED IMPRP ELECT VDW BOUNDARY MISC KINETIC TOTAL TEMP POTENTIAL TOTAL3 TEMPAVG PRESSURE GPRESSURE VOLUME PRESSAVG GPRESSAVG
ENERGY: 0 0.0000 0.0000 0.0000 0.0000 -13839.4006 2429.8028 0.0000 0.0000 1786.4837 -9623.1141 303.3062 -11409.5978 -9622.7377 303.3062 326.6736 372.4137 44444.0643 326.6736 372.4137
ENERGY: 100000 0.0000 0.0000 0.0000 0.0000 -14375.4347 2563.4156 0.0000 0.0000 174.6858 -11637.3333 29.6579 -11812.0191 -11636.9310 30.9172 485.3585 535.9514 30052.7888 4.3964 4.4100
TCL: Running 100000 steps at 60 kelvin.
TCL: Setting parameter langevinTemp to 60
TCL: Running for 100000 steps
ETITLE: TS BOND ANGLE DIHED IMPRP ELECT VDW BOUNDARY MISC KINETIC TOTAL TEMP POTENTIAL TOTAL3 TEMPAVG PRESSURE GPRESSURE VOLUME PRESSAVG GPRESSAVG
ENERGY: 100000 0.0000 0.0000 0.0000 0.0000 -14375.4347 2563.4156 0.0000 0.0000 174.5957 -11637.4234 29.6426 -11812.0191 -11637.0359 29.6426 469.4728 535.9918 30052.7888 469.4728 535.9918
ENERGY: 200000 0.0000 0.0000 0.0000 0.0000 -14140.6385 2389.8149 0.0000 0.0000 347.8482 -11402.9754 59.0571 -11750.8236 -11402.1910 60.1382 -635.3181 -583.7978 30158.0641 3.5443 3.5593
TCL: Running 100000 steps at 90 kelvin.
TCL: Setting parameter langevinTemp to 90
TCL: Running for 100000 steps
ETITLE: TS BOND ANGLE DIHED IMPRP ELECT VDW BOUNDARY MISC KINETIC TOTAL TEMP POTENTIAL TOTAL3 TEMPAVG PRESSURE GPRESSURE VOLUME PRESSAVG GPRESSAVG
ENERGY: 200000 0.0000 0.0000 0.0000 0.0000 -14140.6385 2389.8149 0.0000 0.0000 347.6713 -11403.1523 59.0270 -11750.8236 -11402.4725 59.0270 -631.5425 -584.1713 30158.0641 -631.5425 -584.1713
ENERGY: 300000 0.0000 0.0000 0.0000 0.0000 -14076.8389 2429.6713 0.0000 0.0000 531.3897 -11115.7779 90.2184 -11647.1677 -11114.5883 89.8469 -38.6714 29.7726 30094.5630 3.6538 3.6417
TCL: Running 100000 steps at 120 kelvin.
TCL: Setting parameter langevinTemp to 120
TCL: Running for 100000 steps
ETITLE: TS BOND ANGLE DIHED IMPRP ELECT VDW BOUNDARY MISC KINETIC TOTAL TEMP POTENTIAL TOTAL3 TEMPAVG PRESSURE GPRESSURE VOLUME PRESSAVG GPRESSAVG
ENERGY: 300000 0.0000 0.0000 0.0000 0.0000 -14076.8389 2429.6713 0.0000 0.0000 531.1175 -11116.0502 90.1722 -11647.1677 -11114.9455 90.1722 -29.5479 29.9776 30094.5630 -29.5479 29.9776
ENERGY: 400000 0.0000 0.0000 0.0000 0.0000 -13812.5321 2289.9443 0.0000 0.0000 720.2561 -10802.3316 122.2839 -11522.5877 -10800.6065 119.8143 -324.4652 -306.9075 29328.1291 4.1951 4.1348
TCL: Running 100000 steps at 150 kelvin.
TCL: Setting parameter langevinTemp to 150
TCL: Running for 100000 steps
ETITLE: TS BOND ANGLE DIHED IMPRP ELECT VDW BOUNDARY MISC KINETIC TOTAL TEMP POTENTIAL TOTAL3 TEMPAVG PRESSURE GPRESSURE VOLUME PRESSAVG GPRESSAVG
ENERGY: 400000 0.0000 0.0000 0.0000 0.0000 -13812.5321 2289.9443 0.0000 0.0000 719.8906 -10802.6972 122.2218 -11522.5877 -10801.0988 122.2218 -350.1024 -307.3449 29328.1291 -350.1024 -307.3449
ENERGY: 500000 0.0000 0.0000 0.0000 0.0000 -13594.8942 2236.1571 0.0000 0.0000 866.1197 -10492.6173 147.0483 -11358.7370 -10490.4248 149.9138 -157.7550 -116.1561 29092.1663 3.9922 4.1792
TCL: Running 100000 steps at 180 kelvin.
TCL: Setting parameter langevinTemp to 180
TCL: Running for 100000 steps
ETITLE: TS BOND ANGLE DIHED IMPRP ELECT VDW BOUNDARY MISC KINETIC TOTAL TEMP POTENTIAL TOTAL3 TEMPAVG PRESSURE GPRESSURE VOLUME PRESSAVG GPRESSAVG
ENERGY: 500000 0.0000 0.0000 0.0000 0.0000 -13594.8942 2236.1571 0.0000 0.0000 865.6799 -10493.0571 146.9737 -11358.7370 -10491.2626 146.9737 -163.6589 -116.2407 29092.1663 -163.6589 -116.2407
ENERGY: 600000 0.0000 0.0000 0.0000 0.0000 -13252.0863 2141.3446 0.0000 0.0000 1043.4407 -10067.3010 177.1536 -11110.7417 -10064.0256 180.4394 -37.9502 19.3312 29070.5341 3.5925 3.7813
TCL: Running 100000 steps at 210 kelvin.
TCL: Setting parameter langevinTemp to 210
TCL: Running for 100000 steps
ETITLE: TS BOND ANGLE DIHED IMPRP ELECT VDW BOUNDARY MISC KINETIC TOTAL TEMP POTENTIAL TOTAL3 TEMPAVG PRESSURE GPRESSURE VOLUME PRESSAVG GPRESSAVG
ENERGY: 600000 0.0000 0.0000 0.0000 0.0000 -13252.0863 2141.3446 0.0000 0.0000 1042.9158 -10067.8259 177.0645 -11110.7417 -10065.4927 177.0645 -33.4994 20.0721 29070.5341 -33.4994 20.0721
ENERGY: 700000 0.0000 0.0000 0.0000 0.0000 -12494.9608 1880.0545 0.0000 0.0000 1204.3145 -9410.5917 204.4665 -10614.9063 -9407.4501 210.3413 -168.4749 -102.3915 29006.0370 4.5463 4.4024
TCL: Running 100000 steps at 240 kelvin.
TCL: Setting parameter langevinTemp to 240
TCL: Running for 100000 steps
ETITLE: TS BOND ANGLE DIHED IMPRP ELECT VDW BOUNDARY MISC KINETIC TOTAL TEMP POTENTIAL TOTAL3 TEMPAVG PRESSURE GPRESSURE VOLUME PRESSAVG GPRESSAVG
ENERGY: 700000 0.0000 0.0000 0.0000 0.0000 -12494.9608 1880.0545 0.0000 0.0000 1203.6997 -9411.2066 204.3621 -10614.9063 -9409.3514 204.3621 -192.5159 -101.8533 29006.0370 -192.5159 -101.8533
ENERGY: 800000 0.0000 0.0000 0.0000 0.0000 -11909.0240 1769.5187 0.0000 0.0000 1360.6151 -8778.8902 231.0029 -10139.5053 -8774.2298 239.9150 370.1092 463.4906 29359.8571 2.8035 2.7091
TCL: Running 100000 steps at 270 kelvin.
TCL: Setting parameter langevinTemp to 270
TCL: Running for 100000 steps
ETITLE: TS BOND ANGLE DIHED IMPRP ELECT VDW BOUNDARY MISC KINETIC TOTAL TEMP POTENTIAL TOTAL3 TEMPAVG PRESSURE GPRESSURE VOLUME PRESSAVG GPRESSAVG
ENERGY: 800000 0.0000 0.0000 0.0000 0.0000 -11909.0240 1769.5187 0.0000 0.0000 1359.8956 -8779.6097 230.8808 -10139.5053 -8777.3925 230.8808 386.3046 465.4338 29359.8571 386.3046 465.4338
ENERGY: 900000 0.0000 0.0000 0.0000 0.0000 -11423.9088 1661.1547 0.0000 0.0000 1590.4048 -8172.3494 270.0162 -9762.7542 -8169.8555 270.0203 732.6543 808.3847 29896.4581 2.3033 2.3210
TCL: Running 1000000 steps at 300 kelvin.
TCL: Setting parameter langevinTemp to 300
TCL: Running for 1000000 steps
ETITLE: TS BOND ANGLE DIHED IMPRP ELECT VDW BOUNDARY MISC KINETIC TOTAL TEMP POTENTIAL TOTAL3 TEMPAVG PRESSURE GPRESSURE VOLUME PRESSAVG GPRESSAVG
ENERGY: 900000 0.0000 0.0000 0.0000 0.0000 -11423.9088 1661.1547 0.0000 0.0000 1589.5678 -8173.1864 269.8741 -9762.7542 -8171.3759 269.8741 733.0335 808.6166 29896.4581 733.0335 808.6166
ENERGY: 1100000 0.0000 0.0000 0.0000 0.0000 -10911.9176 1516.9661 0.0000 0.0000 1749.9667 -7644.9848 297.1064 -9394.9514 -7642.3028 300.8496 50.0157 114.5384 31238.2879 2.5776 2.5301
ENERGY: 1300000 0.0000 0.0000 0.0000 0.0000 -10787.1597 1423.0606 0.0000 0.0000 1797.0561 -7567.0430 305.1011 -9364.0991 -7564.6924 300.0072 -131.7034 28.2051 30670.9332 3.4230 3.5124
ENERGY: 1500000 0.0000 0.0000 0.0000 0.0000 -10928.3299 1507.2197 0.0000 0.0000 1729.7360 -7691.3742 293.6716 -9421.1102 -7689.6848 300.0867 87.5632 215.3661 30697.9436 3.3812 3.2060
ENERGY: 1700000 0.0000 0.0000 0.0000 0.0000 -10778.6938 1377.6740 0.0000 0.0000 1714.4401 -7686.5798 291.0747 -9401.0199 -7682.6996 300.1935 -621.7447 -573.9763 30692.8478 2.0996 2.1470
ENERGY: 1900000 0.0000 0.0000 0.0000 0.0000 -10787.5107 1443.4853 0.0000 0.0000 1848.8961 -7495.1293 313.9024 -9344.0254 -7491.2487 300.5654 -186.9436 -69.6725 31123.9237 1.6640 1.7927
TCL: Exiting due to exit command.
