Info: SIMULATION PARAMETERS:
Info: TIMESTEP               2
Info: NUMBER OF STEPS        0
Info: STEPS PER CYCLE        10
Info: PERIODIC CELL BASIS 1  40.176 0 0
Info: PERIODIC CELL BASIS 2  0 39.303 0
Info: PERIODIC CELL BASIS 3  0 0 43.191
Info: PERIODIC CELL CENTER   0 0 0
Info: WRAPPING WATERS AROUND PERIODIC BOUNDARIES ON OUTPUT.
Info: WRAPPING ALL CLUSTERS AROUND PERIODIC BOUNDARIES ON OUTPUT.
Info: FIRST LDB TIMESTEP     50
Info: LAST LDB TIMESTEP     -1
Info: HOM BACKGROUND SCALING 1
Info: PME BACKGROUND SCALING 1
Info: MIN ATOMS PER PATCH    40
Info: EMPTY PATCH LOAD       40 ATOMS
Info: INITIAL TEMPERATURE    300
Info: CENTER OF MASS MOVING INITIALLY? NO
Info: DIELECTRIC             1
Info: EXCLUDE                SCALED ONE-FOUR
Info: 1-4 ELECTROSTATICS SCALED BY 0.833333
Info: MODIFIED 1-4 VDW PARAMETERS WILL BE USED
Info: DCD FILENAME           mobley_2126135_min.dcd
Info: DCD FREQUENCY          5000
Info: DCD FIRST STEP         5000
Info: DCD FILE WILL CONTAIN UNIT CELL DATA
Info: XST FILENAME           mobley_2126135_min.xst
Info: XST FREQUENCY          5000
Info: NO VELOCITY DCD OUTPUT
Info: NO FORCE DCD OUTPUT
Info: OUTPUT FILENAME        mobley_2126135_min
Info: BINARY OUTPUT FILES WILL BE USED
Info: RESTART FILENAME       mobley_2126135_min.restart
Info: RESTART FREQUENCY      5000
Info: BINARY RESTART FILES WILL BE USED
Info: CUTOFF                 9
Info: PAIRLIST DISTANCE      11
Info: PAIRLIST SHRINK RATE   0.01
Info: PAIRLIST GROW RATE     0.01
Info: PAIRLIST TRIGGER       0.3
Info: PAIRLISTS PER CYCLE    2
Info: PAIRLISTS ENABLED
Info: MARGIN                 8
Info: HYDROGEN GROUP CUTOFF  2.5
Info: PATCH DIMENSION        21.5
Info: ENERGY OUTPUT STEPS    5000
Info: ENERGY EVALUATION STEPS    5000
Info: OUTPUT ENERGY PRECISION 4
Info: CROSSTERM ENERGY INCLUDED IN DIHEDRAL
Info: TIMING OUTPUT STEPS    50000
Info: PRESSURE OUTPUT STEPS  5000
Info: LANGEVIN DYNAMICS ACTIVE
Info: LANGEVIN TEMPERATURE   300
Info: LANGEVIN USING BBK INTEGRATOR
Info: LANGEVIN DAMPING COEFFICIENT IS 1 INVERSE PS
Info: LANGEVIN DYNAMICS APPLIED TO HYDROGENS
Info: LANGEVIN PISTON PRESSURE CONTROL ACTIVE
Info:        TARGET PRESSURE IS 1.01325 BAR
Info:     OSCILLATION PERIOD IS 50 FS
Info:             DECAY TIME IS 25 FS
Info:     PISTON TEMPERATURE IS 300 K
Info:       PRESSURE CONTROL IS GROUP-BASED
Info:    INITIAL STRAIN RATE IS 0 0 0
Info:       CELL FLUCTUATION IS ISOTROPIC
Info: PARTICLE MESH EWALD (PME) ACTIVE
Info: PME TOLERANCE               1e-06
Info: PME EWALD COEFFICIENT       0.348832
Info: PME INTERPOLATION ORDER     4
Info: PME GRID DIMENSIONS         44 40 44
Info: PME MAXIMUM GRID SPACING    1
Info: FULL ELECTROSTATIC EVALUATION FREQUENCY      2
Info: USING VERLET I (r-RESPA) MTS SCHEME.
Info: C1 SPLITTING OF LONG RANGE ELECTROSTATICS
Info: PLACING ATOMS IN PATCHES BY HYDROGEN GROUPS
Info: RIGID BONDS TO HYDROGEN : ALL
Info:         ERROR TOLERANCE : 1e-08
Info:          MAX ITERATIONS : 100
Info: RIGID WATER USING SETTLE ALGORITHM
Info: RANDOM NUMBER SEED     1741354791
Info: USE HYDROGEN BONDS?    NO
Info: Using AMBER format force field!
Info: AMBER PARM FILE        mobley_2126135.prmtop
Info: COORDINATE PDB         mobley_2126135.pdb
Info: Exclusions will be read from PARM file!
Info: SCNB (VDW SCALING)     2
Info: USING ARITHMETIC MEAN TO COMBINE L-J SIGMA PARAMETERS
Info: SUMMARY OF PARAMETERS:
Info: 9 BONDS
Info: 9 ANGLES
Info:   9 HARMONIC
Info:   0 COSINE-BASED
Info: 7 DIHEDRAL
Info: 0 IMPROPER
Info: 0 CROSSTERM
Info: 0 VDW
Info: 36 VDW_PAIRS
Info: 0 NBTHOLE_PAIRS
Info: STRUCTURE SUMMARY:
Info: 4978 ATOMS
Info: 4978 BONDS
Info: 31 ANGLES
Info: 46 DIHEDRALS
Info: 0 IMPROPERS
Info: 0 CROSSTERMS
Info: 5047 EXCLUSIONS
Info: 4969 RIGID BONDS
Info: 9965 DEGREES OF FREEDOM
Info: 1662 HYDROGEN GROUPS
Info: 4 ATOMS IN LARGEST HYDROGEN GROUP
Info: 1662 MIGRATION GROUPS
Info: 4 ATOMS IN LARGEST MIGRATION GROUP
Info: TOTAL MASS = 29902.6 amu
Info: TOTAL CHARGE = -0.000100028 e
Info: MASS DENSITY = 0.728086 g/cm^3
Info: ATOM DENSITY = 0.072991 atoms/A^3
Info: ADDED 0 IMPLICIT EXCLUSIONS
Info: NONBONDED TABLE R-SQUARED SPACING: 0.0625
Info: NONBONDED TABLE SIZE: 705 POINTS
Info: REMOVING COM VELOCITY 0.0955078 0.106283 -0.0169086
TCL: Minimizing for 2000 steps
ETITLE: TS BOND ANGLE DIHED IMPRP ELECT VDW BOUNDARY MISC KINETIC TOTAL TEMP POTENTIAL TOTAL3 TEMPAVG PRESSURE GPRESSURE VOLUME PRESSAVG GPRESSAVG
ENERGY: 0 0.1904 0.2754 0.9640 0.0000 -15661.4722 1809.4680 0.0000 0.0000 0.0000 -13850.5745 0.0000 -13850.5745 -13850.5745 0.0000 11465.3875 -15733.5178 68200.2012 11465.3875 -15733.5178
ENERGY: 400 2.7196 2.2059 1.8694 0.0000 -20895.2872 3031.0744 0.0000 0.0000 0.0000 -17857.4179 0.0000 -17857.4179 -17857.4179 0.0000 15915.4157 11432.1885 68200.2012 15915.4157 11432.1885
ENERGY: 800 0.8333 0.8179 1.9009 0.0000 -21927.4842 3508.4252 0.0000 0.0000 0.0000 -18415.5068 0.0000 -18415.5068 -18415.5068 0.0000 18145.1810 13293.5006 68200.2012 18145.1810 13293.5006
ENERGY: 1200 1.5783 1.1855 1.2488 0.0000 -22391.6976 3724.1538 0.0000 0.0000 0.0000 -18663.5312 0.0000 -18663.5312 -18663.5312 0.0000 19185.0956 14354.3410 68200.2012 19185.0956 14354.3410
ENERGY: 1600 0.3632 0.5780 1.1691 0.0000 -22699.0572 3884.4855 0.0000 0.0000 0.0000 -18812.4613 0.0000 -18812.4613 -18812.4613 0.0000 19973.5654 15208.2203 68200.2012 19973.5654 15208.2203
ENERGY: 2000 0.3821 0.5007 1.1061 0.0000 -22840.7637 3947.7960 0.0000 0.0000 0.0000 -18890.9788 0.0000 -18890.9788 -18890.9788 0.0000 20317.1292 15612.6672 68200.2012 20317.1292 15612.6672
TCL: Exiting due to exit command.
Info: NAMD 3.0.1 for Linux-x86_64-multicore
Info: Please visit http://www.ks.uiuc.edu/Research/namd/
Info: for updates, documentation, and support information.
Info: Please cite Phillips et al., J. Chem. Phys. 153:044130 (2020) doi:10.1063/5.0014475
Info: in all publications reporting results obtained with NAMD.
Info: Based on Charm++/Converse 80000 for multicore-linux-x86_64-gcc
Info: Built Mon Oct 14 11:11:06 CDT 2024 by dhardy on athine.ks.uiuc.edu
Info: 1 NAMD  3.0.1  Linux-x86_64-multicore  16    k006  z5358697
Info: Running on 16 processors, 1 nodes, 1 physical nodes.
Info: CPU topology information available.
Info: Charm++/Converse parallel runtime startup completed at 0.0101939 s
Info: 1043.45 MB of memory in use based on /proc/self/stat
Info: Configuration file is mobley_2126135_equil.namd
Info: Working in the current directory /srv/scratch/z5358697/prod_prep_1/2126135
TCL: Running 25000 steps at 30 kelvin.
TCL: Suspending until startup complete.
Info: SIMULATION PARAMETERS:
Info: TIMESTEP               2
Info: NUMBER OF STEPS        0
Info: STEPS PER CYCLE        10
Info: PERIODIC CELL BASIS 1  40.176 0 0
Info: PERIODIC CELL BASIS 2  0 39.303 0
Info: PERIODIC CELL BASIS 3  0 0 43.191
Info: PERIODIC CELL CENTER   0 0 0
Info: WRAPPING WATERS AROUND PERIODIC BOUNDARIES ON OUTPUT.
Info: WRAPPING ALL CLUSTERS AROUND PERIODIC BOUNDARIES ON OUTPUT.
Info: FIRST LDB TIMESTEP     50
Info: LAST LDB TIMESTEP     -1
Info: HOM BACKGROUND SCALING 1
Info: PME BACKGROUND SCALING 1
Info: MIN ATOMS PER PATCH    40
Info: EMPTY PATCH LOAD       40 ATOMS
Info: INITIAL TEMPERATURE    300
Info: CENTER OF MASS MOVING INITIALLY? NO
Info: DIELECTRIC             1
Info: EXCLUDE                SCALED ONE-FOUR
Info: 1-4 ELECTROSTATICS SCALED BY 0.833333
Info: MODIFIED 1-4 VDW PARAMETERS WILL BE USED
Info: DCD FILENAME           mobley_2126135_equil.dcd
Info: DCD FREQUENCY          5000
Info: DCD FIRST STEP         5000
Info: DCD FILE WILL CONTAIN UNIT CELL DATA
Info: XST FILENAME           mobley_2126135_equil.xst
Info: XST FREQUENCY          5000
Info: NO VELOCITY DCD OUTPUT
Info: NO FORCE DCD OUTPUT
Info: OUTPUT FILENAME        mobley_2126135_equil
Info: BINARY OUTPUT FILES WILL BE USED
Info: RESTART FILENAME       mobley_2126135_equil.restart
Info: RESTART FREQUENCY      5000
Info: BINARY RESTART FILES WILL BE USED
Info: CUTOFF                 9
Info: PAIRLIST DISTANCE      11
Info: PAIRLIST SHRINK RATE   0.01
Info: PAIRLIST GROW RATE     0.01
Info: PAIRLIST TRIGGER       0.3
Info: PAIRLISTS PER CYCLE    2
Info: PAIRLISTS ENABLED
Info: MARGIN                 8
Info: HYDROGEN GROUP CUTOFF  2.5
Info: PATCH DIMENSION        21.5
Info: ENERGY OUTPUT STEPS    5000
Info: ENERGY EVALUATION STEPS    5000
Info: OUTPUT ENERGY PRECISION 4
Info: CROSSTERM ENERGY INCLUDED IN DIHEDRAL
Info: TIMING OUTPUT STEPS    50000
Info: PRESSURE OUTPUT STEPS  5000
Info: LANGEVIN DYNAMICS ACTIVE
Info: LANGEVIN TEMPERATURE   30
Info: LANGEVIN USING BBK INTEGRATOR
Info: LANGEVIN DAMPING COEFFICIENT IS 1 INVERSE PS
Info: LANGEVIN DYNAMICS APPLIED TO HYDROGENS
Info: LANGEVIN PISTON PRESSURE CONTROL ACTIVE
Info:        TARGET PRESSURE IS 1.01325 BAR
Info:     OSCILLATION PERIOD IS 50 FS
Info:             DECAY TIME IS 25 FS
Info:     PISTON TEMPERATURE IS 300 K
Info:       PRESSURE CONTROL IS GROUP-BASED
Info:    INITIAL STRAIN RATE IS 0 0 0
Info:       CELL FLUCTUATION IS ISOTROPIC
Info: PARTICLE MESH EWALD (PME) ACTIVE
Info: PME TOLERANCE               1e-06
Info: PME EWALD COEFFICIENT       0.348832
Info: PME INTERPOLATION ORDER     4
Info: PME GRID DIMENSIONS         44 40 44
Info: PME MAXIMUM GRID SPACING    1
Info: FULL ELECTROSTATIC EVALUATION FREQUENCY      2
Info: USING VERLET I (r-RESPA) MTS SCHEME.
Info: C1 SPLITTING OF LONG RANGE ELECTROSTATICS
Info: PLACING ATOMS IN PATCHES BY HYDROGEN GROUPS
Info: RIGID BONDS TO HYDROGEN : ALL
Info:         ERROR TOLERANCE : 1e-08
Info:          MAX ITERATIONS : 100
Info: RIGID WATER USING SETTLE ALGORITHM
Info: RANDOM NUMBER SEED     1741354808
Info: USE HYDROGEN BONDS?    NO
Info: Using AMBER format force field!
Info: AMBER PARM FILE        mobley_2126135.prmtop
Info: COORDINATE PDB         mobley_2126135.pdb
Info: Exclusions will be read from PARM file!
Info: SCNB (VDW SCALING)     2
Info: USING ARITHMETIC MEAN TO COMBINE L-J SIGMA PARAMETERS
Info: BINARY COORDINATES     mobley_2126135_min.coor
Info: SUMMARY OF PARAMETERS:
Info: 9 BONDS
Info: 9 ANGLES
Info:   9 HARMONIC
Info:   0 COSINE-BASED
Info: 7 DIHEDRAL
Info: 0 IMPROPER
Info: 0 CROSSTERM
Info: 0 VDW
Info: 36 VDW_PAIRS
Info: 0 NBTHOLE_PAIRS
Info: STRUCTURE SUMMARY:
Info: 4978 ATOMS
Info: 4978 BONDS
Info: 31 ANGLES
Info: 46 DIHEDRALS
Info: 0 IMPROPERS
Info: 0 CROSSTERMS
Info: 5047 EXCLUSIONS
Info: 4969 RIGID BONDS
Info: 9965 DEGREES OF FREEDOM
Info: 1662 HYDROGEN GROUPS
Info: 4 ATOMS IN LARGEST HYDROGEN GROUP
Info: 1662 MIGRATION GROUPS
Info: 4 ATOMS IN LARGEST MIGRATION GROUP
Info: TOTAL MASS = 29902.6 amu
Info: TOTAL CHARGE = -0.000100028 e
Info: MASS DENSITY = 0.728086 g/cm^3
Info: ATOM DENSITY = 0.072991 atoms/A^3
Info: ADDED 0 IMPLICIT EXCLUSIONS
Info: NONBONDED TABLE R-SQUARED SPACING: 0.0625
Info: NONBONDED TABLE SIZE: 705 POINTS
Info: REMOVING COM VELOCITY 0.104338 -0.0148168 0.0809442
TCL: Running for 25000 steps
ETITLE: TS BOND ANGLE DIHED IMPRP ELECT VDW BOUNDARY MISC KINETIC TOTAL TEMP POTENTIAL TOTAL3 TEMPAVG PRESSURE GPRESSURE VOLUME PRESSAVG GPRESSAVG
ENERGY: 0 0.3821 0.5007 1.1061 0.0000 -22840.7637 3947.7960 0.0000 0.0000 2910.1502 -15980.8286 293.9196 -18890.9788 -15980.2581 293.9196 272.5640 306.9311 68200.2012 272.5640 306.9311
ENERGY: 5000 0.4599 1.1184 2.9421 0.0000 -24033.0510 4289.0722 0.0000 0.0000 301.8284 -19437.6299 30.4841 -19739.4583 -19436.6321 47.3768 822.2603 880.6379 48276.3520 0.8905 1.0153
ENERGY: 10000 0.9468 1.3353 3.2568 0.0000 -23654.9968 3902.5308 0.0000 0.0000 300.7427 -19446.1845 30.3744 -19746.9272 -19445.3379 30.3841 -1223.6929 -1172.7211 48920.4531 1.8685 1.6844
ENERGY: 15000 0.4626 1.0075 2.8948 0.0000 -23892.7873 4101.9118 0.0000 0.0000 298.6541 -19487.8566 30.1635 -19786.5106 -19487.0947 30.2505 -259.1442 -204.4656 48471.7388 5.8087 5.8250
ENERGY: 20000 0.4059 1.2597 3.2733 0.0000 -23947.0639 4143.8675 0.0000 0.0000 297.5026 -19500.7547 30.0472 -19798.2574 -19499.8769 30.0831 -51.4072 0.9678 48346.0833 0.1692 0.0755
ENERGY: 25000 1.0136 1.1545 3.0609 0.0000 -23992.3215 4174.8206 0.0000 0.0000 299.9133 -19512.3586 30.2907 -19812.2719 -19511.4584 30.1010 107.5138 143.3784 48259.9123 2.0229 2.0701
TCL: Running 25000 steps at 60 kelvin.
TCL: Setting parameter langevinTemp to 60
TCL: Running for 25000 steps
ETITLE: TS BOND ANGLE DIHED IMPRP ELECT VDW BOUNDARY MISC KINETIC TOTAL TEMP POTENTIAL TOTAL3 TEMPAVG PRESSURE GPRESSURE VOLUME PRESSAVG GPRESSAVG
ENERGY: 25000 1.0136 1.1545 3.0609 0.0000 -23992.3215 4174.8206 0.0000 0.0000 299.7634 -19512.5086 30.2755 -19812.2719 -19511.9600 30.2755 89.8484 143.5113 48259.9123 89.8484 143.5113
ENERGY: 30000 1.1869 1.3068 1.9080 0.0000 -23657.5555 4103.5275 0.0000 0.0000 598.3801 -18951.2462 60.4352 -19549.6263 -18949.9090 57.2964 296.1853 365.5036 48477.9629 5.6767 5.5445
ENERGY: 35000 0.9703 1.8432 3.7105 0.0000 -23611.8589 4035.1412 0.0000 0.0000 611.7226 -18958.4711 61.7828 -19570.1937 -18956.5074 59.9525 -49.6454 46.8514 48341.6965 4.5797 4.4012
ENERGY: 40000 1.3154 0.8860 2.7428 0.0000 -23684.2746 4056.8900 0.0000 0.0000 599.3415 -19023.0988 60.5323 -19622.4403 -19021.6195 60.3570 37.4294 103.7743 48207.4159 3.2243 3.4185
ENERGY: 45000 0.6882 1.7994 1.8941 0.0000 -23611.3274 3963.4189 0.0000 0.0000 611.9877 -19031.5390 61.8096 -19643.5267 -19029.9283 60.0275 -538.1626 -460.9798 48356.0297 5.7055 5.8946
ENERGY: 50000 1.0147 1.3930 0.7454 0.0000 -23669.5663 4004.1294 0.0000 0.0000 601.1264 -19061.1575 60.7126 -19662.2839 -19059.6575 60.5446 -370.6942 -322.3833 48242.2101 9.4437 9.2948
TCL: Running 25000 steps at 90 kelvin.
TCL: Setting parameter langevinTemp to 90
TCL: Running for 25000 steps
ETITLE: TS BOND ANGLE DIHED IMPRP ELECT VDW BOUNDARY MISC KINETIC TOTAL TEMP POTENTIAL TOTAL3 TEMPAVG PRESSURE GPRESSURE VOLUME PRESSAVG GPRESSAVG
ENERGY: 50000 1.0147 1.3930 0.7454 0.0000 -23669.5663 4004.1294 0.0000 0.0000 600.8343 -19061.4496 60.6831 -19662.2839 -19060.1621 60.6831 -384.4581 -322.3030 48242.2101 -384.4581 -322.3030
ENERGY: 55000 1.5735 1.3744 1.9389 0.0000 -23159.4137 3788.9328 0.0000 0.0000 896.5265 -18469.0676 90.5474 -19365.5942 -18465.5791 86.8896 -770.0204 -695.0924 48585.6804 1.1426 1.0840
ENERGY: 60000 1.0539 2.6951 1.0569 0.0000 -23534.9811 4127.2580 0.0000 0.0000 880.8017 -18522.1154 88.9593 -19402.9171 -18521.0384 90.1712 779.1242 878.9585 48197.6281 8.7897 8.5956
ENERGY: 65000 0.9092 2.1710 2.6274 0.0000 -23361.9881 3938.9520 0.0000 0.0000 881.1330 -18536.1955 88.9927 -19417.3285 -18533.5115 90.2968 -99.8787 -66.6337 48344.3823 3.6978 3.6629
ENERGY: 70000 1.4721 2.0740 2.1889 0.0000 -23344.8932 3935.9722 0.0000 0.0000 889.7540 -18513.4320 89.8634 -19403.1860 -18510.8559 90.1000 -121.2659 -81.3606 48446.2752 5.1768 5.0152
ENERGY: 75000 1.0776 1.7014 1.3992 0.0000 -23555.3103 4119.6829 0.0000 0.0000 862.0915 -18569.3577 87.0696 -19431.4491 -18567.7004 90.1844 790.7153 816.1653 48156.5498 4.1198 4.0052
TCL: Running 25000 steps at 120 kelvin.
TCL: Setting parameter langevinTemp to 120
TCL: Running for 25000 steps
ETITLE: TS BOND ANGLE DIHED IMPRP ELECT VDW BOUNDARY MISC KINETIC TOTAL TEMP POTENTIAL TOTAL3 TEMPAVG PRESSURE GPRESSURE VOLUME PRESSAVG GPRESSAVG
ENERGY: 75000 1.0776 1.7014 1.3992 0.0000 -23555.3103 4119.6829 0.0000 0.0000 861.6377 -18569.8114 87.0237 -19431.4491 -18568.3303 87.0237 762.8314 815.6417 48156.5498 762.8314 815.6417
ENERGY: 80000 2.2962 2.9572 2.1850 0.0000 -22926.0161 3808.3456 0.0000 0.0000 1221.8176 -17888.4145 123.4012 -19110.2321 -17884.5147 116.2953 -112.6644 -53.1483 48556.3810 5.5798 6.1642
ENERGY: 85000 1.6053 3.0656 2.2309 0.0000 -23058.2057 3853.7026 0.0000 0.0000 1185.3568 -18012.2445 119.7188 -19197.6013 -18009.9535 120.6446 -119.9693 -29.1560 48514.6975 5.3435 4.7264
ENERGY: 90000 1.1197 3.6479 3.0858 0.0000 -23109.1747 3895.3330 0.0000 0.0000 1174.3827 -18031.6055 118.6104 -19205.9882 -18028.6639 120.0173 100.0681 152.0335 48390.9148 -1.9823 -1.8086
ENERGY: 95000 2.0550 2.7452 1.9373 0.0000 -23015.6971 3802.7966 0.0000 0.0000 1174.8811 -18031.2820 118.6607 -19206.1631 -18028.1652 119.9720 -291.7602 -256.6043 48468.0665 -1.5040 -1.3230
ENERGY: 100000 0.4960 2.4168 1.8203 0.0000 -23326.6489 4065.0401 0.0000 0.0000 1197.6308 -18059.2450 120.9584 -19256.8758 -18056.4733 120.0113 896.0704 993.9887 48141.6917 5.3137 5.8569
TCL: Running 25000 steps at 150 kelvin.
TCL: Setting parameter langevinTemp to 150
TCL: Running for 25000 steps
ETITLE: TS BOND ANGLE DIHED IMPRP ELECT VDW BOUNDARY MISC KINETIC TOTAL TEMP POTENTIAL TOTAL3 TEMPAVG PRESSURE GPRESSURE VOLUME PRESSAVG GPRESSAVG
ENERGY: 100000 0.4960 2.4168 1.8203 0.0000 -23326.6489 4065.0401 0.0000 0.0000 1197.0446 -18059.8312 120.8992 -19256.8758 -18057.4721 120.8992 933.5919 993.9481 48141.6917 933.5919 993.9481
ENERGY: 105000 1.3791 2.8875 3.4987 0.0000 -22579.9676 3752.5806 0.0000 0.0000 1498.2870 -17321.3348 151.3241 -18819.6218 -17317.0317 146.6838 114.4155 175.4299 49005.9194 0.8535 0.6495
ENERGY: 110000 0.9985 3.7807 2.0923 0.0000 -22609.7620 3738.5907 0.0000 0.0000 1474.4655 -17389.8345 148.9182 -18864.3000 -17384.7019 150.1861 102.8007 169.7810 48630.3918 1.6579 1.6880
ENERGY: 115000 1.9322 1.5191 3.9282 0.0000 -22460.5371 3558.2058 0.0000 0.0000 1488.5204 -17406.4314 150.3377 -18894.9518 -17402.6494 149.6959 -997.8305 -954.3468 49159.7991 4.1455 4.0495
ENERGY: 120000 0.4852 4.9200 2.2857 0.0000 -22718.0613 3797.4509 0.0000 0.0000 1489.7468 -17423.1728 150.4616 -18912.9195 -17419.6268 150.3039 314.9419 358.7537 48536.1018 -0.6819 -0.2350
ENERGY: 125000 2.1745 2.3414 2.9922 0.0000 -22657.1391 3731.0567 0.0000 0.0000 1536.7292 -17381.8451 155.2067 -18918.5743 -17378.4550 151.3850 -18.9330 23.3900 48593.1732 1.6475 1.4095
TCL: Running 50000 steps at 180 kelvin.
TCL: Setting parameter langevinTemp to 180
TCL: Running for 50000 steps
ETITLE: TS BOND ANGLE DIHED IMPRP ELECT VDW BOUNDARY MISC KINETIC TOTAL TEMP POTENTIAL TOTAL3 TEMPAVG PRESSURE GPRESSURE VOLUME PRESSAVG GPRESSAVG
ENERGY: 125000 2.1745 2.3414 2.9922 0.0000 -22657.1391 3731.0567 0.0000 0.0000 1536.0065 -17382.5678 155.1337 -18918.5743 -17378.9759 155.1337 -41.3603 23.7608 48593.1732 -41.3603 23.7608
ENERGY: 135000 1.8849 2.7493 5.5625 0.0000 -22112.0963 3575.2355 0.0000 0.0000 1820.1183 -16706.5458 183.8284 -18526.6641 -16702.3387 180.5600 -211.7788 -81.4798 49259.2899 4.9778 4.5810
ENERGY: 145000 0.7512 2.6614 1.6956 0.0000 -21968.2985 3524.9150 0.0000 0.0000 1760.8171 -16677.4582 177.8391 -18438.2753 -16673.2586 181.0259 -73.4005 -0.5914 48845.1931 2.2781 2.4535
ENERGY: 155000 1.7690 2.8226 3.1592 0.0000 -22125.4409 3586.3506 0.0000 0.0000 1793.6164 -16737.7231 181.1518 -18531.3395 -16733.3978 182.0059 55.4431 112.2352 49097.6881 2.2493 1.8670
ENERGY: 165000 3.3383 6.6041 1.4594 0.0000 -22143.6470 3630.3800 0.0000 0.0000 1769.6175 -16732.2476 178.7280 -18501.8652 -16730.1752 179.8340 268.4896 341.9692 48952.8371 3.3065 2.9043
ENERGY: 175000 0.9422 2.7527 4.3125 0.0000 -22319.7838 3734.6575 0.0000 0.0000 1785.5214 -16791.5976 180.3342 -18577.1190 -16788.0219 179.6452 781.8808 827.2934 48600.0486 1.1001 1.7721
TCL: Running 50000 steps at 210 kelvin.
TCL: Setting parameter langevinTemp to 210
TCL: Running for 50000 steps
ETITLE: TS BOND ANGLE DIHED IMPRP ELECT VDW BOUNDARY MISC KINETIC TOTAL TEMP POTENTIAL TOTAL3 TEMPAVG PRESSURE GPRESSURE VOLUME PRESSAVG GPRESSAVG
ENERGY: 175000 0.9422 2.7527 4.3125 0.0000 -22319.7838 3734.6575 0.0000 0.0000 1784.6364 -16792.4826 180.2448 -18577.1190 -16789.1445 180.2448 750.8283 826.7954 48600.0486 750.8283 826.7954
ENERGY: 185000 2.6096 5.1413 4.8391 0.0000 -21079.2516 3252.8847 0.0000 0.0000 2047.4847 -15766.2922 206.7920 -17813.7769 -15763.4382 209.0211 -50.4649 -3.2266 48937.0579 2.2607 1.5603
ENERGY: 195000 0.7817 3.9233 4.7581 0.0000 -21088.2285 3265.5905 0.0000 0.0000 2087.5185 -15725.6564 210.8353 -17813.1749 -15722.1810 210.0168 206.0771 289.1211 48279.0659 5.0238 5.2621
ENERGY: 205000 5.0859 2.6091 2.4996 0.0000 -21057.4561 3257.6414 0.0000 0.0000 2150.0228 -15639.5974 217.1482 -17789.6202 -15633.7724 209.8721 369.3024 431.7137 47869.3669 -0.6519 -0.3296
ENERGY: 215000 2.6793 2.9436 3.2540 0.0000 -20987.0354 3195.4296 0.0000 0.0000 2058.5262 -15724.2027 207.9072 -17782.7288 -15720.0356 210.2432 120.5951 188.9134 47976.0885 0.5714 0.5838
ENERGY: 225000 2.8144 3.3858 3.9905 0.0000 -20845.5500 3125.8012 0.0000 0.0000 2079.5635 -15629.9945 210.0319 -17709.5581 -15626.4530 209.8151 -337.2354 -266.0398 48582.8625 1.7792 2.4951
TCL: Running 50000 steps at 240 kelvin.
TCL: Setting parameter langevinTemp to 240
TCL: Running for 50000 steps
ETITLE: TS BOND ANGLE DIHED IMPRP ELECT VDW BOUNDARY MISC KINETIC TOTAL TEMP POTENTIAL TOTAL3 TEMPAVG PRESSURE GPRESSURE VOLUME PRESSAVG GPRESSAVG
ENERGY: 225000 2.8144 3.3858 3.9905 0.0000 -20845.5500 3125.8012 0.0000 0.0000 2078.5488 -15631.0093 209.9294 -17709.5581 -15627.1061 209.9294 -339.1376 -266.1132 48582.8625 -339.1376 -266.1132
ENERGY: 235000 4.0157 5.4859 4.2030 0.0000 -19668.4155 2747.8441 0.0000 0.0000 2394.5081 -14512.3586 241.8407 -16906.8667 -14506.6569 239.4439 -551.2512 -455.0554 49034.3240 -3.0510 -3.0346
ENERGY: 245000 1.7666 3.8421 2.3643 0.0000 -19954.2446 2906.5548 0.0000 0.0000 2367.2246 -14672.4921 239.0851 -17039.7168 -14666.3201 240.7256 66.3992 108.4770 48942.2755 2.3045 1.7474
ENERGY: 255000 3.1206 3.0606 3.3988 0.0000 -19950.7653 2882.9304 0.0000 0.0000 2331.7150 -14726.5400 235.4987 -17058.2550 -14720.2761 237.9892 -227.5698 -198.1203 49254.0331 1.8840 2.0000
ENERGY: 265000 0.9260 5.2319 2.8909 0.0000 -19943.6257 2891.4069 0.0000 0.0000 2447.7965 -14595.3736 247.2227 -17043.1701 -14590.3187 240.3027 -85.0119 10.2669 48969.6364 3.0410 2.5914
ENERGY: 275000 3.4720 8.5400 4.1873 0.0000 -19832.2595 2786.0258 0.0000 0.0000 2359.9033 -14670.1311 238.3457 -17030.0344 -14668.3482 240.8415 -605.4190 -519.2431 48878.4166 -0.4967 -1.4502
TCL: Running 50000 steps at 270 kelvin.
TCL: Setting parameter langevinTemp to 270
TCL: Running for 50000 steps
ETITLE: TS BOND ANGLE DIHED IMPRP ELECT VDW BOUNDARY MISC KINETIC TOTAL TEMP POTENTIAL TOTAL3 TEMPAVG PRESSURE GPRESSURE VOLUME PRESSAVG GPRESSAVG
ENERGY: 275000 3.4720 8.5400 4.1873 0.0000 -19832.2595 2786.0258 0.0000 0.0000 2358.7456 -14671.2888 238.2288 -17030.0344 -14667.3130 238.2288 -610.1614 -521.6948 48878.4166 -610.1614 -521.6948
ENERGY: 285000 1.8957 8.6206 3.0990 0.0000 -19042.1675 2696.0698 0.0000 0.0000 2733.9272 -13598.5553 276.1214 -16332.4824 -13594.0809 269.0393 194.0380 264.1027 49881.4771 2.3139 2.7452
ENERGY: 295000 3.9337 4.7211 4.1679 0.0000 -18829.8210 2580.0625 0.0000 0.0000 2661.1309 -13575.8049 268.7691 -16236.9357 -13571.4366 270.3571 -174.5320 -116.2770 50131.0681 2.0334 1.7908
ENERGY: 305000 3.4631 4.7459 3.6974 0.0000 -18826.5917 2566.0308 0.0000 0.0000 2675.6247 -13573.0299 270.2329 -16248.6545 -13565.7496 270.2483 -347.9659 -262.2831 49858.0405 0.4180 0.2735
ENERGY: 315000 4.9324 5.8739 1.9144 0.0000 -19065.1023 2680.5329 0.0000 0.0000 2610.8086 -13761.0401 263.6866 -16371.8487 -13754.7448 269.7667 -210.3880 -120.6601 50400.0627 0.6797 0.6673
ENERGY: 325000 0.9763 7.2097 2.7125 0.0000 -18986.4559 2627.8199 0.0000 0.0000 2719.6405 -13628.0971 274.6784 -16347.7376 -13623.1746 270.1092 -55.8077 9.0374 49989.2718 0.2559 -0.1015
TCL: Running 1000000 steps at 300 kelvin.
TCL: Setting parameter langevinTemp to 300
TCL: Running for 1000000 steps
ETITLE: TS BOND ANGLE DIHED IMPRP ELECT VDW BOUNDARY MISC KINETIC TOTAL TEMP POTENTIAL TOTAL3 TEMPAVG PRESSURE GPRESSURE VOLUME PRESSAVG GPRESSAVG
ENERGY: 325000 0.9763 7.2097 2.7125 0.0000 -18986.4559 2627.8199 0.0000 0.0000 2718.3018 -13629.4358 274.5432 -16347.7376 -13624.1966 274.5432 -72.0483 9.3500 49989.2718 -72.0483 9.3500
ENERGY: 525000 5.5346 5.3138 2.8374 0.0000 -18319.0192 2620.4397 0.0000 0.0000 3023.7873 -12661.1064 305.3967 -15684.8937 -12656.1660 298.4976 884.5912 936.6413 50768.1754 6.2746 6.3316
ENERGY: 725000 2.1683 7.7346 4.5405 0.0000 -18103.0767 2435.3489 0.0000 0.0000 2975.5645 -12677.7200 300.5263 -15653.2844 -12673.5990 299.1178 -6.6746 33.1543 51212.9961 4.8531 4.9184
ENERGY: 925000 2.5513 5.3106 2.2669 0.0000 -17960.7061 2474.0555 0.0000 0.0000 2974.9525 -12501.5693 300.4645 -15476.5217 -12496.9377 300.0638 266.4194 339.1769 51967.7371 4.3619 4.4793
ENERGY: 1125000 3.9495 7.4022 7.0585 0.0000 -18130.5743 2524.3695 0.0000 0.0000 3001.1273 -12586.6672 303.1081 -15587.7945 -12581.7148 301.9659 539.0372 591.6136 51309.7996 9.7570 9.1685
ENERGY: 1325000 1.8896 4.8908 2.5374 0.0000 -17967.6353 2339.4887 0.0000 0.0000 2950.9617 -12667.8671 298.0414 -15618.8288 -12660.2245 300.4041 -499.0665 -377.7074 51765.3343 1.7234 2.1302
TCL: Exiting due to exit command.
