Info: SIMULATION PARAMETERS:
Info: TIMESTEP               2
Info: NUMBER OF STEPS        0
Info: STEPS PER CYCLE        10
Info: PERIODIC CELL BASIS 1  30.8124 0 0
Info: PERIODIC CELL BASIS 2  0 31.1867 0
Info: PERIODIC CELL BASIS 3  0 0 31.3919
Info: PERIODIC CELL CENTER   0 0 0
Info: WRAPPING WATERS AROUND PERIODIC BOUNDARIES ON OUTPUT.
Info: WRAPPING ALL CLUSTERS AROUND PERIODIC BOUNDARIES ON OUTPUT.
Info: FIRST LDB TIMESTEP     50
Info: LAST LDB TIMESTEP     -1
Info: HOM BACKGROUND SCALING 1
Info: PME BACKGROUND SCALING 1
Info: MIN ATOMS PER PATCH    40
Info: EMPTY PATCH LOAD       40 ATOMS
Info: VELOCITY FILE          mobley_9055303_equil.vel
Info: CENTER OF MASS MOVING INITIALLY? NO
Info: DIELECTRIC             1
Info: EXCLUDE                SCALED ONE-FOUR
Info: 1-4 ELECTROSTATICS SCALED BY 0.833333
Info: MODIFIED 1-4 VDW PARAMETERS WILL BE USED
Info: DCD FILENAME           mobley_9055303_prod.dcd
Info: DCD FREQUENCY          100000
Info: DCD FIRST STEP         100000
Info: DCD FILE WILL CONTAIN UNIT CELL DATA
Info: XST FILENAME           mobley_9055303_prod.xst
Info: XST FREQUENCY          100000
Info: NO VELOCITY DCD OUTPUT
Info: NO FORCE DCD OUTPUT
Info: OUTPUT FILENAME        mobley_9055303_prod
Info: BINARY OUTPUT FILES WILL BE USED
Info: RESTART FILENAME       mobley_9055303_prod.restart
Info: RESTART FREQUENCY      100000
Info: BINARY RESTART FILES WILL BE USED
Info: CUTOFF                 9
Info: PAIRLIST DISTANCE      11
Info: PAIRLIST SHRINK RATE   0.01
Info: PAIRLIST GROW RATE     0.01
Info: PAIRLIST TRIGGER       0.3
Info: PAIRLISTS PER CYCLE    2
Info: PAIRLISTS ENABLED
Info: MARGIN                 2
Info: HYDROGEN GROUP CUTOFF  2.5
Info: PATCH DIMENSION        15.5
Info: ENERGY OUTPUT STEPS    100000
Info: ENERGY EVALUATION STEPS    100000
Info: OUTPUT ENERGY PRECISION 4
Info: CROSSTERM ENERGY INCLUDED IN DIHEDRAL
Info: TIMING OUTPUT STEPS    1000000
Info: PRESSURE OUTPUT STEPS  100000
Info: ALCHEMICAL FEP ON
Info: FEP CURRENT LAMBDA VALUE     1
Info: FEP COMPARISON LAMBDA VALUE  0.95
Info: FEP INTRA-ALCHEMICAL NON-BONDED INTERACTIONS WILL BE RETAINED
Info: FEP INTRA-ALCHEMICAL BONDED INTERACTIONS WILL BE RETAINED
Info: FEP VDW SHIFTING COEFFICIENT 5
Info: FEP ELEC. ACTIVE FOR ANNIHILATED PARTICLES BETWEEN LAMBDA = 0 AND LAMBDA = 0.5
Info: FEP ELEC. ACTIVE FOR EXNIHILATED PARTICLES BETWEEN LAMBDA = 0.5 AND LAMBDA = 1
Info: FEP VDW ACTIVE FOR ANNIHILATED PARTICLES BETWEEN LAMBDA = 0 AND LAMBDA = 1
Info: FEP VDW ACTIVE FOR EXNIHILATED PARTICLES BETWEEN LAMBDA = 0 AND LAMBDA = 1
Info: FEP BOND ACTIVE FOR ANNIHILATED PARTICLES BETWEEN LAMBDA = 1 AND LAMBDA = 1
Info: FEP BOND ACTIVE FOR EXNIHILATED PARTICLES BETWEEN LAMBDA = 0 AND LAMBDA = 0
Info: LANGEVIN DYNAMICS ACTIVE
Info: LANGEVIN TEMPERATURE   300
Info: LANGEVIN USING BBK INTEGRATOR
Info: LANGEVIN DAMPING COEFFICIENT IS 1 INVERSE PS
Info: LANGEVIN DYNAMICS APPLIED TO HYDROGENS
Info: LANGEVIN PISTON PRESSURE CONTROL ACTIVE
Info:        TARGET PRESSURE IS 1.01325 BAR
Info:     OSCILLATION PERIOD IS 50 FS
Info:             DECAY TIME IS 25 FS
Info:     PISTON TEMPERATURE IS 300 K
Info:       PRESSURE CONTROL IS GROUP-BASED
Info:    INITIAL STRAIN RATE IS -0.000204136 -0.000204136 -0.000204136
Info:       CELL FLUCTUATION IS ISOTROPIC
Info: PARTICLE MESH EWALD (PME) ACTIVE
Info: PME TOLERANCE               1e-06
Info: PME EWALD COEFFICIENT       0.348832
Info: PME INTERPOLATION ORDER     4
Info: PME GRID DIMENSIONS         32 32 32
Info: PME MAXIMUM GRID SPACING    1
Info: PME CALCULATION WILL BE PERFORMED ON GPU
Info: FULL ELECTROSTATIC EVALUATION FREQUENCY      2
Info: USING VERLET I (r-RESPA) MTS SCHEME.
Info: C1 SPLITTING OF LONG RANGE ELECTROSTATICS
Info: PLACING ATOMS IN PATCHES BY HYDROGEN GROUPS
Info: RIGID BONDS TO HYDROGEN : ALL
Info:         ERROR TOLERANCE : 1e-08
Info:          MAX ITERATIONS : 100
Info: RIGID WATER USING SETTLE ALGORITHM
Info: RANDOM NUMBER SEED     1742001788
Info: USE HYDROGEN BONDS?    NO
Info: Using AMBER format force field!
Info: AMBER PARM FILE        mobley_9055303.prmtop
Info: COORDINATE PDB         mobley_9055303.pdb
Info: Exclusions will be read from PARM file!
Info: SCNB (VDW SCALING)     2
Info: USING ARITHMETIC MEAN TO COMBINE L-J SIGMA PARAMETERS
Info: BINARY COORDINATES     mobley_9055303_equil.coor
Info: SUMMARY OF PARAMETERS:
Info: 3 BONDS
Info: 1 ANGLES
Info:   1 HARMONIC
Info:   0 COSINE-BASED
Info: 0 DIHEDRAL
Info: 0 IMPROPER
Info: 0 CROSSTERM
Info: 0 VDW
Info: 10 VDW_PAIRS
Info: 0 NBTHOLE_PAIRS
Info: To read alchdata from file: mobley_9055303.pdb
Info: To read alchflag data from column: 5
Info: STRUCTURE SUMMARY:
Info: 2954 ATOMS
Info: 2953 BONDS
Info: 6 ANGLES
Info: 0 DIHEDRALS
Info: 0 IMPROPERS
Info: 0 CROSSTERMS
Info: 2959 EXCLUSIONS
Info: 2953 RIGID BONDS
Info: ALCH: 0 ATOMS TO DISAPPEAR IN FINAL STATE
Info: ALCH: 5 ATOMS TO APPEAR IN FINAL STATE
Info: 5909 DEGREES OF FREEDOM
Info: 984 HYDROGEN GROUPS
Info: 5 ATOMS IN LARGEST HYDROGEN GROUP
Info: 984 MIGRATION GROUPS
Info: 5 ATOMS IN LARGEST MIGRATION GROUP
Info: TOTAL MASS = 17725.8 amu
Info: TOTAL CHARGE = 0.000100002 e
Info: MASS DENSITY = 0.975777 g/cm^3
Info: ATOM DENSITY = 0.0979257 atoms/A^3
Info: ADDED 0 IMPLICIT EXCLUSIONS
Info: NONBONDED TABLE R-SQUARED SPACING: 0.0625
Info: NONBONDED TABLE SIZE: 705 POINTS
Info: REMOVING COM VELOCITY 0.0487042 -0.0140047 0.268374
Info: Use 3D box decompostion in PME FFT.
Info: Updated CUDA force table with 4096 elements.
Info: Updated CUDA LJ table with 4 x 4 elements.
Info: Found 8 unique exclusion lists needing 8 bytes
TCL: Running for 1500000 steps
ETITLE: TS BOND ANGLE DIHED IMPRP ELECT VDW BOUNDARY MISC KINETIC TOTAL TEMP POTENTIAL TOTALAVG TEMPAVG PRESSURE GPRESSURE VOLUME PRESSAVG GPRESSAVG
ENERGY: 0 0.0000 0.5590 0.0000 0.0000 -10819.0454 1423.4078 0.0000 0.0000 1788.3178 -7606.7608 304.5938 -9395.0787 -7606.7608 304.5938 -291.9296 -227.1902 30165.7408 -291.9296 -227.1902
ENERGY: 300000 0.0000 1.4739 0.0000 0.0000 -10787.1041 1543.9956 0.0000 0.0000 1728.2058 -7513.4287 294.3553 -9241.6346 -7544.9047 300.1221 677.9901 776.4202 30625.7979 -163.3233 -65.7924
ENERGY: 600000 0.0000 1.2387 0.0000 0.0000 -10694.9581 1422.3675 0.0000 0.0000 1787.6758 -7483.6761 304.4845 -9271.3519 -7533.6865 301.6260 -118.3405 -30.5889 30387.3924 33.6812 117.3953
ENERGY: 900000 0.0000 2.0915 0.0000 0.0000 -10724.6235 1389.2778 0.0000 0.0000 1766.9602 -7566.2940 300.9561 -9333.2542 -7542.5276 300.5099 -643.4943 -618.1601 30835.9427 -37.8979 26.3034
ENERGY: 1200000 0.0000 2.4016 0.0000 0.0000 -10552.3597 1322.7072 0.0000 0.0000 1704.3448 -7522.9061 290.2912 -9227.2509 -7550.5589 299.2167 -736.2114 -728.9965 30502.4919 54.9278 114.9028
ENERGY: 1500000 0.0000 2.1461 0.0000 0.0000 -10604.4324 1429.6405 0.0000 0.0000 1774.1071 -7398.5386 302.1734 -9172.6458 -7543.6155 299.2753 -54.5122 -53.1285 31086.6350 57.8240 111.1294
TCL: Running FEP window   2: Lambda1 0.95   Lambda2 0.8999999999999999 [dLambda -0.050000000000000044]
TCL: Setting parameter firsttimestep to 0
TCL: Setting parameter alchLambda to 0.95
Info: NONBONDED TABLE R-SQUARED SPACING: 0.0625
Info: NONBONDED TABLE SIZE: 705 POINTS
TCL: Setting parameter alchLambda2 to 0.8999999999999999
Info: NONBONDED TABLE R-SQUARED SPACING: 0.0625
Info: NONBONDED TABLE SIZE: 705 POINTS
TCL: Running for 1500000 steps
ETITLE: TS BOND ANGLE DIHED IMPRP ELECT VDW BOUNDARY MISC KINETIC TOTAL TEMP POTENTIAL TOTALAVG TEMPAVG PRESSURE GPRESSURE VOLUME PRESSAVG GPRESSAVG
ENERGY: 0 0.0000 2.1461 0.0000 0.0000 -10604.4334 1429.8347 0.0000 0.0000 1773.2359 -7399.2167 302.0250 -9172.4525 -7399.2167 302.0250 -137.6776 -53.0305 31086.6350 -137.6776 -53.0305
ENERGY: 300000 0.0000 2.4603 0.0000 0.0000 -10629.0309 1432.6466 0.0000 0.0000 1774.3289 -7419.5950 302.2112 -9193.9239 -7422.5982 302.8936 -220.6039 -174.2632 31107.2743 262.4836 324.4222
ENERGY: 600000 0.0000 0.8375 0.0000 0.0000 -10701.1691 1369.2573 0.0000 0.0000 1745.9142 -7585.1600 297.3715 -9331.0743 -7502.1191 300.2123 -677.2503 -692.5942 30608.3817 15.6218 72.3059
ENERGY: 900000 0.0000 1.6230 0.0000 0.0000 -10781.6542 1488.4782 0.0000 0.0000 1769.0015 -7522.5515 301.3038 -9291.5530 -7501.1833 300.6699 326.7905 380.8415 30479.3927 70.1446 133.2512
ENERGY: 1200000 0.0000 1.6544 0.0000 0.0000 -10759.3379 1432.7591 0.0000 0.0000 1720.8241 -7604.1003 293.0980 -9324.9244 -7512.4793 300.2537 -144.1454 -114.6819 30311.8964 -27.1838 39.8372
ENERGY: 1500000 0.0000 3.3722 0.0000 0.0000 -10824.4760 1457.1966 0.0000 0.0000 1740.2636 -7623.6436 296.4090 -9363.9072 -7525.9806 299.6263 -76.4880 35.5271 30219.4492 -58.2392 12.5482
TCL: Running FEP window   3: Lambda1 0.8999999999999999 Lambda2 0.8499999999999999 [dLambda -0.050000000000000044]
TCL: Setting parameter firsttimestep to 0
TCL: Setting parameter alchLambda to 0.8999999999999999
Info: NONBONDED TABLE R-SQUARED SPACING: 0.0625
Info: NONBONDED TABLE SIZE: 705 POINTS
TCL: Setting parameter alchLambda2 to 0.8499999999999999
Info: NONBONDED TABLE R-SQUARED SPACING: 0.0625
Info: NONBONDED TABLE SIZE: 705 POINTS
TCL: Running for 1500000 steps
ETITLE: TS BOND ANGLE DIHED IMPRP ELECT VDW BOUNDARY MISC KINETIC TOTAL TEMP POTENTIAL TOTALAVG TEMPAVG PRESSURE GPRESSURE VOLUME PRESSAVG GPRESSAVG
ENERGY: 0 0.0000 3.3722 0.0000 0.0000 -10824.4746 1457.3327 0.0000 0.0000 1739.4089 -7624.3607 296.2635 -9363.7697 -7624.3607 296.2635 -46.6848 35.6005 30219.4492 -46.6848 35.6005
ENERGY: 300000 0.0000 1.0949 0.0000 0.0000 -10711.3566 1432.2096 0.0000 0.0000 1732.6061 -7545.4461 295.1048 -9278.0522 -7554.8305 294.8062 -123.6222 -28.8770 30372.2233 -123.4339 -50.9969
ENERGY: 600000 0.0000 2.6187 0.0000 0.0000 -10649.8440 1422.0339 0.0000 0.0000 1748.3657 -7476.8258 297.7890 -9225.1915 -7535.3693 296.0012 -218.6994 -192.0454 30742.5174 -236.8264 -190.7724
ENERGY: 900000 0.0000 0.9433 0.0000 0.0000 -10873.4832 1571.0791 0.0000 0.0000 1723.1569 -7578.3039 293.4954 -9301.4609 -7525.5501 297.2121 858.6610 909.4488 30593.6158 -122.8654 -71.4884
ENERGY: 1200000 0.0000 2.2879 0.0000 0.0000 -10699.4849 1441.9358 0.0000 0.0000 1688.6037 -7566.6575 287.6101 -9255.2612 -7532.4070 297.2470 -171.1011 -71.6668 30579.1366 -109.8573 -50.7115
ENERGY: 1500000 0.0000 1.0703 0.0000 0.0000 -10709.3651 1407.9378 0.0000 0.0000 1738.2005 -7562.1565 296.0576 -9300.3570 -7531.0693 297.3493 -425.0866 -313.1610 30754.9654 -127.9839 -65.1783
TCL: Running FEP window   4: Lambda1 0.8499999999999999 Lambda2 0.7999999999999998 [dLambda -0.050000000000000044]
TCL: Setting parameter firsttimestep to 0
TCL: Setting parameter alchLambda to 0.8499999999999999
Info: NONBONDED TABLE R-SQUARED SPACING: 0.0625
Info: NONBONDED TABLE SIZE: 705 POINTS
TCL: Setting parameter alchLambda2 to 0.7999999999999998
Info: NONBONDED TABLE R-SQUARED SPACING: 0.0625
Info: NONBONDED TABLE SIZE: 705 POINTS
TCL: Running for 1500000 steps
ETITLE: TS BOND ANGLE DIHED IMPRP ELECT VDW BOUNDARY MISC KINETIC TOTAL TEMP POTENTIAL TOTALAVG TEMPAVG PRESSURE GPRESSURE VOLUME PRESSAVG GPRESSAVG
ENERGY: 0 0.0000 1.0703 0.0000 0.0000 -10709.3623 1407.9267 0.0000 0.0000 1737.3382 -7563.0271 295.9108 -9300.3653 -7563.0271 295.9108 -400.4064 -314.3392 30754.9654 -400.4064 -314.3392
ENERGY: 300000 0.0000 0.4781 0.0000 0.0000 -10695.1032 1463.1818 0.0000 0.0000 1780.2185 -7451.2247 303.2143 -9231.4432 -7530.7886 302.1279 482.5456 503.4134 30274.2637 85.5083 163.2873
ENERGY: 600000 0.0000 1.2554 0.0000 0.0000 -10653.9391 1364.9995 0.0000 0.0000 1737.4611 -7550.2231 295.9317 -9287.6842 -7547.1358 299.8512 -597.3319 -558.7421 30708.7932 -105.0074 -44.9207
ENERGY: 900000 0.0000 1.5598 0.0000 0.0000 -10662.4558 1395.2865 0.0000 0.0000 1719.2707 -7546.3388 292.8334 -9265.6094 -7543.0092 298.5719 -473.3454 -370.3278 30513.2149 -95.1611 -23.5902
ENERGY: 1200000 0.0000 2.4820 0.0000 0.0000 -10658.8546 1476.0472 0.0000 0.0000 1682.7623 -7497.5631 286.6152 -9180.3254 -7537.3941 297.1874 361.2304 419.7245 30505.3751 -17.3265 53.3979
ENERGY: 1500000 0.0000 1.5117 0.0000 0.0000 -10921.5870 1527.0896 0.0000 0.0000 1733.6234 -7659.3623 295.2780 -9392.9857 -7556.2995 297.5929 287.0607 366.6628 30223.9077 39.1789 101.2502
TCL: Running FEP window   5: Lambda1 0.7999999999999998 Lambda2 0.7499999999999998 [dLambda -0.050000000000000044]
TCL: Setting parameter firsttimestep to 0
TCL: Setting parameter alchLambda to 0.7999999999999998
Info: NONBONDED TABLE R-SQUARED SPACING: 0.0625
Info: NONBONDED TABLE SIZE: 705 POINTS
TCL: Setting parameter alchLambda2 to 0.7499999999999998
Info: NONBONDED TABLE R-SQUARED SPACING: 0.0625
Info: NONBONDED TABLE SIZE: 705 POINTS
TCL: Running for 1500000 steps
ETITLE: TS BOND ANGLE DIHED IMPRP ELECT VDW BOUNDARY MISC KINETIC TOTAL TEMP POTENTIAL TOTALAVG TEMPAVG PRESSURE GPRESSURE VOLUME PRESSAVG GPRESSAVG
ENERGY: 0 0.0000 1.5117 0.0000 0.0000 -10921.5811 1527.1281 0.0000 0.0000 1732.7442 -7660.1970 295.1283 -9392.9413 -7660.1970 295.1283 270.2338 362.3761 30223.9077 270.2338 362.3761
ENERGY: 300000 0.0000 2.0971 0.0000 0.0000 -10744.0536 1461.7235 0.0000 0.0000 1707.0655 -7573.1675 290.7546 -9280.2330 -7578.9117 296.5250 353.5166 417.2310 29799.7415 174.6325 254.2125
ENERGY: 600000 0.0000 2.2231 0.0000 0.0000 -10678.6687 1409.2184 0.0000 0.0000 1746.9247 -7520.3026 297.5436 -9267.2273 -7560.3514 298.2263 -320.2213 -234.2323 30684.2621 42.7509 120.4635
ENERGY: 900000 0.0000 3.2601 0.0000 0.0000 -10740.0404 1398.2713 0.0000 0.0000 1742.1561 -7596.3529 296.7314 -9338.5090 -7560.8670 297.7158 -284.8921 -193.8985 29932.2981 -20.3997 59.9450
ENERGY: 1200000 0.0000 1.5462 0.0000 0.0000 -10748.4605 1448.3493 0.0000 0.0000 1799.8816 -7498.6833 306.5634 -9298.5649 -7554.2177 298.4204 5.2767 39.8584 30550.9871 13.6212 91.4094
ENERGY: 1500000 0.0000 1.4709 0.0000 0.0000 -10702.8751 1434.4757 0.0000 0.0000 1818.4152 -7448.5134 309.7201 -9266.9286 -7552.8151 298.7282 -103.5156 -52.8047 30549.8715 73.0215 147.3843
TCL: Running FEP window   6: Lambda1 0.7499999999999998 Lambda2 0.6999999999999997 [dLambda -0.050000000000000044]
TCL: Setting parameter firsttimestep to 0
TCL: Setting parameter alchLambda to 0.7499999999999998
Info: NONBONDED TABLE R-SQUARED SPACING: 0.0625
Info: NONBONDED TABLE SIZE: 705 POINTS
TCL: Setting parameter alchLambda2 to 0.6999999999999997
Info: NONBONDED TABLE R-SQUARED SPACING: 0.0625
Info: NONBONDED TABLE SIZE: 705 POINTS
TCL: Running for 1500000 steps
ETITLE: TS BOND ANGLE DIHED IMPRP ELECT VDW BOUNDARY MISC KINETIC TOTAL TEMP POTENTIAL TOTALAVG TEMPAVG PRESSURE GPRESSURE VOLUME PRESSAVG GPRESSAVG
ENERGY: 0 0.0000 1.4709 0.0000 0.0000 -10702.8655 1434.1796 0.0000 0.0000 1817.5634 -7449.6516 309.5751 -9267.2150 -7449.6516 309.5751 -136.2454 -57.6675 30549.8715 -136.2454 -57.6675
ENERGY: 300000 0.0000 3.2895 0.0000 0.0000 -10781.3341 1478.9053 0.0000 0.0000 1735.1396 -7563.9996 295.5363 -9299.1392 -7536.7907 298.6255 282.1126 356.1384 30291.5183 38.6926 106.5063
ENERGY: 600000 0.0000 1.9042 0.0000 0.0000 -10706.3410 1479.9518 0.0000 0.0000 1798.0572 -7426.4278 306.2527 -9224.4850 -7497.7672 301.4212 360.0177 456.4620 30568.9481 174.9052 246.5741
ENERGY: 900000 0.0000 1.2637 0.0000 0.0000 -10812.7436 1440.2417 0.0000 0.0000 1731.7418 -7639.4963 294.9576 -9371.2381 -7515.5636 300.9983 -397.9339 -305.3722 30518.6783 64.4061 114.2359
ENERGY: 1200000 0.0000 2.7813 0.0000 0.0000 -10811.9909 1471.4075 0.0000 0.0000 1760.3666 -7577.4355 299.8331 -9337.8021 -7527.2273 300.1744 120.6008 153.8920 30281.0978 67.1507 125.2264
ENERGY: 1500000 0.0000 1.4394 0.0000 0.0000 -10600.0716 1345.4246 0.0000 0.0000 1760.1088 -7493.0987 299.7892 -9253.2076 -7537.5976 299.0917 -812.6520 -746.1805 30873.8727 -19.0825 45.6361
TCL: Running FEP window   7: Lambda1 0.6999999999999997 Lambda2 0.6499999999999997 [dLambda -0.050000000000000044]
TCL: Setting parameter firsttimestep to 0
TCL: Setting parameter alchLambda to 0.6999999999999997
Info: NONBONDED TABLE R-SQUARED SPACING: 0.0625
Info: NONBONDED TABLE SIZE: 705 POINTS
TCL: Setting parameter alchLambda2 to 0.6499999999999997
Info: NONBONDED TABLE R-SQUARED SPACING: 0.0625
Info: NONBONDED TABLE SIZE: 705 POINTS
TCL: Running for 1500000 steps
ETITLE: TS BOND ANGLE DIHED IMPRP ELECT VDW BOUNDARY MISC KINETIC TOTAL TEMP POTENTIAL TOTALAVG TEMPAVG PRESSURE GPRESSURE VOLUME PRESSAVG GPRESSAVG
ENERGY: 0 0.0000 1.4394 0.0000 0.0000 -10600.0902 1344.9932 0.0000 0.0000 1759.2212 -7494.4365 299.6380 -9253.6576 -7494.4365 299.6380 -830.1430 -754.8214 30873.8727 -830.1430 -754.8214
ENERGY: 300000 0.0000 1.2399 0.0000 0.0000 -10661.5212 1419.5048 0.0000 0.0000 1727.2400 -7513.5365 294.1908 -9240.7765 -7494.6340 300.1105 26.4385 100.9220 30107.7397 -203.3939 -158.8572
ENERGY: 600000 0.0000 1.3377 0.0000 0.0000 -10724.3815 1416.9326 0.0000 0.0000 1749.6024 -7556.5088 297.9997 -9306.1113 -7501.1979 300.9286 -319.2856 -236.1550 30602.0074 -290.1201 -231.3303
ENERGY: 900000 0.0000 2.1657 0.0000 0.0000 -10780.8022 1436.7385 0.0000 0.0000 1795.4187 -7546.4794 305.8033 -9341.8981 -7509.1929 300.7193 -85.9198 -21.4240 30121.5091 -241.3424 -180.8878
ENERGY: 1200000 0.0000 1.3687 0.0000 0.0000 -10741.7130 1468.7179 0.0000 0.0000 1786.6903 -7484.9360 304.3166 -9271.6263 -7505.0149 300.7187 187.0227 298.1333 30322.0191 -238.2512 -170.8577
ENERGY: 1500000 0.0000 1.4344 0.0000 0.0000 -10742.3825 1421.6034 0.0000 0.0000 1726.8792 -7592.4655 294.1293 -9319.3447 -7514.0374 300.9214 -347.8550 -354.9732 30709.6201 -237.0461 -172.0951
TCL: Running FEP window   8: Lambda1 0.6499999999999997 Lambda2 0.5999999999999996 [dLambda -0.050000000000000044]
TCL: Setting parameter firsttimestep to 0
TCL: Setting parameter alchLambda to 0.6499999999999997
Info: NONBONDED TABLE R-SQUARED SPACING: 0.0625
Info: NONBONDED TABLE SIZE: 705 POINTS
TCL: Setting parameter alchLambda2 to 0.5999999999999996
Info: NONBONDED TABLE R-SQUARED SPACING: 0.0625
Info: NONBONDED TABLE SIZE: 705 POINTS
TCL: Running for 1500000 steps
ETITLE: TS BOND ANGLE DIHED IMPRP ELECT VDW BOUNDARY MISC KINETIC TOTAL TEMP POTENTIAL TOTALAVG TEMPAVG PRESSURE GPRESSURE VOLUME PRESSAVG GPRESSAVG
ENERGY: 0 0.0000 1.4344 0.0000 0.0000 -10742.3858 1421.7745 0.0000 0.0000 1726.0139 -7593.1631 293.9820 -9319.1769 -7593.1631 293.9820 -440.9767 -355.8673 30709.6201 -440.9767 -355.8673
ENERGY: 300000 0.0000 0.5703 0.0000 0.0000 -10736.3574 1433.2720 0.0000 0.0000 1764.5292 -7537.9859 300.5421 -9302.5151 -7531.9706 301.9233 -128.6947 -89.8306 30248.6388 -504.3038 -462.1643
ENERGY: 600000 0.0000 1.5940 0.0000 0.0000 -10638.3329 1395.8787 0.0000 0.0000 1729.8319 -7511.0283 294.6323 -9240.8602 -7514.6310 301.3511 -251.0417 -185.2673 30389.4605 -416.9679 -358.7820
ENERGY: 900000 0.0000 1.2160 0.0000 0.0000 -10793.3506 1483.9793 0.0000 0.0000 1750.9035 -7557.2518 298.2213 -9308.1553 -7526.4668 301.3299 398.8692 483.3706 30146.6804 -291.0508 -230.5395
ENERGY: 1200000 0.0000 0.2544 0.0000 0.0000 -10587.4868 1329.9811 0.0000 0.0000 1765.4253 -7491.8260 300.6947 -9257.2513 -7530.3904 301.0327 -971.3658 -846.9045 30618.2338 -181.2154 -117.8357
ENERGY: 1500000 0.0000 2.3612 0.0000 0.0000 -10944.6827 1585.6199 0.0000 0.0000 1705.9622 -7650.7393 290.5667 -9356.7015 -7536.4124 300.0258 854.1593 963.9413 30062.6637 -45.0384 20.8234
TCL: Running FEP window   9: Lambda1 0.5999999999999996 Lambda2 0.5499999999999996 [dLambda -0.050000000000000044]
TCL: Setting parameter firsttimestep to 0
TCL: Setting parameter alchLambda to 0.5999999999999996
Info: NONBONDED TABLE R-SQUARED SPACING: 0.0625
Info: NONBONDED TABLE SIZE: 705 POINTS
TCL: Setting parameter alchLambda2 to 0.5499999999999996
Info: NONBONDED TABLE R-SQUARED SPACING: 0.0625
Info: NONBONDED TABLE SIZE: 705 POINTS
TCL: Running for 1500000 steps
ETITLE: TS BOND ANGLE DIHED IMPRP ELECT VDW BOUNDARY MISC KINETIC TOTAL TEMP POTENTIAL TOTALAVG TEMPAVG PRESSURE GPRESSURE VOLUME PRESSAVG GPRESSAVG
ENERGY: 0 0.0000 2.3612 0.0000 0.0000 -10944.6867 1585.4708 0.0000 0.0000 1705.0655 -7651.7892 290.4139 -9356.8547 -7651.7892 290.4139 875.5637 961.0720 30062.6637 875.5637 961.0720
ENERGY: 300000 0.0000 3.3426 0.0000 0.0000 -10744.2066 1444.6843 0.0000 0.0000 1763.7027 -7532.4770 300.4013 -9296.1797 -7567.1777 296.4753 144.7922 195.5670 30289.8825 613.0190 650.7785
ENERGY: 600000 0.0000 0.8397 0.0000 0.0000 -10722.9238 1469.5800 0.0000 0.0000 1823.6507 -7428.8534 310.6119 -9252.5041 -7528.3742 300.5641 315.7559 370.0287 30443.1539 246.9277 289.5524
ENERGY: 900000 0.0000 3.1101 0.0000 0.0000 -10702.5501 1451.3219 0.0000 0.0000 1787.1616 -7460.9565 304.3969 -9248.1181 -7521.1201 300.9121 577.4141 590.5353 30171.4256 156.9673 206.6858
ENERGY: 1200000 0.0000 0.7245 0.0000 0.0000 -10777.4431 1512.6640 0.0000 0.0000 1767.2337 -7496.8209 301.0027 -9264.0546 -7525.0439 300.2364 503.3436 512.6736 30379.0131 276.4147 326.8133
ENERGY: 1500000 0.0000 0.9126 0.0000 0.0000 -10477.1603 1310.7545 0.0000 0.0000 1783.9866 -7381.5067 303.8561 -9165.4932 -7519.8709 300.6638 -1007.2583 -867.1085 30753.4075 157.4900 218.8890
TCL: Running FEP window  10: Lambda1 0.5499999999999996 Lambda2 0.4999999999999996 [dLambda -0.04999999999999999]
TCL: Setting parameter firsttimestep to 0
TCL: Setting parameter alchLambda to 0.5499999999999996
Info: NONBONDED TABLE R-SQUARED SPACING: 0.0625
Info: NONBONDED TABLE SIZE: 705 POINTS
TCL: Setting parameter alchLambda2 to 0.4999999999999996
Info: NONBONDED TABLE R-SQUARED SPACING: 0.0625
Info: NONBONDED TABLE SIZE: 705 POINTS
TCL: Running for 1500000 steps
ETITLE: TS BOND ANGLE DIHED IMPRP ELECT VDW BOUNDARY MISC KINETIC TOTAL TEMP POTENTIAL TOTALAVG TEMPAVG PRESSURE GPRESSURE VOLUME PRESSAVG GPRESSAVG
ENERGY: 0 0.0000 0.9126 0.0000 0.0000 -10477.1595 1310.8662 0.0000 0.0000 1783.1045 -7382.2762 303.7059 -9165.3807 -7382.2762 303.7059 -965.4526 -867.7743 30753.4075 -965.4526 -867.7743
ENERGY: 300000 0.0000 1.1970 0.0000 0.0000 -10608.8013 1407.4765 0.0000 0.0000 1778.0411 -7422.0867 302.8435 -9200.1279 -7500.1140 302.6934 -214.9833 -148.1409 30722.5096 -113.4191 -43.9341
ENERGY: 600000 0.0000 0.7778 0.0000 0.0000 -10777.4187 1423.6344 0.0000 0.0000 1790.0379 -7562.9686 304.8868 -9353.0066 -7500.2934 302.0584 -264.8949 -125.9513 30383.5098 -61.9569 6.0524
ENERGY: 900000 0.0000 0.8072 0.0000 0.0000 -10728.3249 1412.6126 0.0000 0.0000 1717.7450 -7597.1602 292.5736 -9314.9052 -7521.3040 301.7442 -405.3853 -318.5122 30572.4047 -85.5069 -18.4710
ENERGY: 1200000 0.0000 1.6769 0.0000 0.0000 -10707.7909 1459.3300 0.0000 0.0000 1769.8501 -7476.9339 301.4483 -9246.7840 -7515.9303 301.5767 238.1212 272.1505 30330.6566 -130.7367 -64.3315
ENERGY: 1500000 0.0000 0.8087 0.0000 0.0000 -10610.1224 1419.1052 0.0000 0.0000 1772.4030 -7417.8056 301.8831 -9190.2085 -7513.6924 301.2998 48.7436 36.4386 30537.4832 -133.8887 -75.9652
TCL: Running FEP window  11: Lambda1 0.4999999999999996 Lambda2 0.4499999999999996 [dLambda -0.04999999999999999]
TCL: Setting parameter firsttimestep to 0
TCL: Setting parameter alchLambda to 0.4999999999999996
Info: NONBONDED TABLE R-SQUARED SPACING: 0.0625
Info: NONBONDED TABLE SIZE: 705 POINTS
TCL: Setting parameter alchLambda2 to 0.4499999999999996
Info: NONBONDED TABLE R-SQUARED SPACING: 0.0625
Info: NONBONDED TABLE SIZE: 705 POINTS
TCL: Running for 1500000 steps
ETITLE: TS BOND ANGLE DIHED IMPRP ELECT VDW BOUNDARY MISC KINETIC TOTAL TEMP POTENTIAL TOTALAVG TEMPAVG PRESSURE GPRESSURE VOLUME PRESSAVG GPRESSAVG
ENERGY: 0 0.0000 0.8087 0.0000 0.0000 -10610.1278 1419.0857 0.0000 0.0000 1771.5062 -7418.7273 301.7304 -9190.2335 -7418.7273 301.7304 -61.2477 32.0456 30537.4832 -61.2477 32.0456
ENERGY: 300000 0.0000 2.0968 0.0000 0.0000 -10707.3204 1368.4183 0.0000 0.0000 1774.3785 -7562.4268 302.2196 -9336.8053 -7472.6667 299.0574 -599.0643 -553.8634 29976.7654 -305.2830 -230.8571
ENERGY: 600000 0.0000 1.9024 0.0000 0.0000 -10781.7728 1499.6846 0.0000 0.0000 1795.4052 -7484.7806 305.8010 -9280.1859 -7492.0712 299.0183 328.2166 359.4410 30755.8286 -141.6022 -69.9613
ENERGY: 900000 0.0000 1.4549 0.0000 0.0000 -10752.4533 1455.8978 0.0000 0.0000 1824.2841 -7470.8165 310.7198 -9295.1006 -7518.3731 298.3287 71.0055 117.9928 30245.2010 -122.1543 -50.7084
ENERGY: 1200000 0.0000 0.5082 0.0000 0.0000 -10676.9821 1377.9013 0.0000 0.0000 1759.5087 -7539.0639 299.6869 -9298.5726 -7527.3358 298.0524 -712.0446 -624.3341 30687.7938 -188.8909 -112.3757
ENERGY: 1500000 0.0000 3.4395 0.0000 0.0000 -10614.8336 1383.5576 0.0000 0.0000 1806.2487 -7421.5877 307.6479 -9227.8364 -7520.7314 298.4643 -457.7964 -395.0614 30785.2848 -120.7393 -48.3678
TCL: Running FEP window  12: Lambda1 0.4499999999999996 Lambda2 0.39999999999999963 [dLambda -0.04999999999999999]
TCL: Setting parameter firsttimestep to 0
TCL: Setting parameter alchLambda to 0.4499999999999996
Info: NONBONDED TABLE R-SQUARED SPACING: 0.0625
Info: NONBONDED TABLE SIZE: 705 POINTS
TCL: Setting parameter alchLambda2 to 0.39999999999999963
Info: NONBONDED TABLE R-SQUARED SPACING: 0.0625
Info: NONBONDED TABLE SIZE: 705 POINTS
TCL: Running for 1500000 steps
ETITLE: TS BOND ANGLE DIHED IMPRP ELECT VDW BOUNDARY MISC KINETIC TOTAL TEMP POTENTIAL TOTALAVG TEMPAVG PRESSURE GPRESSURE VOLUME PRESSAVG GPRESSAVG
ENERGY: 0 0.0000 3.4395 0.0000 0.0000 -10614.8336 1383.6699 0.0000 0.0000 1805.3707 -7422.3536 307.4984 -9227.7243 -7422.3536 307.4984 -475.6443 -394.3773 30785.2848 -475.6443 -394.3773
ENERGY: 300000 0.0000 2.5552 0.0000 0.0000 -10754.9971 1380.0568 0.0000 0.0000 1758.1087 -7614.2765 299.4485 -9372.3852 -7513.5238 300.4826 -706.1510 -672.3867 30263.5222 -486.6520 -424.4276
ENERGY: 600000 0.0000 1.5623 0.0000 0.0000 -10852.8598 1468.2429 0.0000 0.0000 1688.0466 -7695.0080 287.5152 -9383.0546 -7548.0235 299.2389 120.9676 83.3634 30063.8933 -373.4118 -324.3839
ENERGY: 900000 0.0000 0.9476 0.0000 0.0000 -10761.0974 1499.0995 0.0000 0.0000 1748.7818 -7512.2685 297.8599 -9261.0503 -7565.3921 297.3699 245.5675 247.2486 31009.6044 -199.1289 -156.5892
ENERGY: 1200000 0.0000 0.7326 0.0000 0.0000 -10700.0295 1391.2205 0.0000 0.0000 1757.6769 -7550.3995 299.3749 -9308.0764 -7560.1351 297.6818 -434.0455 -394.3160 30314.1187 -275.0285 -222.8077
ENERGY: 1500000 0.0000 1.5981 0.0000 0.0000 -10754.4192 1415.0214 0.0000 0.0000 1741.8008 -7595.9990 296.6708 -9337.7998 -7556.7414 297.4367 -353.9412 -303.0442 30402.1932 -308.8518 -259.0112
TCL: Running FEP window  13: Lambda1 0.39999999999999963 Lambda2 0.34999999999999964 [dLambda -0.04999999999999999]
TCL: Setting parameter firsttimestep to 0
TCL: Setting parameter alchLambda to 0.39999999999999963
Info: NONBONDED TABLE R-SQUARED SPACING: 0.0625
Info: NONBONDED TABLE SIZE: 705 POINTS
TCL: Setting parameter alchLambda2 to 0.34999999999999964
Info: NONBONDED TABLE R-SQUARED SPACING: 0.0625
Info: NONBONDED TABLE SIZE: 705 POINTS
TCL: Running for 1500000 steps
ETITLE: TS BOND ANGLE DIHED IMPRP ELECT VDW BOUNDARY MISC KINETIC TOTAL TEMP POTENTIAL TOTALAVG TEMPAVG PRESSURE GPRESSURE VOLUME PRESSAVG GPRESSAVG
ENERGY: 0 0.0000 1.5981 0.0000 0.0000 -10754.4208 1414.9228 0.0000 0.0000 1740.9209 -7596.9790 296.5210 -9337.8999 -7596.9790 296.5210 -395.0631 -307.4851 30402.1932 -395.0631 -307.4851
ENERGY: 300000 0.0000 4.1634 0.0000 0.0000 -10628.6840 1370.0976 0.0000 0.0000 1709.9593 -7544.4637 291.2475 -9254.4230 -7538.1354 297.0249 -694.5470 -639.7253 30585.3534 -131.9436 -66.2054
ENERGY: 600000 0.0000 1.3307 0.0000 0.0000 -10656.4468 1329.2358 0.0000 0.0000 1782.6555 -7543.2247 303.6294 -9325.8802 -7531.9446 298.8192 -999.2291 -908.7587 30449.4998 -336.2833 -261.8881
ENERGY: 900000 0.0000 0.2810 0.0000 0.0000 -10671.7450 1362.3683 0.0000 0.0000 1802.3272 -7506.7686 306.9800 -9309.0958 -7525.2211 301.0432 -694.7577 -605.8039 30286.7453 -206.3729 -132.7740
ENERGY: 1200000 0.0000 1.5454 0.0000 0.0000 -10803.8985 1482.7690 0.0000 0.0000 1806.0320 -7513.5522 307.6110 -9319.5842 -7523.4101 301.1157 281.4709 311.3387 30227.2938 -125.5388 -52.4119
ENERGY: 1500000 0.0000 1.4059 0.0000 0.0000 -10779.2900 1500.7554 0.0000 0.0000 1713.7576 -7563.3711 291.8944 -9277.1287 -7531.0883 300.4723 446.6788 475.4164 30192.7614 -152.5854 -78.9006
TCL: Running FEP window  14: Lambda1 0.34999999999999964 Lambda2 0.29999999999999966 [dLambda -0.04999999999999999]
TCL: Setting parameter firsttimestep to 0
TCL: Setting parameter alchLambda to 0.34999999999999964
Info: NONBONDED TABLE R-SQUARED SPACING: 0.0625
Info: NONBONDED TABLE SIZE: 705 POINTS
TCL: Setting parameter alchLambda2 to 0.29999999999999966
Info: NONBONDED TABLE R-SQUARED SPACING: 0.0625
Info: NONBONDED TABLE SIZE: 705 POINTS
TCL: Running for 1500000 steps
ETITLE: TS BOND ANGLE DIHED IMPRP ELECT VDW BOUNDARY MISC KINETIC TOTAL TEMP POTENTIAL TOTALAVG TEMPAVG PRESSURE GPRESSURE VOLUME PRESSAVG GPRESSAVG
ENERGY: 0 0.0000 1.4059 0.0000 0.0000 -10779.2914 1500.9458 0.0000 0.0000 1712.9220 -7564.0176 291.7521 -9276.9396 -7564.0176 291.7521 400.8695 474.9881 30192.7614 400.8695 474.9881
ENERGY: 300000 0.0000 3.2711 0.0000 0.0000 -10657.7170 1363.1126 0.0000 0.0000 1777.5806 -7513.7527 302.7650 -9291.3333 -7550.4246 301.2013 -418.0356 -339.1733 30182.3046 108.5933 168.6684
ENERGY: 600000 0.0000 1.1411 0.0000 0.0000 -10836.5741 1488.9980 0.0000 0.0000 1741.7337 -7604.7013 296.6594 -9346.4350 -7551.4529 300.8724 72.4370 166.5549 30561.2087 -59.8674 10.8360
ENERGY: 900000 0.0000 2.6729 0.0000 0.0000 -10814.5512 1439.7297 0.0000 0.0000 1755.7476 -7616.4010 299.0463 -9372.1486 -7545.8885 300.8692 -6.0337 71.0790 29763.6002 -53.4005 19.9056
ENERGY: 1200000 0.0000 2.2484 0.0000 0.0000 -10653.0309 1323.6562 0.0000 0.0000 1778.7949 -7548.3314 302.9718 -9327.1264 -7539.5433 301.0436 -894.5545 -831.6170 30343.0361 -148.7019 -78.2025
ENERGY: 1500000 0.0000 1.7226 0.0000 0.0000 -10742.5661 1490.5284 0.0000 0.0000 1762.2706 -7488.0446 300.1573 -9250.3151 -7529.8257 300.5570 577.1028 618.1047 30170.9221 -121.5709 -56.9164
TCL: Running FEP window  15: Lambda1 0.29999999999999966 Lambda2 0.24999999999999967 [dLambda -0.04999999999999999]
TCL: Setting parameter firsttimestep to 0
TCL: Setting parameter alchLambda to 0.29999999999999966
Info: NONBONDED TABLE R-SQUARED SPACING: 0.0625
Info: NONBONDED TABLE SIZE: 705 POINTS
TCL: Setting parameter alchLambda2 to 0.24999999999999967
Info: NONBONDED TABLE R-SQUARED SPACING: 0.0625
Info: NONBONDED TABLE SIZE: 705 POINTS
TCL: Running for 1500000 steps
ETITLE: TS BOND ANGLE DIHED IMPRP ELECT VDW BOUNDARY MISC KINETIC TOTAL TEMP POTENTIAL TOTALAVG TEMPAVG PRESSURE GPRESSURE VOLUME PRESSAVG GPRESSAVG
ENERGY: 0 0.0000 1.7226 0.0000 0.0000 -10742.5652 1490.7039 0.0000 0.0000 1761.3748 -7488.7639 300.0048 -9250.1387 -7488.7639 300.0048 531.6603 616.5151 30170.9221 531.6603 616.5151
ENERGY: 300000 0.0000 0.7366 0.0000 0.0000 -10780.3850 1417.2982 0.0000 0.0000 1753.6383 -7608.7118 298.6871 -9362.3502 -7554.9443 296.8138 -465.4856 -409.8601 30402.3074 -33.7643 -4.9396
ENERGY: 600000 0.0000 0.8296 0.0000 0.0000 -10700.9067 1449.6619 0.0000 0.0000 1752.8364 -7497.5789 298.5505 -9250.4152 -7532.5485 298.5367 360.1709 459.6865 29985.3035 9.8813 57.7140
ENERGY: 900000 0.0000 1.7406 0.0000 0.0000 -10770.3226 1480.9030 0.0000 0.0000 1821.8244 -7465.8546 310.3008 -9287.6790 -7526.9013 299.4127 386.2278 413.3477 30301.9705 68.5439 115.2731
ENERGY: 1200000 0.0000 2.8368 0.0000 0.0000 -10836.9054 1467.6328 0.0000 0.0000 1746.9997 -7619.4362 297.5563 -9366.4359 -7530.3356 299.5439 -30.4019 31.2696 30223.7728 91.0970 142.3491
ENERGY: 1500000 0.0000 1.4851 0.0000 0.0000 -10720.8137 1417.0659 0.0000 0.0000 1791.2728 -7510.9898 305.0971 -9302.2627 -7534.0464 300.8352 -206.4461 -124.3028 30615.0164 47.8141 101.8351
TCL: Running FEP window  16: Lambda1 0.24999999999999967 Lambda2 0.19999999999999968 [dLambda -0.04999999999999999]
TCL: Setting parameter firsttimestep to 0
TCL: Setting parameter alchLambda to 0.24999999999999967
Info: NONBONDED TABLE R-SQUARED SPACING: 0.0625
Info: NONBONDED TABLE SIZE: 705 POINTS
TCL: Setting parameter alchLambda2 to 0.19999999999999968
Info: NONBONDED TABLE R-SQUARED SPACING: 0.0625
Info: NONBONDED TABLE SIZE: 705 POINTS
TCL: Running for 1500000 steps
ETITLE: TS BOND ANGLE DIHED IMPRP ELECT VDW BOUNDARY MISC KINETIC TOTAL TEMP POTENTIAL TOTALAVG TEMPAVG PRESSURE GPRESSURE VOLUME PRESSAVG GPRESSAVG
ENERGY: 0 0.0000 1.4851 0.0000 0.0000 -10720.8145 1417.1023 0.0000 0.0000 1790.4069 -7511.8202 304.9497 -9302.2271 -7511.8202 304.9497 -213.8986 -126.5325 30615.0164 -213.8986 -126.5325
ENERGY: 300000 0.0000 1.3524 0.0000 0.0000 -10713.4069 1437.1119 0.0000 0.0000 1809.9636 -7464.9790 308.2806 -9274.9426 -7487.2799 304.3141 -79.0916 -40.9960 30377.2864 -390.0085 -318.3302
ENERGY: 600000 0.0000 5.2126 0.0000 0.0000 -10720.7116 1405.7825 0.0000 0.0000 1761.7371 -7547.9794 300.0665 -9309.7165 -7511.4319 301.6141 -377.3915 -269.6740 30186.9002 -400.9220 -338.8233
ENERGY: 900000 0.0000 2.8734 0.0000 0.0000 -10511.0146 1368.8399 0.0000 0.0000 1775.3955 -7363.9058 302.3928 -9139.3013 -7499.4675 300.8646 -340.6047 -309.7729 30746.3034 -408.0205 -346.1308
ENERGY: 1200000 0.0000 1.1651 0.0000 0.0000 -10820.8872 1540.8177 0.0000 0.0000 1801.1580 -7477.7463 306.7808 -9278.9043 -7511.0573 300.5526 1194.6275 1194.6350 29931.9598 -126.4781 -71.3788
ENERGY: 1500000 0.0000 1.0478 0.0000 0.0000 -10834.8463 1532.2685 0.0000 0.0000 1753.0645 -7548.4656 298.5893 -9301.5300 -7525.1476 299.9220 791.5487 883.5294 30238.7373 -37.5452 19.6341
TCL: Running FEP window  17: Lambda1 0.19999999999999968 Lambda2 0.1499999999999997 [dLambda -0.04999999999999999]
TCL: Setting parameter firsttimestep to 0
TCL: Setting parameter alchLambda to 0.19999999999999968
Info: NONBONDED TABLE R-SQUARED SPACING: 0.0625
Info: NONBONDED TABLE SIZE: 705 POINTS
TCL: Setting parameter alchLambda2 to 0.1499999999999997
Info: NONBONDED TABLE R-SQUARED SPACING: 0.0625
Info: NONBONDED TABLE SIZE: 705 POINTS
TCL: Running for 1500000 steps
ETITLE: TS BOND ANGLE DIHED IMPRP ELECT VDW BOUNDARY MISC KINETIC TOTAL TEMP POTENTIAL TOTALAVG TEMPAVG PRESSURE GPRESSURE VOLUME PRESSAVG GPRESSAVG
ENERGY: 0 0.0000 1.0478 0.0000 0.0000 -10834.8461 1532.3417 0.0000 0.0000 1752.2049 -7549.2518 298.4429 -9301.4567 -7549.2518 298.4429 794.5094 881.2750 30238.7373 794.5094 881.2750
ENERGY: 300000 0.0000 0.9728 0.0000 0.0000 -10768.6162 1476.6135 0.0000 0.0000 1772.4438 -7518.5861 301.8901 -9291.0299 -7545.6622 300.7794 66.2258 107.8399 30760.9843 608.5979 646.5350
ENERGY: 600000 0.0000 1.6353 0.0000 0.0000 -10816.7263 1455.0626 0.0000 0.0000 1755.9978 -7604.0306 299.0889 -9360.0284 -7547.2315 299.5067 -314.4834 -228.8317 30560.1996 261.6676 319.1034
ENERGY: 900000 0.0000 2.5445 0.0000 0.0000 -10796.7750 1424.6081 0.0000 0.0000 1698.3173 -7671.3052 289.2646 -9369.6224 -7556.5410 298.9417 -396.8144 -339.6158 30229.1023 262.5411 315.1502
ENERGY: 1200000 0.0000 1.9423 0.0000 0.0000 -10674.1543 1352.2666 0.0000 0.0000 1799.5235 -7520.4219 306.5024 -9319.9454 -7542.2637 299.8098 -807.0662 -802.0873 30516.5517 -13.8578 44.4745
ENERGY: 1500000 0.0000 1.2239 0.0000 0.0000 -10824.1914 1467.5642 0.0000 0.0000 1740.7971 -7614.6062 296.4999 -9355.4033 -7540.5721 299.0835 67.4538 119.1030 29993.6088 50.5960 104.8821
TCL: Running FEP window  18: Lambda1 0.1499999999999997 Lambda2 0.09999999999999969 [dLambda -0.05 ]
TCL: Setting parameter firsttimestep to 0
TCL: Setting parameter alchLambda to 0.1499999999999997
Info: NONBONDED TABLE R-SQUARED SPACING: 0.0625
Info: NONBONDED TABLE SIZE: 705 POINTS
TCL: Setting parameter alchLambda2 to 0.09999999999999969
Info: NONBONDED TABLE R-SQUARED SPACING: 0.0625
Info: NONBONDED TABLE SIZE: 705 POINTS
TCL: Running for 1500000 steps
ETITLE: TS BOND ANGLE DIHED IMPRP ELECT VDW BOUNDARY MISC KINETIC TOTAL TEMP POTENTIAL TOTALAVG TEMPAVG PRESSURE GPRESSURE VOLUME PRESSAVG GPRESSAVG
ENERGY: 0 0.0000 1.2239 0.0000 0.0000 -10824.1914 1467.6181 0.0000 0.0000 1739.9088 -7615.4405 296.3486 -9355.3494 -7615.4405 296.3486 17.4652 117.6279 29993.6088 17.4652 117.6279
ENERGY: 300000 0.0000 3.2001 0.0000 0.0000 -10777.9772 1458.6245 0.0000 0.0000 1776.4081 -7539.7446 302.5653 -9316.1526 -7598.8027 295.8184 -163.6006 61.5587 30226.1782 -139.3858 -18.4899
ENERGY: 600000 0.0000 0.9789 0.0000 0.0000 -10647.6821 1399.6812 0.0000 0.0000 1847.7569 -7399.2650 314.7177 -9247.0219 -7547.7633 299.6216 -350.7616 -315.6391 30800.5105 -102.3031 -14.8796
ENERGY: 900000 0.0000 0.3768 0.0000 0.0000 -10552.2195 1353.0338 0.0000 0.0000 1730.0809 -7468.7279 294.6747 -9198.8089 -7532.9074 298.6669 -518.4076 -485.0689 30632.4677 -98.9132 -24.8517
ENERGY: 1200000 0.0000 0.8959 0.0000 0.0000 -10760.1203 1458.5804 0.0000 0.0000 1839.3237 -7461.3203 313.2814 -9300.6440 -7523.1624 299.7526 160.0759 174.1210 30271.3712 -117.2986 -53.0872
ENERGY: 1500000 0.0000 1.7131 0.0000 0.0000 -10726.2858 1395.5297 0.0000 0.0000 1819.8087 -7509.2343 309.9575 -9329.0430 -7527.0740 299.8358 -555.4100 -477.5336 30488.8665 -74.3585 -10.1667
TCL: Running FEP window  19: Lambda1 0.09999999999999969 Lambda2 0.049999999999999684 [dLambda -0.05 ]
TCL: Setting parameter firsttimestep to 0
TCL: Setting parameter alchLambda to 0.09999999999999969
Info: NONBONDED TABLE R-SQUARED SPACING: 0.0625
Info: NONBONDED TABLE SIZE: 705 POINTS
TCL: Setting parameter alchLambda2 to 0.049999999999999684
Info: NONBONDED TABLE R-SQUARED SPACING: 0.0625
Info: NONBONDED TABLE SIZE: 705 POINTS
TCL: Running for 1500000 steps
ETITLE: TS BOND ANGLE DIHED IMPRP ELECT VDW BOUNDARY MISC KINETIC TOTAL TEMP POTENTIAL TOTALAVG TEMPAVG PRESSURE GPRESSURE VOLUME PRESSAVG GPRESSAVG
ENERGY: 0 0.0000 1.7131 0.0000 0.0000 -10726.2867 1395.4588 0.0000 0.0000 1818.9156 -7510.1992 309.8054 -9329.1148 -7510.1992 309.8054 -557.5165 -478.3190 30488.8665 -557.5165 -478.3190
ENERGY: 300000 0.0000 0.6168 0.0000 0.0000 -10700.6355 1371.5141 0.0000 0.0000 1764.1260 -7564.3785 300.4734 -9328.5046 -7539.3775 301.9222 -732.5551 -658.2693 30414.6794 -481.0210 -393.8708
ENERGY: 600000 0.0000 1.5165 0.0000 0.0000 -10728.7202 1359.9264 0.0000 0.0000 1801.8640 -7565.4132 306.9011 -9367.2773 -7534.7075 302.9946 -921.0819 -812.8008 30456.1535 -458.8145 -378.8157
ENERGY: 900000 0.0000 1.5328 0.0000 0.0000 -10846.8259 1484.5570 0.0000 0.0000 1725.4484 -7635.2876 293.8857 -9360.7361 -7548.2404 301.2121 183.6396 268.1209 30154.6294 -196.9022 -126.2102
ENERGY: 1200000 0.0000 0.9098 0.0000 0.0000 -10973.3960 1622.9333 0.0000 0.0000 1777.8093 -7571.7437 302.8040 -9349.5530 -7546.5154 301.8502 1427.6029 1442.6687 29708.3760 -22.2521 39.0251
ENERGY: 1500000 0.0000 2.5521 0.0000 0.0000 -10799.7076 1461.9278 0.0000 0.0000 1762.4213 -7572.8063 300.1830 -9335.2277 -7546.2094 301.4827 178.4188 209.2062 29972.3690 -0.0300 58.8167
TCL: Running FEP window  20: Lambda1 0.049999999999999684 Lambda2 0.0    [dLambda -0.049999999999999684]
TCL: Setting parameter firsttimestep to 0
TCL: Setting parameter alchLambda to 0.049999999999999684
Info: NONBONDED TABLE R-SQUARED SPACING: 0.0625
Info: NONBONDED TABLE SIZE: 705 POINTS
TCL: Setting parameter alchLambda2 to 0.0
Info: NONBONDED TABLE R-SQUARED SPACING: 0.0625
Info: NONBONDED TABLE SIZE: 705 POINTS
TCL: Running for 1500000 steps
ETITLE: TS BOND ANGLE DIHED IMPRP ELECT VDW BOUNDARY MISC KINETIC TOTAL TEMP POTENTIAL TOTALAVG TEMPAVG PRESSURE GPRESSURE VOLUME PRESSAVG GPRESSAVG
ENERGY: 0 0.0000 2.5521 0.0000 0.0000 -10799.7088 1461.6272 0.0000 0.0000 1761.4918 -7574.0377 300.0247 -9335.5295 -7574.0377 300.0247 124.1980 204.6613 29972.3690 124.1980 204.6613
ENERGY: 300000 0.0000 2.2416 0.0000 0.0000 -10600.9136 1374.3319 0.0000 0.0000 1808.2584 -7416.0818 307.9902 -9224.3401 -7532.7968 301.8142 -422.5963 -404.4923 30656.9983 -141.8841 -93.2390
ENERGY: 600000 0.0000 3.3026 0.0000 0.0000 -10611.8714 1343.8154 0.0000 0.0000 1721.0330 -7543.7205 293.1336 -9264.7535 -7534.6880 301.2319 -881.4823 -844.9702 30729.2817 -189.8150 -136.9599
ENERGY: 900000 0.0000 1.9144 0.0000 0.0000 -10769.0035 1422.8685 0.0000 0.0000 1732.2960 -7611.9245 295.0520 -9344.2205 -7555.5930 299.1229 -220.9165 -169.3165 30181.2400 -300.0789 -245.2289
ENERGY: 1200000 0.0000 0.5902 0.0000 0.0000 -10651.9958 1379.6783 0.0000 0.0000 1760.6472 -7511.0801 299.8809 -9271.7273 -7542.5744 299.5165 -360.3692 -329.5407 30319.0512 -267.9053 -222.6663
ENERGY: 1500000 0.0000 3.9355 0.0000 0.0000 -10976.2670 1553.6194 0.0000 0.0000 1832.6631 -7586.0490 312.1469 -9418.7121 -7551.2919 299.8122 791.9160 857.4519 29680.0259 -168.5737 -116.0528
TCL: Exiting due to exit command.
