Info: SIMULATION PARAMETERS:
Info: TIMESTEP               2
Info: NUMBER OF STEPS        0
Info: STEPS PER CYCLE        10
Info: PERIODIC CELL BASIS 1  41.123 0 0
Info: PERIODIC CELL BASIS 2  0 40.343 0
Info: PERIODIC CELL BASIS 3  0 0 41.374
Info: PERIODIC CELL CENTER   0 0 0
Info: WRAPPING WATERS AROUND PERIODIC BOUNDARIES ON OUTPUT.
Info: WRAPPING ALL CLUSTERS AROUND PERIODIC BOUNDARIES ON OUTPUT.
Info: FIRST LDB TIMESTEP     50
Info: LAST LDB TIMESTEP     -1
Info: HOM BACKGROUND SCALING 1
Info: PME BACKGROUND SCALING 1
Info: MIN ATOMS PER PATCH    40
Info: EMPTY PATCH LOAD       40 ATOMS
Info: INITIAL TEMPERATURE    300
Info: CENTER OF MASS MOVING INITIALLY? NO
Info: DIELECTRIC             1
Info: EXCLUDE                SCALED ONE-FOUR
Info: 1-4 ELECTROSTATICS SCALED BY 0.833333
Info: MODIFIED 1-4 VDW PARAMETERS WILL BE USED
Info: DCD FILENAME           mobley_4884177_min.dcd
Info: DCD FREQUENCY          5000
Info: DCD FIRST STEP         5000
Info: DCD FILE WILL CONTAIN UNIT CELL DATA
Info: XST FILENAME           mobley_4884177_min.xst
Info: XST FREQUENCY          5000
Info: NO VELOCITY DCD OUTPUT
Info: NO FORCE DCD OUTPUT
Info: OUTPUT FILENAME        mobley_4884177_min
Info: BINARY OUTPUT FILES WILL BE USED
Info: RESTART FILENAME       mobley_4884177_min.restart
Info: RESTART FREQUENCY      5000
Info: BINARY RESTART FILES WILL BE USED
Info: CUTOFF                 9
Info: PAIRLIST DISTANCE      11
Info: PAIRLIST SHRINK RATE   0.01
Info: PAIRLIST GROW RATE     0.01
Info: PAIRLIST TRIGGER       0.3
Info: PAIRLISTS PER CYCLE    2
Info: PAIRLISTS ENABLED
Info: MARGIN                 8
Info: HYDROGEN GROUP CUTOFF  2.5
Info: PATCH DIMENSION        21.5
Info: ENERGY OUTPUT STEPS    5000
Info: ENERGY EVALUATION STEPS    5000
Info: OUTPUT ENERGY PRECISION 4
Info: CROSSTERM ENERGY INCLUDED IN DIHEDRAL
Info: TIMING OUTPUT STEPS    50000
Info: PRESSURE OUTPUT STEPS  5000
Info: LANGEVIN DYNAMICS ACTIVE
Info: LANGEVIN TEMPERATURE   300
Info: LANGEVIN USING BBK INTEGRATOR
Info: LANGEVIN DAMPING COEFFICIENT IS 1 INVERSE PS
Info: LANGEVIN DYNAMICS APPLIED TO HYDROGENS
Info: LANGEVIN PISTON PRESSURE CONTROL ACTIVE
Info:        TARGET PRESSURE IS 1.01325 BAR
Info:     OSCILLATION PERIOD IS 50 FS
Info:             DECAY TIME IS 25 FS
Info:     PISTON TEMPERATURE IS 300 K
Info:       PRESSURE CONTROL IS GROUP-BASED
Info:    INITIAL STRAIN RATE IS 0 0 0
Info:       CELL FLUCTUATION IS ISOTROPIC
Info: PARTICLE MESH EWALD (PME) ACTIVE
Info: PME TOLERANCE               1e-06
Info: PME EWALD COEFFICIENT       0.348832
Info: PME INTERPOLATION ORDER     4
Info: PME GRID DIMENSIONS         44 44 44
Info: PME MAXIMUM GRID SPACING    1
Info: FULL ELECTROSTATIC EVALUATION FREQUENCY      2
Info: USING VERLET I (r-RESPA) MTS SCHEME.
Info: C1 SPLITTING OF LONG RANGE ELECTROSTATICS
Info: PLACING ATOMS IN PATCHES BY HYDROGEN GROUPS
Info: RIGID BONDS TO HYDROGEN : ALL
Info:         ERROR TOLERANCE : 1e-08
Info:          MAX ITERATIONS : 100
Info: RIGID WATER USING SETTLE ALGORITHM
Info: RANDOM NUMBER SEED     1741344490
Info: USE HYDROGEN BONDS?    NO
Info: Using AMBER format force field!
Info: AMBER PARM FILE        mobley_4884177.prmtop
Info: COORDINATE PDB         mobley_4884177.pdb
Info: Exclusions will be read from PARM file!
Info: SCNB (VDW SCALING)     2
Info: USING ARITHMETIC MEAN TO COMBINE L-J SIGMA PARAMETERS
Info: SUMMARY OF PARAMETERS:
Info: 9 BONDS
Info: 11 ANGLES
Info:   11 HARMONIC
Info:   0 COSINE-BASED
Info: 7 DIHEDRAL
Info: 0 IMPROPER
Info: 0 CROSSTERM
Info: 0 VDW
Info: 36 VDW_PAIRS
Info: 0 NBTHOLE_PAIRS
Info: STRUCTURE SUMMARY:
Info: 4988 ATOMS
Info: 4988 BONDS
Info: 28 ANGLES
Info: 38 DIHEDRALS
Info: 0 IMPROPERS
Info: 0 CROSSTERMS
Info: 5048 EXCLUSIONS
Info: 4980 RIGID BONDS
Info: 9984 DEGREES OF FREEDOM
Info: 1665 HYDROGEN GROUPS
Info: 4 ATOMS IN LARGEST HYDROGEN GROUP
Info: 1665 MIGRATION GROUPS
Info: 4 ATOMS IN LARGEST MIGRATION GROUP
Info: TOTAL MASS = 29959.7 amu
Info: TOTAL CHARGE = -0.000100033 e
Info: MASS DENSITY = 0.724796 g/cm^3
Info: ATOM DENSITY = 0.0726685 atoms/A^3
Info: ADDED 0 IMPLICIT EXCLUSIONS
Info: NONBONDED TABLE R-SQUARED SPACING: 0.0625
Info: NONBONDED TABLE SIZE: 705 POINTS
Info: REMOVING COM VELOCITY -0.107485 0.058299 -0.109564
TCL: Minimizing for 2000 steps
ETITLE: TS BOND ANGLE DIHED IMPRP ELECT VDW BOUNDARY MISC KINETIC TOTAL TEMP POTENTIAL TOTAL3 TEMPAVG PRESSURE GPRESSURE VOLUME PRESSAVG GPRESSAVG
ENERGY: 0 0.5398 0.4809 0.9641 0.0000 -15645.7943 1784.3954 0.0000 0.0000 0.0000 -13859.4140 0.0000 -13859.4140 -13859.4140 0.0000 11319.5471 -15857.9152 68640.5082 11319.5471 -15857.9152
ENERGY: 400 37.3148 11.7080 5.2760 0.0000 -20845.4879 2990.9203 0.0000 0.0000 0.0000 -17800.2689 0.0000 -17800.2689 -17800.2689 0.0000 15683.4493 15517.7571 68640.5082 15683.4493 15517.7571
ENERGY: 800 9.3143 3.0314 1.1166 0.0000 -22073.1573 3606.2606 0.0000 0.0000 0.0000 -18453.4344 0.0000 -18453.4344 -18453.4344 0.0000 18525.2273 18378.6668 68640.5082 18525.2273 18378.6668
ENERGY: 1200 0.4714 0.4973 0.8346 0.0000 -22462.1447 3771.4078 0.0000 0.0000 0.0000 -18688.9337 0.0000 -18688.9337 -18688.9337 0.0000 19325.1934 19136.3769 68640.5082 19325.1934 19136.3769
ENERGY: 1600 0.3587 0.4736 0.8259 0.0000 -22732.3210 3904.3452 0.0000 0.0000 0.0000 -18826.3176 0.0000 -18826.3176 -18826.3176 0.0000 19936.6928 19743.2041 68640.5082 19936.6928 19743.2041
ENERGY: 2000 0.3742 0.4261 0.7949 0.0000 -22865.1396 3962.8206 0.0000 0.0000 0.0000 -18900.7237 0.0000 -18900.7237 -18900.7237 0.0000 20227.8284 19965.9660 68640.5082 20227.8284 19965.9660
TCL: Exiting due to exit command.
Info: NAMD 3.0.1 for Linux-x86_64-multicore
Info: Please visit http://www.ks.uiuc.edu/Research/namd/
Info: for updates, documentation, and support information.
Info: Please cite Phillips et al., J. Chem. Phys. 153:044130 (2020) doi:10.1063/5.0014475
Info: in all publications reporting results obtained with NAMD.
Info: Based on Charm++/Converse 80000 for multicore-linux-x86_64-gcc
Info: Built Mon Oct 14 11:11:06 CDT 2024 by dhardy on athine.ks.uiuc.edu
Info: 1 NAMD  3.0.1  Linux-x86_64-multicore  16    k005  z5358697
Info: Running on 16 processors, 1 nodes, 1 physical nodes.
Info: CPU topology information available.
Info: Charm++/Converse parallel runtime startup completed at 0.00975619 s
Info: 1043.45 MB of memory in use based on /proc/self/stat
Info: Configuration file is mobley_4884177_equil.namd
Info: Working in the current directory /srv/scratch/z5358697/prod_prep_6/4884177
TCL: Running 25000 steps at 30 kelvin.
TCL: Suspending until startup complete.
Info: SIMULATION PARAMETERS:
Info: TIMESTEP               2
Info: NUMBER OF STEPS        0
Info: STEPS PER CYCLE        10
Info: PERIODIC CELL BASIS 1  41.123 0 0
Info: PERIODIC CELL BASIS 2  0 40.343 0
Info: PERIODIC CELL BASIS 3  0 0 41.374
Info: PERIODIC CELL CENTER   0 0 0
Info: WRAPPING WATERS AROUND PERIODIC BOUNDARIES ON OUTPUT.
Info: WRAPPING ALL CLUSTERS AROUND PERIODIC BOUNDARIES ON OUTPUT.
Info: FIRST LDB TIMESTEP     50
Info: LAST LDB TIMESTEP     -1
Info: HOM BACKGROUND SCALING 1
Info: PME BACKGROUND SCALING 1
Info: MIN ATOMS PER PATCH    40
Info: EMPTY PATCH LOAD       40 ATOMS
Info: INITIAL TEMPERATURE    300
Info: CENTER OF MASS MOVING INITIALLY? NO
Info: DIELECTRIC             1
Info: EXCLUDE                SCALED ONE-FOUR
Info: 1-4 ELECTROSTATICS SCALED BY 0.833333
Info: MODIFIED 1-4 VDW PARAMETERS WILL BE USED
Info: DCD FILENAME           mobley_4884177_equil.dcd
Info: DCD FREQUENCY          5000
Info: DCD FIRST STEP         5000
Info: DCD FILE WILL CONTAIN UNIT CELL DATA
Info: XST FILENAME           mobley_4884177_equil.xst
Info: XST FREQUENCY          5000
Info: NO VELOCITY DCD OUTPUT
Info: NO FORCE DCD OUTPUT
Info: OUTPUT FILENAME        mobley_4884177_equil
Info: BINARY OUTPUT FILES WILL BE USED
Info: RESTART FILENAME       mobley_4884177_equil.restart
Info: RESTART FREQUENCY      5000
Info: BINARY RESTART FILES WILL BE USED
Info: CUTOFF                 9
Info: PAIRLIST DISTANCE      11
Info: PAIRLIST SHRINK RATE   0.01
Info: PAIRLIST GROW RATE     0.01
Info: PAIRLIST TRIGGER       0.3
Info: PAIRLISTS PER CYCLE    2
Info: PAIRLISTS ENABLED
Info: MARGIN                 8
Info: HYDROGEN GROUP CUTOFF  2.5
Info: PATCH DIMENSION        21.5
Info: ENERGY OUTPUT STEPS    5000
Info: ENERGY EVALUATION STEPS    5000
Info: OUTPUT ENERGY PRECISION 4
Info: CROSSTERM ENERGY INCLUDED IN DIHEDRAL
Info: TIMING OUTPUT STEPS    50000
Info: PRESSURE OUTPUT STEPS  5000
Info: LANGEVIN DYNAMICS ACTIVE
Info: LANGEVIN TEMPERATURE   30
Info: LANGEVIN USING BBK INTEGRATOR
Info: LANGEVIN DAMPING COEFFICIENT IS 1 INVERSE PS
Info: LANGEVIN DYNAMICS APPLIED TO HYDROGENS
Info: LANGEVIN PISTON PRESSURE CONTROL ACTIVE
Info:        TARGET PRESSURE IS 1.01325 BAR
Info:     OSCILLATION PERIOD IS 50 FS
Info:             DECAY TIME IS 25 FS
Info:     PISTON TEMPERATURE IS 300 K
Info:       PRESSURE CONTROL IS GROUP-BASED
Info:    INITIAL STRAIN RATE IS 0 0 0
Info:       CELL FLUCTUATION IS ISOTROPIC
Info: PARTICLE MESH EWALD (PME) ACTIVE
Info: PME TOLERANCE               1e-06
Info: PME EWALD COEFFICIENT       0.348832
Info: PME INTERPOLATION ORDER     4
Info: PME GRID DIMENSIONS         44 44 44
Info: PME MAXIMUM GRID SPACING    1
Info: FULL ELECTROSTATIC EVALUATION FREQUENCY      2
Info: USING VERLET I (r-RESPA) MTS SCHEME.
Info: C1 SPLITTING OF LONG RANGE ELECTROSTATICS
Info: PLACING ATOMS IN PATCHES BY HYDROGEN GROUPS
Info: RIGID BONDS TO HYDROGEN : ALL
Info:         ERROR TOLERANCE : 1e-08
Info:          MAX ITERATIONS : 100
Info: RIGID WATER USING SETTLE ALGORITHM
Info: RANDOM NUMBER SEED     1741344506
Info: USE HYDROGEN BONDS?    NO
Info: Using AMBER format force field!
Info: AMBER PARM FILE        mobley_4884177.prmtop
Info: COORDINATE PDB         mobley_4884177.pdb
Info: Exclusions will be read from PARM file!
Info: SCNB (VDW SCALING)     2
Info: USING ARITHMETIC MEAN TO COMBINE L-J SIGMA PARAMETERS
Info: BINARY COORDINATES     mobley_4884177_min.coor
Info: SUMMARY OF PARAMETERS:
Info: 9 BONDS
Info: 11 ANGLES
Info:   11 HARMONIC
Info:   0 COSINE-BASED
Info: 7 DIHEDRAL
Info: 0 IMPROPER
Info: 0 CROSSTERM
Info: 0 VDW
Info: 36 VDW_PAIRS
Info: 0 NBTHOLE_PAIRS
Info: STRUCTURE SUMMARY:
Info: 4988 ATOMS
Info: 4988 BONDS
Info: 28 ANGLES
Info: 38 DIHEDRALS
Info: 0 IMPROPERS
Info: 0 CROSSTERMS
Info: 5048 EXCLUSIONS
Info: 4980 RIGID BONDS
Info: 9984 DEGREES OF FREEDOM
Info: 1665 HYDROGEN GROUPS
Info: 4 ATOMS IN LARGEST HYDROGEN GROUP
Info: 1665 MIGRATION GROUPS
Info: 4 ATOMS IN LARGEST MIGRATION GROUP
Info: TOTAL MASS = 29959.7 amu
Info: TOTAL CHARGE = -0.000100033 e
Info: MASS DENSITY = 0.724796 g/cm^3
Info: ATOM DENSITY = 0.0726685 atoms/A^3
Info: ADDED 0 IMPLICIT EXCLUSIONS
Info: NONBONDED TABLE R-SQUARED SPACING: 0.0625
Info: NONBONDED TABLE SIZE: 705 POINTS
Info: REMOVING COM VELOCITY -0.12171 -0.110134 0.0337296
TCL: Running for 25000 steps
ETITLE: TS BOND ANGLE DIHED IMPRP ELECT VDW BOUNDARY MISC KINETIC TOTAL TEMP POTENTIAL TOTAL3 TEMPAVG PRESSURE GPRESSURE VOLUME PRESSAVG GPRESSAVG
ENERGY: 0 0.3742 0.4261 0.7949 0.0000 -22865.1396 3962.8206 0.0000 0.0000 2927.0837 -15973.6401 295.0672 -18900.7238 -15973.0505 295.0672 309.8538 347.9789 68640.5082 309.8538 347.9789
ENERGY: 5000 0.4631 0.8942 0.9646 0.0000 -24018.8691 4174.0941 0.0000 0.0000 299.8225 -19542.6307 30.2239 -19842.4532 -19541.6000 48.0093 81.2910 139.0709 47743.5531 5.1666 4.9759
ENERGY: 10000 0.5668 1.4170 1.1487 0.0000 -23989.6301 4115.4398 0.0000 0.0000 297.2119 -19573.8460 29.9607 -19871.0578 -19572.8199 30.1833 -246.4581 -183.2225 47685.9532 9.1821 9.1096
ENERGY: 15000 0.4187 0.9492 1.2095 0.0000 -23934.8920 4050.2650 0.0000 0.0000 292.5731 -19589.4765 29.4931 -19882.0495 -19588.3426 29.9197 -512.8792 -454.5696 47606.7360 4.0901 4.3363
ENERGY: 20000 0.4472 0.8361 0.9023 0.0000 -23957.7770 4059.1830 0.0000 0.0000 293.8163 -19602.5920 29.6184 -19896.4084 -19601.7331 30.1318 -522.0216 -444.7125 47624.2492 5.7205 5.7021
ENERGY: 25000 0.6541 0.4756 1.2298 0.0000 -23987.2976 4071.4613 0.0000 0.0000 294.9730 -19618.5037 29.7350 -19913.4768 -19617.8884 29.8060 -481.9314 -420.4179 47577.2542 2.1626 2.0466
TCL: Running 25000 steps at 60 kelvin.
TCL: Setting parameter langevinTemp to 60
TCL: Running for 25000 steps
ETITLE: TS BOND ANGLE DIHED IMPRP ELECT VDW BOUNDARY MISC KINETIC TOTAL TEMP POTENTIAL TOTAL3 TEMPAVG PRESSURE GPRESSURE VOLUME PRESSAVG GPRESSAVG
ENERGY: 25000 0.6541 0.4756 1.2298 0.0000 -23987.2976 4071.4613 0.0000 0.0000 294.8264 -19618.6504 29.7202 -19913.4768 -19617.8488 29.7202 -481.7378 -420.6108 47577.2542 -481.7378 -420.6108
ENERGY: 30000 0.5191 1.2489 1.5860 0.0000 -23728.3095 4106.5599 0.0000 0.0000 604.3788 -19014.0168 60.9249 -19618.3956 -19012.6532 56.8752 484.0699 530.1696 47506.6378 2.1971 2.1894
ENERGY: 35000 0.6024 1.2432 1.4190 0.0000 -23532.0110 3850.9144 0.0000 0.0000 582.4176 -19095.4145 58.7111 -19677.8321 -19094.2547 59.9716 -1031.4303 -937.0239 47835.9076 3.9695 4.0352
ENERGY: 40000 0.3438 1.3870 1.5200 0.0000 -23594.1306 3918.4409 0.0000 0.0000 593.9572 -19078.4817 59.8744 -19672.4389 -19077.1646 59.9363 -683.0029 -619.4562 47765.5805 4.2953 4.3820
ENERGY: 45000 0.5221 1.9987 1.1655 0.0000 -23803.1145 4102.8769 0.0000 0.0000 602.9837 -19093.5675 60.7843 -19696.5512 -19092.1150 60.1031 285.8736 345.2923 47413.1403 3.9664 4.2258
ENERGY: 50000 0.3247 1.3504 1.4968 0.0000 -23922.3534 4196.4916 0.0000 0.0000 591.8935 -19130.7964 59.6663 -19722.6899 -19129.3697 60.2834 737.3424 809.1137 47202.7181 0.6270 0.6456
TCL: Running 25000 steps at 90 kelvin.
TCL: Setting parameter langevinTemp to 90
TCL: Running for 25000 steps
ETITLE: TS BOND ANGLE DIHED IMPRP ELECT VDW BOUNDARY MISC KINETIC TOTAL TEMP POTENTIAL TOTAL3 TEMPAVG PRESSURE GPRESSURE VOLUME PRESSAVG GPRESSAVG
ENERGY: 50000 0.3247 1.3504 1.4968 0.0000 -23922.3533 4196.4916 0.0000 0.0000 591.5851 -19131.1048 59.6352 -19722.6899 -19130.1419 59.6352 745.0553 808.9820 47202.7181 745.0553 808.9820
ENERGY: 55000 0.5956 1.9135 1.5355 0.0000 -23496.3671 4086.6241 0.0000 0.0000 916.6668 -18489.0316 92.4054 -19405.6983 -18486.7397 86.3055 922.6039 977.8129 47440.8120 3.2008 3.0669
ENERGY: 60000 1.0111 1.5225 1.4169 0.0000 -23425.9825 3964.9945 0.0000 0.0000 900.6565 -18556.3810 90.7915 -19457.0375 -18553.7109 89.7543 116.6646 169.0240 47741.1754 4.3927 4.1468
ENERGY: 65000 0.2439 1.1852 2.2091 0.0000 -23460.5123 3981.1433 0.0000 0.0000 895.5390 -18580.1919 90.2756 -19475.7309 -18577.6512 90.0359 166.5206 230.0514 47776.7352 5.4259 5.6287
ENERGY: 70000 0.6764 1.6730 1.5881 0.0000 -23458.8666 3971.2015 0.0000 0.0000 908.9831 -18574.7445 91.6308 -19483.7275 -18572.2445 90.2992 119.7006 184.0260 47686.2915 -1.6510 -1.3994
ENERGY: 75000 0.7841 1.9070 1.7933 0.0000 -23594.6484 4075.0551 0.0000 0.0000 892.5199 -18622.5888 89.9712 -19515.1088 -18620.3261 90.2470 455.8146 557.9801 47678.0891 -0.4986 -0.3176
TCL: Running 25000 steps at 120 kelvin.
TCL: Setting parameter langevinTemp to 120
TCL: Running for 25000 steps
ETITLE: TS BOND ANGLE DIHED IMPRP ELECT VDW BOUNDARY MISC KINETIC TOTAL TEMP POTENTIAL TOTAL3 TEMPAVG PRESSURE GPRESSURE VOLUME PRESSAVG GPRESSAVG
ENERGY: 75000 0.7841 1.9070 1.7933 0.0000 -23594.6484 4075.0551 0.0000 0.0000 892.0814 -18623.0273 89.9270 -19515.1088 -18621.1139 89.9270 487.3371 557.7531 47678.0891 487.3371 557.7531
ENERGY: 80000 0.6098 2.1536 2.0091 0.0000 -23051.3945 3850.5544 0.0000 0.0000 1178.3776 -18017.6900 118.7874 -19196.0676 -18014.8653 116.3530 81.2429 154.3439 47998.5371 -0.8853 -1.1865
ENERGY: 85000 1.3556 1.9815 2.4658 0.0000 -23111.6801 3866.2204 0.0000 0.0000 1204.1415 -18035.5152 121.3845 -19239.6567 -18033.1845 120.3015 32.9797 99.2566 48158.1117 -2.5654 -2.4186
ENERGY: 90000 1.8068 1.7477 1.5708 0.0000 -23125.1605 3874.0684 0.0000 0.0000 1189.6343 -18056.3326 119.9221 -19245.9669 -18053.1639 120.2902 88.9974 140.2758 47949.2592 4.2724 3.9568
ENERGY: 95000 0.0846 3.8574 1.8656 0.0000 -23068.2368 3784.9505 0.0000 0.0000 1186.6639 -18090.8150 119.6227 -19277.4789 -18088.0304 120.3778 -422.7119 -338.1024 48210.5765 5.3651 5.6819
ENERGY: 100000 1.0291 1.8776 1.3243 0.0000 -23171.0789 3867.1140 0.0000 0.0000 1198.9124 -18100.8214 120.8574 -19299.7338 -18096.8127 120.5583 -24.5788 14.5617 48131.3958 2.0441 2.2013
TCL: Running 25000 steps at 150 kelvin.
TCL: Setting parameter langevinTemp to 150
TCL: Running for 25000 steps
ETITLE: TS BOND ANGLE DIHED IMPRP ELECT VDW BOUNDARY MISC KINETIC TOTAL TEMP POTENTIAL TOTAL3 TEMPAVG PRESSURE GPRESSURE VOLUME PRESSAVG GPRESSAVG
ENERGY: 100000 1.0291 1.8776 1.3243 0.0000 -23171.0789 3867.1140 0.0000 0.0000 1198.3219 -18101.4119 120.7979 -19299.7338 -18099.3967 120.7979 -39.6190 15.6798 48131.3958 -39.6190 15.6798
ENERGY: 105000 2.0466 3.3896 1.8342 0.0000 -22554.0654 3609.1085 0.0000 0.0000 1508.4626 -17429.2238 152.0619 -18937.6864 -17425.4236 146.9375 -502.8345 -462.9106 48507.4050 2.6403 2.6719
ENERGY: 110000 1.8385 3.3138 4.4765 0.0000 -22637.1499 3719.4372 0.0000 0.0000 1452.0013 -17456.0827 146.3703 -18908.0840 -17451.3989 150.7770 3.7866 65.2715 48396.8199 -0.7000 -0.3942
ENERGY: 115000 1.5090 0.9218 3.2819 0.0000 -22617.9987 3648.3735 0.0000 0.0000 1516.8848 -17447.0277 152.9109 -18963.9125 -17444.8082 150.2933 -494.3129 -428.6509 48743.3349 -0.6888 -0.7717
ENERGY: 120000 1.0541 3.1527 0.9127 0.0000 -22842.2736 3831.3562 0.0000 0.0000 1487.8652 -17517.9328 149.9855 -19005.7979 -17514.5988 150.0786 388.9037 422.4211 48305.9869 5.8886 5.9623
ENERGY: 125000 1.1940 3.3594 1.5680 0.0000 -22812.2131 3838.4973 0.0000 0.0000 1494.5744 -17473.0200 150.6619 -18967.5944 -17469.4916 149.7218 319.3457 376.2799 48489.3076 2.7201 2.7425
TCL: Running 50000 steps at 180 kelvin.
TCL: Setting parameter langevinTemp to 180
TCL: Running for 50000 steps
ETITLE: TS BOND ANGLE DIHED IMPRP ELECT VDW BOUNDARY MISC KINETIC TOTAL TEMP POTENTIAL TOTAL3 TEMPAVG PRESSURE GPRESSURE VOLUME PRESSAVG GPRESSAVG
ENERGY: 125000 1.1940 3.3594 1.5680 0.0000 -22812.2131 3838.4973 0.0000 0.0000 1493.8233 -17473.7711 150.5862 -18967.5944 -17470.9064 150.5862 318.1992 376.4008 48489.3076 318.1992 376.4008
ENERGY: 135000 1.4096 4.1094 1.9285 0.0000 -22086.2847 3594.7529 0.0000 0.0000 1795.0847 -16688.9996 180.9551 -18484.0843 -16685.6201 181.6145 378.0653 426.4996 48524.8997 3.2892 2.8854
ENERGY: 145000 3.6927 4.1099 2.8606 0.0000 -21926.7300 3426.6450 0.0000 0.0000 1818.9387 -16670.4832 183.3597 -18489.4219 -16667.8228 181.1436 -577.1721 -497.3025 48472.3410 0.3788 0.3666
ENERGY: 155000 2.1604 4.2213 3.4447 0.0000 -21899.6310 3407.5562 0.0000 0.0000 1778.8651 -16703.3833 179.3200 -18482.2484 -16699.7808 179.8280 -519.1489 -512.1475 48473.5653 6.9399 6.7730
ENERGY: 165000 0.5875 4.1345 2.1520 0.0000 -22112.8261 3574.8020 0.0000 0.0000 1787.5371 -16743.6132 180.1942 -18531.1503 -16741.4976 179.4314 155.4650 224.1583 48629.1278 2.5684 3.0101
ENERGY: 175000 1.4727 3.2224 2.7262 0.0000 -22122.4781 3515.1855 0.0000 0.0000 1742.5444 -16857.3269 175.6587 -18599.8713 -16852.2585 179.7667 -432.7035 -384.3194 48830.2737 4.9720 5.2137
TCL: Running 50000 steps at 210 kelvin.
TCL: Setting parameter langevinTemp to 210
TCL: Running for 50000 steps
ETITLE: TS BOND ANGLE DIHED IMPRP ELECT VDW BOUNDARY MISC KINETIC TOTAL TEMP POTENTIAL TOTAL3 TEMPAVG PRESSURE GPRESSURE VOLUME PRESSAVG GPRESSAVG
ENERGY: 175000 1.4727 3.2224 2.7262 0.0000 -22122.4781 3515.1855 0.0000 0.0000 1741.6497 -16858.2216 175.5685 -18599.8713 -16854.8856 175.5685 -442.2394 -384.7377 48830.2737 -442.2394 -384.7377
ENERGY: 185000 0.7190 6.7236 1.4932 0.0000 -21230.4122 3301.7761 0.0000 0.0000 2116.2676 -15803.4328 213.3322 -17919.7004 -15800.3868 211.1106 255.5939 328.9106 48319.1070 6.6474 6.7732
ENERGY: 195000 1.5218 3.4446 1.3009 0.0000 -21071.9204 3290.8792 0.0000 0.0000 2079.0874 -15695.6864 209.5842 -17774.7738 -15692.9734 207.9423 340.5697 415.6420 48678.1192 1.9226 1.8705
ENERGY: 205000 1.1582 3.9096 3.0531 0.0000 -20909.2309 3072.0822 0.0000 0.0000 2077.8783 -15751.1495 209.4623 -17829.0278 -15745.8889 211.2488 -743.9993 -679.4126 48966.6940 2.0852 1.8400
ENERGY: 215000 0.3962 4.2144 0.7222 0.0000 -20875.7775 3126.1349 0.0000 0.0000 2097.6839 -15646.6260 211.4588 -17744.3098 -15642.1425 211.3023 -316.4202 -274.8654 48897.1761 4.6875 4.8417
ENERGY: 225000 2.1223 4.4631 2.4509 0.0000 -20897.5144 3137.9271 0.0000 0.0000 2050.1540 -15700.3971 206.6676 -17750.5511 -15697.6581 210.0536 -417.9994 -363.4792 48941.2207 1.1331 0.7061
TCL: Running 50000 steps at 240 kelvin.
TCL: Setting parameter langevinTemp to 240
TCL: Running for 50000 steps
ETITLE: TS BOND ANGLE DIHED IMPRP ELECT VDW BOUNDARY MISC KINETIC TOTAL TEMP POTENTIAL TOTAL3 TEMPAVG PRESSURE GPRESSURE VOLUME PRESSAVG GPRESSAVG
ENERGY: 225000 2.1223 4.4631 2.4509 0.0000 -20897.5144 3137.9271 0.0000 0.0000 2049.1453 -15701.4057 206.5659 -17750.5511 -15697.8008 206.5659 -447.2958 -364.7953 48941.2207 -447.2958 -364.7953
ENERGY: 235000 2.6314 5.7806 3.3196 0.0000 -19967.3589 2995.5324 0.0000 0.0000 2347.4847 -14612.6102 236.6402 -16960.0950 -14608.2761 239.4344 419.1883 550.0134 49195.8356 0.6187 0.5931
ENERGY: 245000 3.3208 3.8428 2.6522 0.0000 -19825.5894 2778.8274 0.0000 0.0000 2292.8092 -14744.1370 231.1286 -17036.9462 -14739.5444 239.1689 -799.8171 -718.6263 49547.3062 6.5268 6.7981
ENERGY: 255000 1.4763 4.1211 2.1902 0.0000 -20046.4639 2946.1938 0.0000 0.0000 2479.6168 -14612.8656 249.9599 -17092.4824 -14608.8901 239.9234 175.9325 290.9985 48975.0757 -2.3478 -2.4836
ENERGY: 265000 2.2740 3.4857 1.9263 0.0000 -19859.6977 2883.4432 0.0000 0.0000 2381.4196 -14587.1488 240.0611 -16968.5684 -14584.5975 240.6950 92.8253 203.0214 48988.0648 0.2125 1.0124
ENERGY: 275000 1.9682 4.2563 2.7461 0.0000 -19922.3692 2902.6426 0.0000 0.0000 2387.0086 -14623.7474 240.6245 -17010.7559 -14617.4717 240.6143 297.4849 358.2005 48844.7276 0.2665 0.2259
TCL: Running 50000 steps at 270 kelvin.
TCL: Setting parameter langevinTemp to 270
TCL: Running for 50000 steps
ETITLE: TS BOND ANGLE DIHED IMPRP ELECT VDW BOUNDARY MISC KINETIC TOTAL TEMP POTENTIAL TOTAL3 TEMPAVG PRESSURE GPRESSURE VOLUME PRESSAVG GPRESSAVG
ENERGY: 275000 1.9682 4.2563 2.7461 0.0000 -19922.3692 2902.6426 0.0000 0.0000 2385.8373 -14624.9187 240.5064 -17010.7559 -14621.1102 240.5064 279.9094 359.0541 48844.7276 279.9094 359.0541
ENERGY: 285000 0.4008 4.1697 1.7444 0.0000 -19013.2616 2666.9733 0.0000 0.0000 2632.6879 -13707.2854 265.3904 -16339.9734 -13703.1939 269.4407 -15.9071 93.5854 50035.9016 -2.3926 -1.5526
ENERGY: 295000 3.2399 8.5771 1.8712 0.0000 -19225.9965 2825.3491 0.0000 0.0000 2659.8609 -13727.0982 268.1296 -16386.9591 -13720.6275 269.9178 581.8187 696.8602 50004.7081 7.1639 6.9215
ENERGY: 305000 0.9668 2.9241 3.4750 0.0000 -18980.8663 2585.5611 0.0000 0.0000 2733.8659 -13654.0734 275.5897 -16387.9393 -13646.7959 270.7234 -417.3054 -362.3548 49981.5583 4.0418 4.1598
ENERGY: 315000 0.8494 8.6949 3.6554 0.0000 -19099.5620 2725.3817 0.0000 0.0000 2710.7015 -13650.2793 273.2546 -16360.9807 -13644.3985 269.2735 444.0245 511.4506 49865.1315 1.7773 1.3879
ENERGY: 325000 3.0059 2.3484 1.9249 0.0000 -19093.9454 2684.6639 0.0000 0.0000 2724.9301 -13677.0722 274.6889 -16402.0023 -13670.9198 270.8447 77.6667 179.7256 49966.9559 2.3220 2.4899
TCL: Running 1000000 steps at 300 kelvin.
TCL: Setting parameter langevinTemp to 300
TCL: Running for 1000000 steps
ETITLE: TS BOND ANGLE DIHED IMPRP ELECT VDW BOUNDARY MISC KINETIC TOTAL TEMP POTENTIAL TOTAL3 TEMPAVG PRESSURE GPRESSURE VOLUME PRESSAVG GPRESSAVG
ENERGY: 325000 3.0059 2.3484 1.9249 0.0000 -19093.9454 2684.6639 0.0000 0.0000 2723.5859 -13678.4164 274.5534 -16402.0023 -13674.6175 274.5534 103.4342 180.5531 49966.9559 103.4342 180.5531
ENERGY: 525000 3.9107 9.3292 6.5673 0.0000 -18034.5905 2403.6397 0.0000 0.0000 3016.1904 -12594.9533 304.0497 -15611.1437 -12588.9690 301.3695 -80.3117 -18.1856 51238.5700 1.5114 1.2150
ENERGY: 725000 2.9695 4.4130 4.2705 0.0000 -18127.2470 2503.7111 0.0000 0.0000 2953.1913 -12658.6916 297.6990 -15611.8829 -12652.6874 302.1212 440.0254 523.0585 51165.2992 5.4137 5.9457
ENERGY: 925000 1.5381 4.7891 2.1431 0.0000 -18125.2165 2467.6199 0.0000 0.0000 3025.8413 -12623.2851 305.0226 -15649.1264 -12619.5502 301.0580 95.2924 219.3822 51199.6277 0.2835 0.9619
ENERGY: 1125000 3.0997 6.2834 3.1309 0.0000 -18118.1823 2400.6407 0.0000 0.0000 2988.1715 -12716.8560 301.2252 -15705.0275 -12711.4194 299.6864 -155.6101 -65.6026 51259.3206 1.6699 1.8612
ENERGY: 1325000 2.8046 4.8049 0.9769 0.0000 -18074.6470 2441.2207 0.0000 0.0000 2974.0107 -12650.8293 299.7977 -15624.8400 -12643.4502 298.6738 -6.9803 113.6800 51205.7451 -2.8708 -2.6765
TCL: Exiting due to exit command.
