Info: SIMULATION PARAMETERS:
Info: TIMESTEP               2
Info: NUMBER OF STEPS        0
Info: STEPS PER CYCLE        10
Info: PERIODIC CELL BASIS 1  34.986 0 0
Info: PERIODIC CELL BASIS 2  0 34.26 0
Info: PERIODIC CELL BASIS 3  0 0 36.199
Info: PERIODIC CELL CENTER   0 0 0
Info: WRAPPING WATERS AROUND PERIODIC BOUNDARIES ON OUTPUT.
Info: WRAPPING ALL CLUSTERS AROUND PERIODIC BOUNDARIES ON OUTPUT.
Info: FIRST LDB TIMESTEP     50
Info: LAST LDB TIMESTEP     -1
Info: HOM BACKGROUND SCALING 1
Info: PME BACKGROUND SCALING 1
Info: MIN ATOMS PER PATCH    40
Info: EMPTY PATCH LOAD       40 ATOMS
Info: INITIAL TEMPERATURE    300
Info: CENTER OF MASS MOVING INITIALLY? NO
Info: DIELECTRIC             1
Info: EXCLUDE                SCALED ONE-FOUR
Info: 1-4 ELECTROSTATICS SCALED BY 0.833333
Info: MODIFIED 1-4 VDW PARAMETERS WILL BE USED
Info: DCD FILENAME           mobley_3425174_equil.dcd
Info: DCD FREQUENCY          100000
Info: DCD FIRST STEP         100000
Info: DCD FILE WILL CONTAIN UNIT CELL DATA
Info: XST FILENAME           mobley_3425174_equil.xst
Info: XST FREQUENCY          100000
Info: NO VELOCITY DCD OUTPUT
Info: NO FORCE DCD OUTPUT
Info: OUTPUT FILENAME        mobley_3425174_equil
Info: BINARY OUTPUT FILES WILL BE USED
Info: RESTART FILENAME       mobley_3425174_equil.restart
Info: RESTART FREQUENCY      100000
Info: BINARY RESTART FILES WILL BE USED
Info: CUTOFF                 9
Info: PAIRLIST DISTANCE      11
Info: PAIRLIST SHRINK RATE   0.01
Info: PAIRLIST GROW RATE     0.01
Info: PAIRLIST TRIGGER       0.3
Info: PAIRLISTS PER CYCLE    2
Info: PAIRLISTS ENABLED
Info: MARGIN                 8
Info: HYDROGEN GROUP CUTOFF  2.5
Info: PATCH DIMENSION        21.5
Info: ENERGY OUTPUT STEPS    100000
Info: ENERGY EVALUATION STEPS    100000
Info: OUTPUT ENERGY PRECISION 4
Info: CROSSTERM ENERGY INCLUDED IN DIHEDRAL
Info: TIMING OUTPUT STEPS    1000000
Info: PRESSURE OUTPUT STEPS  100000
Info: FIXED ATOMS ACTIVE
Info: LANGEVIN DYNAMICS ACTIVE
Info: LANGEVIN TEMPERATURE   30
Info: LANGEVIN USING BBK INTEGRATOR
Info: LANGEVIN DAMPING COEFFICIENT IS 1 INVERSE PS
Info: LANGEVIN DYNAMICS APPLIED TO HYDROGENS
Info: LANGEVIN PISTON PRESSURE CONTROL ACTIVE
Info:        TARGET PRESSURE IS 1.01325 BAR
Info:     OSCILLATION PERIOD IS 50 FS
Info:             DECAY TIME IS 25 FS
Info:     PISTON TEMPERATURE IS 300 K
Info:       PRESSURE CONTROL IS GROUP-BASED
Info:    INITIAL STRAIN RATE IS 0 0 0
Info:       CELL FLUCTUATION IS ISOTROPIC
Info: PARTICLE MESH EWALD (PME) ACTIVE
Info: PME TOLERANCE               1e-06
Info: PME EWALD COEFFICIENT       0.348832
Info: PME INTERPOLATION ORDER     4
Info: PME GRID DIMENSIONS         36 36 40
Info: PME MAXIMUM GRID SPACING    1
Info: FULL ELECTROSTATIC EVALUATION FREQUENCY      2
Info: USING VERLET I (r-RESPA) MTS SCHEME.
Info: C1 SPLITTING OF LONG RANGE ELECTROSTATICS
Info: PLACING ATOMS IN PATCHES BY HYDROGEN GROUPS
Info: RIGID BONDS TO HYDROGEN : ALL
Info:         ERROR TOLERANCE : 1e-08
Info:          MAX ITERATIONS : 100
Info: RIGID WATER USING SETTLE ALGORITHM
Info: RANDOM NUMBER SEED     1741915334
Info: USE HYDROGEN BONDS?    NO
Info: Using AMBER format force field!
Info: AMBER PARM FILE        mobley_3425174.prmtop
Info: COORDINATE PDB         mobley_3425174.pdb
Info: Exclusions will be read from PARM file!
Info: SCNB (VDW SCALING)     2
Info: USING ARITHMETIC MEAN TO COMBINE L-J SIGMA PARAMETERS
Info: BINARY COORDINATES     mobley_3425174_min.coor
Info: SUMMARY OF PARAMETERS:
Info: 5 BONDS
Info: 4 ANGLES
Info:   4 HARMONIC
Info:   0 COSINE-BASED
Info: 0 DIHEDRAL
Info: 0 IMPROPER
Info: 0 CROSSTERM
Info: 0 VDW
Info: 21 VDW_PAIRS
Info: 0 NBTHOLE_PAIRS
Info: STRUCTURE SUMMARY:
Info: 2903 ATOMS
Info: 2902 BONDS
Info: 6 ANGLES
Info: 0 DIHEDRALS
Info: 0 IMPROPERS
Info: 0 CROSSTERMS
Info: 2908 EXCLUSIONS
Info: 5 FIXED ATOMS
Info: 2900 RIGID BONDS
Info: 2 RIGID BONDS BETWEEN FIXED ATOMS
Info: 5796 DEGREES OF FREEDOM
Info: 969 HYDROGEN GROUPS
Info: 3 ATOMS IN LARGEST HYDROGEN GROUP
Info: 969 MIGRATION GROUPS
Info: 3 ATOMS IN LARGEST MIGRATION GROUP
Info: 3 HYDROGEN GROUPS WITH ALL ATOMS FIXED
Info: TOTAL MASS = 17471.9 amu
Info: TOTAL CHARGE = -9.99868e-05 e
Info: MASS DENSITY = 0.668686 g/cm^3
Info: ATOM DENSITY = 0.0669066 atoms/A^3
Info: ADDED 0 IMPLICIT EXCLUSIONS
Info: NONBONDED TABLE R-SQUARED SPACING: 0.0625
Info: NONBONDED TABLE SIZE: 705 POINTS
Info: REMOVING COM VELOCITY -0.131471 -0.0404325 0.0299424
TCL: Running for 100000 steps
ETITLE: TS BOND ANGLE DIHED IMPRP ELECT VDW BOUNDARY MISC KINETIC TOTAL TEMP POTENTIAL TOTAL3 TEMPAVG PRESSURE GPRESSURE VOLUME PRESSAVG GPRESSAVG
ENERGY: 0 0.0000 0.0000 0.0000 0.0000 -13504.7678 2383.0696 0.0000 0.0000 1735.0482 -9386.6500 301.2823 -11121.6982 -9386.3047 301.2823 531.9662 564.2203 43388.8584 531.9662 564.2203
ENERGY: 100000 0.0000 0.0000 0.0000 0.0000 -13970.2687 2403.3979 0.0000 0.0000 170.5802 -11396.2906 29.6204 -11566.8707 -11395.7837 30.9616 -464.6568 -411.7525 28956.9676 4.0672 4.0297
TCL: Running 100000 steps at 60 kelvin.
TCL: Setting parameter langevinTemp to 60
TCL: Running for 100000 steps
ETITLE: TS BOND ANGLE DIHED IMPRP ELECT VDW BOUNDARY MISC KINETIC TOTAL TEMP POTENTIAL TOTAL3 TEMPAVG PRESSURE GPRESSURE VOLUME PRESSAVG GPRESSAVG
ENERGY: 100000 0.0000 0.0000 0.0000 0.0000 -13970.2687 2403.3979 0.0000 0.0000 170.4925 -11396.3783 29.6051 -11566.8707 -11396.0004 29.6051 -474.4578 -411.6223 28956.9676 -474.4578 -411.6223
ENERGY: 200000 0.0000 0.0000 0.0000 0.0000 -13945.7289 2418.0854 0.0000 0.0000 348.8149 -11178.8286 60.5699 -11527.6435 -11178.1036 59.9493 213.4026 262.9169 28369.1945 2.9439 2.9083
TCL: Running 100000 steps at 90 kelvin.
TCL: Setting parameter langevinTemp to 90
TCL: Running for 100000 steps
ETITLE: TS BOND ANGLE DIHED IMPRP ELECT VDW BOUNDARY MISC KINETIC TOTAL TEMP POTENTIAL TOTAL3 TEMPAVG PRESSURE GPRESSURE VOLUME PRESSAVG GPRESSAVG
ENERGY: 200000 0.0000 0.0000 0.0000 0.0000 -13945.7289 2418.0854 0.0000 0.0000 348.6351 -11179.0084 60.5387 -11527.6435 -11178.3834 60.5387 205.5862 263.0540 28369.1945 205.5862 263.0540
ENERGY: 300000 0.0000 0.0000 0.0000 0.0000 -13659.2599 2218.0243 0.0000 0.0000 520.1683 -10921.0672 90.3246 -11441.2356 -10919.0131 89.8592 -1278.9310 -1247.8328 28671.3802 4.1814 4.1989
TCL: Running 100000 steps at 120 kelvin.
TCL: Setting parameter langevinTemp to 120
TCL: Running for 100000 steps
ETITLE: TS BOND ANGLE DIHED IMPRP ELECT VDW BOUNDARY MISC KINETIC TOTAL TEMP POTENTIAL TOTAL3 TEMPAVG PRESSURE GPRESSURE VOLUME PRESSAVG GPRESSAVG
ENERGY: 300000 0.0000 0.0000 0.0000 0.0000 -13659.2599 2218.0243 0.0000 0.0000 519.9188 -10921.3168 90.2812 -11441.2356 -10920.0015 90.2812 -1293.2778 -1247.3314 28671.3802 -1293.2778 -1247.3314
ENERGY: 400000 0.0000 0.0000 0.0000 0.0000 -13574.9155 2297.3226 0.0000 0.0000 697.6479 -10579.9450 121.1430 -11277.5929 -10579.5468 120.0668 183.0773 207.0410 28307.5539 3.3430 3.2002
TCL: Running 100000 steps at 150 kelvin.
TCL: Setting parameter langevinTemp to 150
TCL: Running for 100000 steps
ETITLE: TS BOND ANGLE DIHED IMPRP ELECT VDW BOUNDARY MISC KINETIC TOTAL TEMP POTENTIAL TOTAL3 TEMPAVG PRESSURE GPRESSURE VOLUME PRESSAVG GPRESSAVG
ENERGY: 400000 0.0000 0.0000 0.0000 0.0000 -13574.9155 2297.3226 0.0000 0.0000 697.2966 -10580.2963 121.0820 -11277.5929 -10578.8275 121.0820 163.0026 205.8455 28307.5539 163.0026 205.8455
ENERGY: 500000 0.0000 0.0000 0.0000 0.0000 -13406.3787 2230.4232 0.0000 0.0000 869.8982 -10306.0573 151.0534 -11175.9555 -10303.7303 149.9505 -311.0440 -258.4994 28652.7518 4.5819 4.4977
TCL: Running 100000 steps at 180 kelvin.
TCL: Setting parameter langevinTemp to 180
TCL: Running for 100000 steps
ETITLE: TS BOND ANGLE DIHED IMPRP ELECT VDW BOUNDARY MISC KINETIC TOTAL TEMP POTENTIAL TOTAL3 TEMPAVG PRESSURE GPRESSURE VOLUME PRESSAVG GPRESSAVG
ENERGY: 500000 0.0000 0.0000 0.0000 0.0000 -13406.3787 2230.4232 0.0000 0.0000 869.4798 -10306.4757 150.9807 -11175.9555 -10304.5943 150.9807 -315.0752 -257.7620 28652.7518 -315.0752 -257.7620
ENERGY: 600000 0.0000 0.0000 0.0000 0.0000 -12885.7606 2062.1989 0.0000 0.0000 1042.5843 -9780.9774 181.0394 -10823.5617 -9777.5934 179.9071 -254.0024 -224.4313 28765.9633 3.3347 3.3740
TCL: Running 100000 steps at 210 kelvin.
TCL: Setting parameter langevinTemp to 210
TCL: Running for 100000 steps
ETITLE: TS BOND ANGLE DIHED IMPRP ELECT VDW BOUNDARY MISC KINETIC TOTAL TEMP POTENTIAL TOTAL3 TEMPAVG PRESSURE GPRESSURE VOLUME PRESSAVG GPRESSAVG
ENERGY: 600000 0.0000 0.0000 0.0000 0.0000 -12885.7606 2062.1989 0.0000 0.0000 1042.0774 -9781.4843 180.9514 -10823.5617 -9779.6513 180.9514 -282.2159 -224.0377 28765.9633 -282.2159 -224.0377
ENERGY: 700000 0.0000 0.0000 0.0000 0.0000 -12356.0894 1999.1835 0.0000 0.0000 1216.0163 -9140.8895 211.1550 -10356.9058 -9138.6163 210.3897 1020.0567 1079.7114 28299.9498 4.6999 4.6477
TCL: Running 100000 steps at 240 kelvin.
TCL: Setting parameter langevinTemp to 240
TCL: Running for 100000 steps
ETITLE: TS BOND ANGLE DIHED IMPRP ELECT VDW BOUNDARY MISC KINETIC TOTAL TEMP POTENTIAL TOTAL3 TEMPAVG PRESSURE GPRESSURE VOLUME PRESSAVG GPRESSAVG
ENERGY: 700000 0.0000 0.0000 0.0000 0.0000 -12356.0894 1999.1835 0.0000 0.0000 1215.4067 -9141.4991 211.0492 -10356.9058 -9139.5009 211.0492 1016.5613 1078.9562 28299.9498 1016.5613 1078.9562
ENERGY: 800000 0.0000 0.0000 0.0000 0.0000 -11829.7517 1923.8352 0.0000 0.0000 1397.9073 -8508.0092 242.7395 -9905.9165 -8505.0028 239.4890 1974.0082 2043.2742 28464.3963 2.5169 2.4485
TCL: Running 100000 steps at 270 kelvin.
TCL: Setting parameter langevinTemp to 270
TCL: Running for 100000 steps
ETITLE: TS BOND ANGLE DIHED IMPRP ELECT VDW BOUNDARY MISC KINETIC TOTAL TEMP POTENTIAL TOTAL3 TEMPAVG PRESSURE GPRESSURE VOLUME PRESSAVG GPRESSAVG
ENERGY: 800000 0.0000 0.0000 0.0000 0.0000 -11829.7517 1923.8352 0.0000 0.0000 1397.2086 -8508.7079 242.6181 -9905.9165 -8507.2403 242.6181 1970.5619 2043.1988 28464.3963 1970.5619 2043.1988
ENERGY: 900000 0.0000 0.0000 0.0000 0.0000 -11075.7841 1540.4908 0.0000 0.0000 1556.7563 -7978.5370 270.3228 -9535.2933 -7975.3649 269.6538 -66.7076 -16.4631 29227.6912 3.9844 3.9523
TCL: Running 1000000 steps at 300 kelvin.
TCL: Setting parameter langevinTemp to 300
TCL: Running for 1000000 steps
ETITLE: TS BOND ANGLE DIHED IMPRP ELECT VDW BOUNDARY MISC KINETIC TOTAL TEMP POTENTIAL TOTAL3 TEMPAVG PRESSURE GPRESSURE VOLUME PRESSAVG GPRESSAVG
ENERGY: 900000 0.0000 0.0000 0.0000 0.0000 -11075.7841 1540.4908 0.0000 0.0000 1555.9887 -7979.3045 270.1895 -9535.2933 -7977.4230 270.1895 -79.4603 -15.1552 29227.6912 -79.4603 -15.1552
ENERGY: 1100000 0.0000 0.0000 0.0000 0.0000 -10506.5303 1457.3498 0.0000 0.0000 1676.5642 -7372.6163 291.1268 -9049.1805 -7370.6783 300.6881 441.0881 563.1727 30126.8309 2.7693 2.8728
ENERGY: 1300000 0.0000 0.0000 0.0000 0.0000 -10611.8360 1498.2885 0.0000 0.0000 1738.0205 -7375.5270 301.7984 -9113.5475 -7373.1302 300.4179 641.6137 768.8146 29819.8998 2.5352 2.7773
ENERGY: 1500000 0.0000 0.0000 0.0000 0.0000 -10574.7744 1433.2906 0.0000 0.0000 1731.4412 -7410.0427 300.6559 -9141.4838 -7408.9464 300.3313 -12.3508 154.3436 29997.9818 3.7215 3.7601
ENERGY: 1700000 0.0000 0.0000 0.0000 0.0000 -10606.3362 1387.5451 0.0000 0.0000 1755.0881 -7463.7031 304.7621 -9218.7911 -7460.1671 300.5468 -383.7619 -288.2161 29815.2851 3.4058 3.2851
ENERGY: 1900000 0.0000 0.0000 0.0000 0.0000 -10549.8179 1426.5331 0.0000 0.0000 1701.9537 -7421.3311 295.5356 -9123.2848 -7417.5279 300.6491 212.8584 262.2077 29688.7739 3.7178 3.8184
TCL: Exiting due to exit command.
