Info: SIMULATION PARAMETERS:
Info: TIMESTEP               2
Info: NUMBER OF STEPS        0
Info: STEPS PER CYCLE        10
Info: PERIODIC CELL BASIS 1  35.89 0 0
Info: PERIODIC CELL BASIS 2  0 35.779 0
Info: PERIODIC CELL BASIS 3  0 0 34.68
Info: PERIODIC CELL CENTER   0 0 0
Info: WRAPPING WATERS AROUND PERIODIC BOUNDARIES ON OUTPUT.
Info: WRAPPING ALL CLUSTERS AROUND PERIODIC BOUNDARIES ON OUTPUT.
Info: FIRST LDB TIMESTEP     50
Info: LAST LDB TIMESTEP     -1
Info: HOM BACKGROUND SCALING 1
Info: PME BACKGROUND SCALING 1
Info: MIN ATOMS PER PATCH    40
Info: EMPTY PATCH LOAD       40 ATOMS
Info: INITIAL TEMPERATURE    300
Info: CENTER OF MASS MOVING INITIALLY? NO
Info: DIELECTRIC             1
Info: EXCLUDE                SCALED ONE-FOUR
Info: 1-4 ELECTROSTATICS SCALED BY 0.833333
Info: MODIFIED 1-4 VDW PARAMETERS WILL BE USED
Info: DCD FILENAME           mobley_9209581_equil.dcd
Info: DCD FREQUENCY          100000
Info: DCD FIRST STEP         100000
Info: DCD FILE WILL CONTAIN UNIT CELL DATA
Info: XST FILENAME           mobley_9209581_equil.xst
Info: XST FREQUENCY          100000
Info: NO VELOCITY DCD OUTPUT
Info: NO FORCE DCD OUTPUT
Info: OUTPUT FILENAME        mobley_9209581_equil
Info: BINARY OUTPUT FILES WILL BE USED
Info: RESTART FILENAME       mobley_9209581_equil.restart
Info: RESTART FREQUENCY      100000
Info: BINARY RESTART FILES WILL BE USED
Info: CUTOFF                 9
Info: PAIRLIST DISTANCE      11
Info: PAIRLIST SHRINK RATE   0.01
Info: PAIRLIST GROW RATE     0.01
Info: PAIRLIST TRIGGER       0.3
Info: PAIRLISTS PER CYCLE    2
Info: PAIRLISTS ENABLED
Info: MARGIN                 8
Info: HYDROGEN GROUP CUTOFF  2.5
Info: PATCH DIMENSION        21.5
Info: ENERGY OUTPUT STEPS    100000
Info: ENERGY EVALUATION STEPS    100000
Info: OUTPUT ENERGY PRECISION 4
Info: CROSSTERM ENERGY INCLUDED IN DIHEDRAL
Info: TIMING OUTPUT STEPS    1000000
Info: PRESSURE OUTPUT STEPS  100000
Info: FIXED ATOMS ACTIVE
Info: LANGEVIN DYNAMICS ACTIVE
Info: LANGEVIN TEMPERATURE   30
Info: LANGEVIN USING BBK INTEGRATOR
Info: LANGEVIN DAMPING COEFFICIENT IS 1 INVERSE PS
Info: LANGEVIN DYNAMICS APPLIED TO HYDROGENS
Info: LANGEVIN PISTON PRESSURE CONTROL ACTIVE
Info:        TARGET PRESSURE IS 1.01325 BAR
Info:     OSCILLATION PERIOD IS 50 FS
Info:             DECAY TIME IS 25 FS
Info:     PISTON TEMPERATURE IS 300 K
Info:       PRESSURE CONTROL IS GROUP-BASED
Info:    INITIAL STRAIN RATE IS 0 0 0
Info:       CELL FLUCTUATION IS ISOTROPIC
Info: PARTICLE MESH EWALD (PME) ACTIVE
Info: PME TOLERANCE               1e-06
Info: PME EWALD COEFFICIENT       0.348832
Info: PME INTERPOLATION ORDER     4
Info: PME GRID DIMENSIONS         36 36 36
Info: PME MAXIMUM GRID SPACING    1
Info: FULL ELECTROSTATIC EVALUATION FREQUENCY      2
Info: USING VERLET I (r-RESPA) MTS SCHEME.
Info: C1 SPLITTING OF LONG RANGE ELECTROSTATICS
Info: PLACING ATOMS IN PATCHES BY HYDROGEN GROUPS
Info: RIGID BONDS TO HYDROGEN : ALL
Info:         ERROR TOLERANCE : 1e-08
Info:          MAX ITERATIONS : 100
Info: RIGID WATER USING SETTLE ALGORITHM
Info: RANDOM NUMBER SEED     1742536518
Info: USE HYDROGEN BONDS?    NO
Info: Using AMBER format force field!
Info: AMBER PARM FILE        mobley_9209581.prmtop
Info: COORDINATE PDB         mobley_9209581.pdb
Info: Exclusions will be read from PARM file!
Info: SCNB (VDW SCALING)     2
Info: USING ARITHMETIC MEAN TO COMBINE L-J SIGMA PARAMETERS
Info: BINARY COORDINATES     mobley_9209581_min.coor
Info: SUMMARY OF PARAMETERS:
Info: 4 BONDS
Info: 3 ANGLES
Info:   3 HARMONIC
Info:   0 COSINE-BASED
Info: 1 DIHEDRAL
Info: 0 IMPROPER
Info: 0 CROSSTERM
Info: 0 VDW
Info: 15 VDW_PAIRS
Info: 0 NBTHOLE_PAIRS
Info: STRUCTURE SUMMARY:
Info: 2905 ATOMS
Info: 2904 BONDS
Info: 21 ANGLES
Info: 18 DIHEDRALS
Info: 0 IMPROPERS
Info: 0 CROSSTERMS
Info: 2943 EXCLUSIONS
Info: 13 FIXED ATOMS
Info: 2901 RIGID BONDS
Info: 9 RIGID BONDS BETWEEN FIXED ATOMS
Info: 5784 DEGREES OF FREEDOM
Info: 968 HYDROGEN GROUPS
Info: 4 ATOMS IN LARGEST HYDROGEN GROUP
Info: 968 MIGRATION GROUPS
Info: 4 ATOMS IN LARGEST MIGRATION GROUP
Info: 4 HYDROGEN GROUPS WITH ALL ATOMS FIXED
Info: TOTAL MASS = 17426.5 amu
Info: TOTAL CHARGE = 0.000399988 e
Info: MASS DENSITY = 0.649815 g/cm^3
Info: ATOM DENSITY = 0.0652327 atoms/A^3
Info: ADDED 0 IMPLICIT EXCLUSIONS
Info: NONBONDED TABLE R-SQUARED SPACING: 0.0625
Info: NONBONDED TABLE SIZE: 705 POINTS
Info: REMOVING COM VELOCITY -0.0412351 -0.0683464 0.00523651
TCL: Running for 100000 steps
ETITLE: TS BOND ANGLE DIHED IMPRP ELECT VDW BOUNDARY MISC KINETIC TOTAL TEMP POTENTIAL TOTAL3 TEMPAVG PRESSURE GPRESSURE VOLUME PRESSAVG GPRESSAVG
ENERGY: 0 0.0000 0.0000 0.0000 0.0000 -13498.1269 2398.2716 0.0000 0.0000 1740.1143 -9359.7410 302.7888 -11099.8553 -9359.4195 302.7888 652.2897 681.3801 44532.8762 652.2897 681.3801
ENERGY: 100000 0.0000 0.0000 0.0000 0.0000 -14070.5306 2422.5632 0.0000 0.0000 174.3333 -11473.6341 30.3349 -11647.9674 -11472.9338 30.8638 -265.6972 -199.0050 28326.2492 4.3982 4.5127
TCL: Running 100000 steps at 60 kelvin.
TCL: Setting parameter langevinTemp to 60
TCL: Running for 100000 steps
ETITLE: TS BOND ANGLE DIHED IMPRP ELECT VDW BOUNDARY MISC KINETIC TOTAL TEMP POTENTIAL TOTAL3 TEMPAVG PRESSURE GPRESSURE VOLUME PRESSAVG GPRESSAVG
ENERGY: 100000 0.0000 0.0000 0.0000 0.0000 -14070.5306 2422.5632 0.0000 0.0000 174.2468 -11473.7206 30.3198 -11647.9674 -11473.3545 30.3198 -245.6222 -198.8121 28326.2492 -245.6222 -198.8121
ENERGY: 200000 0.0000 0.0000 0.0000 0.0000 -14001.4642 2430.8336 0.0000 0.0000 343.7288 -11226.9018 59.8106 -11570.6306 -11226.4251 59.9182 181.7535 251.7121 28248.8727 5.6459 5.6334
TCL: Running 100000 steps at 90 kelvin.
TCL: Setting parameter langevinTemp to 90
TCL: Running for 100000 steps
ETITLE: TS BOND ANGLE DIHED IMPRP ELECT VDW BOUNDARY MISC KINETIC TOTAL TEMP POTENTIAL TOTAL3 TEMPAVG PRESSURE GPRESSURE VOLUME PRESSAVG GPRESSAVG
ENERGY: 200000 0.0000 0.0000 0.0000 0.0000 -14001.4642 2430.8336 0.0000 0.0000 343.5673 -11227.0633 59.7825 -11570.6306 -11226.4080 59.7825 195.4668 251.4070 28248.8727 195.4668 251.4070
ENERGY: 300000 0.0000 0.0000 0.0000 0.0000 -13674.8999 2213.9306 0.0000 0.0000 504.4807 -10956.4886 87.7822 -11460.9692 -10955.7262 90.0980 -1154.6400 -1144.8481 28323.8061 4.2263 4.2839
TCL: Running 100000 steps at 120 kelvin.
TCL: Setting parameter langevinTemp to 120
TCL: Running for 100000 steps
ETITLE: TS BOND ANGLE DIHED IMPRP ELECT VDW BOUNDARY MISC KINETIC TOTAL TEMP POTENTIAL TOTAL3 TEMPAVG PRESSURE GPRESSURE VOLUME PRESSAVG GPRESSAVG
ENERGY: 300000 0.0000 0.0000 0.0000 0.0000 -13674.8999 2213.9306 0.0000 0.0000 504.2341 -10956.7351 87.7393 -11460.9692 -10955.4986 87.7393 -1200.2038 -1145.5424 28323.8061 -1200.2038 -1145.5424
ENERGY: 400000 0.0000 0.0000 0.0000 0.0000 -13642.7479 2336.1338 0.0000 0.0000 705.0105 -10601.6036 122.6754 -11306.6141 -10599.1076 119.7958 303.4041 400.1773 28251.1221 3.0310 2.8071
TCL: Running 100000 steps at 150 kelvin.
TCL: Setting parameter langevinTemp to 150
TCL: Running for 100000 steps
ETITLE: TS BOND ANGLE DIHED IMPRP ELECT VDW BOUNDARY MISC KINETIC TOTAL TEMP POTENTIAL TOTAL3 TEMPAVG PRESSURE GPRESSURE VOLUME PRESSAVG GPRESSAVG
ENERGY: 400000 0.0000 0.0000 0.0000 0.0000 -13642.7479 2336.1338 0.0000 0.0000 704.6514 -10601.9626 122.6130 -11306.6141 -10600.4203 122.6130 346.5983 400.5041 28251.1221 346.5983 400.5041
ENERGY: 500000 0.0000 0.0000 0.0000 0.0000 -13238.9446 2077.6493 0.0000 0.0000 853.3114 -10307.9838 148.4806 -11161.2952 -10305.5343 150.0394 -1052.8782 -1032.7991 28218.7990 4.2366 4.1499
TCL: Running 100000 steps at 180 kelvin.
TCL: Setting parameter langevinTemp to 180
TCL: Running for 100000 steps
ETITLE: TS BOND ANGLE DIHED IMPRP ELECT VDW BOUNDARY MISC KINETIC TOTAL TEMP POTENTIAL TOTAL3 TEMPAVG PRESSURE GPRESSURE VOLUME PRESSAVG GPRESSAVG
ENERGY: 500000 0.0000 0.0000 0.0000 0.0000 -13238.9446 2077.6493 0.0000 0.0000 852.9098 -10308.3854 148.4107 -11161.2952 -10306.5020 148.4107 -1094.8755 -1032.8084 28218.7990 -1094.8755 -1032.8084
ENERGY: 600000 0.0000 0.0000 0.0000 0.0000 -13067.7460 2163.0645 0.0000 0.0000 1023.2597 -9881.4218 178.0524 -10904.6815 -9877.8318 179.9368 435.7114 497.7259 28250.7891 4.5688 4.5796
TCL: Running 100000 steps at 210 kelvin.
TCL: Setting parameter langevinTemp to 210
TCL: Running for 100000 steps
ETITLE: TS BOND ANGLE DIHED IMPRP ELECT VDW BOUNDARY MISC KINETIC TOTAL TEMP POTENTIAL TOTAL3 TEMPAVG PRESSURE GPRESSURE VOLUME PRESSAVG GPRESSAVG
ENERGY: 600000 0.0000 0.0000 0.0000 0.0000 -13067.7460 2163.0645 0.0000 0.0000 1022.7304 -9881.9511 177.9604 -10904.6815 -9880.3484 177.9604 434.2896 498.6939 28250.7891 434.2896 498.6939
ENERGY: 700000 0.0000 0.0000 0.0000 0.0000 -12286.6686 1878.5126 0.0000 0.0000 1206.6107 -9201.5452 209.9565 -10408.1560 -9197.4739 209.7191 -108.2369 22.1817 28539.8223 3.9383 3.9399
TCL: Running 100000 steps at 240 kelvin.
TCL: Setting parameter langevinTemp to 240
TCL: Running for 100000 steps
ETITLE: TS BOND ANGLE DIHED IMPRP ELECT VDW BOUNDARY MISC KINETIC TOTAL TEMP POTENTIAL TOTAL3 TEMPAVG PRESSURE GPRESSURE VOLUME PRESSAVG GPRESSAVG
ENERGY: 700000 0.0000 0.0000 0.0000 0.0000 -12286.6686 1878.5126 0.0000 0.0000 1206.0161 -9202.1399 209.8530 -10408.1560 -9200.2327 209.8530 -48.8149 22.9993 28539.8223 -48.8149 22.9993
ENERGY: 800000 0.0000 0.0000 0.0000 0.0000 -11702.2516 1712.0363 0.0000 0.0000 1351.0510 -8639.1643 235.0898 -9990.2153 -8634.9202 239.7092 37.3353 128.6640 28463.6517 3.6229 3.4774
TCL: Running 100000 steps at 270 kelvin.
TCL: Setting parameter langevinTemp to 270
TCL: Running for 100000 steps
ETITLE: TS BOND ANGLE DIHED IMPRP ELECT VDW BOUNDARY MISC KINETIC TOTAL TEMP POTENTIAL TOTAL3 TEMPAVG PRESSURE GPRESSURE VOLUME PRESSAVG GPRESSAVG
ENERGY: 800000 0.0000 0.0000 0.0000 0.0000 -11702.2516 1712.0363 0.0000 0.0000 1350.3579 -8639.8574 234.9692 -9990.2153 -8638.0597 234.9692 39.0772 131.0005 28463.6517 39.0772 131.0005
ENERGY: 900000 0.0000 0.0000 0.0000 0.0000 -11112.5715 1586.1563 0.0000 0.0000 1564.8542 -7961.5611 272.2927 -9526.4153 -7957.7480 270.1961 231.3642 339.6995 29369.2313 3.7281 3.5875
TCL: Running 1000000 steps at 300 kelvin.
TCL: Setting parameter langevinTemp to 300
TCL: Running for 1000000 steps
ETITLE: TS BOND ANGLE DIHED IMPRP ELECT VDW BOUNDARY MISC KINETIC TOTAL TEMP POTENTIAL TOTAL3 TEMPAVG PRESSURE GPRESSURE VOLUME PRESSAVG GPRESSAVG
ENERGY: 900000 0.0000 0.0000 0.0000 0.0000 -11112.5715 1586.1563 0.0000 0.0000 1564.0885 -7962.3267 272.1595 -9526.4153 -7960.3650 272.1595 255.9557 340.3723 29369.2313 255.9557 340.3723
ENERGY: 1100000 0.0000 0.0000 0.0000 0.0000 -10577.4103 1427.8603 0.0000 0.0000 1715.4567 -7434.0933 298.4983 -9149.5500 -7430.3170 300.7903 2.0259 88.6812 29981.5778 3.1464 3.0027
ENERGY: 1300000 0.0000 0.0000 0.0000 0.0000 -10567.7178 1399.3418 0.0000 0.0000 1712.4446 -7455.9315 297.9742 -9168.3760 -7453.6677 299.9031 -215.2879 -133.6708 30064.6324 2.8847 2.9321
ENERGY: 1500000 0.0000 0.0000 0.0000 0.0000 -10634.0784 1444.7201 0.0000 0.0000 1744.3389 -7445.0193 303.5240 -9189.3583 -7442.5013 300.2148 -197.6451 -79.6253 30569.3668 3.7526 3.6381
ENERGY: 1700000 0.0000 0.0000 0.0000 0.0000 -10566.8586 1391.5671 0.0000 0.0000 1696.6806 -7478.6109 295.2312 -9175.2915 -7473.7048 299.6675 -245.6429 -194.4305 29910.3940 1.9588 1.7919
ENERGY: 1900000 0.0000 0.0000 0.0000 0.0000 -10616.6111 1373.3111 0.0000 0.0000 1712.0067 -7531.2933 297.8980 -9243.3000 -7527.6677 300.1575 -716.7615 -641.6390 30082.2560 2.9860 3.0925
TCL: Exiting due to exit command.
