Info: SIMULATION PARAMETERS:
Info: TIMESTEP               2
Info: NUMBER OF STEPS        0
Info: STEPS PER CYCLE        10
Info: PERIODIC CELL BASIS 1  36.005 0 0
Info: PERIODIC CELL BASIS 2  0 36.451 0
Info: PERIODIC CELL BASIS 3  0 0 34.229
Info: PERIODIC CELL CENTER   0 0 0
Info: WRAPPING WATERS AROUND PERIODIC BOUNDARIES ON OUTPUT.
Info: WRAPPING ALL CLUSTERS AROUND PERIODIC BOUNDARIES ON OUTPUT.
Info: FIRST LDB TIMESTEP     50
Info: LAST LDB TIMESTEP     -1
Info: HOM BACKGROUND SCALING 1
Info: PME BACKGROUND SCALING 1
Info: MIN ATOMS PER PATCH    40
Info: EMPTY PATCH LOAD       40 ATOMS
Info: INITIAL TEMPERATURE    300
Info: CENTER OF MASS MOVING INITIALLY? NO
Info: DIELECTRIC             1
Info: EXCLUDE                SCALED ONE-FOUR
Info: 1-4 ELECTROSTATICS SCALED BY 0.833333
Info: MODIFIED 1-4 VDW PARAMETERS WILL BE USED
Info: DCD FILENAME           mobley_6474572_equil.dcd
Info: DCD FREQUENCY          100000
Info: DCD FIRST STEP         100000
Info: DCD FILE WILL CONTAIN UNIT CELL DATA
Info: XST FILENAME           mobley_6474572_equil.xst
Info: XST FREQUENCY          100000
Info: NO VELOCITY DCD OUTPUT
Info: NO FORCE DCD OUTPUT
Info: OUTPUT FILENAME        mobley_6474572_equil
Info: BINARY OUTPUT FILES WILL BE USED
Info: RESTART FILENAME       mobley_6474572_equil.restart
Info: RESTART FREQUENCY      100000
Info: BINARY RESTART FILES WILL BE USED
Info: CUTOFF                 9
Info: PAIRLIST DISTANCE      11
Info: PAIRLIST SHRINK RATE   0.01
Info: PAIRLIST GROW RATE     0.01
Info: PAIRLIST TRIGGER       0.3
Info: PAIRLISTS PER CYCLE    2
Info: PAIRLISTS ENABLED
Info: MARGIN                 8
Info: HYDROGEN GROUP CUTOFF  2.5
Info: PATCH DIMENSION        21.5
Info: ENERGY OUTPUT STEPS    100000
Info: ENERGY EVALUATION STEPS    100000
Info: OUTPUT ENERGY PRECISION 4
Info: CROSSTERM ENERGY INCLUDED IN DIHEDRAL
Info: TIMING OUTPUT STEPS    1000000
Info: PRESSURE OUTPUT STEPS  100000
Info: LANGEVIN DYNAMICS ACTIVE
Info: LANGEVIN TEMPERATURE   30
Info: LANGEVIN USING BBK INTEGRATOR
Info: LANGEVIN DAMPING COEFFICIENT IS 1 INVERSE PS
Info: LANGEVIN DYNAMICS APPLIED TO HYDROGENS
Info: LANGEVIN PISTON PRESSURE CONTROL ACTIVE
Info:        TARGET PRESSURE IS 1.01325 BAR
Info:     OSCILLATION PERIOD IS 50 FS
Info:             DECAY TIME IS 25 FS
Info:     PISTON TEMPERATURE IS 300 K
Info:       PRESSURE CONTROL IS GROUP-BASED
Info:    INITIAL STRAIN RATE IS 0 0 0
Info:       CELL FLUCTUATION IS ISOTROPIC
Info: PARTICLE MESH EWALD (PME) ACTIVE
Info: PME TOLERANCE               1e-06
Info: PME EWALD COEFFICIENT       0.348832
Info: PME INTERPOLATION ORDER     4
Info: PME GRID DIMENSIONS         40 40 36
Info: PME MAXIMUM GRID SPACING    1
Info: FULL ELECTROSTATIC EVALUATION FREQUENCY      2
Info: USING VERLET I (r-RESPA) MTS SCHEME.
Info: C1 SPLITTING OF LONG RANGE ELECTROSTATICS
Info: PLACING ATOMS IN PATCHES BY HYDROGEN GROUPS
Info: RIGID BONDS TO HYDROGEN : ALL
Info:         ERROR TOLERANCE : 1e-08
Info:          MAX ITERATIONS : 100
Info: RIGID WATER USING SETTLE ALGORITHM
Info: RANDOM NUMBER SEED     1742444907
Info: USE HYDROGEN BONDS?    NO
Info: Using AMBER format force field!
Info: AMBER PARM FILE        mobley_6474572.prmtop
Info: COORDINATE PDB         mobley_6474572.pdb
Info: Exclusions will be read from PARM file!
Info: SCNB (VDW SCALING)     2
Info: USING ARITHMETIC MEAN TO COMBINE L-J SIGMA PARAMETERS
Info: BINARY COORDINATES     mobley_6474572_min.coor
Info: SUMMARY OF PARAMETERS:
Info: 6 BONDS
Info: 5 ANGLES
Info:   5 HARMONIC
Info:   0 COSINE-BASED
Info: 1 DIHEDRAL
Info: 0 IMPROPER
Info: 0 CROSSTERM
Info: 0 VDW
Info: 21 VDW_PAIRS
Info: 0 NBTHOLE_PAIRS
Info: STRUCTURE SUMMARY:
Info: 2922 ATOMS
Info: 2921 BONDS
Info: 6 ANGLES
Info: 4 DIHEDRALS
Info: 0 IMPROPERS
Info: 0 CROSSTERMS
Info: 2931 EXCLUSIONS
Info: 2919 RIGID BONDS
Info: 5847 DEGREES OF FREEDOM
Info: 975 HYDROGEN GROUPS
Info: 3 ATOMS IN LARGEST HYDROGEN GROUP
Info: 975 MIGRATION GROUPS
Info: 3 ATOMS IN LARGEST MIGRATION GROUP
Info: TOTAL MASS = 17574 amu
Info: TOTAL CHARGE = 1.49012e-08 e
Info: MASS DENSITY = 0.649628 g/cm^3
Info: ATOM DENSITY = 0.065045 atoms/A^3
Info: ADDED 0 IMPLICIT EXCLUSIONS
Info: NONBONDED TABLE R-SQUARED SPACING: 0.0625
Info: NONBONDED TABLE SIZE: 705 POINTS
Info: REMOVING COM VELOCITY -0.107875 -0.0323245 0.0258649
TCL: Running for 100000 steps
ETITLE: TS BOND ANGLE DIHED IMPRP ELECT VDW BOUNDARY MISC KINETIC TOTAL TEMP POTENTIAL TOTAL3 TEMPAVG PRESSURE GPRESSURE VOLUME PRESSAVG GPRESSAVG
ENERGY: 0 0.0010 0.0376 0.0050 0.0000 -13536.9211 2406.2373 0.0000 0.0000 1696.5756 -9434.0646 292.0320 -11130.6402 -9433.7280 292.0320 600.9032 633.6220 44922.7645 600.9032 633.6220
ENERGY: 100000 0.1771 0.1902 0.0094 0.0000 -14015.9458 2398.8648 0.0000 0.0000 173.5519 -11443.1523 29.8735 -11616.7042 -11442.7069 30.8910 -366.4628 -307.7003 28789.4670 3.4736 3.5020
TCL: Running 100000 steps at 60 kelvin.
TCL: Setting parameter langevinTemp to 60
TCL: Running for 100000 steps
ETITLE: TS BOND ANGLE DIHED IMPRP ELECT VDW BOUNDARY MISC KINETIC TOTAL TEMP POTENTIAL TOTAL3 TEMPAVG PRESSURE GPRESSURE VOLUME PRESSAVG GPRESSAVG
ENERGY: 100000 0.1771 0.1902 0.0094 0.0000 -14015.9458 2398.8648 0.0000 0.0000 173.4613 -11443.2429 29.8580 -11616.7042 -11442.8166 29.8580 -356.6139 -307.6772 28789.4670 -356.6139 -307.6772
ENERGY: 200000 0.1877 0.5907 0.0639 0.0000 -14079.6953 2513.8289 0.0000 0.0000 345.3694 -11219.6548 59.4485 -11565.0242 -11218.5419 60.1172 1006.3759 1081.4950 28211.9801 4.3219 4.2678
TCL: Running 100000 steps at 90 kelvin.
TCL: Setting parameter langevinTemp to 90
TCL: Running for 100000 steps
ETITLE: TS BOND ANGLE DIHED IMPRP ELECT VDW BOUNDARY MISC KINETIC TOTAL TEMP POTENTIAL TOTAL3 TEMPAVG PRESSURE GPRESSURE VOLUME PRESSAVG GPRESSAVG
ENERGY: 200000 0.1877 0.5907 0.0639 0.0000 -14079.6953 2513.8289 0.0000 0.0000 345.1914 -11219.8328 59.4179 -11565.0242 -11219.3268 59.4179 1031.0137 1081.2895 28211.9801 1031.0137 1081.2895
ENERGY: 300000 0.1406 0.4566 0.2860 0.0000 -13924.4356 2423.0226 0.0000 0.0000 540.7227 -10959.8072 93.0748 -11500.5299 -10958.1573 90.2945 537.1778 571.1714 28102.9688 4.1247 4.0924
TCL: Running 100000 steps at 120 kelvin.
TCL: Setting parameter langevinTemp to 120
TCL: Running for 100000 steps
ETITLE: TS BOND ANGLE DIHED IMPRP ELECT VDW BOUNDARY MISC KINETIC TOTAL TEMP POTENTIAL TOTAL3 TEMPAVG PRESSURE GPRESSURE VOLUME PRESSAVG GPRESSAVG
ENERGY: 300000 0.1406 0.4566 0.2860 0.0000 -13924.4356 2423.0226 0.0000 0.0000 540.4512 -10960.0787 93.0280 -11500.5299 -10959.1977 93.0280 513.2350 571.1735 28102.9688 513.2350 571.1735
ENERGY: 400000 0.1377 0.3469 0.5925 0.0000 -13597.5532 2254.8675 0.0000 0.0000 703.0350 -10638.5736 121.0136 -11341.6085 -10636.9493 120.2358 -321.7251 -258.2066 28222.4879 3.2492 3.2474
TCL: Running 100000 steps at 150 kelvin.
TCL: Setting parameter langevinTemp to 150
TCL: Running for 100000 steps
ETITLE: TS BOND ANGLE DIHED IMPRP ELECT VDW BOUNDARY MISC KINETIC TOTAL TEMP POTENTIAL TOTAL3 TEMPAVG PRESSURE GPRESSURE VOLUME PRESSAVG GPRESSAVG
ENERGY: 400000 0.1377 0.3469 0.5925 0.0000 -13597.5532 2254.8675 0.0000 0.0000 702.6762 -10638.9323 120.9519 -11341.6085 -10637.2789 120.9519 -294.0160 -257.6722 28222.4879 -294.0160 -257.6722
ENERGY: 500000 0.4659 0.2276 0.6842 0.0000 -13511.3872 2306.8502 0.0000 0.0000 866.4788 -10336.6806 149.1472 -11203.1594 -10335.4327 150.0172 534.0750 576.4205 28552.5497 4.8848 4.9991
TCL: Running 100000 steps at 180 kelvin.
TCL: Setting parameter langevinTemp to 180
TCL: Running for 100000 steps
ETITLE: TS BOND ANGLE DIHED IMPRP ELECT VDW BOUNDARY MISC KINETIC TOTAL TEMP POTENTIAL TOTAL3 TEMPAVG PRESSURE GPRESSURE VOLUME PRESSAVG GPRESSAVG
ENERGY: 500000 0.4659 0.2276 0.6842 0.0000 -13511.3872 2306.8502 0.0000 0.0000 866.0395 -10337.1199 149.0716 -11203.1594 -10335.6098 149.0716 526.9058 576.1213 28552.5497 526.9058 576.1213
ENERGY: 600000 0.2302 0.7174 1.5409 0.0000 -13083.2033 2131.3662 0.0000 0.0000 1039.0426 -9910.3060 178.8507 -10949.3486 -9908.2250 180.1631 165.1668 159.2695 28662.7640 3.2891 3.3330
TCL: Running 100000 steps at 210 kelvin.
TCL: Setting parameter langevinTemp to 210
TCL: Running for 100000 steps
ETITLE: TS BOND ANGLE DIHED IMPRP ELECT VDW BOUNDARY MISC KINETIC TOTAL TEMP POTENTIAL TOTAL3 TEMPAVG PRESSURE GPRESSURE VOLUME PRESSAVG GPRESSAVG
ENERGY: 600000 0.2302 0.7174 1.5409 0.0000 -13083.2033 2131.3662 0.0000 0.0000 1038.5429 -9910.8057 178.7647 -10949.3486 -9909.0537 178.7647 109.2638 160.6557 28662.7640 109.2638 160.6557
ENERGY: 700000 0.0513 0.5870 1.3698 0.0000 -12293.6863 1829.3442 0.0000 0.0000 1212.1112 -9250.2228 208.6410 -10462.3340 -9245.6782 209.7689 -520.9847 -414.0858 28513.2420 2.6115 2.5646
TCL: Running 100000 steps at 240 kelvin.
TCL: Setting parameter langevinTemp to 240
TCL: Running for 100000 steps
ETITLE: TS BOND ANGLE DIHED IMPRP ELECT VDW BOUNDARY MISC KINETIC TOTAL TEMP POTENTIAL TOTAL3 TEMPAVG PRESSURE GPRESSURE VOLUME PRESSAVG GPRESSAVG
ENERGY: 700000 0.0513 0.5870 1.3698 0.0000 -12293.6863 1829.3442 0.0000 0.0000 1211.4872 -9250.8468 208.5336 -10462.3340 -9248.2280 208.5336 -496.1779 -413.8007 28513.2420 -496.1779 -413.8007
ENERGY: 800000 0.2667 0.9318 1.1455 0.0000 -11651.0887 1649.3928 0.0000 0.0000 1377.6979 -8621.6540 237.1435 -9999.3519 -8619.3420 240.0743 -526.5769 -455.9980 28907.3845 2.5329 2.4899
TCL: Running 100000 steps at 270 kelvin.
TCL: Setting parameter langevinTemp to 270
TCL: Running for 100000 steps
ETITLE: TS BOND ANGLE DIHED IMPRP ELECT VDW BOUNDARY MISC KINETIC TOTAL TEMP POTENTIAL TOTAL3 TEMPAVG PRESSURE GPRESSURE VOLUME PRESSAVG GPRESSAVG
ENERGY: 800000 0.2667 0.9318 1.1455 0.0000 -11651.0887 1649.3928 0.0000 0.0000 1376.9841 -8622.3678 237.0207 -9999.3519 -8619.6154 237.0207 -558.6258 -456.1343 28907.3845 -558.6258 -456.1343
ENERGY: 900000 0.1367 0.8769 0.2952 0.0000 -11120.1246 1574.3806 0.0000 0.0000 1580.2333 -7964.2019 272.0060 -9544.4353 -7960.8305 269.5804 29.2253 65.5110 29904.0693 2.8148 2.9635
TCL: Running 1000000 steps at 300 kelvin.
TCL: Setting parameter langevinTemp to 300
TCL: Running for 1000000 steps
ETITLE: TS BOND ANGLE DIHED IMPRP ELECT VDW BOUNDARY MISC KINETIC TOTAL TEMP POTENTIAL TOTAL3 TEMPAVG PRESSURE GPRESSURE VOLUME PRESSAVG GPRESSAVG
ENERGY: 900000 0.1367 0.8769 0.2952 0.0000 -11120.1246 1574.3806 0.0000 0.0000 1579.4439 -7964.9914 271.8701 -9544.4353 -7963.6924 271.8701 -5.6255 67.1060 29904.0693 -5.6255 67.1060
ENERGY: 1100000 0.0533 0.8209 0.7261 0.0000 -10519.2910 1377.3047 0.0000 0.0000 1652.7695 -7487.6164 284.4917 -9140.3860 -7483.0233 300.0227 -536.6509 -516.9169 30764.9848 4.6915 4.9046
ENERGY: 1300000 0.0413 1.9375 1.3123 0.0000 -10538.4587 1363.4010 0.0000 0.0000 1759.8161 -7411.9504 302.9177 -9171.7665 -7409.2760 300.3112 -706.8798 -603.8142 30520.6211 3.7294 3.7837
ENERGY: 1500000 0.6111 0.9825 2.1078 0.0000 -10607.9773 1376.6503 0.0000 0.0000 1740.2609 -7487.3648 299.5516 -9227.6257 -7484.1944 299.5769 -806.9132 -734.3232 30759.2123 3.8683 3.7544
ENERGY: 1700000 1.7383 1.1627 0.1785 0.0000 -10567.6410 1355.9532 0.0000 0.0000 1754.0190 -7454.5894 301.9198 -9208.6083 -7452.4965 300.0119 -868.5973 -770.6656 30175.2443 2.4724 2.2989
ENERGY: 1900000 0.8968 0.7782 0.9336 0.0000 -10644.3576 1475.7373 0.0000 0.0000 1775.8818 -7390.1299 305.6830 -9166.0116 -7386.5626 299.8866 298.6264 348.4619 30337.5124 3.8955 3.4971
TCL: Exiting due to exit command.
