Info: SIMULATION PARAMETERS:
Info: TIMESTEP               2
Info: NUMBER OF STEPS        0
Info: STEPS PER CYCLE        10
Info: PERIODIC CELL BASIS 1  40.176 0 0
Info: PERIODIC CELL BASIS 2  0 38.88 0
Info: PERIODIC CELL BASIS 3  0 0 42.009
Info: PERIODIC CELL CENTER   0 0 0
Info: WRAPPING WATERS AROUND PERIODIC BOUNDARIES ON OUTPUT.
Info: WRAPPING ALL CLUSTERS AROUND PERIODIC BOUNDARIES ON OUTPUT.
Info: FIRST LDB TIMESTEP     50
Info: LAST LDB TIMESTEP     -1
Info: HOM BACKGROUND SCALING 1
Info: PME BACKGROUND SCALING 1
Info: MIN ATOMS PER PATCH    40
Info: EMPTY PATCH LOAD       40 ATOMS
Info: INITIAL TEMPERATURE    300
Info: CENTER OF MASS MOVING INITIALLY? NO
Info: DIELECTRIC             1
Info: EXCLUDE                SCALED ONE-FOUR
Info: 1-4 ELECTROSTATICS SCALED BY 0.833333
Info: MODIFIED 1-4 VDW PARAMETERS WILL BE USED
Info: DCD FILENAME           mobley_8691603_min.dcd
Info: DCD FREQUENCY          5000
Info: DCD FIRST STEP         5000
Info: DCD FILE WILL CONTAIN UNIT CELL DATA
Info: XST FILENAME           mobley_8691603_min.xst
Info: XST FREQUENCY          5000
Info: NO VELOCITY DCD OUTPUT
Info: NO FORCE DCD OUTPUT
Info: OUTPUT FILENAME        mobley_8691603_min
Info: BINARY OUTPUT FILES WILL BE USED
Info: RESTART FILENAME       mobley_8691603_min.restart
Info: RESTART FREQUENCY      5000
Info: BINARY RESTART FILES WILL BE USED
Info: CUTOFF                 9
Info: PAIRLIST DISTANCE      11
Info: PAIRLIST SHRINK RATE   0.01
Info: PAIRLIST GROW RATE     0.01
Info: PAIRLIST TRIGGER       0.3
Info: PAIRLISTS PER CYCLE    2
Info: PAIRLISTS ENABLED
Info: MARGIN                 8
Info: HYDROGEN GROUP CUTOFF  2.5
Info: PATCH DIMENSION        21.5
Info: ENERGY OUTPUT STEPS    5000
Info: ENERGY EVALUATION STEPS    5000
Info: OUTPUT ENERGY PRECISION 4
Info: CROSSTERM ENERGY INCLUDED IN DIHEDRAL
Info: TIMING OUTPUT STEPS    50000
Info: PRESSURE OUTPUT STEPS  5000
Info: LANGEVIN DYNAMICS ACTIVE
Info: LANGEVIN TEMPERATURE   300
Info: LANGEVIN USING BBK INTEGRATOR
Info: LANGEVIN DAMPING COEFFICIENT IS 1 INVERSE PS
Info: LANGEVIN DYNAMICS APPLIED TO HYDROGENS
Info: LANGEVIN PISTON PRESSURE CONTROL ACTIVE
Info:        TARGET PRESSURE IS 1.01325 BAR
Info:     OSCILLATION PERIOD IS 50 FS
Info:             DECAY TIME IS 25 FS
Info:     PISTON TEMPERATURE IS 300 K
Info:       PRESSURE CONTROL IS GROUP-BASED
Info:    INITIAL STRAIN RATE IS 0 0 0
Info:       CELL FLUCTUATION IS ISOTROPIC
Info: PARTICLE MESH EWALD (PME) ACTIVE
Info: PME TOLERANCE               1e-06
Info: PME EWALD COEFFICIENT       0.348832
Info: PME INTERPOLATION ORDER     4
Info: PME GRID DIMENSIONS         44 40 44
Info: PME MAXIMUM GRID SPACING    1
Info: FULL ELECTROSTATIC EVALUATION FREQUENCY      2
Info: USING VERLET I (r-RESPA) MTS SCHEME.
Info: C1 SPLITTING OF LONG RANGE ELECTROSTATICS
Info: PLACING ATOMS IN PATCHES BY HYDROGEN GROUPS
Info: RIGID BONDS TO HYDROGEN : ALL
Info:         ERROR TOLERANCE : 1e-08
Info:          MAX ITERATIONS : 100
Info: RIGID WATER USING SETTLE ALGORITHM
Info: RANDOM NUMBER SEED     1741397573
Info: USE HYDROGEN BONDS?    NO
Info: Using AMBER format force field!
Info: AMBER PARM FILE        mobley_8691603.prmtop
Info: COORDINATE PDB         mobley_8691603.pdb
Info: Exclusions will be read from PARM file!
Info: SCNB (VDW SCALING)     2
Info: USING ARITHMETIC MEAN TO COMBINE L-J SIGMA PARAMETERS
Info: SUMMARY OF PARAMETERS:
Info: 8 BONDS
Info: 7 ANGLES
Info:   7 HARMONIC
Info:   0 COSINE-BASED
Info: 4 DIHEDRAL
Info: 0 IMPROPER
Info: 0 CROSSTERM
Info: 0 VDW
Info: 36 VDW_PAIRS
Info: 0 NBTHOLE_PAIRS
Info: STRUCTURE SUMMARY:
Info: 4714 ATOMS
Info: 4714 BONDS
Info: 25 ANGLES
Info: 37 DIHEDRALS
Info: 0 IMPROPERS
Info: 0 CROSSTERMS
Info: 4768 EXCLUSIONS
Info: 4706 RIGID BONDS
Info: 9436 DEGREES OF FREEDOM
Info: 1574 HYDROGEN GROUPS
Info: 4 ATOMS IN LARGEST HYDROGEN GROUP
Info: 1574 MIGRATION GROUPS
Info: 4 ATOMS IN LARGEST MIGRATION GROUP
Info: TOTAL MASS = 28321.2 amu
Info: TOTAL CHARGE = -3.35276e-08 e
Info: MASS DENSITY = 0.716697 g/cm^3
Info: ATOM DENSITY = 0.071838 atoms/A^3
Info: ADDED 0 IMPLICIT EXCLUSIONS
Info: NONBONDED TABLE R-SQUARED SPACING: 0.0625
Info: NONBONDED TABLE SIZE: 705 POINTS
Info: REMOVING COM VELOCITY 0.0415346 0.201182 -0.00522516
TCL: Minimizing for 2000 steps
ETITLE: TS BOND ANGLE DIHED IMPRP ELECT VDW BOUNDARY MISC KINETIC TOTAL TEMP POTENTIAL TOTAL3 TEMPAVG PRESSURE GPRESSURE VOLUME PRESSAVG GPRESSAVG
ENERGY: 0 0.1643 0.1360 0.0000 0.0000 -14734.9868 1700.9885 0.0000 0.0000 0.0000 -13033.6979 0.0000 -13033.6979 -13033.6979 0.0000 11236.9686 -15603.2286 65619.8593 11236.9686 -15603.2286
ENERGY: 400 2.4710 1.0630 0.0904 0.0000 -19686.5511 2829.6943 0.0000 0.0000 0.0000 -16853.2323 0.0000 -16853.2323 -16853.2323 0.0000 15465.6997 15617.5995 65619.8593 15465.6997 15617.5995
ENERGY: 800 21.4203 7.1185 0.5104 0.0000 -20847.2935 3399.1484 0.0000 0.0000 0.0000 -17419.0959 0.0000 -17419.0959 -17419.0959 0.0000 18166.4034 18301.2410 65619.8593 18166.4034 18301.2410
ENERGY: 1200 0.4283 0.2627 0.0402 0.0000 -21194.3656 3519.3794 0.0000 0.0000 0.0000 -17674.2550 0.0000 -17674.2550 -17674.2550 0.0000 18778.3303 18894.5132 65619.8593 18778.3303 18894.5132
ENERGY: 1600 0.3863 0.2222 0.1407 0.0000 -21382.4412 3597.4162 0.0000 0.0000 0.0000 -17784.2759 0.0000 -17784.2759 -17784.2759 0.0000 19217.4720 19332.9761 65619.8593 19217.4720 19332.9761
ENERGY: 2000 1.1438 0.4229 0.0985 0.0000 -21530.0568 3670.7707 0.0000 0.0000 0.0000 -17857.6209 0.0000 -17857.6209 -17857.6209 0.0000 19608.6336 19725.5006 65619.8593 19608.6336 19725.5006
TCL: Exiting due to exit command.
Info: NAMD 3.0.1 for Linux-x86_64-multicore
Info: Please visit http://www.ks.uiuc.edu/Research/namd/
Info: for updates, documentation, and support information.
Info: Please cite Phillips et al., J. Chem. Phys. 153:044130 (2020) doi:10.1063/5.0014475
Info: in all publications reporting results obtained with NAMD.
Info: Based on Charm++/Converse 80000 for multicore-linux-x86_64-gcc
Info: Built Mon Oct 14 11:11:06 CDT 2024 by dhardy on athine.ks.uiuc.edu
Info: 1 NAMD  3.0.1  Linux-x86_64-multicore  16    k065  z5358697
Info: Running on 16 processors, 1 nodes, 1 physical nodes.
Info: CPU topology information available.
Info: Charm++/Converse parallel runtime startup completed at 0.0094289 s
Info: 1043.46 MB of memory in use based on /proc/self/stat
Info: Configuration file is mobley_8691603_equil.namd
Info: Working in the current directory /srv/scratch/z5358697/prod_prep_11/8691603
TCL: Running 25000 steps at 30 kelvin.
TCL: Suspending until startup complete.
Info: SIMULATION PARAMETERS:
Info: TIMESTEP               2
Info: NUMBER OF STEPS        0
Info: STEPS PER CYCLE        10
Info: PERIODIC CELL BASIS 1  40.176 0 0
Info: PERIODIC CELL BASIS 2  0 38.88 0
Info: PERIODIC CELL BASIS 3  0 0 42.009
Info: PERIODIC CELL CENTER   0 0 0
Info: WRAPPING WATERS AROUND PERIODIC BOUNDARIES ON OUTPUT.
Info: WRAPPING ALL CLUSTERS AROUND PERIODIC BOUNDARIES ON OUTPUT.
Info: FIRST LDB TIMESTEP     50
Info: LAST LDB TIMESTEP     -1
Info: HOM BACKGROUND SCALING 1
Info: PME BACKGROUND SCALING 1
Info: MIN ATOMS PER PATCH    40
Info: EMPTY PATCH LOAD       40 ATOMS
Info: INITIAL TEMPERATURE    300
Info: CENTER OF MASS MOVING INITIALLY? NO
Info: DIELECTRIC             1
Info: EXCLUDE                SCALED ONE-FOUR
Info: 1-4 ELECTROSTATICS SCALED BY 0.833333
Info: MODIFIED 1-4 VDW PARAMETERS WILL BE USED
Info: DCD FILENAME           mobley_8691603_equil.dcd
Info: DCD FREQUENCY          5000
Info: DCD FIRST STEP         5000
Info: DCD FILE WILL CONTAIN UNIT CELL DATA
Info: XST FILENAME           mobley_8691603_equil.xst
Info: XST FREQUENCY          5000
Info: NO VELOCITY DCD OUTPUT
Info: NO FORCE DCD OUTPUT
Info: OUTPUT FILENAME        mobley_8691603_equil
Info: BINARY OUTPUT FILES WILL BE USED
Info: RESTART FILENAME       mobley_8691603_equil.restart
Info: RESTART FREQUENCY      5000
Info: BINARY RESTART FILES WILL BE USED
Info: CUTOFF                 9
Info: PAIRLIST DISTANCE      11
Info: PAIRLIST SHRINK RATE   0.01
Info: PAIRLIST GROW RATE     0.01
Info: PAIRLIST TRIGGER       0.3
Info: PAIRLISTS PER CYCLE    2
Info: PAIRLISTS ENABLED
Info: MARGIN                 8
Info: HYDROGEN GROUP CUTOFF  2.5
Info: PATCH DIMENSION        21.5
Info: ENERGY OUTPUT STEPS    5000
Info: ENERGY EVALUATION STEPS    5000
Info: OUTPUT ENERGY PRECISION 4
Info: CROSSTERM ENERGY INCLUDED IN DIHEDRAL
Info: TIMING OUTPUT STEPS    50000
Info: PRESSURE OUTPUT STEPS  5000
Info: LANGEVIN DYNAMICS ACTIVE
Info: LANGEVIN TEMPERATURE   30
Info: LANGEVIN USING BBK INTEGRATOR
Info: LANGEVIN DAMPING COEFFICIENT IS 1 INVERSE PS
Info: LANGEVIN DYNAMICS APPLIED TO HYDROGENS
Info: LANGEVIN PISTON PRESSURE CONTROL ACTIVE
Info:        TARGET PRESSURE IS 1.01325 BAR
Info:     OSCILLATION PERIOD IS 50 FS
Info:             DECAY TIME IS 25 FS
Info:     PISTON TEMPERATURE IS 300 K
Info:       PRESSURE CONTROL IS GROUP-BASED
Info:    INITIAL STRAIN RATE IS 0 0 0
Info:       CELL FLUCTUATION IS ISOTROPIC
Info: PARTICLE MESH EWALD (PME) ACTIVE
Info: PME TOLERANCE               1e-06
Info: PME EWALD COEFFICIENT       0.348832
Info: PME INTERPOLATION ORDER     4
Info: PME GRID DIMENSIONS         44 40 44
Info: PME MAXIMUM GRID SPACING    1
Info: FULL ELECTROSTATIC EVALUATION FREQUENCY      2
Info: USING VERLET I (r-RESPA) MTS SCHEME.
Info: C1 SPLITTING OF LONG RANGE ELECTROSTATICS
Info: PLACING ATOMS IN PATCHES BY HYDROGEN GROUPS
Info: RIGID BONDS TO HYDROGEN : ALL
Info:         ERROR TOLERANCE : 1e-08
Info:          MAX ITERATIONS : 100
Info: RIGID WATER USING SETTLE ALGORITHM
Info: RANDOM NUMBER SEED     1741397589
Info: USE HYDROGEN BONDS?    NO
Info: Using AMBER format force field!
Info: AMBER PARM FILE        mobley_8691603.prmtop
Info: COORDINATE PDB         mobley_8691603.pdb
Info: Exclusions will be read from PARM file!
Info: SCNB (VDW SCALING)     2
Info: USING ARITHMETIC MEAN TO COMBINE L-J SIGMA PARAMETERS
Info: BINARY COORDINATES     mobley_8691603_min.coor
Info: SUMMARY OF PARAMETERS:
Info: 8 BONDS
Info: 7 ANGLES
Info:   7 HARMONIC
Info:   0 COSINE-BASED
Info: 4 DIHEDRAL
Info: 0 IMPROPER
Info: 0 CROSSTERM
Info: 0 VDW
Info: 36 VDW_PAIRS
Info: 0 NBTHOLE_PAIRS
Info: STRUCTURE SUMMARY:
Info: 4714 ATOMS
Info: 4714 BONDS
Info: 25 ANGLES
Info: 37 DIHEDRALS
Info: 0 IMPROPERS
Info: 0 CROSSTERMS
Info: 4768 EXCLUSIONS
Info: 4706 RIGID BONDS
Info: 9436 DEGREES OF FREEDOM
Info: 1574 HYDROGEN GROUPS
Info: 4 ATOMS IN LARGEST HYDROGEN GROUP
Info: 1574 MIGRATION GROUPS
Info: 4 ATOMS IN LARGEST MIGRATION GROUP
Info: TOTAL MASS = 28321.2 amu
Info: TOTAL CHARGE = -3.35276e-08 e
Info: MASS DENSITY = 0.716697 g/cm^3
Info: ATOM DENSITY = 0.071838 atoms/A^3
Info: ADDED 0 IMPLICIT EXCLUSIONS
Info: NONBONDED TABLE R-SQUARED SPACING: 0.0625
Info: NONBONDED TABLE SIZE: 705 POINTS
Info: REMOVING COM VELOCITY -0.0401531 -0.003678 0.0509049
TCL: Running for 25000 steps
ETITLE: TS BOND ANGLE DIHED IMPRP ELECT VDW BOUNDARY MISC KINETIC TOTAL TEMP POTENTIAL TOTAL3 TEMPAVG PRESSURE GPRESSURE VOLUME PRESSAVG GPRESSAVG
ENERGY: 0 1.1438 0.4229 0.0985 0.0000 -21530.0568 3670.7707 0.0000 0.0000 2766.5600 -15091.0609 295.0819 -17857.6209 -15090.4905 295.0819 24.4981 53.5708 65619.8593 24.4981 53.5708
ENERGY: 5000 0.5659 0.4881 0.4949 0.0000 -22683.7743 3999.3054 0.0000 0.0000 284.8734 -18398.0466 30.3847 -18682.9200 -18397.3766 47.2438 338.2488 389.2288 46558.3063 1.7494 1.7380
ENERGY: 10000 0.3185 0.3639 0.4869 0.0000 -22649.6898 3915.1644 0.0000 0.0000 283.9455 -18449.4105 30.2857 -18733.3561 -18448.7920 30.3405 -85.3252 -43.5894 46378.9281 0.7628 1.0633
ENERGY: 15000 0.1568 0.4353 0.2122 0.0000 -22481.6212 3729.4107 0.0000 0.0000 283.6292 -18467.7770 30.2520 -18751.4062 -18466.8011 30.0995 -1197.5230 -1137.3998 46647.7657 3.4985 3.4746
ENERGY: 20000 0.1341 1.0030 0.2293 0.0000 -22820.5080 4048.9254 0.0000 0.0000 289.1828 -18481.0334 30.8443 -18770.2161 -18480.5234 30.4343 487.6973 541.8806 46094.6440 9.0183 8.8768
ENERGY: 25000 0.3114 0.3555 0.6595 0.0000 -22592.3716 3825.0053 0.0000 0.0000 282.5508 -18483.4891 30.1369 -18766.0398 -18482.9840 29.8862 -680.7881 -646.6860 46471.3592 -2.8339 -2.9530
TCL: Running 25000 steps at 60 kelvin.
TCL: Setting parameter langevinTemp to 60
TCL: Running for 25000 steps
ETITLE: TS BOND ANGLE DIHED IMPRP ELECT VDW BOUNDARY MISC KINETIC TOTAL TEMP POTENTIAL TOTAL3 TEMPAVG PRESSURE GPRESSURE VOLUME PRESSAVG GPRESSAVG
ENERGY: 25000 0.3114 0.3555 0.6595 0.0000 -22592.3716 3825.0053 0.0000 0.0000 282.4093 -18483.6305 30.1218 -18766.0398 -18483.0136 30.1218 -690.2090 -646.6590 46471.3592 -690.2090 -646.6590
ENERGY: 30000 0.4726 0.8430 0.4034 0.0000 -22270.2122 3765.0074 0.0000 0.0000 548.1747 -17955.3110 58.4684 -18503.4857 -17953.5725 56.8349 -325.7766 -285.6540 46356.7975 6.4610 6.4995
ENERGY: 35000 0.5195 1.2730 0.4449 0.0000 -22414.6917 3855.5085 0.0000 0.0000 557.6285 -17999.3173 59.4768 -18556.9458 -17997.3480 60.1629 123.7327 164.7823 45942.0842 0.5199 0.5623
ENERGY: 40000 0.9744 1.4658 0.6503 0.0000 -22360.5974 3762.1966 0.0000 0.0000 564.1337 -18031.1767 60.1706 -18595.3104 -18030.5941 60.1375 -483.2615 -421.6751 46030.2142 2.2200 2.0440
ENERGY: 45000 0.7095 1.0057 0.5566 0.0000 -22545.7746 3942.0700 0.0000 0.0000 583.9290 -18017.5039 62.2820 -18601.4329 -18016.4823 60.3141 540.9040 577.6469 45678.5214 -1.4928 -1.6039
ENERGY: 50000 1.4877 1.0098 0.4230 0.0000 -22444.7806 3833.4061 0.0000 0.0000 561.7925 -18046.6616 59.9209 -18608.4540 -18044.9419 60.2256 -91.4153 -36.9692 45888.4695 7.6891 7.7597
TCL: Running 25000 steps at 90 kelvin.
TCL: Setting parameter langevinTemp to 90
TCL: Running for 25000 steps
ETITLE: TS BOND ANGLE DIHED IMPRP ELECT VDW BOUNDARY MISC KINETIC TOTAL TEMP POTENTIAL TOTAL3 TEMPAVG PRESSURE GPRESSURE VOLUME PRESSAVG GPRESSAVG
ENERGY: 50000 1.4877 1.0098 0.4230 0.0000 -22444.7806 3833.4061 0.0000 0.0000 561.5152 -18046.9388 59.8913 -18608.4540 -18045.7504 59.8913 -88.8393 -36.8138 45888.4695 -88.8393 -36.8138
ENERGY: 55000 0.5715 1.4959 0.5824 0.0000 -21971.5893 3662.9577 0.0000 0.0000 855.7143 -17450.2674 91.2707 -18305.9817 -17448.7498 87.1186 -312.4438 -248.7009 46300.0304 -2.8169 -2.6318
ENERGY: 60000 0.6178 1.5514 0.6512 0.0000 -21999.2190 3627.1997 0.0000 0.0000 852.6333 -17516.5657 90.9420 -18369.1990 -17514.8404 90.8658 -672.7817 -618.3368 46350.3538 5.1768 5.1165
ENERGY: 65000 1.2760 1.2947 0.8678 0.0000 -22086.3969 3719.3313 0.0000 0.0000 830.8000 -17532.8270 88.6133 -18363.6270 -17530.2507 90.8653 -109.4792 -38.7255 46145.4780 3.0268 2.6889
ENERGY: 70000 0.4182 0.9904 1.3101 0.0000 -22157.2951 3740.7990 0.0000 0.0000 871.4796 -17542.2978 92.9522 -18413.7774 -17540.6040 89.7956 -6.1510 97.7018 45713.7427 2.8755 3.0410
ENERGY: 75000 1.3040 1.2825 1.2060 0.0000 -22267.2895 3819.7576 0.0000 0.0000 835.8278 -17607.9116 89.1496 -18443.7394 -17606.7029 90.5164 343.7871 401.1998 45584.8852 5.8700 5.8719
TCL: Running 25000 steps at 120 kelvin.
TCL: Setting parameter langevinTemp to 120
TCL: Running for 25000 steps
ETITLE: TS BOND ANGLE DIHED IMPRP ELECT VDW BOUNDARY MISC KINETIC TOTAL TEMP POTENTIAL TOTAL3 TEMPAVG PRESSURE GPRESSURE VOLUME PRESSAVG GPRESSAVG
ENERGY: 75000 1.3040 1.2825 1.2060 0.0000 -22267.2895 3819.7576 0.0000 0.0000 835.4091 -17608.3303 89.1049 -18443.7394 -17606.5635 89.1049 346.1268 400.7777 45584.8852 346.1268 400.7777
ENERGY: 80000 0.4309 1.5934 2.9693 0.0000 -21637.2371 3507.4346 0.0000 0.0000 1137.2674 -16987.5415 121.3012 -18124.8089 -16983.9880 116.8515 -630.4459 -548.0225 46344.3572 1.1174 0.2276
ENERGY: 85000 0.5118 1.8671 1.0296 0.0000 -21899.8116 3755.9643 0.0000 0.0000 1120.8153 -17019.6235 119.5464 -18140.4388 -17017.9249 120.4269 640.0686 716.9313 46000.8906 0.1433 0.0225
ENERGY: 90000 0.6007 1.3568 1.3429 0.0000 -21905.6842 3703.2223 0.0000 0.0000 1139.7334 -17059.4280 121.5642 -18199.1615 -17056.9806 120.7796 266.1062 341.9407 45884.5283 1.5093 2.0271
ENERGY: 95000 0.5771 2.5513 1.5744 0.0000 -21953.6215 3740.2421 0.0000 0.0000 1119.9391 -17088.7374 119.4529 -18208.6766 -17084.6573 119.8767 563.5843 598.4789 45657.3653 1.7281 1.5932
ENERGY: 100000 1.1413 2.6135 1.2244 0.0000 -21798.1267 3563.4350 0.0000 0.0000 1101.2270 -17128.4854 117.4571 -18229.7124 -17123.8764 121.0389 -725.8782 -642.8340 46085.5791 9.5721 9.5980
TCL: Running 25000 steps at 150 kelvin.
TCL: Setting parameter langevinTemp to 150
TCL: Running for 25000 steps
ETITLE: TS BOND ANGLE DIHED IMPRP ELECT VDW BOUNDARY MISC KINETIC TOTAL TEMP POTENTIAL TOTAL3 TEMPAVG PRESSURE GPRESSURE VOLUME PRESSAVG GPRESSAVG
ENERGY: 100000 1.1413 2.6135 1.2244 0.0000 -21798.1267 3563.4350 0.0000 0.0000 1100.6862 -17129.0262 117.3994 -18229.7124 -17126.6644 117.3994 -702.3954 -642.1967 46085.5791 -702.3954 -642.1967
ENERGY: 105000 1.8638 0.5717 1.5820 0.0000 -21592.5445 3730.6581 0.0000 0.0000 1413.2091 -16444.6599 150.7332 -17857.8690 -16441.8412 147.3776 1129.0713 1244.8650 45833.6599 2.5337 2.3466
ENERGY: 110000 0.5230 1.8207 3.0734 0.0000 -21304.1491 3425.5231 0.0000 0.0000 1433.0305 -16440.1784 152.8473 -17873.2089 -16435.9442 149.2445 -462.2615 -361.1032 46051.3835 4.7320 4.3590
ENERGY: 115000 1.8399 2.8241 3.3537 0.0000 -21536.2881 3644.5932 0.0000 0.0000 1405.7980 -16477.8792 149.9427 -17883.6772 -16473.9537 151.4955 562.4006 620.2781 45849.0247 2.6917 2.9461
ENERGY: 120000 1.1458 2.4402 2.0870 0.0000 -21668.5298 3723.1659 0.0000 0.0000 1414.4114 -16525.2793 150.8614 -17939.6908 -16522.0179 150.1839 890.7547 947.3933 46025.7883 3.5793 4.2456
ENERGY: 125000 0.5443 1.4595 1.1086 0.0000 -21531.2068 3582.0591 0.0000 0.0000 1402.6060 -16543.4293 149.6023 -17946.0353 -16539.3770 149.6250 203.4537 224.0264 46026.5295 4.3630 4.4657
TCL: Running 50000 steps at 180 kelvin.
TCL: Setting parameter langevinTemp to 180
TCL: Running for 50000 steps
ETITLE: TS BOND ANGLE DIHED IMPRP ELECT VDW BOUNDARY MISC KINETIC TOTAL TEMP POTENTIAL TOTAL3 TEMPAVG PRESSURE GPRESSURE VOLUME PRESSAVG GPRESSAVG
ENERGY: 125000 0.5443 1.4595 1.1086 0.0000 -21531.2068 3582.0591 0.0000 0.0000 1401.9018 -16544.1335 149.5271 -17946.0353 -16541.5028 149.5271 156.7155 224.4077 46026.5295 156.7155 224.4077
ENERGY: 135000 1.3338 2.9183 2.8454 0.0000 -20831.9289 3291.4035 0.0000 0.0000 1705.2428 -15828.1852 181.8816 -17533.4279 -15824.2308 180.5679 -551.2054 -485.4450 46642.2028 2.6715 2.6675
ENERGY: 145000 1.4596 2.0774 0.7855 0.0000 -20954.7075 3374.8496 0.0000 0.0000 1668.6445 -15906.8909 177.9780 -17575.5354 -15903.4395 179.8727 -190.7773 -121.0748 46291.2051 0.4501 0.1310
ENERGY: 155000 1.1828 1.6876 1.5551 0.0000 -21053.8464 3401.2193 0.0000 0.0000 1669.0536 -15979.1481 178.0216 -17648.2016 -15972.8123 180.4722 -154.5779 -95.4878 46047.0216 8.4252 8.0376
ENERGY: 165000 2.1878 2.7154 1.0255 0.0000 -21044.8854 3413.0933 0.0000 0.0000 1701.6300 -15924.2334 181.4962 -17625.8634 -15919.8067 180.7928 -27.0921 62.7340 46230.2770 6.2277 5.9570
ENERGY: 175000 0.5349 2.6984 1.6258 0.0000 -20767.9241 3206.0536 0.0000 0.0000 1700.0895 -15856.9219 181.3319 -17557.0114 -15851.8895 180.6553 -1132.2990 -1045.5826 46995.5110 2.4672 2.3411
TCL: Running 50000 steps at 210 kelvin.
TCL: Setting parameter langevinTemp to 210
TCL: Running for 50000 steps
ETITLE: TS BOND ANGLE DIHED IMPRP ELECT VDW BOUNDARY MISC KINETIC TOTAL TEMP POTENTIAL TOTAL3 TEMPAVG PRESSURE GPRESSURE VOLUME PRESSAVG GPRESSAVG
ENERGY: 175000 0.5349 2.6984 1.6258 0.0000 -20767.9241 3206.0536 0.0000 0.0000 1699.2463 -15857.7651 181.2420 -17557.0114 -15853.8934 181.2420 -1103.6808 -1044.5418 46995.5110 -1103.6808 -1044.5418
ENERGY: 185000 2.6555 3.0121 1.7370 0.0000 -20281.4372 3269.7121 0.0000 0.0000 1976.4313 -15027.8893 210.8066 -17004.3206 -15024.0834 209.0566 466.0521 591.4677 46639.0651 4.8270 4.6955
ENERGY: 195000 1.1000 2.7753 1.7914 0.0000 -19875.8715 3032.7963 0.0000 0.0000 1973.5329 -14863.8756 210.4974 -16837.4085 -14861.8902 211.5752 45.3917 151.4120 45755.0091 7.8979 8.1386
ENERGY: 205000 1.5237 2.3311 1.7212 0.0000 -19913.3210 3023.9665 0.0000 0.0000 1953.0348 -14930.7437 208.3111 -16883.7785 -14925.5928 210.4072 -16.7971 10.5743 45759.2094 1.4180 0.9353
ENERGY: 215000 1.3948 3.4169 1.6263 0.0000 -19839.3064 2998.9953 0.0000 0.0000 1952.9222 -14880.9509 208.2991 -16833.8731 -14877.0593 211.3123 -403.4844 -317.1680 46308.9204 1.1039 0.5410
ENERGY: 225000 1.8119 3.6040 1.3292 0.0000 -19783.1588 2996.0561 0.0000 0.0000 1971.5544 -14808.8032 210.2864 -16780.3576 -14804.8144 209.8455 -174.2576 -91.5248 46098.5163 3.7211 3.0168
TCL: Running 50000 steps at 240 kelvin.
TCL: Setting parameter langevinTemp to 240
TCL: Running for 50000 steps
ETITLE: TS BOND ANGLE DIHED IMPRP ELECT VDW BOUNDARY MISC KINETIC TOTAL TEMP POTENTIAL TOTAL3 TEMPAVG PRESSURE GPRESSURE VOLUME PRESSAVG GPRESSAVG
ENERGY: 225000 1.8119 3.6040 1.3292 0.0000 -19783.1588 2996.0561 0.0000 0.0000 1970.5624 -14809.7951 210.1806 -16780.3576 -14806.3096 210.1806 -159.7190 -90.9434 46098.5163 -159.7190 -90.9434
ENERGY: 235000 3.3515 3.3237 2.5500 0.0000 -18708.9014 2648.8082 0.0000 0.0000 2265.1915 -13785.6764 241.6058 -16050.8680 -13781.1378 240.7686 -428.3235 -366.1105 46472.2967 2.4778 2.6735
ENERGY: 245000 2.0634 3.0643 1.3467 0.0000 -18796.2904 2693.5010 0.0000 0.0000 2216.6441 -13879.6710 236.4277 -16096.3151 -13876.1738 239.6621 -291.4050 -248.0864 46642.9522 3.8859 3.9517
ENERGY: 255000 1.6434 3.9500 1.6118 0.0000 -18921.9817 2822.0024 0.0000 0.0000 2349.3410 -13743.4331 250.5812 -16092.7741 -13738.0274 241.6533 280.8098 346.5835 46782.8379 2.3523 2.0120
ENERGY: 265000 2.3802 4.6428 2.3997 0.0000 -18775.9373 2645.4602 0.0000 0.0000 2233.4732 -13887.5814 238.2227 -16121.0545 -13883.9606 238.8788 -599.6405 -497.6142 46406.1425 2.7579 2.8834
ENERGY: 275000 1.1181 4.2941 2.9518 0.0000 -19045.6641 2818.8832 0.0000 0.0000 2281.4260 -13936.9908 243.3374 -16218.4168 -13931.7481 240.5042 367.7897 460.8767 45990.3107 -1.0892 -1.0365
TCL: Running 50000 steps at 270 kelvin.
TCL: Setting parameter langevinTemp to 270
TCL: Running for 50000 steps
ETITLE: TS BOND ANGLE DIHED IMPRP ELECT VDW BOUNDARY MISC KINETIC TOTAL TEMP POTENTIAL TOTAL3 TEMPAVG PRESSURE GPRESSURE VOLUME PRESSAVG GPRESSAVG
ENERGY: 275000 1.1181 4.2941 2.9518 0.0000 -19045.6641 2818.8832 0.0000 0.0000 2280.2974 -13938.1194 243.2170 -16218.4168 -13933.8630 243.2170 387.7694 461.3454 45990.3107 387.7694 461.3454
ENERGY: 285000 3.5375 6.1053 3.5104 0.0000 -18092.2392 2603.6386 0.0000 0.0000 2542.2264 -12933.2210 271.1544 -15475.4474 -12927.6219 269.9238 392.7131 517.7642 47569.1719 -1.4293 -0.8395
ENERGY: 295000 0.6841 5.2792 1.6577 0.0000 -17990.2604 2525.2267 0.0000 0.0000 2511.5882 -12945.8245 267.8865 -15457.4127 -12941.9272 269.9633 -52.6763 72.3256 47316.3999 1.0851 0.6850
ENERGY: 305000 1.7320 3.4076 3.2620 0.0000 -17907.3244 2446.4137 0.0000 0.0000 2535.9806 -12916.5284 270.4882 -15452.5090 -12909.3601 268.0733 -240.5827 -148.5569 47286.5370 -0.2084 0.0276
ENERGY: 315000 1.0198 3.6555 1.0173 0.0000 -18034.0957 2527.8903 0.0000 0.0000 2533.0123 -12967.5005 270.1716 -15500.5129 -12962.6518 269.2320 14.1737 108.7345 47126.2022 -1.6061 -1.5821
ENERGY: 325000 2.6993 5.4372 2.9426 0.0000 -17898.0292 2452.8835 0.0000 0.0000 2512.2505 -12921.8160 267.9572 -15434.0665 -12915.8157 269.9894 -147.2035 -112.4841 47422.1969 3.6416 4.0991
TCL: Running 1000000 steps at 300 kelvin.
TCL: Setting parameter langevinTemp to 300
TCL: Running for 1000000 steps
ETITLE: TS BOND ANGLE DIHED IMPRP ELECT VDW BOUNDARY MISC KINETIC TOTAL TEMP POTENTIAL TOTAL3 TEMPAVG PRESSURE GPRESSURE VOLUME PRESSAVG GPRESSAVG
ENERGY: 325000 2.6993 5.4372 2.9426 0.0000 -17898.0292 2452.8835 0.0000 0.0000 2510.9658 -12923.1008 267.8201 -15434.0665 -12919.4760 267.8201 -193.1405 -111.8158 47422.1969 -193.1405 -111.8158
ENERGY: 525000 2.9267 5.6724 5.5807 0.0000 -17165.8008 2279.8218 0.0000 0.0000 2771.9184 -12099.8808 295.6534 -14871.7992 -12097.2547 299.3184 -372.2818 -255.8995 48621.8291 7.0707 6.9211
ENERGY: 725000 2.7447 4.9008 4.5958 0.0000 -17115.0205 2323.9435 0.0000 0.0000 2729.1470 -12049.6887 291.0914 -14778.8357 -12045.3600 301.3265 60.3570 157.4250 48750.4813 2.3571 2.3983
ENERGY: 925000 2.7557 6.1573 5.4956 0.0000 -17218.7104 2421.2068 0.0000 0.0000 2786.7129 -11996.3822 297.2314 -14783.0951 -11990.2238 299.9889 522.5121 599.7418 48520.7709 5.4645 6.0643
ENERGY: 1125000 2.0702 3.2735 2.8171 0.0000 -17196.3626 2383.3080 0.0000 0.0000 2841.3820 -11963.5118 303.0624 -14804.8938 -11958.0769 300.0325 306.9093 359.9340 48680.6357 -0.7489 -1.4790
ENERGY: 1325000 2.7784 7.3107 2.4465 0.0000 -17053.6811 2272.3273 0.0000 0.0000 2812.3903 -11956.4280 299.9702 -14768.8183 -11950.8084 299.2279 -129.3690 -49.9106 48569.6747 5.8009 5.1453
TCL: Exiting due to exit command.
