Info: SIMULATION PARAMETERS:
Info: TIMESTEP               2
Info: NUMBER OF STEPS        0
Info: STEPS PER CYCLE        10
Info: FIRST LDB TIMESTEP     50
Info: LAST LDB TIMESTEP     -1
Info: HOM BACKGROUND SCALING 1
Info: MIN ATOMS PER PATCH    40
Info: EMPTY PATCH LOAD       40 ATOMS
Info: INITIAL TEMPERATURE    310
Info: CENTER OF MASS MOVING INITIALLY? NO
Info: DIELECTRIC             1
Info: EXCLUDE                SCALED ONE-FOUR
Info: 1-4 ELECTROSTATICS SCALED BY 1
Info: MODIFIED 1-4 VDW PARAMETERS WILL BE USED
Info: DCD FILENAME           output.dcd
Info: DCD FREQUENCY          100
Info: DCD FIRST STEP         100
Info: NO EXTENDED SYSTEM TRAJECTORY OUTPUT
Info: NO VELOCITY DCD OUTPUT
Info: NO FORCE DCD OUTPUT
Info: OUTPUT FILENAME        output
Info: BINARY OUTPUT FILES WILL BE USED
Info: NO RESTART FILE
Info: SWITCHING ACTIVE
Info: SWITCHING ON           10
Info: SWITCHING OFF          12
Info: PAIRLIST DISTANCE      14
Info: PAIRLIST SHRINK RATE   0.01
Info: PAIRLIST GROW RATE     0.01
Info: PAIRLIST TRIGGER       0.3
Info: PAIRLISTS PER CYCLE    2
Info: PAIRLISTS ENABLED
Info: MARGIN                 0
Info: HYDROGEN GROUP CUTOFF  2.5
Info: PATCH DIMENSION        16.5
Info: ENERGY OUTPUT STEPS    10
Info: ENERGY EVALUATION STEPS    10
Info: OUTPUT ENERGY PRECISION 4
Info: CROSSTERM ENERGY INCLUDED IN DIHEDRAL
Info: TIMING OUTPUT STEPS    100
Info: LANGEVIN DYNAMICS ACTIVE
Info: LANGEVIN TEMPERATURE   310
Info: LANGEVIN USING BBK INTEGRATOR
Info: LANGEVIN DAMPING COEFFICIENT IS 1 INVERSE PS
Info: LANGEVIN DYNAMICS NOT APPLIED TO HYDROGENS
Info: MULTILEVEL SUMMATION METHOD (MSM) FOR ELECTROSTATICS ACTIVE
Info: MSM WITH C1 CUBIC INTERPOLATION AND C2 TAYLOR SPLITTING
Info: FULL ELECTROSTATIC EVALUATION FREQUENCY      2
Info: USING VERLET I (r-RESPA) MTS SCHEME.
Info: C1 SPLITTING OF LONG RANGE ELECTROSTATICS
Info: PLACING ATOMS IN PATCHES BY HYDROGEN GROUPS
Info: RIGID BONDS TO HYDROGEN : ALL
Info:         ERROR TOLERANCE : 1e-08
Info:          MAX ITERATIONS : 100
Info: RIGID WATER USING SETTLE ALGORITHM
Info: RANDOM NUMBER SEED     1740030938
Info: USE HYDROGEN BONDS?    NO
Info: COORDINATE PDB         ionized.pdb
Info: STRUCTURE FILE         ionized.psf
Info: PARAMETER file: CHARMM format!
Info: PARAMETERS             par_all27_prot_lipid.inp
Info: USING ARITHMETIC MEAN TO COMBINE L-J SIGMA PARAMETERS
Info: SUMMARY OF PARAMETERS:
Info: 180 BONDS
Info: 447 ANGLES
Info: 566 DIHEDRAL
Info: 46 IMPROPER
Info: 6 CROSSTERM
Info: 119 VDW
Info: 0 VDW_PAIRS
Info: 0 NBTHOLE_PAIRS
Info: STRUCTURE SUMMARY:
Info: 2476 ATOMS
Info: 1650 BONDS
Info: 825 ANGLES
Info: 0 DIHEDRALS
Info: 0 IMPROPERS
Info: 0 CROSSTERMS
Info: 0 EXCLUSIONS
Info: 2475 RIGID BONDS
Info: 4953 DEGREES OF FREEDOM
Info: 826 HYDROGEN GROUPS
Info: 3 ATOMS IN LARGEST HYDROGEN GROUP
Info: 826 MIGRATION GROUPS
Info: 3 ATOMS IN LARGEST MIGRATION GROUP
Info: TOTAL MASS = 14885.7 amu
Info: TOTAL CHARGE = 1 e
Info: ADDED 2475 IMPLICIT EXCLUSIONS
Info: NONBONDED TABLE R-SQUARED SPACING: 0.0625
Info: NONBONDED TABLE SIZE: 769 POINTS
Info: REMOVING COM VELOCITY 0.0183711 0.0165313 0.0928216
Info: MSM extending maximum X to 60 A
Info: MSM extending maximum Y to 60 A
Info: MSM extending minimum Z to -15 A
Info: MSM extending maximum Z to 46 A
Info: MSM using C1 cubic interpolation
Info: MSM using C2 Taylor splitting function
Info: MSM block size decomposition along X is 8 grid points
Info: MSM block size decomposition along Y is 8 grid points
Info: MSM block size decomposition along Z is 8 grid points
Info: MSM grid spacing is 2.5 A
Info: MSM non-periodic padding is 2.5 A
Info: MSM using 3 levels
Info:     level 0:  [-1..35] x [-1..35] x [-1..29]
Info:     level 1:  [-2..19] x [-2..19] x [-2..16]
Info:     level 2:  [-2..11] x [-2..11] x [-2..9]
Info: MSM finished calculating stencils
Info: MSM finished creating map for grid levels
Info: MSM finished creating map for patches
Info: MSM has 8 interpolation / anterpolation objects (one per patch)
Info: MSM grid level 0 decomposed into 100 blocks ( 5 x 5 x 4 )
Info: MSM grid level 1 decomposed into 27 blocks ( 3 x 3 x 3 )
Info: MSM grid level 2 decomposed into 8 blocks ( 2 x 2 x 2 )
Info: MSM grid cutoff calculation decomposed into 4627 work objects
TCL: Minimizing for 100 steps
ETITLE: TS BOND ANGLE DIHED IMPRP ELECT VDW BOUNDARY MISC KINETIC TOTAL TEMP POTENTIAL TOTAL3 TEMPAVG
ENERGY: 0 0.0000 0.0000 0.0000 0.0000 -7307.7785 721.2675 0.0000 0.0000 0.0000 -6586.5110 0.0000 -6586.5110 -6586.5110 0.0000
ENERGY: 20 0.0000 0.0000 0.0000 0.0000 -8613.9536 652.3016 0.0000 0.0000 0.0000 -7961.6520 0.0000 -7961.6520 -7961.6520 0.0000
ENERGY: 40 0.0000 0.0000 0.0000 0.0000 -9011.9953 733.7793 0.0000 0.0000 0.0000 -8278.2160 0.0000 -8278.2160 -8278.2160 0.0000
ENERGY: 60 0.0000 0.0000 0.0000 0.0000 -9210.8143 793.1894 0.0000 0.0000 0.0000 -8417.6248 0.0000 -8417.6248 -8417.6248 0.0000
ENERGY: 80 0.0000 0.0000 0.0000 0.0000 -9385.1583 862.8135 0.0000 0.0000 0.0000 -8522.3448 0.0000 -8522.3448 -8522.3448 0.0000
ENERGY: 100 0.0000 0.0000 0.0000 0.0000 -9575.4778 934.5011 0.0000 0.0000 0.0000 -8640.9767 0.0000 -8640.9767 -8640.9767 0.0000
TCL: Running for 2500 steps
ETITLE: TS BOND ANGLE DIHED IMPRP ELECT VDW BOUNDARY MISC KINETIC TOTAL TEMP POTENTIAL TOTAL3 TEMPAVG
ENERGY: 100 0.0000 0.0000 0.0000 0.0000 -9575.4778 934.5011 0.0000 0.0000 1472.6854 -7168.2912 299.2485 -8640.9767 -7169.4008 299.2485
ENERGY: 600 0.0000 0.0000 0.0000 0.0000 -9278.9992 1196.6800 0.0000 0.0000 1179.1251 -6903.1940 239.5973 -8082.3192 -6900.8142 248.2225
ENERGY: 1100 0.0000 0.0000 0.0000 0.0000 -9063.3636 1068.5951 0.0000 0.0000 1294.2010 -6700.5675 262.9806 -7994.7685 -6699.8801 263.2054
ENERGY: 1600 0.0000 0.0000 0.0000 0.0000 -8982.8266 1049.1395 0.0000 0.0000 1375.8468 -6557.8403 279.5710 -7933.6871 -6555.6035 276.6334
ENERGY: 2100 0.0000 0.0000 0.0000 0.0000 -8726.1447 935.3021 0.0000 0.0000 1349.1957 -6441.6469 274.1555 -7790.8426 -6439.7378 274.2551
ENERGY: 2600 0.0000 0.0000 0.0000 0.0000 -8681.2378 961.5760 0.0000 0.0000 1379.2459 -6340.4160 280.2617 -7719.6618 -6338.8800 284.5904
