Info: SIMULATION PARAMETERS:
Info: TIMESTEP               2
Info: NUMBER OF STEPS        0
Info: STEPS PER CYCLE        10
Info: PERIODIC CELL BASIS 1  45.556 0 0
Info: PERIODIC CELL BASIS 2  0 39.75 0
Info: PERIODIC CELL BASIS 3  0 0 43.557
Info: PERIODIC CELL CENTER   0 0 0
Info: WRAPPING WATERS AROUND PERIODIC BOUNDARIES ON OUTPUT.
Info: WRAPPING ALL CLUSTERS AROUND PERIODIC BOUNDARIES ON OUTPUT.
Info: FIRST LDB TIMESTEP     50
Info: LAST LDB TIMESTEP     -1
Info: HOM BACKGROUND SCALING 1
Info: PME BACKGROUND SCALING 1
Info: MIN ATOMS PER PATCH    40
Info: EMPTY PATCH LOAD       40 ATOMS
Info: INITIAL TEMPERATURE    300
Info: CENTER OF MASS MOVING INITIALLY? NO
Info: DIELECTRIC             1
Info: EXCLUDE                SCALED ONE-FOUR
Info: 1-4 ELECTROSTATICS SCALED BY 0.833333
Info: MODIFIED 1-4 VDW PARAMETERS WILL BE USED
Info: DCD FILENAME           mobley_4934872_min.dcd
Info: DCD FREQUENCY          5000
Info: DCD FIRST STEP         5000
Info: DCD FILE WILL CONTAIN UNIT CELL DATA
Info: XST FILENAME           mobley_4934872_min.xst
Info: XST FREQUENCY          5000
Info: NO VELOCITY DCD OUTPUT
Info: NO FORCE DCD OUTPUT
Info: OUTPUT FILENAME        mobley_4934872_min
Info: BINARY OUTPUT FILES WILL BE USED
Info: RESTART FILENAME       mobley_4934872_min.restart
Info: RESTART FREQUENCY      5000
Info: BINARY RESTART FILES WILL BE USED
Info: CUTOFF                 9
Info: PAIRLIST DISTANCE      11
Info: PAIRLIST SHRINK RATE   0.01
Info: PAIRLIST GROW RATE     0.01
Info: PAIRLIST TRIGGER       0.3
Info: PAIRLISTS PER CYCLE    2
Info: PAIRLISTS ENABLED
Info: MARGIN                 8
Info: HYDROGEN GROUP CUTOFF  2.5
Info: PATCH DIMENSION        21.5
Info: ENERGY OUTPUT STEPS    5000
Info: ENERGY EVALUATION STEPS    5000
Info: OUTPUT ENERGY PRECISION 4
Info: CROSSTERM ENERGY INCLUDED IN DIHEDRAL
Info: TIMING OUTPUT STEPS    50000
Info: PRESSURE OUTPUT STEPS  5000
Info: LANGEVIN DYNAMICS ACTIVE
Info: LANGEVIN TEMPERATURE   300
Info: LANGEVIN USING BBK INTEGRATOR
Info: LANGEVIN DAMPING COEFFICIENT IS 1 INVERSE PS
Info: LANGEVIN DYNAMICS APPLIED TO HYDROGENS
Info: LANGEVIN PISTON PRESSURE CONTROL ACTIVE
Info:        TARGET PRESSURE IS 1.01325 BAR
Info:     OSCILLATION PERIOD IS 50 FS
Info:             DECAY TIME IS 25 FS
Info:     PISTON TEMPERATURE IS 300 K
Info:       PRESSURE CONTROL IS GROUP-BASED
Info:    INITIAL STRAIN RATE IS 0 0 0
Info:       CELL FLUCTUATION IS ISOTROPIC
Info: PARTICLE MESH EWALD (PME) ACTIVE
Info: PME TOLERANCE               1e-06
Info: PME EWALD COEFFICIENT       0.348832
Info: PME INTERPOLATION ORDER     4
Info: PME GRID DIMENSIONS         48 40 44
Info: PME MAXIMUM GRID SPACING    1
Info: FULL ELECTROSTATIC EVALUATION FREQUENCY      2
Info: USING VERLET I (r-RESPA) MTS SCHEME.
Info: C1 SPLITTING OF LONG RANGE ELECTROSTATICS
Info: PLACING ATOMS IN PATCHES BY HYDROGEN GROUPS
Info: RIGID BONDS TO HYDROGEN : ALL
Info:         ERROR TOLERANCE : 1e-08
Info:          MAX ITERATIONS : 100
Info: RIGID WATER USING SETTLE ALGORITHM
Info: RANDOM NUMBER SEED     1741345556
Info: USE HYDROGEN BONDS?    NO
Info: Using AMBER format force field!
Info: AMBER PARM FILE        mobley_4934872.prmtop
Info: COORDINATE PDB         mobley_4934872.pdb
Info: Exclusions will be read from PARM file!
Info: SCNB (VDW SCALING)     2
Info: USING ARITHMETIC MEAN TO COMBINE L-J SIGMA PARAMETERS
Info: SUMMARY OF PARAMETERS:
Info: 10 BONDS
Info: 13 ANGLES
Info:   13 HARMONIC
Info:   0 COSINE-BASED
Info: 14 DIHEDRAL
Info: 0 IMPROPER
Info: 0 CROSSTERM
Info: 0 VDW
Info: 45 VDW_PAIRS
Info: 0 NBTHOLE_PAIRS
Info: STRUCTURE SUMMARY:
Info: 5703 ATOMS
Info: 5703 BONDS
Info: 51 ANGLES
Info: 82 DIHEDRALS
Info: 0 IMPROPERS
Info: 0 CROSSTERMS
Info: 5810 EXCLUSIONS
Info: 5689 RIGID BONDS
Info: 11420 DEGREES OF FREEDOM
Info: 1905 HYDROGEN GROUPS
Info: 4 ATOMS IN LARGEST HYDROGEN GROUP
Info: 1905 MIGRATION GROUPS
Info: 4 ATOMS IN LARGEST MIGRATION GROUP
Info: TOTAL MASS = 34264.5 amu
Info: TOTAL CHARGE = -0.000199988 e
Info: MASS DENSITY = 0.721378 g/cm^3
Info: ATOM DENSITY = 0.0723041 atoms/A^3
Info: ADDED 0 IMPLICIT EXCLUSIONS
Info: NONBONDED TABLE R-SQUARED SPACING: 0.0625
Info: NONBONDED TABLE SIZE: 705 POINTS
Info: REMOVING COM VELOCITY -0.0670754 -0.105407 -0.0415455
TCL: Minimizing for 2000 steps
ETITLE: TS BOND ANGLE DIHED IMPRP ELECT VDW BOUNDARY MISC KINETIC TOTAL TEMP POTENTIAL TOTAL3 TEMPAVG PRESSURE GPRESSURE VOLUME PRESSAVG GPRESSAVG
ENERGY: 0 0.3723 2.9520 12.3251 0.0000 -17728.7624 2021.4519 0.0000 0.0000 0.0000 -15691.6611 0.0000 -15691.6611 -15691.6611 0.0000 11167.7223 -15973.6567 78875.2370 11167.7223 -15973.6567
ENERGY: 400 9.5514 6.7991 10.7311 0.0000 -24002.6609 3528.7503 0.0000 0.0000 0.0000 -20446.8290 0.0000 -20446.8290 -20446.8290 0.0000 15935.4505 16097.7306 78875.2370 15935.4505 16097.7306
ENERGY: 800 0.9600 2.0384 10.3359 0.0000 -25142.8364 4094.4394 0.0000 0.0000 0.0000 -21035.0627 0.0000 -21035.0627 -21035.0627 0.0000 18223.9975 18377.1914 78875.2370 18223.9975 18377.1914
ENERGY: 1200 0.8466 1.5446 10.4854 0.0000 -25580.1901 4279.6999 0.0000 0.0000 0.0000 -21287.6137 0.0000 -21287.6137 -21287.6137 0.0000 19020.4515 19175.1972 78875.2370 19020.4515 19175.1972
ENERGY: 1600 9.5153 4.8630 11.2453 0.0000 -25854.9799 4411.8573 0.0000 0.0000 0.0000 -21417.4991 0.0000 -21417.4991 -21417.4991 0.0000 19592.8299 19713.1872 78875.2370 19592.8299 19713.1872
ENERGY: 2000 0.4807 1.4204 11.2644 0.0000 -26016.2651 4486.7686 0.0000 0.0000 0.0000 -21516.3310 0.0000 -21516.3310 -21516.3310 0.0000 19945.0639 20075.4368 78875.2370 19945.0639 20075.4368
TCL: Exiting due to exit command.
Info: NAMD 3.0.1 for Linux-x86_64-multicore
Info: Please visit http://www.ks.uiuc.edu/Research/namd/
Info: for updates, documentation, and support information.
Info: Please cite Phillips et al., J. Chem. Phys. 153:044130 (2020) doi:10.1063/5.0014475
Info: in all publications reporting results obtained with NAMD.
Info: Based on Charm++/Converse 80000 for multicore-linux-x86_64-gcc
Info: Built Mon Oct 14 11:11:06 CDT 2024 by dhardy on athine.ks.uiuc.edu
Info: 1 NAMD  3.0.1  Linux-x86_64-multicore  16    k026  z5358697
Info: Running on 16 processors, 1 nodes, 1 physical nodes.
Info: CPU topology information available.
Info: Charm++/Converse parallel runtime startup completed at 0.0215431 s
Info: 1043.46 MB of memory in use based on /proc/self/stat
Info: Configuration file is mobley_4934872_equil.namd
Info: Working in the current directory /srv/scratch/z5358697/prod_prep_6/4934872
TCL: Running 25000 steps at 30 kelvin.
TCL: Suspending until startup complete.
Info: SIMULATION PARAMETERS:
Info: TIMESTEP               2
Info: NUMBER OF STEPS        0
Info: STEPS PER CYCLE        10
Info: PERIODIC CELL BASIS 1  45.556 0 0
Info: PERIODIC CELL BASIS 2  0 39.75 0
Info: PERIODIC CELL BASIS 3  0 0 43.557
Info: PERIODIC CELL CENTER   0 0 0
Info: WRAPPING WATERS AROUND PERIODIC BOUNDARIES ON OUTPUT.
Info: WRAPPING ALL CLUSTERS AROUND PERIODIC BOUNDARIES ON OUTPUT.
Info: FIRST LDB TIMESTEP     50
Info: LAST LDB TIMESTEP     -1
Info: HOM BACKGROUND SCALING 1
Info: PME BACKGROUND SCALING 1
Info: MIN ATOMS PER PATCH    40
Info: EMPTY PATCH LOAD       40 ATOMS
Info: INITIAL TEMPERATURE    300
Info: CENTER OF MASS MOVING INITIALLY? NO
Info: DIELECTRIC             1
Info: EXCLUDE                SCALED ONE-FOUR
Info: 1-4 ELECTROSTATICS SCALED BY 0.833333
Info: MODIFIED 1-4 VDW PARAMETERS WILL BE USED
Info: DCD FILENAME           mobley_4934872_equil.dcd
Info: DCD FREQUENCY          5000
Info: DCD FIRST STEP         5000
Info: DCD FILE WILL CONTAIN UNIT CELL DATA
Info: XST FILENAME           mobley_4934872_equil.xst
Info: XST FREQUENCY          5000
Info: NO VELOCITY DCD OUTPUT
Info: NO FORCE DCD OUTPUT
Info: OUTPUT FILENAME        mobley_4934872_equil
Info: BINARY OUTPUT FILES WILL BE USED
Info: RESTART FILENAME       mobley_4934872_equil.restart
Info: RESTART FREQUENCY      5000
Info: BINARY RESTART FILES WILL BE USED
Info: CUTOFF                 9
Info: PAIRLIST DISTANCE      11
Info: PAIRLIST SHRINK RATE   0.01
Info: PAIRLIST GROW RATE     0.01
Info: PAIRLIST TRIGGER       0.3
Info: PAIRLISTS PER CYCLE    2
Info: PAIRLISTS ENABLED
Info: MARGIN                 8
Info: HYDROGEN GROUP CUTOFF  2.5
Info: PATCH DIMENSION        21.5
Info: ENERGY OUTPUT STEPS    5000
Info: ENERGY EVALUATION STEPS    5000
Info: OUTPUT ENERGY PRECISION 4
Info: CROSSTERM ENERGY INCLUDED IN DIHEDRAL
Info: TIMING OUTPUT STEPS    50000
Info: PRESSURE OUTPUT STEPS  5000
Info: LANGEVIN DYNAMICS ACTIVE
Info: LANGEVIN TEMPERATURE   30
Info: LANGEVIN USING BBK INTEGRATOR
Info: LANGEVIN DAMPING COEFFICIENT IS 1 INVERSE PS
Info: LANGEVIN DYNAMICS APPLIED TO HYDROGENS
Info: LANGEVIN PISTON PRESSURE CONTROL ACTIVE
Info:        TARGET PRESSURE IS 1.01325 BAR
Info:     OSCILLATION PERIOD IS 50 FS
Info:             DECAY TIME IS 25 FS
Info:     PISTON TEMPERATURE IS 300 K
Info:       PRESSURE CONTROL IS GROUP-BASED
Info:    INITIAL STRAIN RATE IS 0 0 0
Info:       CELL FLUCTUATION IS ISOTROPIC
Info: PARTICLE MESH EWALD (PME) ACTIVE
Info: PME TOLERANCE               1e-06
Info: PME EWALD COEFFICIENT       0.348832
Info: PME INTERPOLATION ORDER     4
Info: PME GRID DIMENSIONS         48 40 44
Info: PME MAXIMUM GRID SPACING    1
Info: FULL ELECTROSTATIC EVALUATION FREQUENCY      2
Info: USING VERLET I (r-RESPA) MTS SCHEME.
Info: C1 SPLITTING OF LONG RANGE ELECTROSTATICS
Info: PLACING ATOMS IN PATCHES BY HYDROGEN GROUPS
Info: RIGID BONDS TO HYDROGEN : ALL
Info:         ERROR TOLERANCE : 1e-08
Info:          MAX ITERATIONS : 100
Info: RIGID WATER USING SETTLE ALGORITHM
Info: RANDOM NUMBER SEED     1741345579
Info: USE HYDROGEN BONDS?    NO
Info: Using AMBER format force field!
Info: AMBER PARM FILE        mobley_4934872.prmtop
Info: COORDINATE PDB         mobley_4934872.pdb
Info: Exclusions will be read from PARM file!
Info: SCNB (VDW SCALING)     2
Info: USING ARITHMETIC MEAN TO COMBINE L-J SIGMA PARAMETERS
Info: BINARY COORDINATES     mobley_4934872_min.coor
Info: SUMMARY OF PARAMETERS:
Info: 10 BONDS
Info: 13 ANGLES
Info:   13 HARMONIC
Info:   0 COSINE-BASED
Info: 14 DIHEDRAL
Info: 0 IMPROPER
Info: 0 CROSSTERM
Info: 0 VDW
Info: 45 VDW_PAIRS
Info: 0 NBTHOLE_PAIRS
Info: STRUCTURE SUMMARY:
Info: 5703 ATOMS
Info: 5703 BONDS
Info: 51 ANGLES
Info: 82 DIHEDRALS
Info: 0 IMPROPERS
Info: 0 CROSSTERMS
Info: 5810 EXCLUSIONS
Info: 5689 RIGID BONDS
Info: 11420 DEGREES OF FREEDOM
Info: 1905 HYDROGEN GROUPS
Info: 4 ATOMS IN LARGEST HYDROGEN GROUP
Info: 1905 MIGRATION GROUPS
Info: 4 ATOMS IN LARGEST MIGRATION GROUP
Info: TOTAL MASS = 34264.5 amu
Info: TOTAL CHARGE = -0.000199988 e
Info: MASS DENSITY = 0.721378 g/cm^3
Info: ATOM DENSITY = 0.0723041 atoms/A^3
Info: ADDED 0 IMPLICIT EXCLUSIONS
Info: NONBONDED TABLE R-SQUARED SPACING: 0.0625
Info: NONBONDED TABLE SIZE: 705 POINTS
Info: REMOVING COM VELOCITY -0.0401067 0.110392 0.0657138
TCL: Running for 25000 steps
ETITLE: TS BOND ANGLE DIHED IMPRP ELECT VDW BOUNDARY MISC KINETIC TOTAL TEMP POTENTIAL TOTAL3 TEMPAVG PRESSURE GPRESSURE VOLUME PRESSAVG GPRESSAVG
ENERGY: 0 0.4807 1.4204 11.2644 0.0000 -26016.2651 4486.7686 0.0000 0.0000 3405.8354 -18110.4956 300.1566 -21516.3310 -18109.8078 300.1566 244.9590 283.9914 78875.2370 244.9590 283.9914
ENERGY: 5000 0.5700 2.5629 12.9183 0.0000 -27318.0133 4712.9798 0.0000 0.0000 344.2944 -22244.6878 30.3427 -22588.9822 -22243.9616 48.4391 87.7085 158.4719 55071.0504 -0.9591 -0.8512
ENERGY: 10000 0.9746 2.5704 12.4481 0.0000 -27491.3647 4851.6622 0.0000 0.0000 346.9521 -22276.7573 30.5769 -22623.7094 -22276.0229 30.2948 646.5874 721.5677 54883.6150 2.6575 2.8182
ENERGY: 15000 1.0295 2.4074 13.6994 0.0000 -27371.4829 4722.4549 0.0000 0.0000 342.3532 -22289.5384 30.1716 -22631.8917 -22288.4044 29.9475 16.5454 69.6628 55166.3191 3.3308 3.3101
ENERGY: 20000 0.4882 2.1149 14.4354 0.0000 -27323.8198 4638.1856 0.0000 0.0000 345.9321 -22322.6636 30.4870 -22668.5957 -22321.8744 30.2835 -394.8200 -339.6685 55235.0438 -2.8299 -2.8666
ENERGY: 25000 0.7831 2.7838 12.9913 0.0000 -27440.1155 4726.7527 0.0000 0.0000 342.2150 -22354.5896 30.1594 -22696.8047 -22353.7714 30.2029 -70.8111 -2.8324 55015.3180 6.3358 6.2261
TCL: Running 25000 steps at 60 kelvin.
TCL: Setting parameter langevinTemp to 60
TCL: Running for 25000 steps
ETITLE: TS BOND ANGLE DIHED IMPRP ELECT VDW BOUNDARY MISC KINETIC TOTAL TEMP POTENTIAL TOTAL3 TEMPAVG PRESSURE GPRESSURE VOLUME PRESSAVG GPRESSAVG
ENERGY: 25000 0.7831 2.7838 12.9913 0.0000 -27440.1155 4726.7527 0.0000 0.0000 342.0507 -22354.7540 30.1450 -22696.8047 -22353.9227 30.1450 -64.4267 -2.9974 55015.3180 -64.4267 -2.9974
ENERGY: 30000 1.4986 3.9374 12.4526 0.0000 -26968.8657 4540.5451 0.0000 0.0000 678.1906 -21732.2414 59.7690 -22410.4320 -21730.4483 57.3753 -281.1802 -227.9180 55274.9236 3.3395 3.2118
ENERGY: 35000 0.8989 3.9555 12.7178 0.0000 -26793.6123 4345.2326 0.0000 0.0000 676.7098 -21754.0978 59.6385 -22430.8076 -21752.4073 60.0230 -1169.0289 -1099.9306 55473.4710 5.0566 4.9887
ENERGY: 40000 1.0469 3.8027 11.9464 0.0000 -27058.7351 4590.8616 0.0000 0.0000 677.2037 -21773.8738 59.6820 -22451.0775 -21772.1953 59.8207 -56.6566 -17.9219 55014.2055 5.4627 5.1489
ENERGY: 45000 1.5285 3.3071 11.9676 0.0000 -27180.7479 4711.7045 0.0000 0.0000 672.4086 -21779.8316 59.2594 -22452.2403 -21778.4096 60.2703 432.8383 505.3363 54864.8729 3.4141 3.6947
ENERGY: 50000 1.4130 3.4050 11.6779 0.0000 -27183.5136 4691.8902 0.0000 0.0000 687.4016 -21787.7258 60.5808 -22475.1275 -21785.7008 60.0703 306.8107 343.9177 54895.1303 3.1854 2.9406
TCL: Running 25000 steps at 90 kelvin.
TCL: Setting parameter langevinTemp to 90
TCL: Running for 25000 steps
ETITLE: TS BOND ANGLE DIHED IMPRP ELECT VDW BOUNDARY MISC KINETIC TOTAL TEMP POTENTIAL TOTAL3 TEMPAVG PRESSURE GPRESSURE VOLUME PRESSAVG GPRESSAVG
ENERGY: 50000 1.4130 3.4050 11.6779 0.0000 -27183.5136 4691.8902 0.0000 0.0000 687.0707 -21788.0568 60.5516 -22475.1275 -21786.4917 60.5516 288.3072 343.9787 54895.1303 288.3072 343.9787
ENERGY: 55000 0.9795 4.1906 12.1379 0.0000 -26520.4495 4403.1960 0.0000 0.0000 1014.5967 -21085.3487 89.4165 -22099.9455 -21082.0994 87.1243 -191.7690 -130.7262 55329.3713 5.9083 6.0754
ENERGY: 60000 1.6825 4.0164 11.8453 0.0000 -26761.2914 4547.7097 0.0000 0.0000 1034.4010 -21161.6366 91.1619 -22196.0376 -21158.8318 91.2413 317.0162 372.8804 55071.1662 0.8664 1.5865
ENERGY: 65000 1.3515 5.8441 13.5391 0.0000 -26700.2922 4476.2795 0.0000 0.0000 1027.3365 -21175.9415 90.5393 -22203.2780 -21173.6568 90.2318 -3.6325 60.5453 55132.2119 3.1472 2.6324
ENERGY: 70000 1.5358 6.9765 9.8755 0.0000 -26746.4213 4505.7930 0.0000 0.0000 1032.5353 -21189.7052 90.9974 -22222.2405 -21186.9972 89.8965 91.7526 152.2586 54958.3530 2.4902 2.5635
ENERGY: 75000 1.4390 5.7044 10.9771 0.0000 -26767.6393 4517.9145 0.0000 0.0000 1034.8611 -21196.7432 91.2024 -22231.6044 -21194.1554 90.2434 69.1683 136.4012 55164.9048 -1.1484 -0.7784
TCL: Running 25000 steps at 120 kelvin.
TCL: Setting parameter langevinTemp to 120
TCL: Running for 25000 steps
ETITLE: TS BOND ANGLE DIHED IMPRP ELECT VDW BOUNDARY MISC KINETIC TOTAL TEMP POTENTIAL TOTAL3 TEMPAVG PRESSURE GPRESSURE VOLUME PRESSAVG GPRESSAVG
ENERGY: 75000 1.4390 5.7044 10.9771 0.0000 -26767.6393 4517.9145 0.0000 0.0000 1034.3476 -21197.2568 91.1572 -22231.6044 -21195.4574 91.1572 77.9029 136.9536 55164.9048 77.9029 136.9536
ENERGY: 80000 2.5987 7.0775 12.3133 0.0000 -26223.4603 4338.6391 0.0000 0.0000 1353.3498 -20509.4819 119.2709 -21862.8318 -20506.7438 116.2216 49.7160 95.4202 55256.5007 0.5458 1.0378
ENERGY: 85000 3.2356 4.1274 11.6374 0.0000 -26307.0208 4370.5341 0.0000 0.0000 1399.8116 -20517.6747 123.3655 -21917.4864 -20514.8637 121.2443 -104.1856 -20.8589 55555.8210 1.1449 1.3028
ENERGY: 90000 3.2789 6.5465 11.6182 0.0000 -26341.0936 4387.1737 0.0000 0.0000 1368.9923 -20563.4841 120.6494 -21932.4764 -20559.9914 119.5678 -34.4821 15.8545 55427.4929 -0.1454 -0.5045
ENERGY: 95000 3.9537 4.8769 12.0465 0.0000 -26457.5922 4469.0092 0.0000 0.0000 1342.4151 -20625.2907 118.3072 -21967.7058 -20621.8061 119.9443 134.1520 189.1920 55384.3467 4.2243 3.9940
ENERGY: 100000 1.6652 5.9923 11.5779 0.0000 -26263.7350 4235.3361 0.0000 0.0000 1374.6904 -20634.4733 121.1516 -22009.1637 -20630.9757 120.6394 -839.6307 -808.8532 55733.6868 2.0399 2.1781
TCL: Running 25000 steps at 150 kelvin.
TCL: Setting parameter langevinTemp to 150
TCL: Running for 25000 steps
ETITLE: TS BOND ANGLE DIHED IMPRP ELECT VDW BOUNDARY MISC KINETIC TOTAL TEMP POTENTIAL TOTAL3 TEMPAVG PRESSURE GPRESSURE VOLUME PRESSAVG GPRESSAVG
ENERGY: 100000 1.6652 5.9923 11.5779 0.0000 -26263.7350 4235.3361 0.0000 0.0000 1374.0378 -20635.1259 121.0941 -22009.1637 -20632.2150 121.0941 -869.1170 -808.9884 55733.6868 -869.1170 -808.9884
ENERGY: 105000 2.0087 7.7052 11.9099 0.0000 -26039.4059 4431.9847 0.0000 0.0000 1718.3179 -19867.4796 151.4355 -21585.7975 -19862.7313 147.7218 779.7947 860.7810 55570.1113 3.4815 3.6106
ENERGY: 110000 3.4812 7.3281 11.2206 0.0000 -25733.3448 4134.8754 0.0000 0.0000 1673.1045 -19903.3351 147.4509 -21576.4395 -19899.1378 150.3714 -423.2415 -411.3728 55918.7800 1.9698 2.7206
ENERGY: 115000 2.9551 7.8338 10.0085 0.0000 -25882.1540 4257.2412 0.0000 0.0000 1676.6063 -19927.5091 147.7595 -21604.1154 -19924.5454 150.3181 -89.6481 -41.2999 55792.1476 3.8647 3.8856
ENERGY: 120000 1.7375 7.0772 12.6542 0.0000 -26127.6103 4455.4714 0.0000 0.0000 1697.7620 -19952.9079 149.6239 -21650.6699 -19948.1816 150.3884 803.5015 887.6236 55476.8137 -2.5729 -2.5579
ENERGY: 125000 2.0254 6.1976 12.9160 0.0000 -26003.1922 4313.8910 0.0000 0.0000 1697.0813 -19971.0810 149.5639 -21668.1623 -19963.7982 149.4521 61.5745 125.9539 55792.4309 3.2416 3.1088
TCL: Running 50000 steps at 180 kelvin.
TCL: Setting parameter langevinTemp to 180
TCL: Running for 50000 steps
ETITLE: TS BOND ANGLE DIHED IMPRP ELECT VDW BOUNDARY MISC KINETIC TOTAL TEMP POTENTIAL TOTAL3 TEMPAVG PRESSURE GPRESSURE VOLUME PRESSAVG GPRESSAVG
ENERGY: 125000 2.0254 6.1976 12.9160 0.0000 -26003.1922 4313.8910 0.0000 0.0000 1696.2307 -19971.9315 149.4890 -21668.1623 -19968.3292 149.4890 68.4617 127.0827 55792.4309 68.4617 127.0827
ENERGY: 135000 3.9435 8.2530 10.0769 0.0000 -25181.1907 3974.8861 0.0000 0.0000 2026.1026 -19157.9286 178.5606 -21184.0312 -19150.1752 179.8986 -619.7595 -508.0958 56232.2812 3.4197 3.4001
ENERGY: 145000 3.2330 9.0542 12.6120 0.0000 -25247.6457 4073.8592 0.0000 0.0000 2047.4275 -19101.4599 180.4400 -21148.8874 -19095.5221 181.7500 142.5457 207.6013 55301.0579 3.6019 4.5154
ENERGY: 155000 4.1830 8.1210 11.9263 0.0000 -25361.9063 4113.4092 0.0000 0.0000 2042.7880 -19181.4788 180.0311 -21224.2668 -19177.3150 179.9024 82.1120 142.9167 55649.4931 -2.0097 -1.5578
ENERGY: 165000 3.8303 6.2287 10.8356 0.0000 -25321.4365 4100.3489 0.0000 0.0000 2053.6591 -19146.5339 180.9892 -21200.1931 -19141.5094 179.0579 352.9162 409.4693 54848.4875 0.9639 1.1556
ENERGY: 175000 3.6906 7.6195 11.2769 0.0000 -25283.3553 4069.0849 0.0000 0.0000 2039.8122 -19151.8712 179.7689 -21191.6834 -19146.9650 179.8427 121.1978 146.8597 55354.4307 5.3617 4.8980
TCL: Running 50000 steps at 210 kelvin.
TCL: Setting parameter langevinTemp to 210
TCL: Running for 50000 steps
ETITLE: TS BOND ANGLE DIHED IMPRP ELECT VDW BOUNDARY MISC KINETIC TOTAL TEMP POTENTIAL TOTAL3 TEMPAVG PRESSURE GPRESSURE VOLUME PRESSAVG GPRESSAVG
ENERGY: 175000 3.6906 7.6195 11.2769 0.0000 -25283.3553 4069.0849 0.0000 0.0000 2038.8066 -19152.8768 179.6802 -21191.6834 -19149.0431 179.6802 85.0882 147.3120 55354.4307 85.0882 147.3120
ENERGY: 185000 2.3663 8.8385 14.8171 0.0000 -24013.0515 3616.6906 0.0000 0.0000 2378.7195 -17991.6193 209.6368 -20370.3389 -17988.5762 210.5249 -134.6558 -44.4133 55233.2991 2.1118 1.8997
ENERGY: 195000 2.3156 7.4382 16.4833 0.0000 -23990.8074 3600.3261 0.0000 0.0000 2394.4345 -17969.8098 211.0218 -20364.2443 -17964.2398 209.1378 -80.4088 -23.5014 55067.6732 2.8443 2.7945
ENERGY: 205000 2.9610 11.2283 13.6862 0.0000 -23917.8527 3630.9369 0.0000 0.0000 2408.8525 -17850.1878 212.2924 -20259.0403 -17848.1130 209.0808 -33.5484 11.0786 55542.2943 2.9578 2.7597
ENERGY: 215000 5.6985 7.0256 11.7522 0.0000 -23912.8682 3593.5593 0.0000 0.0000 2379.7682 -17915.0644 209.7292 -20294.8327 -17911.6285 210.6656 -363.6415 -334.7407 55875.1798 5.3223 5.2162
ENERGY: 225000 4.6554 9.9998 12.7990 0.0000 -24000.2881 3593.1320 0.0000 0.0000 2349.2139 -18030.4879 207.0365 -20379.7019 -18024.8388 210.3860 -501.5119 -440.5909 55669.3922 -1.5689 -2.2300
TCL: Running 50000 steps at 240 kelvin.
TCL: Setting parameter langevinTemp to 240
TCL: Running for 50000 steps
ETITLE: TS BOND ANGLE DIHED IMPRP ELECT VDW BOUNDARY MISC KINETIC TOTAL TEMP POTENTIAL TOTAL3 TEMPAVG PRESSURE GPRESSURE VOLUME PRESSAVG GPRESSAVG
ENERGY: 225000 4.6554 9.9998 12.7990 0.0000 -24000.2881 3593.1320 0.0000 0.0000 2348.0470 -18031.6549 206.9336 -20379.7019 -18026.9880 206.9336 -518.4831 -439.5952 55669.3922 -518.4831 -439.5952
ENERGY: 235000 5.5132 11.4813 15.0383 0.0000 -22869.8740 3370.1816 0.0000 0.0000 2763.7219 -16703.9377 243.5671 -19467.6596 -16697.9762 240.4826 321.0350 450.0974 55694.9500 2.5622 2.7212
ENERGY: 245000 3.2223 7.8442 14.4471 0.0000 -22735.4207 3216.6224 0.0000 0.0000 2637.5471 -16855.7376 232.4473 -19493.2847 -16850.4950 240.3513 -576.6146 -511.4935 56443.0384 -1.3077 -0.8652
ENERGY: 255000 4.4907 10.2128 15.9999 0.0000 -22821.1952 3291.6483 0.0000 0.0000 2748.8584 -16749.9851 242.2572 -19498.8435 -16741.7787 240.8212 -306.6495 -244.1274 56690.8208 0.1846 0.6012
ENERGY: 265000 4.2110 13.8399 12.7481 0.0000 -22625.6686 3208.1959 0.0000 0.0000 2739.2169 -16647.4568 241.4075 -19386.6738 -16643.2950 240.7288 -403.9122 -325.0750 56432.8068 0.0751 -0.0333
ENERGY: 275000 4.6981 8.9494 14.3476 0.0000 -22464.2471 3116.6276 0.0000 0.0000 2773.6697 -16545.9547 244.4438 -19319.6244 -16539.5130 241.4509 -666.0495 -602.8885 56597.7278 -1.1896 -1.0296
TCL: Running 50000 steps at 270 kelvin.
TCL: Setting parameter langevinTemp to 270
TCL: Running for 50000 steps
ETITLE: TS BOND ANGLE DIHED IMPRP ELECT VDW BOUNDARY MISC KINETIC TOTAL TEMP POTENTIAL TOTAL3 TEMPAVG PRESSURE GPRESSURE VOLUME PRESSAVG GPRESSAVG
ENERGY: 275000 4.6981 8.9494 14.3476 0.0000 -22464.2471 3116.6276 0.0000 0.0000 2772.2600 -16547.3645 244.3196 -19319.6244 -16542.5629 244.3196 -683.3549 -602.3866 56597.7278 -683.3549 -602.3866
ENERGY: 285000 2.6785 8.4307 15.1444 0.0000 -21503.6491 2877.0712 0.0000 0.0000 3085.8256 -15514.4988 271.9541 -18600.3244 -15508.1017 272.0701 -690.8868 -601.7191 58053.0417 2.0312 2.0521
ENERGY: 295000 3.4224 12.2779 13.8103 0.0000 -21781.7376 3054.0489 0.0000 0.0000 3090.4829 -15607.6953 272.3646 -18698.1782 -15599.5991 269.8426 151.6105 238.0467 56808.0648 1.8068 1.4277
ENERGY: 305000 4.5450 9.3827 13.9032 0.0000 -21806.5079 2983.5079 0.0000 0.0000 3114.8563 -15680.3128 274.5126 -18795.1691 -15672.6699 269.5509 -266.7594 -164.6316 56669.5152 2.2097 2.0836
ENERGY: 315000 4.1798 10.5064 13.7392 0.0000 -21711.1300 3026.3468 0.0000 0.0000 3064.6344 -15591.7234 270.0865 -18656.3579 -15587.5634 270.1905 165.7054 307.4853 56403.2906 3.2145 3.0558
ENERGY: 325000 5.1903 13.4283 14.4916 0.0000 -21546.0076 2925.3340 0.0000 0.0000 3083.5684 -15503.9951 271.7552 -18587.5635 -15497.2843 269.3285 -494.6644 -348.6585 57682.4663 6.4392 6.7248
TCL: Running 1000000 steps at 300 kelvin.
TCL: Setting parameter langevinTemp to 300
TCL: Running for 1000000 steps
ETITLE: TS BOND ANGLE DIHED IMPRP ELECT VDW BOUNDARY MISC KINETIC TOTAL TEMP POTENTIAL TOTAL3 TEMPAVG PRESSURE GPRESSURE VOLUME PRESSAVG GPRESSAVG
ENERGY: 325000 5.1903 13.4283 14.4916 0.0000 -21546.0076 2925.3340 0.0000 0.0000 3082.0655 -15505.4979 271.6228 -18587.5635 -15501.5368 271.6228 -435.5583 -348.6993 57682.4663 -435.5583 -348.6993
ENERGY: 525000 2.0432 20.8643 13.7317 0.0000 -20848.4577 2891.9970 0.0000 0.0000 3341.6926 -14578.1288 294.5037 -17919.8215 -14567.8772 299.2382 524.9733 555.3528 58300.0284 0.7379 0.1114
ENERGY: 725000 4.0878 14.1245 16.3499 0.0000 -20725.5250 2782.0036 0.0000 0.0000 3485.4605 -14423.4988 307.1740 -17908.9592 -14416.1955 299.9119 -147.8587 -45.3172 59096.3342 3.3584 3.3924
ENERGY: 925000 5.1683 14.3944 11.7476 0.0000 -20638.5094 2706.3728 0.0000 0.0000 3364.5997 -14536.2265 296.5225 -17900.8262 -14531.3841 298.9990 -310.4334 -287.4508 58715.3732 0.0799 -0.5108
ENERGY: 1125000 1.7201 13.3316 13.0970 0.0000 -20612.8408 2700.0419 0.0000 0.0000 3410.1729 -14474.4773 300.5389 -17884.6502 -14466.4941 300.9529 -288.0475 -191.9429 58671.2620 -0.2448 -0.0423
ENERGY: 1325000 5.1195 10.0596 16.6999 0.0000 -20683.3792 2815.0998 0.0000 0.0000 3452.7250 -14383.6754 304.2890 -17836.4005 -14378.2051 301.7914 122.2697 155.3292 59168.2807 2.4463 2.7542
TCL: Exiting due to exit command.
