Info: SIMULATION PARAMETERS:
Info: TIMESTEP               2
Info: NUMBER OF STEPS        0
Info: STEPS PER CYCLE        10
Info: PERIODIC CELL BASIS 1  38.861 0 0
Info: PERIODIC CELL BASIS 2  0 40.343 0
Info: PERIODIC CELL BASIS 3  0 0 40.862
Info: PERIODIC CELL CENTER   0 0 0
Info: WRAPPING WATERS AROUND PERIODIC BOUNDARIES ON OUTPUT.
Info: WRAPPING ALL CLUSTERS AROUND PERIODIC BOUNDARIES ON OUTPUT.
Info: FIRST LDB TIMESTEP     50
Info: LAST LDB TIMESTEP     -1
Info: HOM BACKGROUND SCALING 1
Info: PME BACKGROUND SCALING 1
Info: MIN ATOMS PER PATCH    40
Info: EMPTY PATCH LOAD       40 ATOMS
Info: INITIAL TEMPERATURE    300
Info: CENTER OF MASS MOVING INITIALLY? NO
Info: DIELECTRIC             1
Info: EXCLUDE                SCALED ONE-FOUR
Info: 1-4 ELECTROSTATICS SCALED BY 0.833333
Info: MODIFIED 1-4 VDW PARAMETERS WILL BE USED
Info: DCD FILENAME           mobley_2771569_min.dcd
Info: DCD FREQUENCY          5000
Info: DCD FIRST STEP         5000
Info: DCD FILE WILL CONTAIN UNIT CELL DATA
Info: XST FILENAME           mobley_2771569_min.xst
Info: XST FREQUENCY          5000
Info: NO VELOCITY DCD OUTPUT
Info: NO FORCE DCD OUTPUT
Info: OUTPUT FILENAME        mobley_2771569_min
Info: BINARY OUTPUT FILES WILL BE USED
Info: RESTART FILENAME       mobley_2771569_min.restart
Info: RESTART FREQUENCY      5000
Info: BINARY RESTART FILES WILL BE USED
Info: CUTOFF                 9
Info: PAIRLIST DISTANCE      11
Info: PAIRLIST SHRINK RATE   0.01
Info: PAIRLIST GROW RATE     0.01
Info: PAIRLIST TRIGGER       0.3
Info: PAIRLISTS PER CYCLE    2
Info: PAIRLISTS ENABLED
Info: MARGIN                 8
Info: HYDROGEN GROUP CUTOFF  2.5
Info: PATCH DIMENSION        21.5
Info: ENERGY OUTPUT STEPS    5000
Info: ENERGY EVALUATION STEPS    5000
Info: OUTPUT ENERGY PRECISION 4
Info: CROSSTERM ENERGY INCLUDED IN DIHEDRAL
Info: TIMING OUTPUT STEPS    50000
Info: PRESSURE OUTPUT STEPS  5000
Info: LANGEVIN DYNAMICS ACTIVE
Info: LANGEVIN TEMPERATURE   300
Info: LANGEVIN USING BBK INTEGRATOR
Info: LANGEVIN DAMPING COEFFICIENT IS 1 INVERSE PS
Info: LANGEVIN DYNAMICS APPLIED TO HYDROGENS
Info: LANGEVIN PISTON PRESSURE CONTROL ACTIVE
Info:        TARGET PRESSURE IS 1.01325 BAR
Info:     OSCILLATION PERIOD IS 50 FS
Info:             DECAY TIME IS 25 FS
Info:     PISTON TEMPERATURE IS 300 K
Info:       PRESSURE CONTROL IS GROUP-BASED
Info:    INITIAL STRAIN RATE IS 0 0 0
Info:       CELL FLUCTUATION IS ISOTROPIC
Info: PARTICLE MESH EWALD (PME) ACTIVE
Info: PME TOLERANCE               1e-06
Info: PME EWALD COEFFICIENT       0.348832
Info: PME INTERPOLATION ORDER     4
Info: PME GRID DIMENSIONS         40 44 44
Info: PME MAXIMUM GRID SPACING    1
Info: FULL ELECTROSTATIC EVALUATION FREQUENCY      2
Info: USING VERLET I (r-RESPA) MTS SCHEME.
Info: C1 SPLITTING OF LONG RANGE ELECTROSTATICS
Info: PLACING ATOMS IN PATCHES BY HYDROGEN GROUPS
Info: RIGID BONDS TO HYDROGEN : ALL
Info:         ERROR TOLERANCE : 1e-08
Info:          MAX ITERATIONS : 100
Info: RIGID WATER USING SETTLE ALGORITHM
Info: RANDOM NUMBER SEED     1741340368
Info: USE HYDROGEN BONDS?    NO
Info: Using AMBER format force field!
Info: AMBER PARM FILE        mobley_2771569.prmtop
Info: COORDINATE PDB         mobley_2771569.pdb
Info: Exclusions will be read from PARM file!
Info: SCNB (VDW SCALING)     2
Info: USING ARITHMETIC MEAN TO COMBINE L-J SIGMA PARAMETERS
Info: SUMMARY OF PARAMETERS:
Info: 6 BONDS
Info: 6 ANGLES
Info:   6 HARMONIC
Info:   0 COSINE-BASED
Info: 5 DIHEDRAL
Info: 0 IMPROPER
Info: 0 CROSSTERM
Info: 0 VDW
Info: 21 VDW_PAIRS
Info: 0 NBTHOLE_PAIRS
Info: STRUCTURE SUMMARY:
Info: 4606 ATOMS
Info: 4606 BONDS
Info: 36 ANGLES
Info: 48 DIHEDRALS
Info: 0 IMPROPERS
Info: 0 CROSSTERMS
Info: 4687 EXCLUSIONS
Info: 4599 RIGID BONDS
Info: 9219 DEGREES OF FREEDOM
Info: 1536 HYDROGEN GROUPS
Info: 4 ATOMS IN LARGEST HYDROGEN GROUP
Info: 1536 MIGRATION GROUPS
Info: 4 ATOMS IN LARGEST MIGRATION GROUP
Info: TOTAL MASS = 27646.6 amu
Info: TOTAL CHARGE = 9.99197e-05 e
Info: MASS DENSITY = 0.716638 g/cm^3
Info: ATOM DENSITY = 0.0718989 atoms/A^3
Info: ADDED 0 IMPLICIT EXCLUSIONS
Info: NONBONDED TABLE R-SQUARED SPACING: 0.0625
Info: NONBONDED TABLE SIZE: 705 POINTS
Info: REMOVING COM VELOCITY -0.00543595 -0.0102553 -0.0914878
TCL: Minimizing for 2000 steps
ETITLE: TS BOND ANGLE DIHED IMPRP ELECT VDW BOUNDARY MISC KINETIC TOTAL TEMP POTENTIAL TOTAL3 TEMPAVG PRESSURE GPRESSURE VOLUME PRESSAVG GPRESSAVG
ENERGY: 0 0.0313 0.8403 0.2898 0.0000 -14408.0241 1651.0423 0.0000 0.0000 0.0000 -12755.8204 0.0000 -12755.8204 -12755.8204 0.0000 11197.7804 -15721.3234 64062.1901 11197.7804 -15721.3234
ENERGY: 400 3.0871 1.8007 0.6618 0.0000 -19310.1131 2792.8377 0.0000 0.0000 0.0000 -16511.7258 0.0000 -16511.7258 -16511.7258 0.0000 15681.4655 15806.7466 64062.1901 15681.4655 15806.7466
ENERGY: 800 4.2905 2.7893 0.5970 0.0000 -20287.5615 3300.3970 0.0000 0.0000 0.0000 -16979.4876 0.0000 -16979.4876 -16979.4876 0.0000 18177.8128 18301.4581 64062.1901 18177.8128 18301.4581
ENERGY: 1200 1.2366 0.5153 0.6929 0.0000 -20703.3947 3495.1116 0.0000 0.0000 0.0000 -17205.8383 0.0000 -17205.8383 -17205.8383 0.0000 19229.8194 19332.4768 64062.1901 19229.8194 19332.4768
ENERGY: 1600 1.0077 0.6935 0.8242 0.0000 -20938.4156 3611.7686 0.0000 0.0000 0.0000 -17324.1216 0.0000 -17324.1216 -17324.1216 0.0000 19898.9440 19997.0570 64062.1901 19898.9440 19997.0570
ENERGY: 2000 1.1358 0.5089 0.7847 0.0000 -21079.3836 3681.0595 0.0000 0.0000 0.0000 -17395.8947 0.0000 -17395.8947 -17395.8947 0.0000 20280.9425 20386.8764 64062.1901 20280.9425 20386.8764
TCL: Exiting due to exit command.
Info: NAMD 3.0.1 for Linux-x86_64-multicore
Info: Please visit http://www.ks.uiuc.edu/Research/namd/
Info: for updates, documentation, and support information.
Info: Please cite Phillips et al., J. Chem. Phys. 153:044130 (2020) doi:10.1063/5.0014475
Info: in all publications reporting results obtained with NAMD.
Info: Based on Charm++/Converse 80000 for multicore-linux-x86_64-gcc
Info: Built Mon Oct 14 11:11:06 CDT 2024 by dhardy on athine.ks.uiuc.edu
Info: 1 NAMD  3.0.1  Linux-x86_64-multicore  16    k014  z5358697
Info: Running on 16 processors, 1 nodes, 1 physical nodes.
Info: CPU topology information available.
Info: Charm++/Converse parallel runtime startup completed at 0.00877581 s
Info: 1043.45 MB of memory in use based on /proc/self/stat
Info: Configuration file is mobley_2771569_equil.namd
Info: Working in the current directory /srv/scratch/z5358697/prod_prep_3/2771569
TCL: Running 25000 steps at 30 kelvin.
TCL: Suspending until startup complete.
Info: SIMULATION PARAMETERS:
Info: TIMESTEP               2
Info: NUMBER OF STEPS        0
Info: STEPS PER CYCLE        10
Info: PERIODIC CELL BASIS 1  38.861 0 0
Info: PERIODIC CELL BASIS 2  0 40.343 0
Info: PERIODIC CELL BASIS 3  0 0 40.862
Info: PERIODIC CELL CENTER   0 0 0
Info: WRAPPING WATERS AROUND PERIODIC BOUNDARIES ON OUTPUT.
Info: WRAPPING ALL CLUSTERS AROUND PERIODIC BOUNDARIES ON OUTPUT.
Info: FIRST LDB TIMESTEP     50
Info: LAST LDB TIMESTEP     -1
Info: HOM BACKGROUND SCALING 1
Info: PME BACKGROUND SCALING 1
Info: MIN ATOMS PER PATCH    40
Info: EMPTY PATCH LOAD       40 ATOMS
Info: INITIAL TEMPERATURE    300
Info: CENTER OF MASS MOVING INITIALLY? NO
Info: DIELECTRIC             1
Info: EXCLUDE                SCALED ONE-FOUR
Info: 1-4 ELECTROSTATICS SCALED BY 0.833333
Info: MODIFIED 1-4 VDW PARAMETERS WILL BE USED
Info: DCD FILENAME           mobley_2771569_equil.dcd
Info: DCD FREQUENCY          5000
Info: DCD FIRST STEP         5000
Info: DCD FILE WILL CONTAIN UNIT CELL DATA
Info: XST FILENAME           mobley_2771569_equil.xst
Info: XST FREQUENCY          5000
Info: NO VELOCITY DCD OUTPUT
Info: NO FORCE DCD OUTPUT
Info: OUTPUT FILENAME        mobley_2771569_equil
Info: BINARY OUTPUT FILES WILL BE USED
Info: RESTART FILENAME       mobley_2771569_equil.restart
Info: RESTART FREQUENCY      5000
Info: BINARY RESTART FILES WILL BE USED
Info: CUTOFF                 9
Info: PAIRLIST DISTANCE      11
Info: PAIRLIST SHRINK RATE   0.01
Info: PAIRLIST GROW RATE     0.01
Info: PAIRLIST TRIGGER       0.3
Info: PAIRLISTS PER CYCLE    2
Info: PAIRLISTS ENABLED
Info: MARGIN                 8
Info: HYDROGEN GROUP CUTOFF  2.5
Info: PATCH DIMENSION        21.5
Info: ENERGY OUTPUT STEPS    5000
Info: ENERGY EVALUATION STEPS    5000
Info: OUTPUT ENERGY PRECISION 4
Info: CROSSTERM ENERGY INCLUDED IN DIHEDRAL
Info: TIMING OUTPUT STEPS    50000
Info: PRESSURE OUTPUT STEPS  5000
Info: LANGEVIN DYNAMICS ACTIVE
Info: LANGEVIN TEMPERATURE   30
Info: LANGEVIN USING BBK INTEGRATOR
Info: LANGEVIN DAMPING COEFFICIENT IS 1 INVERSE PS
Info: LANGEVIN DYNAMICS APPLIED TO HYDROGENS
Info: LANGEVIN PISTON PRESSURE CONTROL ACTIVE
Info:        TARGET PRESSURE IS 1.01325 BAR
Info:     OSCILLATION PERIOD IS 50 FS
Info:             DECAY TIME IS 25 FS
Info:     PISTON TEMPERATURE IS 300 K
Info:       PRESSURE CONTROL IS GROUP-BASED
Info:    INITIAL STRAIN RATE IS 0 0 0
Info:       CELL FLUCTUATION IS ISOTROPIC
Info: PARTICLE MESH EWALD (PME) ACTIVE
Info: PME TOLERANCE               1e-06
Info: PME EWALD COEFFICIENT       0.348832
Info: PME INTERPOLATION ORDER     4
Info: PME GRID DIMENSIONS         40 44 44
Info: PME MAXIMUM GRID SPACING    1
Info: FULL ELECTROSTATIC EVALUATION FREQUENCY      2
Info: USING VERLET I (r-RESPA) MTS SCHEME.
Info: C1 SPLITTING OF LONG RANGE ELECTROSTATICS
Info: PLACING ATOMS IN PATCHES BY HYDROGEN GROUPS
Info: RIGID BONDS TO HYDROGEN : ALL
Info:         ERROR TOLERANCE : 1e-08
Info:          MAX ITERATIONS : 100
Info: RIGID WATER USING SETTLE ALGORITHM
Info: RANDOM NUMBER SEED     1741340385
Info: USE HYDROGEN BONDS?    NO
Info: Using AMBER format force field!
Info: AMBER PARM FILE        mobley_2771569.prmtop
Info: COORDINATE PDB         mobley_2771569.pdb
Info: Exclusions will be read from PARM file!
Info: SCNB (VDW SCALING)     2
Info: USING ARITHMETIC MEAN TO COMBINE L-J SIGMA PARAMETERS
Info: BINARY COORDINATES     mobley_2771569_min.coor
Info: SUMMARY OF PARAMETERS:
Info: 6 BONDS
Info: 6 ANGLES
Info: 5 DIHEDRAL
Info: 0 IMPROPER
Info: 0 CROSSTERM
Info: 0 VDW
Info: 21 VDW_PAIRS
Info: 0 NBTHOLE_PAIRS
Info: STRUCTURE SUMMARY:
Info: 4606 ATOMS
Info: 4606 BONDS
Info: 36 ANGLES
Info: 48 DIHEDRALS
Info: 0 IMPROPERS
Info: 0 CROSSTERMS
Info: 4687 EXCLUSIONS
Info: 4599 RIGID BONDS
Info: 9219 DEGREES OF FREEDOM
Info: 1536 HYDROGEN GROUPS
Info: 4 ATOMS IN LARGEST HYDROGEN GROUP
Info: 1536 MIGRATION GROUPS
Info: 4 ATOMS IN LARGEST MIGRATION GROUP
Info: TOTAL MASS = 27646.6 amu
Info: TOTAL CHARGE = 9.99197e-05 e
Info: MASS DENSITY = 0.716638 g/cm^3
Info: ATOM DENSITY = 0.0718989 atoms/A^3
Info: ADDED 0 IMPLICIT EXCLUSIONS
Info: NONBONDED TABLE R-SQUARED SPACING: 0.0625
Info: NONBONDED TABLE SIZE: 705 POINTS
Info: REMOVING COM VELOCITY 0.124689 0.0252963 0.0919781
TCL: Running for 25000 steps
ETITLE: TS BOND ANGLE DIHED IMPRP ELECT VDW BOUNDARY MISC KINETIC TOTAL TEMP POTENTIAL TOTAL3 TEMPAVG PRESSURE GPRESSURE VOLUME PRESSAVG GPRESSAVG
ENERGY: 0 1.1358 0.5089 0.7847 0.0000 -21079.3836 3681.0595 0.0000 0.0000 2737.5274 -14658.3673 298.8581 -17395.8947 -14657.8247 298.8581 534.2962 560.4057 64062.1901 534.2962 560.4057
ENERGY: 5000 0.8539 1.0951 0.6770 0.0000 -22004.2805 3774.4322 0.0000 0.0000 278.6673 -17948.5549 30.4223 -18227.2222 -17947.8031 47.6862 -358.9307 -280.9306 44540.0071 -0.9625 -0.8162
ENERGY: 10000 1.5538 1.1491 0.4986 0.0000 -21759.2372 3486.1850 0.0000 0.0000 267.9798 -18001.8709 29.2556 -18269.8507 -18001.1643 30.4084 -1980.6931 -1903.2840 44698.5264 2.8834 3.0040
ENERGY: 15000 1.1800 0.9770 0.7494 0.0000 -22047.0178 3740.1398 0.0000 0.0000 274.8493 -18029.1222 30.0055 -18303.9715 -18028.2775 29.9758 -610.0194 -556.2995 44280.4698 1.0848 1.0510
ENERGY: 20000 0.6471 0.9778 0.6669 0.0000 -22117.6287 3810.4200 0.0000 0.0000 267.6156 -18037.3014 29.2158 -18304.9169 -18036.6823 29.9095 -166.0640 -99.1446 44060.0492 4.7042 4.7346
ENERGY: 25000 1.0409 1.0292 0.7439 0.0000 -22085.6248 3765.8678 0.0000 0.0000 276.3584 -18040.5846 30.1703 -18316.9430 -18039.8902 29.9758 -483.1184 -408.4855 44141.9877 7.9671 7.9603
TCL: Running 25000 steps at 60 kelvin.
TCL: Setting parameter langevinTemp to 60
TCL: Running for 25000 steps
ETITLE: TS BOND ANGLE DIHED IMPRP ELECT VDW BOUNDARY MISC KINETIC TOTAL TEMP POTENTIAL TOTAL3 TEMPAVG PRESSURE GPRESSURE VOLUME PRESSAVG GPRESSAVG
ENERGY: 25000 1.0409 1.0292 0.7439 0.0000 -22085.6248 3765.8678 0.0000 0.0000 276.2231 -18040.7199 30.1555 -18316.9430 -18039.9896 30.1555 -476.2867 -408.3726 44141.9877 -476.2867 -408.3726
ENERGY: 30000 1.0850 2.1905 0.8680 0.0000 -21790.7195 3714.9052 0.0000 0.0000 557.1720 -17514.4988 60.8269 -18071.6708 -17512.8671 57.2767 -40.5043 20.9478 44236.5871 5.6132 5.4326
ENERGY: 35000 1.1272 1.7016 1.1051 0.0000 -21715.4426 3601.3401 0.0000 0.0000 544.5753 -17565.5934 59.4517 -18110.1687 -17564.1493 60.2114 -737.5612 -690.4798 44362.6431 4.1407 3.8949
ENERGY: 40000 1.9084 2.5441 1.1794 0.0000 -21808.3921 3674.8215 0.0000 0.0000 562.5319 -17565.4068 61.4121 -18127.9387 -17563.9087 60.4870 -451.0403 -382.4494 44300.0090 3.0853 3.2845
ENERGY: 45000 1.2071 1.5178 0.9555 0.0000 -22086.8711 3910.5527 0.0000 0.0000 563.2029 -17609.4350 61.4853 -18172.6380 -17607.6499 60.2509 813.6994 890.4216 43900.1213 3.6616 3.4106
ENERGY: 50000 1.1024 1.4177 1.1291 0.0000 -21918.0438 3737.3804 0.0000 0.0000 540.8596 -17636.1546 59.0461 -18177.0142 -17634.1404 60.2793 -144.5465 -87.5751 44036.2804 -1.6629 -1.4159
TCL: Running 25000 steps at 90 kelvin.
TCL: Setting parameter langevinTemp to 90
TCL: Running for 25000 steps
ETITLE: TS BOND ANGLE DIHED IMPRP ELECT VDW BOUNDARY MISC KINETIC TOTAL TEMP POTENTIAL TOTAL3 TEMPAVG PRESSURE GPRESSURE VOLUME PRESSAVG GPRESSAVG
ENERGY: 50000 1.1024 1.4177 1.1291 0.0000 -21918.0438 3737.3804 0.0000 0.0000 540.5840 -17636.4302 59.0160 -18177.0142 -17635.4088 59.0160 -141.2758 -87.3200 44036.2804 -141.2758 -87.3200
ENERGY: 55000 1.7261 3.6006 0.8949 0.0000 -21631.7206 3711.2174 0.0000 0.0000 839.0319 -17075.2498 91.5978 -17914.2817 -17072.8658 87.1729 357.5310 391.0653 44190.1070 3.6866 3.9950
ENERGY: 60000 2.0119 3.5158 0.5448 0.0000 -21515.0666 3597.9277 0.0000 0.0000 826.8110 -17084.2555 90.2636 -17911.0665 -17081.6240 89.8239 -235.2964 -209.4414 44235.5894 2.5047 2.4265
ENERGY: 65000 1.5355 3.0660 0.9875 0.0000 -21681.9355 3721.4991 0.0000 0.0000 834.6160 -17120.2313 91.1157 -17954.8473 -17117.8778 90.3869 256.5545 279.8374 44322.1314 4.2807 3.9855
ENERGY: 70000 1.0335 2.7941 1.2517 0.0000 -21691.2123 3698.8571 0.0000 0.0000 816.8439 -17170.4320 89.1755 -17987.2759 -17167.9014 89.9720 33.8549 94.9720 44237.3950 1.0667 1.2613
ENERGY: 75000 0.4958 3.1215 1.3678 0.0000 -21638.9461 3662.1117 0.0000 0.0000 802.6697 -17169.1795 87.6281 -17971.8492 -17166.5945 89.9000 -67.6222 -21.8610 44215.1975 2.4792 2.5799
TCL: Running 25000 steps at 120 kelvin.
TCL: Setting parameter langevinTemp to 120
TCL: Running for 25000 steps
ETITLE: TS BOND ANGLE DIHED IMPRP ELECT VDW BOUNDARY MISC KINETIC TOTAL TEMP POTENTIAL TOTAL3 TEMPAVG PRESSURE GPRESSURE VOLUME PRESSAVG GPRESSAVG
ENERGY: 75000 0.4958 3.1215 1.3678 0.0000 -21638.9461 3662.1117 0.0000 0.0000 802.2651 -17169.5841 87.5839 -17971.8492 -17167.8112 87.5839 -68.4114 -21.5641 44215.1975 -68.4114 -21.5641
ENERGY: 80000 1.4666 4.0005 1.1895 0.0000 -21195.5129 3536.1908 0.0000 0.0000 1105.0975 -16547.5680 120.6444 -17652.6655 -16545.5666 117.0411 99.1560 111.6707 44469.9644 3.7630 3.6130
ENERGY: 85000 1.3274 6.1521 1.2787 0.0000 -21224.0775 3536.5003 0.0000 0.0000 1076.3326 -16602.4865 117.5041 -17678.8191 -16600.3850 120.9220 -154.7769 -117.7371 44602.8684 3.8104 4.2343
ENERGY: 90000 1.0656 3.0044 1.3284 0.0000 -21171.4828 3466.3499 0.0000 0.0000 1059.1046 -16640.6299 115.6233 -17699.7345 -16637.1390 119.5011 -634.8269 -560.4002 44839.8428 2.5267 2.8758
ENERGY: 95000 2.4758 4.0414 1.2809 0.0000 -21360.7553 3599.7652 0.0000 0.0000 1081.2972 -16671.8950 118.0461 -17753.1921 -16669.7329 120.4127 -80.4370 -14.7307 44653.3213 9.7955 9.5531
ENERGY: 100000 0.8995 4.1996 1.1704 0.0000 -21219.8514 3452.4455 0.0000 0.0000 1116.2870 -16644.8494 121.8660 -17761.1364 -16639.1794 119.9263 -806.4807 -774.4575 44867.1608 2.2275 2.0775
TCL: Running 25000 steps at 150 kelvin.
TCL: Setting parameter langevinTemp to 150
TCL: Running for 25000 steps
ETITLE: TS BOND ANGLE DIHED IMPRP ELECT VDW BOUNDARY MISC KINETIC TOTAL TEMP POTENTIAL TOTAL3 TEMPAVG PRESSURE GPRESSURE VOLUME PRESSAVG GPRESSAVG
ENERGY: 100000 0.8995 4.1996 1.1704 0.0000 -21219.8514 3452.4455 0.0000 0.0000 1115.7212 -16645.4152 121.8042 -17761.1364 -16643.1280 121.8042 -824.6125 -773.2946 44867.1608 -824.6125 -773.2946
ENERGY: 105000 4.5089 3.8746 1.4063 0.0000 -20867.4946 3446.6490 0.0000 0.0000 1335.4718 -16075.5840 145.7946 -17411.0559 -16070.6333 145.5939 -79.7250 -17.1929 44834.9765 1.1114 1.2642
ENERGY: 110000 1.9633 4.6577 1.0211 0.0000 -20904.8465 3504.0693 0.0000 0.0000 1400.6475 -15992.4876 152.9098 -17393.1351 -15990.2865 151.1018 389.7425 445.8105 44645.8968 3.7958 3.6330
ENERGY: 115000 1.8569 3.7242 0.7927 0.0000 -20796.2533 3365.7113 0.0000 0.0000 1369.1075 -16055.0607 149.4666 -17424.1682 -16052.2570 150.1963 -487.3623 -445.1661 44987.5295 8.1295 7.9365
ENERGY: 120000 4.4540 4.7132 0.6196 0.0000 -20732.1257 3322.5672 0.0000 0.0000 1391.1331 -16008.6386 151.8711 -17399.7717 -16002.9832 149.8850 -621.8797 -582.5577 44696.8318 5.0521 4.4845
ENERGY: 125000 4.2895 2.0963 1.3039 0.0000 -20923.6035 3493.2704 0.0000 0.0000 1377.9522 -16044.6912 150.4322 -17422.6435 -16040.7685 151.4291 224.2793 276.0730 44630.4484 2.3398 2.8161
TCL: Running 50000 steps at 180 kelvin.
TCL: Setting parameter langevinTemp to 180
TCL: Running for 50000 steps
ETITLE: TS BOND ANGLE DIHED IMPRP ELECT VDW BOUNDARY MISC KINETIC TOTAL TEMP POTENTIAL TOTAL3 TEMPAVG PRESSURE GPRESSURE VOLUME PRESSAVG GPRESSAVG
ENERGY: 125000 4.2895 2.0963 1.3039 0.0000 -20923.6035 3493.2704 0.0000 0.0000 1377.2764 -16045.3671 150.3584 -17422.6435 -16043.3193 150.3584 227.1258 277.1664 44630.4484 227.1258 277.1664
ENERGY: 135000 1.5056 3.9168 2.2318 0.0000 -20375.9301 3286.9982 0.0000 0.0000 1672.5585 -15408.7191 182.5946 -17081.2776 -15405.3705 181.4283 23.1377 105.7640 44713.6650 4.0662 3.9761
ENERGY: 145000 2.3686 4.9328 0.7425 0.0000 -20240.3538 3160.3496 0.0000 0.0000 1639.1938 -15432.7666 178.9521 -17071.9604 -15429.1884 181.0544 -579.4929 -514.9814 44539.5637 1.0175 1.2877
ENERGY: 155000 3.2509 5.2788 2.3591 0.0000 -20316.8692 3252.8801 0.0000 0.0000 1639.6463 -15413.4540 179.0015 -17053.1003 -15410.4280 181.0863 40.4887 100.5147 44281.5587 4.4885 4.4256
ENERGY: 165000 2.6338 7.0109 1.1200 0.0000 -20380.2804 3367.1691 0.0000 0.0000 1654.9581 -15347.3884 180.6731 -17002.3465 -15343.0063 182.6487 677.7552 702.8301 44538.5423 1.8458 1.6829
ENERGY: 175000 2.3590 5.6203 1.6119 0.0000 -20357.7063 3244.9156 0.0000 0.0000 1675.9472 -15427.2522 182.9645 -17103.1994 -15424.5511 180.2047 -159.3509 -61.3658 44414.0056 3.0430 3.2777
TCL: Running 50000 steps at 210 kelvin.
TCL: Setting parameter langevinTemp to 210
TCL: Running for 50000 steps
ETITLE: TS BOND ANGLE DIHED IMPRP ELECT VDW BOUNDARY MISC KINETIC TOTAL TEMP POTENTIAL TOTAL3 TEMPAVG PRESSURE GPRESSURE VOLUME PRESSAVG GPRESSAVG
ENERGY: 175000 2.3590 5.6203 1.6119 0.0000 -20357.7063 3244.9156 0.0000 0.0000 1675.1140 -15428.0854 182.8736 -17103.1994 -15424.7546 182.8736 -129.4399 -61.1404 44414.0056 -129.4399 -61.1404
ENERGY: 185000 2.2525 2.6578 3.1481 0.0000 -19321.9745 2972.8834 0.0000 0.0000 1876.1265 -14464.9063 204.8183 -16341.0328 -14460.2745 208.9832 -30.1762 19.6252 45119.4803 7.5640 7.3232
ENERGY: 195000 1.0189 5.3483 2.7024 0.0000 -19435.4442 2988.2732 0.0000 0.0000 1914.5559 -14523.5455 209.0136 -16438.1015 -14521.2794 210.1525 -220.3246 -120.1844 45076.6850 -0.3970 -0.4150
ENERGY: 205000 1.2689 3.1586 1.5063 0.0000 -19350.8618 2974.7459 0.0000 0.0000 1960.0215 -14410.1606 213.9771 -16370.1821 -14405.7401 209.2032 131.6338 230.3863 44663.6815 -4.4897 -4.2383
ENERGY: 215000 2.6394 6.0208 1.3954 0.0000 -19527.3835 3212.4332 0.0000 0.0000 1897.8889 -14407.0057 207.1941 -16304.8946 -14404.0958 210.6058 1378.6294 1477.9884 44720.2053 5.8517 5.9716
ENERGY: 225000 1.7147 6.9242 1.4941 0.0000 -19196.5746 2840.7756 0.0000 0.0000 1940.4724 -14405.1936 211.8430 -16345.6660 -14400.4538 209.0826 -839.3443 -735.4714 45563.7368 5.0323 5.9305
TCL: Running 50000 steps at 240 kelvin.
TCL: Setting parameter langevinTemp to 240
TCL: Running for 50000 steps
ETITLE: TS BOND ANGLE DIHED IMPRP ELECT VDW BOUNDARY MISC KINETIC TOTAL TEMP POTENTIAL TOTAL3 TEMPAVG PRESSURE GPRESSURE VOLUME PRESSAVG GPRESSAVG
ENERGY: 225000 1.7147 6.9242 1.4941 0.0000 -19196.5746 2840.7756 0.0000 0.0000 1939.5373 -14406.1287 211.7409 -16345.6660 -14402.9233 211.7409 -809.8899 -734.3505 45563.7368 -809.8899 -734.3505
ENERGY: 235000 6.0632 7.4654 1.2148 0.0000 -18452.2432 2714.9831 0.0000 0.0000 2224.1877 -13498.3290 242.8164 -15722.5167 -13493.9559 240.6400 -1.8115 98.2304 45439.0948 6.3597 6.0138
ENERGY: 245000 1.7563 8.2280 1.5244 0.0000 -18409.7807 2699.3546 0.0000 0.0000 2201.7314 -13497.1859 240.3648 -15698.9173 -13493.8317 239.4807 -146.1713 -134.2727 45952.5299 -2.9610 -2.7390
ENERGY: 255000 2.9087 7.9064 1.4374 0.0000 -18444.5092 2708.1265 0.0000 0.0000 2219.5222 -13504.6080 242.3071 -15724.1302 -13498.3960 240.8933 -191.8157 -101.6601 45795.7072 1.0395 1.3517
ENERGY: 265000 2.5838 8.6543 2.0790 0.0000 -18291.3303 2636.8516 0.0000 0.0000 2191.8478 -13449.3138 239.2858 -15641.1617 -13443.2300 241.7427 86.4457 160.4929 44744.6555 0.1340 -0.4538
ENERGY: 275000 2.2479 9.8829 1.0245 0.0000 -18368.9839 2670.9850 0.0000 0.0000 2179.5545 -13505.2891 237.9438 -15684.8436 -13500.9468 239.4660 -379.2543 -300.1070 45902.9963 6.6412 6.6856
TCL: Running 50000 steps at 270 kelvin.
TCL: Setting parameter langevinTemp to 270
TCL: Running for 50000 steps
ETITLE: TS BOND ANGLE DIHED IMPRP ELECT VDW BOUNDARY MISC KINETIC TOTAL TEMP POTENTIAL TOTAL3 TEMPAVG PRESSURE GPRESSURE VOLUME PRESSAVG GPRESSAVG
ENERGY: 275000 2.2479 9.8829 1.0245 0.0000 -18368.9839 2670.9850 0.0000 0.0000 2178.4327 -13506.4109 237.8213 -15684.8436 -13502.8916 237.8213 -374.6047 -300.2329 45902.9963 -374.6047 -300.2329
ENERGY: 285000 2.1762 8.5126 2.0836 0.0000 -17516.3870 2487.5494 0.0000 0.0000 2375.1529 -12640.9123 259.2974 -15016.0652 -12635.2206 267.1397 173.8035 261.3342 45994.6478 1.5193 2.1939
ENERGY: 295000 2.1684 9.1179 4.4737 0.0000 -17413.0164 2372.6281 0.0000 0.0000 2485.9602 -12538.6681 271.3943 -15024.6283 -12533.0525 270.7195 -517.5205 -440.0378 46488.6587 3.9081 3.0110
ENERGY: 305000 1.8422 8.4737 1.6610 0.0000 -17478.0644 2440.9460 0.0000 0.0000 2481.0541 -12544.0874 270.8587 -15025.1415 -12539.3532 269.1934 -238.9697 -112.7026 46688.0042 0.2309 0.7978
ENERGY: 315000 2.5042 4.5280 0.9646 0.0000 -17558.0713 2452.1444 0.0000 0.0000 2474.6796 -12623.2505 270.1628 -15097.9301 -12616.6233 268.0111 -9.4400 89.7679 45892.3554 7.6624 7.3254
ENERGY: 325000 3.1485 10.4870 2.8013 0.0000 -17508.2234 2424.3911 0.0000 0.0000 2437.9436 -12629.4519 266.1523 -15067.3955 -12622.1538 272.6952 -458.4152 -365.8975 46893.1035 -2.7259 -2.7503
TCL: Running 1000000 steps at 300 kelvin.
TCL: Setting parameter langevinTemp to 300
TCL: Running for 1000000 steps
ETITLE: TS BOND ANGLE DIHED IMPRP ELECT VDW BOUNDARY MISC KINETIC TOTAL TEMP POTENTIAL TOTAL3 TEMPAVG PRESSURE GPRESSURE VOLUME PRESSAVG GPRESSAVG
ENERGY: 325000 3.1485 10.4870 2.8013 0.0000 -17508.2234 2424.3911 0.0000 0.0000 2436.6954 -12630.7000 266.0160 -15067.3955 -12626.7044 266.0160 -447.9689 -363.5783 46893.1035 -447.9689 -363.5783
ENERGY: 525000 2.9167 8.0080 3.7863 0.0000 -16553.2997 2112.0552 0.0000 0.0000 2782.2256 -11644.3079 303.7378 -14426.5334 -11640.0265 298.0968 -443.1380 -376.0684 46804.2133 4.0930 4.2417
ENERGY: 725000 3.4420 13.3218 2.7593 0.0000 -16727.9313 2280.8344 0.0000 0.0000 2704.6203 -11722.9535 295.2656 -14427.5738 -11718.4110 300.4238 89.1272 217.9389 47121.8065 0.2190 -0.0518
ENERGY: 925000 3.7658 7.4230 1.3411 0.0000 -16778.1014 2314.0614 0.0000 0.0000 2661.7750 -11789.7351 290.5882 -14451.5101 -11785.6037 298.3590 374.4257 451.0454 46704.5868 -0.1824 -0.1629
ENERGY: 1125000 5.3616 6.0224 2.1724 0.0000 -16700.1533 2281.3549 0.0000 0.0000 2758.1903 -11647.0517 301.1139 -14405.2420 -11641.7111 302.2603 118.4767 208.9167 47315.3532 1.0626 2.3021
ENERGY: 1325000 2.4526 5.2590 1.4344 0.0000 -16738.1848 2238.7650 0.0000 0.0000 2698.5878 -11791.6858 294.6070 -14490.2737 -11783.5575 300.3482 -254.5506 -186.1570 47412.5250 3.6895 3.5061
TCL: Exiting due to exit command.
