Info: SIMULATION PARAMETERS:
Info: TIMESTEP               2
Info: NUMBER OF STEPS        0
Info: STEPS PER CYCLE        10
Info: PERIODIC CELL BASIS 1  31.0112 0 0
Info: PERIODIC CELL BASIS 2  0 31.2389 0
Info: PERIODIC CELL BASIS 3  0 0 31.6428
Info: PERIODIC CELL CENTER   0 0 0
Info: WRAPPING WATERS AROUND PERIODIC BOUNDARIES ON OUTPUT.
Info: WRAPPING ALL CLUSTERS AROUND PERIODIC BOUNDARIES ON OUTPUT.
Info: FIRST LDB TIMESTEP     50
Info: LAST LDB TIMESTEP     -1
Info: HOM BACKGROUND SCALING 1
Info: PME BACKGROUND SCALING 1
Info: MIN ATOMS PER PATCH    40
Info: EMPTY PATCH LOAD       40 ATOMS
Info: VELOCITY FILE          mobley_4434915_equil.vel
Info: CENTER OF MASS MOVING INITIALLY? NO
Info: DIELECTRIC             1
Info: EXCLUDE                SCALED ONE-FOUR
Info: 1-4 ELECTROSTATICS SCALED BY 0.833333
Info: MODIFIED 1-4 VDW PARAMETERS WILL BE USED
Info: DCD FILENAME           mobley_4434915_prod.dcd
Info: DCD FREQUENCY          100000
Info: DCD FIRST STEP         100000
Info: DCD FILE WILL CONTAIN UNIT CELL DATA
Info: XST FILENAME           mobley_4434915_prod.xst
Info: XST FREQUENCY          100000
Info: NO VELOCITY DCD OUTPUT
Info: NO FORCE DCD OUTPUT
Info: OUTPUT FILENAME        mobley_4434915_prod
Info: BINARY OUTPUT FILES WILL BE USED
Info: RESTART FILENAME       mobley_4434915_prod.restart
Info: RESTART FREQUENCY      100000
Info: BINARY RESTART FILES WILL BE USED
Info: CUTOFF                 9
Info: PAIRLIST DISTANCE      11
Info: PAIRLIST SHRINK RATE   0.01
Info: PAIRLIST GROW RATE     0.01
Info: PAIRLIST TRIGGER       0.3
Info: PAIRLISTS PER CYCLE    2
Info: PAIRLISTS ENABLED
Info: MARGIN                 2
Info: HYDROGEN GROUP CUTOFF  2.5
Info: PATCH DIMENSION        15.5
Info: ENERGY OUTPUT STEPS    100000
Info: ENERGY EVALUATION STEPS    100000
Info: OUTPUT ENERGY PRECISION 4
Info: CROSSTERM ENERGY INCLUDED IN DIHEDRAL
Info: TIMING OUTPUT STEPS    1000000
Info: PRESSURE OUTPUT STEPS  100000
Info: ALCHEMICAL FEP ON
Info: FEP CURRENT LAMBDA VALUE     1
Info: FEP COMPARISON LAMBDA VALUE  0.95
Info: FEP INTRA-ALCHEMICAL NON-BONDED INTERACTIONS WILL BE RETAINED
Info: FEP INTRA-ALCHEMICAL BONDED INTERACTIONS WILL BE RETAINED
Info: FEP VDW SHIFTING COEFFICIENT 5
Info: FEP ELEC. ACTIVE FOR ANNIHILATED PARTICLES BETWEEN LAMBDA = 0 AND LAMBDA = 0.5
Info: FEP ELEC. ACTIVE FOR EXNIHILATED PARTICLES BETWEEN LAMBDA = 0.5 AND LAMBDA = 1
Info: FEP VDW ACTIVE FOR ANNIHILATED PARTICLES BETWEEN LAMBDA = 0 AND LAMBDA = 1
Info: FEP VDW ACTIVE FOR EXNIHILATED PARTICLES BETWEEN LAMBDA = 0 AND LAMBDA = 1
Info: FEP BOND ACTIVE FOR ANNIHILATED PARTICLES BETWEEN LAMBDA = 1 AND LAMBDA = 1
Info: FEP BOND ACTIVE FOR EXNIHILATED PARTICLES BETWEEN LAMBDA = 0 AND LAMBDA = 0
Info: LANGEVIN DYNAMICS ACTIVE
Info: LANGEVIN TEMPERATURE   300
Info: LANGEVIN USING BBK INTEGRATOR
Info: LANGEVIN DAMPING COEFFICIENT IS 1 INVERSE PS
Info: LANGEVIN DYNAMICS APPLIED TO HYDROGENS
Info: LANGEVIN PISTON PRESSURE CONTROL ACTIVE
Info:        TARGET PRESSURE IS 1.01325 BAR
Info:     OSCILLATION PERIOD IS 50 FS
Info:             DECAY TIME IS 25 FS
Info:     PISTON TEMPERATURE IS 300 K
Info:       PRESSURE CONTROL IS GROUP-BASED
Info:    INITIAL STRAIN RATE IS 0.00080441 0.00080441 0.00080441
Info:       CELL FLUCTUATION IS ISOTROPIC
Info: PARTICLE MESH EWALD (PME) ACTIVE
Info: PME TOLERANCE               1e-06
Info: PME EWALD COEFFICIENT       0.348832
Info: PME INTERPOLATION ORDER     4
Info: PME GRID DIMENSIONS         32 32 32
Info: PME MAXIMUM GRID SPACING    1
Info: PME CALCULATION WILL BE PERFORMED ON GPU
Info: FULL ELECTROSTATIC EVALUATION FREQUENCY      2
Info: USING VERLET I (r-RESPA) MTS SCHEME.
Info: C1 SPLITTING OF LONG RANGE ELECTROSTATICS
Info: PLACING ATOMS IN PATCHES BY HYDROGEN GROUPS
Info: RIGID BONDS TO HYDROGEN : ALL
Info:         ERROR TOLERANCE : 1e-08
Info:          MAX ITERATIONS : 100
Info: RIGID WATER USING SETTLE ALGORITHM
Info: RANDOM NUMBER SEED     1742484796
Info: USE HYDROGEN BONDS?    NO
Info: Using AMBER format force field!
Info: AMBER PARM FILE        mobley_4434915.prmtop
Info: COORDINATE PDB         mobley_4434915.pdb
Info: Exclusions will be read from PARM file!
Info: SCNB (VDW SCALING)     2
Info: USING ARITHMETIC MEAN TO COMBINE L-J SIGMA PARAMETERS
Info: BINARY COORDINATES     mobley_4434915_equil.coor
Info: SUMMARY OF PARAMETERS:
Info: 4 BONDS
Info: 2 ANGLES
Info:   2 HARMONIC
Info:   0 COSINE-BASED
Info: 0 DIHEDRAL
Info: 0 IMPROPER
Info: 0 CROSSTERM
Info: 0 VDW
Info: 15 VDW_PAIRS
Info: 0 NBTHOLE_PAIRS
Info: To read alchdata from file: mobley_4434915.pdb
Info: To read alchflag data from column: 5
Info: STRUCTURE SUMMARY:
Info: 2978 ATOMS
Info: 2977 BONDS
Info: 6 ANGLES
Info: 0 DIHEDRALS
Info: 0 IMPROPERS
Info: 0 CROSSTERMS
Info: 2983 EXCLUSIONS
Info: 2976 RIGID BONDS
Info: ALCH: 0 ATOMS TO DISAPPEAR IN FINAL STATE
Info: ALCH: 5 ATOMS TO APPEAR IN FINAL STATE
Info: 5958 DEGREES OF FREEDOM
Info: 993 HYDROGEN GROUPS
Info: 4 ATOMS IN LARGEST HYDROGEN GROUP
Info: 993 MIGRATION GROUPS
Info: 4 ATOMS IN LARGEST MIGRATION GROUP
Info: TOTAL MASS = 17904.3 amu
Info: TOTAL CHARGE = -0.000100018 e
Info: MASS DENSITY = 0.969901 g/cm^3
Info: ATOM DENSITY = 0.0971482 atoms/A^3
Info: ADDED 0 IMPLICIT EXCLUSIONS
Info: NONBONDED TABLE R-SQUARED SPACING: 0.0625
Info: NONBONDED TABLE SIZE: 705 POINTS
Info: REDUCING NUMBER OF PATCHES TO IMPROVE LOAD BALANCE
Info: REMOVING COM VELOCITY 0.144125 -0.106229 0.0483644
Info: Use 3D box decompostion in PME FFT.
Info: Updated CUDA force table with 4096 elements.
Info: Updated CUDA LJ table with 5 x 5 elements.
Info: Found 8 unique exclusion lists needing 8 bytes
TCL: Running for 1500000 steps
ETITLE: TS BOND ANGLE DIHED IMPRP ELECT VDW BOUNDARY MISC KINETIC TOTAL TEMP POTENTIAL TOTALAVG TEMPAVG PRESSURE GPRESSURE VOLUME PRESSAVG GPRESSAVG
ENERGY: 0 0.6394 1.6046 0.0000 0.0000 -10747.7246 1378.2679 0.0000 0.0000 1761.0694 -7606.1433 297.4859 -9367.2127 -7606.1433 297.4859 -682.8018 -600.3563 30654.2026 -682.8018 -600.3563
ENERGY: 300000 0.2642 1.6008 0.0000 0.0000 -10819.6543 1458.8512 0.0000 0.0000 1762.9671 -7595.9711 297.8064 -9358.9381 -7586.0857 300.6243 468.8233 454.0905 30084.6295 -269.8274 -224.6280
ENERGY: 600000 0.0017 3.7959 0.0000 0.0000 -10750.1793 1387.7784 0.0000 0.0000 1791.0374 -7567.5660 302.5482 -9358.6034 -7594.6604 300.2410 -492.7579 -452.1477 30520.9281 -336.4883 -295.2127
ENERGY: 900000 0.0411 2.9005 0.0000 0.0000 -10925.8965 1477.7049 0.0000 0.0000 1745.7770 -7699.4730 294.9026 -9445.2501 -7607.2992 299.5151 26.6591 134.1311 30229.1901 -386.9996 -337.8658
ENERGY: 1200000 0.0859 1.4836 0.0000 0.0000 -11020.9744 1526.3710 0.0000 0.0000 1740.2804 -7752.7535 293.9741 -9493.0339 -7611.1931 299.4827 505.7528 527.2702 29829.0819 -295.1943 -245.3233
ENERGY: 1500000 0.0091 3.5302 0.0000 0.0000 -10815.6223 1487.0379 0.0000 0.0000 1804.2790 -7520.7661 304.7850 -9325.0452 -7601.7351 300.3734 334.3518 388.8501 30773.8835 -206.1976 -156.0235
TCL: Running FEP window   2: Lambda1 0.95   Lambda2 0.8999999999999999 [dLambda -0.050000000000000044]
TCL: Setting parameter firsttimestep to 0
TCL: Setting parameter alchLambda to 0.95
Info: NONBONDED TABLE R-SQUARED SPACING: 0.0625
Info: NONBONDED TABLE SIZE: 705 POINTS
TCL: Setting parameter alchLambda2 to 0.8999999999999999
Info: NONBONDED TABLE R-SQUARED SPACING: 0.0625
Info: NONBONDED TABLE SIZE: 705 POINTS
TCL: Running for 1500000 steps
ETITLE: TS BOND ANGLE DIHED IMPRP ELECT VDW BOUNDARY MISC KINETIC TOTAL TEMP POTENTIAL TOTALAVG TEMPAVG PRESSURE GPRESSURE VOLUME PRESSAVG GPRESSAVG
ENERGY: 0 0.0091 3.5302 0.0000 0.0000 -10815.3027 1487.3273 0.0000 0.0000 1803.3650 -7521.0712 304.6306 -9324.4362 -7521.0712 304.6306 292.3593 386.6479 30773.8835 292.3593 386.6479
ENERGY: 300000 0.1901 1.2639 0.0000 0.0000 -10961.3705 1548.8936 0.0000 0.0000 1823.9476 -7587.0754 308.1075 -9411.0230 -7581.1231 301.4213 682.3227 735.9542 30503.5114 -155.7259 -80.6325
ENERGY: 600000 0.0695 1.9063 0.0000 0.0000 -10749.7012 1403.7994 0.0000 0.0000 1765.2078 -7578.7181 298.1850 -9343.9259 -7600.1647 301.5442 -293.3254 -237.0519 30699.8526 34.3527 102.3163
ENERGY: 900000 0.2488 1.5504 0.0000 0.0000 -10896.0326 1485.8635 0.0000 0.0000 1813.8791 -7594.4908 306.4067 -9408.3699 -7594.8051 302.0554 46.0366 121.3597 30675.1064 126.3067 197.8276
ENERGY: 1200000 0.6882 1.6881 0.0000 0.0000 -10710.9430 1404.3340 0.0000 0.0000 1771.3396 -7532.8931 299.2208 -9304.2326 -7587.0791 301.9837 -294.2746 -243.1443 31030.2416 104.8726 170.1453
ENERGY: 1500000 0.1580 2.4631 0.0000 0.0000 -10849.3010 1495.9557 0.0000 0.0000 1769.7907 -7580.9335 298.9591 -9350.7242 -7582.0814 301.4439 425.3698 447.8596 30515.5465 132.6904 199.4239
TCL: Running FEP window   3: Lambda1 0.8999999999999999 Lambda2 0.8499999999999999 [dLambda -0.050000000000000044]
TCL: Setting parameter firsttimestep to 0
TCL: Setting parameter alchLambda to 0.8999999999999999
Info: NONBONDED TABLE R-SQUARED SPACING: 0.0625
Info: NONBONDED TABLE SIZE: 705 POINTS
TCL: Setting parameter alchLambda2 to 0.8499999999999999
Info: NONBONDED TABLE R-SQUARED SPACING: 0.0625
Info: NONBONDED TABLE SIZE: 705 POINTS
TCL: Running for 1500000 steps
ETITLE: TS BOND ANGLE DIHED IMPRP ELECT VDW BOUNDARY MISC KINETIC TOTAL TEMP POTENTIAL TOTALAVG TEMPAVG PRESSURE GPRESSURE VOLUME PRESSAVG GPRESSAVG
ENERGY: 0 0.1580 2.4631 0.0000 0.0000 -10849.0383 1496.0617 0.0000 0.0000 1768.9061 -7581.4495 298.8097 -9350.3556 -7581.4495 298.8097 363.1028 443.7967 30515.5465 363.1028 443.7967
ENERGY: 300000 0.2955 2.0906 0.0000 0.0000 -10903.1266 1494.3952 0.0000 0.0000 1732.9063 -7673.4390 292.7285 -9406.3453 -7637.5161 297.6083 265.2382 282.6645 30454.3978 -104.0688 -19.0982
ENERGY: 600000 1.9222 1.9878 0.0000 0.0000 -10894.5337 1489.1591 0.0000 0.0000 1821.8835 -7579.5811 307.7588 -9401.4646 -7616.3025 300.9629 10.8820 123.4698 30772.6224 -134.8075 -46.8412
ENERGY: 900000 1.5470 2.2032 0.0000 0.0000 -10738.9667 1400.0228 0.0000 0.0000 1736.3396 -7598.8540 293.3084 -9335.1936 -7619.7307 300.2148 -596.9014 -518.5735 31115.8569 -224.4804 -147.1871
ENERGY: 1200000 0.0012 0.5576 0.0000 0.0000 -10757.6581 1428.5494 0.0000 0.0000 1811.5405 -7517.0094 306.0116 -9328.5499 -7612.9141 300.1534 -144.1401 -52.0365 30618.1889 -230.6926 -150.8481
ENERGY: 1500000 0.4123 1.2205 0.0000 0.0000 -10764.8649 1384.6957 0.0000 0.0000 1793.6354 -7584.9009 302.9870 -9378.5364 -7611.1299 299.8249 -749.6181 -679.6917 31064.5010 -231.0339 -153.1720
TCL: Running FEP window   4: Lambda1 0.8499999999999999 Lambda2 0.7999999999999998 [dLambda -0.050000000000000044]
TCL: Setting parameter firsttimestep to 0
TCL: Setting parameter alchLambda to 0.8499999999999999
Info: NONBONDED TABLE R-SQUARED SPACING: 0.0625
Info: NONBONDED TABLE SIZE: 705 POINTS
TCL: Setting parameter alchLambda2 to 0.7999999999999998
Info: NONBONDED TABLE R-SQUARED SPACING: 0.0625
Info: NONBONDED TABLE SIZE: 705 POINTS
TCL: Running for 1500000 steps
ETITLE: TS BOND ANGLE DIHED IMPRP ELECT VDW BOUNDARY MISC KINETIC TOTAL TEMP POTENTIAL TOTALAVG TEMPAVG PRESSURE GPRESSURE VOLUME PRESSAVG GPRESSAVG
ENERGY: 0 0.4123 1.2205 0.0000 0.0000 -10764.6057 1384.6890 0.0000 0.0000 1792.7666 -7585.5173 302.8403 -9378.2840 -7585.5173 302.8403 -763.3891 -683.5782 31064.5010 -763.3891 -683.5782
ENERGY: 300000 0.0163 2.5870 0.0000 0.0000 -10757.9071 1407.9847 0.0000 0.0000 1740.3779 -7606.9411 293.9906 -9347.3191 -7580.3859 299.0001 -398.0672 -352.5997 30696.4315 -205.0137 -126.6725
ENERGY: 600000 0.2625 1.8276 0.0000 0.0000 -10768.0495 1381.8425 0.0000 0.0000 1756.1023 -7628.0147 296.6468 -9384.1169 -7580.0415 299.3453 -741.1347 -688.6411 30762.9990 -153.9179 -95.0725
ENERGY: 900000 0.7258 1.1939 0.0000 0.0000 -10872.4736 1518.2407 0.0000 0.0000 1819.6942 -7532.6191 307.3890 -9352.3132 -7587.7958 300.6742 309.5832 390.8986 30986.1662 -102.4157 -43.1389
ENERGY: 1200000 1.7123 0.5316 0.0000 0.0000 -10701.8536 1394.0440 0.0000 0.0000 1791.2993 -7514.2665 302.5924 -9305.5658 -7585.9529 300.4715 -259.3246 -221.6224 30733.2830 -85.6076 -26.6302
ENERGY: 1500000 1.1125 1.8156 0.0000 0.0000 -10938.9980 1536.9299 0.0000 0.0000 1826.3456 -7572.7944 308.5126 -9399.1400 -7588.5479 299.7461 576.3324 652.3248 30574.0996 -90.3827 -29.0275
TCL: Running FEP window   5: Lambda1 0.7999999999999998 Lambda2 0.7499999999999998 [dLambda -0.050000000000000044]
TCL: Setting parameter firsttimestep to 0
TCL: Setting parameter alchLambda to 0.7999999999999998
Info: NONBONDED TABLE R-SQUARED SPACING: 0.0625
Info: NONBONDED TABLE SIZE: 705 POINTS
TCL: Setting parameter alchLambda2 to 0.7499999999999998
Info: NONBONDED TABLE R-SQUARED SPACING: 0.0625
Info: NONBONDED TABLE SIZE: 705 POINTS
TCL: Running for 1500000 steps
ETITLE: TS BOND ANGLE DIHED IMPRP ELECT VDW BOUNDARY MISC KINETIC TOTAL TEMP POTENTIAL TOTALAVG TEMPAVG PRESSURE GPRESSURE VOLUME PRESSAVG GPRESSAVG
ENERGY: 0 1.1125 1.8156 0.0000 0.0000 -10938.7116 1536.6879 0.0000 0.0000 1825.4225 -7573.6731 308.3566 -9399.0956 -7573.6731 308.3566 569.3966 640.8656 30574.0996 569.3966 640.8656
ENERGY: 300000 0.0661 0.9525 0.0000 0.0000 -10883.2735 1564.4538 0.0000 0.0000 1797.9067 -7519.8945 303.7086 -9317.8012 -7577.8423 302.2471 855.7921 954.3730 30746.1559 535.3936 606.9361
ENERGY: 600000 0.5098 5.2433 0.0000 0.0000 -10860.9464 1503.0504 0.0000 0.0000 1796.3354 -7555.8075 303.4431 -9352.1429 -7577.8340 301.2069 489.4581 543.6141 30563.3598 305.5843 359.0378
ENERGY: 900000 0.1484 3.7681 0.0000 0.0000 -10936.8418 1519.6378 0.0000 0.0000 1798.9290 -7614.3585 303.8813 -9413.2875 -7586.0880 300.9429 383.6973 416.2203 30580.0459 221.3715 280.2994
ENERGY: 1200000 0.0813 1.0121 0.0000 0.0000 -10995.2496 1494.2174 0.0000 0.0000 1734.7496 -7765.1893 293.0398 -9499.9388 -7606.2334 299.4297 -173.2549 -111.5018 30811.3512 206.1400 272.3877
ENERGY: 1500000 0.3279 3.1502 0.0000 0.0000 -10761.8153 1488.7067 0.0000 0.0000 1753.9759 -7515.6545 296.2876 -9269.6304 -7604.1443 298.2680 330.7430 398.6337 31055.5123 177.9183 246.5919
TCL: Running FEP window   6: Lambda1 0.7499999999999998 Lambda2 0.6999999999999997 [dLambda -0.050000000000000044]
TCL: Setting parameter firsttimestep to 0
TCL: Setting parameter alchLambda to 0.7499999999999998
Info: NONBONDED TABLE R-SQUARED SPACING: 0.0625
Info: NONBONDED TABLE SIZE: 705 POINTS
TCL: Setting parameter alchLambda2 to 0.6999999999999997
Info: NONBONDED TABLE R-SQUARED SPACING: 0.0625
Info: NONBONDED TABLE SIZE: 705 POINTS
TCL: Running for 1500000 steps
ETITLE: TS BOND ANGLE DIHED IMPRP ELECT VDW BOUNDARY MISC KINETIC TOTAL TEMP POTENTIAL TOTALAVG TEMPAVG PRESSURE GPRESSURE VOLUME PRESSAVG GPRESSAVG
ENERGY: 0 0.3279 3.1502 0.0000 0.0000 -10761.7221 1488.6898 0.0000 0.0000 1753.0801 -7516.4741 296.1363 -9269.5542 -7516.4741 296.1363 314.8884 391.4209 31055.5123 314.8884 391.4209
ENERGY: 300000 0.6011 2.4399 0.0000 0.0000 -10750.9337 1356.5123 0.0000 0.0000 1740.2708 -7651.1096 293.9725 -9391.3804 -7564.6853 298.3977 -632.6249 -579.3769 30164.3590 194.1584 266.6709
ENERGY: 600000 0.1618 2.1681 0.0000 0.0000 -10735.2466 1397.5247 0.0000 0.0000 1781.7347 -7553.6574 300.9767 -9335.3920 -7579.0583 298.5832 -279.5959 -228.1949 30630.1196 -9.3796 51.5825
ENERGY: 900000 0.0170 2.2324 0.0000 0.0000 -10869.1851 1463.9842 0.0000 0.0000 1766.8517 -7636.0998 298.4626 -9402.9515 -7591.3403 298.6006 33.9393 56.2932 30460.6998 -60.9318 -1.6525
ENERGY: 1200000 0.1243 2.1224 0.0000 0.0000 -10809.9729 1490.9191 0.0000 0.0000 1688.0630 -7628.7441 285.1534 -9316.8071 -7588.5919 297.8498 6.5615 78.5296 31378.8262 -88.0348 -37.3859
ENERGY: 1500000 0.0164 1.1610 0.0000 0.0000 -10707.0766 1385.5860 0.0000 0.0000 1730.9710 -7589.3422 292.4016 -9320.3132 -7593.1297 298.0190 -462.9571 -388.4250 30919.1351 -161.5543 -106.3192
TCL: Running FEP window   7: Lambda1 0.6999999999999997 Lambda2 0.6499999999999997 [dLambda -0.050000000000000044]
TCL: Setting parameter firsttimestep to 0
TCL: Setting parameter alchLambda to 0.6999999999999997
Info: NONBONDED TABLE R-SQUARED SPACING: 0.0625
Info: NONBONDED TABLE SIZE: 705 POINTS
TCL: Setting parameter alchLambda2 to 0.6499999999999997
Info: NONBONDED TABLE R-SQUARED SPACING: 0.0625
Info: NONBONDED TABLE SIZE: 705 POINTS
TCL: Running for 1500000 steps
ETITLE: TS BOND ANGLE DIHED IMPRP ELECT VDW BOUNDARY MISC KINETIC TOTAL TEMP POTENTIAL TOTALAVG TEMPAVG PRESSURE GPRESSURE VOLUME PRESSAVG GPRESSAVG
ENERGY: 0 0.0164 1.1610 0.0000 0.0000 -10706.8145 1385.4687 0.0000 0.0000 1730.0655 -7590.1029 292.2486 -9320.1684 -7590.1029 292.2486 -453.4117 -389.2951 30919.1351 -453.4117 -389.2951
ENERGY: 300000 0.3252 1.0487 0.0000 0.0000 -10664.9408 1335.5875 0.0000 0.0000 1772.2075 -7555.7719 299.3674 -9327.9794 -7618.1676 297.3607 -1138.8342 -1117.4335 31407.5995 -603.8013 -568.9252
ENERGY: 600000 0.0437 1.6547 0.0000 0.0000 -11013.2220 1568.9740 0.0000 0.0000 1769.4210 -7673.1286 298.8967 -9442.5496 -7622.9386 299.2506 931.9038 924.0841 30241.7232 -205.6505 -160.6050
ENERGY: 900000 0.0514 1.1710 0.0000 0.0000 -10955.1519 1566.2461 0.0000 0.0000 1779.5311 -7608.1524 300.6045 -9387.6835 -7613.9358 300.7250 645.5003 643.8633 30987.5028 -100.6228 -54.5604
ENERGY: 1200000 0.0014 3.1417 0.0000 0.0000 -10931.7306 1478.3855 0.0000 0.0000 1744.4685 -7705.7335 294.6816 -9450.2020 -7620.5329 300.3052 -6.9185 15.7060 30464.7748 -136.3476 -93.0180
ENERGY: 1500000 0.1440 4.1143 0.0000 0.0000 -10697.1819 1416.5050 0.0000 0.0000 1793.0997 -7483.3189 302.8965 -9276.4186 -7613.3965 300.2030 -40.6343 62.6973 30678.1582 -102.5781 -56.2211
TCL: Running FEP window   8: Lambda1 0.6499999999999997 Lambda2 0.5999999999999996 [dLambda -0.050000000000000044]
TCL: Setting parameter firsttimestep to 0
TCL: Setting parameter alchLambda to 0.6499999999999997
Info: NONBONDED TABLE R-SQUARED SPACING: 0.0625
Info: NONBONDED TABLE SIZE: 705 POINTS
TCL: Setting parameter alchLambda2 to 0.5999999999999996
Info: NONBONDED TABLE R-SQUARED SPACING: 0.0625
Info: NONBONDED TABLE SIZE: 705 POINTS
TCL: Running for 1500000 steps
ETITLE: TS BOND ANGLE DIHED IMPRP ELECT VDW BOUNDARY MISC KINETIC TOTAL TEMP POTENTIAL TOTALAVG TEMPAVG PRESSURE GPRESSURE VOLUME PRESSAVG GPRESSAVG
ENERGY: 0 0.1440 4.1143 0.0000 0.0000 -10697.0482 1416.6838 0.0000 0.0000 1792.1932 -7483.9129 302.7434 -9276.1061 -7483.9129 302.7434 -6.7280 60.9831 30678.1582 -6.7280 60.9831
ENERGY: 300000 0.1381 2.2622 0.0000 0.0000 -10737.5870 1393.3177 0.0000 0.0000 1730.3282 -7611.5408 292.2930 -9341.8691 -7559.7493 299.4104 -668.5091 -677.2342 31270.9639 -367.3293 -328.0603
ENERGY: 600000 0.0320 1.6253 0.0000 0.0000 -10728.3505 1429.8107 0.0000 0.0000 1776.5979 -7520.2845 300.1090 -9296.8824 -7556.2216 301.2285 -29.0991 62.0000 30744.1241 -210.9423 -157.3956
ENERGY: 900000 0.0906 3.4045 0.0000 0.0000 -10631.1940 1307.9752 0.0000 0.0000 1752.7001 -7567.0236 296.0721 -9319.7237 -7567.0549 300.4014 -1093.8817 -1030.7014 30711.8527 -257.2971 -197.6387
ENERGY: 1200000 1.0967 1.0852 0.0000 0.0000 -10749.0106 1397.1219 0.0000 0.0000 1754.0467 -7595.6601 296.2996 -9349.7068 -7576.0013 299.9280 -170.6619 -148.1552 30096.2871 -254.6481 -208.8302
ENERGY: 1500000 0.1812 1.5952 0.0000 0.0000 -10818.0359 1431.9477 0.0000 0.0000 1825.1424 -7559.1694 308.3093 -9384.3118 -7583.4485 299.7151 -276.9496 -199.1588 30889.8368 -225.3505 -175.8125
TCL: Running FEP window   9: Lambda1 0.5999999999999996 Lambda2 0.5499999999999996 [dLambda -0.050000000000000044]
TCL: Setting parameter firsttimestep to 0
TCL: Setting parameter alchLambda to 0.5999999999999996
Info: NONBONDED TABLE R-SQUARED SPACING: 0.0625
Info: NONBONDED TABLE SIZE: 705 POINTS
TCL: Setting parameter alchLambda2 to 0.5499999999999996
Info: NONBONDED TABLE R-SQUARED SPACING: 0.0625
Info: NONBONDED TABLE SIZE: 705 POINTS
TCL: Running for 1500000 steps
ETITLE: TS BOND ANGLE DIHED IMPRP ELECT VDW BOUNDARY MISC KINETIC TOTAL TEMP POTENTIAL TOTALAVG TEMPAVG PRESSURE GPRESSURE VOLUME PRESSAVG GPRESSAVG
ENERGY: 0 0.1812 1.5952 0.0000 0.0000 -10818.2163 1432.0753 0.0000 0.0000 1824.2750 -7560.0895 308.1628 -9384.3645 -7560.0895 308.1628 -283.5537 -202.4098 30889.8368 -283.5537 -202.4098
ENERGY: 300000 0.2246 0.4975 0.0000 0.0000 -10839.5051 1417.5374 0.0000 0.0000 1740.0471 -7681.1984 293.9347 -9421.2455 -7623.4063 300.3100 -471.6210 -444.8948 30935.5589 -35.1774 -3.8317
ENERGY: 600000 0.2541 1.6677 0.0000 0.0000 -10842.6058 1462.8032 0.0000 0.0000 1814.5629 -7563.3179 306.5222 -9377.8807 -7599.6044 301.9848 104.3932 185.3622 30650.2009 78.6460 104.8186
ENERGY: 900000 1.3922 0.9638 0.0000 0.0000 -10779.4561 1452.9277 0.0000 0.0000 1769.2547 -7554.9177 298.8686 -9324.1724 -7579.6401 301.6411 181.1494 253.8045 30614.8181 162.9446 198.3094
ENERGY: 1200000 0.8348 1.0913 0.0000 0.0000 -10745.4572 1464.9180 0.0000 0.0000 1797.4900 -7481.1231 303.6382 -9278.6131 -7576.2560 300.9672 67.2915 136.6220 31016.5996 90.7321 131.4306
ENERGY: 1500000 0.0027 0.8950 0.0000 0.0000 -10817.7086 1428.6582 0.0000 0.0000 1754.2159 -7633.9368 296.3282 -9388.1527 -7577.0525 301.3242 -371.9808 -330.3374 30866.2342 66.4239 108.7693
TCL: Running FEP window  10: Lambda1 0.5499999999999996 Lambda2 0.4999999999999996 [dLambda -0.04999999999999999]
TCL: Setting parameter firsttimestep to 0
TCL: Setting parameter alchLambda to 0.5499999999999996
Info: NONBONDED TABLE R-SQUARED SPACING: 0.0625
Info: NONBONDED TABLE SIZE: 705 POINTS
TCL: Setting parameter alchLambda2 to 0.4999999999999996
Info: NONBONDED TABLE R-SQUARED SPACING: 0.0625
Info: NONBONDED TABLE SIZE: 705 POINTS
TCL: Running for 1500000 steps
ETITLE: TS BOND ANGLE DIHED IMPRP ELECT VDW BOUNDARY MISC KINETIC TOTAL TEMP POTENTIAL TOTALAVG TEMPAVG PRESSURE GPRESSURE VOLUME PRESSAVG GPRESSAVG
ENERGY: 0 0.0027 0.8950 0.0000 0.0000 -10817.7113 1428.6640 0.0000 0.0000 1753.3012 -7634.8484 296.1736 -9388.1496 -7634.8484 296.1736 -408.3756 -334.4629 30866.2342 -408.3756 -334.4629
ENERGY: 300000 0.4947 1.7943 0.0000 0.0000 -10660.6634 1347.7847 0.0000 0.0000 1752.5455 -7558.0442 296.0460 -9310.5897 -7637.0248 296.1009 -744.6285 -712.7361 30931.4536 -213.2331 -184.1827
ENERGY: 600000 1.2587 4.9954 0.0000 0.0000 -10795.6530 1451.1098 0.0000 0.0000 1827.8608 -7510.4282 308.7685 -9338.2890 -7620.0211 298.9446 -5.6246 87.6987 30762.3876 -148.3735 -106.6686
ENERGY: 900000 0.0263 1.1923 0.0000 0.0000 -10703.2806 1386.3757 0.0000 0.0000 1784.6779 -7531.0084 301.4739 -9315.6863 -7609.3880 299.1833 -446.1596 -373.0075 30868.1100 -181.3055 -126.0318
ENERGY: 1200000 0.2659 1.1254 0.0000 0.0000 -10751.8296 1421.5256 0.0000 0.0000 1698.9670 -7629.9457 286.9953 -9328.9127 -7604.5000 299.3863 -109.0749 -110.6366 30645.7546 -133.3271 -82.3837
ENERGY: 1500000 0.0794 0.6706 0.0000 0.0000 -10820.9446 1429.7366 0.0000 0.0000 1786.3702 -7604.0878 301.7598 -9390.4580 -7606.8297 299.4003 -438.6508 -423.5833 31013.4076 -185.4496 -137.0586
TCL: Running FEP window  11: Lambda1 0.4999999999999996 Lambda2 0.4499999999999996 [dLambda -0.04999999999999999]
TCL: Setting parameter firsttimestep to 0
TCL: Setting parameter alchLambda to 0.4999999999999996
Info: NONBONDED TABLE R-SQUARED SPACING: 0.0625
Info: NONBONDED TABLE SIZE: 705 POINTS
TCL: Setting parameter alchLambda2 to 0.4499999999999996
Info: NONBONDED TABLE R-SQUARED SPACING: 0.0625
Info: NONBONDED TABLE SIZE: 705 POINTS
TCL: Running for 1500000 steps
ETITLE: TS BOND ANGLE DIHED IMPRP ELECT VDW BOUNDARY MISC KINETIC TOTAL TEMP POTENTIAL TOTALAVG TEMPAVG PRESSURE GPRESSURE VOLUME PRESSAVG GPRESSAVG
ENERGY: 0 0.0794 0.6706 0.0000 0.0000 -10821.0894 1429.8499 0.0000 0.0000 1785.4601 -7605.0295 301.6060 -9390.4895 -7605.0295 301.6060 -505.2117 -427.8185 31013.4076 -505.2117 -427.8185
ENERGY: 300000 0.1847 2.5925 0.0000 0.0000 -10605.2890 1336.0041 0.0000 0.0000 1824.7781 -7441.7297 308.2478 -9266.5078 -7573.0164 302.2840 -752.1622 -685.6087 31072.6203 -600.7084 -514.2192
ENERGY: 600000 0.9262 1.7454 0.0000 0.0000 -10721.7039 1400.5928 0.0000 0.0000 1792.2699 -7526.1696 302.7564 -9318.4395 -7573.5025 302.5461 -420.6692 -328.8796 31048.5035 -514.1622 -424.1254
ENERGY: 900000 0.3798 1.6365 0.0000 0.0000 -10712.6088 1361.0150 0.0000 0.0000 1783.0769 -7566.5006 301.2035 -9349.5775 -7580.8146 302.5393 -776.0284 -707.9462 30603.0462 -442.5458 -356.4627
ENERGY: 1200000 0.4027 0.9213 0.0000 0.0000 -10907.7843 1491.3807 0.0000 0.0000 1750.0529 -7665.0268 295.6249 -9415.0797 -7591.3954 301.1239 -48.0611 33.8889 30796.0507 -281.9145 -199.2112
ENERGY: 1500000 0.0009 0.6738 0.0000 0.0000 -10580.3697 1281.2748 0.0000 0.0000 1814.1315 -7484.2887 306.4493 -9298.4202 -7584.8466 301.4518 -1258.5572 -1180.0651 30977.8896 -232.6140 -151.5032
TCL: Running FEP window  12: Lambda1 0.4499999999999996 Lambda2 0.39999999999999963 [dLambda -0.04999999999999999]
TCL: Setting parameter firsttimestep to 0
TCL: Setting parameter alchLambda to 0.4499999999999996
Info: NONBONDED TABLE R-SQUARED SPACING: 0.0625
Info: NONBONDED TABLE SIZE: 705 POINTS
TCL: Setting parameter alchLambda2 to 0.39999999999999963
Info: NONBONDED TABLE R-SQUARED SPACING: 0.0625
Info: NONBONDED TABLE SIZE: 705 POINTS
TCL: Running for 1500000 steps
ETITLE: TS BOND ANGLE DIHED IMPRP ELECT VDW BOUNDARY MISC KINETIC TOTAL TEMP POTENTIAL TOTALAVG TEMPAVG PRESSURE GPRESSURE VOLUME PRESSAVG GPRESSAVG
ENERGY: 0 0.0009 0.6738 0.0000 0.0000 -10580.3702 1281.2691 0.0000 0.0000 1813.2414 -7485.1850 306.2989 -9298.4263 -7485.1850 306.2989 -1270.1933 -1184.0803 30977.8896 -1270.1933 -1184.0803
ENERGY: 300000 0.2182 0.6505 0.0000 0.0000 -10866.7152 1420.7551 0.0000 0.0000 1796.8174 -7648.2740 303.5246 -9445.0914 -7555.1846 303.3710 -431.2833 -363.5152 30777.2932 -552.2738 -461.5999
ENERGY: 600000 0.1222 1.6101 0.0000 0.0000 -10725.7696 1387.6186 0.0000 0.0000 1785.9399 -7550.4788 301.6871 -9336.4188 -7572.3702 303.4835 -547.6149 -493.6060 30807.6217 -380.0253 -308.4450
ENERGY: 900000 1.4407 1.4975 0.0000 0.0000 -10706.2976 1368.9637 0.0000 0.0000 1762.7016 -7571.6940 297.7616 -9334.3957 -7569.4526 302.7287 -695.5502 -664.5631 31181.0322 -345.0632 -281.2843
ENERGY: 1200000 0.2151 3.7355 0.0000 0.0000 -10883.0441 1463.5558 0.0000 0.0000 1767.4222 -7648.1156 298.5590 -9415.5378 -7575.8911 302.5968 77.9879 109.8748 30312.9918 -335.2745 -271.6865
ENERGY: 1500000 0.0917 0.4857 0.0000 0.0000 -10968.4967 1526.4743 0.0000 0.0000 1796.7810 -7644.6639 303.5184 -9441.4450 -7588.1833 302.7561 509.2356 549.8964 30185.6425 -245.2244 -184.3319
TCL: Running FEP window  13: Lambda1 0.39999999999999963 Lambda2 0.34999999999999964 [dLambda -0.04999999999999999]
TCL: Setting parameter firsttimestep to 0
TCL: Setting parameter alchLambda to 0.39999999999999963
Info: NONBONDED TABLE R-SQUARED SPACING: 0.0625
Info: NONBONDED TABLE SIZE: 705 POINTS
TCL: Setting parameter alchLambda2 to 0.34999999999999964
Info: NONBONDED TABLE R-SQUARED SPACING: 0.0625
Info: NONBONDED TABLE SIZE: 705 POINTS
TCL: Running for 1500000 steps
ETITLE: TS BOND ANGLE DIHED IMPRP ELECT VDW BOUNDARY MISC KINETIC TOTAL TEMP POTENTIAL TOTALAVG TEMPAVG PRESSURE GPRESSURE VOLUME PRESSAVG GPRESSAVG
ENERGY: 0 0.0917 0.4857 0.0000 0.0000 -10968.4964 1526.3878 0.0000 0.0000 1795.8890 -7645.6423 303.3677 -9441.5313 -7645.6423 303.3677 456.8906 547.2340 30185.6425 456.8906 547.2340
ENERGY: 300000 0.0019 5.1997 0.0000 0.0000 -10835.8188 1440.7844 0.0000 0.0000 1798.5613 -7591.2715 303.8191 -9389.8328 -7597.4531 301.7625 63.4500 41.8011 30372.7070 325.1698 368.8927
ENERGY: 600000 0.1562 0.5484 0.0000 0.0000 -10869.6355 1441.4740 0.0000 0.0000 1811.5537 -7615.9033 306.0139 -9427.4570 -7583.6008 302.7939 -466.2972 -426.2609 30992.0577 285.8169 337.3372
ENERGY: 900000 0.0228 0.6580 0.0000 0.0000 -10926.4515 1531.6227 0.0000 0.0000 1778.6168 -7615.5312 300.4500 -9394.1480 -7592.1145 302.4704 526.8327 582.3887 30482.8674 301.3595 357.8178
ENERGY: 1200000 0.0311 1.3105 0.0000 0.0000 -10669.5708 1318.3937 0.0000 0.0000 1763.4326 -7586.4029 297.8851 -9349.8355 -7586.0399 301.5966 -1002.8420 -959.1070 30823.9109 296.5806 347.7883
ENERGY: 1500000 0.5091 1.2928 0.0000 0.0000 -10865.5888 1449.2738 0.0000 0.0000 1763.7279 -7650.7852 297.9350 -9414.5132 -7585.0608 301.6275 -362.5749 -280.2879 31107.1119 223.8671 280.9773
TCL: Running FEP window  14: Lambda1 0.34999999999999964 Lambda2 0.29999999999999966 [dLambda -0.04999999999999999]
TCL: Setting parameter firsttimestep to 0
TCL: Setting parameter alchLambda to 0.34999999999999964
Info: NONBONDED TABLE R-SQUARED SPACING: 0.0625
Info: NONBONDED TABLE SIZE: 705 POINTS
TCL: Setting parameter alchLambda2 to 0.29999999999999966
Info: NONBONDED TABLE R-SQUARED SPACING: 0.0625
Info: NONBONDED TABLE SIZE: 705 POINTS
TCL: Running for 1500000 steps
ETITLE: TS BOND ANGLE DIHED IMPRP ELECT VDW BOUNDARY MISC KINETIC TOTAL TEMP POTENTIAL TOTALAVG TEMPAVG PRESSURE GPRESSURE VOLUME PRESSAVG GPRESSAVG
ENERGY: 0 0.5091 1.2928 0.0000 0.0000 -10865.5880 1448.5916 0.0000 0.0000 1762.8639 -7652.3306 297.7890 -9415.1945 -7652.3306 297.7890 -384.2508 -288.9716 31107.1119 -384.2508 -288.9716
ENERGY: 300000 0.5221 0.2954 0.0000 0.0000 -10777.7487 1396.3259 0.0000 0.0000 1802.3437 -7578.2616 304.4581 -9380.6053 -7682.0987 295.6323 -609.1783 -555.1654 30926.5369 -352.4421 -288.5963
ENERGY: 600000 1.9586 2.5982 0.0000 0.0000 -10815.4848 1451.9083 0.0000 0.0000 1761.3259 -7597.6937 297.5292 -9359.0196 -7655.0246 298.0079 145.4778 276.0411 30258.2658 98.9235 167.8965
ENERGY: 900000 0.0071 0.5848 0.0000 0.0000 -10754.1782 1475.6678 0.0000 0.0000 1808.2615 -7469.6569 305.4577 -9277.9184 -7618.3355 298.7756 117.3655 194.2175 30921.9208 123.5627 197.9130
ENERGY: 1200000 0.1065 2.5946 0.0000 0.0000 -10822.7040 1433.8224 0.0000 0.0000 1763.6794 -7622.5011 297.9268 -9386.1805 -7607.8901 299.6072 -553.5232 -435.9555 31123.0578 26.7835 99.6093
ENERGY: 1500000 0.0125 1.8803 0.0000 0.0000 -10856.2325 1457.0446 0.0000 0.0000 1818.6964 -7578.5986 307.2204 -9397.2950 -7609.5132 299.4486 -261.9082 -140.5747 30722.3090 -47.1374 29.1805
TCL: Running FEP window  15: Lambda1 0.29999999999999966 Lambda2 0.24999999999999967 [dLambda -0.04999999999999999]
TCL: Setting parameter firsttimestep to 0
TCL: Setting parameter alchLambda to 0.29999999999999966
Info: NONBONDED TABLE R-SQUARED SPACING: 0.0625
Info: NONBONDED TABLE SIZE: 705 POINTS
TCL: Setting parameter alchLambda2 to 0.24999999999999967
Info: NONBONDED TABLE R-SQUARED SPACING: 0.0625
Info: NONBONDED TABLE SIZE: 705 POINTS
TCL: Running for 1500000 steps
ETITLE: TS BOND ANGLE DIHED IMPRP ELECT VDW BOUNDARY MISC KINETIC TOTAL TEMP POTENTIAL TOTALAVG TEMPAVG PRESSURE GPRESSURE VOLUME PRESSAVG GPRESSAVG
ENERGY: 0 0.0125 1.8803 0.0000 0.0000 -10856.2324 1456.9970 0.0000 0.0000 1817.8257 -7579.5169 307.0733 -9397.3426 -7579.5169 307.0733 -234.5708 -141.0316 30722.3090 -234.5708 -141.0316
ENERGY: 300000 0.3180 1.1123 0.0000 0.0000 -10748.3673 1436.2995 0.0000 0.0000 1752.4617 -7558.1758 296.0318 -9310.6375 -7576.4967 300.9471 -334.9460 -286.4035 31300.5954 -26.7821 27.3513
ENERGY: 600000 0.3238 0.9256 0.0000 0.0000 -10812.1573 1397.4594 0.0000 0.0000 1753.7367 -7659.7119 296.2472 -9413.4485 -7602.1370 300.0618 -675.3643 -594.1180 30747.5123 -81.4679 -28.1322
ENERGY: 900000 1.0314 1.4778 0.0000 0.0000 -10734.3234 1404.9528 0.0000 0.0000 1775.5857 -7551.2756 299.9380 -9326.8613 -7591.4902 301.2677 -367.1902 -248.9909 30796.9090 -111.5603 -52.6956
ENERGY: 1200000 0.1765 0.9906 0.0000 0.0000 -10910.7828 1471.0836 0.0000 0.0000 1804.1589 -7634.3732 304.7647 -9438.5321 -7589.8552 302.3045 160.9474 220.1119 30004.7992 -32.1872 31.8722
ENERGY: 1500000 1.7266 0.9250 0.0000 0.0000 -10662.9038 1353.5222 0.0000 0.0000 1806.8255 -7499.9045 305.2152 -9306.7300 -7586.4843 302.1859 -947.4007 -848.7758 31169.7248 -38.5386 28.5199
TCL: Running FEP window  16: Lambda1 0.24999999999999967 Lambda2 0.19999999999999968 [dLambda -0.04999999999999999]
TCL: Setting parameter firsttimestep to 0
TCL: Setting parameter alchLambda to 0.24999999999999967
Info: NONBONDED TABLE R-SQUARED SPACING: 0.0625
Info: NONBONDED TABLE SIZE: 705 POINTS
TCL: Setting parameter alchLambda2 to 0.19999999999999968
Info: NONBONDED TABLE R-SQUARED SPACING: 0.0625
Info: NONBONDED TABLE SIZE: 705 POINTS
TCL: Running for 1500000 steps
ETITLE: TS BOND ANGLE DIHED IMPRP ELECT VDW BOUNDARY MISC KINETIC TOTAL TEMP POTENTIAL TOTALAVG TEMPAVG PRESSURE GPRESSURE VOLUME PRESSAVG GPRESSAVG
ENERGY: 0 1.7266 0.9250 0.0000 0.0000 -10662.9044 1353.7439 0.0000 0.0000 1805.9592 -7500.5498 305.0688 -9306.5090 -7500.5498 305.0688 -938.6622 -850.0289 31169.7248 -938.6622 -850.0289
ENERGY: 300000 0.1235 4.6758 0.0000 0.0000 -10870.5086 1466.7505 0.0000 0.0000 1821.1311 -7577.8277 307.6317 -9398.9588 -7546.5245 301.5480 -41.4960 42.6907 30770.6433 -250.2758 -182.7713
ENERGY: 600000 1.0791 0.5024 0.0000 0.0000 -10754.6702 1419.6221 0.0000 0.0000 1770.3323 -7563.1343 299.0506 -9333.4666 -7570.3022 300.3203 -116.5051 -45.0626 30631.9697 -12.2013 72.2869
ENERGY: 900000 0.0851 4.1897 0.0000 0.0000 -10693.3024 1405.4286 0.0000 0.0000 1773.2450 -7510.3540 299.5426 -9283.5990 -7579.2805 299.0986 -286.0710 -269.8914 30904.3308 -94.3756 -22.4804
ENERGY: 1200000 0.0573 4.3563 0.0000 0.0000 -10869.1167 1505.3926 0.0000 0.0000 1817.8585 -7541.4520 307.0789 -9359.3105 -7580.5326 299.8765 225.0316 396.9587 30808.3446 -124.9708 -48.5953
ENERGY: 1500000 0.7294 1.8222 0.0000 0.0000 -10872.8182 1461.6590 0.0000 0.0000 1827.7196 -7580.8880 308.7447 -9408.6076 -7574.8602 300.4545 -190.1579 -157.1246 30766.8340 -130.6310 -67.7884
TCL: Running FEP window  17: Lambda1 0.19999999999999968 Lambda2 0.1499999999999997 [dLambda -0.04999999999999999]
TCL: Setting parameter firsttimestep to 0
TCL: Setting parameter alchLambda to 0.19999999999999968
Info: NONBONDED TABLE R-SQUARED SPACING: 0.0625
Info: NONBONDED TABLE SIZE: 705 POINTS
TCL: Setting parameter alchLambda2 to 0.1499999999999997
Info: NONBONDED TABLE R-SQUARED SPACING: 0.0625
Info: NONBONDED TABLE SIZE: 705 POINTS
TCL: Running for 1500000 steps
ETITLE: TS BOND ANGLE DIHED IMPRP ELECT VDW BOUNDARY MISC KINETIC TOTAL TEMP POTENTIAL TOTALAVG TEMPAVG PRESSURE GPRESSURE VOLUME PRESSAVG GPRESSAVG
ENERGY: 0 0.7294 1.8222 0.0000 0.0000 -10872.8172 1461.8049 0.0000 0.0000 1826.8727 -7581.5880 308.6016 -9408.4607 -7581.5880 308.6016 -234.6959 -159.5564 30766.8340 -234.6959 -159.5564
ENERGY: 300000 0.0015 1.4071 0.0000 0.0000 -10652.2377 1282.2456 0.0000 0.0000 1760.7689 -7607.8146 297.4351 -9368.5835 -7621.1351 299.0404 -1265.8792 -1113.6367 30274.8824 -608.9448 -495.7146
ENERGY: 600000 0.7029 2.0415 0.0000 0.0000 -10834.4149 1477.5988 0.0000 0.0000 1748.4940 -7605.5777 295.3616 -9354.0716 -7616.0244 298.5347 -25.9846 2.4290 31018.3253 -156.6431 -96.3896
ENERGY: 900000 0.0061 1.9832 0.0000 0.0000 -10891.7673 1433.5271 0.0000 0.0000 1729.4991 -7726.7518 292.1529 -9456.2509 -7616.2457 298.4478 -409.2250 -314.7649 30406.0397 -48.4882 7.8212
ENERGY: 1200000 0.0088 1.7693 0.0000 0.0000 -10909.0186 1472.8183 0.0000 0.0000 1776.6195 -7657.8028 300.1126 -9434.4223 -7621.8541 299.1258 -106.4771 -78.7920 30574.0303 -44.7389 8.2358
ENERGY: 1500000 0.0461 1.0445 0.0000 0.0000 -10717.4607 1351.6628 0.0000 0.0000 1778.1250 -7586.5823 300.3670 -9364.7073 -7613.8867 299.2293 -934.1939 -830.1481 30841.3311 -148.3569 -91.3325
TCL: Running FEP window  18: Lambda1 0.1499999999999997 Lambda2 0.09999999999999969 [dLambda -0.05 ]
TCL: Setting parameter firsttimestep to 0
TCL: Setting parameter alchLambda to 0.1499999999999997
Info: NONBONDED TABLE R-SQUARED SPACING: 0.0625
Info: NONBONDED TABLE SIZE: 705 POINTS
TCL: Setting parameter alchLambda2 to 0.09999999999999969
Info: NONBONDED TABLE R-SQUARED SPACING: 0.0625
Info: NONBONDED TABLE SIZE: 705 POINTS
TCL: Running for 1500000 steps
ETITLE: TS BOND ANGLE DIHED IMPRP ELECT VDW BOUNDARY MISC KINETIC TOTAL TEMP POTENTIAL TOTALAVG TEMPAVG PRESSURE GPRESSURE VOLUME PRESSAVG GPRESSAVG
ENERGY: 0 0.0461 1.0445 0.0000 0.0000 -10717.4620 1351.6707 0.0000 0.0000 1777.2009 -7587.4999 300.2109 -9364.7008 -7587.4999 300.2109 -917.8603 -834.5021 30841.3311 -917.8603 -834.5021
ENERGY: 300000 0.0190 2.8059 0.0000 0.0000 -10837.9209 1420.2941 0.0000 0.0000 1823.4652 -7591.3368 308.0260 -9414.8020 -7548.3094 305.6384 -621.6291 -563.0596 30998.9555 -423.3831 -361.4194
ENERGY: 600000 0.2831 3.8515 0.0000 0.0000 -10875.3480 1490.5722 0.0000 0.0000 1853.7326 -7526.9086 313.1389 -9380.6412 -7567.1831 305.7415 257.4780 407.7356 30467.9080 -455.5925 -389.6525
ENERGY: 900000 0.0019 1.5864 0.0000 0.0000 -10719.6319 1383.6870 0.0000 0.0000 1807.8173 -7526.5393 305.3827 -9334.3566 -7569.1956 304.1811 -676.5612 -601.1242 30840.2162 -415.7941 -338.7679
ENERGY: 1200000 0.0700 1.7141 0.0000 0.0000 -10883.3798 1503.5554 0.0000 0.0000 1788.7030 -7589.3373 302.1538 -9378.0403 -7570.6117 304.2394 505.1169 549.4393 30401.6115 -290.0620 -215.1356
ENERGY: 1500000 0.4716 1.6903 0.0000 0.0000 -10841.1729 1445.0080 0.0000 0.0000 1720.5925 -7673.4105 290.6484 -9394.0030 -7582.7014 303.2689 -386.3281 -262.4642 30554.7578 -285.6491 -215.1359
TCL: Running FEP window  19: Lambda1 0.09999999999999969 Lambda2 0.049999999999999684 [dLambda -0.05 ]
TCL: Setting parameter firsttimestep to 0
TCL: Setting parameter alchLambda to 0.09999999999999969
Info: NONBONDED TABLE R-SQUARED SPACING: 0.0625
Info: NONBONDED TABLE SIZE: 705 POINTS
TCL: Setting parameter alchLambda2 to 0.049999999999999684
Info: NONBONDED TABLE R-SQUARED SPACING: 0.0625
Info: NONBONDED TABLE SIZE: 705 POINTS
TCL: Running for 1500000 steps
ETITLE: TS BOND ANGLE DIHED IMPRP ELECT VDW BOUNDARY MISC KINETIC TOTAL TEMP POTENTIAL TOTALAVG TEMPAVG PRESSURE GPRESSURE VOLUME PRESSAVG GPRESSAVG
ENERGY: 0 0.4716 1.6903 0.0000 0.0000 -10841.1727 1445.1937 0.0000 0.0000 1719.7261 -7674.0910 290.5020 -9393.8172 -7674.0910 290.5020 -348.6882 -261.6461 30554.7578 -348.6882 -261.6461
ENERGY: 300000 0.2600 0.6020 0.0000 0.0000 -10728.7206 1435.7997 0.0000 0.0000 1791.2210 -7500.8379 302.5792 -9292.0589 -7600.0368 298.1497 166.8419 264.8086 30536.7737 43.6115 122.9041
ENERGY: 600000 0.1550 1.2148 0.0000 0.0000 -10818.7930 1460.1045 0.0000 0.0000 1750.9912 -7606.3275 295.7834 -9357.3187 -7598.3897 298.8631 -33.5224 61.8894 30575.5307 -41.5496 42.6111
ENERGY: 900000 0.1259 0.8979 0.0000 0.0000 -10661.6488 1336.8233 0.0000 0.0000 1841.5092 -7482.2925 311.0740 -9323.8017 -7586.2728 299.3071 -747.6496 -666.7689 30661.6697 -77.0088 8.0118
ENERGY: 1200000 0.0014 2.0326 0.0000 0.0000 -10844.1301 1454.8363 0.0000 0.0000 1732.2448 -7655.0150 292.6167 -9387.2598 -7586.2551 299.0597 122.3817 239.5514 30040.4651 -33.8411 58.7845
ENERGY: 1500000 0.0078 1.1132 0.0000 0.0000 -10821.9436 1456.2446 0.0000 0.0000 1796.2814 -7568.2966 303.4340 -9364.5780 -7587.2044 299.1584 -198.6742 -156.4373 31017.2844 46.4662 136.3714
TCL: Running FEP window  20: Lambda1 0.049999999999999684 Lambda2 0.0    [dLambda -0.049999999999999684]
TCL: Setting parameter firsttimestep to 0
TCL: Setting parameter alchLambda to 0.049999999999999684
Info: NONBONDED TABLE R-SQUARED SPACING: 0.0625
Info: NONBONDED TABLE SIZE: 705 POINTS
TCL: Setting parameter alchLambda2 to 0.0
Info: NONBONDED TABLE R-SQUARED SPACING: 0.0625
Info: NONBONDED TABLE SIZE: 705 POINTS
TCL: Running for 1500000 steps
ETITLE: TS BOND ANGLE DIHED IMPRP ELECT VDW BOUNDARY MISC KINETIC TOTAL TEMP POTENTIAL TOTALAVG TEMPAVG PRESSURE GPRESSURE VOLUME PRESSAVG GPRESSAVG
ENERGY: 0 0.0078 1.1132 0.0000 0.0000 -10821.9460 1456.3945 0.0000 0.0000 1795.3943 -7569.0362 303.2842 -9364.4305 -7569.0362 303.2842 -228.9632 -155.9058 31017.2844 -228.9632 -155.9058
ENERGY: 300000 0.0501 4.3383 0.0000 0.0000 -10691.3479 1360.9899 0.0000 0.0000 1754.5011 -7571.4686 296.3763 -9325.9697 -7552.7998 302.3481 -609.1539 -551.7657 30686.6708 -152.9333 -94.5641
ENERGY: 600000 0.3621 1.5845 0.0000 0.0000 -10926.6436 1461.4826 0.0000 0.0000 1792.8005 -7670.4139 302.8460 -9463.2144 -7594.9640 301.4503 -159.0695 -148.3123 30335.9001 -116.3573 -57.6945
ENERGY: 900000 1.0925 0.6394 0.0000 0.0000 -10841.1416 1424.7159 0.0000 0.0000 1778.3708 -7636.3229 300.4085 -9414.6938 -7591.5132 300.9554 -647.6315 -537.8892 30763.6755 -169.4505 -106.2400
ENERGY: 1200000 1.8272 1.4957 0.0000 0.0000 -10863.8919 1476.0273 0.0000 0.0000 1777.7501 -7606.7916 300.3036 -9384.5417 -7597.2508 300.5218 198.2106 214.3582 30338.0035 -26.4254 40.0255
ENERGY: 1500000 0.1231 0.6464 0.0000 0.0000 -10839.8271 1447.6731 0.0000 0.0000 1812.8430 -7578.5416 306.2316 -9391.3845 -7603.0441 301.4541 -294.2974 -239.5622 30838.9283 8.6240 75.5554
TCL: Exiting due to exit command.
