Info: SIMULATION PARAMETERS:
Info: TIMESTEP               2
Info: NUMBER OF STEPS        0
Info: STEPS PER CYCLE        10
Info: PERIODIC CELL BASIS 1  41.123 0 0
Info: PERIODIC CELL BASIS 2  0 41.432 0
Info: PERIODIC CELL BASIS 3  0 0 39.561
Info: PERIODIC CELL CENTER   0 0 0
Info: WRAPPING WATERS AROUND PERIODIC BOUNDARIES ON OUTPUT.
Info: WRAPPING ALL CLUSTERS AROUND PERIODIC BOUNDARIES ON OUTPUT.
Info: FIRST LDB TIMESTEP     50
Info: LAST LDB TIMESTEP     -1
Info: HOM BACKGROUND SCALING 1
Info: PME BACKGROUND SCALING 1
Info: MIN ATOMS PER PATCH    40
Info: EMPTY PATCH LOAD       40 ATOMS
Info: INITIAL TEMPERATURE    300
Info: CENTER OF MASS MOVING INITIALLY? NO
Info: DIELECTRIC             1
Info: EXCLUDE                SCALED ONE-FOUR
Info: 1-4 ELECTROSTATICS SCALED BY 0.833333
Info: MODIFIED 1-4 VDW PARAMETERS WILL BE USED
Info: DCD FILENAME           mobley_5690766_min.dcd
Info: DCD FREQUENCY          5000
Info: DCD FIRST STEP         5000
Info: DCD FILE WILL CONTAIN UNIT CELL DATA
Info: XST FILENAME           mobley_5690766_min.xst
Info: XST FREQUENCY          5000
Info: NO VELOCITY DCD OUTPUT
Info: NO FORCE DCD OUTPUT
Info: OUTPUT FILENAME        mobley_5690766_min
Info: BINARY OUTPUT FILES WILL BE USED
Info: RESTART FILENAME       mobley_5690766_min.restart
Info: RESTART FREQUENCY      5000
Info: BINARY RESTART FILES WILL BE USED
Info: CUTOFF                 9
Info: PAIRLIST DISTANCE      11
Info: PAIRLIST SHRINK RATE   0.01
Info: PAIRLIST GROW RATE     0.01
Info: PAIRLIST TRIGGER       0.3
Info: PAIRLISTS PER CYCLE    2
Info: PAIRLISTS ENABLED
Info: MARGIN                 8
Info: HYDROGEN GROUP CUTOFF  2.5
Info: PATCH DIMENSION        21.5
Info: ENERGY OUTPUT STEPS    5000
Info: ENERGY EVALUATION STEPS    5000
Info: OUTPUT ENERGY PRECISION 4
Info: CROSSTERM ENERGY INCLUDED IN DIHEDRAL
Info: TIMING OUTPUT STEPS    50000
Info: PRESSURE OUTPUT STEPS  5000
Info: LANGEVIN DYNAMICS ACTIVE
Info: LANGEVIN TEMPERATURE   300
Info: LANGEVIN USING BBK INTEGRATOR
Info: LANGEVIN DAMPING COEFFICIENT IS 1 INVERSE PS
Info: LANGEVIN DYNAMICS APPLIED TO HYDROGENS
Info: LANGEVIN PISTON PRESSURE CONTROL ACTIVE
Info:        TARGET PRESSURE IS 1.01325 BAR
Info:     OSCILLATION PERIOD IS 50 FS
Info:             DECAY TIME IS 25 FS
Info:     PISTON TEMPERATURE IS 300 K
Info:       PRESSURE CONTROL IS GROUP-BASED
Info:    INITIAL STRAIN RATE IS 0 0 0
Info:       CELL FLUCTUATION IS ISOTROPIC
Info: PARTICLE MESH EWALD (PME) ACTIVE
Info: PME TOLERANCE               1e-06
Info: PME EWALD COEFFICIENT       0.348832
Info: PME INTERPOLATION ORDER     4
Info: PME GRID DIMENSIONS         44 44 40
Info: PME MAXIMUM GRID SPACING    1
Info: FULL ELECTROSTATIC EVALUATION FREQUENCY      2
Info: USING VERLET I (r-RESPA) MTS SCHEME.
Info: C1 SPLITTING OF LONG RANGE ELECTROSTATICS
Info: PLACING ATOMS IN PATCHES BY HYDROGEN GROUPS
Info: RIGID BONDS TO HYDROGEN : ALL
Info:         ERROR TOLERANCE : 1e-08
Info:          MAX ITERATIONS : 100
Info: RIGID WATER USING SETTLE ALGORITHM
Info: RANDOM NUMBER SEED     1741350331
Info: USE HYDROGEN BONDS?    NO
Info: Using AMBER format force field!
Info: AMBER PARM FILE        mobley_5690766.prmtop
Info: COORDINATE PDB         mobley_5690766.pdb
Info: Exclusions will be read from PARM file!
Info: SCNB (VDW SCALING)     2
Info: USING ARITHMETIC MEAN TO COMBINE L-J SIGMA PARAMETERS
Info: SUMMARY OF PARAMETERS:
Info: 7 BONDS
Info: 8 ANGLES
Info:   8 HARMONIC
Info:   0 COSINE-BASED
Info: 5 DIHEDRAL
Info: 0 IMPROPER
Info: 0 CROSSTERM
Info: 0 VDW
Info: 21 VDW_PAIRS
Info: 0 NBTHOLE_PAIRS
Info: STRUCTURE SUMMARY:
Info: 4849 ATOMS
Info: 4848 BONDS
Info: 24 ANGLES
Info: 29 DIHEDRALS
Info: 0 IMPROPERS
Info: 0 CROSSTERMS
Info: 4901 EXCLUSIONS
Info: 4843 RIGID BONDS
Info: 9704 DEGREES OF FREEDOM
Info: 1617 HYDROGEN GROUPS
Info: 3 ATOMS IN LARGEST HYDROGEN GROUP
Info: 1617 MIGRATION GROUPS
Info: 3 ATOMS IN LARGEST MIGRATION GROUP
Info: TOTAL MASS = 29105.9 amu
Info: TOTAL CHARGE = -2.23517e-08 e
Info: MASS DENSITY = 0.717055 g/cm^3
Info: ATOM DENSITY = 0.071939 atoms/A^3
Info: ADDED 0 IMPLICIT EXCLUSIONS
Info: NONBONDED TABLE R-SQUARED SPACING: 0.0625
Info: NONBONDED TABLE SIZE: 705 POINTS
Info: REMOVING COM VELOCITY -0.0287112 0.190105 -0.0421088
TCL: Minimizing for 2000 steps
ETITLE: TS BOND ANGLE DIHED IMPRP ELECT VDW BOUNDARY MISC KINETIC TOTAL TEMP POTENTIAL TOTAL3 TEMPAVG PRESSURE GPRESSURE VOLUME PRESSAVG GPRESSAVG
ENERGY: 0 0.0289 0.6179 0.0478 0.0000 -14956.8099 1666.1217 0.0000 0.0000 0.0000 -13289.9937 0.0000 -13289.9937 -13289.9937 0.0000 10838.8613 -15699.6034 67404.3537 10838.8613 -15699.6034
ENERGY: 400 4.9710 1.6385 0.4516 0.0000 -20120.4965 2826.3097 0.0000 0.0000 0.0000 -17287.1258 0.0000 -17287.1258 -17287.1258 0.0000 15053.7667 15232.3104 67404.3537 15053.7667 15232.3104
ENERGY: 800 5.2621 2.1373 0.7457 0.0000 -21302.5493 3386.3039 0.0000 0.0000 0.0000 -17908.1004 0.0000 -17908.1004 -17908.1004 0.0000 17707.1850 17825.6172 67404.3537 17707.1850 17825.6172
ENERGY: 1200 1.5018 1.3714 0.1333 0.0000 -21787.1201 3638.6620 0.0000 0.0000 0.0000 -18145.4516 0.0000 -18145.4516 -18145.4516 0.0000 18922.4201 19049.4445 67404.3537 18922.4201 19049.4445
ENERGY: 1600 0.2036 0.2681 0.2211 0.0000 -22037.1254 3768.2818 0.0000 0.0000 0.0000 -18268.1508 0.0000 -18268.1508 -18268.1508 0.0000 19555.3775 19671.4635 67404.3537 19555.3775 19671.4635
ENERGY: 2000 1.0018 0.6230 0.4309 0.0000 -22199.8050 3819.5456 0.0000 0.0000 0.0000 -18378.2039 0.0000 -18378.2039 -18378.2039 0.0000 19811.8986 19919.9253 67404.3537 19811.8986 19919.9253
TCL: Exiting due to exit command.
Info: NAMD 3.0.1 for Linux-x86_64-multicore
Info: Please visit http://www.ks.uiuc.edu/Research/namd/
Info: for updates, documentation, and support information.
Info: Please cite Phillips et al., J. Chem. Phys. 153:044130 (2020) doi:10.1063/5.0014475
Info: in all publications reporting results obtained with NAMD.
Info: Based on Charm++/Converse 80000 for multicore-linux-x86_64-gcc
Info: Built Mon Oct 14 11:11:06 CDT 2024 by dhardy on athine.ks.uiuc.edu
Info: 1 NAMD  3.0.1  Linux-x86_64-multicore  16    k021  z5358697
Info: Running on 16 processors, 1 nodes, 1 physical nodes.
Info: CPU topology information available.
Info: Charm++/Converse parallel runtime startup completed at 0.0117598 s
Info: 1043.45 MB of memory in use based on /proc/self/stat
Info: Configuration file is mobley_5690766_equil.namd
Info: Working in the current directory /srv/scratch/z5358697/prod_prep_7/5690766
TCL: Running 25000 steps at 30 kelvin.
TCL: Suspending until startup complete.
Info: SIMULATION PARAMETERS:
Info: TIMESTEP               2
Info: NUMBER OF STEPS        0
Info: STEPS PER CYCLE        10
Info: PERIODIC CELL BASIS 1  41.123 0 0
Info: PERIODIC CELL BASIS 2  0 41.432 0
Info: PERIODIC CELL BASIS 3  0 0 39.561
Info: PERIODIC CELL CENTER   0 0 0
Info: WRAPPING WATERS AROUND PERIODIC BOUNDARIES ON OUTPUT.
Info: WRAPPING ALL CLUSTERS AROUND PERIODIC BOUNDARIES ON OUTPUT.
Info: FIRST LDB TIMESTEP     50
Info: LAST LDB TIMESTEP     -1
Info: HOM BACKGROUND SCALING 1
Info: PME BACKGROUND SCALING 1
Info: MIN ATOMS PER PATCH    40
Info: EMPTY PATCH LOAD       40 ATOMS
Info: INITIAL TEMPERATURE    300
Info: CENTER OF MASS MOVING INITIALLY? NO
Info: DIELECTRIC             1
Info: EXCLUDE                SCALED ONE-FOUR
Info: 1-4 ELECTROSTATICS SCALED BY 0.833333
Info: MODIFIED 1-4 VDW PARAMETERS WILL BE USED
Info: DCD FILENAME           mobley_5690766_equil.dcd
Info: DCD FREQUENCY          5000
Info: DCD FIRST STEP         5000
Info: DCD FILE WILL CONTAIN UNIT CELL DATA
Info: XST FILENAME           mobley_5690766_equil.xst
Info: XST FREQUENCY          5000
Info: NO VELOCITY DCD OUTPUT
Info: NO FORCE DCD OUTPUT
Info: OUTPUT FILENAME        mobley_5690766_equil
Info: BINARY OUTPUT FILES WILL BE USED
Info: RESTART FILENAME       mobley_5690766_equil.restart
Info: RESTART FREQUENCY      5000
Info: BINARY RESTART FILES WILL BE USED
Info: CUTOFF                 9
Info: PAIRLIST DISTANCE      11
Info: PAIRLIST SHRINK RATE   0.01
Info: PAIRLIST GROW RATE     0.01
Info: PAIRLIST TRIGGER       0.3
Info: PAIRLISTS PER CYCLE    2
Info: PAIRLISTS ENABLED
Info: MARGIN                 8
Info: HYDROGEN GROUP CUTOFF  2.5
Info: PATCH DIMENSION        21.5
Info: ENERGY OUTPUT STEPS    5000
Info: ENERGY EVALUATION STEPS    5000
Info: OUTPUT ENERGY PRECISION 4
Info: CROSSTERM ENERGY INCLUDED IN DIHEDRAL
Info: TIMING OUTPUT STEPS    50000
Info: PRESSURE OUTPUT STEPS  5000
Info: LANGEVIN DYNAMICS ACTIVE
Info: LANGEVIN TEMPERATURE   30
Info: LANGEVIN USING BBK INTEGRATOR
Info: LANGEVIN DAMPING COEFFICIENT IS 1 INVERSE PS
Info: LANGEVIN DYNAMICS APPLIED TO HYDROGENS
Info: LANGEVIN PISTON PRESSURE CONTROL ACTIVE
Info:        TARGET PRESSURE IS 1.01325 BAR
Info:     OSCILLATION PERIOD IS 50 FS
Info:             DECAY TIME IS 25 FS
Info:     PISTON TEMPERATURE IS 300 K
Info:       PRESSURE CONTROL IS GROUP-BASED
Info:    INITIAL STRAIN RATE IS 0 0 0
Info:       CELL FLUCTUATION IS ISOTROPIC
Info: PARTICLE MESH EWALD (PME) ACTIVE
Info: PME TOLERANCE               1e-06
Info: PME EWALD COEFFICIENT       0.348832
Info: PME INTERPOLATION ORDER     4
Info: PME GRID DIMENSIONS         44 44 40
Info: PME MAXIMUM GRID SPACING    1
Info: FULL ELECTROSTATIC EVALUATION FREQUENCY      2
Info: USING VERLET I (r-RESPA) MTS SCHEME.
Info: C1 SPLITTING OF LONG RANGE ELECTROSTATICS
Info: PLACING ATOMS IN PATCHES BY HYDROGEN GROUPS
Info: RIGID BONDS TO HYDROGEN : ALL
Info:         ERROR TOLERANCE : 1e-08
Info:          MAX ITERATIONS : 100
Info: RIGID WATER USING SETTLE ALGORITHM
Info: RANDOM NUMBER SEED     1741350349
Info: USE HYDROGEN BONDS?    NO
Info: Using AMBER format force field!
Info: AMBER PARM FILE        mobley_5690766.prmtop
Info: COORDINATE PDB         mobley_5690766.pdb
Info: Exclusions will be read from PARM file!
Info: SCNB (VDW SCALING)     2
Info: USING ARITHMETIC MEAN TO COMBINE L-J SIGMA PARAMETERS
Info: BINARY COORDINATES     mobley_5690766_min.coor
Info: SUMMARY OF PARAMETERS:
Info: 7 BONDS
Info: 8 ANGLES
Info:   8 HARMONIC
Info:   0 COSINE-BASED
Info: 5 DIHEDRAL
Info: 0 IMPROPER
Info: 0 CROSSTERM
Info: 0 VDW
Info: 21 VDW_PAIRS
Info: 0 NBTHOLE_PAIRS
Info: STRUCTURE SUMMARY:
Info: 4849 ATOMS
Info: 4848 BONDS
Info: 24 ANGLES
Info: 29 DIHEDRALS
Info: 0 IMPROPERS
Info: 0 CROSSTERMS
Info: 4901 EXCLUSIONS
Info: 4843 RIGID BONDS
Info: 9704 DEGREES OF FREEDOM
Info: 1617 HYDROGEN GROUPS
Info: 3 ATOMS IN LARGEST HYDROGEN GROUP
Info: 1617 MIGRATION GROUPS
Info: 3 ATOMS IN LARGEST MIGRATION GROUP
Info: TOTAL MASS = 29105.9 amu
Info: TOTAL CHARGE = -2.23517e-08 e
Info: MASS DENSITY = 0.717055 g/cm^3
Info: ATOM DENSITY = 0.071939 atoms/A^3
Info: ADDED 0 IMPLICIT EXCLUSIONS
Info: NONBONDED TABLE R-SQUARED SPACING: 0.0625
Info: NONBONDED TABLE SIZE: 705 POINTS
Info: REMOVING COM VELOCITY -0.0801369 0.020368 -0.0275686
TCL: Running for 25000 steps
ETITLE: TS BOND ANGLE DIHED IMPRP ELECT VDW BOUNDARY MISC KINETIC TOTAL TEMP POTENTIAL TOTAL3 TEMPAVG PRESSURE GPRESSURE VOLUME PRESSAVG GPRESSAVG
ENERGY: 0 1.0018 0.6230 0.4309 0.0000 -22199.8051 3819.5456 0.0000 0.0000 2891.7053 -15486.4986 299.9119 -18378.2039 -15485.8677 299.9119 119.7336 164.5626 67404.3537 119.7336 164.5626
ENERGY: 5000 0.3175 1.0514 0.6897 0.0000 -23111.8876 3937.5413 0.0000 0.0000 286.7994 -18885.4882 29.7453 -19172.2876 -18884.6297 47.2860 -346.1496 -297.5799 47160.0923 0.2578 0.3121
ENERGY: 10000 0.0591 0.9661 0.3340 0.0000 -23231.9802 4041.7214 0.0000 0.0000 290.3243 -18898.5752 30.1108 -19188.8995 -18897.8858 30.0250 203.9052 264.5418 46923.9561 3.2458 3.2418
ENERGY: 15000 0.2625 0.8252 0.4818 0.0000 -23107.4895 3909.7312 0.0000 0.0000 293.8612 -18902.3276 30.4777 -19196.1888 -18901.4012 30.3620 -596.3109 -538.7520 47252.7395 0.5342 0.5048
ENERGY: 20000 0.3275 0.5822 0.2313 0.0000 -23107.8257 3883.9117 0.0000 0.0000 293.0821 -18929.6909 30.3969 -19222.7730 -18928.6145 30.0539 -754.2916 -703.2688 47351.6519 1.2139 1.4651
ENERGY: 25000 0.2440 0.7165 0.3852 0.0000 -23229.8617 4003.9608 0.0000 0.0000 294.5016 -18930.0537 30.5441 -19224.5553 -18929.3216 30.0936 -130.4238 -60.4056 47093.6412 -1.2974 -1.2756
TCL: Running 25000 steps at 60 kelvin.
TCL: Setting parameter langevinTemp to 60
TCL: Running for 25000 steps
ETITLE: TS BOND ANGLE DIHED IMPRP ELECT VDW BOUNDARY MISC KINETIC TOTAL TEMP POTENTIAL TOTAL3 TEMPAVG PRESSURE GPRESSURE VOLUME PRESSAVG GPRESSAVG
ENERGY: 25000 0.2440 0.7165 0.3852 0.0000 -23229.8617 4003.9608 0.0000 0.0000 294.3636 -18930.1918 30.5298 -19224.5553 -18929.5008 30.5298 -114.1076 -60.6200 47093.6412 -114.1076 -60.6200
ENERGY: 30000 0.1276 1.8616 0.2414 0.0000 -22895.9732 3879.4961 0.0000 0.0000 581.0839 -18433.1626 60.2668 -19014.2465 -18431.6838 57.4421 -238.9169 -182.9706 47181.5823 7.2589 7.3984
ENERGY: 35000 0.1812 1.1680 0.2734 0.0000 -22998.2814 3946.3525 0.0000 0.0000 586.2776 -18464.0287 60.8055 -19050.3063 -18462.9093 60.1901 84.9390 138.5418 46959.9124 2.2756 2.2726
ENERGY: 40000 0.2051 1.0427 0.8806 0.0000 -23035.9192 3924.2449 0.0000 0.0000 583.0369 -18526.5090 60.4694 -19109.5459 -18525.1544 60.3803 -244.2268 -178.7697 47033.9640 -2.1093 -1.8621
ENERGY: 45000 0.1172 1.7700 0.8561 0.0000 -22978.9603 3838.1425 0.0000 0.0000 570.5024 -18567.5721 59.1694 -19138.0745 -18565.7173 60.6731 -722.1059 -674.6505 47227.0978 3.3660 3.2565
ENERGY: 50000 0.1660 1.0107 1.4182 0.0000 -23245.2547 4101.0317 0.0000 0.0000 576.3814 -18565.2467 59.7791 -19141.6281 -18564.0593 59.6945 665.2357 745.4272 46661.0095 2.1947 2.4678
TCL: Running 25000 steps at 90 kelvin.
TCL: Setting parameter langevinTemp to 90
TCL: Running for 25000 steps
ETITLE: TS BOND ANGLE DIHED IMPRP ELECT VDW BOUNDARY MISC KINETIC TOTAL TEMP POTENTIAL TOTAL3 TEMPAVG PRESSURE GPRESSURE VOLUME PRESSAVG GPRESSAVG
ENERGY: 50000 0.1660 1.0107 1.4182 0.0000 -23245.2547 4101.0317 0.0000 0.0000 576.0969 -18565.5312 59.7496 -19141.6281 -18564.1900 59.7496 682.5850 745.0620 46661.0095 682.5850 745.0620
ENERGY: 55000 0.4694 1.8236 0.8996 0.0000 -22726.5403 3875.9574 0.0000 0.0000 856.1803 -17991.2099 88.7983 -18847.3902 -17988.9955 86.8101 173.9418 226.2691 47073.7185 3.1095 3.0342
ENERGY: 60000 0.3994 1.6198 0.6145 0.0000 -22669.3961 3799.2086 0.0000 0.0000 875.6006 -17991.9532 90.8125 -18867.5538 -17989.3741 90.6761 -215.0194 -150.7574 47182.3546 0.7575 0.6277
ENERGY: 65000 0.9851 1.2882 1.0133 0.0000 -22676.5192 3766.9035 0.0000 0.0000 872.9205 -18033.4087 90.5345 -18906.3292 -18030.4361 89.6488 -526.0017 -459.1521 47175.4119 3.3623 3.4495
ENERGY: 70000 1.1990 4.5472 0.6840 0.0000 -22752.5141 3807.0768 0.0000 0.0000 862.2261 -18076.7809 89.4254 -18939.0070 -18074.2470 89.9583 -280.7579 -262.4172 47068.7995 6.3009 6.3671
ENERGY: 75000 1.8100 2.4237 1.1170 0.0000 -22587.6937 3634.2665 0.0000 0.0000 880.2865 -18067.7901 91.2985 -18948.0765 -18065.2156 90.0768 -1291.4035 -1239.0203 47264.5961 5.9555 5.8238
TCL: Running 25000 steps at 120 kelvin.
TCL: Setting parameter langevinTemp to 120
TCL: Running for 25000 steps
ETITLE: TS BOND ANGLE DIHED IMPRP ELECT VDW BOUNDARY MISC KINETIC TOTAL TEMP POTENTIAL TOTAL3 TEMPAVG PRESSURE GPRESSURE VOLUME PRESSAVG GPRESSAVG
ENERGY: 75000 1.8100 2.4237 1.1170 0.0000 -22587.6937 3634.2665 0.0000 0.0000 879.8426 -18068.2339 91.2525 -18948.0765 -18066.2708 91.2525 -1299.2736 -1238.8005 47264.5961 -1299.2736 -1238.8005
ENERGY: 80000 1.3412 2.8743 0.8857 0.0000 -22287.7224 3657.1379 0.0000 0.0000 1156.2043 -17469.2790 119.9152 -18625.4833 -17467.6430 117.4379 -326.5197 -263.3782 47065.7410 -0.6983 -0.2258
ENERGY: 85000 0.8933 1.3113 2.0793 0.0000 -22339.9224 3670.5887 0.0000 0.0000 1155.8445 -17509.2053 119.8779 -18665.0499 -17506.3528 120.5533 -360.4996 -290.3339 47295.6101 6.7587 6.5766
ENERGY: 90000 0.5208 2.9087 0.9220 0.0000 -22363.6507 3698.8571 0.0000 0.0000 1150.6219 -17509.8200 119.3362 -18660.4419 -17506.8963 119.3849 -150.8452 -88.2978 47083.7436 1.9903 2.1151
ENERGY: 95000 0.6558 3.5813 0.5668 0.0000 -22576.3937 3886.5086 0.0000 0.0000 1153.6530 -17531.4282 119.6506 -18685.0811 -17529.2603 119.8560 824.4091 890.0061 46695.8200 1.6391 1.5249
ENERGY: 100000 0.3506 2.6476 1.2781 0.0000 -22298.6713 3669.4068 0.0000 0.0000 1143.9413 -17481.0468 118.6433 -18624.9881 -17478.8240 120.5152 -332.5316 -251.2393 47067.9557 -0.3644 0.0785
TCL: Running 25000 steps at 150 kelvin.
TCL: Setting parameter langevinTemp to 150
TCL: Running for 25000 steps
ETITLE: TS BOND ANGLE DIHED IMPRP ELECT VDW BOUNDARY MISC KINETIC TOTAL TEMP POTENTIAL TOTAL3 TEMPAVG PRESSURE GPRESSURE VOLUME PRESSAVG GPRESSAVG
ENERGY: 100000 0.3506 2.6476 1.2781 0.0000 -22298.6713 3669.4068 0.0000 0.0000 1143.3710 -17481.6171 118.5842 -18624.9881 -17479.6192 118.5842 -316.8656 -251.4234 47067.9557 -316.8656 -251.4234
ENERGY: 105000 0.2823 4.2764 1.2405 0.0000 -21905.8761 3568.4994 0.0000 0.0000 1410.3061 -16921.2714 146.2692 -18331.5775 -16917.7377 147.7459 -139.3685 -92.1126 47512.1178 4.1833 4.3709
ENERGY: 110000 1.4584 3.3118 2.5932 0.0000 -22071.8258 3677.6227 0.0000 0.0000 1480.8261 -16906.0137 153.5832 -18386.8397 -16902.1829 149.9467 293.4423 363.4699 47275.3739 4.6467 4.1496
ENERGY: 115000 0.9426 3.4645 1.9130 0.0000 -22208.7724 3790.6064 0.0000 0.0000 1422.0118 -16989.8342 147.4833 -18411.8460 -16987.6181 149.5127 663.0641 720.8165 47351.5961 2.2313 2.3371
ENERGY: 120000 2.5222 3.3894 1.1938 0.0000 -22004.9987 3584.0671 0.0000 0.0000 1464.3837 -16949.4426 151.8779 -18413.8263 -16945.9802 150.3770 -447.4602 -415.3928 47643.2019 1.4223 2.2921
ENERGY: 125000 0.2676 3.7097 0.5647 0.0000 -22185.9763 3765.9610 0.0000 0.0000 1460.1114 -16955.3618 151.4348 -18415.4732 -16952.2448 150.7259 496.3010 554.4194 47389.4016 10.0311 9.8965
TCL: Running 50000 steps at 180 kelvin.
TCL: Setting parameter langevinTemp to 180
TCL: Running for 50000 steps
ETITLE: TS BOND ANGLE DIHED IMPRP ELECT VDW BOUNDARY MISC KINETIC TOTAL TEMP POTENTIAL TOTAL3 TEMPAVG PRESSURE GPRESSURE VOLUME PRESSAVG GPRESSAVG
ENERGY: 125000 0.2676 3.7097 0.5647 0.0000 -22185.9763 3765.9610 0.0000 0.0000 1459.3760 -16956.0972 151.3585 -18415.4732 -16953.5008 151.3585 503.8544 554.7278 47389.4016 503.8544 554.7278
ENERGY: 135000 1.2532 4.3526 2.7121 0.0000 -21661.9296 3599.8655 0.0000 0.0000 1717.4774 -16336.2688 178.1274 -18053.7462 -16331.6414 178.9425 490.0000 541.6458 47443.6008 3.3116 3.4695
ENERGY: 145000 0.1647 2.4763 1.1785 0.0000 -21702.6187 3657.1698 0.0000 0.0000 1802.7240 -16238.9054 186.9687 -18041.6293 -16234.5243 181.2891 784.6024 862.0771 47576.0858 6.1190 6.2036
ENERGY: 155000 0.6117 1.9887 4.3558 0.0000 -21397.1297 3351.1301 0.0000 0.0000 1749.7847 -16289.2587 181.4781 -18039.0434 -16284.4031 179.8267 -647.4648 -600.6875 47469.3653 2.9067 2.8499
ENERGY: 165000 1.3198 3.5139 2.2682 0.0000 -21452.5541 3373.8393 0.0000 0.0000 1709.9875 -16361.6255 177.3505 -18071.6130 -16356.9121 180.1749 -698.8321 -633.9222 47822.3549 -1.8899 -2.2139
ENERGY: 175000 0.6336 4.6173 0.8640 0.0000 -21649.8731 3572.3585 0.0000 0.0000 1731.8435 -16339.5561 179.6173 -18071.3997 -16336.3079 180.5792 263.7672 310.6595 47647.9754 4.1951 4.1761
TCL: Running 50000 steps at 210 kelvin.
TCL: Setting parameter langevinTemp to 210
TCL: Running for 50000 steps
ETITLE: TS BOND ANGLE DIHED IMPRP ELECT VDW BOUNDARY MISC KINETIC TOTAL TEMP POTENTIAL TOTAL3 TEMPAVG PRESSURE GPRESSURE VOLUME PRESSAVG GPRESSAVG
ENERGY: 175000 0.6336 4.6173 0.8640 0.0000 -21649.8731 3572.3585 0.0000 0.0000 1730.9938 -16340.4059 179.5292 -18071.3997 -16337.0872 179.5292 247.7728 310.4169 47647.9754 247.7728 310.4169
ENERGY: 185000 0.3298 5.3224 3.3074 0.0000 -20553.6605 3162.2534 0.0000 0.0000 2002.3811 -15380.0664 207.6760 -17382.4475 -15371.9161 208.7721 -154.5541 -67.9560 47505.3342 -0.6766 -1.2800
ENERGY: 195000 0.4099 7.1891 2.9050 0.0000 -20422.0678 3067.5947 0.0000 0.0000 2056.8650 -15287.1041 213.3268 -17343.9691 -15282.7061 208.9472 -368.6564 -287.2644 47326.2766 1.6088 1.0763
ENERGY: 205000 1.7589 4.9213 1.9283 0.0000 -20250.2721 2986.0660 0.0000 0.0000 2004.9545 -15250.6431 207.9429 -17255.5977 -15244.8749 210.0331 -749.2186 -642.7809 47409.8374 3.3071 3.2723
ENERGY: 215000 0.9020 5.6247 3.1237 0.0000 -20375.8011 3014.5004 0.0000 0.0000 2029.5842 -15322.0661 210.4974 -17351.6503 -15319.3542 211.6002 -654.2266 -562.6009 47077.2453 -5.0104 -4.8319
ENERGY: 225000 1.5107 4.6678 1.4240 0.0000 -20299.8253 3078.7945 0.0000 0.0000 2019.7405 -15193.6878 209.4764 -17213.4283 -15189.0925 208.8398 -173.8582 -111.0678 47425.6591 6.8159 7.3241
TCL: Running 50000 steps at 240 kelvin.
TCL: Setting parameter langevinTemp to 240
TCL: Running for 50000 steps
ETITLE: TS BOND ANGLE DIHED IMPRP ELECT VDW BOUNDARY MISC KINETIC TOTAL TEMP POTENTIAL TOTAL3 TEMPAVG PRESSURE GPRESSURE VOLUME PRESSAVG GPRESSAVG
ENERGY: 225000 1.5107 4.6678 1.4240 0.0000 -20299.8253 3078.7945 0.0000 0.0000 2018.6970 -15194.7313 209.3682 -17213.4283 -15190.6668 209.3682 -188.7465 -110.9133 47425.6591 -188.7465 -110.9133
ENERGY: 235000 0.5284 3.6820 1.5589 0.0000 -19216.6009 2687.5737 0.0000 0.0000 2327.7479 -14195.5100 241.4213 -16523.2579 -14190.9913 238.7509 -744.2243 -662.5024 48494.9371 3.6696 3.5172
ENERGY: 245000 0.5423 2.5628 2.7271 0.0000 -19323.6165 2818.4712 0.0000 0.0000 2309.6421 -14189.6711 239.5434 -16499.3132 -14183.3883 240.1068 209.7437 313.5219 47394.8969 2.1648 2.9432
ENERGY: 255000 2.4002 4.0253 3.6058 0.0000 -19472.1761 2909.7272 0.0000 0.0000 2355.0800 -14197.3375 244.2560 -16552.4176 -14191.6441 241.3256 690.5644 759.0653 47197.2836 -3.6705 -3.9355
ENERGY: 265000 0.2612 2.8006 1.5782 0.0000 -19413.9796 2805.4493 0.0000 0.0000 2389.0750 -14214.8152 247.7818 -16603.8902 -14208.7168 241.2575 -41.9707 67.7664 47432.7940 4.8238 4.9471
ENERGY: 275000 1.8303 3.5002 2.1683 0.0000 -19450.3189 2798.8680 0.0000 0.0000 2228.1524 -14415.7996 231.0918 -16643.9520 -14410.7821 240.3562 -306.0111 -274.1062 47748.0351 2.4659 2.2640
TCL: Running 50000 steps at 270 kelvin.
TCL: Setting parameter langevinTemp to 270
TCL: Running for 50000 steps
ETITLE: TS BOND ANGLE DIHED IMPRP ELECT VDW BOUNDARY MISC KINETIC TOTAL TEMP POTENTIAL TOTAL3 TEMPAVG PRESSURE GPRESSURE VOLUME PRESSAVG GPRESSAVG
ENERGY: 275000 1.8303 3.5002 2.1683 0.0000 -19450.3189 2798.8680 0.0000 0.0000 2226.9843 -14416.9678 230.9706 -16643.9520 -14413.0484 230.9706 -356.0561 -273.2058 47748.0351 -356.0561 -273.2058
ENERGY: 285000 2.1960 4.1170 4.1938 0.0000 -18448.6163 2567.9777 0.0000 0.0000 2522.3365 -13347.7953 261.6029 -15870.1318 -13341.7311 272.0004 -66.7695 47.2072 48472.3674 3.5653 3.5846
ENERGY: 295000 0.8469 6.8611 2.3309 0.0000 -18087.7448 2356.8040 0.0000 0.0000 2606.6919 -13114.2099 270.3518 -15720.9019 -13109.6495 270.7154 -878.2522 -776.5789 48878.2509 1.4521 1.7756
ENERGY: 305000 2.2267 5.8888 3.8845 0.0000 -18276.0891 2499.9216 0.0000 0.0000 2543.0989 -13221.0685 263.7563 -15764.1675 -13216.8359 271.7146 -373.9587 -246.2266 49132.2671 2.3889 1.9081
ENERGY: 315000 1.6299 3.7655 2.4472 0.0000 -18357.5164 2534.5495 0.0000 0.0000 2600.4714 -13214.6528 269.7067 -15815.1243 -13208.6588 269.9914 -457.9911 -354.6220 49481.0233 1.4227 1.3220
ENERGY: 325000 0.4341 5.6512 1.8579 0.0000 -18545.4274 2652.0291 0.0000 0.0000 2577.8122 -13307.6429 267.3566 -15885.4551 -13302.9378 269.2264 242.8483 326.9541 48804.9532 2.6437 3.1597
TCL: Running 1000000 steps at 300 kelvin.
TCL: Setting parameter langevinTemp to 300
TCL: Running for 1000000 steps
ETITLE: TS BOND ANGLE DIHED IMPRP ELECT VDW BOUNDARY MISC KINETIC TOTAL TEMP POTENTIAL TOTAL3 TEMPAVG PRESSURE GPRESSURE VOLUME PRESSAVG GPRESSAVG
ENERGY: 325000 0.4341 5.6512 1.8579 0.0000 -18545.4274 2652.0291 0.0000 0.0000 2576.5041 -13308.9510 267.2209 -15885.4551 -13304.6593 267.2209 255.5081 326.9669 48804.9532 255.5081 326.9669
ENERGY: 525000 1.4326 8.0749 3.3856 0.0000 -17523.2449 2331.5089 0.0000 0.0000 2930.5426 -12248.3003 303.9398 -15178.8429 -12244.8396 301.4629 -159.5462 -106.8684 50140.9641 7.3512 6.7844
ENERGY: 725000 1.4724 4.2001 6.3015 0.0000 -17467.0780 2247.2216 0.0000 0.0000 2878.5648 -12329.3175 298.5490 -15207.8823 -12323.6101 301.0413 -495.2792 -429.1091 49625.5161 4.7184 3.9138
ENERGY: 925000 1.1108 2.6982 8.0625 0.0000 -17564.9944 2307.3112 0.0000 0.0000 2930.1694 -12315.6422 303.9011 -15245.8116 -12311.1348 303.3787 -147.9292 -113.3658 49701.1526 -0.5806 -0.7582
ENERGY: 1125000 1.1418 7.6796 3.3462 0.0000 -17495.2951 2291.6062 0.0000 0.0000 2857.2524 -12334.2688 296.3386 -15191.5213 -12329.5220 300.5102 -398.1499 -306.6338 50525.3854 0.0365 -0.0917
ENERGY: 1325000 3.1937 5.8594 2.5442 0.0000 -17552.0233 2318.8363 0.0000 0.0000 2905.2428 -12316.3469 301.3159 -15221.5897 -12310.4413 300.0880 -263.0548 -184.0081 49677.0772 4.3698 4.2861
TCL: Exiting due to exit command.
