Info: SIMULATION PARAMETERS:
Info: TIMESTEP               2
Info: NUMBER OF STEPS        0
Info: STEPS PER CYCLE        10
Info: PERIODIC CELL BASIS 1  38.861 0 0
Info: PERIODIC CELL BASIS 2  0 39.757 0
Info: PERIODIC CELL BASIS 3  0 0 39.527
Info: PERIODIC CELL CENTER   0 0 0
Info: WRAPPING WATERS AROUND PERIODIC BOUNDARIES ON OUTPUT.
Info: WRAPPING ALL CLUSTERS AROUND PERIODIC BOUNDARIES ON OUTPUT.
Info: FIRST LDB TIMESTEP     50
Info: LAST LDB TIMESTEP     -1
Info: HOM BACKGROUND SCALING 1
Info: PME BACKGROUND SCALING 1
Info: MIN ATOMS PER PATCH    40
Info: EMPTY PATCH LOAD       40 ATOMS
Info: INITIAL TEMPERATURE    300
Info: CENTER OF MASS MOVING INITIALLY? NO
Info: DIELECTRIC             1
Info: EXCLUDE                SCALED ONE-FOUR
Info: 1-4 ELECTROSTATICS SCALED BY 0.833333
Info: MODIFIED 1-4 VDW PARAMETERS WILL BE USED
Info: DCD FILENAME           mobley_8882696_min.dcd
Info: DCD FREQUENCY          5000
Info: DCD FIRST STEP         5000
Info: DCD FILE WILL CONTAIN UNIT CELL DATA
Info: XST FILENAME           mobley_8882696_min.xst
Info: XST FREQUENCY          5000
Info: NO VELOCITY DCD OUTPUT
Info: NO FORCE DCD OUTPUT
Info: OUTPUT FILENAME        mobley_8882696_min
Info: BINARY OUTPUT FILES WILL BE USED
Info: RESTART FILENAME       mobley_8882696_min.restart
Info: RESTART FREQUENCY      5000
Info: BINARY RESTART FILES WILL BE USED
Info: CUTOFF                 9
Info: PAIRLIST DISTANCE      11
Info: PAIRLIST SHRINK RATE   0.01
Info: PAIRLIST GROW RATE     0.01
Info: PAIRLIST TRIGGER       0.3
Info: PAIRLISTS PER CYCLE    2
Info: PAIRLISTS ENABLED
Info: MARGIN                 8
Info: HYDROGEN GROUP CUTOFF  2.5
Info: PATCH DIMENSION        21.5
Info: ENERGY OUTPUT STEPS    5000
Info: ENERGY EVALUATION STEPS    5000
Info: OUTPUT ENERGY PRECISION 4
Info: CROSSTERM ENERGY INCLUDED IN DIHEDRAL
Info: TIMING OUTPUT STEPS    50000
Info: PRESSURE OUTPUT STEPS  5000
Info: LANGEVIN DYNAMICS ACTIVE
Info: LANGEVIN TEMPERATURE   300
Info: LANGEVIN USING BBK INTEGRATOR
Info: LANGEVIN DAMPING COEFFICIENT IS 1 INVERSE PS
Info: LANGEVIN DYNAMICS APPLIED TO HYDROGENS
Info: LANGEVIN PISTON PRESSURE CONTROL ACTIVE
Info:        TARGET PRESSURE IS 1.01325 BAR
Info:     OSCILLATION PERIOD IS 50 FS
Info:             DECAY TIME IS 25 FS
Info:     PISTON TEMPERATURE IS 300 K
Info:       PRESSURE CONTROL IS GROUP-BASED
Info:    INITIAL STRAIN RATE IS 0 0 0
Info:       CELL FLUCTUATION IS ISOTROPIC
Info: PARTICLE MESH EWALD (PME) ACTIVE
Info: PME TOLERANCE               1e-06
Info: PME EWALD COEFFICIENT       0.348832
Info: PME INTERPOLATION ORDER     4
Info: PME GRID DIMENSIONS         40 40 40
Info: PME MAXIMUM GRID SPACING    1
Info: FULL ELECTROSTATIC EVALUATION FREQUENCY      2
Info: USING VERLET I (r-RESPA) MTS SCHEME.
Info: C1 SPLITTING OF LONG RANGE ELECTROSTATICS
Info: PLACING ATOMS IN PATCHES BY HYDROGEN GROUPS
Info: RIGID BONDS TO HYDROGEN : ALL
Info:         ERROR TOLERANCE : 1e-08
Info:          MAX ITERATIONS : 100
Info: RIGID WATER USING SETTLE ALGORITHM
Info: RANDOM NUMBER SEED     1741409146
Info: USE HYDROGEN BONDS?    NO
Info: Using AMBER format force field!
Info: AMBER PARM FILE        mobley_8882696.prmtop
Info: COORDINATE PDB         mobley_8882696.pdb
Info: Exclusions will be read from PARM file!
Info: SCNB (VDW SCALING)     2
Info: USING ARITHMETIC MEAN TO COMBINE L-J SIGMA PARAMETERS
Info: SUMMARY OF PARAMETERS:
Info: 6 BONDS
Info: 8 ANGLES
Info:   8 HARMONIC
Info:   0 COSINE-BASED
Info: 10 DIHEDRAL
Info: 0 IMPROPER
Info: 0 CROSSTERM
Info: 0 VDW
Info: 21 VDW_PAIRS
Info: 0 NBTHOLE_PAIRS
Info: STRUCTURE SUMMARY:
Info: 4381 ATOMS
Info: 4381 BONDS
Info: 25 ANGLES
Info: 41 DIHEDRALS
Info: 0 IMPROPERS
Info: 0 CROSSTERMS
Info: 4434 EXCLUSIONS
Info: 4376 RIGID BONDS
Info: 8767 DEGREES OF FREEDOM
Info: 1461 HYDROGEN GROUPS
Info: 3 ATOMS IN LARGEST HYDROGEN GROUP
Info: 1461 MIGRATION GROUPS
Info: 3 ATOMS IN LARGEST MIGRATION GROUP
Info: TOTAL MASS = 26303.4 amu
Info: TOTAL CHARGE = -0.000100002 e
Info: MASS DENSITY = 0.715237 g/cm^3
Info: ATOM DENSITY = 0.0717384 atoms/A^3
Info: ADDED 0 IMPLICIT EXCLUSIONS
Info: NONBONDED TABLE R-SQUARED SPACING: 0.0625
Info: NONBONDED TABLE SIZE: 705 POINTS
Info: REMOVING COM VELOCITY -0.114304 -0.0588525 -0.0508013
TCL: Minimizing for 2000 steps
ETITLE: TS BOND ANGLE DIHED IMPRP ELECT VDW BOUNDARY MISC KINETIC TOTAL TEMP POTENTIAL TOTAL3 TEMPAVG PRESSURE GPRESSURE VOLUME PRESSAVG GPRESSAVG
ENERGY: 0 0.4303 6.2665 8.5049 0.0000 -13549.5019 1548.4860 0.0000 0.0000 0.0000 -11985.8142 0.0000 -11985.8142 -11985.8142 0.0000 10962.2323 -15555.5553 61069.0876 10962.2323 -15555.5553
ENERGY: 400 3.4521 8.3767 8.9161 0.0000 -18580.4447 2777.8700 0.0000 0.0000 0.0000 -15781.8299 0.0000 -15781.8299 -15781.8299 0.0000 16110.2397 16244.3577 61069.0876 16110.2397 16244.3577
ENERGY: 800 0.4486 3.6264 9.2614 0.0000 -19626.8246 3299.6131 0.0000 0.0000 0.0000 -16313.8752 0.0000 -16313.8752 -16313.8752 0.0000 18915.8850 19030.6043 61069.0876 18915.8850 19030.6043
ENERGY: 1200 0.3905 3.4946 9.3804 0.0000 -19885.2236 3397.6982 0.0000 0.0000 0.0000 -16474.2599 0.0000 -16474.2599 -16474.2599 0.0000 19418.6619 19533.5664 61069.0876 19418.6619 19533.5664
ENERGY: 1600 0.3244 3.4178 9.2272 0.0000 -20016.4107 3452.0247 0.0000 0.0000 0.0000 -16551.4166 0.0000 -16551.4166 -16551.4166 0.0000 19756.5546 19866.9463 61069.0876 19756.5546 19866.9463
ENERGY: 2000 0.0873 3.9455 8.8379 0.0000 -20115.0261 3496.3032 0.0000 0.0000 0.0000 -16605.8521 0.0000 -16605.8521 -16605.8521 0.0000 20041.4010 20159.4463 61069.0876 20041.4010 20159.4463
TCL: Exiting due to exit command.
Info: NAMD 3.0.1 for Linux-x86_64-multicore
Info: Please visit http://www.ks.uiuc.edu/Research/namd/
Info: for updates, documentation, and support information.
Info: Please cite Phillips et al., J. Chem. Phys. 153:044130 (2020) doi:10.1063/5.0014475
Info: in all publications reporting results obtained with NAMD.
Info: Based on Charm++/Converse 80000 for multicore-linux-x86_64-gcc
Info: Built Mon Oct 14 11:11:06 CDT 2024 by dhardy on athine.ks.uiuc.edu
Info: 1 NAMD  3.0.1  Linux-x86_64-multicore  16    k006  z5358697
Info: Running on 16 processors, 1 nodes, 1 physical nodes.
Info: CPU topology information available.
Info: Charm++/Converse parallel runtime startup completed at 0.00933686 s
Info: 1043.45 MB of memory in use based on /proc/self/stat
Info: Configuration file is mobley_8882696_equil.namd
Info: Working in the current directory /srv/scratch/z5358697/prod_prep_11/8882696
TCL: Running 25000 steps at 30 kelvin.
TCL: Suspending until startup complete.
Info: SIMULATION PARAMETERS:
Info: TIMESTEP               2
Info: NUMBER OF STEPS        0
Info: STEPS PER CYCLE        10
Info: PERIODIC CELL BASIS 1  38.861 0 0
Info: PERIODIC CELL BASIS 2  0 39.757 0
Info: PERIODIC CELL BASIS 3  0 0 39.527
Info: PERIODIC CELL CENTER   0 0 0
Info: WRAPPING WATERS AROUND PERIODIC BOUNDARIES ON OUTPUT.
Info: WRAPPING ALL CLUSTERS AROUND PERIODIC BOUNDARIES ON OUTPUT.
Info: FIRST LDB TIMESTEP     50
Info: LAST LDB TIMESTEP     -1
Info: HOM BACKGROUND SCALING 1
Info: PME BACKGROUND SCALING 1
Info: MIN ATOMS PER PATCH    40
Info: EMPTY PATCH LOAD       40 ATOMS
Info: INITIAL TEMPERATURE    300
Info: CENTER OF MASS MOVING INITIALLY? NO
Info: DIELECTRIC             1
Info: EXCLUDE                SCALED ONE-FOUR
Info: 1-4 ELECTROSTATICS SCALED BY 0.833333
Info: MODIFIED 1-4 VDW PARAMETERS WILL BE USED
Info: DCD FILENAME           mobley_8882696_equil.dcd
Info: DCD FREQUENCY          5000
Info: DCD FIRST STEP         5000
Info: DCD FILE WILL CONTAIN UNIT CELL DATA
Info: XST FILENAME           mobley_8882696_equil.xst
Info: XST FREQUENCY          5000
Info: NO VELOCITY DCD OUTPUT
Info: NO FORCE DCD OUTPUT
Info: OUTPUT FILENAME        mobley_8882696_equil
Info: BINARY OUTPUT FILES WILL BE USED
Info: RESTART FILENAME       mobley_8882696_equil.restart
Info: RESTART FREQUENCY      5000
Info: BINARY RESTART FILES WILL BE USED
Info: CUTOFF                 9
Info: PAIRLIST DISTANCE      11
Info: PAIRLIST SHRINK RATE   0.01
Info: PAIRLIST GROW RATE     0.01
Info: PAIRLIST TRIGGER       0.3
Info: PAIRLISTS PER CYCLE    2
Info: PAIRLISTS ENABLED
Info: MARGIN                 8
Info: HYDROGEN GROUP CUTOFF  2.5
Info: PATCH DIMENSION        21.5
Info: ENERGY OUTPUT STEPS    5000
Info: ENERGY EVALUATION STEPS    5000
Info: OUTPUT ENERGY PRECISION 4
Info: CROSSTERM ENERGY INCLUDED IN DIHEDRAL
Info: TIMING OUTPUT STEPS    50000
Info: PRESSURE OUTPUT STEPS  5000
Info: LANGEVIN DYNAMICS ACTIVE
Info: LANGEVIN TEMPERATURE   30
Info: LANGEVIN USING BBK INTEGRATOR
Info: LANGEVIN DAMPING COEFFICIENT IS 1 INVERSE PS
Info: LANGEVIN DYNAMICS APPLIED TO HYDROGENS
Info: LANGEVIN PISTON PRESSURE CONTROL ACTIVE
Info:        TARGET PRESSURE IS 1.01325 BAR
Info:     OSCILLATION PERIOD IS 50 FS
Info:             DECAY TIME IS 25 FS
Info:     PISTON TEMPERATURE IS 300 K
Info:       PRESSURE CONTROL IS GROUP-BASED
Info:    INITIAL STRAIN RATE IS 0 0 0
Info:       CELL FLUCTUATION IS ISOTROPIC
Info: PARTICLE MESH EWALD (PME) ACTIVE
Info: PME TOLERANCE               1e-06
Info: PME EWALD COEFFICIENT       0.348832
Info: PME INTERPOLATION ORDER     4
Info: PME GRID DIMENSIONS         40 40 40
Info: PME MAXIMUM GRID SPACING    1
Info: FULL ELECTROSTATIC EVALUATION FREQUENCY      2
Info: USING VERLET I (r-RESPA) MTS SCHEME.
Info: C1 SPLITTING OF LONG RANGE ELECTROSTATICS
Info: PLACING ATOMS IN PATCHES BY HYDROGEN GROUPS
Info: RIGID BONDS TO HYDROGEN : ALL
Info:         ERROR TOLERANCE : 1e-08
Info:          MAX ITERATIONS : 100
Info: RIGID WATER USING SETTLE ALGORITHM
Info: RANDOM NUMBER SEED     1741409162
Info: USE HYDROGEN BONDS?    NO
Info: Using AMBER format force field!
Info: AMBER PARM FILE        mobley_8882696.prmtop
Info: COORDINATE PDB         mobley_8882696.pdb
Info: Exclusions will be read from PARM file!
Info: SCNB (VDW SCALING)     2
Info: USING ARITHMETIC MEAN TO COMBINE L-J SIGMA PARAMETERS
Info: BINARY COORDINATES     mobley_8882696_min.coor
Info: SUMMARY OF PARAMETERS:
Info: 6 BONDS
Info: 8 ANGLES
Info:   8 HARMONIC
Info:   0 COSINE-BASED
Info: 10 DIHEDRAL
Info: 0 IMPROPER
Info: 0 CROSSTERM
Info: 0 VDW
Info: 21 VDW_PAIRS
Info: 0 NBTHOLE_PAIRS
Info: STRUCTURE SUMMARY:
Info: 4381 ATOMS
Info: 4381 BONDS
Info: 25 ANGLES
Info: 41 DIHEDRALS
Info: 0 IMPROPERS
Info: 0 CROSSTERMS
Info: 4434 EXCLUSIONS
Info: 4376 RIGID BONDS
Info: 8767 DEGREES OF FREEDOM
Info: 1461 HYDROGEN GROUPS
Info: 3 ATOMS IN LARGEST HYDROGEN GROUP
Info: 1461 MIGRATION GROUPS
Info: 3 ATOMS IN LARGEST MIGRATION GROUP
Info: TOTAL MASS = 26303.4 amu
Info: TOTAL CHARGE = -0.000100002 e
Info: MASS DENSITY = 0.715237 g/cm^3
Info: ATOM DENSITY = 0.0717384 atoms/A^3
Info: ADDED 0 IMPLICIT EXCLUSIONS
Info: NONBONDED TABLE R-SQUARED SPACING: 0.0625
Info: NONBONDED TABLE SIZE: 705 POINTS
Info: REMOVING COM VELOCITY -0.121878 0.0936645 0.0129038
TCL: Running for 25000 steps
ETITLE: TS BOND ANGLE DIHED IMPRP ELECT VDW BOUNDARY MISC KINETIC TOTAL TEMP POTENTIAL TOTAL3 TEMPAVG PRESSURE GPRESSURE VOLUME PRESSAVG GPRESSAVG
ENERGY: 0 0.0873 3.9455 8.8379 0.0000 -20115.0261 3496.3032 0.0000 0.0000 2608.9098 -13996.9423 299.5011 -16605.8521 -13996.4225 299.5011 320.0889 352.9048 61069.0876 320.0889 352.9048
ENERGY: 5000 0.1240 4.9178 8.3430 0.0000 -20948.1737 3593.8417 0.0000 0.0000 265.6168 -17075.3304 30.4926 -17340.9472 -17074.8699 47.2418 -150.3367 -92.0820 42536.3833 1.3996 1.3122
ENERGY: 10000 0.4103 5.1759 7.9841 0.0000 -20915.1890 3519.4525 0.0000 0.0000 264.8065 -17117.3598 30.3996 -17382.1662 -17116.9079 30.0145 -735.8267 -674.5728 42611.1176 5.8627 5.9893
ENERGY: 15000 0.2131 4.8858 8.4300 0.0000 -21137.9831 3711.0897 0.0000 0.0000 264.7531 -17148.6114 30.3935 -17413.3645 -17147.7718 30.0346 392.0608 452.8371 42218.1715 4.2664 4.5837
ENERGY: 20000 0.3525 4.3290 9.0287 0.0000 -20898.6884 3464.8489 0.0000 0.0000 256.9981 -17163.1313 29.5032 -17420.1294 -17162.2872 30.1238 -1111.0986 -1065.7373 42723.9548 9.7140 9.6871
ENERGY: 25000 0.1914 3.7238 9.3844 0.0000 -20976.2988 3538.0512 0.0000 0.0000 256.5847 -17168.3633 29.4557 -17424.9479 -17167.5539 30.1170 -690.2514 -642.1102 42580.9228 -1.1525 -1.0947
TCL: Running 25000 steps at 60 kelvin.
TCL: Setting parameter langevinTemp to 60
TCL: Running for 25000 steps
ETITLE: TS BOND ANGLE DIHED IMPRP ELECT VDW BOUNDARY MISC KINETIC TOTAL TEMP POTENTIAL TOTAL3 TEMPAVG PRESSURE GPRESSURE VOLUME PRESSAVG GPRESSAVG
ENERGY: 25000 0.1914 3.7238 9.3844 0.0000 -20976.2988 3538.0512 0.0000 0.0000 256.4558 -17168.4921 29.4410 -17424.9479 -17167.8811 29.4410 -690.8397 -642.3150 42580.9228 -690.8397 -642.3150
ENERGY: 30000 1.2083 5.2946 9.1088 0.0000 -20784.6020 3599.6754 0.0000 0.0000 553.3498 -16615.9651 63.5242 -17169.3150 -16614.5264 57.5215 446.1394 505.7811 42360.0215 11.2175 11.1384
ENERGY: 35000 0.2052 5.3953 8.6040 0.0000 -20920.4488 3689.8326 0.0000 0.0000 531.1997 -16685.2120 60.9814 -17216.4117 -16683.9000 60.4978 796.3203 859.9135 42207.0743 4.7764 4.8735
ENERGY: 40000 0.2998 4.6869 9.8420 0.0000 -20812.7154 3545.5177 0.0000 0.0000 522.9277 -16729.4413 60.0318 -17252.3690 -16728.4874 60.0303 -152.4684 -102.9262 42448.3284 4.4429 4.5304
ENERGY: 45000 0.4722 4.4051 9.3385 0.0000 -20827.9703 3563.2046 0.0000 0.0000 520.0697 -16730.4802 59.7037 -17250.5499 -16729.4931 59.8195 -124.1742 -63.9150 42495.9309 3.1883 3.2700
ENERGY: 50000 0.1509 5.9842 8.4906 0.0000 -21025.9948 3730.8271 0.0000 0.0000 519.7914 -16760.7506 59.6717 -17280.5420 -16759.1723 60.0087 822.6756 880.8001 42113.5966 10.1990 10.0920
TCL: Running 25000 steps at 90 kelvin.
TCL: Setting parameter langevinTemp to 90
TCL: Running for 25000 steps
ETITLE: TS BOND ANGLE DIHED IMPRP ELECT VDW BOUNDARY MISC KINETIC TOTAL TEMP POTENTIAL TOTAL3 TEMPAVG PRESSURE GPRESSURE VOLUME PRESSAVG GPRESSAVG
ENERGY: 50000 0.1509 5.9842 8.4906 0.0000 -21025.9948 3730.8271 0.0000 0.0000 519.5244 -16761.0176 59.6411 -17280.5420 -16759.8477 59.6411 826.8341 880.8632 42113.5966 826.8341 880.8632
ENERGY: 55000 0.3159 4.7387 10.4304 0.0000 -20313.4844 3305.6286 0.0000 0.0000 772.2030 -16220.1677 88.6484 -16992.3708 -16218.0930 87.0869 -976.5230 -917.3484 43095.4341 0.6237 0.9515
ENERGY: 60000 0.7667 5.2846 8.9220 0.0000 -20610.7500 3548.6937 0.0000 0.0000 801.8029 -16245.2801 92.0464 -17047.0830 -16244.9056 90.1357 376.4743 436.7105 42511.4435 3.5125 3.2303
ENERGY: 65000 0.3576 5.5609 8.6913 0.0000 -20534.0820 3455.3655 0.0000 0.0000 799.2754 -16264.8313 91.7563 -17064.1068 -16262.6376 90.8969 -152.1106 -120.0406 42504.7081 -4.2183 -3.7564
ENERGY: 70000 0.1870 5.0962 9.1985 0.0000 -20732.6863 3618.6729 0.0000 0.0000 804.3413 -16295.1903 92.3378 -17099.5316 -16293.7416 90.1735 714.8036 780.0692 42191.5390 2.7102 2.8326
ENERGY: 75000 0.9072 5.6335 8.7844 0.0000 -20640.3677 3508.0036 0.0000 0.0000 804.1630 -16312.8761 92.3174 -17117.0391 -16311.5644 90.1252 3.2108 74.2703 42307.8697 6.3038 6.3919
TCL: Running 25000 steps at 120 kelvin.
TCL: Setting parameter langevinTemp to 120
TCL: Running for 25000 steps
ETITLE: TS BOND ANGLE DIHED IMPRP ELECT VDW BOUNDARY MISC KINETIC TOTAL TEMP POTENTIAL TOTAL3 TEMPAVG PRESSURE GPRESSURE VOLUME PRESSAVG GPRESSAVG
ENERGY: 75000 0.9072 5.6335 8.7844 0.0000 -20640.3677 3508.0036 0.0000 0.0000 803.7587 -16313.2804 92.2710 -17117.0391 -16311.7884 92.2710 21.7030 74.3967 42307.8697 21.7030 74.3967
ENERGY: 80000 0.5701 7.7685 8.2350 0.0000 -20336.8175 3521.6562 0.0000 0.0000 1049.4247 -15749.1630 120.4733 -16798.5878 -15746.3371 117.0321 837.1131 908.6396 42323.4942 -0.6847 -1.0889
ENERGY: 85000 0.3260 6.2293 9.3378 0.0000 -20153.4795 3306.9905 0.0000 0.0000 1051.4895 -15779.1065 120.7103 -16830.5960 -15775.8847 119.6068 -229.6121 -148.5086 42092.7799 3.8875 4.1920
ENERGY: 90000 0.6249 4.0628 10.2344 0.0000 -20279.9145 3355.1399 0.0000 0.0000 1054.6382 -15855.2143 121.0718 -16909.8525 -15853.0611 119.9414 -128.7454 -53.2633 42173.0415 7.4131 7.4941
ENERGY: 95000 0.5686 5.7287 9.5503 0.0000 -20228.5078 3279.0342 0.0000 0.0000 1055.0838 -15878.5422 121.1229 -16933.6261 -15875.2642 119.6171 -648.6068 -607.2053 42240.9854 -1.0567 -1.2632
ENERGY: 100000 0.4297 6.0584 8.4162 0.0000 -20387.1944 3395.9612 0.0000 0.0000 1029.9337 -15946.3953 118.2357 -16976.3290 -15943.6856 119.6503 -109.2937 -28.6031 42140.2150 7.1353 7.1437
TCL: Running 25000 steps at 150 kelvin.
TCL: Setting parameter langevinTemp to 150
TCL: Running for 25000 steps
ETITLE: TS BOND ANGLE DIHED IMPRP ELECT VDW BOUNDARY MISC KINETIC TOTAL TEMP POTENTIAL TOTAL3 TEMPAVG PRESSURE GPRESSURE VOLUME PRESSAVG GPRESSAVG
ENERGY: 100000 0.4297 6.0584 8.4162 0.0000 -20387.1944 3395.9612 0.0000 0.0000 1029.4127 -15946.9163 118.1759 -16976.3290 -15944.6727 118.1759 -91.3851 -28.1451 42140.2150 -91.3851 -28.1451
ENERGY: 105000 0.6910 7.3652 8.7909 0.0000 -19970.5309 3330.1014 0.0000 0.0000 1280.2928 -15343.2895 146.9768 -16623.5823 -15339.2660 145.7367 467.0513 544.3434 42218.2227 2.7085 2.8004
ENERGY: 110000 0.2315 7.4709 8.9715 0.0000 -20089.1045 3438.0021 0.0000 0.0000 1283.7872 -15350.6414 147.3779 -16634.4286 -15348.6154 150.3077 1163.1488 1215.5797 41772.6575 5.4653 4.9156
ENERGY: 115000 0.4039 5.9383 9.3434 0.0000 -19948.8749 3283.0777 0.0000 0.0000 1295.2523 -15354.8594 148.6941 -16650.1117 -15352.7620 150.2394 176.3047 264.1642 42066.3633 5.3560 5.5919
ENERGY: 120000 0.7163 7.5115 8.6280 0.0000 -19799.5779 3111.5913 0.0000 0.0000 1294.4341 -15376.6967 148.6002 -16671.1308 -15374.1115 149.4984 -1067.4245 -1017.3804 42732.3103 1.5577 1.6589
ENERGY: 125000 0.6429 8.1236 7.5387 0.0000 -19965.9401 3236.1075 0.0000 0.0000 1315.8040 -15397.7233 151.0534 -16713.5274 -15393.4140 150.1015 -340.0301 -287.5586 42372.9809 0.2115 0.0364
TCL: Running 50000 steps at 180 kelvin.
TCL: Setting parameter langevinTemp to 180
TCL: Running for 50000 steps
ETITLE: TS BOND ANGLE DIHED IMPRP ELECT VDW BOUNDARY MISC KINETIC TOTAL TEMP POTENTIAL TOTAL3 TEMPAVG PRESSURE GPRESSURE VOLUME PRESSAVG GPRESSAVG
ENERGY: 125000 0.6429 8.1236 7.5387 0.0000 -19965.9401 3236.1075 0.0000 0.0000 1315.1607 -15398.3666 150.9796 -16713.5274 -15395.6769 150.9796 -321.9949 -287.1057 42372.9809 -321.9949 -287.1057
ENERGY: 135000 0.3126 10.6374 7.3530 0.0000 -19407.0921 3097.1084 0.0000 0.0000 1565.2777 -14726.4030 179.6928 -16291.6807 -14722.0314 180.4715 -231.8279 -150.5132 42752.9943 2.4328 2.8488
ENERGY: 145000 0.5518 7.5638 8.5731 0.0000 -19314.7987 3069.1627 0.0000 0.0000 1564.5947 -14664.3526 179.6144 -16228.9473 -14660.6390 180.8923 -170.0515 -73.5497 42745.1428 1.7687 1.9644
ENERGY: 155000 0.3822 6.5830 9.2149 0.0000 -19338.2417 2991.8514 0.0000 0.0000 1561.5477 -14768.6624 179.2646 -16330.2101 -14764.5650 180.1212 -1133.9337 -1039.6323 43113.0306 -1.0861 -1.4258
ENERGY: 165000 1.4838 6.1307 9.5914 0.0000 -19338.3041 3034.8099 0.0000 0.0000 1605.4001 -14680.8882 184.2989 -16286.2883 -14674.4249 179.5259 -725.9098 -670.1661 43113.5601 -1.1650 -1.3303
ENERGY: 175000 2.0130 4.5600 10.5194 0.0000 -19453.0719 3175.7831 0.0000 0.0000 1543.2667 -14716.9296 177.1660 -16260.1963 -14712.5708 180.7376 338.4057 361.6656 42635.2175 7.6508 7.2950
TCL: Running 50000 steps at 210 kelvin.
TCL: Setting parameter langevinTemp to 210
TCL: Running for 50000 steps
ETITLE: TS BOND ANGLE DIHED IMPRP ELECT VDW BOUNDARY MISC KINETIC TOTAL TEMP POTENTIAL TOTAL3 TEMPAVG PRESSURE GPRESSURE VOLUME PRESSAVG GPRESSAVG
ENERGY: 175000 2.0130 4.5600 10.5194 0.0000 -19453.0719 3175.7831 0.0000 0.0000 1542.4642 -14717.7321 177.0739 -16260.1963 -14714.8666 177.0739 294.4435 361.5511 42635.2175 294.4435 361.5511
ENERGY: 185000 1.0996 9.8313 8.4312 0.0000 -18457.1690 2788.5577 0.0000 0.0000 1860.1876 -13789.0616 213.5483 -15649.2491 -13784.9590 210.2358 -261.4904 -189.8625 42537.8523 1.0489 0.8033
ENERGY: 195000 0.5138 8.1954 8.7945 0.0000 -18313.1171 2710.4326 0.0000 0.0000 1824.8871 -13760.2937 209.4958 -15585.1808 -13755.7180 209.8184 -592.3124 -486.2643 42781.5836 -0.6397 -0.7760
ENERGY: 205000 0.4923 8.6844 7.8502 0.0000 -18255.9483 2705.3734 0.0000 0.0000 1853.1485 -13680.3996 212.7402 -15533.5481 -13676.8516 211.1940 -448.5999 -426.7675 42922.1082 -0.3155 -0.3343
ENERGY: 215000 0.9748 5.0873 9.3462 0.0000 -18434.8836 2784.2921 0.0000 0.0000 1855.2315 -13779.9517 212.9793 -15635.1832 -13774.9749 209.4135 -158.2271 -119.1683 42689.0143 1.8194 1.7489
ENERGY: 225000 1.6156 6.4896 8.8227 0.0000 -18370.7230 2675.8841 0.0000 0.0000 1772.5416 -13905.3694 203.4866 -15677.9110 -13900.7641 209.3797 -768.1731 -651.8981 42484.8110 6.2094 6.8440
TCL: Running 50000 steps at 240 kelvin.
TCL: Setting parameter langevinTemp to 240
TCL: Running for 50000 steps
ETITLE: TS BOND ANGLE DIHED IMPRP ELECT VDW BOUNDARY MISC KINETIC TOTAL TEMP POTENTIAL TOTAL3 TEMPAVG PRESSURE GPRESSURE VOLUME PRESSAVG GPRESSAVG
ENERGY: 225000 1.6156 6.4896 8.8227 0.0000 -18370.7230 2675.8841 0.0000 0.0000 1771.6271 -13906.2839 203.3816 -15677.9110 -13902.8740 203.3816 -731.2606 -652.1800 42484.8110 -731.2606 -652.1800
ENERGY: 235000 1.4448 8.7976 9.3913 0.0000 -17466.9444 2463.6715 0.0000 0.0000 2078.2844 -12905.3548 238.5857 -14983.6391 -12900.8355 238.4660 -542.1723 -451.3419 43100.0068 -1.8864 -2.1561
ENERGY: 245000 2.3080 9.0593 9.2338 0.0000 -17533.9604 2612.2575 0.0000 0.0000 2057.7380 -12843.3638 236.2270 -14901.1018 -12842.6766 240.1194 590.8553 702.0715 42627.4661 -1.3827 -1.3548
ENERGY: 255000 1.1604 9.3611 8.9138 0.0000 -17550.7500 2556.8299 0.0000 0.0000 2082.1812 -12892.3036 239.0330 -14974.4848 -12888.4797 240.8297 -182.8305 -65.3953 43458.2417 -0.4891 0.2391
ENERGY: 265000 1.6618 8.0422 11.9353 0.0000 -17751.6265 2714.7227 0.0000 0.0000 2042.7021 -12972.5623 234.5008 -15015.2644 -12967.9772 238.9189 762.3719 807.3373 42855.3433 1.2490 1.3361
ENERGY: 275000 1.5858 6.9593 8.9178 0.0000 -17428.2011 2474.5627 0.0000 0.0000 2091.6087 -12844.5668 240.1153 -14936.1755 -12838.3988 238.3739 -270.6124 -185.4240 43086.8073 -1.2271 -1.0357
TCL: Running 50000 steps at 270 kelvin.
TCL: Setting parameter langevinTemp to 270
TCL: Running for 50000 steps
ETITLE: TS BOND ANGLE DIHED IMPRP ELECT VDW BOUNDARY MISC KINETIC TOTAL TEMP POTENTIAL TOTAL3 TEMPAVG PRESSURE GPRESSURE VOLUME PRESSAVG GPRESSAVG
ENERGY: 275000 1.5858 6.9593 8.9178 0.0000 -17428.2011 2474.5627 0.0000 0.0000 2090.5797 -12845.5959 239.9972 -14936.1755 -12842.2848 239.9972 -280.2395 -184.2866 43086.8073 -280.2395 -184.2866
ENERGY: 285000 0.8377 6.4485 9.0259 0.0000 -16699.1907 2356.2187 0.0000 0.0000 2371.3565 -11955.3035 272.2301 -14326.6599 -11951.9766 271.0289 303.4888 391.4723 43489.9307 -0.4599 -0.3186
ENERGY: 295000 0.7818 13.3102 6.8771 0.0000 -16689.9243 2305.3118 0.0000 0.0000 2346.7087 -12016.9348 269.4006 -14363.6435 -12011.5269 268.0244 -189.8579 -87.1469 43982.2908 -3.4028 -3.1275
ENERGY: 305000 1.1097 10.0308 8.8650 0.0000 -16757.2682 2350.0411 0.0000 0.0000 2331.1519 -12056.0696 267.6147 -14387.2215 -12051.8486 269.1846 88.6444 196.7955 43738.9487 -3.4632 -3.1254
ENERGY: 315000 0.4137 11.7331 7.9518 0.0000 -16590.4675 2235.8243 0.0000 0.0000 2400.6165 -11933.9280 275.5892 -14334.5445 -11931.9091 269.6144 -328.8526 -319.4423 43729.9225 3.1468 3.2944
ENERGY: 325000 1.4856 14.4192 8.2237 0.0000 -16576.3800 2229.9580 0.0000 0.0000 2359.1169 -11963.1767 270.8251 -14322.2936 -11958.5518 268.0518 -643.5292 -518.3058 44221.2105 1.1016 2.0569
TCL: Running 1000000 steps at 300 kelvin.
TCL: Setting parameter langevinTemp to 300
TCL: Running for 1000000 steps
ETITLE: TS BOND ANGLE DIHED IMPRP ELECT VDW BOUNDARY MISC KINETIC TOTAL TEMP POTENTIAL TOTAL3 TEMPAVG PRESSURE GPRESSURE VOLUME PRESSAVG GPRESSAVG
ENERGY: 325000 1.4856 14.4192 8.2237 0.0000 -16576.3800 2229.9580 0.0000 0.0000 2357.8913 -11964.4023 270.6844 -14322.2936 -11960.8057 270.6844 -592.5119 -516.7650 44221.2105 -592.5119 -516.7650
ENERGY: 525000 1.7959 10.6613 8.5395 0.0000 -15706.9196 1993.8568 0.0000 0.0000 2516.2234 -11175.8428 288.8608 -13692.0662 -11170.9290 302.2961 -779.6440 -717.9426 45473.3506 5.0523 4.7867
ENERGY: 725000 3.2296 7.4003 8.7927 0.0000 -15855.0804 2097.0222 0.0000 0.0000 2662.8443 -11075.7913 305.6928 -13738.6356 -11072.3321 301.2865 -216.2690 -150.9389 45288.3970 1.1912 1.2212
ENERGY: 925000 1.2539 12.7737 7.9361 0.0000 -15893.3884 2040.5741 0.0000 0.0000 2565.7815 -11265.0692 294.5500 -13830.8506 -11259.5533 300.9498 -788.1585 -683.2314 44915.8021 0.0731 -0.0447
ENERGY: 1125000 2.0943 10.3958 9.3143 0.0000 -15940.4884 2168.3824 0.0000 0.0000 2665.5234 -11084.7782 306.0003 -13750.3016 -11080.9833 302.7252 260.5009 344.0113 44918.8185 7.5832 7.2473
ENERGY: 1325000 2.9627 11.9239 7.5413 0.0000 -15912.1497 2170.8286 0.0000 0.0000 2578.4766 -11140.4168 296.0074 -13718.8933 -11133.3915 299.1654 -35.1471 74.5480 45766.8914 -0.6402 -0.3200
TCL: Exiting due to exit command.
