Info: SIMULATION PARAMETERS:
Info: TIMESTEP               2
Info: NUMBER OF STEPS        0
Info: STEPS PER CYCLE        10
Info: PERIODIC CELL BASIS 1  35.01 0 0
Info: PERIODIC CELL BASIS 2  0 35.267 0
Info: PERIODIC CELL BASIS 3  0 0 34.954
Info: PERIODIC CELL CENTER   0 0 0
Info: WRAPPING WATERS AROUND PERIODIC BOUNDARIES ON OUTPUT.
Info: WRAPPING ALL CLUSTERS AROUND PERIODIC BOUNDARIES ON OUTPUT.
Info: FIRST LDB TIMESTEP     50
Info: LAST LDB TIMESTEP     -1
Info: HOM BACKGROUND SCALING 1
Info: PME BACKGROUND SCALING 1
Info: MIN ATOMS PER PATCH    40
Info: EMPTY PATCH LOAD       40 ATOMS
Info: INITIAL TEMPERATURE    300
Info: CENTER OF MASS MOVING INITIALLY? NO
Info: DIELECTRIC             1
Info: EXCLUDE                SCALED ONE-FOUR
Info: 1-4 ELECTROSTATICS SCALED BY 0.833333
Info: MODIFIED 1-4 VDW PARAMETERS WILL BE USED
Info: DCD FILENAME           mobley_1952272_equil.dcd
Info: DCD FREQUENCY          100000
Info: DCD FIRST STEP         100000
Info: DCD FILE WILL CONTAIN UNIT CELL DATA
Info: XST FILENAME           mobley_1952272_equil.xst
Info: XST FREQUENCY          100000
Info: NO VELOCITY DCD OUTPUT
Info: NO FORCE DCD OUTPUT
Info: OUTPUT FILENAME        mobley_1952272_equil
Info: BINARY OUTPUT FILES WILL BE USED
Info: RESTART FILENAME       mobley_1952272_equil.restart
Info: RESTART FREQUENCY      100000
Info: BINARY RESTART FILES WILL BE USED
Info: CUTOFF                 9
Info: PAIRLIST DISTANCE      11
Info: PAIRLIST SHRINK RATE   0.01
Info: PAIRLIST GROW RATE     0.01
Info: PAIRLIST TRIGGER       0.3
Info: PAIRLISTS PER CYCLE    2
Info: PAIRLISTS ENABLED
Info: MARGIN                 8
Info: HYDROGEN GROUP CUTOFF  2.5
Info: PATCH DIMENSION        21.5
Info: ENERGY OUTPUT STEPS    100000
Info: ENERGY EVALUATION STEPS    100000
Info: OUTPUT ENERGY PRECISION 4
Info: CROSSTERM ENERGY INCLUDED IN DIHEDRAL
Info: TIMING OUTPUT STEPS    1000000
Info: PRESSURE OUTPUT STEPS  100000
Info: LANGEVIN DYNAMICS ACTIVE
Info: LANGEVIN TEMPERATURE   30
Info: LANGEVIN USING BBK INTEGRATOR
Info: LANGEVIN DAMPING COEFFICIENT IS 1 INVERSE PS
Info: LANGEVIN DYNAMICS APPLIED TO HYDROGENS
Info: LANGEVIN PISTON PRESSURE CONTROL ACTIVE
Info:        TARGET PRESSURE IS 1.01325 BAR
Info:     OSCILLATION PERIOD IS 50 FS
Info:             DECAY TIME IS 25 FS
Info:     PISTON TEMPERATURE IS 300 K
Info:       PRESSURE CONTROL IS GROUP-BASED
Info:    INITIAL STRAIN RATE IS 0 0 0
Info:       CELL FLUCTUATION IS ISOTROPIC
Info: PARTICLE MESH EWALD (PME) ACTIVE
Info: PME TOLERANCE               1e-06
Info: PME EWALD COEFFICIENT       0.348832
Info: PME INTERPOLATION ORDER     4
Info: PME GRID DIMENSIONS         36 36 36
Info: PME MAXIMUM GRID SPACING    1
Info: FULL ELECTROSTATIC EVALUATION FREQUENCY      2
Info: USING VERLET I (r-RESPA) MTS SCHEME.
Info: C1 SPLITTING OF LONG RANGE ELECTROSTATICS
Info: PLACING ATOMS IN PATCHES BY HYDROGEN GROUPS
Info: RIGID BONDS TO HYDROGEN : ALL
Info:         ERROR TOLERANCE : 1e-08
Info:          MAX ITERATIONS : 100
Info: RIGID WATER USING SETTLE ALGORITHM
Info: RANDOM NUMBER SEED     1742264731
Info: USE HYDROGEN BONDS?    NO
Info: Using AMBER format force field!
Info: AMBER PARM FILE        mobley_1952272.prmtop
Info: COORDINATE PDB         mobley_1952272.pdb
Info: Exclusions will be read from PARM file!
Info: SCNB (VDW SCALING)     2
Info: USING ARITHMETIC MEAN TO COMBINE L-J SIGMA PARAMETERS
Info: BINARY COORDINATES     mobley_1952272_min.coor
Info: SUMMARY OF PARAMETERS:
Info: 5 BONDS
Info: 4 ANGLES
Info:   4 HARMONIC
Info:   0 COSINE-BASED
Info: 1 DIHEDRAL
Info: 0 IMPROPER
Info: 0 CROSSTERM
Info: 0 VDW
Info: 21 VDW_PAIRS
Info: 0 NBTHOLE_PAIRS
Info: STRUCTURE SUMMARY:
Info: 2905 ATOMS
Info: 2904 BONDS
Info: 9 ANGLES
Info: 6 DIHEDRALS
Info: 0 IMPROPERS
Info: 0 CROSSTERMS
Info: 2919 EXCLUSIONS
Info: 2901 RIGID BONDS
Info: 5814 DEGREES OF FREEDOM
Info: 970 HYDROGEN GROUPS
Info: 4 ATOMS IN LARGEST HYDROGEN GROUP
Info: 970 MIGRATION GROUPS
Info: 4 ATOMS IN LARGEST MIGRATION GROUP
Info: TOTAL MASS = 17464.5 amu
Info: TOTAL CHARGE = 9.99793e-05 e
Info: MASS DENSITY = 0.671982 g/cm^3
Info: ATOM DENSITY = 0.0673114 atoms/A^3
Info: ADDED 0 IMPLICIT EXCLUSIONS
Info: NONBONDED TABLE R-SQUARED SPACING: 0.0625
Info: NONBONDED TABLE SIZE: 705 POINTS
Info: REMOVING COM VELOCITY 0.0396276 -0.0422461 0.110408
TCL: Running for 100000 steps
ETITLE: TS BOND ANGLE DIHED IMPRP ELECT VDW BOUNDARY MISC KINETIC TOTAL TEMP POTENTIAL TOTAL3 TEMPAVG PRESSURE GPRESSURE VOLUME PRESSAVG GPRESSAVG
ENERGY: 0 0.0001 0.4402 0.0000 0.0000 -13452.2210 2371.5645 0.0000 0.0000 1731.9168 -9348.2994 299.8074 -11080.2162 -9347.9772 299.8074 522.1094 564.3060 43157.6224 522.1094 564.3060
ENERGY: 100000 0.0515 0.6191 0.0000 0.0000 -14138.0214 2528.9175 0.0000 0.0000 175.8111 -11432.6221 30.4342 -11608.4332 -11432.2685 30.9288 800.1222 845.6186 28139.6849 4.7351 4.6258
TCL: Running 100000 steps at 60 kelvin.
TCL: Setting parameter langevinTemp to 60
TCL: Running for 100000 steps
ETITLE: TS BOND ANGLE DIHED IMPRP ELECT VDW BOUNDARY MISC KINETIC TOTAL TEMP POTENTIAL TOTAL3 TEMPAVG PRESSURE GPRESSURE VOLUME PRESSAVG GPRESSAVG
ENERGY: 100000 0.0515 0.6191 0.0000 0.0000 -14138.0214 2528.9175 0.0000 0.0000 175.7222 -11432.7110 30.4188 -11608.4332 -11432.2904 30.4188 799.4739 845.5283 28139.6849 799.4739 845.5283
ENERGY: 200000 0.1092 1.5017 0.0000 0.0000 -13900.0692 2363.4486 0.0000 0.0000 337.0831 -11197.9267 58.3515 -11535.0098 -11197.1641 59.9352 -239.3675 -223.0184 28232.6537 3.7165 3.7641
TCL: Running 100000 steps at 90 kelvin.
TCL: Setting parameter langevinTemp to 90
TCL: Running for 100000 steps
ETITLE: TS BOND ANGLE DIHED IMPRP ELECT VDW BOUNDARY MISC KINETIC TOTAL TEMP POTENTIAL TOTAL3 TEMPAVG PRESSURE GPRESSURE VOLUME PRESSAVG GPRESSAVG
ENERGY: 200000 0.1092 1.5017 0.0000 0.0000 -13900.0692 2363.4486 0.0000 0.0000 336.9146 -11198.0952 58.3224 -11535.0098 -11197.4117 58.3224 -271.8286 -222.8659 28232.6537 -271.8286 -222.8659
ENERGY: 300000 0.1773 1.9404 0.0000 0.0000 -13834.1947 2388.1086 0.0000 0.0000 516.6365 -10927.3318 89.4335 -11443.9683 -10925.5212 89.9759 456.0055 491.4443 27923.7737 1.9711 1.9934
TCL: Running 100000 steps at 120 kelvin.
TCL: Setting parameter langevinTemp to 120
TCL: Running for 100000 steps
ETITLE: TS BOND ANGLE DIHED IMPRP ELECT VDW BOUNDARY MISC KINETIC TOTAL TEMP POTENTIAL TOTAL3 TEMPAVG PRESSURE GPRESSURE VOLUME PRESSAVG GPRESSAVG
ENERGY: 300000 0.1773 1.9404 0.0000 0.0000 -13834.1947 2388.1086 0.0000 0.0000 516.3674 -10927.6010 89.3870 -11443.9683 -10926.7375 89.3870 435.9591 492.3328 27923.7737 435.9591 492.3328
ENERGY: 400000 1.0214 1.8330 0.0000 0.0000 -13593.2952 2278.2705 0.0000 0.0000 694.0306 -10618.1397 120.1417 -11312.1703 -10615.8181 120.0157 -193.8265 -127.9150 28258.9257 4.6104 4.5311
TCL: Running 100000 steps at 150 kelvin.
TCL: Setting parameter langevinTemp to 150
TCL: Running for 100000 steps
ETITLE: TS BOND ANGLE DIHED IMPRP ELECT VDW BOUNDARY MISC KINETIC TOTAL TEMP POTENTIAL TOTAL3 TEMPAVG PRESSURE GPRESSURE VOLUME PRESSAVG GPRESSAVG
ENERGY: 400000 1.0214 1.8330 0.0000 0.0000 -13593.2952 2278.2705 0.0000 0.0000 693.6770 -10618.4933 120.0805 -11312.1703 -10616.8458 120.0805 -195.7929 -127.4429 28258.9257 -195.7929 -127.4429
ENERGY: 500000 0.7626 1.3554 0.0000 0.0000 -13279.8590 2195.7325 0.0000 0.0000 851.7226 -10230.2859 147.4394 -11082.0085 -10227.5159 149.7955 46.3459 112.7733 28197.2941 4.9071 4.6636
TCL: Running 100000 steps at 180 kelvin.
TCL: Setting parameter langevinTemp to 180
TCL: Running for 100000 steps
ETITLE: TS BOND ANGLE DIHED IMPRP ELECT VDW BOUNDARY MISC KINETIC TOTAL TEMP POTENTIAL TOTAL3 TEMPAVG PRESSURE GPRESSURE VOLUME PRESSAVG GPRESSAVG
ENERGY: 500000 0.7626 1.3554 0.0000 0.0000 -13279.8590 2195.7325 0.0000 0.0000 851.2987 -10230.7098 147.3660 -11082.0085 -10229.3898 147.3660 58.0442 113.5077 28197.2941 58.0442 113.5077
ENERGY: 600000 0.0560 3.2773 0.0000 0.0000 -13061.1283 2173.8049 0.0000 0.0000 1060.8713 -9823.1187 183.6446 -10883.9901 -9820.5374 180.2597 591.9177 626.7662 28325.8587 4.8410 4.8822
TCL: Running 100000 steps at 210 kelvin.
TCL: Setting parameter langevinTemp to 210
TCL: Running for 100000 steps
ETITLE: TS BOND ANGLE DIHED IMPRP ELECT VDW BOUNDARY MISC KINETIC TOTAL TEMP POTENTIAL TOTAL3 TEMPAVG PRESSURE GPRESSURE VOLUME PRESSAVG GPRESSAVG
ENERGY: 600000 0.0560 3.2773 0.0000 0.0000 -13061.1283 2173.8049 0.0000 0.0000 1060.3383 -9823.6518 183.5523 -10883.9901 -9821.8810 183.5523 559.2690 626.9741 28325.8587 559.2690 626.9741
ENERGY: 700000 0.9411 1.3244 0.0000 0.0000 -12180.9398 1810.6179 0.0000 0.0000 1216.5847 -9151.4718 210.5997 -10368.0564 -9147.9106 209.8803 -498.4002 -408.1015 28385.0710 3.2393 3.3388
TCL: Running 100000 steps at 240 kelvin.
TCL: Setting parameter langevinTemp to 240
TCL: Running for 100000 steps
ETITLE: TS BOND ANGLE DIHED IMPRP ELECT VDW BOUNDARY MISC KINETIC TOTAL TEMP POTENTIAL TOTAL3 TEMPAVG PRESSURE GPRESSURE VOLUME PRESSAVG GPRESSAVG
ENERGY: 700000 0.9411 1.3244 0.0000 0.0000 -12180.9398 1810.6179 0.0000 0.0000 1215.9908 -9152.0657 210.4969 -10368.0564 -9149.4117 210.4969 -498.7084 -408.3819 28385.0710 -498.7084 -408.3819
ENERGY: 800000 0.9198 1.1809 0.0000 0.0000 -11710.2154 1744.6969 0.0000 0.0000 1376.2139 -8587.2040 238.2327 -9963.4179 -8584.3991 240.0474 440.7644 546.2240 28425.3985 3.7884 3.8363
TCL: Running 100000 steps at 270 kelvin.
TCL: Setting parameter langevinTemp to 270
TCL: Running for 100000 steps
ETITLE: TS BOND ANGLE DIHED IMPRP ELECT VDW BOUNDARY MISC KINETIC TOTAL TEMP POTENTIAL TOTAL3 TEMPAVG PRESSURE GPRESSURE VOLUME PRESSAVG GPRESSAVG
ENERGY: 800000 0.9198 1.1809 0.0000 0.0000 -11710.2154 1744.6969 0.0000 0.0000 1375.5234 -8587.8945 238.1131 -9963.4179 -8586.1514 238.1131 465.6123 545.4053 28425.3985 465.6123 545.4053
ENERGY: 900000 3.6557 2.3618 0.0000 0.0000 -11334.4562 1739.2834 0.0000 0.0000 1549.9213 -8039.2340 268.3027 -9589.1553 -8036.4208 270.0182 1551.0572 1616.1967 28812.5798 1.8447 1.9245
TCL: Running 1000000 steps at 300 kelvin.
TCL: Setting parameter langevinTemp to 300
TCL: Running for 1000000 steps
ETITLE: TS BOND ANGLE DIHED IMPRP ELECT VDW BOUNDARY MISC KINETIC TOTAL TEMP POTENTIAL TOTAL3 TEMPAVG PRESSURE GPRESSURE VOLUME PRESSAVG GPRESSAVG
ENERGY: 900000 3.6557 2.3618 0.0000 0.0000 -11334.4562 1739.2834 0.0000 0.0000 1549.1095 -8040.0458 268.1621 -9589.1553 -8037.7394 268.1621 1528.7871 1617.1542 28812.5798 1528.7871 1617.1542
ENERGY: 1100000 0.5566 3.1074 0.0000 0.0000 -10637.6058 1454.9678 0.0000 0.0000 1763.1095 -7415.8645 305.2071 -9178.9740 -7411.5823 300.2687 146.2057 196.8567 29928.8176 3.0017 3.1702
ENERGY: 1300000 0.2681 1.8481 0.0000 0.0000 -10673.1154 1483.4032 0.0000 0.0000 1783.1552 -7404.4409 308.6772 -9187.5961 -7402.5533 299.6095 517.8655 647.1494 29555.5545 3.1398 3.4864
ENERGY: 1500000 0.1330 3.4200 0.0000 0.0000 -10501.7372 1361.1514 0.0000 0.0000 1733.7045 -7403.3283 300.1169 -9137.0328 -7401.2000 300.1154 -356.2159 -288.8384 29845.8113 2.3533 2.4114
ENERGY: 1700000 0.5858 2.3427 0.0000 0.0000 -10559.4887 1410.7910 0.0000 0.0000 1781.0836 -7364.6857 308.3186 -9145.7693 -7361.1508 300.0443 -287.9854 -145.4591 30009.4894 4.0507 3.8810
ENERGY: 1900000 1.2344 3.9953 0.0000 0.0000 -10618.8954 1476.1136 0.0000 0.0000 1711.2781 -7426.2740 296.2347 -9137.5522 -7423.0354 300.3335 328.0967 422.3130 29866.4426 1.2363 1.4266
TCL: Exiting due to exit command.
