Info: SIMULATION PARAMETERS:
Info: TIMESTEP               2
Info: NUMBER OF STEPS        0
Info: STEPS PER CYCLE        10
Info: PERIODIC CELL BASIS 1  34.207 0 0
Info: PERIODIC CELL BASIS 2  0 35.411 0
Info: PERIODIC CELL BASIS 3  0 0 35.723
Info: PERIODIC CELL CENTER   0 0 0
Info: WRAPPING WATERS AROUND PERIODIC BOUNDARIES ON OUTPUT.
Info: WRAPPING ALL CLUSTERS AROUND PERIODIC BOUNDARIES ON OUTPUT.
Info: FIRST LDB TIMESTEP     50
Info: LAST LDB TIMESTEP     -1
Info: HOM BACKGROUND SCALING 1
Info: PME BACKGROUND SCALING 1
Info: MIN ATOMS PER PATCH    40
Info: EMPTY PATCH LOAD       40 ATOMS
Info: INITIAL TEMPERATURE    300
Info: CENTER OF MASS MOVING INITIALLY? NO
Info: DIELECTRIC             1
Info: EXCLUDE                SCALED ONE-FOUR
Info: 1-4 ELECTROSTATICS SCALED BY 0.833333
Info: MODIFIED 1-4 VDW PARAMETERS WILL BE USED
Info: DCD FILENAME           mobley_7578802_equil.dcd
Info: DCD FREQUENCY          100000
Info: DCD FIRST STEP         100000
Info: DCD FILE WILL CONTAIN UNIT CELL DATA
Info: XST FILENAME           mobley_7578802_equil.xst
Info: XST FREQUENCY          100000
Info: NO VELOCITY DCD OUTPUT
Info: NO FORCE DCD OUTPUT
Info: OUTPUT FILENAME        mobley_7578802_equil
Info: BINARY OUTPUT FILES WILL BE USED
Info: RESTART FILENAME       mobley_7578802_equil.restart
Info: RESTART FREQUENCY      100000
Info: BINARY RESTART FILES WILL BE USED
Info: CUTOFF                 9
Info: PAIRLIST DISTANCE      11
Info: PAIRLIST SHRINK RATE   0.01
Info: PAIRLIST GROW RATE     0.01
Info: PAIRLIST TRIGGER       0.3
Info: PAIRLISTS PER CYCLE    2
Info: PAIRLISTS ENABLED
Info: MARGIN                 8
Info: HYDROGEN GROUP CUTOFF  2.5
Info: PATCH DIMENSION        21.5
Info: ENERGY OUTPUT STEPS    100000
Info: ENERGY EVALUATION STEPS    100000
Info: OUTPUT ENERGY PRECISION 4
Info: CROSSTERM ENERGY INCLUDED IN DIHEDRAL
Info: TIMING OUTPUT STEPS    1000000
Info: PRESSURE OUTPUT STEPS  100000
Info: LANGEVIN DYNAMICS ACTIVE
Info: LANGEVIN TEMPERATURE   30
Info: LANGEVIN USING BBK INTEGRATOR
Info: LANGEVIN DAMPING COEFFICIENT IS 1 INVERSE PS
Info: LANGEVIN DYNAMICS APPLIED TO HYDROGENS
Info: LANGEVIN PISTON PRESSURE CONTROL ACTIVE
Info:        TARGET PRESSURE IS 1.01325 BAR
Info:     OSCILLATION PERIOD IS 50 FS
Info:             DECAY TIME IS 25 FS
Info:     PISTON TEMPERATURE IS 300 K
Info:       PRESSURE CONTROL IS GROUP-BASED
Info:    INITIAL STRAIN RATE IS 0 0 0
Info:       CELL FLUCTUATION IS ISOTROPIC
Info: PARTICLE MESH EWALD (PME) ACTIVE
Info: PME TOLERANCE               1e-06
Info: PME EWALD COEFFICIENT       0.348832
Info: PME INTERPOLATION ORDER     4
Info: PME GRID DIMENSIONS         36 36 36
Info: PME MAXIMUM GRID SPACING    1
Info: FULL ELECTROSTATIC EVALUATION FREQUENCY      2
Info: USING VERLET I (r-RESPA) MTS SCHEME.
Info: C1 SPLITTING OF LONG RANGE ELECTROSTATICS
Info: PLACING ATOMS IN PATCHES BY HYDROGEN GROUPS
Info: RIGID BONDS TO HYDROGEN : ALL
Info:         ERROR TOLERANCE : 1e-08
Info:          MAX ITERATIONS : 100
Info: RIGID WATER USING SETTLE ALGORITHM
Info: RANDOM NUMBER SEED     1741915327
Info: USE HYDROGEN BONDS?    NO
Info: Using AMBER format force field!
Info: AMBER PARM FILE        mobley_7578802.prmtop
Info: COORDINATE PDB         mobley_7578802.pdb
Info: Exclusions will be read from PARM file!
Info: SCNB (VDW SCALING)     2
Info: USING ARITHMETIC MEAN TO COMBINE L-J SIGMA PARAMETERS
Info: BINARY COORDINATES     mobley_7578802_min.coor
Info: SUMMARY OF PARAMETERS:
Info: 4 BONDS
Info: 2 ANGLES
Info:   2 HARMONIC
Info:   0 COSINE-BASED
Info: 0 DIHEDRAL
Info: 0 IMPROPER
Info: 0 CROSSTERM
Info: 0 VDW
Info: 15 VDW_PAIRS
Info: 0 NBTHOLE_PAIRS
Info: STRUCTURE SUMMARY:
Info: 2915 ATOMS
Info: 2914 BONDS
Info: 6 ANGLES
Info: 0 DIHEDRALS
Info: 0 IMPROPERS
Info: 0 CROSSTERMS
Info: 2920 EXCLUSIONS
Info: 2911 RIGID BONDS
Info: 5834 DEGREES OF FREEDOM
Info: 974 HYDROGEN GROUPS
Info: 3 ATOMS IN LARGEST HYDROGEN GROUP
Info: 974 MIGRATION GROUPS
Info: 3 ATOMS IN LARGEST MIGRATION GROUP
Info: TOTAL MASS = 17728.2 amu
Info: TOTAL CHARGE = 9.9998e-05 e
Info: MASS DENSITY = 0.680336 g/cm^3
Info: ATOM DENSITY = 0.0673655 atoms/A^3
Info: ADDED 0 IMPLICIT EXCLUSIONS
Info: NONBONDED TABLE R-SQUARED SPACING: 0.0625
Info: NONBONDED TABLE SIZE: 705 POINTS
Info: REMOVING COM VELOCITY -0.00322579 -0.0502603 0.0918644
TCL: Running for 100000 steps
ETITLE: TS BOND ANGLE DIHED IMPRP ELECT VDW BOUNDARY MISC KINETIC TOTAL TEMP POTENTIAL TOTAL3 TEMPAVG PRESSURE GPRESSURE VOLUME PRESSAVG GPRESSAVG
ENERGY: 0 0.0007 0.0604 0.0000 0.0000 -13561.5180 2397.9011 0.0000 0.0000 1745.8806 -9417.6751 301.1886 -11163.5558 -9417.3249 301.1886 520.8750 551.5551 43271.4155 520.8750 551.5551
ENERGY: 100000 0.1465 0.3442 0.0000 0.0000 -14264.9196 2564.7026 0.0000 0.0000 169.5824 -11530.1440 29.2553 -11699.7264 -11529.8223 30.9378 779.7155 815.7316 28131.4302 3.7919 3.7857
TCL: Running 100000 steps at 60 kelvin.
TCL: Setting parameter langevinTemp to 60
TCL: Running for 100000 steps
ETITLE: TS BOND ANGLE DIHED IMPRP ELECT VDW BOUNDARY MISC KINETIC TOTAL TEMP POTENTIAL TOTAL3 TEMPAVG PRESSURE GPRESSURE VOLUME PRESSAVG GPRESSAVG
ENERGY: 100000 0.1465 0.3442 0.0000 0.0000 -14264.9196 2564.7026 0.0000 0.0000 169.4954 -11530.2310 29.2403 -11699.7264 -11529.9019 29.2403 767.6627 815.7386 28131.4302 767.6627 815.7386
ENERGY: 200000 0.0935 0.2355 0.0000 0.0000 -13977.1258 2383.5549 0.0000 0.0000 350.8298 -11242.4121 60.5230 -11593.2419 -11241.4497 60.0013 -240.4929 -203.9714 28188.7304 4.5525 4.6494
TCL: Running 100000 steps at 90 kelvin.
TCL: Setting parameter langevinTemp to 90
TCL: Running for 100000 steps
ETITLE: TS BOND ANGLE DIHED IMPRP ELECT VDW BOUNDARY MISC KINETIC TOTAL TEMP POTENTIAL TOTAL3 TEMPAVG PRESSURE GPRESSURE VOLUME PRESSAVG GPRESSAVG
ENERGY: 200000 0.0935 0.2355 0.0000 0.0000 -13977.1258 2383.5549 0.0000 0.0000 350.6616 -11242.5803 60.4940 -11593.2419 -11242.0045 60.4940 -256.4646 -203.4851 28188.7304 -256.4646 -203.4851
ENERGY: 300000 0.4880 0.5834 0.0000 0.0000 -13875.2443 2372.8890 0.0000 0.0000 508.8514 -10992.4325 87.7839 -11501.2840 -10991.5326 89.7439 475.5054 489.2099 27543.5854 3.2557 3.2998
TCL: Running 100000 steps at 120 kelvin.
TCL: Setting parameter langevinTemp to 120
TCL: Running for 100000 steps
ETITLE: TS BOND ANGLE DIHED IMPRP ELECT VDW BOUNDARY MISC KINETIC TOTAL TEMP POTENTIAL TOTAL3 TEMPAVG PRESSURE GPRESSURE VOLUME PRESSAVG GPRESSAVG
ENERGY: 300000 0.4880 0.5834 0.0000 0.0000 -13875.2443 2372.8890 0.0000 0.0000 508.6014 -10992.6826 87.7408 -11501.2840 -10991.5615 87.7408 452.2022 489.0467 27543.5854 452.2022 489.0467
ENERGY: 400000 0.7495 0.4212 0.0000 0.0000 -13746.9467 2376.6626 0.0000 0.0000 711.5859 -10657.5276 122.7584 -11369.1135 -10654.8392 119.9489 839.3702 897.5134 27830.9673 2.7206 2.7106
TCL: Running 100000 steps at 150 kelvin.
TCL: Setting parameter langevinTemp to 150
TCL: Running for 100000 steps
ETITLE: TS BOND ANGLE DIHED IMPRP ELECT VDW BOUNDARY MISC KINETIC TOTAL TEMP POTENTIAL TOTAL3 TEMPAVG PRESSURE GPRESSURE VOLUME PRESSAVG GPRESSAVG
ENERGY: 400000 0.7495 0.4212 0.0000 0.0000 -13746.9467 2376.6626 0.0000 0.0000 711.2433 -10657.8702 122.6993 -11369.1135 -10656.6198 122.6993 843.3539 898.9820 27830.9673 843.3539 898.9820
ENERGY: 500000 0.3469 0.5360 0.0000 0.0000 -13229.8771 2037.9358 0.0000 0.0000 867.9562 -10323.1023 149.7345 -11191.0585 -10321.6432 149.8635 -1636.2069 -1573.3034 28624.7127 2.6304 2.6455
TCL: Running 100000 steps at 180 kelvin.
TCL: Setting parameter langevinTemp to 180
TCL: Running for 100000 steps
ETITLE: TS BOND ANGLE DIHED IMPRP ELECT VDW BOUNDARY MISC KINETIC TOTAL TEMP POTENTIAL TOTAL3 TEMPAVG PRESSURE GPRESSURE VOLUME PRESSAVG GPRESSAVG
ENERGY: 500000 0.3469 0.5360 0.0000 0.0000 -13229.8771 2037.9358 0.0000 0.0000 867.5198 -10323.5387 149.6592 -11191.0585 -10321.7387 149.6592 -1640.5238 -1575.3166 28624.7127 -1640.5238 -1575.3166
ENERGY: 600000 0.0292 2.2424 0.0000 0.0000 -13072.9086 2144.2566 0.0000 0.0000 1051.0919 -9875.2885 181.3279 -10926.3804 -9872.1887 180.1044 318.2594 375.6803 28425.1033 3.8050 3.6435
TCL: Running 100000 steps at 210 kelvin.
TCL: Setting parameter langevinTemp to 210
TCL: Running for 100000 steps
ETITLE: TS BOND ANGLE DIHED IMPRP ELECT VDW BOUNDARY MISC KINETIC TOTAL TEMP POTENTIAL TOTAL3 TEMPAVG PRESSURE GPRESSURE VOLUME PRESSAVG GPRESSAVG
ENERGY: 600000 0.0292 2.2424 0.0000 0.0000 -13072.9086 2144.2566 0.0000 0.0000 1050.5765 -9875.8040 181.2390 -10926.3804 -9874.3260 181.2390 314.3288 376.5194 28425.1033 314.3288 376.5194
ENERGY: 700000 3.3578 1.1416 0.0000 0.0000 -12285.5929 1828.4348 0.0000 0.0000 1245.8091 -9206.8495 214.9193 -10452.6587 -9204.1566 210.0902 -591.8486 -481.4648 28645.0285 3.6798 3.5163
TCL: Running 100000 steps at 240 kelvin.
TCL: Setting parameter langevinTemp to 240
TCL: Running for 100000 steps
ETITLE: TS BOND ANGLE DIHED IMPRP ELECT VDW BOUNDARY MISC KINETIC TOTAL TEMP POTENTIAL TOTAL3 TEMPAVG PRESSURE GPRESSURE VOLUME PRESSAVG GPRESSAVG
ENERGY: 700000 3.3578 1.1416 0.0000 0.0000 -12285.5929 1828.4348 0.0000 0.0000 1245.1962 -9207.4624 214.8136 -10452.6587 -9204.9587 214.8136 -565.2128 -482.5584 28645.0285 -565.2128 -482.5584
ENERGY: 800000 1.6095 1.5048 0.0000 0.0000 -11772.7259 1789.0643 0.0000 0.0000 1396.7676 -8583.7798 240.9618 -9980.5474 -8579.6227 239.7769 674.6351 741.7118 28884.7592 3.3671 3.2577
TCL: Running 100000 steps at 270 kelvin.
TCL: Setting parameter langevinTemp to 270
TCL: Running for 100000 steps
ETITLE: TS BOND ANGLE DIHED IMPRP ELECT VDW BOUNDARY MISC KINETIC TOTAL TEMP POTENTIAL TOTAL3 TEMPAVG PRESSURE GPRESSURE VOLUME PRESSAVG GPRESSAVG
ENERGY: 800000 1.6095 1.5048 0.0000 0.0000 -11772.7259 1789.0643 0.0000 0.0000 1396.0564 -8584.4910 240.8391 -9980.5474 -8582.2454 240.8391 650.2592 741.6556 28884.7592 650.2592 741.6556
ENERGY: 900000 0.8189 1.0951 0.0000 0.0000 -11066.3715 1544.3637 0.0000 0.0000 1561.7005 -7958.3933 269.4150 -9520.0938 -7956.5508 269.6283 -76.3427 -68.5151 29678.1391 2.6752 2.8260
TCL: Running 1000000 steps at 300 kelvin.
TCL: Setting parameter langevinTemp to 300
TCL: Running for 1000000 steps
ETITLE: TS BOND ANGLE DIHED IMPRP ELECT VDW BOUNDARY MISC KINETIC TOTAL TEMP POTENTIAL TOTAL3 TEMPAVG PRESSURE GPRESSURE VOLUME PRESSAVG GPRESSAVG
ENERGY: 900000 0.8189 1.0951 0.0000 0.0000 -11066.3715 1544.3637 0.0000 0.0000 1560.9111 -7959.1826 269.2788 -9520.0938 -7956.2799 269.2788 -150.8807 -70.1970 29678.1391 -150.8807 -70.1970
ENERGY: 1100000 0.0315 1.2984 0.0000 0.0000 -10563.7153 1397.8494 0.0000 0.0000 1700.7775 -7463.7585 293.4077 -9164.5361 -7459.4440 300.6181 -341.9883 -259.4625 30219.6795 2.2906 2.1610
ENERGY: 1300000 1.8555 2.0587 0.0000 0.0000 -10694.6194 1527.4476 0.0000 0.0000 1718.2798 -7444.9777 296.4271 -9163.2575 -7443.4384 300.0820 624.3428 749.5020 30303.2006 3.3656 3.3083
ENERGY: 1500000 0.1373 1.3701 0.0000 0.0000 -10485.8766 1381.5003 0.0000 0.0000 1710.4480 -7392.4210 295.0760 -9102.8690 -7389.9621 300.2342 -468.8858 -398.1976 30795.3307 2.1362 1.9915
ENERGY: 1700000 1.1087 0.5572 0.0000 0.0000 -10518.1555 1373.3585 0.0000 0.0000 1696.3999 -7446.7312 292.6525 -9143.1311 -7442.8203 300.1512 -569.1590 -517.5157 30687.3409 3.4248 3.4378
ENERGY: 1900000 0.3307 2.1865 0.0000 0.0000 -10557.4238 1389.2295 0.0000 0.0000 1765.4982 -7400.1789 304.5729 -9165.6771 -7397.5459 300.0878 -255.2965 -224.1178 30257.5952 4.2592 4.4636
TCL: Exiting due to exit command.
