Info: SIMULATION PARAMETERS:
Info: TIMESTEP               2
Info: NUMBER OF STEPS        0
Info: STEPS PER CYCLE        10
Info: PERIODIC CELL BASIS 1  31.1314 0 0
Info: PERIODIC CELL BASIS 2  0 30.3222 0
Info: PERIODIC CELL BASIS 3  0 0 32.1887
Info: PERIODIC CELL CENTER   0 0 0
Info: WRAPPING WATERS AROUND PERIODIC BOUNDARIES ON OUTPUT.
Info: WRAPPING ALL CLUSTERS AROUND PERIODIC BOUNDARIES ON OUTPUT.
Info: FIRST LDB TIMESTEP     50
Info: LAST LDB TIMESTEP     -1
Info: HOM BACKGROUND SCALING 1
Info: PME BACKGROUND SCALING 1
Info: MIN ATOMS PER PATCH    40
Info: EMPTY PATCH LOAD       40 ATOMS
Info: VELOCITY FILE          mobley_9913368_equil.vel
Info: CENTER OF MASS MOVING INITIALLY? NO
Info: DIELECTRIC             1
Info: EXCLUDE                SCALED ONE-FOUR
Info: 1-4 ELECTROSTATICS SCALED BY 0.833333
Info: MODIFIED 1-4 VDW PARAMETERS WILL BE USED
Info: DCD FILENAME           mobley_9913368_prod.dcd
Info: DCD FREQUENCY          100000
Info: DCD FIRST STEP         100000
Info: DCD FILE WILL CONTAIN UNIT CELL DATA
Info: XST FILENAME           mobley_9913368_prod.xst
Info: XST FREQUENCY          100000
Info: NO VELOCITY DCD OUTPUT
Info: NO FORCE DCD OUTPUT
Info: OUTPUT FILENAME        mobley_9913368_prod
Info: BINARY OUTPUT FILES WILL BE USED
Info: RESTART FILENAME       mobley_9913368_prod.restart
Info: RESTART FREQUENCY      100000
Info: BINARY RESTART FILES WILL BE USED
Info: CUTOFF                 9
Info: PAIRLIST DISTANCE      11
Info: PAIRLIST SHRINK RATE   0.01
Info: PAIRLIST GROW RATE     0.01
Info: PAIRLIST TRIGGER       0.3
Info: PAIRLISTS PER CYCLE    2
Info: PAIRLISTS ENABLED
Info: MARGIN                 2
Info: HYDROGEN GROUP CUTOFF  2.5
Info: PATCH DIMENSION        15.5
Info: ENERGY OUTPUT STEPS    100000
Info: ENERGY EVALUATION STEPS    100000
Info: OUTPUT ENERGY PRECISION 4
Info: CROSSTERM ENERGY INCLUDED IN DIHEDRAL
Info: TIMING OUTPUT STEPS    1000000
Info: PRESSURE OUTPUT STEPS  100000
Info: ALCHEMICAL FEP ON
Info: FEP CURRENT LAMBDA VALUE     0
Info: FEP COMPARISON LAMBDA VALUE  0.05
Info: FEP INTRA-ALCHEMICAL NON-BONDED INTERACTIONS WILL BE RETAINED
Info: FEP INTRA-ALCHEMICAL BONDED INTERACTIONS WILL BE RETAINED
Info: FEP VDW SHIFTING COEFFICIENT 5
Info: FEP ELEC. ACTIVE FOR ANNIHILATED PARTICLES BETWEEN LAMBDA = 0 AND LAMBDA = 0.5
Info: FEP ELEC. ACTIVE FOR EXNIHILATED PARTICLES BETWEEN LAMBDA = 0.5 AND LAMBDA = 1
Info: FEP VDW ACTIVE FOR ANNIHILATED PARTICLES BETWEEN LAMBDA = 0 AND LAMBDA = 1
Info: FEP VDW ACTIVE FOR EXNIHILATED PARTICLES BETWEEN LAMBDA = 0 AND LAMBDA = 1
Info: FEP BOND ACTIVE FOR ANNIHILATED PARTICLES BETWEEN LAMBDA = 1 AND LAMBDA = 1
Info: FEP BOND ACTIVE FOR EXNIHILATED PARTICLES BETWEEN LAMBDA = 0 AND LAMBDA = 0
Info: LANGEVIN DYNAMICS ACTIVE
Info: LANGEVIN TEMPERATURE   300
Info: LANGEVIN USING BBK INTEGRATOR
Info: LANGEVIN DAMPING COEFFICIENT IS 1 INVERSE PS
Info: LANGEVIN DYNAMICS APPLIED TO HYDROGENS
Info: LANGEVIN PISTON PRESSURE CONTROL ACTIVE
Info:        TARGET PRESSURE IS 1.01325 BAR
Info:     OSCILLATION PERIOD IS 50 FS
Info:             DECAY TIME IS 25 FS
Info:     PISTON TEMPERATURE IS 300 K
Info:       PRESSURE CONTROL IS GROUP-BASED
Info:    INITIAL STRAIN RATE IS -0.000595157 -0.000595157 -0.000595157
Info:       CELL FLUCTUATION IS ISOTROPIC
Info: PARTICLE MESH EWALD (PME) ACTIVE
Info: PME TOLERANCE               1e-06
Info: PME EWALD COEFFICIENT       0.348832
Info: PME INTERPOLATION ORDER     4
Info: PME GRID DIMENSIONS         32 32 36
Info: PME MAXIMUM GRID SPACING    1
Info: PME CALCULATION WILL BE PERFORMED ON GPU
Info: FULL ELECTROSTATIC EVALUATION FREQUENCY      2
Info: USING VERLET I (r-RESPA) MTS SCHEME.
Info: C1 SPLITTING OF LONG RANGE ELECTROSTATICS
Info: PLACING ATOMS IN PATCHES BY HYDROGEN GROUPS
Info: RIGID BONDS TO HYDROGEN : ALL
Info:         ERROR TOLERANCE : 1e-08
Info:          MAX ITERATIONS : 100
Info: RIGID WATER USING SETTLE ALGORITHM
Info: RANDOM NUMBER SEED     1742001788
Info: USE HYDROGEN BONDS?    NO
Info: Using AMBER format force field!
Info: AMBER PARM FILE        mobley_9913368.prmtop
Info: COORDINATE PDB         mobley_9913368.pdb
Info: Exclusions will be read from PARM file!
Info: SCNB (VDW SCALING)     2
Info: USING ARITHMETIC MEAN TO COMBINE L-J SIGMA PARAMETERS
Info: BINARY COORDINATES     mobley_9913368_equil.coor
Info: SUMMARY OF PARAMETERS:
Info: 5 BONDS
Info: 3 ANGLES
Info:   3 HARMONIC
Info:   0 COSINE-BASED
Info: 1 DIHEDRAL
Info: 0 IMPROPER
Info: 0 CROSSTERM
Info: 0 VDW
Info: 15 VDW_PAIRS
Info: 0 NBTHOLE_PAIRS
Info: To read alchdata from file: mobley_9913368.pdb
Info: To read alchflag data from column: 5
Info: STRUCTURE SUMMARY:
Info: 2916 ATOMS
Info: 2915 BONDS
Info: 6 ANGLES
Info: 4 DIHEDRALS
Info: 0 IMPROPERS
Info: 0 CROSSTERMS
Info: 2925 EXCLUSIONS
Info: 2912 RIGID BONDS
Info: ALCH: 0 ATOMS TO DISAPPEAR IN FINAL STATE
Info: ALCH: 6 ATOMS TO APPEAR IN FINAL STATE
Info: 5836 DEGREES OF FREEDOM
Info: 974 HYDROGEN GROUPS
Info: 3 ATOMS IN LARGEST HYDROGEN GROUP
Info: 974 MIGRATION GROUPS
Info: 3 ATOMS IN LARGEST MIGRATION GROUP
Info: TOTAL MASS = 17572.5 amu
Info: TOTAL CHARGE = 0.000100002 e
Info: MASS DENSITY = 0.960348 g/cm^3
Info: ATOM DENSITY = 0.0959675 atoms/A^3
Info: ADDED 0 IMPLICIT EXCLUSIONS
Info: NONBONDED TABLE R-SQUARED SPACING: 0.0625
Info: NONBONDED TABLE SIZE: 705 POINTS
Info: REMOVING COM VELOCITY 0.142616 -0.0562881 0.0691896
Info: Use 3D box decompostion in PME FFT.
Info: Updated CUDA force table with 4096 elements.
Info: Updated CUDA LJ table with 5 x 5 elements.
Info: Found 9 unique exclusion lists needing 12 bytes
TCL: Running for 1500000 steps
ETITLE: TS BOND ANGLE DIHED IMPRP ELECT VDW BOUNDARY MISC KINETIC TOTAL TEMP POTENTIAL TOTALAVG TEMPAVG PRESSURE GPRESSURE VOLUME PRESSAVG GPRESSAVG
ENERGY: 0 0.9631 2.0624 0.6376 0.0000 -10612.5981 1477.2545 0.0000 0.0000 1721.7160 -7409.9646 296.9181 -9131.6806 -7409.9646 296.9181 264.6815 351.0817 30385.2822 264.6815 351.0817
ENERGY: 300000 0.4196 1.5448 1.3287 0.0000 -10726.0288 1547.7681 0.0000 0.0000 1742.2647 -7432.7028 300.4618 -9174.9675 -7435.1578 297.8535 791.2025 843.7761 29903.8687 32.6803 120.1728
ENERGY: 600000 0.9479 0.5692 1.1639 0.0000 -10599.4356 1431.0153 0.0000 0.0000 1752.0239 -7413.7155 302.1448 -9165.7394 -7425.3972 299.9510 -132.2542 -21.5795 30251.7303 97.5169 182.4837
ENERGY: 900000 3.3635 1.1322 2.1233 0.0000 -10525.2696 1344.3365 0.0000 0.0000 1717.1291 -7457.1849 296.1270 -9174.3141 -7453.2315 298.5257 -610.4296 -546.9478 29937.9776 3.4709 81.0453
ENERGY: 1200000 0.4701 2.0972 0.3609 0.0000 -10475.3810 1338.4434 0.0000 0.0000 1754.0499 -7379.9595 302.4942 -9134.0094 -7451.0309 298.4913 -730.2984 -685.0732 30172.4747 104.5758 177.6380
ENERGY: 1500000 0.6431 4.1220 0.0498 0.0000 -10481.2585 1411.8201 0.0000 0.0000 1748.5300 -7316.0936 301.5423 -9064.6236 -7441.5706 298.6977 15.3353 42.8982 30330.6680 85.7056 156.3175
TCL: Running FEP window   2: Lambda1 0.05   Lambda2 0.1    [dLambda 0.05  ]
TCL: Setting parameter firsttimestep to 0
TCL: Setting parameter alchLambda to 0.05
Info: NONBONDED TABLE R-SQUARED SPACING: 0.0625
Info: NONBONDED TABLE SIZE: 705 POINTS
TCL: Setting parameter alchLambda2 to 0.1
Info: NONBONDED TABLE R-SQUARED SPACING: 0.0625
Info: NONBONDED TABLE SIZE: 705 POINTS
TCL: Running for 1500000 steps
ETITLE: TS BOND ANGLE DIHED IMPRP ELECT VDW BOUNDARY MISC KINETIC TOTAL TEMP POTENTIAL TOTALAVG TEMPAVG PRESSURE GPRESSURE VOLUME PRESSAVG GPRESSAVG
ENERGY: 0 0.6431 4.1220 0.0498 0.0000 -10481.2578 1412.8571 0.0000 0.0000 1747.6051 -7315.9807 301.3828 -9063.5858 -7315.9807 301.3828 -27.9608 46.5672 30330.6680 -27.9608 46.5672
ENERGY: 300000 0.9549 0.2487 0.1085 0.0000 -10513.8258 1402.5150 0.0000 0.0000 1700.5589 -7409.4397 293.2694 -9109.9987 -7371.1251 300.7539 -18.7281 18.3131 30069.2667 301.0833 375.3175
ENERGY: 600000 0.3785 0.4954 0.7530 0.0000 -10524.5709 1346.1695 0.0000 0.0000 1745.2269 -7431.5476 300.9726 -9176.7745 -7404.7973 300.6709 -742.7438 -688.8700 30218.7740 42.3407 107.5234
ENERGY: 900000 0.0238 0.2405 1.4106 0.0000 -10648.3398 1425.0107 0.0000 0.0000 1758.7337 -7462.9205 303.3019 -9221.6542 -7422.2439 299.9917 243.7467 259.3788 29366.9891 66.3652 130.9355
ENERGY: 1200000 1.2445 0.5797 0.2985 0.0000 -10550.8034 1426.3856 0.0000 0.0000 1713.7535 -7408.5415 295.5449 -9122.2951 -7424.1804 299.8308 2.3717 54.5555 30131.4074 -20.1737 47.3147
ENERGY: 1500000 0.7186 2.1287 0.3813 0.0000 -10645.9660 1426.9180 0.0000 0.0000 1772.4228 -7443.3966 305.6627 -9215.8195 -7418.9925 300.9850 -50.3934 -6.3818 29711.8090 -47.7567 17.3983
TCL: Running FEP window   3: Lambda1 0.1    Lambda2 0.15000000000000002 [dLambda 0.05000000000000002]
TCL: Setting parameter firsttimestep to 0
TCL: Setting parameter alchLambda to 0.1
Info: NONBONDED TABLE R-SQUARED SPACING: 0.0625
Info: NONBONDED TABLE SIZE: 705 POINTS
TCL: Setting parameter alchLambda2 to 0.15000000000000002
Info: NONBONDED TABLE R-SQUARED SPACING: 0.0625
Info: NONBONDED TABLE SIZE: 705 POINTS
TCL: Running for 1500000 steps
ETITLE: TS BOND ANGLE DIHED IMPRP ELECT VDW BOUNDARY MISC KINETIC TOTAL TEMP POTENTIAL TOTALAVG TEMPAVG PRESSURE GPRESSURE VOLUME PRESSAVG GPRESSAVG
ENERGY: 0 0.7186 2.1287 0.3813 0.0000 -10645.9651 1430.3992 0.0000 0.0000 1771.5592 -7440.7781 305.5138 -9212.3373 -7440.7781 305.5138 -49.8434 7.7064 29711.8090 -49.8434 7.7064
ENERGY: 300000 1.4187 0.8393 2.0903 0.0000 -10596.2139 1423.3739 0.0000 0.0000 1732.3700 -7436.1217 298.7554 -9168.4918 -7440.0998 300.9059 20.4965 96.5884 29792.4588 -42.9203 11.0089
ENERGY: 600000 0.2949 0.5659 0.3480 0.0000 -10624.5147 1419.4248 0.0000 0.0000 1811.3299 -7392.5511 312.3724 -9203.8810 -7429.0146 302.4981 -238.6284 -159.7553 29778.2605 -175.8180 -119.5722
ENERGY: 900000 0.2537 1.1898 1.5812 0.0000 -10739.2848 1537.3526 0.0000 0.0000 1765.0677 -7433.8398 304.3943 -9198.9076 -7422.3614 301.9532 888.7522 989.1414 29639.0547 -110.7632 -39.6915
ENERGY: 1200000 0.4010 0.7851 1.4488 0.0000 -10617.4745 1456.9767 0.0000 0.0000 1725.4578 -7432.4051 297.5634 -9157.8629 -7421.1874 300.7241 55.1655 130.7412 30047.9874 -68.8069 -5.9596
ENERGY: 1500000 2.9088 0.6063 0.1832 0.0000 -10394.5012 1330.5123 0.0000 0.0000 1739.9976 -7320.2929 300.0708 -9060.2906 -7405.0462 300.4058 -452.2743 -437.6514 30017.1407 -94.4732 -35.4398
TCL: Running FEP window   4: Lambda1 0.15000000000000002 Lambda2 0.2    [dLambda 0.04999999999999999]
TCL: Setting parameter firsttimestep to 0
TCL: Setting parameter alchLambda to 0.15000000000000002
Info: NONBONDED TABLE R-SQUARED SPACING: 0.0625
Info: NONBONDED TABLE SIZE: 705 POINTS
TCL: Setting parameter alchLambda2 to 0.2
Info: NONBONDED TABLE R-SQUARED SPACING: 0.0625
Info: NONBONDED TABLE SIZE: 705 POINTS
TCL: Running for 1500000 steps
ETITLE: TS BOND ANGLE DIHED IMPRP ELECT VDW BOUNDARY MISC KINETIC TOTAL TEMP POTENTIAL TOTALAVG TEMPAVG PRESSURE GPRESSURE VOLUME PRESSAVG GPRESSAVG
ENERGY: 0 2.9088 0.6063 0.1832 0.0000 -10394.5002 1330.9867 0.0000 0.0000 1739.1364 -7320.6787 299.9223 -9059.8151 -7320.6787 299.9223 -518.0542 -437.8864 30017.1407 -518.0542 -437.8864
ENERGY: 300000 1.4280 0.3133 0.9752 0.0000 -10588.3441 1459.9181 0.0000 0.0000 1712.5200 -7413.1893 295.3322 -9125.7094 -7380.5256 302.5480 437.2963 525.2504 29818.4154 145.1641 211.3613
ENERGY: 600000 0.1617 0.2085 0.8695 0.0000 -10421.5218 1336.2749 0.0000 0.0000 1724.2727 -7359.7345 297.3590 -9084.0072 -7381.2695 302.2918 -475.7141 -459.0692 29945.6031 -95.4977 -20.9596
ENERGY: 900000 1.4887 1.8918 2.0391 0.0000 -10569.6497 1404.4866 0.0000 0.0000 1766.9690 -7392.7746 304.7222 -9159.7436 -7388.0705 301.2057 -319.8497 -260.8829 29950.5470 -49.2904 16.9681
ENERGY: 1200000 0.3033 0.5313 0.5607 0.0000 -10637.1684 1448.8301 0.0000 0.0000 1764.3556 -7422.5874 304.2715 -9186.9430 -7400.4369 301.9045 441.1513 489.5524 29471.0623 57.3501 119.8528
ENERGY: 1500000 0.1390 0.7811 1.0531 0.0000 -10654.7833 1462.5482 0.0000 0.0000 1765.5199 -7424.7420 304.4723 -9190.2619 -7396.8762 302.2902 343.0089 447.6784 29771.4982 81.9915 147.4018
TCL: Running FEP window   5: Lambda1 0.2    Lambda2 0.25   [dLambda 0.04999999999999999]
TCL: Setting parameter firsttimestep to 0
TCL: Setting parameter alchLambda to 0.2
Info: NONBONDED TABLE R-SQUARED SPACING: 0.0625
Info: NONBONDED TABLE SIZE: 705 POINTS
TCL: Setting parameter alchLambda2 to 0.25
Info: NONBONDED TABLE R-SQUARED SPACING: 0.0625
Info: NONBONDED TABLE SIZE: 705 POINTS
TCL: Running for 1500000 steps
ETITLE: TS BOND ANGLE DIHED IMPRP ELECT VDW BOUNDARY MISC KINETIC TOTAL TEMP POTENTIAL TOTALAVG TEMPAVG PRESSURE GPRESSURE VOLUME PRESSAVG GPRESSAVG
ENERGY: 0 0.1390 0.7811 1.0531 0.0000 -10654.7833 1462.8199 0.0000 0.0000 1764.6626 -7425.3276 304.3244 -9189.9902 -7425.3276 304.3244 373.3501 453.5395 29771.4982 373.3501 453.5395
ENERGY: 300000 1.2686 1.4890 0.2011 0.0000 -10505.5588 1426.8333 0.0000 0.0000 1757.2818 -7318.4850 303.0516 -9075.7668 -7390.1909 300.9850 229.2910 334.7026 29994.2088 154.2274 249.3253
ENERGY: 600000 0.4692 2.5025 0.5566 0.0000 -10440.8269 1375.9476 0.0000 0.0000 1746.1510 -7315.1999 301.1320 -9061.3509 -7378.8285 300.1520 -401.2423 -293.4978 30469.2100 5.7666 95.0154
ENERGY: 900000 1.1721 0.3368 0.8293 0.0000 -10569.3116 1405.9523 0.0000 0.0000 1743.8143 -7417.2069 300.7290 -9161.0211 -7381.0245 301.2261 -311.0816 -233.1931 30094.3946 -83.3981 -3.4137
ENERGY: 1200000 3.9419 2.4056 0.9451 0.0000 -10579.5646 1438.6178 0.0000 0.0000 1744.4220 -7389.2322 300.8338 -9133.6542 -7386.8184 301.3695 13.4640 52.5441 30120.0380 -42.1327 29.9133
ENERGY: 1500000 0.2810 1.5507 0.9805 0.0000 -10531.9641 1397.4952 0.0000 0.0000 1761.9171 -7369.7395 303.8509 -9131.6566 -7388.8713 301.4102 -220.1011 -114.9506 30141.9041 11.8826 85.3231
TCL: Running FEP window   6: Lambda1 0.25   Lambda2 0.3    [dLambda 0.04999999999999999]
TCL: Setting parameter firsttimestep to 0
TCL: Setting parameter alchLambda to 0.25
Info: NONBONDED TABLE R-SQUARED SPACING: 0.0625
Info: NONBONDED TABLE SIZE: 705 POINTS
TCL: Setting parameter alchLambda2 to 0.3
Info: NONBONDED TABLE R-SQUARED SPACING: 0.0625
Info: NONBONDED TABLE SIZE: 705 POINTS
TCL: Running for 1500000 steps
ETITLE: TS BOND ANGLE DIHED IMPRP ELECT VDW BOUNDARY MISC KINETIC TOTAL TEMP POTENTIAL TOTALAVG TEMPAVG PRESSURE GPRESSURE VOLUME PRESSAVG GPRESSAVG
ENERGY: 0 0.2810 1.5507 0.9805 0.0000 -10531.9652 1397.4453 0.0000 0.0000 1761.0301 -7370.6776 303.6980 -9131.7077 -7370.6776 303.6980 -201.8883 -113.3349 30141.9041 -201.8883 -113.3349
ENERGY: 300000 0.0750 1.1657 0.5270 0.0000 -10726.5614 1509.4276 0.0000 0.0000 1726.3965 -7488.9694 297.7252 -9215.3660 -7440.1639 300.2657 386.8985 462.7385 30016.6601 75.8248 137.3926
ENERGY: 600000 1.1909 0.3969 0.4154 0.0000 -10675.8336 1501.7392 0.0000 0.0000 1685.0260 -7487.0650 290.5907 -9172.0910 -7436.1834 297.8344 451.5597 531.3318 29957.8256 202.9959 279.5945
ENERGY: 900000 0.3838 0.4003 0.3470 0.0000 -10623.6160 1420.0250 0.0000 0.0000 1730.3608 -7472.0992 298.4089 -9202.4599 -7445.3480 298.3751 -139.5769 -81.5377 29739.6643 98.3794 171.1934
ENERGY: 1200000 1.3780 1.8079 0.5992 0.0000 -10457.2393 1395.0871 0.0000 0.0000 1816.7179 -7241.6492 313.3016 -9058.3671 -7428.3590 299.7463 -113.4568 -57.1160 30756.3167 78.8980 145.8420
ENERGY: 1500000 0.6866 0.1734 0.1150 0.0000 -10454.4388 1307.7679 0.0000 0.0000 1765.9319 -7379.7639 304.5433 -9145.6958 -7422.3760 300.5400 -930.3735 -890.6726 30231.4233 7.3531 71.7871
TCL: Running FEP window   7: Lambda1 0.3    Lambda2 0.35   [dLambda 0.04999999999999999]
TCL: Setting parameter firsttimestep to 0
TCL: Setting parameter alchLambda to 0.3
Info: NONBONDED TABLE R-SQUARED SPACING: 0.0625
Info: NONBONDED TABLE SIZE: 705 POINTS
TCL: Setting parameter alchLambda2 to 0.35
Info: NONBONDED TABLE R-SQUARED SPACING: 0.0625
Info: NONBONDED TABLE SIZE: 705 POINTS
TCL: Running for 1500000 steps
ETITLE: TS BOND ANGLE DIHED IMPRP ELECT VDW BOUNDARY MISC KINETIC TOTAL TEMP POTENTIAL TOTALAVG TEMPAVG PRESSURE GPRESSURE VOLUME PRESSAVG GPRESSAVG
ENERGY: 0 0.6866 0.1734 0.1150 0.0000 -10454.4386 1307.5470 0.0000 0.0000 1765.0758 -7380.8406 304.3957 -9145.9165 -7380.8406 304.3957 -971.4966 -888.6630 30231.4233 -971.4966 -888.6630
ENERGY: 300000 0.9433 0.4982 2.0599 0.0000 -10457.6433 1408.2030 0.0000 0.0000 1741.6133 -7304.3257 300.3494 -9045.9390 -7380.5340 301.8841 69.0078 103.7460 30128.5635 -248.2380 -197.9878
ENERGY: 600000 2.6692 0.4779 0.9775 0.0000 -10608.8851 1410.1865 0.0000 0.0000 1736.6626 -7457.9114 299.4957 -9194.5741 -7410.9818 299.3935 -445.8614 -322.8131 30262.8382 -332.4035 -256.0791
ENERGY: 900000 0.1630 3.1785 0.1021 0.0000 -10552.2716 1432.7283 0.0000 0.0000 1767.5939 -7348.5059 304.8299 -9116.0997 -7422.6389 298.7698 -114.8386 -24.4624 30515.7020 -285.3591 -199.6472
ENERGY: 1200000 0.8537 2.3487 2.2003 0.0000 -10525.3364 1427.5562 0.0000 0.0000 1743.2461 -7349.1313 300.6310 -9092.3774 -7412.2468 299.1602 315.4861 338.4309 29795.1699 -256.2760 -178.3526
ENERGY: 1500000 1.3348 1.3593 0.0204 0.0000 -10475.5323 1359.9858 0.0000 0.0000 1695.5467 -7417.2852 292.4050 -9112.8320 -7413.7338 298.8761 -330.1728 -265.7969 29944.0055 -237.2244 -166.4295
TCL: Running FEP window   8: Lambda1 0.35   Lambda2 0.39999999999999997 [dLambda 0.04999999999999999]
TCL: Setting parameter firsttimestep to 0
TCL: Setting parameter alchLambda to 0.35
Info: NONBONDED TABLE R-SQUARED SPACING: 0.0625
Info: NONBONDED TABLE SIZE: 705 POINTS
TCL: Setting parameter alchLambda2 to 0.39999999999999997
Info: NONBONDED TABLE R-SQUARED SPACING: 0.0625
Info: NONBONDED TABLE SIZE: 705 POINTS
TCL: Running for 1500000 steps
ETITLE: TS BOND ANGLE DIHED IMPRP ELECT VDW BOUNDARY MISC KINETIC TOTAL TEMP POTENTIAL TOTALAVG TEMPAVG PRESSURE GPRESSURE VOLUME PRESSAVG GPRESSAVG
ENERGY: 0 1.3348 1.3593 0.0204 0.0000 -10475.5324 1359.8243 0.0000 0.0000 1694.6914 -7418.3022 292.2575 -9112.9936 -7418.3022 292.2575 -342.0043 -266.0983 29944.0055 -342.0043 -266.0983
ENERGY: 300000 1.8600 0.6234 3.2107 0.0000 -10623.9961 1427.2344 0.0000 0.0000 1754.4248 -7436.6427 302.5588 -9191.0675 -7414.9203 297.6834 -240.6512 -239.8086 30527.8057 -529.6973 -481.3426
ENERGY: 600000 0.1527 1.4922 1.5690 0.0000 -10679.1702 1437.5303 0.0000 0.0000 1764.6440 -7473.7820 304.3212 -9238.4260 -7417.4796 299.8115 -15.2081 87.9100 29624.0209 -400.1821 -340.0873
ENERGY: 900000 1.0003 1.3069 1.5139 0.0000 -10635.0443 1478.5354 0.0000 0.0000 1727.0235 -7425.6643 297.8334 -9152.6879 -7425.4723 298.9167 562.0565 565.8614 30047.9166 -260.4427 -210.0988
ENERGY: 1200000 0.1257 0.4437 3.8714 0.0000 -10382.6545 1281.2621 0.0000 0.0000 1721.2049 -7375.7467 296.8299 -9096.9515 -7418.4520 299.0960 -1257.3723 -1160.9517 30634.2744 -179.4272 -118.3817
ENERGY: 1500000 1.1901 1.3146 0.2020 0.0000 -10646.7760 1489.4190 0.0000 0.0000 1675.2869 -7479.3634 288.9111 -9154.6503 -7404.9614 299.1076 506.6572 624.5904 30054.2010 -48.4027 11.5776
TCL: Running FEP window   9: Lambda1 0.39999999999999997 Lambda2 0.44999999999999996 [dLambda 0.04999999999999999]
TCL: Setting parameter firsttimestep to 0
TCL: Setting parameter alchLambda to 0.39999999999999997
Info: NONBONDED TABLE R-SQUARED SPACING: 0.0625
Info: NONBONDED TABLE SIZE: 705 POINTS
TCL: Setting parameter alchLambda2 to 0.44999999999999996
Info: NONBONDED TABLE R-SQUARED SPACING: 0.0625
Info: NONBONDED TABLE SIZE: 705 POINTS
TCL: Running for 1500000 steps
ETITLE: TS BOND ANGLE DIHED IMPRP ELECT VDW BOUNDARY MISC KINETIC TOTAL TEMP POTENTIAL TOTALAVG TEMPAVG PRESSURE GPRESSURE VOLUME PRESSAVG GPRESSAVG
ENERGY: 0 1.1902 1.3146 0.2020 0.0000 -10646.7764 1489.5308 0.0000 0.0000 1674.4236 -7480.1153 288.7623 -9154.5389 -7480.1153 288.7623 538.5298 628.1399 30054.2010 538.5298 628.1399
ENERGY: 300000 0.3682 0.4976 2.0536 0.0000 -10714.6971 1485.4450 0.0000 0.0000 1718.5905 -7507.7422 296.3791 -9226.3327 -7456.4308 298.1816 255.5503 413.5182 29785.1558 602.2593 688.2314
ENERGY: 600000 1.3281 0.8886 0.2706 0.0000 -10637.4093 1456.5751 0.0000 0.0000 1692.6338 -7485.7131 291.9027 -9178.3470 -7437.4673 299.4886 -9.5924 55.9737 30328.1095 165.9799 233.4503
ENERGY: 900000 0.9246 0.6796 1.5840 0.0000 -10599.4748 1467.7754 0.0000 0.0000 1772.0956 -7356.4155 305.6063 -9128.5112 -7429.2256 299.6034 658.6934 618.8647 29810.4467 115.3094 167.8066
ENERGY: 1200000 2.9085 0.3897 0.2709 0.0000 -10693.4045 1505.6647 0.0000 0.0000 1762.2062 -7421.9644 303.9008 -9184.1706 -7431.9772 299.5929 480.3269 543.0476 29992.4042 224.4837 278.7069
ENERGY: 1500000 0.7988 0.8269 0.1004 0.0000 -10545.7276 1346.6941 0.0000 0.0000 1706.9939 -7490.3134 294.3792 -9197.3073 -7433.1762 299.1210 -837.6236 -731.9937 30035.3622 130.3531 187.8374
TCL: Running FEP window  10: Lambda1 0.44999999999999996 Lambda2 0.49999999999999994 [dLambda 0.04999999999999999]
TCL: Setting parameter firsttimestep to 0
TCL: Setting parameter alchLambda to 0.44999999999999996
Info: NONBONDED TABLE R-SQUARED SPACING: 0.0625
Info: NONBONDED TABLE SIZE: 705 POINTS
TCL: Setting parameter alchLambda2 to 0.49999999999999994
Info: NONBONDED TABLE R-SQUARED SPACING: 0.0625
Info: NONBONDED TABLE SIZE: 705 POINTS
TCL: Running for 1500000 steps
ETITLE: TS BOND ANGLE DIHED IMPRP ELECT VDW BOUNDARY MISC KINETIC TOTAL TEMP POTENTIAL TOTALAVG TEMPAVG PRESSURE GPRESSURE VOLUME PRESSAVG GPRESSAVG
ENERGY: 0 0.7988 0.8269 0.1004 0.0000 -10545.7265 1347.1737 0.0000 0.0000 1706.0972 -7490.7294 294.2245 -9196.8265 -7490.7294 294.2245 -824.5333 -726.2716 30035.3622 -824.5333 -726.2716
ENERGY: 300000 1.2285 0.8593 1.0529 0.0000 -10587.7892 1413.0563 0.0000 0.0000 1700.0633 -7471.5289 293.1840 -9171.5922 -7474.0263 292.6779 -68.2658 15.9803 29617.6988 -90.6249 -7.7439
ENERGY: 600000 1.7459 0.6565 2.8052 0.0000 -10515.9318 1395.0333 0.0000 0.0000 1709.0956 -7406.5953 294.7416 -9115.6909 -7464.6329 294.8009 -318.1308 -245.3291 30259.2445 -123.1899 -36.3746
ENERGY: 900000 1.3765 1.2371 0.8449 0.0000 -10604.7919 1404.9661 0.0000 0.0000 1736.3432 -7460.0242 299.4406 -9196.3674 -7450.4415 296.0576 -274.7181 -185.1878 29885.7286 -136.4650 -52.2594
ENERGY: 1200000 0.1807 1.3248 0.3308 0.0000 -10525.2568 1410.8497 0.0000 0.0000 1702.3902 -7410.1805 293.5852 -9112.5707 -7448.6305 295.5440 46.1656 106.0799 30054.3536 -187.0362 -108.1532
ENERGY: 1500000 1.2725 0.9814 0.3210 0.0000 -10582.7497 1427.9749 0.0000 0.0000 1749.0167 -7403.1832 301.6262 -9152.1999 -7453.6840 296.1536 79.6366 152.3387 29860.6672 -183.2864 -105.3006
TCL: Running FEP window  11: Lambda1 0.49999999999999994 Lambda2 0.5499999999999999 [dLambda 0.04999999999999999]
TCL: Setting parameter firsttimestep to 0
TCL: Setting parameter alchLambda to 0.49999999999999994
Info: NONBONDED TABLE R-SQUARED SPACING: 0.0625
Info: NONBONDED TABLE SIZE: 705 POINTS
TCL: Setting parameter alchLambda2 to 0.5499999999999999
Info: NONBONDED TABLE R-SQUARED SPACING: 0.0625
Info: NONBONDED TABLE SIZE: 705 POINTS
TCL: Running for 1500000 steps
ETITLE: TS BOND ANGLE DIHED IMPRP ELECT VDW BOUNDARY MISC KINETIC TOTAL TEMP POTENTIAL TOTALAVG TEMPAVG PRESSURE GPRESSURE VOLUME PRESSAVG GPRESSAVG
ENERGY: 0 1.2725 0.9814 0.3210 0.0000 -10582.7501 1428.5480 0.0000 0.0000 1748.1322 -7403.4949 301.4737 -9151.6271 -7403.4949 301.4737 66.3106 165.3566 29860.6672 66.3106 165.3566
ENERGY: 300000 1.3266 0.5019 0.5182 0.0000 -10552.4424 1387.0284 0.0000 0.0000 1754.3957 -7408.6715 302.5538 -9163.0672 -7400.5516 302.6810 -550.6976 -495.1616 30379.6118 -264.2813 -172.8054
ENERGY: 600000 2.1452 1.4789 1.8540 0.0000 -10681.2658 1477.2223 0.0000 0.0000 1742.1462 -7456.4191 300.4414 -9198.5654 -7407.8792 301.0061 356.9872 389.5859 30038.9370 -106.5250 -35.1284
ENERGY: 900000 0.5913 1.6990 2.1123 0.0000 -10713.7801 1455.7647 0.0000 0.0000 1745.3232 -7508.2895 300.9892 -9253.6127 -7407.4401 302.1313 -15.1654 41.8178 30036.9047 -72.2121 -19.2188
ENERGY: 1200000 0.5424 0.2801 0.0518 0.0000 -10606.2662 1362.1477 0.0000 0.0000 1787.3390 -7455.9052 308.2351 -9243.2441 -7410.1019 302.2625 -739.2593 -680.9824 29754.5953 -168.8635 -111.8024
ENERGY: 1500000 0.3223 0.5121 2.3550 0.0000 -10587.2881 1372.3002 0.0000 0.0000 1741.3352 -7470.4633 300.3015 -9211.7985 -7415.7787 302.2440 -509.4659 -450.2307 29924.8287 -97.6815 -43.0798
TCL: Running FEP window  12: Lambda1 0.5499999999999999 Lambda2 0.6    [dLambda 0.050000000000000044]
TCL: Setting parameter firsttimestep to 0
TCL: Setting parameter alchLambda to 0.5499999999999999
Info: NONBONDED TABLE R-SQUARED SPACING: 0.0625
Info: NONBONDED TABLE SIZE: 705 POINTS
TCL: Setting parameter alchLambda2 to 0.6
Info: NONBONDED TABLE R-SQUARED SPACING: 0.0625
Info: NONBONDED TABLE SIZE: 705 POINTS
TCL: Running for 1500000 steps
ETITLE: TS BOND ANGLE DIHED IMPRP ELECT VDW BOUNDARY MISC KINETIC TOTAL TEMP POTENTIAL TOTALAVG TEMPAVG PRESSURE GPRESSURE VOLUME PRESSAVG GPRESSAVG
ENERGY: 0 0.3223 0.5121 2.3550 0.0000 -10587.4343 1372.4098 0.0000 0.0000 1740.4846 -7471.3504 300.1548 -9211.8351 -7471.3504 300.1548 -523.9156 -446.3793 29924.8287 -523.9156 -446.3793
ENERGY: 300000 0.0521 1.1375 1.2143 0.0000 -10422.5852 1321.0930 0.0000 0.0000 1733.3342 -7365.7542 298.9217 -9099.0883 -7437.2669 298.3725 -804.3584 -749.7122 30504.0417 -605.0143 -535.4463
ENERGY: 600000 1.2478 2.0695 0.2486 0.0000 -10608.3209 1432.6219 0.0000 0.0000 1725.4137 -7446.7194 297.5557 -9172.1331 -7435.5667 298.0855 60.0291 159.3933 29762.7393 -484.4884 -400.3938
ENERGY: 900000 0.1991 0.5378 1.6049 0.0000 -10434.8826 1369.3599 0.0000 0.0000 1705.5726 -7357.6083 294.1340 -9063.1809 -7428.3687 298.5075 -107.9558 -47.5240 29948.6454 -302.8154 -225.7256
ENERGY: 1200000 0.9120 2.3208 0.8645 0.0000 -10433.2505 1319.5268 0.0000 0.0000 1743.7686 -7365.8577 300.7211 -9109.6263 -7423.1570 299.0417 -584.0939 -509.4127 30002.8075 -387.1380 -306.7287
ENERGY: 1500000 1.0385 0.5122 1.6141 0.0000 -10493.9829 1403.9924 0.0000 0.0000 1738.5699 -7348.2557 299.8246 -9086.8256 -7424.7814 298.5928 -164.1808 -119.3866 30108.7070 -408.4324 -326.8412
TCL: Running FEP window  13: Lambda1 0.6    Lambda2 0.65   [dLambda 0.050000000000000044]
TCL: Setting parameter firsttimestep to 0
TCL: Setting parameter alchLambda to 0.6
Info: NONBONDED TABLE R-SQUARED SPACING: 0.0625
Info: NONBONDED TABLE SIZE: 705 POINTS
TCL: Setting parameter alchLambda2 to 0.65
Info: NONBONDED TABLE R-SQUARED SPACING: 0.0625
Info: NONBONDED TABLE SIZE: 705 POINTS
TCL: Running for 1500000 steps
ETITLE: TS BOND ANGLE DIHED IMPRP ELECT VDW BOUNDARY MISC KINETIC TOTAL TEMP POTENTIAL TOTALAVG TEMPAVG PRESSURE GPRESSURE VOLUME PRESSAVG GPRESSAVG
ENERGY: 0 1.0385 0.5122 1.6141 0.0000 -10494.0602 1404.1333 0.0000 0.0000 1737.6887 -7349.0734 299.6726 -9086.7621 -7349.0734 299.6726 -180.3760 -112.3499 30108.7070 -180.3760 -112.3499
ENERGY: 300000 0.7210 1.1151 1.7480 0.0000 -10649.7819 1405.8999 0.0000 0.0000 1735.1018 -7505.1960 299.2265 -9240.2979 -7431.6730 300.5291 -594.3312 -598.1428 30650.3350 -33.6898 29.4569
ENERGY: 600000 0.7264 1.6321 0.7601 0.0000 -10464.4055 1302.0954 0.0000 0.0000 1734.0775 -7425.1141 299.0499 -9159.1915 -7409.7385 301.7180 -971.5977 -918.8656 30111.6960 -266.7731 -219.9044
ENERGY: 900000 0.7040 2.0711 1.6238 0.0000 -10428.4192 1314.5744 0.0000 0.0000 1783.1171 -7326.3287 307.5070 -9109.4458 -7396.9430 303.3845 -748.1373 -656.1263 30177.8374 -188.5695 -126.5047
ENERGY: 1200000 0.4884 0.6329 0.1475 0.0000 -10630.0618 1461.9850 0.0000 0.0000 1690.0599 -7476.7481 291.4588 -9166.8080 -7411.0183 301.4678 215.3135 224.1538 29998.2433 -131.7774 -75.6130
ENERGY: 1500000 0.9078 0.9490 1.8936 0.0000 -10584.8860 1430.0340 0.0000 0.0000 1741.6428 -7409.4588 300.3545 -9151.1016 -7413.2515 300.6570 387.9619 438.8075 29601.8682 -167.3089 -111.3229
TCL: Running FEP window  14: Lambda1 0.65   Lambda2 0.7000000000000001 [dLambda 0.050000000000000044]
TCL: Setting parameter firsttimestep to 0
TCL: Setting parameter alchLambda to 0.65
Info: NONBONDED TABLE R-SQUARED SPACING: 0.0625
Info: NONBONDED TABLE SIZE: 705 POINTS
TCL: Setting parameter alchLambda2 to 0.7000000000000001
Info: NONBONDED TABLE R-SQUARED SPACING: 0.0625
Info: NONBONDED TABLE SIZE: 705 POINTS
TCL: Running for 1500000 steps
ETITLE: TS BOND ANGLE DIHED IMPRP ELECT VDW BOUNDARY MISC KINETIC TOTAL TEMP POTENTIAL TOTALAVG TEMPAVG PRESSURE GPRESSURE VOLUME PRESSAVG GPRESSAVG
ENERGY: 0 0.9078 0.9490 1.8936 0.0000 -10585.0700 1431.0762 0.0000 0.0000 1740.7913 -7409.4521 300.2077 -9150.2434 -7409.4521 300.2077 372.0228 455.0007 29601.8682 372.0228 455.0007
ENERGY: 300000 0.3845 1.1978 0.5544 0.0000 -10523.5642 1388.9440 0.0000 0.0000 1767.5943 -7364.8892 304.8300 -9132.4835 -7385.0440 304.4645 -368.1351 -317.2726 30336.5857 17.9360 81.9649
ENERGY: 600000 2.3235 0.8008 0.0843 0.0000 -10656.2602 1467.0076 0.0000 0.0000 1710.3359 -7475.7081 294.9555 -9186.0441 -7416.0517 302.3581 145.1103 201.6498 30252.3185 -79.4461 -28.1040
ENERGY: 900000 0.8390 0.2486 0.2897 0.0000 -10537.9191 1400.5400 0.0000 0.0000 1689.0916 -7446.9101 291.2918 -9136.0018 -7422.8034 301.4897 -94.9075 -80.3706 30161.5711 -88.6149 -47.0701
ENERGY: 1200000 0.9067 1.1337 0.1090 0.0000 -10430.5623 1274.8571 0.0000 0.0000 1720.0213 -7433.5346 296.6258 -9153.5559 -7417.4174 301.4687 -1187.8788 -1092.2762 30440.2876 -212.5774 -161.3205
ENERGY: 1500000 0.2976 0.9906 1.1671 0.0000 -10596.3446 1450.1219 0.0000 0.0000 1765.3530 -7378.4143 304.4435 -9143.7673 -7414.9756 302.1443 356.6168 418.9260 29954.7735 -186.1903 -130.8251
TCL: Running FEP window  15: Lambda1 0.7000000000000001 Lambda2 0.7500000000000001 [dLambda 0.050000000000000044]
TCL: Setting parameter firsttimestep to 0
TCL: Setting parameter alchLambda to 0.7000000000000001
Info: NONBONDED TABLE R-SQUARED SPACING: 0.0625
Info: NONBONDED TABLE SIZE: 705 POINTS
TCL: Setting parameter alchLambda2 to 0.7500000000000001
Info: NONBONDED TABLE R-SQUARED SPACING: 0.0625
Info: NONBONDED TABLE SIZE: 705 POINTS
TCL: Running for 1500000 steps
ETITLE: TS BOND ANGLE DIHED IMPRP ELECT VDW BOUNDARY MISC KINETIC TOTAL TEMP POTENTIAL TOTALAVG TEMPAVG PRESSURE GPRESSURE VOLUME PRESSAVG GPRESSAVG
ENERGY: 0 0.2976 0.9906 1.1671 0.0000 -10596.3313 1450.9417 0.0000 0.0000 1764.4790 -7378.4553 304.2927 -9142.9343 -7378.4553 304.2927 351.3075 433.3953 29954.7735 351.3075 433.3953
ENERGY: 300000 0.1123 1.7504 1.0028 0.0000 -10506.2062 1330.0213 0.0000 0.0000 1733.7936 -7439.5259 299.0009 -9173.3194 -7419.1622 302.8076 -636.4576 -571.2903 30140.2781 -63.0268 13.5446
ENERGY: 600000 1.0063 0.9335 1.5074 0.0000 -10741.3674 1475.0878 0.0000 0.0000 1720.1246 -7542.7078 296.6436 -9262.8324 -7429.5789 302.1869 283.8696 368.9664 29617.0632 -46.2619 32.5140
ENERGY: 900000 1.5161 1.8806 0.2860 0.0000 -10732.5389 1515.8892 0.0000 0.0000 1773.2767 -7439.6903 305.8100 -9212.9670 -7427.6438 302.5755 517.4591 625.2777 30043.8435 63.9777 136.4220
ENERGY: 1200000 0.2399 0.8757 0.6146 0.0000 -10640.2524 1402.6432 0.0000 0.0000 1762.7023 -7473.1768 303.9863 -9235.8791 -7426.7506 303.1742 -66.4724 -8.0116 29625.3894 104.3619 179.3103
ENERGY: 1500000 1.1607 0.4864 2.5513 0.0000 -10517.2073 1370.8941 0.0000 0.0000 1686.3569 -7455.7579 290.8202 -9142.1148 -7425.0964 301.5169 -327.3022 -261.2441 29896.1040 61.2836 133.3561
TCL: Running FEP window  16: Lambda1 0.7500000000000001 Lambda2 0.8000000000000002 [dLambda 0.050000000000000044]
TCL: Setting parameter firsttimestep to 0
TCL: Setting parameter alchLambda to 0.7500000000000001
Info: NONBONDED TABLE R-SQUARED SPACING: 0.0625
Info: NONBONDED TABLE SIZE: 705 POINTS
TCL: Setting parameter alchLambda2 to 0.8000000000000002
Info: NONBONDED TABLE R-SQUARED SPACING: 0.0625
Info: NONBONDED TABLE SIZE: 705 POINTS
TCL: Running for 1500000 steps
ETITLE: TS BOND ANGLE DIHED IMPRP ELECT VDW BOUNDARY MISC KINETIC TOTAL TEMP POTENTIAL TOTALAVG TEMPAVG PRESSURE GPRESSURE VOLUME PRESSAVG GPRESSAVG
ENERGY: 0 1.1607 0.4864 2.5513 0.0000 -10517.3719 1371.1116 0.0000 0.0000 1685.5108 -7456.5511 290.6743 -9142.0618 -7456.5511 290.6743 -345.2545 -251.9249 29896.1040 -345.2545 -251.9249
ENERGY: 300000 1.1695 0.7220 0.4882 0.0000 -10572.8694 1383.8292 0.0000 0.0000 1734.9292 -7451.7313 299.1967 -9186.6605 -7435.8258 295.8347 -333.7917 -299.7394 30388.8369 -514.3670 -426.7717
ENERGY: 600000 2.5296 3.1712 2.0097 0.0000 -10480.1630 1357.5653 0.0000 0.0000 1761.1385 -7353.7488 303.7167 -9114.8873 -7421.1526 298.5836 -506.5968 -427.3191 30400.4314 -417.2908 -351.2790
ENERGY: 900000 1.9589 1.1181 1.8202 0.0000 -10589.1780 1393.5831 0.0000 0.0000 1752.1839 -7438.5138 302.1724 -9190.6977 -7415.7536 298.7918 -357.6800 -312.8309 30381.9119 -404.6918 -339.9103
ENERGY: 1200000 0.7832 0.3581 0.5545 0.0000 -10716.3320 1574.9024 0.0000 0.0000 1762.8461 -7376.8878 304.0111 -9139.7339 -7410.0108 298.9263 1310.3460 1347.3638 30251.2031 -109.6497 -47.9136
ENERGY: 1500000 2.1355 1.0000 0.7361 0.0000 -10570.9703 1489.6894 0.0000 0.0000 1779.0761 -7298.3332 306.8101 -9077.4093 -7403.1984 298.9034 966.4408 988.6992 30075.9050 -17.6514 47.2347
TCL: Running FEP window  17: Lambda1 0.8000000000000002 Lambda2 0.8500000000000002 [dLambda 0.050000000000000044]
TCL: Setting parameter firsttimestep to 0
TCL: Setting parameter alchLambda to 0.8000000000000002
Info: NONBONDED TABLE R-SQUARED SPACING: 0.0625
Info: NONBONDED TABLE SIZE: 705 POINTS
TCL: Setting parameter alchLambda2 to 0.8500000000000002
Info: NONBONDED TABLE R-SQUARED SPACING: 0.0625
Info: NONBONDED TABLE SIZE: 705 POINTS
TCL: Running for 1500000 steps
ETITLE: TS BOND ANGLE DIHED IMPRP ELECT VDW BOUNDARY MISC KINETIC TOTAL TEMP POTENTIAL TOTALAVG TEMPAVG PRESSURE GPRESSURE VOLUME PRESSAVG GPRESSAVG
ENERGY: 0 2.1354 1.0000 0.7361 0.0000 -10570.9904 1489.7491 0.0000 0.0000 1778.1556 -7299.2142 306.6513 -9077.3698 -7299.2142 306.6513 913.8448 997.1210 30075.9050 913.8448 997.1210
ENERGY: 300000 1.5443 3.6589 1.6451 0.0000 -10566.5431 1412.7514 0.0000 0.0000 1747.1938 -7399.7496 301.3118 -9146.9435 -7373.5229 303.0534 238.3123 294.9689 29637.7577 596.3909 647.7315
ENERGY: 600000 0.4880 1.1088 0.4246 0.0000 -10467.6240 1362.2282 0.0000 0.0000 1705.1552 -7398.2193 294.0621 -9103.3745 -7374.4280 301.9170 -469.8924 -399.5745 30479.7146 315.5831 365.8695
ENERGY: 900000 0.4634 0.5725 1.5961 0.0000 -10448.8829 1361.7258 0.0000 0.0000 1730.8454 -7353.6797 298.4925 -9084.5251 -7383.9441 301.8906 -338.4422 -291.4246 30295.9555 293.3173 341.9400
ENERGY: 1200000 1.7895 2.0932 2.3886 0.0000 -10557.3997 1353.9219 0.0000 0.0000 1686.2386 -7510.9679 290.7998 -9197.2065 -7398.3883 300.8703 -807.6734 -745.4434 30169.8769 24.7895 72.7913
ENERGY: 1500000 1.3497 2.1895 1.2029 0.0000 -10512.1228 1380.0323 0.0000 0.0000 1727.6930 -7399.6554 297.9488 -9127.3484 -7409.3397 300.1709 -105.8576 -16.7229 29934.4009 86.8486 137.8533
TCL: Running FEP window  18: Lambda1 0.8500000000000002 Lambda2 0.9000000000000002 [dLambda 0.050000000000000044]
TCL: Setting parameter firsttimestep to 0
TCL: Setting parameter alchLambda to 0.8500000000000002
Info: NONBONDED TABLE R-SQUARED SPACING: 0.0625
Info: NONBONDED TABLE SIZE: 705 POINTS
TCL: Setting parameter alchLambda2 to 0.9000000000000002
Info: NONBONDED TABLE R-SQUARED SPACING: 0.0625
Info: NONBONDED TABLE SIZE: 705 POINTS
TCL: Running for 1500000 steps
ETITLE: TS BOND ANGLE DIHED IMPRP ELECT VDW BOUNDARY MISC KINETIC TOTAL TEMP POTENTIAL TOTALAVG TEMPAVG PRESSURE GPRESSURE VOLUME PRESSAVG GPRESSAVG
ENERGY: 0 1.3497 2.1895 1.2029 0.0000 -10512.0983 1380.1102 0.0000 0.0000 1726.8170 -7400.4291 297.7978 -9127.2460 -7400.4291 297.7978 -82.0473 -9.1939 29934.4009 -82.0473 -9.1939
ENERGY: 300000 0.1299 1.2751 0.4859 0.0000 -10577.7273 1466.6312 0.0000 0.0000 1693.8671 -7415.3382 292.1154 -9109.2053 -7420.1040 297.9445 57.5756 170.3197 30548.4045 -72.8364 12.1368
ENERGY: 600000 1.0653 2.3279 1.7386 0.0000 -10615.3668 1409.2880 0.0000 0.0000 1668.7852 -7532.1617 287.7899 -9200.9470 -7471.5270 297.2991 -384.2770 -295.9125 30017.1838 -82.4010 -2.7515
ENERGY: 900000 1.5661 0.2800 0.4221 0.0000 -10508.7332 1356.4398 0.0000 0.0000 1740.9480 -7409.0772 300.2347 -9150.0252 -7456.9715 298.7390 -439.1770 -379.7588 29998.1173 -85.9197 -16.5780
ENERGY: 1200000 0.7917 0.2731 0.2518 0.0000 -10614.9621 1452.5151 0.0000 0.0000 1745.4118 -7415.7185 301.0045 -9161.1303 -7443.7406 299.4363 61.2545 134.1030 30311.1249 -102.6492 -34.3595
ENERGY: 1500000 0.0958 1.5432 2.6075 0.0000 -10354.5366 1310.6993 0.0000 0.0000 1716.6111 -7322.9796 296.0377 -9039.5907 -7438.5997 298.6329 -572.6042 -526.3916 30372.1017 -45.4488 22.0504
TCL: Running FEP window  19: Lambda1 0.9000000000000002 Lambda2 0.9500000000000003 [dLambda 0.050000000000000044]
TCL: Setting parameter firsttimestep to 0
TCL: Setting parameter alchLambda to 0.9000000000000002
Info: NONBONDED TABLE R-SQUARED SPACING: 0.0625
Info: NONBONDED TABLE SIZE: 705 POINTS
TCL: Setting parameter alchLambda2 to 0.9500000000000003
Info: NONBONDED TABLE R-SQUARED SPACING: 0.0625
Info: NONBONDED TABLE SIZE: 705 POINTS
TCL: Running for 1500000 steps
ETITLE: TS BOND ANGLE DIHED IMPRP ELECT VDW BOUNDARY MISC KINETIC TOTAL TEMP POTENTIAL TOTALAVG TEMPAVG PRESSURE GPRESSURE VOLUME PRESSAVG GPRESSAVG
ENERGY: 0 0.0958 1.5432 2.6075 0.0000 -10354.7100 1310.3737 0.0000 0.0000 1715.6741 -7324.4156 295.8761 -9040.0897 -7324.4156 295.8761 -610.5160 -526.4271 30372.1017 -610.5160 -526.4271
ENERGY: 300000 0.8506 0.4737 1.7600 0.0000 -10533.7356 1382.8653 0.0000 0.0000 1739.8115 -7407.9745 300.0387 -9147.7860 -7381.1938 297.3221 -408.6307 -420.7149 30696.4493 -321.0958 -272.7224
ENERGY: 600000 0.4984 0.9474 0.3725 0.0000 -10524.9084 1350.9884 0.0000 0.0000 1695.8716 -7476.2300 292.4611 -9172.1016 -7412.4253 296.3660 -815.2186 -711.8236 30291.6531 -394.4187 -324.5736
ENERGY: 900000 0.7023 0.8479 0.2757 0.0000 -10696.6652 1455.8153 0.0000 0.0000 1749.2999 -7489.7240 301.6750 -9239.0240 -7411.4977 297.8760 339.5125 393.5300 29501.2420 -184.6116 -115.4360
ENERGY: 1200000 0.3131 0.2973 0.1713 0.0000 -10531.9308 1470.4537 0.0000 0.0000 1673.8329 -7386.8624 288.6604 -9060.6953 -7415.5054 297.9043 1048.5781 1130.4073 29383.7887 -56.1517 11.2687
ENERGY: 1500000 0.7004 0.4126 0.0395 0.0000 -10612.6382 1439.9234 0.0000 0.0000 1716.2923 -7455.2700 295.9827 -9171.5623 -7421.3422 297.5367 113.8697 102.4154 30217.6058 -31.9363 32.1192
TCL: Running FEP window  20: Lambda1 0.9500000000000003 Lambda2 1.0    [dLambda 0.04999999999999971]
TCL: Setting parameter firsttimestep to 0
TCL: Setting parameter alchLambda to 0.9500000000000003
Info: NONBONDED TABLE R-SQUARED SPACING: 0.0625
Info: NONBONDED TABLE SIZE: 705 POINTS
TCL: Setting parameter alchLambda2 to 1.0
Info: NONBONDED TABLE R-SQUARED SPACING: 0.0625
Info: NONBONDED TABLE SIZE: 705 POINTS
TCL: Running for 1500000 steps
ETITLE: TS BOND ANGLE DIHED IMPRP ELECT VDW BOUNDARY MISC KINETIC TOTAL TEMP POTENTIAL TOTALAVG TEMPAVG PRESSURE GPRESSURE VOLUME PRESSAVG GPRESSAVG
ENERGY: 0 0.7004 0.4126 0.0395 0.0000 -10612.7401 1439.7002 0.0000 0.0000 1715.4278 -7456.4595 295.8336 -9171.8874 -7456.4595 295.8336 32.2728 105.5251 30217.6058 32.2728 105.5251
ENERGY: 300000 0.1366 0.5741 0.6347 0.0000 -10541.4328 1367.1756 0.0000 0.0000 1721.1386 -7451.7733 296.8185 -9172.9119 -7422.5303 298.9641 -461.4933 -430.9472 30290.1935 -193.9613 -146.5424
ENERGY: 600000 0.1750 1.2524 0.3781 0.0000 -10480.1846 1299.2327 0.0000 0.0000 1712.6879 -7466.4585 295.3611 -9179.1464 -7442.7288 298.7252 -941.9055 -877.9197 29882.3220 -269.0636 -214.7034
ENERGY: 900000 1.8979 1.0129 0.3082 0.0000 -10586.1920 1408.7495 0.0000 0.0000 1751.2033 -7423.0202 302.0033 -9174.2235 -7436.7848 298.8607 -96.0467 -24.0820 30024.2412 -353.6469 -298.5663
ENERGY: 1200000 0.5875 1.0355 1.0138 0.0000 -10525.8011 1326.9140 0.0000 0.0000 1727.4524 -7468.7979 297.9073 -9196.2502 -7444.9987 298.9050 -437.0140 -409.0748 29556.9186 -305.2587 -258.0653
ENERGY: 1500000 0.0931 2.3179 0.0447 0.0000 -10651.8957 1483.1311 0.0000 0.0000 1714.7042 -7451.6045 295.7089 -9166.3088 -7448.6455 298.7706 550.2066 598.3156 29919.5899 -218.7504 -168.2777
TCL: Exiting due to exit command.
