Info: SIMULATION PARAMETERS:
Info: TIMESTEP               2
Info: NUMBER OF STEPS        0
Info: STEPS PER CYCLE        10
Info: PERIODIC CELL BASIS 1  31.7615 0 0
Info: PERIODIC CELL BASIS 2  0 31.2375 0
Info: PERIODIC CELL BASIS 3  0 0 31.3743
Info: PERIODIC CELL CENTER   0 0 0
Info: WRAPPING WATERS AROUND PERIODIC BOUNDARIES ON OUTPUT.
Info: WRAPPING ALL CLUSTERS AROUND PERIODIC BOUNDARIES ON OUTPUT.
Info: FIRST LDB TIMESTEP     50
Info: LAST LDB TIMESTEP     -1
Info: HOM BACKGROUND SCALING 1
Info: PME BACKGROUND SCALING 1
Info: MIN ATOMS PER PATCH    40
Info: EMPTY PATCH LOAD       40 ATOMS
Info: VELOCITY FILE          mobley_7047032_equil.vel
Info: CENTER OF MASS MOVING INITIALLY? NO
Info: DIELECTRIC             1
Info: EXCLUDE                SCALED ONE-FOUR
Info: 1-4 ELECTROSTATICS SCALED BY 0.833333
Info: MODIFIED 1-4 VDW PARAMETERS WILL BE USED
Info: DCD FILENAME           mobley_7047032_prod.dcd
Info: DCD FREQUENCY          100000
Info: DCD FIRST STEP         100000
Info: DCD FILE WILL CONTAIN UNIT CELL DATA
Info: XST FILENAME           mobley_7047032_prod.xst
Info: XST FREQUENCY          100000
Info: NO VELOCITY DCD OUTPUT
Info: NO FORCE DCD OUTPUT
Info: OUTPUT FILENAME        mobley_7047032_prod
Info: BINARY OUTPUT FILES WILL BE USED
Info: RESTART FILENAME       mobley_7047032_prod.restart
Info: RESTART FREQUENCY      100000
Info: BINARY RESTART FILES WILL BE USED
Info: CUTOFF                 9
Info: PAIRLIST DISTANCE      11
Info: PAIRLIST SHRINK RATE   0.01
Info: PAIRLIST GROW RATE     0.01
Info: PAIRLIST TRIGGER       0.3
Info: PAIRLISTS PER CYCLE    2
Info: PAIRLISTS ENABLED
Info: MARGIN                 2
Info: HYDROGEN GROUP CUTOFF  2.5
Info: PATCH DIMENSION        15.5
Info: ENERGY OUTPUT STEPS    100000
Info: ENERGY EVALUATION STEPS    100000
Info: OUTPUT ENERGY PRECISION 4
Info: CROSSTERM ENERGY INCLUDED IN DIHEDRAL
Info: TIMING OUTPUT STEPS    1000000
Info: PRESSURE OUTPUT STEPS  100000
Info: ALCHEMICAL FEP ON
Info: FEP CURRENT LAMBDA VALUE     1
Info: FEP COMPARISON LAMBDA VALUE  0.95
Info: FEP INTRA-ALCHEMICAL NON-BONDED INTERACTIONS WILL BE RETAINED
Info: FEP INTRA-ALCHEMICAL BONDED INTERACTIONS WILL BE RETAINED
Info: FEP VDW SHIFTING COEFFICIENT 5
Info: FEP ELEC. ACTIVE FOR ANNIHILATED PARTICLES BETWEEN LAMBDA = 0 AND LAMBDA = 0.5
Info: FEP ELEC. ACTIVE FOR EXNIHILATED PARTICLES BETWEEN LAMBDA = 0.5 AND LAMBDA = 1
Info: FEP VDW ACTIVE FOR ANNIHILATED PARTICLES BETWEEN LAMBDA = 0 AND LAMBDA = 1
Info: FEP VDW ACTIVE FOR EXNIHILATED PARTICLES BETWEEN LAMBDA = 0 AND LAMBDA = 1
Info: FEP BOND ACTIVE FOR ANNIHILATED PARTICLES BETWEEN LAMBDA = 1 AND LAMBDA = 1
Info: FEP BOND ACTIVE FOR EXNIHILATED PARTICLES BETWEEN LAMBDA = 0 AND LAMBDA = 0
Info: LANGEVIN DYNAMICS ACTIVE
Info: LANGEVIN TEMPERATURE   300
Info: LANGEVIN USING BBK INTEGRATOR
Info: LANGEVIN DAMPING COEFFICIENT IS 1 INVERSE PS
Info: LANGEVIN DYNAMICS APPLIED TO HYDROGENS
Info: LANGEVIN PISTON PRESSURE CONTROL ACTIVE
Info:        TARGET PRESSURE IS 1.01325 BAR
Info:     OSCILLATION PERIOD IS 50 FS
Info:             DECAY TIME IS 25 FS
Info:     PISTON TEMPERATURE IS 300 K
Info:       PRESSURE CONTROL IS GROUP-BASED
Info:    INITIAL STRAIN RATE IS -0.000141597 -0.000141597 -0.000141597
Info:       CELL FLUCTUATION IS ISOTROPIC
Info: PARTICLE MESH EWALD (PME) ACTIVE
Info: PME TOLERANCE               1e-06
Info: PME EWALD COEFFICIENT       0.348832
Info: PME INTERPOLATION ORDER     4
Info: PME GRID DIMENSIONS         32 32 32
Info: PME MAXIMUM GRID SPACING    1
Info: PME CALCULATION WILL BE PERFORMED ON GPU
Info: FULL ELECTROSTATIC EVALUATION FREQUENCY      2
Info: USING VERLET I (r-RESPA) MTS SCHEME.
Info: C1 SPLITTING OF LONG RANGE ELECTROSTATICS
Info: PLACING ATOMS IN PATCHES BY HYDROGEN GROUPS
Info: RIGID BONDS TO HYDROGEN : ALL
Info:         ERROR TOLERANCE : 1e-08
Info:          MAX ITERATIONS : 100
Info: RIGID WATER USING SETTLE ALGORITHM
Info: RANDOM NUMBER SEED     1742268330
Info: USE HYDROGEN BONDS?    NO
Info: Using AMBER format force field!
Info: AMBER PARM FILE        mobley_7047032.prmtop
Info: COORDINATE PDB         mobley_7047032.pdb
Info: Exclusions will be read from PARM file!
Info: SCNB (VDW SCALING)     2
Info: USING ARITHMETIC MEAN TO COMBINE L-J SIGMA PARAMETERS
Info: BINARY COORDINATES     mobley_7047032_equil.coor
Info: SUMMARY OF PARAMETERS:
Info: 5 BONDS
Info: 4 ANGLES
Info:   4 HARMONIC
Info:   0 COSINE-BASED
Info: 2 DIHEDRAL
Info: 0 IMPROPER
Info: 0 CROSSTERM
Info: 0 VDW
Info: 15 VDW_PAIRS
Info: 0 NBTHOLE_PAIRS
Info: To read alchdata from file: mobley_7047032.pdb
Info: To read alchflag data from column: 5
Info: STRUCTURE SUMMARY:
Info: 2990 ATOMS
Info: 2989 BONDS
Info: 24 ANGLES
Info: 27 DIHEDRALS
Info: 0 IMPROPERS
Info: 0 CROSSTERMS
Info: 3040 EXCLUSIONS
Info: 2985 RIGID BONDS
Info: ALCH: 0 ATOMS TO DISAPPEAR IN FINAL STATE
Info: ALCH: 14 ATOMS TO APPEAR IN FINAL STATE
Info: 5985 DEGREES OF FREEDOM
Info: 997 HYDROGEN GROUPS
Info: 4 ATOMS IN LARGEST HYDROGEN GROUP
Info: 997 MIGRATION GROUPS
Info: 4 ATOMS IN LARGEST MIGRATION GROUP
Info: TOTAL MASS = 17964.4 amu
Info: TOTAL CHARGE = 0.000100009 e
Info: MASS DENSITY = 0.958342 g/cm^3
Info: ATOM DENSITY = 0.0960548 atoms/A^3
Info: ADDED 0 IMPLICIT EXCLUSIONS
Info: NONBONDED TABLE R-SQUARED SPACING: 0.0625
Info: NONBONDED TABLE SIZE: 705 POINTS
Info: REMOVING COM VELOCITY 0.0884959 0.145565 -0.0766965
Info: Use 3D box decompostion in PME FFT.
Info: Updated CUDA force table with 4096 elements.
Info: Updated CUDA LJ table with 5 x 5 elements.
Info: Found 17 unique exclusion lists needing 36 bytes
TCL: Running for 1500000 steps
ETITLE: TS BOND ANGLE DIHED IMPRP ELECT VDW BOUNDARY MISC KINETIC TOTAL TEMP POTENTIAL TOTALAVG TEMPAVG PRESSURE GPRESSURE VOLUME PRESSAVG GPRESSAVG
ENERGY: 0 2.0580 6.2879 0.3666 0.0000 -10839.4373 1490.2037 0.0000 0.0000 1785.2319 -7555.2890 300.2070 -9340.5209 -7555.2890 300.2070 196.4974 275.4191 31128.0731 196.4974 275.4191
ENERGY: 300000 1.4040 8.0801 0.7763 0.0000 -10896.7990 1480.5236 0.0000 0.0000 1779.0492 -7626.9658 299.1673 -9406.0149 -7571.0714 302.7583 53.9543 69.8872 31199.9477 -130.4400 -88.7505
ENERGY: 600000 0.8670 8.4202 1.0784 0.0000 -10898.5639 1471.9786 0.0000 0.0000 1826.0634 -7590.1564 307.0733 -9416.2197 -7581.9480 303.5134 145.3721 173.1176 30713.7245 -26.2076 26.4187
ENERGY: 900000 0.4952 6.8813 0.3746 0.0000 -10849.1006 1480.8058 0.0000 0.0000 1791.9627 -7568.5809 301.3389 -9360.5437 -7597.1821 302.1750 169.7536 218.3965 30958.1603 -4.5449 58.6264
ENERGY: 1200000 0.9005 7.2914 0.3953 0.0000 -10842.7838 1463.8072 0.0000 0.0000 1700.7795 -7669.6099 286.0054 -9370.3893 -7596.4719 301.4912 35.0798 133.8048 30667.8643 -42.2346 24.5754
ENERGY: 1500000 0.1949 4.6554 1.0532 0.0000 -10915.3735 1529.2224 0.0000 0.0000 1853.7635 -7526.4839 311.7314 -9380.2475 -7581.0674 303.3623 885.4087 966.5035 30057.7745 70.4136 136.8733
TCL: Running FEP window   2: Lambda1 0.95   Lambda2 0.8999999999999999 [dLambda -0.050000000000000044]
TCL: Setting parameter firsttimestep to 0
TCL: Setting parameter alchLambda to 0.95
Info: NONBONDED TABLE R-SQUARED SPACING: 0.0625
Info: NONBONDED TABLE SIZE: 705 POINTS
TCL: Setting parameter alchLambda2 to 0.8999999999999999
Info: NONBONDED TABLE R-SQUARED SPACING: 0.0625
Info: NONBONDED TABLE SIZE: 705 POINTS
TCL: Running for 1500000 steps
ETITLE: TS BOND ANGLE DIHED IMPRP ELECT VDW BOUNDARY MISC KINETIC TOTAL TEMP POTENTIAL TOTALAVG TEMPAVG PRESSURE GPRESSURE VOLUME PRESSAVG GPRESSAVG
ENERGY: 0 0.1949 4.6555 1.0532 0.0000 -10914.8929 1529.2568 0.0000 0.0000 1852.8636 -7526.8689 311.5801 -9379.7324 -7526.8689 311.5801 874.5008 959.3315 30057.7745 874.5008 959.3315
ENERGY: 300000 2.0198 8.2900 1.1086 0.0000 -10897.8549 1496.1959 0.0000 0.0000 1827.7603 -7562.4803 307.3587 -9390.2407 -7530.7919 306.6127 130.4675 212.1380 30794.2741 311.5857 392.2791
ENERGY: 600000 1.3170 7.3161 1.0565 0.0000 -10884.9260 1516.6189 0.0000 0.0000 1826.1285 -7532.4890 307.0843 -9358.6175 -7560.0098 305.1369 581.6583 628.7713 30673.9777 254.9367 335.5246
ENERGY: 900000 1.6773 6.4447 0.4926 0.0000 -11003.0784 1527.2037 0.0000 0.0000 1749.7300 -7717.5301 294.2370 -9467.2601 -7587.2361 302.7919 155.4143 245.5682 30944.2670 245.1833 319.7484
ENERGY: 1200000 2.7003 6.3767 0.7815 0.0000 -10780.5963 1408.6315 0.0000 0.0000 1761.9395 -7600.1669 296.2901 -9362.1063 -7586.0404 301.7292 -179.9270 -109.2123 30566.0434 156.2065 225.6100
ENERGY: 1500000 0.4086 4.6389 0.1907 0.0000 -10804.5625 1443.6438 0.0000 0.0000 1818.2842 -7537.3963 305.7652 -9355.6805 -7579.1898 302.4093 -81.7529 -52.5418 30914.1789 105.5943 172.7366
TCL: Running FEP window   3: Lambda1 0.8999999999999999 Lambda2 0.8499999999999999 [dLambda -0.050000000000000044]
TCL: Setting parameter firsttimestep to 0
TCL: Setting parameter alchLambda to 0.8999999999999999
Info: NONBONDED TABLE R-SQUARED SPACING: 0.0625
Info: NONBONDED TABLE SIZE: 705 POINTS
TCL: Setting parameter alchLambda2 to 0.8499999999999999
Info: NONBONDED TABLE R-SQUARED SPACING: 0.0625
Info: NONBONDED TABLE SIZE: 705 POINTS
TCL: Running for 1500000 steps
ETITLE: TS BOND ANGLE DIHED IMPRP ELECT VDW BOUNDARY MISC KINETIC TOTAL TEMP POTENTIAL TOTALAVG TEMPAVG PRESSURE GPRESSURE VOLUME PRESSAVG GPRESSAVG
ENERGY: 0 0.4086 4.6389 0.1907 0.0000 -10804.3441 1443.9704 0.0000 0.0000 1817.4029 -7537.7326 305.6170 -9355.1355 -7537.7326 305.6170 -140.1804 -56.4717 30914.1789 -140.1804 -56.4717
ENERGY: 300000 0.8138 6.1549 0.2817 0.0000 -10810.7660 1475.2826 0.0000 0.0000 1872.8846 -7455.3484 314.9468 -9328.2330 -7536.4676 307.2733 372.2648 474.9824 30738.2792 46.2505 104.1903
ENERGY: 600000 1.2684 8.3155 0.4954 0.0000 -10921.3556 1452.4999 0.0000 0.0000 1736.8787 -7721.8977 292.0759 -9458.7764 -7560.2922 304.8600 -291.2326 -223.4872 30702.4546 -204.2453 -130.6221
ENERGY: 900000 0.8974 2.7704 1.1440 0.0000 -10820.8540 1476.6530 0.0000 0.0000 1736.8840 -7602.5054 292.0768 -9339.3893 -7581.8842 302.7242 212.2457 284.5621 31002.1039 -161.6890 -88.6008
ENERGY: 1200000 1.4339 6.0035 0.1184 0.0000 -10871.1695 1442.8259 0.0000 0.0000 1774.8845 -7645.9033 298.4670 -9420.7878 -7575.6818 303.2310 -478.5506 -401.6606 31165.9040 -219.4345 -146.3442
ENERGY: 1500000 0.7128 4.5391 0.2356 0.0000 -11002.7051 1524.8519 0.0000 0.0000 1797.1572 -7675.2085 302.2124 -9472.3658 -7584.9569 303.4307 465.5390 498.8453 30549.0893 -175.4882 -106.4863
TCL: Running FEP window   4: Lambda1 0.8499999999999999 Lambda2 0.7999999999999998 [dLambda -0.050000000000000044]
TCL: Setting parameter firsttimestep to 0
TCL: Setting parameter alchLambda to 0.8499999999999999
Info: NONBONDED TABLE R-SQUARED SPACING: 0.0625
Info: NONBONDED TABLE SIZE: 705 POINTS
TCL: Setting parameter alchLambda2 to 0.7999999999999998
Info: NONBONDED TABLE R-SQUARED SPACING: 0.0625
Info: NONBONDED TABLE SIZE: 705 POINTS
TCL: Running for 1500000 steps
ETITLE: TS BOND ANGLE DIHED IMPRP ELECT VDW BOUNDARY MISC KINETIC TOTAL TEMP POTENTIAL TOTALAVG TEMPAVG PRESSURE GPRESSURE VOLUME PRESSAVG GPRESSAVG
ENERGY: 0 0.7128 4.5391 0.2356 0.0000 -11002.6262 1525.0739 0.0000 0.0000 1796.2850 -7675.7799 302.0657 -9472.0648 -7675.7799 302.0657 408.7894 490.2285 30549.0893 408.7894 490.2285
ENERGY: 300000 0.6539 6.0575 2.1218 0.0000 -10668.2449 1428.5414 0.0000 0.0000 1753.9235 -7476.9468 294.9422 -9230.8703 -7581.3287 298.9220 65.6067 114.4545 31212.8868 252.3831 335.8722
ENERGY: 600000 0.3450 4.5758 0.9666 0.0000 -10855.3592 1427.4873 0.0000 0.0000 1753.8306 -7668.1538 294.9266 -9421.9845 -7593.0160 298.4234 -605.3186 -510.7479 31103.4179 104.6868 175.6208
ENERGY: 900000 0.7228 7.8432 1.4021 0.0000 -10882.5433 1467.5492 0.0000 0.0000 1849.6675 -7555.3585 311.0426 -9405.0260 -7571.7237 301.7456 -120.1221 -66.5972 30916.3637 183.0042 245.8806
ENERGY: 1200000 2.3462 9.3992 0.2030 0.0000 -10831.9568 1449.8993 0.0000 0.0000 1735.9914 -7634.1176 291.9267 -9370.1090 -7577.1051 301.1288 -240.0741 -196.1915 31049.0688 124.7370 183.2953
ENERGY: 1500000 0.8803 5.3107 0.3460 0.0000 -10718.7183 1352.3184 0.0000 0.0000 1738.9311 -7620.9319 292.4210 -9359.8630 -7582.0042 300.6975 -799.4130 -798.6833 31200.5834 -30.0819 25.4800
TCL: Running FEP window   5: Lambda1 0.7999999999999998 Lambda2 0.7499999999999998 [dLambda -0.050000000000000044]
TCL: Setting parameter firsttimestep to 0
TCL: Setting parameter alchLambda to 0.7999999999999998
Info: NONBONDED TABLE R-SQUARED SPACING: 0.0625
Info: NONBONDED TABLE SIZE: 705 POINTS
TCL: Setting parameter alchLambda2 to 0.7499999999999998
Info: NONBONDED TABLE R-SQUARED SPACING: 0.0625
Info: NONBONDED TABLE SIZE: 705 POINTS
TCL: Running for 1500000 steps
ETITLE: TS BOND ANGLE DIHED IMPRP ELECT VDW BOUNDARY MISC KINETIC TOTAL TEMP POTENTIAL TOTALAVG TEMPAVG PRESSURE GPRESSURE VOLUME PRESSAVG GPRESSAVG
ENERGY: 0 0.8803 5.3107 0.3460 0.0000 -10718.6699 1352.8928 0.0000 0.0000 1738.0275 -7621.2126 292.2691 -9359.2402 -7621.2126 292.2691 -867.9320 -797.3475 31200.5834 -867.9320 -797.3475
ENERGY: 300000 1.0863 11.8252 0.6658 0.0000 -10878.7086 1454.1397 0.0000 0.0000 1851.0670 -7559.9246 311.2780 -9410.9916 -7600.4469 302.2562 -162.8268 -88.3174 30705.3215 -189.5429 -136.0053
ENERGY: 600000 0.4668 7.1889 2.1770 0.0000 -10846.1693 1455.1352 0.0000 0.0000 1814.4895 -7566.7120 305.1270 -9381.2015 -7585.4421 303.3119 43.6466 95.6803 30715.4492 -203.0906 -149.3549
ENERGY: 900000 1.1859 8.0735 0.7032 0.0000 -10730.0294 1339.2016 0.0000 0.0000 1795.2266 -7585.6387 301.8878 -9380.8653 -7587.8446 302.2497 -923.7273 -814.0303 30856.1264 -176.9029 -122.0897
ENERGY: 1200000 0.0914 5.4416 0.7567 0.0000 -10817.5628 1373.9124 0.0000 0.0000 1810.5703 -7626.7904 304.4680 -9437.3607 -7587.3348 303.0765 -640.9985 -605.0569 30690.8885 -162.9975 -114.5724
ENERGY: 1500000 1.7580 8.7671 0.5165 0.0000 -10859.2372 1496.8964 0.0000 0.0000 1742.5829 -7608.7163 293.0351 -9351.2991 -7594.9090 302.2498 444.6953 490.6583 30651.8852 -16.4371 28.6458
TCL: Running FEP window   6: Lambda1 0.7499999999999998 Lambda2 0.6999999999999997 [dLambda -0.050000000000000044]
TCL: Setting parameter firsttimestep to 0
TCL: Setting parameter alchLambda to 0.7499999999999998
Info: NONBONDED TABLE R-SQUARED SPACING: 0.0625
Info: NONBONDED TABLE SIZE: 705 POINTS
TCL: Setting parameter alchLambda2 to 0.6999999999999997
Info: NONBONDED TABLE R-SQUARED SPACING: 0.0625
Info: NONBONDED TABLE SIZE: 705 POINTS
TCL: Running for 1500000 steps
ETITLE: TS BOND ANGLE DIHED IMPRP ELECT VDW BOUNDARY MISC KINETIC TOTAL TEMP POTENTIAL TOTALAVG TEMPAVG PRESSURE GPRESSURE VOLUME PRESSAVG GPRESSAVG
ENERGY: 0 1.7580 8.7671 0.5165 0.0000 -10859.0962 1497.1246 0.0000 0.0000 1741.6836 -7609.2464 292.8839 -9350.9300 -7609.2464 292.8839 399.3748 485.6811 30651.8852 399.3748 485.6811
ENERGY: 300000 1.8576 5.4743 0.2334 0.0000 -10725.9128 1475.8068 0.0000 0.0000 1806.8790 -7435.6618 303.8472 -9242.5408 -7578.3824 297.7962 314.5079 425.5750 31151.4444 344.6438 390.7484
ENERGY: 600000 0.5029 6.2686 0.1896 0.0000 -10885.6633 1534.4297 0.0000 0.0000 1723.8804 -7620.3922 289.8901 -9344.2726 -7591.2241 297.7525 772.4349 812.9217 30581.9465 262.3694 306.5336
ENERGY: 900000 0.4462 5.2185 0.5701 0.0000 -10881.6403 1464.1081 0.0000 0.0000 1810.7297 -7600.5677 304.4948 -9411.2973 -7600.6935 298.1822 -69.4096 30.2170 30953.0524 83.7543 141.9661
ENERGY: 1200000 1.5042 8.2247 1.0099 0.0000 -10779.2324 1446.2048 0.0000 0.0000 1824.1958 -7498.0930 306.7593 -9322.2888 -7587.1656 299.2659 -146.2356 -125.1210 31099.7783 -7.0964 53.7632
ENERGY: 1500000 1.3479 7.5169 0.8054 0.0000 -10725.5681 1359.7530 0.0000 0.0000 1793.9918 -7562.1531 301.6801 -9356.1449 -7590.9226 299.5076 -821.1483 -747.1477 31541.7806 15.4857 77.3686
TCL: Running FEP window   7: Lambda1 0.6999999999999997 Lambda2 0.6499999999999997 [dLambda -0.050000000000000044]
TCL: Setting parameter firsttimestep to 0
TCL: Setting parameter alchLambda to 0.6999999999999997
Info: NONBONDED TABLE R-SQUARED SPACING: 0.0625
Info: NONBONDED TABLE SIZE: 705 POINTS
TCL: Setting parameter alchLambda2 to 0.6499999999999997
Info: NONBONDED TABLE R-SQUARED SPACING: 0.0625
Info: NONBONDED TABLE SIZE: 705 POINTS
TCL: Running for 1500000 steps
ETITLE: TS BOND ANGLE DIHED IMPRP ELECT VDW BOUNDARY MISC KINETIC TOTAL TEMP POTENTIAL TOTALAVG TEMPAVG PRESSURE GPRESSURE VOLUME PRESSAVG GPRESSAVG
ENERGY: 0 1.3479 7.5169 0.8054 0.0000 -10725.1572 1359.3953 0.0000 0.0000 1793.0910 -7563.0007 301.5286 -9356.0918 -7563.0007 301.5286 -841.4973 -754.6976 31541.7806 -841.4973 -754.6976
ENERGY: 300000 1.5818 6.1645 0.5886 0.0000 -10794.8045 1459.5752 0.0000 0.0000 1752.0313 -7574.8631 294.6240 -9326.8944 -7559.1640 298.9043 362.0024 374.0626 30388.2096 -174.1540 -140.5172
ENERGY: 600000 1.6594 14.2641 0.1950 0.0000 -10977.8265 1482.2065 0.0000 0.0000 1777.0155 -7702.4860 298.8253 -9479.5014 -7602.2602 298.9403 78.9196 127.6208 30336.1180 -196.9330 -138.4152
ENERGY: 900000 1.2001 6.2449 0.4255 0.0000 -10717.8071 1342.6108 0.0000 0.0000 1784.8099 -7582.5160 300.1361 -9367.3258 -7598.2287 299.3405 -883.8026 -850.3221 30753.5805 -350.3741 -288.9972
ENERGY: 1200000 0.6046 4.2931 0.5748 0.0000 -10697.7682 1386.3298 0.0000 0.0000 1808.4202 -7497.5457 304.1064 -9305.9660 -7601.6025 299.4880 -351.4510 -237.6410 30940.9410 -389.2474 -328.1603
ENERGY: 1500000 2.3073 6.5052 0.4989 0.0000 -10799.2241 1471.2687 0.0000 0.0000 1742.3930 -7576.2510 293.0032 -9318.6439 -7594.9874 298.3331 218.0676 274.8447 30863.0972 -337.9469 -279.0501
TCL: Running FEP window   8: Lambda1 0.6499999999999997 Lambda2 0.5999999999999996 [dLambda -0.050000000000000044]
TCL: Setting parameter firsttimestep to 0
TCL: Setting parameter alchLambda to 0.6499999999999997
Info: NONBONDED TABLE R-SQUARED SPACING: 0.0625
Info: NONBONDED TABLE SIZE: 705 POINTS
TCL: Setting parameter alchLambda2 to 0.5999999999999996
Info: NONBONDED TABLE R-SQUARED SPACING: 0.0625
Info: NONBONDED TABLE SIZE: 705 POINTS
TCL: Running for 1500000 steps
ETITLE: TS BOND ANGLE DIHED IMPRP ELECT VDW BOUNDARY MISC KINETIC TOTAL TEMP POTENTIAL TOTALAVG TEMPAVG PRESSURE GPRESSURE VOLUME PRESSAVG GPRESSAVG
ENERGY: 0 2.3073 6.5052 0.4989 0.0000 -10799.0893 1471.7124 0.0000 0.0000 1741.4808 -7576.5846 292.8498 -9318.0654 -7576.5846 292.8498 187.1371 270.7319 30863.0972 187.1371 270.7319
ENERGY: 300000 0.9202 6.7277 0.5578 0.0000 -10810.3876 1418.3487 0.0000 0.0000 1818.9973 -7564.8359 305.8851 -9383.8332 -7592.5778 298.0920 -532.0534 -463.2895 31366.5083 -164.1845 -60.9252
ENERGY: 600000 0.8253 6.6391 0.5979 0.0000 -10972.0405 1557.1459 0.0000 0.0000 1797.0248 -7609.8076 302.1901 -9406.8324 -7600.3979 300.0837 838.1341 920.2056 30434.7257 102.6066 203.8383
ENERGY: 900000 1.6398 3.9785 1.9100 0.0000 -10816.3055 1417.8636 0.0000 0.0000 1716.8372 -7674.0764 288.7057 -9390.9136 -7609.5423 298.9233 -462.0624 -352.1108 30695.0984 -26.3870 76.5279
ENERGY: 1200000 0.5030 7.7056 1.1418 0.0000 -10952.7958 1523.2290 0.0000 0.0000 1809.0038 -7611.2126 304.2046 -9420.2164 -7613.9673 299.6542 523.6956 605.4179 30494.3184 1.6330 100.5248
ENERGY: 1500000 1.7181 6.9208 0.6851 0.0000 -10785.9781 1384.5134 0.0000 0.0000 1808.0521 -7584.0886 304.0445 -9392.1406 -7606.0803 299.1639 -574.4286 -509.5023 30852.1046 -84.0257 6.3428
TCL: Running FEP window   9: Lambda1 0.5999999999999996 Lambda2 0.5499999999999996 [dLambda -0.050000000000000044]
TCL: Setting parameter firsttimestep to 0
TCL: Setting parameter alchLambda to 0.5999999999999996
Info: NONBONDED TABLE R-SQUARED SPACING: 0.0625
Info: NONBONDED TABLE SIZE: 705 POINTS
TCL: Setting parameter alchLambda2 to 0.5499999999999996
Info: NONBONDED TABLE R-SQUARED SPACING: 0.0625
Info: NONBONDED TABLE SIZE: 705 POINTS
TCL: Running for 1500000 steps
ETITLE: TS BOND ANGLE DIHED IMPRP ELECT VDW BOUNDARY MISC KINETIC TOTAL TEMP POTENTIAL TOTALAVG TEMPAVG PRESSURE GPRESSURE VOLUME PRESSAVG GPRESSAVG
ENERGY: 0 1.7181 6.9208 0.6851 0.0000 -10785.3128 1384.8490 0.0000 0.0000 1807.1646 -7583.9752 303.8953 -9391.1398 -7583.9752 303.8953 -590.0530 -510.3924 30852.1046 -590.0530 -510.3924
ENERGY: 300000 3.3277 4.2171 0.3360 0.0000 -10823.2852 1421.4011 0.0000 0.0000 1743.4074 -7650.5959 293.1738 -9394.0033 -7606.2364 298.2051 -137.9348 -54.3141 30463.5629 126.4329 195.3783
ENERGY: 600000 0.8479 9.1498 0.8211 0.0000 -10741.0935 1408.3231 0.0000 0.0000 1793.5364 -7528.4152 301.6035 -9321.9516 -7599.9410 297.9201 6.0642 20.3724 30474.1419 -80.8666 -14.2163
ENERGY: 900000 1.1174 5.2795 0.1637 0.0000 -10859.4501 1528.5899 0.0000 0.0000 1822.0978 -7502.2017 306.4065 -9324.2996 -7589.1488 299.8726 786.5887 849.0897 30787.0126 161.8880 218.5861
ENERGY: 1200000 1.0662 7.4770 0.4974 0.0000 -11008.3332 1556.9891 0.0000 0.0000 1777.0442 -7665.2593 298.8302 -9442.3035 -7594.0167 299.4456 950.0326 1039.2215 29962.0703 154.4326 216.9973
ENERGY: 1500000 0.5667 4.7669 0.5823 0.0000 -10869.7846 1479.6577 0.0000 0.0000 1812.7862 -7571.4249 304.8406 -9384.2110 -7603.2489 299.1040 132.1068 245.2291 30473.8724 112.8862 177.2122
TCL: Running FEP window  10: Lambda1 0.5499999999999996 Lambda2 0.4999999999999996 [dLambda -0.04999999999999999]
TCL: Setting parameter firsttimestep to 0
TCL: Setting parameter alchLambda to 0.5499999999999996
Info: NONBONDED TABLE R-SQUARED SPACING: 0.0625
Info: NONBONDED TABLE SIZE: 705 POINTS
TCL: Setting parameter alchLambda2 to 0.4999999999999996
Info: NONBONDED TABLE R-SQUARED SPACING: 0.0625
Info: NONBONDED TABLE SIZE: 705 POINTS
TCL: Running for 1500000 steps
ETITLE: TS BOND ANGLE DIHED IMPRP ELECT VDW BOUNDARY MISC KINETIC TOTAL TEMP POTENTIAL TOTALAVG TEMPAVG PRESSURE GPRESSURE VOLUME PRESSAVG GPRESSAVG
ENERGY: 0 0.5667 4.7669 0.5823 0.0000 -10869.6107 1480.0899 0.0000 0.0000 1811.8788 -7571.7262 304.6880 -9383.6050 -7571.7262 304.6880 157.1261 244.7522 30473.8724 157.1261 244.7522
ENERGY: 300000 2.0120 5.7417 1.0628 0.0000 -10832.2213 1482.7013 0.0000 0.0000 1782.6903 -7558.0131 299.7796 -9340.7033 -7562.1776 303.1772 157.5377 151.0510 31021.8288 48.1989 119.4235
ENERGY: 600000 0.1627 6.0236 0.4672 0.0000 -10959.0494 1537.3928 0.0000 0.0000 1807.2065 -7607.7965 303.9023 -9415.0030 -7569.3866 303.3165 785.3756 841.1068 30067.9231 155.3215 224.9824
ENERGY: 900000 2.9515 7.0530 0.2141 0.0000 -10630.2376 1317.5870 0.0000 0.0000 1815.8048 -7486.6273 305.3482 -9302.4321 -7565.0925 301.9495 -919.7078 -863.0237 31088.3422 -116.8731 -48.3588
ENERGY: 1200000 1.4249 7.5421 0.4616 0.0000 -10836.1713 1473.5533 0.0000 0.0000 1777.5654 -7575.6240 298.9178 -9353.1893 -7566.4987 301.9965 -94.0475 -5.4380 31170.5739 -11.5201 56.2253
ENERGY: 1500000 0.6056 7.7802 0.1885 0.0000 -10953.1066 1507.0160 0.0000 0.0000 1805.6585 -7631.8578 303.6420 -9437.5163 -7575.4686 302.3847 165.8905 252.4767 30598.1969 -30.9933 33.2794
TCL: Running FEP window  11: Lambda1 0.4999999999999996 Lambda2 0.4499999999999996 [dLambda -0.04999999999999999]
TCL: Setting parameter firsttimestep to 0
TCL: Setting parameter alchLambda to 0.4999999999999996
Info: NONBONDED TABLE R-SQUARED SPACING: 0.0625
Info: NONBONDED TABLE SIZE: 705 POINTS
TCL: Setting parameter alchLambda2 to 0.4499999999999996
Info: NONBONDED TABLE R-SQUARED SPACING: 0.0625
Info: NONBONDED TABLE SIZE: 705 POINTS
TCL: Running for 1500000 steps
ETITLE: TS BOND ANGLE DIHED IMPRP ELECT VDW BOUNDARY MISC KINETIC TOTAL TEMP POTENTIAL TOTALAVG TEMPAVG PRESSURE GPRESSURE VOLUME PRESSAVG GPRESSAVG
ENERGY: 0 0.6056 7.7802 0.1885 0.0000 -10953.2023 1507.3803 0.0000 0.0000 1804.8053 -7632.4425 303.4985 -9437.2478 -7632.4425 303.4985 162.6534 251.9435 30598.1969 162.6534 251.9435
ENERGY: 300000 2.8817 5.0547 1.2994 0.0000 -10884.8838 1497.0511 0.0000 0.0000 1828.8571 -7549.7399 307.5431 -9378.5969 -7626.0175 303.6123 541.7904 584.6906 30183.3709 -36.7682 39.3136
ENERGY: 600000 3.1682 5.8480 1.1521 0.0000 -10884.3477 1447.5566 0.0000 0.0000 1734.0123 -7692.6106 291.5939 -9426.6229 -7621.5234 301.6250 -390.0157 -303.9184 30698.1102 -178.0702 -90.6324
ENERGY: 900000 1.7958 5.8133 0.1450 0.0000 -10791.9878 1374.4928 0.0000 0.0000 1786.7848 -7622.9561 300.4682 -9409.7409 -7622.5606 301.7268 -861.3894 -852.7898 31091.6049 -152.8732 -76.2950
ENERGY: 1200000 0.2578 7.1637 0.3443 0.0000 -10904.8769 1463.1399 0.0000 0.0000 1791.4097 -7642.5614 301.2459 -9433.9711 -7613.4079 302.6559 104.3833 162.7015 30210.4014 -155.8020 -83.0426
ENERGY: 1500000 0.9145 7.9676 0.2594 0.0000 -10796.0802 1433.2606 0.0000 0.0000 1783.7979 -7569.8801 299.9659 -9353.6781 -7605.9915 301.8227 -227.6097 -162.6676 30958.9343 -205.7268 -132.4960
TCL: Running FEP window  12: Lambda1 0.4499999999999996 Lambda2 0.39999999999999963 [dLambda -0.04999999999999999]
TCL: Setting parameter firsttimestep to 0
TCL: Setting parameter alchLambda to 0.4499999999999996
Info: NONBONDED TABLE R-SQUARED SPACING: 0.0625
Info: NONBONDED TABLE SIZE: 705 POINTS
TCL: Setting parameter alchLambda2 to 0.39999999999999963
Info: NONBONDED TABLE R-SQUARED SPACING: 0.0625
Info: NONBONDED TABLE SIZE: 705 POINTS
TCL: Running for 1500000 steps
ETITLE: TS BOND ANGLE DIHED IMPRP ELECT VDW BOUNDARY MISC KINETIC TOTAL TEMP POTENTIAL TOTALAVG TEMPAVG PRESSURE GPRESSURE VOLUME PRESSAVG GPRESSAVG
ENERGY: 0 0.9145 7.9675 0.2594 0.0000 -10796.0806 1433.5956 0.0000 0.0000 1782.8974 -7570.4461 299.8145 -9353.3435 -7570.4461 299.8145 -252.4594 -162.3927 30958.9343 -252.4594 -162.3927
ENERGY: 300000 1.0033 8.9054 0.4357 0.0000 -10969.4331 1564.6494 0.0000 0.0000 1790.4061 -7604.0332 301.0771 -9394.4393 -7589.6794 299.0744 658.2125 688.4094 30874.5584 -103.0152 -30.9654
ENERGY: 600000 0.7770 6.7063 1.1992 0.0000 -10747.3617 1422.3244 0.0000 0.0000 1740.5498 -7575.8050 292.6932 -9316.3548 -7590.3327 296.9753 -164.4688 -110.4052 30641.9305 -86.3822 -18.1611
ENERGY: 900000 0.5056 5.7691 1.3122 0.0000 -10893.8137 1485.5064 0.0000 0.0000 1787.6371 -7613.0833 300.6115 -9400.7204 -7592.1091 296.9411 407.7967 421.1339 30214.4941 -36.6023 35.2748
ENERGY: 1200000 1.8653 8.6068 0.2514 0.0000 -10765.4746 1425.5503 0.0000 0.0000 1762.1093 -7567.0915 296.3187 -9329.2007 -7588.0521 297.5982 -261.6607 -189.8040 30974.5629 9.2273 74.6370
ENERGY: 1500000 0.9098 6.9679 0.9788 0.0000 -10857.3868 1506.9746 0.0000 0.0000 1800.7621 -7540.7936 302.8186 -9341.5557 -7597.6160 297.5668 416.0802 481.1183 30705.9538 16.2742 77.0262
TCL: Running FEP window  13: Lambda1 0.39999999999999963 Lambda2 0.34999999999999964 [dLambda -0.04999999999999999]
TCL: Setting parameter firsttimestep to 0
TCL: Setting parameter alchLambda to 0.39999999999999963
Info: NONBONDED TABLE R-SQUARED SPACING: 0.0625
Info: NONBONDED TABLE SIZE: 705 POINTS
TCL: Setting parameter alchLambda2 to 0.34999999999999964
Info: NONBONDED TABLE R-SQUARED SPACING: 0.0625
Info: NONBONDED TABLE SIZE: 705 POINTS
TCL: Running for 1500000 steps
ETITLE: TS BOND ANGLE DIHED IMPRP ELECT VDW BOUNDARY MISC KINETIC TOTAL TEMP POTENTIAL TOTALAVG TEMPAVG PRESSURE GPRESSURE VOLUME PRESSAVG GPRESSAVG
ENERGY: 0 0.9098 6.9679 0.9788 0.0000 -10857.3870 1507.0265 0.0000 0.0000 1799.8898 -7541.6142 302.6719 -9341.5040 -7541.6142 302.6719 382.7425 477.1184 30705.9538 382.7425 477.1184
ENERGY: 300000 2.7911 7.8589 1.5349 0.0000 -10990.5658 1513.8944 0.0000 0.0000 1773.2362 -7691.2503 298.1898 -9464.4865 -7572.3111 300.1208 203.6296 308.5665 30395.8722 265.0657 348.8530
ENERGY: 600000 2.2006 7.2742 1.2707 0.0000 -10696.4961 1383.5928 0.0000 0.0000 1837.0817 -7465.0761 308.9262 -9302.1579 -7561.6534 302.2120 -615.8383 -525.8872 31079.3724 84.3388 186.1619
ENERGY: 900000 0.3693 6.4269 0.4636 0.0000 -10828.9810 1452.9309 0.0000 0.0000 1780.4497 -7588.3405 299.4028 -9368.7902 -7557.2556 302.7568 -246.9548 -233.7242 31249.4785 20.5459 108.3119
ENERGY: 1200000 1.5685 3.5856 0.2738 0.0000 -10802.5808 1406.7860 0.0000 0.0000 1788.4263 -7601.9405 300.7442 -9390.3668 -7565.3914 301.8760 -417.8303 -339.7073 30539.2124 -71.3221 4.8281
ENERGY: 1500000 1.7401 6.4819 0.1212 0.0000 -10787.3867 1436.1923 0.0000 0.0000 1795.7385 -7547.1128 301.9738 -9342.8513 -7579.8030 300.3849 39.8287 94.8459 30439.0310 -67.3811 3.6537
TCL: Running FEP window  14: Lambda1 0.34999999999999964 Lambda2 0.29999999999999966 [dLambda -0.04999999999999999]
TCL: Setting parameter firsttimestep to 0
TCL: Setting parameter alchLambda to 0.34999999999999964
Info: NONBONDED TABLE R-SQUARED SPACING: 0.0625
Info: NONBONDED TABLE SIZE: 705 POINTS
TCL: Setting parameter alchLambda2 to 0.29999999999999966
Info: NONBONDED TABLE R-SQUARED SPACING: 0.0625
Info: NONBONDED TABLE SIZE: 705 POINTS
TCL: Running for 1500000 steps
ETITLE: TS BOND ANGLE DIHED IMPRP ELECT VDW BOUNDARY MISC KINETIC TOTAL TEMP POTENTIAL TOTALAVG TEMPAVG PRESSURE GPRESSURE VOLUME PRESSAVG GPRESSAVG
ENERGY: 0 1.7401 6.4819 0.1212 0.0000 -10787.3867 1435.2831 0.0000 0.0000 1794.8482 -7548.9123 301.8241 -9343.7605 -7548.9123 301.8241 -1.0826 85.4570 30439.0310 -1.0826 85.4570
ENERGY: 300000 0.8834 7.5890 0.1799 0.0000 -10796.8228 1401.8394 0.0000 0.0000 1800.5271 -7585.8041 302.7791 -9386.3312 -7595.2001 300.6964 -264.2490 -264.7117 30463.4168 -103.2101 -49.5049
ENERGY: 600000 0.2435 7.5670 1.5479 0.0000 -10779.9399 1436.8543 0.0000 0.0000 1830.4111 -7503.3161 307.8044 -9333.7272 -7573.9795 300.6490 18.2852 96.8214 30675.5398 -50.5018 6.5660
ENERGY: 900000 2.9769 5.6001 0.6455 0.0000 -10996.9882 1551.6989 0.0000 0.0000 1845.5293 -7590.5375 310.3467 -9436.0668 -7581.0374 301.4636 388.8094 423.6117 30842.5178 -9.5317 51.4296
ENERGY: 1200000 1.2134 5.5105 1.6043 0.0000 -10776.2566 1364.9768 0.0000 0.0000 1760.8730 -7642.0787 296.1108 -9402.9517 -7600.2630 299.7811 -933.0110 -899.5350 31195.1698 -163.7056 -100.7313
ENERGY: 1500000 0.9479 6.8513 1.2747 0.0000 -10836.7209 1467.6605 0.0000 0.0000 1782.8064 -7577.1801 299.7992 -9359.9865 -7597.2711 300.6498 -109.4704 4.4523 30870.5870 -93.2414 -26.9889
TCL: Running FEP window  15: Lambda1 0.29999999999999966 Lambda2 0.24999999999999967 [dLambda -0.04999999999999999]
TCL: Setting parameter firsttimestep to 0
TCL: Setting parameter alchLambda to 0.29999999999999966
Info: NONBONDED TABLE R-SQUARED SPACING: 0.0625
Info: NONBONDED TABLE SIZE: 705 POINTS
TCL: Setting parameter alchLambda2 to 0.24999999999999967
Info: NONBONDED TABLE R-SQUARED SPACING: 0.0625
Info: NONBONDED TABLE SIZE: 705 POINTS
TCL: Running for 1500000 steps
ETITLE: TS BOND ANGLE DIHED IMPRP ELECT VDW BOUNDARY MISC KINETIC TOTAL TEMP POTENTIAL TOTALAVG TEMPAVG PRESSURE GPRESSURE VOLUME PRESSAVG GPRESSAVG
ENERGY: 0 0.9479 6.8513 1.2747 0.0000 -10836.7219 1468.0601 0.0000 0.0000 1781.9579 -7577.6299 299.6565 -9359.5878 -7577.6299 299.6565 -86.2379 2.7304 30870.5870 -86.2379 2.7304
ENERGY: 300000 0.3761 4.0603 0.4316 0.0000 -10922.8067 1594.6433 0.0000 0.0000 1809.4093 -7513.8860 304.2727 -9323.2953 -7579.3181 300.3561 1387.5179 1451.2721 30490.7849 348.0505 416.6283
ENERGY: 600000 0.7344 7.2020 1.0245 0.0000 -10787.7512 1467.6705 0.0000 0.0000 1757.7612 -7553.3587 295.5875 -9311.1199 -7594.9735 298.4249 66.9665 147.4320 31183.8732 91.7135 154.8453
ENERGY: 900000 3.2888 6.2645 0.7075 0.0000 -10868.4480 1559.0674 0.0000 0.0000 1811.0421 -7488.0777 304.5473 -9299.1199 -7585.1437 300.0085 687.2200 767.8053 30946.6409 21.3627 87.0803
ENERGY: 1200000 0.4590 6.9833 2.0584 0.0000 -10909.2081 1518.7319 0.0000 0.0000 1822.6740 -7558.3015 306.5033 -9380.9754 -7590.7271 300.2934 528.9216 624.1245 30773.7292 106.9269 176.1145
ENERGY: 1500000 2.4058 5.8395 0.3911 0.0000 -10807.9299 1466.8358 0.0000 0.0000 1721.1767 -7611.2810 289.4354 -9332.4577 -7590.2723 299.6202 -42.2099 33.0027 31144.0790 73.7439 148.2458
TCL: Running FEP window  16: Lambda1 0.24999999999999967 Lambda2 0.19999999999999968 [dLambda -0.04999999999999999]
TCL: Setting parameter firsttimestep to 0
TCL: Setting parameter alchLambda to 0.24999999999999967
Info: NONBONDED TABLE R-SQUARED SPACING: 0.0625
Info: NONBONDED TABLE SIZE: 705 POINTS
TCL: Setting parameter alchLambda2 to 0.19999999999999968
Info: NONBONDED TABLE R-SQUARED SPACING: 0.0625
Info: NONBONDED TABLE SIZE: 705 POINTS
TCL: Running for 1500000 steps
ETITLE: TS BOND ANGLE DIHED IMPRP ELECT VDW BOUNDARY MISC KINETIC TOTAL TEMP POTENTIAL TOTALAVG TEMPAVG PRESSURE GPRESSURE VOLUME PRESSAVG GPRESSAVG
ENERGY: 0 2.4058 5.8395 0.3911 0.0000 -10807.9301 1466.7061 0.0000 0.0000 1720.2926 -7612.2949 289.2868 -9332.5875 -7612.2949 289.2868 -55.5712 26.0219 31144.0790 -55.5712 26.0219
ENERGY: 300000 1.5749 5.7296 1.2110 0.0000 -10760.9985 1437.7352 0.0000 0.0000 1701.7040 -7613.0438 286.1609 -9314.7478 -7615.9397 291.9960 -330.7072 -278.3828 31134.8665 -240.4353 -165.5228
ENERGY: 600000 0.5985 5.9719 0.6971 0.0000 -10818.5273 1437.7657 0.0000 0.0000 1810.2221 -7563.2721 304.4094 -9373.4941 -7596.3380 298.3401 10.8533 55.2560 30445.0954 -81.3213 -11.3669
ENERGY: 900000 1.7056 8.9294 1.4769 0.0000 -10760.2072 1406.8928 0.0000 0.0000 1831.6002 -7509.6024 308.0044 -9341.2026 -7606.3523 299.3289 -150.3676 -162.6552 30402.8920 -56.4864 15.9995
ENERGY: 1200000 3.4085 7.1404 1.0496 0.0000 -10827.6324 1469.4952 0.0000 0.0000 1770.9981 -7575.5407 297.8135 -9346.5388 -7596.5664 300.2810 229.8423 189.1004 30431.8283 17.3727 80.7601
ENERGY: 1500000 0.4844 4.9821 0.4463 0.0000 -11009.0333 1530.3439 0.0000 0.0000 1782.3337 -7690.4428 299.7197 -9472.7765 -7591.4152 301.0967 405.1107 465.2977 30345.6845 33.0949 95.3712
TCL: Running FEP window  17: Lambda1 0.19999999999999968 Lambda2 0.1499999999999997 [dLambda -0.04999999999999999]
TCL: Setting parameter firsttimestep to 0
TCL: Setting parameter alchLambda to 0.19999999999999968
Info: NONBONDED TABLE R-SQUARED SPACING: 0.0625
Info: NONBONDED TABLE SIZE: 705 POINTS
TCL: Setting parameter alchLambda2 to 0.1499999999999997
Info: NONBONDED TABLE R-SQUARED SPACING: 0.0625
Info: NONBONDED TABLE SIZE: 705 POINTS
TCL: Running for 1500000 steps
ETITLE: TS BOND ANGLE DIHED IMPRP ELECT VDW BOUNDARY MISC KINETIC TOTAL TEMP POTENTIAL TOTALAVG TEMPAVG PRESSURE GPRESSURE VOLUME PRESSAVG GPRESSAVG
ENERGY: 0 0.4844 4.9821 0.4463 0.0000 -11009.0328 1530.1586 0.0000 0.0000 1781.4739 -7691.4875 299.5751 -9472.9614 -7691.4875 299.5751 381.3975 462.4434 30345.6845 381.3975 462.4434
ENERGY: 300000 1.3147 5.5164 0.5955 0.0000 -10873.8821 1475.7590 0.0000 0.0000 1799.7097 -7590.9869 302.6416 -9390.6965 -7600.6253 300.6783 145.9782 227.5723 30638.8609 231.8064 332.4520
ENERGY: 600000 1.5632 7.5507 0.2103 0.0000 -11033.9993 1588.5427 0.0000 0.0000 1800.0994 -7636.0331 302.7072 -9436.1324 -7593.3196 299.8953 1172.0537 1165.9524 30022.9162 180.3784 268.0643
ENERGY: 900000 0.4431 4.3299 1.1242 0.0000 -10738.6976 1372.4620 0.0000 0.0000 1838.6172 -7521.7211 309.1844 -9360.3383 -7567.8932 301.9620 -446.4665 -445.9633 30779.7850 131.2572 199.6412
ENERGY: 1200000 0.7652 4.5968 0.7948 0.0000 -10955.5000 1514.4659 0.0000 0.0000 1761.6309 -7673.2465 296.2383 -9434.8774 -7578.9084 301.6162 205.2173 279.6778 30617.4501 75.8943 146.4327
ENERGY: 1500000 1.4752 7.1370 0.9112 0.0000 -10845.6076 1450.1552 0.0000 0.0000 1806.3073 -7579.6217 303.7511 -9385.9290 -7587.4225 301.0308 143.0795 211.5462 30120.7122 27.7057 100.4528
TCL: Running FEP window  18: Lambda1 0.1499999999999997 Lambda2 0.09999999999999969 [dLambda -0.05 ]
TCL: Setting parameter firsttimestep to 0
TCL: Setting parameter alchLambda to 0.1499999999999997
Info: NONBONDED TABLE R-SQUARED SPACING: 0.0625
Info: NONBONDED TABLE SIZE: 705 POINTS
TCL: Setting parameter alchLambda2 to 0.09999999999999969
Info: NONBONDED TABLE R-SQUARED SPACING: 0.0625
Info: NONBONDED TABLE SIZE: 705 POINTS
TCL: Running for 1500000 steps
ETITLE: TS BOND ANGLE DIHED IMPRP ELECT VDW BOUNDARY MISC KINETIC TOTAL TEMP POTENTIAL TOTALAVG TEMPAVG PRESSURE GPRESSURE VOLUME PRESSAVG GPRESSAVG
ENERGY: 0 1.4752 7.1370 0.9112 0.0000 -10845.6076 1450.3791 0.0000 0.0000 1805.4060 -7580.2991 303.5995 -9385.7052 -7580.2991 303.5995 111.3469 207.9484 30120.7122 111.3469 207.9484
ENERGY: 300000 1.0086 8.0628 0.4577 0.0000 -10810.0911 1452.1602 0.0000 0.0000 1811.4239 -7536.9779 304.6115 -9348.4017 -7596.9180 300.5482 -16.1578 57.7331 30695.3640 -122.5160 -56.7703
ENERGY: 600000 0.9842 8.1519 0.8332 0.0000 -10732.3346 1387.2264 0.0000 0.0000 1797.2959 -7537.8430 302.2357 -9335.1390 -7590.4854 300.6374 -584.8082 -571.1271 30958.6126 -153.7504 -96.2944
ENERGY: 900000 0.6975 7.8566 0.4685 0.0000 -10867.2177 1495.2618 0.0000 0.0000 1824.3040 -7538.6293 306.7775 -9362.9334 -7587.1040 301.5672 429.9445 541.0308 30539.8608 0.7283 49.2854
ENERGY: 1200000 1.6087 4.4841 0.1229 0.0000 -10852.9624 1504.9279 0.0000 0.0000 1799.6532 -7542.1656 302.6321 -9341.8188 -7580.0856 301.6073 289.6858 435.0921 30901.3483 65.2338 116.3628
ENERGY: 1500000 0.5854 5.7257 0.9034 0.0000 -10795.1230 1453.3159 0.0000 0.0000 1802.0638 -7532.5287 303.0375 -9334.5925 -7578.5994 301.3151 170.0373 248.1112 30431.2379 55.4053 108.8052
TCL: Running FEP window  19: Lambda1 0.09999999999999969 Lambda2 0.049999999999999684 [dLambda -0.05 ]
TCL: Setting parameter firsttimestep to 0
TCL: Setting parameter alchLambda to 0.09999999999999969
Info: NONBONDED TABLE R-SQUARED SPACING: 0.0625
Info: NONBONDED TABLE SIZE: 705 POINTS
TCL: Setting parameter alchLambda2 to 0.049999999999999684
Info: NONBONDED TABLE R-SQUARED SPACING: 0.0625
Info: NONBONDED TABLE SIZE: 705 POINTS
TCL: Running for 1500000 steps
ETITLE: TS BOND ANGLE DIHED IMPRP ELECT VDW BOUNDARY MISC KINETIC TOTAL TEMP POTENTIAL TOTALAVG TEMPAVG PRESSURE GPRESSURE VOLUME PRESSAVG GPRESSAVG
ENERGY: 0 0.5854 5.7257 0.9034 0.0000 -10795.1227 1453.4434 0.0000 0.0000 1801.1611 -7533.3036 302.8857 -9334.4647 -7533.3036 302.8857 165.7631 243.1005 30431.2379 165.7631 243.1005
ENERGY: 300000 0.7746 4.4325 0.5449 0.0000 -10911.5413 1512.9356 0.0000 0.0000 1770.5347 -7622.3189 297.7355 -9392.8536 -7596.7439 299.9431 314.5469 349.1719 30743.5774 16.4236 54.3686
ENERGY: 600000 1.3004 5.6964 0.4774 0.0000 -10881.8025 1462.8358 0.0000 0.0000 1798.6766 -7612.8160 302.4679 -9411.4926 -7582.4348 299.6927 -264.7413 -159.5768 30774.9887 -225.7090 -169.0421
ENERGY: 900000 1.2677 7.0572 1.7208 0.0000 -10842.3752 1460.5764 0.0000 0.0000 1782.9194 -7588.8338 299.8182 -9371.7531 -7581.2776 299.9243 -343.1981 -283.2335 31094.2611 -146.3539 -87.1200
ENERGY: 1200000 1.9037 5.4825 0.0771 0.0000 -10858.3540 1468.7677 0.0000 0.0000 1755.2368 -7626.8863 295.1630 -9382.1231 -7580.5856 299.2597 -94.1743 -4.5117 30635.0986 -176.7000 -110.3948
ENERGY: 1500000 0.1445 5.6327 0.5355 0.0000 -10841.0500 1519.1818 0.0000 0.0000 1769.0827 -7546.4729 297.4914 -9315.5556 -7581.2120 298.6811 671.2017 727.5985 30708.4934 -84.1596 -21.2450
TCL: Running FEP window  20: Lambda1 0.049999999999999684 Lambda2 0.0    [dLambda -0.049999999999999684]
TCL: Setting parameter firsttimestep to 0
TCL: Setting parameter alchLambda to 0.049999999999999684
Info: NONBONDED TABLE R-SQUARED SPACING: 0.0625
Info: NONBONDED TABLE SIZE: 705 POINTS
TCL: Setting parameter alchLambda2 to 0.0
Info: NONBONDED TABLE R-SQUARED SPACING: 0.0625
Info: NONBONDED TABLE SIZE: 705 POINTS
TCL: Running for 1500000 steps
ETITLE: TS BOND ANGLE DIHED IMPRP ELECT VDW BOUNDARY MISC KINETIC TOTAL TEMP POTENTIAL TOTALAVG TEMPAVG PRESSURE GPRESSURE VOLUME PRESSAVG GPRESSAVG
ENERGY: 0 0.1445 5.6327 0.5355 0.0000 -10841.0505 1518.8220 0.0000 0.0000 1768.1859 -7547.7300 297.3406 -9315.9159 -7547.7300 297.3406 638.6819 723.5749 30708.4934 638.6819 723.5749
ENERGY: 300000 0.5111 4.0521 0.3840 0.0000 -10821.5425 1443.9434 0.0000 0.0000 1814.1425 -7558.5093 305.0687 -9372.6518 -7559.9375 305.3293 -16.7299 -1.6862 30625.7912 148.8807 199.8638
ENERGY: 600000 0.9958 8.6206 0.3250 0.0000 -11013.7808 1596.5200 0.0000 0.0000 1795.2438 -7612.0756 301.8906 -9407.3194 -7603.6153 300.1412 1113.1990 1207.7979 30230.5244 308.1149 361.1154
ENERGY: 900000 0.2037 6.5333 1.0833 0.0000 -10860.9494 1492.2895 0.0000 0.0000 1734.6401 -7626.1993 291.6995 -9360.8395 -7608.1734 298.7259 -156.7539 -8.4267 31100.8771 216.6191 275.2450
ENERGY: 1200000 2.0835 6.5296 0.7012 0.0000 -10824.8584 1461.7699 0.0000 0.0000 1782.4540 -7571.3202 299.7399 -9353.7742 -7603.1024 298.8514 153.7734 190.4180 30536.4780 113.5661 171.4560
ENERGY: 1500000 1.2135 6.1970 1.0886 0.0000 -10761.7076 1421.3152 0.0000 0.0000 1829.8077 -7502.0857 307.7030 -9331.8933 -7598.5060 299.4246 -154.9102 -111.0107 30744.5376 83.5005 140.6614
TCL: Exiting due to exit command.
