Info: SIMULATION PARAMETERS:
Info: TIMESTEP               2
Info: NUMBER OF STEPS        0
Info: STEPS PER CYCLE        10
Info: PERIODIC CELL BASIS 1  41.545 0 0
Info: PERIODIC CELL BASIS 2  0 39.013 0
Info: PERIODIC CELL BASIS 3  0 0 42.009
Info: PERIODIC CELL CENTER   0 0 0
Info: WRAPPING WATERS AROUND PERIODIC BOUNDARIES ON OUTPUT.
Info: WRAPPING ALL CLUSTERS AROUND PERIODIC BOUNDARIES ON OUTPUT.
Info: FIRST LDB TIMESTEP     50
Info: LAST LDB TIMESTEP     -1
Info: HOM BACKGROUND SCALING 1
Info: PME BACKGROUND SCALING 1
Info: MIN ATOMS PER PATCH    40
Info: EMPTY PATCH LOAD       40 ATOMS
Info: INITIAL TEMPERATURE    300
Info: CENTER OF MASS MOVING INITIALLY? NO
Info: DIELECTRIC             1
Info: EXCLUDE                SCALED ONE-FOUR
Info: 1-4 ELECTROSTATICS SCALED BY 0.833333
Info: MODIFIED 1-4 VDW PARAMETERS WILL BE USED
Info: DCD FILENAME           mobley_8883511_min.dcd
Info: DCD FREQUENCY          5000
Info: DCD FIRST STEP         5000
Info: DCD FILE WILL CONTAIN UNIT CELL DATA
Info: XST FILENAME           mobley_8883511_min.xst
Info: XST FREQUENCY          5000
Info: NO VELOCITY DCD OUTPUT
Info: NO FORCE DCD OUTPUT
Info: OUTPUT FILENAME        mobley_8883511_min
Info: BINARY OUTPUT FILES WILL BE USED
Info: RESTART FILENAME       mobley_8883511_min.restart
Info: RESTART FREQUENCY      5000
Info: BINARY RESTART FILES WILL BE USED
Info: CUTOFF                 9
Info: PAIRLIST DISTANCE      11
Info: PAIRLIST SHRINK RATE   0.01
Info: PAIRLIST GROW RATE     0.01
Info: PAIRLIST TRIGGER       0.3
Info: PAIRLISTS PER CYCLE    2
Info: PAIRLISTS ENABLED
Info: MARGIN                 8
Info: HYDROGEN GROUP CUTOFF  2.5
Info: PATCH DIMENSION        21.5
Info: ENERGY OUTPUT STEPS    5000
Info: ENERGY EVALUATION STEPS    5000
Info: OUTPUT ENERGY PRECISION 4
Info: CROSSTERM ENERGY INCLUDED IN DIHEDRAL
Info: TIMING OUTPUT STEPS    50000
Info: PRESSURE OUTPUT STEPS  5000
Info: LANGEVIN DYNAMICS ACTIVE
Info: LANGEVIN TEMPERATURE   300
Info: LANGEVIN USING BBK INTEGRATOR
Info: LANGEVIN DAMPING COEFFICIENT IS 1 INVERSE PS
Info: LANGEVIN DYNAMICS APPLIED TO HYDROGENS
Info: LANGEVIN PISTON PRESSURE CONTROL ACTIVE
Info:        TARGET PRESSURE IS 1.01325 BAR
Info:     OSCILLATION PERIOD IS 50 FS
Info:             DECAY TIME IS 25 FS
Info:     PISTON TEMPERATURE IS 300 K
Info:       PRESSURE CONTROL IS GROUP-BASED
Info:    INITIAL STRAIN RATE IS 0 0 0
Info:       CELL FLUCTUATION IS ISOTROPIC
Info: PARTICLE MESH EWALD (PME) ACTIVE
Info: PME TOLERANCE               1e-06
Info: PME EWALD COEFFICIENT       0.348832
Info: PME INTERPOLATION ORDER     4
Info: PME GRID DIMENSIONS         44 40 44
Info: PME MAXIMUM GRID SPACING    1
Info: FULL ELECTROSTATIC EVALUATION FREQUENCY      2
Info: USING VERLET I (r-RESPA) MTS SCHEME.
Info: C1 SPLITTING OF LONG RANGE ELECTROSTATICS
Info: PLACING ATOMS IN PATCHES BY HYDROGEN GROUPS
Info: RIGID BONDS TO HYDROGEN : ALL
Info:         ERROR TOLERANCE : 1e-08
Info:          MAX ITERATIONS : 100
Info: RIGID WATER USING SETTLE ALGORITHM
Info: RANDOM NUMBER SEED     1741409221
Info: USE HYDROGEN BONDS?    NO
Info: Using AMBER format force field!
Info: AMBER PARM FILE        mobley_8883511.prmtop
Info: COORDINATE PDB         mobley_8883511.pdb
Info: Exclusions will be read from PARM file!
Info: SCNB (VDW SCALING)     2
Info: USING ARITHMETIC MEAN TO COMBINE L-J SIGMA PARAMETERS
Info: SUMMARY OF PARAMETERS:
Info: 9 BONDS
Info: 9 ANGLES
Info:   9 HARMONIC
Info:   0 COSINE-BASED
Info: 6 DIHEDRAL
Info: 0 IMPROPER
Info: 0 CROSSTERM
Info: 0 VDW
Info: 36 VDW_PAIRS
Info: 0 NBTHOLE_PAIRS
Info: STRUCTURE SUMMARY:
Info: 4805 ATOMS
Info: 4805 BONDS
Info: 27 ANGLES
Info: 40 DIHEDRALS
Info: 0 IMPROPERS
Info: 0 CROSSTERMS
Info: 4863 EXCLUSIONS
Info: 4796 RIGID BONDS
Info: 9619 DEGREES OF FREEDOM
Info: 1605 HYDROGEN GROUPS
Info: 4 ATOMS IN LARGEST HYDROGEN GROUP
Info: 1605 MIGRATION GROUPS
Info: 4 ATOMS IN LARGEST MIGRATION GROUP
Info: TOTAL MASS = 28873.7 amu
Info: TOTAL CHARGE = 2.74449e-08 e
Info: MASS DENSITY = 0.704192 g/cm^3
Info: ATOM DENSITY = 0.0705705 atoms/A^3
Info: ADDED 0 IMPLICIT EXCLUSIONS
Info: NONBONDED TABLE R-SQUARED SPACING: 0.0625
Info: NONBONDED TABLE SIZE: 705 POINTS
Info: REMOVING COM VELOCITY 0.0264463 0.0785384 0.0891454
TCL: Minimizing for 2000 steps
ETITLE: TS BOND ANGLE DIHED IMPRP ELECT VDW BOUNDARY MISC KINETIC TOTAL TEMP POTENTIAL TOTAL3 TEMPAVG PRESSURE GPRESSURE VOLUME PRESSAVG GPRESSAVG
ENERGY: 0 0.5511 0.2729 1.5806 0.0000 -14877.4765 1723.5695 0.0000 0.0000 0.0000 -13151.5023 0.0000 -13151.5023 -13151.5023 0.0000 10996.4588 -15116.6063 68087.9807 10996.4588 -15116.6063
ENERGY: 400 6.1899 2.4581 0.7913 0.0000 -20004.1231 2895.0082 0.0000 0.0000 0.0000 -17099.6756 0.0000 -17099.6756 -17099.6756 0.0000 15173.0201 14968.5673 68087.9807 15173.0201 14968.5673
ENERGY: 800 1.6845 0.8096 0.7922 0.0000 -21008.0481 3332.3278 0.0000 0.0000 0.0000 -17672.4340 0.0000 -17672.4340 -17672.4340 0.0000 17150.8988 16973.2022 68087.9807 17150.8988 16973.2022
ENERGY: 1200 1.1011 0.5555 0.1479 0.0000 -21441.4099 3530.1881 0.0000 0.0000 0.0000 -17909.4173 0.0000 -17909.4173 -17909.4173 0.0000 18067.5279 17836.9160 68087.9807 18067.5279 17836.9160
ENERGY: 1600 4.2213 1.4721 0.1000 0.0000 -21668.5922 3640.8993 0.0000 0.0000 0.0000 -18021.8997 0.0000 -18021.8997 -18021.8997 0.0000 18587.1105 18358.1859 68087.9807 18587.1105 18358.1859
ENERGY: 2000 0.6948 0.3899 0.1016 0.0000 -21795.7471 3697.4525 0.0000 0.0000 0.0000 -18097.1083 0.0000 -18097.1083 -18097.1083 0.0000 18896.5426 18662.6660 68087.9807 18896.5426 18662.6660
TCL: Exiting due to exit command.
Info: NAMD 3.0.1 for Linux-x86_64-multicore
Info: Please visit http://www.ks.uiuc.edu/Research/namd/
Info: for updates, documentation, and support information.
Info: Please cite Phillips et al., J. Chem. Phys. 153:044130 (2020) doi:10.1063/5.0014475
Info: in all publications reporting results obtained with NAMD.
Info: Based on Charm++/Converse 80000 for multicore-linux-x86_64-gcc
Info: Built Mon Oct 14 11:11:06 CDT 2024 by dhardy on athine.ks.uiuc.edu
Info: 1 NAMD  3.0.1  Linux-x86_64-multicore  16    k008  z5358697
Info: Running on 16 processors, 1 nodes, 1 physical nodes.
Info: CPU topology information available.
Info: Charm++/Converse parallel runtime startup completed at 0.00964006 s
Info: 1043.45 MB of memory in use based on /proc/self/stat
Info: Configuration file is mobley_8883511_equil.namd
Info: Working in the current directory /srv/scratch/z5358697/prod_prep_11/8883511
TCL: Running 25000 steps at 30 kelvin.
TCL: Suspending until startup complete.
Info: SIMULATION PARAMETERS:
Info: TIMESTEP               2
Info: NUMBER OF STEPS        0
Info: STEPS PER CYCLE        10
Info: PERIODIC CELL BASIS 1  41.545 0 0
Info: PERIODIC CELL BASIS 2  0 39.013 0
Info: PERIODIC CELL BASIS 3  0 0 42.009
Info: PERIODIC CELL CENTER   0 0 0
Info: WRAPPING WATERS AROUND PERIODIC BOUNDARIES ON OUTPUT.
Info: WRAPPING ALL CLUSTERS AROUND PERIODIC BOUNDARIES ON OUTPUT.
Info: FIRST LDB TIMESTEP     50
Info: LAST LDB TIMESTEP     -1
Info: HOM BACKGROUND SCALING 1
Info: PME BACKGROUND SCALING 1
Info: MIN ATOMS PER PATCH    40
Info: EMPTY PATCH LOAD       40 ATOMS
Info: INITIAL TEMPERATURE    300
Info: CENTER OF MASS MOVING INITIALLY? NO
Info: DIELECTRIC             1
Info: EXCLUDE                SCALED ONE-FOUR
Info: 1-4 ELECTROSTATICS SCALED BY 0.833333
Info: MODIFIED 1-4 VDW PARAMETERS WILL BE USED
Info: DCD FILENAME           mobley_8883511_equil.dcd
Info: DCD FREQUENCY          5000
Info: DCD FIRST STEP         5000
Info: DCD FILE WILL CONTAIN UNIT CELL DATA
Info: XST FILENAME           mobley_8883511_equil.xst
Info: XST FREQUENCY          5000
Info: NO VELOCITY DCD OUTPUT
Info: NO FORCE DCD OUTPUT
Info: OUTPUT FILENAME        mobley_8883511_equil
Info: BINARY OUTPUT FILES WILL BE USED
Info: RESTART FILENAME       mobley_8883511_equil.restart
Info: RESTART FREQUENCY      5000
Info: BINARY RESTART FILES WILL BE USED
Info: CUTOFF                 9
Info: PAIRLIST DISTANCE      11
Info: PAIRLIST SHRINK RATE   0.01
Info: PAIRLIST GROW RATE     0.01
Info: PAIRLIST TRIGGER       0.3
Info: PAIRLISTS PER CYCLE    2
Info: PAIRLISTS ENABLED
Info: MARGIN                 8
Info: HYDROGEN GROUP CUTOFF  2.5
Info: PATCH DIMENSION        21.5
Info: ENERGY OUTPUT STEPS    5000
Info: ENERGY EVALUATION STEPS    5000
Info: OUTPUT ENERGY PRECISION 4
Info: CROSSTERM ENERGY INCLUDED IN DIHEDRAL
Info: TIMING OUTPUT STEPS    50000
Info: PRESSURE OUTPUT STEPS  5000
Info: LANGEVIN DYNAMICS ACTIVE
Info: LANGEVIN TEMPERATURE   30
Info: LANGEVIN USING BBK INTEGRATOR
Info: LANGEVIN DAMPING COEFFICIENT IS 1 INVERSE PS
Info: LANGEVIN DYNAMICS APPLIED TO HYDROGENS
Info: LANGEVIN PISTON PRESSURE CONTROL ACTIVE
Info:        TARGET PRESSURE IS 1.01325 BAR
Info:     OSCILLATION PERIOD IS 50 FS
Info:             DECAY TIME IS 25 FS
Info:     PISTON TEMPERATURE IS 300 K
Info:       PRESSURE CONTROL IS GROUP-BASED
Info:    INITIAL STRAIN RATE IS 0 0 0
Info:       CELL FLUCTUATION IS ISOTROPIC
Info: PARTICLE MESH EWALD (PME) ACTIVE
Info: PME TOLERANCE               1e-06
Info: PME EWALD COEFFICIENT       0.348832
Info: PME INTERPOLATION ORDER     4
Info: PME GRID DIMENSIONS         44 40 44
Info: PME MAXIMUM GRID SPACING    1
Info: FULL ELECTROSTATIC EVALUATION FREQUENCY      2
Info: USING VERLET I (r-RESPA) MTS SCHEME.
Info: C1 SPLITTING OF LONG RANGE ELECTROSTATICS
Info: PLACING ATOMS IN PATCHES BY HYDROGEN GROUPS
Info: RIGID BONDS TO HYDROGEN : ALL
Info:         ERROR TOLERANCE : 1e-08
Info:          MAX ITERATIONS : 100
Info: RIGID WATER USING SETTLE ALGORITHM
Info: RANDOM NUMBER SEED     1741409237
Info: USE HYDROGEN BONDS?    NO
Info: Using AMBER format force field!
Info: AMBER PARM FILE        mobley_8883511.prmtop
Info: COORDINATE PDB         mobley_8883511.pdb
Info: Exclusions will be read from PARM file!
Info: SCNB (VDW SCALING)     2
Info: USING ARITHMETIC MEAN TO COMBINE L-J SIGMA PARAMETERS
Info: BINARY COORDINATES     mobley_8883511_min.coor
Info: SUMMARY OF PARAMETERS:
Info: 9 BONDS
Info: 9 ANGLES
Info:   9 HARMONIC
Info:   0 COSINE-BASED
Info: 6 DIHEDRAL
Info: 0 IMPROPER
Info: 0 CROSSTERM
Info: 0 VDW
Info: 36 VDW_PAIRS
Info: 0 NBTHOLE_PAIRS
Info: STRUCTURE SUMMARY:
Info: 4805 ATOMS
Info: 4805 BONDS
Info: 27 ANGLES
Info: 40 DIHEDRALS
Info: 0 IMPROPERS
Info: 0 CROSSTERMS
Info: 4863 EXCLUSIONS
Info: 4796 RIGID BONDS
Info: 9619 DEGREES OF FREEDOM
Info: 1605 HYDROGEN GROUPS
Info: 4 ATOMS IN LARGEST HYDROGEN GROUP
Info: 1605 MIGRATION GROUPS
Info: 4 ATOMS IN LARGEST MIGRATION GROUP
Info: TOTAL MASS = 28873.7 amu
Info: TOTAL CHARGE = 2.74449e-08 e
Info: MASS DENSITY = 0.704192 g/cm^3
Info: ATOM DENSITY = 0.0705705 atoms/A^3
Info: ADDED 0 IMPLICIT EXCLUSIONS
Info: NONBONDED TABLE R-SQUARED SPACING: 0.0625
Info: NONBONDED TABLE SIZE: 705 POINTS
Info: REMOVING COM VELOCITY 0.167345 0.106594 -0.00800413
TCL: Running for 25000 steps
ETITLE: TS BOND ANGLE DIHED IMPRP ELECT VDW BOUNDARY MISC KINETIC TOTAL TEMP POTENTIAL TOTAL3 TEMPAVG PRESSURE GPRESSURE VOLUME PRESSAVG GPRESSAVG
ENERGY: 0 0.6948 0.3899 0.1016 0.0000 -21795.7471 3697.4525 0.0000 0.0000 2878.9406 -15218.1677 301.2265 -18097.1083 -15217.6089 301.2265 -166.8654 -128.9367 68087.9807 -166.8654 -128.9367
ENERGY: 5000 0.7742 0.6323 0.4063 0.0000 -22993.1656 3951.9642 0.0000 0.0000 292.3204 -18747.0683 30.5858 -19039.3887 -18746.1185 48.4333 -370.6693 -325.9868 47367.8499 0.0928 0.2085
ENERGY: 10000 0.6832 0.8660 0.3295 0.0000 -23003.2039 3930.5177 0.0000 0.0000 285.1485 -18785.6590 29.8354 -19070.8075 -18785.0665 30.0459 -543.3685 -496.3034 47415.9059 -0.5194 -0.4939
ENERGY: 15000 0.5532 0.5208 0.9241 0.0000 -23064.7493 3972.3244 0.0000 0.0000 287.7131 -18802.7137 30.1037 -19090.4268 -18801.8781 29.9733 -319.8117 -260.1488 47234.7322 4.3900 4.2264
ENERGY: 20000 0.7168 0.8645 0.2979 0.0000 -23134.3692 4042.6761 0.0000 0.0000 284.6695 -18805.1443 29.7853 -19089.8139 -18804.3138 29.8705 -12.6083 43.5928 47219.2096 4.3245 4.0914
ENERGY: 25000 0.3276 0.7678 0.5631 0.0000 -23173.8492 4080.6966 0.0000 0.0000 284.0586 -18807.4354 29.7213 -19091.4941 -18806.7480 30.0651 213.8400 256.4526 47151.3057 3.6929 3.6485
TCL: Running 25000 steps at 60 kelvin.
TCL: Setting parameter langevinTemp to 60
TCL: Running for 25000 steps
ETITLE: TS BOND ANGLE DIHED IMPRP ELECT VDW BOUNDARY MISC KINETIC TOTAL TEMP POTENTIAL TOTAL3 TEMPAVG PRESSURE GPRESSURE VOLUME PRESSAVG GPRESSAVG
ENERGY: 25000 0.3276 0.7678 0.5631 0.0000 -23173.8492 4080.6966 0.0000 0.0000 283.9177 -18807.5764 29.7066 -19091.4941 -18807.0615 29.7066 194.6917 256.3202 47151.3057 194.6917 256.3202
ENERGY: 30000 1.0968 1.6798 0.5094 0.0000 -22658.5786 3829.1885 0.0000 0.0000 568.5104 -18257.5937 59.4838 -18826.1040 -18256.5484 57.2634 -528.6609 -458.7228 47702.7034 3.1121 3.1081
ENERGY: 35000 0.4992 1.3129 1.0062 0.0000 -22874.3046 4017.3020 0.0000 0.0000 579.8096 -18274.3748 60.6661 -18854.1843 -18273.3887 60.2664 515.5720 533.9935 47256.1856 0.9498 0.6387
ENERGY: 40000 1.5425 0.6600 0.9055 0.0000 -22911.9018 4007.9124 0.0000 0.0000 567.1241 -18333.7573 59.3388 -18900.8815 -18332.6309 60.2507 399.4282 425.8448 47037.9579 -0.7496 -0.9069
ENERGY: 45000 1.5140 1.1927 0.6609 0.0000 -22895.0244 3984.5116 0.0000 0.0000 583.3019 -18323.8432 61.0315 -18907.1451 -18322.3275 59.7430 171.8624 242.6856 47141.7989 -0.3913 -0.4613
ENERGY: 50000 0.3171 1.6739 1.3932 0.0000 -22797.7647 3896.3923 0.0000 0.0000 570.4343 -18327.5540 59.6851 -18897.9883 -18326.0148 60.0045 -190.4657 -125.8722 47116.0008 -0.6221 -0.4751
TCL: Running 25000 steps at 90 kelvin.
TCL: Setting parameter langevinTemp to 90
TCL: Running for 25000 steps
ETITLE: TS BOND ANGLE DIHED IMPRP ELECT VDW BOUNDARY MISC KINETIC TOTAL TEMP POTENTIAL TOTAL3 TEMPAVG PRESSURE GPRESSURE VOLUME PRESSAVG GPRESSAVG
ENERGY: 50000 0.3171 1.6739 1.3932 0.0000 -22797.7647 3896.3923 0.0000 0.0000 570.1608 -18327.8275 59.6565 -18897.9883 -18326.5808 59.6565 -192.8545 -125.8928 47116.0008 -192.8545 -125.8928
ENERGY: 55000 2.2900 1.1988 1.2056 0.0000 -22447.5272 3801.2121 0.0000 0.0000 869.8580 -17771.7627 91.0141 -18641.6207 -17769.4558 87.4065 -41.6672 31.7379 46905.7438 4.5322 4.3291
ENERGY: 60000 1.2121 1.7727 0.8510 0.0000 -22452.9022 3770.6959 0.0000 0.0000 863.3121 -17815.0583 90.3292 -18678.3704 -17812.0132 90.0284 -216.5200 -169.4242 46944.6234 4.4201 4.4955
ENERGY: 65000 0.6355 1.4554 1.4830 0.0000 -22679.9058 3962.6292 0.0000 0.0000 851.9690 -17861.7338 89.1424 -18713.7028 -17860.0501 90.1268 762.0665 805.6550 46552.5122 5.4592 5.2180
ENERGY: 70000 1.3513 1.4200 1.4968 0.0000 -22504.0426 3752.8441 0.0000 0.0000 862.4125 -17884.5178 90.2351 -18746.9303 -17881.7246 89.6248 -470.1863 -442.7756 47044.2872 5.3350 5.4029
ENERGY: 75000 1.3990 1.5506 1.5291 0.0000 -22529.3727 3772.2607 0.0000 0.0000 877.7297 -17874.9037 91.8377 -18752.6333 -17872.1902 90.2196 -350.1523 -296.4015 46748.5546 6.3545 6.2956
TCL: Running 25000 steps at 120 kelvin.
TCL: Setting parameter langevinTemp to 120
TCL: Running for 25000 steps
ETITLE: TS BOND ANGLE DIHED IMPRP ELECT VDW BOUNDARY MISC KINETIC TOTAL TEMP POTENTIAL TOTAL3 TEMPAVG PRESSURE GPRESSURE VOLUME PRESSAVG GPRESSAVG
ENERGY: 75000 1.3990 1.5506 1.5291 0.0000 -22529.3727 3772.2607 0.0000 0.0000 877.2925 -17875.3408 91.7920 -18752.6333 -17873.4421 91.7920 -351.8895 -295.8027 46748.5546 -351.8895 -295.8027
ENERGY: 80000 0.7122 1.6234 2.8895 0.0000 -22049.5176 3622.9108 0.0000 0.0000 1141.9925 -17279.3893 119.4878 -18421.3818 -17276.6950 116.8727 -276.5070 -202.6244 46890.3042 1.6989 1.6311
ENERGY: 85000 2.0086 1.6540 2.1019 0.0000 -22068.3074 3633.6296 0.0000 0.0000 1131.2600 -17297.6533 118.3649 -18428.9133 -17295.8448 119.1262 -486.4707 -434.8259 47213.0173 4.8488 4.8457
ENERGY: 90000 1.6595 3.4505 1.1603 0.0000 -22241.1895 3704.3259 0.0000 0.0000 1137.2504 -17393.3430 118.9917 -18530.5934 -17390.3449 120.4289 -174.4216 -98.8004 46781.6905 2.4344 2.8131
ENERGY: 95000 1.6925 3.7088 1.4447 0.0000 -22192.5601 3668.5195 0.0000 0.0000 1170.1650 -17347.0296 122.4356 -18517.1946 -17342.6247 119.8590 -286.2929 -257.1705 46970.2574 -0.3325 0.1501
ENERGY: 100000 0.8574 2.4773 0.9963 0.0000 -22398.6474 3821.4227 0.0000 0.0000 1122.7359 -17450.1578 117.4730 -18572.8937 -17448.5958 121.4615 315.6613 355.3780 46657.6376 2.2556 2.1047
TCL: Running 25000 steps at 150 kelvin.
TCL: Setting parameter langevinTemp to 150
TCL: Running for 25000 steps
ETITLE: TS BOND ANGLE DIHED IMPRP ELECT VDW BOUNDARY MISC KINETIC TOTAL TEMP POTENTIAL TOTAL3 TEMPAVG PRESSURE GPRESSURE VOLUME PRESSAVG GPRESSAVG
ENERGY: 100000 0.8574 2.4773 0.9963 0.0000 -22398.6474 3821.4227 0.0000 0.0000 1122.1776 -17450.7161 117.4146 -18572.8937 -17448.5278 117.4146 290.7163 354.8361 46657.6376 290.7163 354.8361
ENERGY: 105000 1.1798 2.5877 1.8958 0.0000 -21888.0971 3650.4458 0.0000 0.0000 1399.7869 -16832.2011 146.4611 -18231.9879 -16829.5239 146.0846 380.5494 415.2466 46753.5539 2.7449 2.6287
ENERGY: 110000 1.9105 2.2607 1.6822 0.0000 -22000.4323 3784.9034 0.0000 0.0000 1434.4460 -16775.2296 150.0875 -18209.6755 -16770.6183 150.5760 959.5914 1012.2498 46680.2976 -0.4790 -0.1925
ENERGY: 115000 1.0796 2.4464 1.1287 0.0000 -21785.5342 3540.4451 0.0000 0.0000 1440.6186 -16799.8157 150.7334 -18240.4343 -16796.2292 148.9746 -335.7190 -300.9879 47029.2617 -0.1262 0.3799
ENERGY: 120000 0.9994 2.0116 1.7443 0.0000 -21994.9104 3730.9157 0.0000 0.0000 1452.8016 -16806.4377 152.0081 -18259.2393 -16803.0427 149.8457 747.7728 811.5355 46495.7036 -1.0950 -0.5380
ENERGY: 125000 0.6311 2.1764 2.1371 0.0000 -21985.0292 3710.8420 0.0000 0.0000 1426.8506 -16842.3920 149.2928 -18269.2426 -16838.5820 150.6939 476.0886 504.8405 46648.2386 2.8033 2.9909
TCL: Running 50000 steps at 180 kelvin.
TCL: Setting parameter langevinTemp to 180
TCL: Running for 50000 steps
ETITLE: TS BOND ANGLE DIHED IMPRP ELECT VDW BOUNDARY MISC KINETIC TOTAL TEMP POTENTIAL TOTAL3 TEMPAVG PRESSURE GPRESSURE VOLUME PRESSAVG GPRESSAVG
ENERGY: 125000 0.6311 2.1764 2.1371 0.0000 -21985.0292 3710.8420 0.0000 0.0000 1426.1702 -16843.0724 149.2216 -18269.2426 -16840.4741 149.2216 448.1169 504.7623 46648.2386 448.1169 504.7623
ENERGY: 135000 1.4922 2.0231 1.8738 0.0000 -21419.6802 3537.0519 0.0000 0.0000 1706.8259 -16170.4131 178.5869 -17877.2391 -16165.5083 180.4774 354.6788 411.7113 47134.6950 6.2711 6.2864
ENERGY: 145000 1.9579 2.0828 3.8016 0.0000 -21270.9779 3496.4103 0.0000 0.0000 1721.8391 -16044.8861 180.1578 -17766.7252 -16042.2952 179.8280 403.4285 448.6453 47259.4022 5.1430 4.8484
ENERGY: 155000 2.2537 2.3281 3.1773 0.0000 -21305.0860 3463.9815 0.0000 0.0000 1707.2869 -16126.0584 178.6352 -17833.3454 -16122.5772 179.4757 15.0157 55.4865 47218.3334 4.1766 4.3834
ENERGY: 165000 2.4434 0.9283 3.1757 0.0000 -21439.2655 3535.9187 0.0000 0.0000 1713.3838 -16183.4156 179.2731 -17896.7994 -16181.4053 179.3697 363.2972 437.4508 46730.8373 3.4007 2.9488
ENERGY: 175000 0.5644 3.6930 2.1492 0.0000 -21360.6413 3520.1201 0.0000 0.0000 1721.7077 -16112.4068 180.1440 -17834.1146 -16109.4513 180.5909 488.4773 611.8387 46862.8727 -0.8543 0.3300
TCL: Running 50000 steps at 210 kelvin.
TCL: Setting parameter langevinTemp to 210
TCL: Running for 50000 steps
ETITLE: TS BOND ANGLE DIHED IMPRP ELECT VDW BOUNDARY MISC KINETIC TOTAL TEMP POTENTIAL TOTAL3 TEMPAVG PRESSURE GPRESSURE VOLUME PRESSAVG GPRESSAVG
ENERGY: 175000 0.5644 3.6930 2.1492 0.0000 -21360.6413 3520.1201 0.0000 0.0000 1720.8463 -16113.2682 180.0539 -17834.1146 -16110.3358 180.0539 544.4459 612.1228 46862.8727 544.4459 612.1228
ENERGY: 185000 2.4993 3.6808 1.5038 0.0000 -20295.2772 3045.7988 0.0000 0.0000 2049.2650 -15192.5294 214.4167 -17241.7944 -15186.9998 207.6885 -513.5651 -474.0160 47239.2334 2.2723 2.3248
ENERGY: 195000 2.8051 2.7321 1.4908 0.0000 -20357.3231 3148.6962 0.0000 0.0000 2022.8976 -15178.7012 211.6578 -17201.5989 -15173.9416 208.9968 -39.9726 72.6062 47166.7938 -2.0290 -1.9541
ENERGY: 205000 4.2912 7.9439 2.7751 0.0000 -20065.1931 2949.5715 0.0000 0.0000 1996.7592 -15103.8522 208.9230 -17100.6114 -15099.0654 209.9605 -877.2698 -813.7340 47235.5454 2.3837 1.9227
ENERGY: 215000 2.2611 5.4699 1.1494 0.0000 -20532.4434 3296.3226 0.0000 0.0000 2065.2654 -15161.9751 216.0908 -17227.2405 -15158.7620 209.9091 967.0426 1037.4207 46339.9342 1.3432 1.6521
ENERGY: 225000 5.8906 4.4758 4.5812 0.0000 -20091.0292 3052.4258 0.0000 0.0000 1925.7205 -15097.9352 201.4901 -17023.6557 -15090.9055 209.9422 79.4565 132.1704 46646.1250 6.7442 6.3765
TCL: Running 50000 steps at 240 kelvin.
TCL: Setting parameter langevinTemp to 240
TCL: Running for 50000 steps
ETITLE: TS BOND ANGLE DIHED IMPRP ELECT VDW BOUNDARY MISC KINETIC TOTAL TEMP POTENTIAL TOTAL3 TEMPAVG PRESSURE GPRESSURE VOLUME PRESSAVG GPRESSAVG
ENERGY: 225000 5.8906 4.4758 4.5812 0.0000 -20091.0292 3052.4258 0.0000 0.0000 1924.7230 -15098.9328 201.3857 -17023.6557 -15095.1692 201.3857 49.1060 132.9097 46646.1250 49.1060 132.9097
ENERGY: 235000 4.7879 3.0090 1.9945 0.0000 -19268.7375 2783.0969 0.0000 0.0000 2290.6439 -14185.2054 239.6724 -16475.8493 -14182.6227 239.7778 -384.9436 -314.0591 47640.2815 5.7918 5.6233
ENERGY: 245000 2.6912 6.6244 4.5794 0.0000 -19122.9983 2722.6090 0.0000 0.0000 2332.7221 -14053.7722 244.0751 -16386.4943 -14046.8950 240.2328 -446.1075 -357.0063 47273.3811 -1.0830 -1.5802
ENERGY: 255000 2.5818 4.0845 2.9667 0.0000 -19392.9438 2910.6240 0.0000 0.0000 2297.5470 -14175.1398 240.3947 -16472.6868 -14170.5205 239.6999 416.0909 520.8867 47428.8702 1.5679 2.0701
ENERGY: 265000 3.4700 3.2422 6.9078 0.0000 -19127.5132 2745.4882 0.0000 0.0000 2305.4566 -14062.9484 241.2223 -16368.4050 -14055.4688 240.3847 -126.3211 -50.8054 47133.3959 4.8074 4.5828
ENERGY: 275000 3.5606 3.1961 2.5802 0.0000 -19173.7733 2771.7489 0.0000 0.0000 2332.7568 -14059.9306 244.0787 -16392.6874 -14053.2189 241.2712 -63.5427 15.3346 47180.1254 2.1762 2.6952
TCL: Running 50000 steps at 270 kelvin.
TCL: Setting parameter langevinTemp to 270
TCL: Running for 50000 steps
ETITLE: TS BOND ANGLE DIHED IMPRP ELECT VDW BOUNDARY MISC KINETIC TOTAL TEMP POTENTIAL TOTAL3 TEMPAVG PRESSURE GPRESSURE VOLUME PRESSAVG GPRESSAVG
ENERGY: 275000 3.5606 3.1961 2.5802 0.0000 -19173.7733 2771.7489 0.0000 0.0000 2331.5796 -14061.1078 243.9555 -16392.6874 -14057.3454 243.9555 -73.8819 16.0958 47180.1254 -73.8819 16.0958
ENERGY: 285000 5.5926 5.9045 1.4419 0.0000 -18327.7007 2616.9038 0.0000 0.0000 2525.1044 -13172.7534 264.2042 -15697.8578 -13168.1764 271.4292 327.9587 377.0596 48055.2915 0.6565 0.3079
ENERGY: 295000 5.2675 8.2072 3.4336 0.0000 -18302.7086 2530.2311 0.0000 0.0000 2553.3989 -13202.1704 267.1647 -15755.5693 -13195.1902 269.9619 -523.5407 -439.0843 48692.2864 4.9910 4.7701
ENERGY: 305000 1.4015 5.0126 5.2805 0.0000 -18450.5667 2649.8973 0.0000 0.0000 2610.2212 -13178.7536 273.1101 -15788.9748 -13175.2179 268.8559 420.2271 522.3725 48157.0107 0.0149 -0.1098
ENERGY: 315000 2.7601 4.0954 2.2406 0.0000 -18401.2146 2577.3807 0.0000 0.0000 2568.5760 -13246.1617 268.7527 -15814.7377 -13240.2731 269.7531 185.1624 215.3404 48119.6706 0.4572 0.0336
ENERGY: 325000 1.8583 8.4686 3.6125 0.0000 -18246.7335 2506.7800 0.0000 0.0000 2535.9421 -13190.0720 265.3382 -15726.0141 -13185.0843 270.4541 -498.0409 -416.5365 48910.9198 7.8766 8.0745
TCL: Running 1000000 steps at 300 kelvin.
TCL: Setting parameter langevinTemp to 300
TCL: Running for 1000000 steps
ETITLE: TS BOND ANGLE DIHED IMPRP ELECT VDW BOUNDARY MISC KINETIC TOTAL TEMP POTENTIAL TOTAL3 TEMPAVG PRESSURE GPRESSURE VOLUME PRESSAVG GPRESSAVG
ENERGY: 325000 1.8583 8.4686 3.6125 0.0000 -18246.7335 2506.7800 0.0000 0.0000 2534.6346 -13191.3795 265.2014 -15726.0141 -13186.6198 265.2014 -507.1838 -416.4257 48910.9198 -507.1838 -416.4257
ENERGY: 525000 4.5173 3.8736 4.3588 0.0000 -17390.5041 2321.5142 0.0000 0.0000 2815.4486 -12240.7917 294.5833 -15056.2402 -12234.0434 299.9506 -86.0805 19.5408 49258.8786 6.6695 6.3014
ENERGY: 725000 2.0926 6.3193 4.1174 0.0000 -17238.8080 2250.1246 0.0000 0.0000 2884.3279 -12091.8262 301.7902 -14976.1541 -12083.9793 299.2584 -405.7026 -315.2124 49760.6413 0.0880 0.8725
ENERGY: 925000 3.0334 3.0647 2.2048 0.0000 -17322.2572 2243.6322 0.0000 0.0000 2857.8787 -12212.4434 299.0228 -15070.3221 -12204.0429 301.1596 -339.7666 -231.1392 49025.7598 1.2193 0.7022
ENERGY: 1125000 2.4233 3.1155 3.7543 0.0000 -17572.7266 2442.3035 0.0000 0.0000 2941.4157 -12179.7143 307.7633 -15121.1300 -12173.0223 300.6688 510.8136 603.5280 49080.7808 4.5924 4.9794
ENERGY: 1325000 1.1241 5.5056 2.7546 0.0000 -17431.4863 2350.7512 0.0000 0.0000 2812.4874 -12258.8634 294.2734 -15071.3508 -12251.8064 302.0173 -95.1351 -31.1835 49644.2233 6.4777 6.2844
TCL: Exiting due to exit command.
