Info: SIMULATION PARAMETERS:
Info: TIMESTEP               2
Info: NUMBER OF STEPS        0
Info: STEPS PER CYCLE        10
Info: PERIODIC CELL BASIS 1  36.281 0 0
Info: PERIODIC CELL BASIS 2  0 34.1 0
Info: PERIODIC CELL BASIS 3  0 0 36.199
Info: PERIODIC CELL CENTER   0 0 0
Info: WRAPPING WATERS AROUND PERIODIC BOUNDARIES ON OUTPUT.
Info: WRAPPING ALL CLUSTERS AROUND PERIODIC BOUNDARIES ON OUTPUT.
Info: FIRST LDB TIMESTEP     50
Info: LAST LDB TIMESTEP     -1
Info: HOM BACKGROUND SCALING 1
Info: PME BACKGROUND SCALING 1
Info: MIN ATOMS PER PATCH    40
Info: EMPTY PATCH LOAD       40 ATOMS
Info: INITIAL TEMPERATURE    300
Info: CENTER OF MASS MOVING INITIALLY? NO
Info: DIELECTRIC             1
Info: EXCLUDE                SCALED ONE-FOUR
Info: 1-4 ELECTROSTATICS SCALED BY 0.833333
Info: MODIFIED 1-4 VDW PARAMETERS WILL BE USED
Info: DCD FILENAME           mobley_1855337_equil.dcd
Info: DCD FREQUENCY          100000
Info: DCD FIRST STEP         100000
Info: DCD FILE WILL CONTAIN UNIT CELL DATA
Info: XST FILENAME           mobley_1855337_equil.xst
Info: XST FREQUENCY          100000
Info: NO VELOCITY DCD OUTPUT
Info: NO FORCE DCD OUTPUT
Info: OUTPUT FILENAME        mobley_1855337_equil
Info: BINARY OUTPUT FILES WILL BE USED
Info: RESTART FILENAME       mobley_1855337_equil.restart
Info: RESTART FREQUENCY      100000
Info: BINARY RESTART FILES WILL BE USED
Info: CUTOFF                 9
Info: PAIRLIST DISTANCE      11
Info: PAIRLIST SHRINK RATE   0.01
Info: PAIRLIST GROW RATE     0.01
Info: PAIRLIST TRIGGER       0.3
Info: PAIRLISTS PER CYCLE    2
Info: PAIRLISTS ENABLED
Info: MARGIN                 8
Info: HYDROGEN GROUP CUTOFF  2.5
Info: PATCH DIMENSION        21.5
Info: ENERGY OUTPUT STEPS    100000
Info: ENERGY EVALUATION STEPS    100000
Info: OUTPUT ENERGY PRECISION 4
Info: CROSSTERM ENERGY INCLUDED IN DIHEDRAL
Info: TIMING OUTPUT STEPS    1000000
Info: PRESSURE OUTPUT STEPS  100000
Info: LANGEVIN DYNAMICS ACTIVE
Info: LANGEVIN TEMPERATURE   30
Info: LANGEVIN USING BBK INTEGRATOR
Info: LANGEVIN DAMPING COEFFICIENT IS 1 INVERSE PS
Info: LANGEVIN DYNAMICS APPLIED TO HYDROGENS
Info: LANGEVIN PISTON PRESSURE CONTROL ACTIVE
Info:        TARGET PRESSURE IS 1.01325 BAR
Info:     OSCILLATION PERIOD IS 50 FS
Info:             DECAY TIME IS 25 FS
Info:     PISTON TEMPERATURE IS 300 K
Info:       PRESSURE CONTROL IS GROUP-BASED
Info:    INITIAL STRAIN RATE IS 0 0 0
Info:       CELL FLUCTUATION IS ISOTROPIC
Info: PARTICLE MESH EWALD (PME) ACTIVE
Info: PME TOLERANCE               1e-06
Info: PME EWALD COEFFICIENT       0.348832
Info: PME INTERPOLATION ORDER     4
Info: PME GRID DIMENSIONS         40 36 40
Info: PME MAXIMUM GRID SPACING    1
Info: FULL ELECTROSTATIC EVALUATION FREQUENCY      2
Info: USING VERLET I (r-RESPA) MTS SCHEME.
Info: C1 SPLITTING OF LONG RANGE ELECTROSTATICS
Info: PLACING ATOMS IN PATCHES BY HYDROGEN GROUPS
Info: RIGID BONDS TO HYDROGEN : ALL
Info:         ERROR TOLERANCE : 1e-08
Info:          MAX ITERATIONS : 100
Info: RIGID WATER USING SETTLE ALGORITHM
Info: RANDOM NUMBER SEED     1742014513
Info: USE HYDROGEN BONDS?    NO
Info: Using AMBER format force field!
Info: AMBER PARM FILE        mobley_1855337.prmtop
Info: COORDINATE PDB         mobley_1855337.pdb
Info: Exclusions will be read from PARM file!
Info: SCNB (VDW SCALING)     2
Info: USING ARITHMETIC MEAN TO COMBINE L-J SIGMA PARAMETERS
Info: BINARY COORDINATES     mobley_1855337_min.coor
Info: SUMMARY OF PARAMETERS:
Info: 5 BONDS
Info: 3 ANGLES
Info:   3 HARMONIC
Info:   0 COSINE-BASED
Info: 2 DIHEDRAL
Info: 0 IMPROPER
Info: 0 CROSSTERM
Info: 0 VDW
Info: 15 VDW_PAIRS
Info: 0 NBTHOLE_PAIRS
Info: STRUCTURE SUMMARY:
Info: 2982 ATOMS
Info: 2982 BONDS
Info: 18 ANGLES
Info: 30 DIHEDRALS
Info: 0 IMPROPERS
Info: 0 CROSSTERMS
Info: 3021 EXCLUSIONS
Info: 2972 RIGID BONDS
Info: 5974 DEGREES OF FREEDOM
Info: 1000 HYDROGEN GROUPS
Info: 3 ATOMS IN LARGEST HYDROGEN GROUP
Info: 1000 MIGRATION GROUPS
Info: 3 ATOMS IN LARGEST MIGRATION GROUP
Info: TOTAL MASS = 18051.7 amu
Info: TOTAL CHARGE = 0.000199986 e
Info: MASS DENSITY = 0.669341 g/cm^3
Info: ATOM DENSITY = 0.0665852 atoms/A^3
Info: ADDED 0 IMPLICIT EXCLUSIONS
Info: NONBONDED TABLE R-SQUARED SPACING: 0.0625
Info: NONBONDED TABLE SIZE: 705 POINTS
Info: REMOVING COM VELOCITY 0.0503999 -0.174798 -0.0235403
TCL: Running for 100000 steps
ETITLE: TS BOND ANGLE DIHED IMPRP ELECT VDW BOUNDARY MISC KINETIC TOTAL TEMP POTENTIAL TOTAL3 TEMPAVG PRESSURE GPRESSURE VOLUME PRESSAVG GPRESSAVG
ENERGY: 0 0.1939 0.1412 0.0137 0.0000 -13810.1462 2431.8174 0.0000 0.0000 1754.8075 -9623.1727 295.6342 -11377.9802 -9622.8650 295.6342 531.9678 565.3049 44784.7548 531.9678 565.3049
ENERGY: 100000 0.5035 0.4359 0.2030 0.0000 -14245.7423 2476.9994 0.0000 0.0000 176.9214 -11590.6789 29.8061 -11767.6004 -11590.2496 30.8824 -92.6436 -10.6427 30287.6966 4.1626 4.0973
TCL: Running 100000 steps at 60 kelvin.
TCL: Setting parameter langevinTemp to 60
TCL: Running for 100000 steps
ETITLE: TS BOND ANGLE DIHED IMPRP ELECT VDW BOUNDARY MISC KINETIC TOTAL TEMP POTENTIAL TOTAL3 TEMPAVG PRESSURE GPRESSURE VOLUME PRESSAVG GPRESSAVG
ENERGY: 100000 0.5035 0.4359 0.2030 0.0000 -14245.7423 2476.9994 0.0000 0.0000 176.8329 -11590.7675 29.7912 -11767.6004 -11590.5038 29.7912 -76.4463 -10.7117 30287.6966 -76.4463 -10.7117
ENERGY: 200000 0.2479 0.4048 0.3773 0.0000 -14190.5821 2398.8035 0.0000 0.0000 349.7005 -11441.0482 58.9144 -11790.7486 -11439.7772 60.1240 -506.9032 -451.1429 29686.1378 2.9141 2.9453
TCL: Running 100000 steps at 90 kelvin.
TCL: Setting parameter langevinTemp to 90
TCL: Running for 100000 steps
ETITLE: TS BOND ANGLE DIHED IMPRP ELECT VDW BOUNDARY MISC KINETIC TOTAL TEMP POTENTIAL TOTAL3 TEMPAVG PRESSURE GPRESSURE VOLUME PRESSAVG GPRESSAVG
ENERGY: 200000 0.2479 0.4048 0.3773 0.0000 -14190.5821 2398.8035 0.0000 0.0000 349.5258 -11441.2228 58.8850 -11790.7486 -11440.4862 58.8850 -501.5436 -450.6134 29686.1378 -501.5436 -450.6134
ENERGY: 300000 0.6406 1.0901 1.2337 0.0000 -14257.4198 2573.4021 0.0000 0.0000 543.6052 -11137.4481 91.5817 -11681.0533 -11136.1513 89.8905 1313.7874 1388.2043 29388.7607 3.6270 3.5951
TCL: Running 100000 steps at 120 kelvin.
TCL: Setting parameter langevinTemp to 120
TCL: Running for 100000 steps
ETITLE: TS BOND ANGLE DIHED IMPRP ELECT VDW BOUNDARY MISC KINETIC TOTAL TEMP POTENTIAL TOTAL3 TEMPAVG PRESSURE GPRESSURE VOLUME PRESSAVG GPRESSAVG
ENERGY: 300000 0.6406 1.0901 1.2337 0.0000 -14257.4198 2573.4021 0.0000 0.0000 543.3435 -11137.7098 91.5376 -11681.0533 -11136.6219 91.5376 1332.7415 1388.2782 29388.7607 1332.7415 1388.2782
ENERGY: 400000 0.7103 2.1183 0.4905 0.0000 -13838.2804 2237.0532 0.0000 0.0000 711.2043 -10886.7038 119.8173 -11597.9081 -10884.4701 119.8396 -1113.3669 -1068.0740 29566.2418 4.3103 4.2660
TCL: Running 100000 steps at 150 kelvin.
TCL: Setting parameter langevinTemp to 150
TCL: Running for 100000 steps
ETITLE: TS BOND ANGLE DIHED IMPRP ELECT VDW BOUNDARY MISC KINETIC TOTAL TEMP POTENTIAL TOTAL3 TEMPAVG PRESSURE GPRESSURE VOLUME PRESSAVG GPRESSAVG
ENERGY: 400000 0.7103 2.1183 0.4905 0.0000 -13838.2804 2237.0532 0.0000 0.0000 710.8334 -10887.0747 119.7548 -11597.9081 -10885.1639 119.7548 -1115.3345 -1067.9489 29566.2418 -1115.3345 -1067.9489
ENERGY: 500000 1.5658 1.6921 1.2592 0.0000 -13797.7893 2368.1992 0.0000 0.0000 896.9352 -10528.1378 151.1076 -11425.0730 -10525.5200 150.0103 863.7334 947.3725 28897.6616 3.5682 3.6065
TCL: Running 100000 steps at 180 kelvin.
TCL: Setting parameter langevinTemp to 180
TCL: Running for 100000 steps
ETITLE: TS BOND ANGLE DIHED IMPRP ELECT VDW BOUNDARY MISC KINETIC TOTAL TEMP POTENTIAL TOTAL3 TEMPAVG PRESSURE GPRESSURE VOLUME PRESSAVG GPRESSAVG
ENERGY: 500000 1.5658 1.6921 1.2592 0.0000 -13797.7893 2368.1992 0.0000 0.0000 896.5005 -10528.5725 151.0343 -11425.0730 -10527.0869 151.0343 892.6169 947.4526 28897.6616 892.6169 947.4526
ENERGY: 600000 1.6601 1.7116 1.0908 0.0000 -13066.0824 1955.5484 0.0000 0.0000 1060.7718 -10045.2997 178.7093 -11106.0714 -10042.8003 179.5394 -1666.5196 -1618.3307 29681.3391 3.5989 3.6832
TCL: Running 100000 steps at 210 kelvin.
TCL: Setting parameter langevinTemp to 210
TCL: Running for 100000 steps
ETITLE: TS BOND ANGLE DIHED IMPRP ELECT VDW BOUNDARY MISC KINETIC TOTAL TEMP POTENTIAL TOTAL3 TEMPAVG PRESSURE GPRESSURE VOLUME PRESSAVG GPRESSAVG
ENERGY: 600000 1.6601 1.7116 1.0908 0.0000 -13066.0824 1955.5484 0.0000 0.0000 1060.2289 -10045.8425 178.6178 -11106.0714 -10043.5421 178.6178 -1681.7657 -1619.6888 29681.3391 -1681.7657 -1619.6888
ENERGY: 700000 1.6406 2.0126 1.8405 0.0000 -12601.3275 1995.0627 0.0000 0.0000 1242.3241 -9358.4470 209.2956 -10600.7711 -9355.1245 209.8392 771.3675 788.3794 29231.0860 3.2376 3.4778
TCL: Running 100000 steps at 240 kelvin.
TCL: Setting parameter langevinTemp to 240
TCL: Running for 100000 steps
ETITLE: TS BOND ANGLE DIHED IMPRP ELECT VDW BOUNDARY MISC KINETIC TOTAL TEMP POTENTIAL TOTAL3 TEMPAVG PRESSURE GPRESSURE VOLUME PRESSAVG GPRESSAVG
ENERGY: 700000 1.6406 2.0126 1.8405 0.0000 -12601.3275 1995.0627 0.0000 0.0000 1241.7161 -9359.0550 209.1932 -10600.7711 -9356.7834 209.1932 719.3104 788.1610 29231.0860 719.3104 788.1610
ENERGY: 800000 2.7807 2.2229 2.4768 0.0000 -11793.7403 1678.2544 0.0000 0.0000 1461.7349 -8646.2706 246.2599 -10108.0055 -8642.6552 239.6273 -129.7846 -51.8807 29522.9698 4.4590 4.3526
TCL: Running 100000 steps at 270 kelvin.
TCL: Setting parameter langevinTemp to 270
TCL: Running for 100000 steps
ETITLE: TS BOND ANGLE DIHED IMPRP ELECT VDW BOUNDARY MISC KINETIC TOTAL TEMP POTENTIAL TOTAL3 TEMPAVG PRESSURE GPRESSURE VOLUME PRESSAVG GPRESSAVG
ENERGY: 800000 2.7807 2.2229 2.4768 0.0000 -11793.7403 1678.2544 0.0000 0.0000 1461.0609 -8646.9446 246.1464 -10108.0055 -8644.6276 246.1464 -144.0180 -53.2529 29522.9698 -144.0180 -53.2529
ENERGY: 900000 4.8148 5.1002 1.8639 0.0000 -11226.3467 1524.5738 0.0000 0.0000 1585.9071 -8104.0869 267.1794 -9689.9940 -8099.8279 270.2341 -527.2703 -393.6793 30584.6679 3.9936 3.9324
TCL: Running 1000000 steps at 300 kelvin.
TCL: Setting parameter langevinTemp to 300
TCL: Running for 1000000 steps
ETITLE: TS BOND ANGLE DIHED IMPRP ELECT VDW BOUNDARY MISC KINETIC TOTAL TEMP POTENTIAL TOTAL3 TEMPAVG PRESSURE GPRESSURE VOLUME PRESSAVG GPRESSAVG
ENERGY: 900000 4.8148 5.1002 1.8639 0.0000 -11226.3467 1524.5738 0.0000 0.0000 1585.0757 -8104.9183 267.0393 -9689.9940 -8103.1260 267.0393 -486.5748 -391.6016 30584.6679 -486.5748 -391.6016
ENERGY: 1100000 3.6907 2.1447 3.5342 0.0000 -10918.4890 1498.3355 0.0000 0.0000 1786.3685 -7624.4155 300.9513 -9410.7839 -7621.2105 299.9910 381.5524 431.3306 30400.6877 2.7237 2.6746
ENERGY: 1300000 4.3056 2.4492 3.7961 0.0000 -10895.7749 1543.9965 0.0000 0.0000 1777.4950 -7563.7324 299.4564 -9341.2274 -7561.0066 299.4747 836.1969 908.6496 30680.1206 2.8418 2.8232
ENERGY: 1500000 3.2796 2.2685 1.7089 0.0000 -10782.2020 1411.4564 0.0000 0.0000 1785.8636 -7577.6250 300.8662 -9363.4886 -7574.3441 299.9610 -631.1091 -559.2173 31615.1855 2.7789 2.6328
ENERGY: 1700000 3.7984 1.5974 3.1833 0.0000 -10809.7722 1381.7615 0.0000 0.0000 1756.5285 -7662.9032 295.9241 -9419.4317 -7660.4381 299.7336 -803.4864 -705.0793 30930.7427 4.0343 4.1420
ENERGY: 1900000 2.4751 2.6690 3.6956 0.0000 -10852.9356 1423.7510 0.0000 0.0000 1743.0851 -7677.2598 293.6593 -9420.3449 -7672.4828 300.8196 -417.1696 -330.2818 30961.5521 2.8431 2.7393
TCL: Exiting due to exit command.
