Info: SIMULATION PARAMETERS:
Info: TIMESTEP               2
Info: NUMBER OF STEPS        0
Info: STEPS PER CYCLE        10
Info: PERIODIC CELL BASIS 1  40.176 0 0
Info: PERIODIC CELL BASIS 2  0 41.432 0
Info: PERIODIC CELL BASIS 3  0 0 39.119
Info: PERIODIC CELL CENTER   0 0 0
Info: WRAPPING WATERS AROUND PERIODIC BOUNDARIES ON OUTPUT.
Info: WRAPPING ALL CLUSTERS AROUND PERIODIC BOUNDARIES ON OUTPUT.
Info: FIRST LDB TIMESTEP     50
Info: LAST LDB TIMESTEP     -1
Info: HOM BACKGROUND SCALING 1
Info: PME BACKGROUND SCALING 1
Info: MIN ATOMS PER PATCH    40
Info: EMPTY PATCH LOAD       40 ATOMS
Info: INITIAL TEMPERATURE    300
Info: CENTER OF MASS MOVING INITIALLY? NO
Info: DIELECTRIC             1
Info: EXCLUDE                SCALED ONE-FOUR
Info: 1-4 ELECTROSTATICS SCALED BY 0.833333
Info: MODIFIED 1-4 VDW PARAMETERS WILL BE USED
Info: DCD FILENAME           mobley_8221999_min.dcd
Info: DCD FREQUENCY          5000
Info: DCD FIRST STEP         5000
Info: DCD FILE WILL CONTAIN UNIT CELL DATA
Info: XST FILENAME           mobley_8221999_min.xst
Info: XST FREQUENCY          5000
Info: NO VELOCITY DCD OUTPUT
Info: NO FORCE DCD OUTPUT
Info: OUTPUT FILENAME        mobley_8221999_min
Info: BINARY OUTPUT FILES WILL BE USED
Info: RESTART FILENAME       mobley_8221999_min.restart
Info: RESTART FREQUENCY      5000
Info: BINARY RESTART FILES WILL BE USED
Info: CUTOFF                 9
Info: PAIRLIST DISTANCE      11
Info: PAIRLIST SHRINK RATE   0.01
Info: PAIRLIST GROW RATE     0.01
Info: PAIRLIST TRIGGER       0.3
Info: PAIRLISTS PER CYCLE    2
Info: PAIRLISTS ENABLED
Info: MARGIN                 8
Info: HYDROGEN GROUP CUTOFF  2.5
Info: PATCH DIMENSION        21.5
Info: ENERGY OUTPUT STEPS    5000
Info: ENERGY EVALUATION STEPS    5000
Info: OUTPUT ENERGY PRECISION 4
Info: CROSSTERM ENERGY INCLUDED IN DIHEDRAL
Info: TIMING OUTPUT STEPS    50000
Info: PRESSURE OUTPUT STEPS  5000
Info: LANGEVIN DYNAMICS ACTIVE
Info: LANGEVIN TEMPERATURE   300
Info: LANGEVIN USING BBK INTEGRATOR
Info: LANGEVIN DAMPING COEFFICIENT IS 1 INVERSE PS
Info: LANGEVIN DYNAMICS APPLIED TO HYDROGENS
Info: LANGEVIN PISTON PRESSURE CONTROL ACTIVE
Info:        TARGET PRESSURE IS 1.01325 BAR
Info:     OSCILLATION PERIOD IS 50 FS
Info:             DECAY TIME IS 25 FS
Info:     PISTON TEMPERATURE IS 300 K
Info:       PRESSURE CONTROL IS GROUP-BASED
Info:    INITIAL STRAIN RATE IS 0 0 0
Info:       CELL FLUCTUATION IS ISOTROPIC
Info: PARTICLE MESH EWALD (PME) ACTIVE
Info: PME TOLERANCE               1e-06
Info: PME EWALD COEFFICIENT       0.348832
Info: PME INTERPOLATION ORDER     4
Info: PME GRID DIMENSIONS         44 44 40
Info: PME MAXIMUM GRID SPACING    1
Info: FULL ELECTROSTATIC EVALUATION FREQUENCY      2
Info: USING VERLET I (r-RESPA) MTS SCHEME.
Info: C1 SPLITTING OF LONG RANGE ELECTROSTATICS
Info: PLACING ATOMS IN PATCHES BY HYDROGEN GROUPS
Info: RIGID BONDS TO HYDROGEN : ALL
Info:         ERROR TOLERANCE : 1e-08
Info:          MAX ITERATIONS : 100
Info: RIGID WATER USING SETTLE ALGORITHM
Info: RANDOM NUMBER SEED     1741391490
Info: USE HYDROGEN BONDS?    NO
Info: Using AMBER format force field!
Info: AMBER PARM FILE        mobley_8221999.prmtop
Info: COORDINATE PDB         mobley_8221999.pdb
Info: Exclusions will be read from PARM file!
Info: SCNB (VDW SCALING)     2
Info: USING ARITHMETIC MEAN TO COMBINE L-J SIGMA PARAMETERS
Info: SUMMARY OF PARAMETERS:
Info: 6 BONDS
Info: 6 ANGLES
Info:   6 HARMONIC
Info:   0 COSINE-BASED
Info: 4 DIHEDRAL
Info: 0 IMPROPER
Info: 0 CROSSTERM
Info: 0 VDW
Info: 21 VDW_PAIRS
Info: 0 NBTHOLE_PAIRS
Info: STRUCTURE SUMMARY:
Info: 4674 ATOMS
Info: 4673 BONDS
Info: 19 ANGLES
Info: 21 DIHEDRALS
Info: 0 IMPROPERS
Info: 0 CROSSTERMS
Info: 4713 EXCLUSIONS
Info: 4669 RIGID BONDS
Info: 9353 DEGREES OF FREEDOM
Info: 1559 HYDROGEN GROUPS
Info: 4 ATOMS IN LARGEST HYDROGEN GROUP
Info: 1559 MIGRATION GROUPS
Info: 4 ATOMS IN LARGEST MIGRATION GROUP
Info: TOTAL MASS = 28066 amu
Info: TOTAL CHARGE = -0.000200013 e
Info: MASS DENSITY = 0.71573 g/cm^3
Info: ATOM DENSITY = 0.0717792 atoms/A^3
Info: ADDED 0 IMPLICIT EXCLUSIONS
Info: NONBONDED TABLE R-SQUARED SPACING: 0.0625
Info: NONBONDED TABLE SIZE: 705 POINTS
Info: REMOVING COM VELOCITY 0.0729376 -0.0475656 -0.059233
TCL: Minimizing for 2000 steps
ETITLE: TS BOND ANGLE DIHED IMPRP ELECT VDW BOUNDARY MISC KINETIC TOTAL TEMP POTENTIAL TOTAL3 TEMPAVG PRESSURE GPRESSURE VOLUME PRESSAVG GPRESSAVG
ENERGY: 0 0.0771 0.1506 0.0071 0.0000 -14448.9799 1604.0506 0.0000 0.0000 0.0000 -12844.6946 0.0000 -12844.6946 -12844.6946 0.0000 10766.1191 -15798.9616 65116.3933 10766.1191 -15798.9616
ENERGY: 400 1.2751 0.5174 0.0257 0.0000 -19019.3053 2587.3228 0.0000 0.0000 0.0000 -16430.1644 0.0000 -16430.1644 -16430.1644 0.0000 14378.6711 14512.5868 65116.3933 14378.6711 14512.5868
ENERGY: 800 1.1734 0.5999 0.0082 0.0000 -20177.1957 3130.0176 0.0000 0.0000 0.0000 -17045.3965 0.0000 -17045.3965 -17045.3965 0.0000 17035.1524 17142.4963 65116.3933 17035.1524 17142.4963
ENERGY: 1200 0.7018 0.1213 0.0492 0.0000 -20789.2848 3417.6498 0.0000 0.0000 0.0000 -17370.7627 0.0000 -17370.7627 -17370.7627 0.0000 18475.1265 18577.6616 65116.3933 18475.1265 18577.6616
ENERGY: 1600 0.2288 0.2236 0.0258 0.0000 -21061.3674 3525.2593 0.0000 0.0000 0.0000 -17535.6299 0.0000 -17535.6299 -17535.6299 0.0000 18996.4368 19105.5097 65116.3933 18996.4368 19105.5097
ENERGY: 2000 0.2391 0.1729 0.0161 0.0000 -21262.2297 3620.5200 0.0000 0.0000 0.0000 -17641.2816 0.0000 -17641.2816 -17641.2816 0.0000 19483.9796 19591.5358 65116.3933 19483.9796 19591.5358
TCL: Exiting due to exit command.
Info: NAMD 3.0.1 for Linux-x86_64-multicore
Info: Please visit http://www.ks.uiuc.edu/Research/namd/
Info: for updates, documentation, and support information.
Info: Please cite Phillips et al., J. Chem. Phys. 153:044130 (2020) doi:10.1063/5.0014475
Info: in all publications reporting results obtained with NAMD.
Info: Based on Charm++/Converse 80000 for multicore-linux-x86_64-gcc
Info: Built Mon Oct 14 11:11:06 CDT 2024 by dhardy on athine.ks.uiuc.edu
Info: 1 NAMD  3.0.1  Linux-x86_64-multicore  16    k010  z5358697
Info: Running on 16 processors, 1 nodes, 1 physical nodes.
Info: CPU topology information available.
Info: Charm++/Converse parallel runtime startup completed at 0.00903816 s
Info: 1043.45 MB of memory in use based on /proc/self/stat
Info: Configuration file is mobley_8221999_equil.namd
Info: Working in the current directory /srv/scratch/z5358697/prod_prep_10/8221999
TCL: Running 25000 steps at 30 kelvin.
TCL: Suspending until startup complete.
Info: SIMULATION PARAMETERS:
Info: TIMESTEP               2
Info: NUMBER OF STEPS        0
Info: STEPS PER CYCLE        10
Info: PERIODIC CELL BASIS 1  40.176 0 0
Info: PERIODIC CELL BASIS 2  0 41.432 0
Info: PERIODIC CELL BASIS 3  0 0 39.119
Info: PERIODIC CELL CENTER   0 0 0
Info: WRAPPING WATERS AROUND PERIODIC BOUNDARIES ON OUTPUT.
Info: WRAPPING ALL CLUSTERS AROUND PERIODIC BOUNDARIES ON OUTPUT.
Info: FIRST LDB TIMESTEP     50
Info: LAST LDB TIMESTEP     -1
Info: HOM BACKGROUND SCALING 1
Info: PME BACKGROUND SCALING 1
Info: MIN ATOMS PER PATCH    40
Info: EMPTY PATCH LOAD       40 ATOMS
Info: INITIAL TEMPERATURE    300
Info: CENTER OF MASS MOVING INITIALLY? NO
Info: DIELECTRIC             1
Info: EXCLUDE                SCALED ONE-FOUR
Info: 1-4 ELECTROSTATICS SCALED BY 0.833333
Info: MODIFIED 1-4 VDW PARAMETERS WILL BE USED
Info: DCD FILENAME           mobley_8221999_equil.dcd
Info: DCD FREQUENCY          5000
Info: DCD FIRST STEP         5000
Info: DCD FILE WILL CONTAIN UNIT CELL DATA
Info: XST FILENAME           mobley_8221999_equil.xst
Info: XST FREQUENCY          5000
Info: NO VELOCITY DCD OUTPUT
Info: NO FORCE DCD OUTPUT
Info: OUTPUT FILENAME        mobley_8221999_equil
Info: BINARY OUTPUT FILES WILL BE USED
Info: RESTART FILENAME       mobley_8221999_equil.restart
Info: RESTART FREQUENCY      5000
Info: BINARY RESTART FILES WILL BE USED
Info: CUTOFF                 9
Info: PAIRLIST DISTANCE      11
Info: PAIRLIST SHRINK RATE   0.01
Info: PAIRLIST GROW RATE     0.01
Info: PAIRLIST TRIGGER       0.3
Info: PAIRLISTS PER CYCLE    2
Info: PAIRLISTS ENABLED
Info: MARGIN                 8
Info: HYDROGEN GROUP CUTOFF  2.5
Info: PATCH DIMENSION        21.5
Info: ENERGY OUTPUT STEPS    5000
Info: ENERGY EVALUATION STEPS    5000
Info: OUTPUT ENERGY PRECISION 4
Info: CROSSTERM ENERGY INCLUDED IN DIHEDRAL
Info: TIMING OUTPUT STEPS    50000
Info: PRESSURE OUTPUT STEPS  5000
Info: LANGEVIN DYNAMICS ACTIVE
Info: LANGEVIN TEMPERATURE   30
Info: LANGEVIN USING BBK INTEGRATOR
Info: LANGEVIN DAMPING COEFFICIENT IS 1 INVERSE PS
Info: LANGEVIN DYNAMICS APPLIED TO HYDROGENS
Info: LANGEVIN PISTON PRESSURE CONTROL ACTIVE
Info:        TARGET PRESSURE IS 1.01325 BAR
Info:     OSCILLATION PERIOD IS 50 FS
Info:             DECAY TIME IS 25 FS
Info:     PISTON TEMPERATURE IS 300 K
Info:       PRESSURE CONTROL IS GROUP-BASED
Info:    INITIAL STRAIN RATE IS 0 0 0
Info:       CELL FLUCTUATION IS ISOTROPIC
Info: PARTICLE MESH EWALD (PME) ACTIVE
Info: PME TOLERANCE               1e-06
Info: PME EWALD COEFFICIENT       0.348832
Info: PME INTERPOLATION ORDER     4
Info: PME GRID DIMENSIONS         44 44 40
Info: PME MAXIMUM GRID SPACING    1
Info: FULL ELECTROSTATIC EVALUATION FREQUENCY      2
Info: USING VERLET I (r-RESPA) MTS SCHEME.
Info: C1 SPLITTING OF LONG RANGE ELECTROSTATICS
Info: PLACING ATOMS IN PATCHES BY HYDROGEN GROUPS
Info: RIGID BONDS TO HYDROGEN : ALL
Info:         ERROR TOLERANCE : 1e-08
Info:          MAX ITERATIONS : 100
Info: RIGID WATER USING SETTLE ALGORITHM
Info: RANDOM NUMBER SEED     1741391509
Info: USE HYDROGEN BONDS?    NO
Info: Using AMBER format force field!
Info: AMBER PARM FILE        mobley_8221999.prmtop
Info: COORDINATE PDB         mobley_8221999.pdb
Info: Exclusions will be read from PARM file!
Info: SCNB (VDW SCALING)     2
Info: USING ARITHMETIC MEAN TO COMBINE L-J SIGMA PARAMETERS
Info: BINARY COORDINATES     mobley_8221999_min.coor
Info: SUMMARY OF PARAMETERS:
Info: 6 BONDS
Info: 6 ANGLES
Info:   6 HARMONIC
Info:   0 COSINE-BASED
Info: 4 DIHEDRAL
Info: 0 IMPROPER
Info: 0 CROSSTERM
Info: 0 VDW
Info: 21 VDW_PAIRS
Info: 0 NBTHOLE_PAIRS
Info: STRUCTURE SUMMARY:
Info: 4674 ATOMS
Info: 4673 BONDS
Info: 19 ANGLES
Info: 21 DIHEDRALS
Info: 0 IMPROPERS
Info: 0 CROSSTERMS
Info: 4713 EXCLUSIONS
Info: 4669 RIGID BONDS
Info: 9353 DEGREES OF FREEDOM
Info: 1559 HYDROGEN GROUPS
Info: 4 ATOMS IN LARGEST HYDROGEN GROUP
Info: 1559 MIGRATION GROUPS
Info: 4 ATOMS IN LARGEST MIGRATION GROUP
Info: TOTAL MASS = 28066 amu
Info: TOTAL CHARGE = -0.000200013 e
Info: MASS DENSITY = 0.71573 g/cm^3
Info: ATOM DENSITY = 0.0717792 atoms/A^3
Info: ADDED 0 IMPLICIT EXCLUSIONS
Info: NONBONDED TABLE R-SQUARED SPACING: 0.0625
Info: NONBONDED TABLE SIZE: 705 POINTS
Info: REMOVING COM VELOCITY -0.0180543 0.110071 0.0318588
TCL: Running for 25000 steps
ETITLE: TS BOND ANGLE DIHED IMPRP ELECT VDW BOUNDARY MISC KINETIC TOTAL TEMP POTENTIAL TOTAL3 TEMPAVG PRESSURE GPRESSURE VOLUME PRESSAVG GPRESSAVG
ENERGY: 0 0.2391 0.1729 0.0161 0.0000 -21262.2297 3620.5200 0.0000 0.0000 2767.2251 -14874.0565 297.7721 -17641.2816 -14873.4919 297.7721 -40.6778 6.0576 65116.3933 -40.6778 6.0576
ENERGY: 5000 0.0686 0.9328 0.2260 0.0000 -22492.1970 3887.3588 0.0000 0.0000 296.0464 -18307.5643 31.8566 -18603.6107 -18306.7366 48.4511 141.1241 176.0879 44447.5583 -1.3547 -1.4737
ENERGY: 10000 0.1493 0.5171 0.1939 0.0000 -22378.8946 3749.5644 0.0000 0.0000 278.1356 -18350.3341 29.9293 -18628.4697 -18349.5309 30.3568 -760.0847 -720.4101 44731.0645 2.0905 1.8512
ENERGY: 15000 0.0595 0.5789 0.3046 0.0000 -22364.5346 3725.3328 0.0000 0.0000 270.4551 -18367.8037 29.1028 -18638.2589 -18367.1367 30.1598 -892.1280 -837.3668 44666.6470 5.9829 5.9237
ENERGY: 20000 0.1199 0.7516 0.0506 0.0000 -22577.5024 3930.1332 0.0000 0.0000 282.8400 -18363.6070 30.4355 -18646.4470 -18362.8124 29.9825 228.3872 286.2461 44403.2108 6.7539 6.8417
ENERGY: 25000 0.2783 0.8725 0.0868 0.0000 -22459.2979 3811.3981 0.0000 0.0000 271.0209 -18375.6413 29.1637 -18646.6622 -18374.8317 30.1517 -468.8082 -413.0655 44568.7958 6.0640 5.9760
TCL: Running 25000 steps at 60 kelvin.
TCL: Setting parameter langevinTemp to 60
TCL: Running for 25000 steps
ETITLE: TS BOND ANGLE DIHED IMPRP ELECT VDW BOUNDARY MISC KINETIC TOTAL TEMP POTENTIAL TOTAL3 TEMPAVG PRESSURE GPRESSURE VOLUME PRESSAVG GPRESSAVG
ENERGY: 25000 0.2783 0.8725 0.0868 0.0000 -22459.2979 3811.3981 0.0000 0.0000 270.8819 -18375.7803 29.1487 -18646.6622 -18375.1763 29.1487 -468.7535 -413.0618 44568.7958 -468.7535 -413.0618
ENERGY: 30000 0.4035 1.0667 0.0510 0.0000 -22092.4975 3707.9293 0.0000 0.0000 544.5716 -17838.4755 58.5996 -18383.0470 -17836.9821 56.7968 -331.3390 -281.5108 44763.2630 7.3102 7.4703
ENERGY: 35000 0.5667 0.9259 0.2889 0.0000 -22154.2505 3743.8319 0.0000 0.0000 565.8048 -17842.8322 60.8844 -18408.6370 -17840.9656 60.1989 -110.0226 -68.0621 44676.6869 4.3034 4.4148
ENERGY: 40000 0.7627 2.1110 0.0831 0.0000 -22259.0268 3830.5368 0.0000 0.0000 552.5715 -17872.9617 59.4604 -18425.5332 -17871.7593 60.2688 397.1271 443.7085 44298.8070 -0.5064 -0.3794
ENERGY: 45000 0.3455 1.4387 0.0787 0.0000 -22098.7061 3627.6899 0.0000 0.0000 546.2729 -17922.8804 58.7826 -18469.1533 -17920.7909 60.4643 -877.6746 -831.5472 44774.3655 4.7771 5.1822
ENERGY: 50000 0.2169 1.4050 0.1387 0.0000 -22243.6369 3773.2559 0.0000 0.0000 554.1509 -17914.4695 59.6304 -18468.6204 -17912.6627 59.8895 -68.3507 -37.6906 44673.7456 3.2177 3.2184
TCL: Running 25000 steps at 90 kelvin.
TCL: Setting parameter langevinTemp to 90
TCL: Running for 25000 steps
ETITLE: TS BOND ANGLE DIHED IMPRP ELECT VDW BOUNDARY MISC KINETIC TOTAL TEMP POTENTIAL TOTAL3 TEMPAVG PRESSURE GPRESSURE VOLUME PRESSAVG GPRESSAVG
ENERGY: 50000 0.2169 1.4050 0.1387 0.0000 -22243.6369 3773.2559 0.0000 0.0000 553.8731 -17914.7473 59.6005 -18468.6204 -17913.3682 59.6005 -85.4778 -37.3269 44673.7456 -85.4778 -37.3269
ENERGY: 55000 0.0489 1.1776 0.0145 0.0000 -21870.7231 3644.6300 0.0000 0.0000 831.2605 -17393.5917 89.4492 -18224.8521 -17391.1993 86.9057 -165.1609 -128.5288 44912.8304 -0.3706 -0.4130
ENERGY: 60000 0.5707 1.4278 0.0496 0.0000 -21907.2254 3686.3349 0.0000 0.0000 845.1629 -17373.6795 90.9452 -18218.8424 -17371.6147 90.1951 -59.5920 -23.5667 45048.2259 4.4456 4.3224
ENERGY: 65000 0.1832 2.6590 0.2923 0.0000 -22186.4020 3931.7950 0.0000 0.0000 829.1848 -17422.2876 89.2259 -18251.4724 -17421.1497 90.6276 1272.1709 1320.1601 44610.9847 1.8056 2.0358
ENERGY: 70000 0.4638 2.4033 0.0556 0.0000 -21841.5074 3595.4306 0.0000 0.0000 858.6777 -17384.4763 92.3995 -18243.1540 -17382.8853 90.6563 -563.9886 -529.1681 45214.5229 2.7324 2.6938
ENERGY: 75000 0.0965 1.8377 0.1935 0.0000 -22105.2441 3831.8297 0.0000 0.0000 836.6680 -17434.6187 90.0311 -18271.2867 -17432.5430 90.0894 654.8757 711.3412 44795.7004 3.5963 3.5787
TCL: Running 25000 steps at 120 kelvin.
TCL: Setting parameter langevinTemp to 120
TCL: Running for 25000 steps
ETITLE: TS BOND ANGLE DIHED IMPRP ELECT VDW BOUNDARY MISC KINETIC TOTAL TEMP POTENTIAL TOTAL3 TEMPAVG PRESSURE GPRESSURE VOLUME PRESSAVG GPRESSAVG
ENERGY: 75000 0.0965 1.8377 0.1935 0.0000 -22105.2441 3831.8297 0.0000 0.0000 836.2537 -17435.0330 89.9865 -18271.2867 -17433.3956 89.9865 665.8467 711.6398 44795.7004 665.8467 711.6398
ENERGY: 80000 1.2015 1.7270 0.0379 0.0000 -21597.6373 3633.2513 0.0000 0.0000 1096.8394 -16864.5802 118.0273 -17961.4196 -16860.1821 117.0023 320.2295 364.8754 45049.3833 2.6363 2.2085
ENERGY: 85000 0.3062 2.7632 0.4951 0.0000 -21783.3686 3777.0598 0.0000 0.0000 1138.8918 -16863.8525 122.5524 -18002.7443 -16861.2402 120.4094 894.8931 945.7219 45093.5439 -4.3061 -4.6065
ENERGY: 90000 1.7438 1.6236 0.0812 0.0000 -21730.9477 3704.8478 0.0000 0.0000 1123.3337 -16899.3176 120.8783 -18022.6513 -16897.3594 119.3285 440.2756 499.8701 45258.7892 2.8309 2.2020
ENERGY: 95000 0.7808 1.9321 0.1503 0.0000 -21606.8593 3547.7158 0.0000 0.0000 1114.3223 -16941.9580 119.9086 -18056.2804 -16941.0320 120.0079 -528.3908 -461.3083 45601.2729 0.4202 0.2546
ENERGY: 100000 0.4442 1.5466 0.0703 0.0000 -21675.8364 3623.4865 0.0000 0.0000 1154.5363 -16895.7525 124.2359 -18050.2888 -16892.8212 119.7594 -85.6686 -12.7476 45433.6112 -2.2562 -2.4300
TCL: Running 25000 steps at 150 kelvin.
TCL: Setting parameter langevinTemp to 150
TCL: Running for 25000 steps
ETITLE: TS BOND ANGLE DIHED IMPRP ELECT VDW BOUNDARY MISC KINETIC TOTAL TEMP POTENTIAL TOTAL3 TEMPAVG PRESSURE GPRESSURE VOLUME PRESSAVG GPRESSAVG
ENERGY: 100000 0.4442 1.5466 0.0703 0.0000 -21675.8364 3623.4865 0.0000 0.0000 1153.9869 -16896.3019 124.1768 -18050.2888 -16894.0075 124.1768 -72.0763 -12.3923 45433.6112 -72.0763 -12.3923
ENERGY: 105000 0.9745 2.4835 0.0903 0.0000 -21070.8183 3394.6065 0.0000 0.0000 1360.8320 -16311.8315 146.4347 -17672.6636 -16307.0685 146.4003 -571.3599 -527.4115 46172.2503 1.2791 1.2052
ENERGY: 110000 0.7952 3.8592 0.4164 0.0000 -21316.3589 3555.3439 0.0000 0.0000 1384.0268 -16371.9174 148.9306 -17755.9442 -16369.9488 151.0573 163.7069 215.6719 45782.7626 -0.1232 0.0911
ENERGY: 115000 0.6766 0.7418 0.7108 0.0000 -21179.8852 3375.5474 0.0000 0.0000 1378.2314 -16423.9773 148.3070 -17802.2087 -16421.6618 149.8372 -701.6450 -678.3136 45822.0001 -1.5950 -1.3327
ENERGY: 120000 0.2322 2.2288 0.0181 0.0000 -21063.0242 3306.2877 0.0000 0.0000 1394.4038 -16359.8536 150.0472 -17754.2574 -16355.8057 148.1034 -1157.3257 -1093.3826 46002.9568 3.1484 2.5374
ENERGY: 125000 0.6189 2.1725 0.4191 0.0000 -21405.6940 3554.3343 0.0000 0.0000 1364.1440 -16484.0051 146.7911 -17848.1491 -16481.5748 149.2973 -44.5494 12.5139 45823.7054 -0.1464 0.6907
TCL: Running 50000 steps at 180 kelvin.
TCL: Setting parameter langevinTemp to 180
TCL: Running for 50000 steps
ETITLE: TS BOND ANGLE DIHED IMPRP ELECT VDW BOUNDARY MISC KINETIC TOTAL TEMP POTENTIAL TOTAL3 TEMPAVG PRESSURE GPRESSURE VOLUME PRESSAVG GPRESSAVG
ENERGY: 125000 0.6189 2.1725 0.4191 0.0000 -21405.6940 3554.3343 0.0000 0.0000 1363.4750 -16484.6741 146.7191 -17848.1491 -16481.5077 146.7191 -31.5088 12.0976 45823.7054 -31.5088 12.0976
ENERGY: 135000 1.4038 2.7607 0.1139 0.0000 -20780.0532 3393.6642 0.0000 0.0000 1625.1028 -15757.0078 174.8720 -17382.1106 -15754.6259 180.2149 208.9791 211.2411 45899.2116 0.4746 0.0233
ENERGY: 145000 0.4396 3.2003 0.3067 0.0000 -20688.0172 3297.3180 0.0000 0.0000 1696.2350 -15690.5177 182.5263 -17386.7527 -15686.2187 179.0323 -299.6435 -225.7195 45917.6410 -4.2310 -4.5858
ENERGY: 155000 0.3072 3.0759 0.1356 0.0000 -20840.2686 3480.8472 0.0000 0.0000 1677.1713 -15678.7315 180.4749 -17355.9028 -15676.1618 179.2826 739.6246 814.1300 45732.3350 -3.7681 -3.8916
ENERGY: 165000 0.9248 2.7880 0.1265 0.0000 -20706.3924 3298.1028 0.0000 0.0000 1735.1348 -15669.3155 186.7122 -17404.4502 -15664.4656 181.4689 -277.7267 -168.4690 45659.8919 0.9505 -0.0518
ENERGY: 175000 0.6835 2.1408 0.2040 0.0000 -21060.2122 3606.5794 0.0000 0.0000 1662.2643 -15788.3401 178.8708 -17450.6045 -15783.3666 178.5749 1149.6485 1195.6549 45662.3317 1.6334 1.7782
TCL: Running 50000 steps at 210 kelvin.
TCL: Setting parameter langevinTemp to 210
TCL: Running for 50000 steps
ETITLE: TS BOND ANGLE DIHED IMPRP ELECT VDW BOUNDARY MISC KINETIC TOTAL TEMP POTENTIAL TOTAL3 TEMPAVG PRESSURE GPRESSURE VOLUME PRESSAVG GPRESSAVG
ENERGY: 175000 0.6835 2.1408 0.2040 0.0000 -21060.2122 3606.5794 0.0000 0.0000 1661.4053 -15789.1992 178.7784 -17450.6045 -15786.1914 178.7784 1141.1441 1196.4739 45662.3317 1141.1441 1196.4739
ENERGY: 185000 2.7696 3.2433 0.1203 0.0000 -19750.4692 3045.0671 0.0000 0.0000 1937.1458 -14762.1231 208.4499 -16699.2689 -14756.8287 209.4020 -116.7860 -32.5379 46111.0429 4.1101 3.3870
ENERGY: 195000 0.7365 5.7074 0.4341 0.0000 -19818.3627 3089.1668 0.0000 0.0000 1976.7125 -14745.6054 212.7076 -16722.3179 -14741.1432 210.4510 213.8363 299.9262 45711.3951 4.9075 4.6729
ENERGY: 205000 1.1239 2.9988 0.2045 0.0000 -19754.2924 3069.9253 0.0000 0.0000 1960.5113 -14719.5287 210.9642 -16680.0400 -14716.1632 211.1407 411.5694 484.1110 45338.5300 0.5630 0.4183
ENERGY: 215000 0.9048 3.8093 0.0910 0.0000 -19798.5459 3087.0286 0.0000 0.0000 1998.0534 -14708.6588 215.0040 -16706.7122 -14703.9432 210.3943 383.7183 448.6928 45523.1644 2.0871 1.9184
ENERGY: 225000 1.0849 3.3103 0.4334 0.0000 -19577.2598 2891.5991 0.0000 0.0000 1910.6643 -14770.1679 205.6003 -16680.8321 -14765.8115 209.6039 -525.2138 -434.4158 45434.9649 -4.2818 -4.4073
TCL: Running 50000 steps at 240 kelvin.
TCL: Setting parameter langevinTemp to 240
TCL: Running for 50000 steps
ETITLE: TS BOND ANGLE DIHED IMPRP ELECT VDW BOUNDARY MISC KINETIC TOTAL TEMP POTENTIAL TOTAL3 TEMPAVG PRESSURE GPRESSURE VOLUME PRESSAVG GPRESSAVG
ENERGY: 225000 1.0849 3.3103 0.4334 0.0000 -19577.2598 2891.5991 0.0000 0.0000 1909.6477 -14771.1844 205.4910 -16680.8321 -14767.7758 205.4910 -509.0683 -434.2508 45434.9649 -509.0683 -434.2508
ENERGY: 235000 0.9231 4.0627 0.1649 0.0000 -18661.3820 2697.5753 0.0000 0.0000 2301.5212 -13657.1348 247.6592 -15958.6560 -13652.3747 242.1497 -164.0125 -86.4962 46133.5324 -0.0670 -0.3676
ENERGY: 245000 1.2310 5.2143 0.0751 0.0000 -18745.3879 2751.5732 0.0000 0.0000 2167.2499 -13820.0444 233.2107 -15987.2943 -13815.3361 243.0744 49.7066 163.1639 46019.7336 -0.2996 0.0609
ENERGY: 255000 0.4730 3.6967 0.1657 0.0000 -18680.6438 2708.0104 0.0000 0.0000 2255.5034 -13712.7946 242.7074 -15968.2980 -13707.7808 240.3815 -176.4566 -61.6069 46324.4755 -0.2434 0.0052
ENERGY: 265000 1.0560 4.8779 0.1382 0.0000 -18718.0661 2744.7206 0.0000 0.0000 2235.5190 -13731.7545 240.5569 -15967.2735 -13726.1850 240.4330 73.7363 122.9092 45958.4694 1.5699 1.1494
ENERGY: 275000 0.8912 2.2722 0.7386 0.0000 -18859.6368 2852.5817 0.0000 0.0000 2231.7050 -13771.4481 240.1465 -16003.1531 -13766.3669 239.7005 768.0838 848.9797 45660.7354 0.3444 0.0181
TCL: Running 50000 steps at 270 kelvin.
TCL: Setting parameter langevinTemp to 270
TCL: Running for 50000 steps
ETITLE: TS BOND ANGLE DIHED IMPRP ELECT VDW BOUNDARY MISC KINETIC TOTAL TEMP POTENTIAL TOTAL3 TEMPAVG PRESSURE GPRESSURE VOLUME PRESSAVG GPRESSAVG
ENERGY: 275000 0.8912 2.2722 0.7386 0.0000 -18859.6368 2852.5817 0.0000 0.0000 2230.5783 -13772.5748 240.0252 -16003.1531 -13768.8311 240.0252 770.7178 849.4513 45660.7354 770.7178 849.4513
ENERGY: 285000 0.4390 3.9798 0.2349 0.0000 -17864.8917 2503.9283 0.0000 0.0000 2445.0078 -12911.3019 263.0993 -15356.3098 -12904.1197 271.5754 -200.7421 -95.6590 47229.9464 2.1061 2.3254
ENERGY: 295000 1.1553 6.4392 0.5418 0.0000 -17711.7740 2354.8793 0.0000 0.0000 2504.1303 -12844.6283 269.4613 -15348.7585 -12837.5729 270.4202 -967.0697 -845.1153 47556.7986 0.3724 0.1939
ENERGY: 305000 0.5443 4.0078 0.1691 0.0000 -17804.6669 2464.4345 0.0000 0.0000 2499.3829 -12836.1282 268.9504 -15335.5112 -12831.4683 271.2500 -153.1928 -40.9134 46671.7519 -3.2815 -2.3594
ENERGY: 315000 0.4507 6.4952 0.3532 0.0000 -17764.4533 2474.6041 0.0000 0.0000 2503.2819 -12779.2681 269.3700 -15282.5500 -12775.8978 270.3807 -106.8600 23.2135 46899.6013 0.6922 1.5166
ENERGY: 325000 1.7676 4.8689 1.1550 0.0000 -17857.0497 2479.1580 0.0000 0.0000 2537.7949 -12832.3053 273.0838 -15370.1002 -12827.7106 271.9160 -139.9160 9.4877 46748.1082 1.0078 0.7819
TCL: Running 1000000 steps at 300 kelvin.
TCL: Setting parameter langevinTemp to 300
TCL: Running for 1000000 steps
ETITLE: TS BOND ANGLE DIHED IMPRP ELECT VDW BOUNDARY MISC KINETIC TOTAL TEMP POTENTIAL TOTAL3 TEMPAVG PRESSURE GPRESSURE VOLUME PRESSAVG GPRESSAVG
ENERGY: 325000 1.7676 4.8689 1.1550 0.0000 -17857.0497 2479.1580 0.0000 0.0000 2536.5556 -12833.5446 272.9505 -15370.1002 -12830.1460 272.9505 -76.5063 10.3633 46748.1082 -76.5063 10.3633
ENERGY: 525000 0.9023 2.3482 0.1612 0.0000 -16982.9763 2325.1678 0.0000 0.0000 2754.1198 -11900.2770 296.3618 -14654.3969 -11893.7372 300.7685 136.3161 238.6065 48253.4805 4.2947 4.1797
ENERGY: 725000 0.7353 3.0254 0.1106 0.0000 -16967.8706 2224.3367 0.0000 0.0000 2804.5881 -11935.0744 301.7926 -14739.6625 -11928.0884 298.3705 -276.1881 -172.6243 47977.0006 4.7543 4.5465
ENERGY: 925000 1.8968 3.2360 0.2689 0.0000 -16994.6754 2242.4185 0.0000 0.0000 2782.5937 -11964.2615 299.4258 -14746.8552 -11960.9182 300.9565 -320.9704 -253.8125 48250.9297 6.5146 6.5989
ENERGY: 1125000 0.9911 2.2901 1.1480 0.0000 -16854.0132 2284.2431 0.0000 0.0000 2823.9656 -11741.3752 303.8777 -14565.3408 -11735.1685 298.6555 126.4073 176.0908 48894.6126 3.8343 3.6711
ENERGY: 1325000 2.1297 7.7890 0.9204 0.0000 -17029.7422 2325.0076 0.0000 0.0000 2846.8051 -11847.0903 306.3354 -14693.8954 -11842.2585 300.3697 430.1318 478.1114 47606.0940 3.0729 3.2060
TCL: Exiting due to exit command.
