Info: SIMULATION PARAMETERS:
Info: TIMESTEP               2
Info: NUMBER OF STEPS        0
Info: STEPS PER CYCLE        10
Info: PERIODIC CELL BASIS 1  34.986 0 0
Info: PERIODIC CELL BASIS 2  0 35.411 0
Info: PERIODIC CELL BASIS 3  0 0 35.723
Info: PERIODIC CELL CENTER   0 0 0
Info: WRAPPING WATERS AROUND PERIODIC BOUNDARIES ON OUTPUT.
Info: WRAPPING ALL CLUSTERS AROUND PERIODIC BOUNDARIES ON OUTPUT.
Info: FIRST LDB TIMESTEP     50
Info: LAST LDB TIMESTEP     -1
Info: HOM BACKGROUND SCALING 1
Info: PME BACKGROUND SCALING 1
Info: MIN ATOMS PER PATCH    40
Info: EMPTY PATCH LOAD       40 ATOMS
Info: INITIAL TEMPERATURE    300
Info: CENTER OF MASS MOVING INITIALLY? NO
Info: DIELECTRIC             1
Info: EXCLUDE                SCALED ONE-FOUR
Info: 1-4 ELECTROSTATICS SCALED BY 0.833333
Info: MODIFIED 1-4 VDW PARAMETERS WILL BE USED
Info: DCD FILENAME           mobley_2784376_equil.dcd
Info: DCD FREQUENCY          100000
Info: DCD FIRST STEP         100000
Info: DCD FILE WILL CONTAIN UNIT CELL DATA
Info: XST FILENAME           mobley_2784376_equil.xst
Info: XST FREQUENCY          100000
Info: NO VELOCITY DCD OUTPUT
Info: NO FORCE DCD OUTPUT
Info: OUTPUT FILENAME        mobley_2784376_equil
Info: BINARY OUTPUT FILES WILL BE USED
Info: RESTART FILENAME       mobley_2784376_equil.restart
Info: RESTART FREQUENCY      100000
Info: BINARY RESTART FILES WILL BE USED
Info: CUTOFF                 9
Info: PAIRLIST DISTANCE      11
Info: PAIRLIST SHRINK RATE   0.01
Info: PAIRLIST GROW RATE     0.01
Info: PAIRLIST TRIGGER       0.3
Info: PAIRLISTS PER CYCLE    2
Info: PAIRLISTS ENABLED
Info: MARGIN                 8
Info: HYDROGEN GROUP CUTOFF  2.5
Info: PATCH DIMENSION        21.5
Info: ENERGY OUTPUT STEPS    100000
Info: ENERGY EVALUATION STEPS    100000
Info: OUTPUT ENERGY PRECISION 4
Info: CROSSTERM ENERGY INCLUDED IN DIHEDRAL
Info: TIMING OUTPUT STEPS    1000000
Info: PRESSURE OUTPUT STEPS  100000
Info: LANGEVIN DYNAMICS ACTIVE
Info: LANGEVIN TEMPERATURE   30
Info: LANGEVIN USING BBK INTEGRATOR
Info: LANGEVIN DAMPING COEFFICIENT IS 1 INVERSE PS
Info: LANGEVIN DYNAMICS APPLIED TO HYDROGENS
Info: LANGEVIN PISTON PRESSURE CONTROL ACTIVE
Info:        TARGET PRESSURE IS 1.01325 BAR
Info:     OSCILLATION PERIOD IS 50 FS
Info:             DECAY TIME IS 25 FS
Info:     PISTON TEMPERATURE IS 300 K
Info:       PRESSURE CONTROL IS GROUP-BASED
Info:    INITIAL STRAIN RATE IS 0 0 0
Info:       CELL FLUCTUATION IS ISOTROPIC
Info: PARTICLE MESH EWALD (PME) ACTIVE
Info: PME TOLERANCE               1e-06
Info: PME EWALD COEFFICIENT       0.348832
Info: PME INTERPOLATION ORDER     4
Info: PME GRID DIMENSIONS         36 36 36
Info: PME MAXIMUM GRID SPACING    1
Info: FULL ELECTROSTATIC EVALUATION FREQUENCY      2
Info: USING VERLET I (r-RESPA) MTS SCHEME.
Info: C1 SPLITTING OF LONG RANGE ELECTROSTATICS
Info: PLACING ATOMS IN PATCHES BY HYDROGEN GROUPS
Info: RIGID BONDS TO HYDROGEN : ALL
Info:         ERROR TOLERANCE : 1e-08
Info:          MAX ITERATIONS : 100
Info: RIGID WATER USING SETTLE ALGORITHM
Info: RANDOM NUMBER SEED     1741931774
Info: USE HYDROGEN BONDS?    NO
Info: Using AMBER format force field!
Info: AMBER PARM FILE        mobley_2784376.prmtop
Info: COORDINATE PDB         mobley_2784376.pdb
Info: Exclusions will be read from PARM file!
Info: SCNB (VDW SCALING)     2
Info: USING ARITHMETIC MEAN TO COMBINE L-J SIGMA PARAMETERS
Info: BINARY COORDINATES     mobley_2784376_min.coor
Info: SUMMARY OF PARAMETERS:
Info: 4 BONDS
Info: 3 ANGLES
Info:   3 HARMONIC
Info:   0 COSINE-BASED
Info: 1 DIHEDRAL
Info: 0 IMPROPER
Info: 0 CROSSTERM
Info: 0 VDW
Info: 10 VDW_PAIRS
Info: 0 NBTHOLE_PAIRS
Info: STRUCTURE SUMMARY:
Info: 2985 ATOMS
Info: 2985 BONDS
Info: 18 ANGLES
Info: 24 DIHEDRALS
Info: 0 IMPROPERS
Info: 0 CROSSTERMS
Info: 3012 EXCLUSIONS
Info: 2982 RIGID BONDS
Info: 5973 DEGREES OF FREEDOM
Info: 995 HYDROGEN GROUPS
Info: 3 ATOMS IN LARGEST HYDROGEN GROUP
Info: 995 MIGRATION GROUPS
Info: 3 ATOMS IN LARGEST MIGRATION GROUP
Info: TOTAL MASS = 17914 amu
Info: TOTAL CHARGE = 0.000300005 e
Info: MASS DENSITY = 0.672156 g/cm^3
Info: ATOM DENSITY = 0.0674472 atoms/A^3
Info: ADDED 0 IMPLICIT EXCLUSIONS
Info: NONBONDED TABLE R-SQUARED SPACING: 0.0625
Info: NONBONDED TABLE SIZE: 705 POINTS
Info: REMOVING COM VELOCITY -0.0209734 -0.0325662 -0.113177
TCL: Running for 100000 steps
ETITLE: TS BOND ANGLE DIHED IMPRP ELECT VDW BOUNDARY MISC KINETIC TOTAL TEMP POTENTIAL TOTAL3 TEMPAVG PRESSURE GPRESSURE VOLUME PRESSAVG GPRESSAVG
ENERGY: 0 0.0015 0.0159 6.4192 0.0000 -13859.0311 2455.4164 0.0000 0.0000 1769.8539 -9627.3242 298.2190 -11397.1781 -9626.9756 298.2190 499.8303 540.6569 44256.8405 499.8303 540.6569
ENERGY: 100000 0.0289 0.6196 6.4412 0.0000 -14434.0570 2535.2437 0.0000 0.0000 174.5981 -11717.1254 29.4196 -11891.7235 -11716.5820 30.8845 109.7475 181.3934 29309.2692 2.3892 2.4419
TCL: Running 100000 steps at 60 kelvin.
TCL: Setting parameter langevinTemp to 60
TCL: Running for 100000 steps
ETITLE: TS BOND ANGLE DIHED IMPRP ELECT VDW BOUNDARY MISC KINETIC TOTAL TEMP POTENTIAL TOTAL3 TEMPAVG PRESSURE GPRESSURE VOLUME PRESSAVG GPRESSAVG
ENERGY: 100000 0.0289 0.6196 6.4412 0.0000 -14434.0570 2535.2437 0.0000 0.0000 174.5085 -11717.2150 29.4045 -11891.7235 -11716.7575 29.4045 120.9397 181.4989 29309.2692 120.9397 181.4989
ENERGY: 200000 0.6433 0.9689 6.2791 0.0000 -14336.8851 2545.9271 0.0000 0.0000 352.5904 -11430.4764 59.4112 -11783.0668 -11429.9406 59.9395 780.7584 849.5285 28870.9432 4.1733 4.1322
TCL: Running 100000 steps at 90 kelvin.
TCL: Setting parameter langevinTemp to 90
TCL: Running for 100000 steps
ETITLE: TS BOND ANGLE DIHED IMPRP ELECT VDW BOUNDARY MISC KINETIC TOTAL TEMP POTENTIAL TOTAL3 TEMPAVG PRESSURE GPRESSURE VOLUME PRESSAVG GPRESSAVG
ENERGY: 200000 0.6433 0.9689 6.2791 0.0000 -14336.8851 2545.9271 0.0000 0.0000 352.4137 -11430.6531 59.3814 -11783.0668 -11429.9035 59.3814 792.6653 849.0632 28870.9432 792.6653 849.0632
ENERGY: 300000 0.2205 0.6220 6.4502 0.0000 -14176.1317 2418.7459 0.0000 0.0000 524.8800 -11225.2132 88.4419 -11750.0932 -11224.0658 90.1448 -5.5956 64.6175 28731.6117 4.6633 4.5347
TCL: Running 100000 steps at 120 kelvin.
TCL: Setting parameter langevinTemp to 120
TCL: Running for 100000 steps
ETITLE: TS BOND ANGLE DIHED IMPRP ELECT VDW BOUNDARY MISC KINETIC TOTAL TEMP POTENTIAL TOTAL3 TEMPAVG PRESSURE GPRESSURE VOLUME PRESSAVG GPRESSAVG
ENERGY: 300000 0.2205 0.6220 6.4502 0.0000 -14176.1317 2418.7459 0.0000 0.0000 524.6222 -11225.4710 88.3984 -11750.0932 -11224.0788 88.3984 0.5370 64.0175 28731.6117 0.5370 64.0175
ENERGY: 400000 0.0923 2.4653 6.2364 0.0000 -13891.0275 2302.2173 0.0000 0.0000 722.6752 -10857.3411 121.7702 -11580.0162 -10854.7849 120.0590 -319.8931 -241.6454 28873.9595 4.2645 4.3295
TCL: Running 100000 steps at 150 kelvin.
TCL: Setting parameter langevinTemp to 150
TCL: Running for 100000 steps
ETITLE: TS BOND ANGLE DIHED IMPRP ELECT VDW BOUNDARY MISC KINETIC TOTAL TEMP POTENTIAL TOTAL3 TEMPAVG PRESSURE GPRESSURE VOLUME PRESSAVG GPRESSAVG
ENERGY: 400000 0.0923 2.4653 6.2364 0.0000 -13891.0275 2302.2173 0.0000 0.0000 722.3194 -10857.6969 121.7102 -11580.0162 -10856.0645 121.7102 -280.8479 -241.0176 28873.9595 -280.8479 -241.0176
ENERGY: 500000 1.0430 3.3164 6.3823 0.0000 -13631.6552 2216.1339 0.0000 0.0000 883.6717 -10521.1081 148.8980 -11404.7798 -10518.4721 150.2762 -422.5106 -370.7932 29005.1722 2.3174 2.3940
TCL: Running 100000 steps at 180 kelvin.
TCL: Setting parameter langevinTemp to 180
TCL: Running for 100000 steps
ETITLE: TS BOND ANGLE DIHED IMPRP ELECT VDW BOUNDARY MISC KINETIC TOTAL TEMP POTENTIAL TOTAL3 TEMPAVG PRESSURE GPRESSURE VOLUME PRESSAVG GPRESSAVG
ENERGY: 500000 1.0430 3.3164 6.3823 0.0000 -13631.6552 2216.1339 0.0000 0.0000 883.2383 -10521.5414 148.8250 -11404.7798 -10520.2033 148.8250 -418.7846 -370.4226 29005.1722 -418.7846 -370.4226
ENERGY: 600000 0.1284 2.7793 6.2274 0.0000 -13423.7480 2284.2604 0.0000 0.0000 1047.8173 -10082.5351 176.5564 -11130.3525 -10080.8842 179.7114 883.6325 932.6591 29405.1180 2.8909 2.8848
TCL: Running 100000 steps at 210 kelvin.
TCL: Setting parameter langevinTemp to 210
TCL: Running for 100000 steps
ETITLE: TS BOND ANGLE DIHED IMPRP ELECT VDW BOUNDARY MISC KINETIC TOTAL TEMP POTENTIAL TOTAL3 TEMPAVG PRESSURE GPRESSURE VOLUME PRESSAVG GPRESSAVG
ENERGY: 600000 0.1284 2.7793 6.2274 0.0000 -13423.7480 2284.2604 0.0000 0.0000 1047.2580 -10083.0945 176.4621 -11130.3525 -10081.4089 176.4621 866.6263 933.3356 29405.1180 866.6263 933.3356
ENERGY: 700000 0.2297 1.8007 6.4435 0.0000 -12556.9484 1916.5190 0.0000 0.0000 1188.0942 -9443.8613 200.1929 -10631.9554 -9441.1262 209.6697 -254.5923 -117.6112 29248.0419 3.1612 3.1560
TCL: Running 100000 steps at 240 kelvin.
TCL: Setting parameter langevinTemp to 240
TCL: Running for 100000 steps
ETITLE: TS BOND ANGLE DIHED IMPRP ELECT VDW BOUNDARY MISC KINETIC TOTAL TEMP POTENTIAL TOTAL3 TEMPAVG PRESSURE GPRESSURE VOLUME PRESSAVG GPRESSAVG
ENERGY: 700000 0.2297 1.8007 6.4435 0.0000 -12556.9484 1916.5190 0.0000 0.0000 1187.4806 -9444.4748 200.0895 -10631.9554 -9442.7291 200.0895 -190.1381 -117.5120 29248.0419 -190.1381 -117.5120
ENERGY: 800000 0.5584 4.0544 6.2120 0.0000 -11813.2533 1620.7267 0.0000 0.0000 1424.3261 -8757.3758 239.9978 -10181.7018 -8755.3382 239.6393 -1012.6714 -867.2360 29443.0797 3.3190 3.3230
TCL: Running 100000 steps at 270 kelvin.
TCL: Setting parameter langevinTemp to 270
TCL: Running for 100000 steps
ETITLE: TS BOND ANGLE DIHED IMPRP ELECT VDW BOUNDARY MISC KINETIC TOTAL TEMP POTENTIAL TOTAL3 TEMPAVG PRESSURE GPRESSURE VOLUME PRESSAVG GPRESSAVG
ENERGY: 800000 0.5584 4.0544 6.2120 0.0000 -11813.2533 1620.7267 0.0000 0.0000 1423.6322 -8758.0696 239.8809 -10181.7018 -8755.5819 239.8809 -958.8148 -868.8992 29443.0797 -958.8148 -868.8992
ENERGY: 900000 1.0447 2.1177 6.1819 0.0000 -11350.8064 1569.7633 0.0000 0.0000 1581.9805 -8189.7183 266.5625 -9771.6988 -8185.9888 270.6791 -305.2355 -241.3295 30252.7573 4.3745 4.4288
TCL: Running 1000000 steps at 300 kelvin.
TCL: Setting parameter langevinTemp to 300
TCL: Running for 1000000 steps
ETITLE: TS BOND ANGLE DIHED IMPRP ELECT VDW BOUNDARY MISC KINETIC TOTAL TEMP POTENTIAL TOTAL3 TEMPAVG PRESSURE GPRESSURE VOLUME PRESSAVG GPRESSAVG
ENERGY: 900000 1.0447 2.1177 6.1819 0.0000 -11350.8064 1569.7633 0.0000 0.0000 1581.1658 -8190.5330 266.4252 -9771.6988 -8187.8195 266.4252 -333.8707 -240.7312 30252.7573 -333.8707 -240.7312
ENERGY: 1100000 0.1027 2.7482 6.4554 0.0000 -10871.1071 1450.5838 0.0000 0.0000 1795.0576 -7616.1593 302.4658 -9411.2169 -7616.1544 299.7220 -174.9419 -97.1646 30738.1018 2.3068 2.4081
ENERGY: 1300000 1.5253 3.7528 6.4970 0.0000 -10810.9706 1450.3246 0.0000 0.0000 1802.3754 -7546.4956 303.6988 -9348.8710 -7541.5842 300.2293 -95.1206 39.9145 30641.1481 1.7768 1.8769
ENERGY: 1500000 0.5811 3.1446 6.4179 0.0000 -10904.8519 1501.8402 0.0000 0.0000 1750.1971 -7642.6710 294.9068 -9392.8681 -7637.2955 300.5561 176.3856 267.0755 30698.2050 3.4957 3.5651
ENERGY: 1700000 0.4302 2.5674 6.2633 0.0000 -10890.5609 1521.5705 0.0000 0.0000 1724.0883 -7635.6411 290.5075 -9359.7294 -7633.5884 300.0993 381.8129 466.8769 30523.3750 2.3745 2.4575
ENERGY: 1900000 0.4836 3.9508 6.2062 0.0000 -10897.2844 1473.6937 0.0000 0.0000 1802.0885 -7610.8615 303.6505 -9412.9500 -7608.2090 300.6361 -77.0289 -91.9080 30996.8460 3.3464 3.3158
TCL: Exiting due to exit command.
