Info: SIMULATION PARAMETERS:
Info: TIMESTEP               2
Info: NUMBER OF STEPS        0
Info: STEPS PER CYCLE        10
Info: PERIODIC CELL BASIS 1  35.01 0 0
Info: PERIODIC CELL BASIS 2  0 35.267 0
Info: PERIODIC CELL BASIS 3  0 0 35.723
Info: PERIODIC CELL CENTER   0 0 0
Info: WRAPPING WATERS AROUND PERIODIC BOUNDARIES ON OUTPUT.
Info: WRAPPING ALL CLUSTERS AROUND PERIODIC BOUNDARIES ON OUTPUT.
Info: FIRST LDB TIMESTEP     50
Info: LAST LDB TIMESTEP     -1
Info: HOM BACKGROUND SCALING 1
Info: PME BACKGROUND SCALING 1
Info: MIN ATOMS PER PATCH    40
Info: EMPTY PATCH LOAD       40 ATOMS
Info: INITIAL TEMPERATURE    300
Info: CENTER OF MASS MOVING INITIALLY? NO
Info: DIELECTRIC             1
Info: EXCLUDE                SCALED ONE-FOUR
Info: 1-4 ELECTROSTATICS SCALED BY 0.833333
Info: MODIFIED 1-4 VDW PARAMETERS WILL BE USED
Info: DCD FILENAME           mobley_3034976_equil.dcd
Info: DCD FREQUENCY          100000
Info: DCD FIRST STEP         100000
Info: DCD FILE WILL CONTAIN UNIT CELL DATA
Info: XST FILENAME           mobley_3034976_equil.xst
Info: XST FREQUENCY          100000
Info: NO VELOCITY DCD OUTPUT
Info: NO FORCE DCD OUTPUT
Info: OUTPUT FILENAME        mobley_3034976_equil
Info: BINARY OUTPUT FILES WILL BE USED
Info: RESTART FILENAME       mobley_3034976_equil.restart
Info: RESTART FREQUENCY      100000
Info: BINARY RESTART FILES WILL BE USED
Info: CUTOFF                 9
Info: PAIRLIST DISTANCE      11
Info: PAIRLIST SHRINK RATE   0.01
Info: PAIRLIST GROW RATE     0.01
Info: PAIRLIST TRIGGER       0.3
Info: PAIRLISTS PER CYCLE    2
Info: PAIRLISTS ENABLED
Info: MARGIN                 8
Info: HYDROGEN GROUP CUTOFF  2.5
Info: PATCH DIMENSION        21.5
Info: ENERGY OUTPUT STEPS    100000
Info: ENERGY EVALUATION STEPS    100000
Info: OUTPUT ENERGY PRECISION 4
Info: CROSSTERM ENERGY INCLUDED IN DIHEDRAL
Info: TIMING OUTPUT STEPS    1000000
Info: PRESSURE OUTPUT STEPS  100000
Info: FIXED ATOMS ACTIVE
Info: LANGEVIN DYNAMICS ACTIVE
Info: LANGEVIN TEMPERATURE   30
Info: LANGEVIN USING BBK INTEGRATOR
Info: LANGEVIN DAMPING COEFFICIENT IS 1 INVERSE PS
Info: LANGEVIN DYNAMICS APPLIED TO HYDROGENS
Info: LANGEVIN PISTON PRESSURE CONTROL ACTIVE
Info:        TARGET PRESSURE IS 1.01325 BAR
Info:     OSCILLATION PERIOD IS 50 FS
Info:             DECAY TIME IS 25 FS
Info:     PISTON TEMPERATURE IS 300 K
Info:       PRESSURE CONTROL IS GROUP-BASED
Info:    INITIAL STRAIN RATE IS 0 0 0
Info:       CELL FLUCTUATION IS ISOTROPIC
Info: PARTICLE MESH EWALD (PME) ACTIVE
Info: PME TOLERANCE               1e-06
Info: PME EWALD COEFFICIENT       0.348832
Info: PME INTERPOLATION ORDER     4
Info: PME GRID DIMENSIONS         36 36 36
Info: PME MAXIMUM GRID SPACING    1
Info: FULL ELECTROSTATIC EVALUATION FREQUENCY      2
Info: USING VERLET I (r-RESPA) MTS SCHEME.
Info: C1 SPLITTING OF LONG RANGE ELECTROSTATICS
Info: PLACING ATOMS IN PATCHES BY HYDROGEN GROUPS
Info: RIGID BONDS TO HYDROGEN : ALL
Info:         ERROR TOLERANCE : 1e-08
Info:          MAX ITERATIONS : 100
Info: RIGID WATER USING SETTLE ALGORITHM
Info: RANDOM NUMBER SEED     1742360640
Info: USE HYDROGEN BONDS?    NO
Info: Using AMBER format force field!
Info: AMBER PARM FILE        mobley_3034976.prmtop
Info: COORDINATE PDB         mobley_3034976.pdb
Info: Exclusions will be read from PARM file!
Info: SCNB (VDW SCALING)     2
Info: USING ARITHMETIC MEAN TO COMBINE L-J SIGMA PARAMETERS
Info: BINARY COORDINATES     mobley_3034976_min.coor
Info: SUMMARY OF PARAMETERS:
Info: 7 BONDS
Info: 6 ANGLES
Info:   6 HARMONIC
Info:   0 COSINE-BASED
Info: 7 DIHEDRAL
Info: 0 IMPROPER
Info: 0 CROSSTERM
Info: 0 VDW
Info: 36 VDW_PAIRS
Info: 0 NBTHOLE_PAIRS
Info: STRUCTURE SUMMARY:
Info: 2978 ATOMS
Info: 2977 BONDS
Info: 10 ANGLES
Info: 13 DIHEDRALS
Info: 0 IMPROPERS
Info: 0 CROSSTERMS
Info: 2995 EXCLUSIONS
Info: 8 FIXED ATOMS
Info: 2974 RIGID BONDS
Info: 4 RIGID BONDS BETWEEN FIXED ATOMS
Info: 5940 DEGREES OF FREEDOM
Info: 994 HYDROGEN GROUPS
Info: 4 ATOMS IN LARGEST HYDROGEN GROUP
Info: 994 MIGRATION GROUPS
Info: 4 ATOMS IN LARGEST MIGRATION GROUP
Info: 4 HYDROGEN GROUPS WITH ALL ATOMS FIXED
Info: TOTAL MASS = 17895.9 amu
Info: TOTAL CHARGE = -9.98899e-05 e
Info: MASS DENSITY = 0.673758 g/cm^3
Info: ATOM DENSITY = 0.0675175 atoms/A^3
Info: ADDED 0 IMPLICIT EXCLUSIONS
Info: NONBONDED TABLE R-SQUARED SPACING: 0.0625
Info: NONBONDED TABLE SIZE: 705 POINTS
Info: REMOVING COM VELOCITY -0.0956118 -0.219016 -0.00908064
TCL: Running for 100000 steps
ETITLE: TS BOND ANGLE DIHED IMPRP ELECT VDW BOUNDARY MISC KINETIC TOTAL TEMP POTENTIAL TOTAL3 TEMPAVG PRESSURE GPRESSURE VOLUME PRESSAVG GPRESSAVG
ENERGY: 0 0.0000 0.0000 0.0000 0.0000 -13945.7017 2458.8898 0.0000 0.0000 1854.9758 -9631.8361 314.2984 -11486.8120 -9631.4492 314.2984 513.8124 549.2610 44107.1049 513.8124 549.2610
ENERGY: 100000 0.0000 0.0000 0.0000 0.0000 -14453.8284 2498.4338 0.0000 0.0000 178.4061 -11776.9885 30.2283 -11955.3946 -11776.4099 30.9347 -57.2684 -24.8147 29423.5277 4.1585 4.0924
TCL: Running 100000 steps at 60 kelvin.
TCL: Setting parameter langevinTemp to 60
TCL: Running for 100000 steps
ETITLE: TS BOND ANGLE DIHED IMPRP ELECT VDW BOUNDARY MISC KINETIC TOTAL TEMP POTENTIAL TOTAL3 TEMPAVG PRESSURE GPRESSURE VOLUME PRESSAVG GPRESSAVG
ENERGY: 100000 0.0000 0.0000 0.0000 0.0000 -14453.8284 2498.4338 0.0000 0.0000 178.3174 -11777.0772 30.2133 -11955.3946 -11776.6890 30.2133 -79.5433 -24.7724 29423.5277 -79.5433 -24.7724
ENERGY: 200000 0.0000 0.0000 0.0000 0.0000 -14428.2518 2537.1939 0.0000 0.0000 357.1585 -11533.8994 60.5153 -11891.0579 -11532.9898 60.1112 556.2488 611.3175 29072.6758 3.7059 3.6437
TCL: Running 100000 steps at 90 kelvin.
TCL: Setting parameter langevinTemp to 90
TCL: Running for 100000 steps
ETITLE: TS BOND ANGLE DIHED IMPRP ELECT VDW BOUNDARY MISC KINETIC TOTAL TEMP POTENTIAL TOTAL3 TEMPAVG PRESSURE GPRESSURE VOLUME PRESSAVG GPRESSAVG
ENERGY: 200000 0.0000 0.0000 0.0000 0.0000 -14428.2518 2537.1939 0.0000 0.0000 356.9817 -11534.0762 60.4853 -11891.0579 -11533.2802 60.4853 560.4226 611.5269 29072.6758 560.4226 611.5269
ENERGY: 300000 0.0000 0.0000 0.0000 0.0000 -14063.0538 2279.9029 0.0000 0.0000 558.3842 -11224.7667 94.6100 -11783.1509 -11224.1378 89.8846 -1215.2226 -1141.2457 29513.6464 3.1997 3.1857
TCL: Running 100000 steps at 120 kelvin.
TCL: Setting parameter langevinTemp to 120
TCL: Running for 100000 steps
ETITLE: TS BOND ANGLE DIHED IMPRP ELECT VDW BOUNDARY MISC KINETIC TOTAL TEMP POTENTIAL TOTAL3 TEMPAVG PRESSURE GPRESSURE VOLUME PRESSAVG GPRESSAVG
ENERGY: 300000 0.0000 0.0000 0.0000 0.0000 -14063.0538 2279.9029 0.0000 0.0000 558.1251 -11225.0258 94.5661 -11783.1509 -11223.5530 94.5661 -1188.8337 -1141.9516 29513.6464 -1188.8337 -1141.9516
ENERGY: 400000 0.0000 0.0000 0.0000 0.0000 -13914.7168 2282.8324 0.0000 0.0000 704.1808 -10927.7036 119.3131 -11631.8844 -10924.8867 119.8360 -587.5321 -535.9917 29228.2698 2.6008 2.5742
TCL: Running 100000 steps at 150 kelvin.
TCL: Setting parameter langevinTemp to 150
TCL: Running for 100000 steps
ETITLE: TS BOND ANGLE DIHED IMPRP ELECT VDW BOUNDARY MISC KINETIC TOTAL TEMP POTENTIAL TOTAL3 TEMPAVG PRESSURE GPRESSURE VOLUME PRESSAVG GPRESSAVG
ENERGY: 400000 0.0000 0.0000 0.0000 0.0000 -13914.7168 2282.8324 0.0000 0.0000 703.8142 -10928.0702 119.2510 -11631.8844 -10926.8542 119.2510 -585.8831 -534.4202 29228.2698 -585.8831 -534.4202
ENERGY: 500000 0.0000 0.0000 0.0000 0.0000 -13779.4376 2264.4528 0.0000 0.0000 850.0184 -10664.9665 144.0231 -11514.9848 -10663.5599 149.4810 -211.5896 -162.5277 29101.3568 4.6020 4.6235
TCL: Running 100000 steps at 180 kelvin.
TCL: Setting parameter langevinTemp to 180
TCL: Running for 100000 steps
ETITLE: TS BOND ANGLE DIHED IMPRP ELECT VDW BOUNDARY MISC KINETIC TOTAL TEMP POTENTIAL TOTAL3 TEMPAVG PRESSURE GPRESSURE VOLUME PRESSAVG GPRESSAVG
ENERGY: 500000 0.0000 0.0000 0.0000 0.0000 -13779.4376 2264.4528 0.0000 0.0000 849.5575 -10665.4274 143.9450 -11514.9848 -10663.4470 143.9450 -206.4206 -163.6782 29101.3568 -206.4206 -163.6782
ENERGY: 600000 0.0000 0.0000 0.0000 0.0000 -13114.5891 1929.5773 0.0000 0.0000 1046.6229 -10138.3889 177.3349 -11185.0118 -10135.0980 179.9750 -1639.6148 -1563.7728 29205.5635 3.2804 3.3549
TCL: Running 100000 steps at 210 kelvin.
TCL: Setting parameter langevinTemp to 210
TCL: Running for 100000 steps
ETITLE: TS BOND ANGLE DIHED IMPRP ELECT VDW BOUNDARY MISC KINETIC TOTAL TEMP POTENTIAL TOTAL3 TEMPAVG PRESSURE GPRESSURE VOLUME PRESSAVG GPRESSAVG
ENERGY: 600000 0.0000 0.0000 0.0000 0.0000 -13114.5891 1929.5773 0.0000 0.0000 1046.0938 -10138.9180 177.2452 -11185.0118 -10136.6314 177.2452 -1640.0971 -1564.1683 29205.5635 -1640.0971 -1564.1683
ENERGY: 700000 0.0000 0.0000 0.0000 0.0000 -12624.1243 1911.3415 0.0000 0.0000 1262.9053 -9449.8775 213.9808 -10712.7828 -9447.7235 210.0549 -87.2961 -34.0090 29099.9212 2.6163 2.7026
TCL: Running 100000 steps at 240 kelvin.
TCL: Setting parameter langevinTemp to 240
TCL: Running for 100000 steps
ETITLE: TS BOND ANGLE DIHED IMPRP ELECT VDW BOUNDARY MISC KINETIC TOTAL TEMP POTENTIAL TOTAL3 TEMPAVG PRESSURE GPRESSURE VOLUME PRESSAVG GPRESSAVG
ENERGY: 700000 0.0000 0.0000 0.0000 0.0000 -12624.1243 1911.3415 0.0000 0.0000 1262.3024 -9450.4804 213.8786 -10712.7828 -9448.3411 213.8786 -95.2855 -34.0216 29099.9212 -95.2855 -34.0216
ENERGY: 800000 0.0000 0.0000 0.0000 0.0000 -12014.9411 1729.6869 0.0000 0.0000 1421.6235 -8863.6308 240.8732 -10285.2543 -8860.3424 240.1690 -215.7585 -122.9384 29458.1440 3.6817 3.6973
TCL: Running 100000 steps at 270 kelvin.
TCL: Setting parameter langevinTemp to 270
TCL: Running for 100000 steps
ETITLE: TS BOND ANGLE DIHED IMPRP ELECT VDW BOUNDARY MISC KINETIC TOTAL TEMP POTENTIAL TOTAL3 TEMPAVG PRESSURE GPRESSURE VOLUME PRESSAVG GPRESSAVG
ENERGY: 800000 0.0000 0.0000 0.0000 0.0000 -12014.9411 1729.6869 0.0000 0.0000 1420.9366 -8864.3177 240.7568 -10285.2542 -8862.4246 240.7568 -217.4581 -123.8768 29458.1440 -217.4581 -123.8768
ENERGY: 900000 0.0000 0.0000 0.0000 0.0000 -11420.3091 1591.1812 0.0000 0.0000 1592.8982 -8236.2297 269.8932 -9829.1279 -8233.2579 269.4702 -104.6164 4.0484 30322.1696 2.5118 2.6969
TCL: Running 1000000 steps at 300 kelvin.
TCL: Setting parameter langevinTemp to 300
TCL: Running for 1000000 steps
ETITLE: TS BOND ANGLE DIHED IMPRP ELECT VDW BOUNDARY MISC KINETIC TOTAL TEMP POTENTIAL TOTAL3 TEMPAVG PRESSURE GPRESSURE VOLUME PRESSAVG GPRESSAVG
ENERGY: 900000 0.0000 0.0000 0.0000 0.0000 -11420.3091 1591.1812 0.0000 0.0000 1592.0512 -8237.0768 269.7497 -9829.1279 -8235.3416 269.7497 -78.2435 3.1282 30322.1696 -78.2435 3.1282
ENERGY: 1100000 0.0000 0.0000 0.0000 0.0000 -11114.6032 1616.2707 0.0000 0.0000 1759.9059 -7738.4266 298.1902 -9498.3325 -7736.1916 299.8699 1030.2973 1112.5945 30752.1884 4.1102 3.8623
ENERGY: 1300000 0.0000 0.0000 0.0000 0.0000 -10955.4913 1472.6948 0.0000 0.0000 1782.4501 -7700.3463 302.0100 -9482.7965 -7695.7607 300.1406 92.7600 200.2901 30496.9804 2.7937 2.9794
ENERGY: 1500000 0.0000 0.0000 0.0000 0.0000 -10694.2635 1391.2409 0.0000 0.0000 1796.7563 -7506.2664 304.4340 -9303.0226 -7501.4502 300.2599 -169.3507 -66.6447 30660.0929 2.0289 2.2964
ENERGY: 1700000 0.0000 0.0000 0.0000 0.0000 -11162.6696 1571.4229 0.0000 0.0000 1789.0792 -7802.1675 303.1332 -9591.2468 -7799.5600 300.4467 661.6741 762.5350 30043.9627 3.5043 3.5756
ENERGY: 1900000 0.0000 0.0000 0.0000 0.0000 -10803.7840 1392.9157 0.0000 0.0000 1753.5777 -7657.2906 297.1180 -9410.8683 -7654.4863 300.7332 -767.8106 -651.3140 31006.0264 1.6518 1.5524
TCL: Exiting due to exit command.
