Info: SIMULATION PARAMETERS:
Info: TIMESTEP               2
Info: NUMBER OF STEPS        0
Info: STEPS PER CYCLE        10
Info: PERIODIC CELL BASIS 1  41.545 0 0
Info: PERIODIC CELL BASIS 2  0 41.628 0
Info: PERIODIC CELL BASIS 3  0 0 41.935
Info: PERIODIC CELL CENTER   0 0 0
Info: WRAPPING WATERS AROUND PERIODIC BOUNDARIES ON OUTPUT.
Info: WRAPPING ALL CLUSTERS AROUND PERIODIC BOUNDARIES ON OUTPUT.
Info: FIRST LDB TIMESTEP     50
Info: LAST LDB TIMESTEP     -1
Info: HOM BACKGROUND SCALING 1
Info: PME BACKGROUND SCALING 1
Info: MIN ATOMS PER PATCH    40
Info: EMPTY PATCH LOAD       40 ATOMS
Info: INITIAL TEMPERATURE    300
Info: CENTER OF MASS MOVING INITIALLY? NO
Info: DIELECTRIC             1
Info: EXCLUDE                SCALED ONE-FOUR
Info: 1-4 ELECTROSTATICS SCALED BY 0.833333
Info: MODIFIED 1-4 VDW PARAMETERS WILL BE USED
Info: DCD FILENAME           mobley_5747981_min.dcd
Info: DCD FREQUENCY          5000
Info: DCD FIRST STEP         5000
Info: DCD FILE WILL CONTAIN UNIT CELL DATA
Info: XST FILENAME           mobley_5747981_min.xst
Info: XST FREQUENCY          5000
Info: NO VELOCITY DCD OUTPUT
Info: NO FORCE DCD OUTPUT
Info: OUTPUT FILENAME        mobley_5747981_min
Info: BINARY OUTPUT FILES WILL BE USED
Info: RESTART FILENAME       mobley_5747981_min.restart
Info: RESTART FREQUENCY      5000
Info: BINARY RESTART FILES WILL BE USED
Info: CUTOFF                 9
Info: PAIRLIST DISTANCE      11
Info: PAIRLIST SHRINK RATE   0.01
Info: PAIRLIST GROW RATE     0.01
Info: PAIRLIST TRIGGER       0.3
Info: PAIRLISTS PER CYCLE    2
Info: PAIRLISTS ENABLED
Info: MARGIN                 8
Info: HYDROGEN GROUP CUTOFF  2.5
Info: PATCH DIMENSION        21.5
Info: ENERGY OUTPUT STEPS    5000
Info: ENERGY EVALUATION STEPS    5000
Info: OUTPUT ENERGY PRECISION 4
Info: CROSSTERM ENERGY INCLUDED IN DIHEDRAL
Info: TIMING OUTPUT STEPS    50000
Info: PRESSURE OUTPUT STEPS  5000
Info: LANGEVIN DYNAMICS ACTIVE
Info: LANGEVIN TEMPERATURE   300
Info: LANGEVIN USING BBK INTEGRATOR
Info: LANGEVIN DAMPING COEFFICIENT IS 1 INVERSE PS
Info: LANGEVIN DYNAMICS APPLIED TO HYDROGENS
Info: LANGEVIN PISTON PRESSURE CONTROL ACTIVE
Info:        TARGET PRESSURE IS 1.01325 BAR
Info:     OSCILLATION PERIOD IS 50 FS
Info:             DECAY TIME IS 25 FS
Info:     PISTON TEMPERATURE IS 300 K
Info:       PRESSURE CONTROL IS GROUP-BASED
Info:    INITIAL STRAIN RATE IS 0 0 0
Info:       CELL FLUCTUATION IS ISOTROPIC
Info: PARTICLE MESH EWALD (PME) ACTIVE
Info: PME TOLERANCE               1e-06
Info: PME EWALD COEFFICIENT       0.348832
Info: PME INTERPOLATION ORDER     4
Info: PME GRID DIMENSIONS         44 44 44
Info: PME MAXIMUM GRID SPACING    1
Info: FULL ELECTROSTATIC EVALUATION FREQUENCY      2
Info: USING VERLET I (r-RESPA) MTS SCHEME.
Info: C1 SPLITTING OF LONG RANGE ELECTROSTATICS
Info: PLACING ATOMS IN PATCHES BY HYDROGEN GROUPS
Info: RIGID BONDS TO HYDROGEN : ALL
Info:         ERROR TOLERANCE : 1e-08
Info:          MAX ITERATIONS : 100
Info: RIGID WATER USING SETTLE ALGORITHM
Info: RANDOM NUMBER SEED     1741351841
Info: USE HYDROGEN BONDS?    NO
Info: Using AMBER format force field!
Info: AMBER PARM FILE        mobley_5747981.prmtop
Info: COORDINATE PDB         mobley_5747981.pdb
Info: Exclusions will be read from PARM file!
Info: SCNB (VDW SCALING)     2
Info: USING ARITHMETIC MEAN TO COMBINE L-J SIGMA PARAMETERS
Info: SUMMARY OF PARAMETERS:
Info: 5 BONDS
Info: 6 ANGLES
Info:   6 HARMONIC
Info:   0 COSINE-BASED
Info: 12 DIHEDRAL
Info: 0 IMPROPER
Info: 0 CROSSTERM
Info: 0 VDW
Info: 15 VDW_PAIRS
Info: 0 NBTHOLE_PAIRS
Info: STRUCTURE SUMMARY:
Info: 5187 ATOMS
Info: 5186 BONDS
Info: 40 ANGLES
Info: 65 DIHEDRALS
Info: 0 IMPROPERS
Info: 0 CROSSTERMS
Info: 5259 EXCLUSIONS
Info: 5177 RIGID BONDS
Info: 10384 DEGREES OF FREEDOM
Info: 1731 HYDROGEN GROUPS
Info: 4 ATOMS IN LARGEST HYDROGEN GROUP
Info: 1731 MIGRATION GROUPS
Info: 4 ATOMS IN LARGEST MIGRATION GROUP
Info: TOTAL MASS = 31155.7 amu
Info: TOTAL CHARGE = -0.000100121 e
Info: MASS DENSITY = 0.713372 g/cm^3
Info: ATOM DENSITY = 0.0715213 atoms/A^3
Info: ADDED 0 IMPLICIT EXCLUSIONS
Info: NONBONDED TABLE R-SQUARED SPACING: 0.0625
Info: NONBONDED TABLE SIZE: 705 POINTS
Info: REMOVING COM VELOCITY -0.188958 -0.244223 0.0483041
TCL: Minimizing for 2000 steps
ETITLE: TS BOND ANGLE DIHED IMPRP ELECT VDW BOUNDARY MISC KINETIC TOTAL TEMP POTENTIAL TOTAL3 TEMPAVG PRESSURE GPRESSURE VOLUME PRESSAVG GPRESSAVG
ENERGY: 0 0.3212 2.3910 19.6205 0.0000 -16070.3436 1795.7432 0.0000 0.0000 0.0000 -14252.2677 0.0000 -14252.2677 -14252.2677 0.0000 10933.8478 -15612.1153 72523.8676 10933.8478 -15612.1153
ENERGY: 400 2.4088 4.9546 17.9887 0.0000 -21967.9255 3343.8866 0.0000 0.0000 0.0000 -18598.6868 0.0000 -18598.6868 -18598.6868 0.0000 16416.5323 16568.8931 72523.8676 16416.5323 16568.8931
ENERGY: 800 1.1064 2.5084 17.9997 0.0000 -22918.8928 3724.5055 0.0000 0.0000 0.0000 -19172.7729 0.0000 -19172.7729 -19172.7729 0.0000 18038.8362 18164.9226 72523.8676 18038.8362 18164.9226
ENERGY: 1200 1.4835 1.9200 17.7547 0.0000 -23396.1626 3952.1521 0.0000 0.0000 0.0000 -19422.8523 0.0000 -19422.8523 -19422.8523 0.0000 19071.1184 19193.2016 72523.8676 19071.1184 19193.2016
ENERGY: 1600 0.7297 2.5036 17.7092 0.0000 -23676.3437 4083.6729 0.0000 0.0000 0.0000 -19571.7283 0.0000 -19571.7283 -19571.7283 0.0000 19694.5885 19800.7811 72523.8676 19694.5885 19800.7811
ENERGY: 2000 0.9167 2.3617 17.9959 0.0000 -23776.4071 4098.4908 0.0000 0.0000 0.0000 -19656.6421 0.0000 -19656.6421 -19656.6421 0.0000 19788.7153 19895.4860 72523.8676 19788.7153 19895.4860
TCL: Exiting due to exit command.
Info: NAMD 3.0.1 for Linux-x86_64-multicore
Info: Please visit http://www.ks.uiuc.edu/Research/namd/
Info: for updates, documentation, and support information.
Info: Please cite Phillips et al., J. Chem. Phys. 153:044130 (2020) doi:10.1063/5.0014475
Info: in all publications reporting results obtained with NAMD.
Info: Based on Charm++/Converse 80000 for multicore-linux-x86_64-gcc
Info: Built Mon Oct 14 11:11:06 CDT 2024 by dhardy on athine.ks.uiuc.edu
Info: 1 NAMD  3.0.1  Linux-x86_64-multicore  16    k141  z5358697
Info: Running on 16 processors, 1 nodes, 1 physical nodes.
Info: CPU topology information available.
Info: Charm++/Converse parallel runtime startup completed at 0.00315317 s
Info: 1043.63 MB of memory in use based on /proc/self/stat
Info: Configuration file is mobley_5747981_equil.namd
Info: Working in the current directory /srv/scratch/z5358697/prod_prep_7/5747981
TCL: Running 25000 steps at 30 kelvin.
TCL: Suspending until startup complete.
Info: SIMULATION PARAMETERS:
Info: TIMESTEP               2
Info: NUMBER OF STEPS        0
Info: STEPS PER CYCLE        10
Info: PERIODIC CELL BASIS 1  41.545 0 0
Info: PERIODIC CELL BASIS 2  0 41.628 0
Info: PERIODIC CELL BASIS 3  0 0 41.935
Info: PERIODIC CELL CENTER   0 0 0
Info: WRAPPING WATERS AROUND PERIODIC BOUNDARIES ON OUTPUT.
Info: WRAPPING ALL CLUSTERS AROUND PERIODIC BOUNDARIES ON OUTPUT.
Info: FIRST LDB TIMESTEP     50
Info: LAST LDB TIMESTEP     -1
Info: HOM BACKGROUND SCALING 1
Info: PME BACKGROUND SCALING 1
Info: MIN ATOMS PER PATCH    40
Info: EMPTY PATCH LOAD       40 ATOMS
Info: INITIAL TEMPERATURE    300
Info: CENTER OF MASS MOVING INITIALLY? NO
Info: DIELECTRIC             1
Info: EXCLUDE                SCALED ONE-FOUR
Info: 1-4 ELECTROSTATICS SCALED BY 0.833333
Info: MODIFIED 1-4 VDW PARAMETERS WILL BE USED
Info: DCD FILENAME           mobley_5747981_equil.dcd
Info: DCD FREQUENCY          5000
Info: DCD FIRST STEP         5000
Info: DCD FILE WILL CONTAIN UNIT CELL DATA
Info: XST FILENAME           mobley_5747981_equil.xst
Info: XST FREQUENCY          5000
Info: NO VELOCITY DCD OUTPUT
Info: NO FORCE DCD OUTPUT
Info: OUTPUT FILENAME        mobley_5747981_equil
Info: BINARY OUTPUT FILES WILL BE USED
Info: RESTART FILENAME       mobley_5747981_equil.restart
Info: RESTART FREQUENCY      5000
Info: BINARY RESTART FILES WILL BE USED
Info: CUTOFF                 9
Info: PAIRLIST DISTANCE      11
Info: PAIRLIST SHRINK RATE   0.01
Info: PAIRLIST GROW RATE     0.01
Info: PAIRLIST TRIGGER       0.3
Info: PAIRLISTS PER CYCLE    2
Info: PAIRLISTS ENABLED
Info: MARGIN                 8
Info: HYDROGEN GROUP CUTOFF  2.5
Info: PATCH DIMENSION        21.5
Info: ENERGY OUTPUT STEPS    5000
Info: ENERGY EVALUATION STEPS    5000
Info: OUTPUT ENERGY PRECISION 4
Info: CROSSTERM ENERGY INCLUDED IN DIHEDRAL
Info: TIMING OUTPUT STEPS    50000
Info: PRESSURE OUTPUT STEPS  5000
Info: LANGEVIN DYNAMICS ACTIVE
Info: LANGEVIN TEMPERATURE   30
Info: LANGEVIN USING BBK INTEGRATOR
Info: LANGEVIN DAMPING COEFFICIENT IS 1 INVERSE PS
Info: LANGEVIN DYNAMICS APPLIED TO HYDROGENS
Info: LANGEVIN PISTON PRESSURE CONTROL ACTIVE
Info:        TARGET PRESSURE IS 1.01325 BAR
Info:     OSCILLATION PERIOD IS 50 FS
Info:             DECAY TIME IS 25 FS
Info:     PISTON TEMPERATURE IS 300 K
Info:       PRESSURE CONTROL IS GROUP-BASED
Info:    INITIAL STRAIN RATE IS 0 0 0
Info:       CELL FLUCTUATION IS ISOTROPIC
Info: PARTICLE MESH EWALD (PME) ACTIVE
Info: PME TOLERANCE               1e-06
Info: PME EWALD COEFFICIENT       0.348832
Info: PME INTERPOLATION ORDER     4
Info: PME GRID DIMENSIONS         44 44 44
Info: PME MAXIMUM GRID SPACING    1
Info: FULL ELECTROSTATIC EVALUATION FREQUENCY      2
Info: USING VERLET I (r-RESPA) MTS SCHEME.
Info: C1 SPLITTING OF LONG RANGE ELECTROSTATICS
Info: PLACING ATOMS IN PATCHES BY HYDROGEN GROUPS
Info: RIGID BONDS TO HYDROGEN : ALL
Info:         ERROR TOLERANCE : 1e-08
Info:          MAX ITERATIONS : 100
Info: RIGID WATER USING SETTLE ALGORITHM
Info: RANDOM NUMBER SEED     1741351856
Info: USE HYDROGEN BONDS?    NO
Info: Using AMBER format force field!
Info: AMBER PARM FILE        mobley_5747981.prmtop
Info: COORDINATE PDB         mobley_5747981.pdb
Info: Exclusions will be read from PARM file!
Info: SCNB (VDW SCALING)     2
Info: USING ARITHMETIC MEAN TO COMBINE L-J SIGMA PARAMETERS
Info: BINARY COORDINATES     mobley_5747981_min.coor
Info: SUMMARY OF PARAMETERS:
Info: 5 BONDS
Info: 6 ANGLES
Info:   6 HARMONIC
Info:   0 COSINE-BASED
Info: 12 DIHEDRAL
Info: 0 IMPROPER
Info: 0 CROSSTERM
Info: 0 VDW
Info: 15 VDW_PAIRS
Info: 0 NBTHOLE_PAIRS
Info: STRUCTURE SUMMARY:
Info: 5187 ATOMS
Info: 5186 BONDS
Info: 40 ANGLES
Info: 65 DIHEDRALS
Info: 0 IMPROPERS
Info: 0 CROSSTERMS
Info: 5259 EXCLUSIONS
Info: 5177 RIGID BONDS
Info: 10384 DEGREES OF FREEDOM
Info: 1731 HYDROGEN GROUPS
Info: 4 ATOMS IN LARGEST HYDROGEN GROUP
Info: 1731 MIGRATION GROUPS
Info: 4 ATOMS IN LARGEST MIGRATION GROUP
Info: TOTAL MASS = 31155.7 amu
Info: TOTAL CHARGE = -0.000100121 e
Info: MASS DENSITY = 0.713372 g/cm^3
Info: ATOM DENSITY = 0.0715213 atoms/A^3
Info: ADDED 0 IMPLICIT EXCLUSIONS
Info: NONBONDED TABLE R-SQUARED SPACING: 0.0625
Info: NONBONDED TABLE SIZE: 705 POINTS
Info: REMOVING COM VELOCITY 0.0344885 -0.0540288 0.0374104
TCL: Running for 25000 steps
ETITLE: TS BOND ANGLE DIHED IMPRP ELECT VDW BOUNDARY MISC KINETIC TOTAL TEMP POTENTIAL TOTAL3 TEMPAVG PRESSURE GPRESSURE VOLUME PRESSAVG GPRESSAVG
ENERGY: 0 0.9167 2.3617 17.9959 0.0000 -23776.4071 4098.4908 0.0000 0.0000 2977.9645 -16678.6776 288.6325 -19656.6421 -16678.1114 288.6325 165.9869 203.4876 72523.8676 165.9869 203.4876
ENERGY: 5000 1.0280 2.4588 18.3825 0.0000 -24854.0333 4311.1982 0.0000 0.0000 306.8384 -20214.1276 29.7396 -20520.9659 -20212.9792 46.8008 37.2672 89.2866 50790.2563 -1.7465 -1.5511
ENERGY: 10000 1.1951 3.7197 17.8869 0.0000 -24882.9721 4323.0062 0.0000 0.0000 309.9582 -20227.2061 30.0420 -20537.1643 -20226.2268 30.2190 58.2177 125.5931 50685.2802 9.3770 9.2010
ENERGY: 15000 0.7738 2.2072 18.0119 0.0000 -24884.5065 4323.1827 0.0000 0.0000 309.1894 -20231.1415 29.9675 -20540.3310 -20230.0597 30.3682 65.6584 119.9946 50720.5389 1.0029 0.9068
ENERGY: 20000 1.4251 2.9401 18.1910 0.0000 -24943.6375 4359.1546 0.0000 0.0000 310.6124 -20251.3145 30.1054 -20561.9268 -20250.6531 30.3200 221.9548 275.7163 50573.9789 5.1938 5.1710
ENERGY: 25000 1.0698 2.7960 17.6687 0.0000 -24982.6694 4396.4333 0.0000 0.0000 317.9109 -20246.7907 30.8128 -20564.7016 -20246.0748 30.2610 350.2661 421.7226 50693.3534 5.0323 4.9679
TCL: Running 25000 steps at 60 kelvin.
TCL: Setting parameter langevinTemp to 60
TCL: Running for 25000 steps
ETITLE: TS BOND ANGLE DIHED IMPRP ELECT VDW BOUNDARY MISC KINETIC TOTAL TEMP POTENTIAL TOTAL3 TEMPAVG PRESSURE GPRESSURE VOLUME PRESSAVG GPRESSAVG
ENERGY: 25000 1.0698 2.7960 17.6687 0.0000 -24982.6694 4396.4333 0.0000 0.0000 317.7581 -20246.9435 30.7980 -20564.7016 -20246.4417 30.7980 360.9137 421.6466 50693.3534 360.9137 421.6466
ENERGY: 30000 0.8573 4.2560 17.9304 0.0000 -24572.4259 4270.6163 0.0000 0.0000 630.3290 -19648.4370 61.0932 -20278.7659 -19647.1474 57.2369 382.1592 438.5570 50691.5454 4.6602 4.5182
ENERGY: 35000 1.8042 3.7689 19.0173 0.0000 -24405.5455 4073.5290 0.0000 0.0000 620.9495 -19686.4768 60.1841 -20307.4262 -19684.4920 59.9818 -617.5601 -566.0946 50934.9361 2.3683 2.4432
ENERGY: 40000 0.7001 3.4475 18.5694 0.0000 -24547.7778 4211.8902 0.0000 0.0000 614.3303 -19698.8404 59.5426 -20313.1707 -19696.7058 60.2252 34.9367 82.1783 50787.5417 0.0242 0.0909
ENERGY: 45000 1.5619 4.0832 17.9274 0.0000 -24435.4486 4047.4804 0.0000 0.0000 638.8404 -19725.5553 61.9182 -20364.3957 -19723.3792 59.8683 -864.3033 -836.3688 50920.9459 2.7659 2.7296
ENERGY: 50000 0.6640 4.0107 18.2986 0.0000 -24637.1677 4218.9148 0.0000 0.0000 600.5183 -19794.7613 58.2039 -20395.2796 -19792.9939 60.2152 -9.6466 12.9545 50698.0583 -0.0215 -0.0325
TCL: Running 25000 steps at 90 kelvin.
TCL: Setting parameter langevinTemp to 90
TCL: Running for 25000 steps
ETITLE: TS BOND ANGLE DIHED IMPRP ELECT VDW BOUNDARY MISC KINETIC TOTAL TEMP POTENTIAL TOTAL3 TEMPAVG PRESSURE GPRESSURE VOLUME PRESSAVG GPRESSAVG
ENERGY: 50000 0.6640 4.0107 18.2986 0.0000 -24637.1677 4218.9148 0.0000 0.0000 600.2059 -19795.0736 58.1736 -20395.2796 -19793.6923 58.1736 -34.1074 12.8541 50698.0583 -34.1074 12.8541
ENERGY: 55000 1.5271 5.5425 18.2555 0.0000 -24343.3894 4198.2420 0.0000 0.0000 922.9836 -19196.8387 89.4581 -20119.8223 -19194.2483 86.6142 367.9002 431.8133 50881.1535 1.5647 1.2681
ENERGY: 60000 0.8453 5.6061 18.0431 0.0000 -24186.0811 4028.4392 0.0000 0.0000 934.3327 -19198.8149 90.5581 -20133.1475 -19196.4450 90.1492 -369.8076 -303.7785 50598.6772 8.5351 8.3159
ENERGY: 65000 1.0493 6.0396 17.9831 0.0000 -24358.8247 4152.9444 0.0000 0.0000 931.4945 -19249.3139 90.2830 -20180.8084 -19247.1493 90.2990 138.5097 196.2402 50540.9571 4.7176 5.1528
ENERGY: 70000 1.5310 5.1273 18.1022 0.0000 -24317.6827 4053.1795 0.0000 0.0000 917.7070 -19322.0357 88.9467 -20239.7427 -19319.6061 89.5452 -553.3164 -485.4509 50766.0361 2.0298 2.1175
ENERGY: 75000 2.1991 6.6654 18.5468 0.0000 -24395.8364 4158.1261 0.0000 0.0000 934.4071 -19275.8918 90.5653 -20210.2989 -19273.1651 89.8853 155.6098 214.8705 50246.4722 5.7742 5.8067
TCL: Running 25000 steps at 120 kelvin.
TCL: Setting parameter langevinTemp to 120
TCL: Running for 25000 steps
ETITLE: TS BOND ANGLE DIHED IMPRP ELECT VDW BOUNDARY MISC KINETIC TOTAL TEMP POTENTIAL TOTAL3 TEMPAVG PRESSURE GPRESSURE VOLUME PRESSAVG GPRESSAVG
ENERGY: 75000 2.1991 6.6654 18.5468 0.0000 -24395.8364 4158.1261 0.0000 0.0000 933.9280 -19276.3709 90.5189 -20210.2989 -19274.7144 90.5189 152.1087 215.5216 50246.4722 152.1087 215.5216
ENERGY: 80000 2.0295 7.3450 18.0109 0.0000 -23948.0711 4019.5623 0.0000 0.0000 1241.0391 -18660.0842 120.2849 -19901.1234 -18656.2841 116.5198 190.4695 234.6523 50528.9312 6.5609 6.2902
ENERGY: 85000 2.0536 5.8402 18.3896 0.0000 -23815.4962 3884.0465 0.0000 0.0000 1237.4150 -18667.7513 119.9337 -19905.1664 -18663.9662 120.1137 -616.7052 -558.0317 50876.5885 1.1518 1.1477
ENERGY: 90000 1.7683 6.5335 18.8157 0.0000 -23932.2495 3960.4185 0.0000 0.0000 1253.7536 -18690.9599 121.5172 -19944.7135 -18688.7635 120.2208 -227.4179 -144.0815 50435.5608 0.7458 0.1645
ENERGY: 95000 1.5126 9.8827 18.6120 0.0000 -24112.4718 4088.6833 0.0000 0.0000 1250.5140 -18743.2672 121.2033 -19993.7812 -18740.8475 120.6088 137.0229 198.3944 50629.8368 1.0957 0.9470
ENERGY: 100000 2.0135 6.0281 18.2362 0.0000 -23937.1135 3934.2989 0.0000 0.0000 1247.6396 -18728.8972 120.9247 -19976.5368 -18725.7539 119.6966 -577.1139 -512.6570 50870.7157 1.2286 1.1659
TCL: Running 25000 steps at 150 kelvin.
TCL: Setting parameter langevinTemp to 150
TCL: Running for 25000 steps
ETITLE: TS BOND ANGLE DIHED IMPRP ELECT VDW BOUNDARY MISC KINETIC TOTAL TEMP POTENTIAL TOTAL3 TEMPAVG PRESSURE GPRESSURE VOLUME PRESSAVG GPRESSAVG
ENERGY: 100000 2.0135 6.0281 18.2362 0.0000 -23937.1135 3934.2989 0.0000 0.0000 1247.0263 -18729.5105 120.8652 -19976.5368 -18726.9994 120.8652 -566.6215 -513.1392 50870.7157 -566.6215 -513.1392
ENERGY: 105000 1.3914 8.8008 18.1291 0.0000 -23406.6533 3753.7898 0.0000 0.0000 1558.1727 -18066.3695 151.0224 -19624.5422 -18063.0944 147.3343 -597.5936 -561.3609 51124.2894 0.9118 0.7480
ENERGY: 110000 1.8441 7.8521 18.9221 0.0000 -23463.9067 3837.0886 0.0000 0.0000 1538.0157 -18060.1841 149.0687 -19598.1998 -18058.8800 150.2220 -198.7009 -144.2386 50760.2284 -1.3362 -1.4046
ENERGY: 115000 2.3429 7.8991 18.2783 0.0000 -23514.4425 3863.6768 0.0000 0.0000 1534.7268 -18087.5187 148.7499 -19622.2455 -18083.2294 150.2224 -147.4800 -87.2571 50803.9920 4.7688 4.3541
ENERGY: 120000 2.4666 6.0649 18.7023 0.0000 -23640.0105 3948.0140 0.0000 0.0000 1541.5829 -18123.1798 149.4144 -19664.7626 -18118.9120 150.1662 230.3265 270.3494 50644.5022 2.2472 1.8659
ENERGY: 125000 2.9611 6.4701 20.0724 0.0000 -23701.4343 3972.2228 0.0000 0.0000 1533.0308 -18166.6771 148.5856 -19699.7079 -18162.6016 149.2317 241.1181 279.1206 50466.0859 -0.2309 -0.5864
TCL: Running 50000 steps at 180 kelvin.
TCL: Setting parameter langevinTemp to 180
TCL: Running for 50000 steps
ETITLE: TS BOND ANGLE DIHED IMPRP ELECT VDW BOUNDARY MISC KINETIC TOTAL TEMP POTENTIAL TOTAL3 TEMPAVG PRESSURE GPRESSURE VOLUME PRESSAVG GPRESSAVG
ENERGY: 125000 2.9611 6.4701 20.0724 0.0000 -23701.4343 3972.2228 0.0000 0.0000 1532.2686 -18167.4394 148.5117 -19699.7079 -18164.7009 148.5117 211.9477 279.7475 50466.0859 211.9477 279.7475
ENERGY: 135000 2.5822 8.3311 18.0881 0.0000 -23074.6694 3849.4064 0.0000 0.0000 1862.1302 -17334.1313 180.4828 -19196.2615 -17329.9184 181.5945 752.9576 804.9601 50534.7170 3.9602 4.0535
ENERGY: 145000 3.5075 8.1986 19.0271 0.0000 -23008.7826 3733.1595 0.0000 0.0000 1843.9607 -17400.9292 178.7217 -19244.8899 -17397.8444 178.9918 177.8116 255.3816 50355.0551 4.7754 4.6717
ENERGY: 155000 2.1717 10.0566 19.3638 0.0000 -22902.7218 3652.3217 0.0000 0.0000 1881.7141 -17337.0939 182.3809 -19218.8079 -17333.0991 180.6122 -222.1069 -159.3085 50784.1430 2.2371 2.2702
ENERGY: 165000 0.9158 5.4939 18.7991 0.0000 -22890.6060 3698.3784 0.0000 0.0000 1865.3797 -17301.6391 180.7977 -19167.0188 -17296.8740 179.2309 84.2798 146.2025 50922.0283 4.2426 4.1731
ENERGY: 175000 2.7337 6.2834 19.8708 0.0000 -22876.0206 3615.5365 0.0000 0.0000 1872.1672 -17359.4290 181.4556 -19231.5963 -17354.4780 181.0957 -363.2959 -313.9348 50912.3504 1.0286 0.7088
TCL: Running 50000 steps at 210 kelvin.
TCL: Setting parameter langevinTemp to 210
TCL: Running for 50000 steps
ETITLE: TS BOND ANGLE DIHED IMPRP ELECT VDW BOUNDARY MISC KINETIC TOTAL TEMP POTENTIAL TOTAL3 TEMPAVG PRESSURE GPRESSURE VOLUME PRESSAVG GPRESSAVG
ENERGY: 175000 2.7337 6.2834 19.8708 0.0000 -22876.0206 3615.5365 0.0000 0.0000 1871.2399 -17360.3564 181.3657 -19231.5963 -17357.1127 181.3657 -382.6291 -312.8843 50912.3504 -382.6291 -312.8843
ENERGY: 185000 2.5514 9.6755 18.3788 0.0000 -21681.6083 3198.4480 0.0000 0.0000 2176.2435 -16276.3111 210.9275 -18452.5546 -16273.6577 209.8720 -647.1677 -568.1976 50672.1719 -1.6079 -1.5958
ENERGY: 195000 2.4746 11.1568 17.8295 0.0000 -21719.9725 3250.4869 0.0000 0.0000 2217.3342 -16220.6905 214.9101 -18438.0246 -16215.7209 209.7171 -240.0045 -188.3884 50336.3360 1.9517 1.8500
ENERGY: 205000 4.5508 7.4106 18.5512 0.0000 -21751.0986 3245.7813 0.0000 0.0000 2212.0441 -16262.7606 214.3974 -18474.8046 -16256.9165 209.8727 -516.6875 -398.4436 50760.4527 2.5230 2.4859
ENERGY: 215000 2.1030 7.7499 18.2510 0.0000 -21788.8471 3294.6275 0.0000 0.0000 2145.2896 -16320.8261 207.9274 -18466.1157 -16315.6380 211.5680 -310.4826 -181.6960 50701.8888 0.8591 1.4661
ENERGY: 225000 4.7636 6.9647 20.2621 0.0000 -21680.4928 3270.8486 0.0000 0.0000 2160.0222 -16217.6315 209.3553 -18377.6537 -16213.4191 210.4032 -446.6980 -378.1374 51368.8374 2.7926 3.1365
TCL: Running 50000 steps at 240 kelvin.
TCL: Setting parameter langevinTemp to 240
TCL: Running for 50000 steps
ETITLE: TS BOND ANGLE DIHED IMPRP ELECT VDW BOUNDARY MISC KINETIC TOTAL TEMP POTENTIAL TOTAL3 TEMPAVG PRESSURE GPRESSURE VOLUME PRESSAVG GPRESSAVG
ENERGY: 225000 4.7636 6.9647 20.2621 0.0000 -21680.4928 3270.8486 0.0000 0.0000 2158.9384 -16218.7153 209.2502 -18377.6537 -16214.6575 209.2502 -451.4337 -378.0853 51368.8374 -451.4337 -378.0853
ENERGY: 235000 1.0578 9.9488 18.7104 0.0000 -20687.6180 3017.4274 0.0000 0.0000 2449.1570 -15191.3166 237.3790 -17640.4736 -15186.7490 241.4161 -21.4507 122.4416 51156.4447 4.1086 4.3641
ENERGY: 245000 1.9498 9.3695 19.5146 0.0000 -20710.2655 2947.7297 0.0000 0.0000 2447.9793 -15283.7225 237.2649 -17731.7019 -15276.6451 240.7156 -354.5676 -290.7454 50920.4317 -1.8998 -2.2020
ENERGY: 255000 1.7018 19.7586 18.5744 0.0000 -20784.2940 3052.1898 0.0000 0.0000 2435.8483 -15256.2212 236.0891 -17692.0695 -15249.9718 239.3624 171.5178 243.6842 50923.6105 7.3185 7.5420
ENERGY: 265000 2.0028 12.3600 18.3085 0.0000 -20716.8919 2999.6083 0.0000 0.0000 2478.6991 -15205.9132 240.2423 -17684.6123 -15199.5303 240.9819 -85.8068 -25.6028 51278.1467 5.2342 5.2040
ENERGY: 275000 2.1230 12.0804 19.1715 0.0000 -20790.9655 3078.9842 0.0000 0.0000 2458.4326 -15220.1738 238.2780 -17678.6064 -15215.4630 239.9898 341.2161 386.6948 50952.2357 3.6330 3.2303
TCL: Running 50000 steps at 270 kelvin.
TCL: Setting parameter langevinTemp to 270
TCL: Running for 50000 steps
ETITLE: TS BOND ANGLE DIHED IMPRP ELECT VDW BOUNDARY MISC KINETIC TOTAL TEMP POTENTIAL TOTAL3 TEMPAVG PRESSURE GPRESSURE VOLUME PRESSAVG GPRESSAVG
ENERGY: 275000 2.1230 12.0804 19.1715 0.0000 -20790.9655 3078.9842 0.0000 0.0000 2457.1977 -15221.4087 238.1583 -17678.6064 -15217.5902 238.1583 305.5465 385.6058 50952.2357 305.5465 385.6058
ENERGY: 285000 5.7667 11.9447 19.1875 0.0000 -19626.2587 2652.8203 0.0000 0.0000 2894.1662 -14042.3734 280.5105 -16936.5397 -14033.1141 271.7627 -680.4730 -619.8396 52580.4344 4.2939 4.2024
ENERGY: 295000 3.6321 10.3093 18.3256 0.0000 -19657.1490 2671.9302 0.0000 0.0000 2761.0147 -14191.9373 267.6051 -16952.9519 -14186.8487 269.6459 -410.4752 -303.1800 51832.7222 0.5963 0.9163
ENERGY: 305000 1.1085 10.6380 18.4104 0.0000 -19524.7570 2612.5816 0.0000 0.0000 2763.1272 -14118.8913 267.8099 -16882.0185 -14111.5276 270.2856 -587.4004 -512.4463 52364.4523 2.6736 2.5456
ENERGY: 315000 2.5289 11.0878 19.9771 0.0000 -19658.2689 2664.2010 0.0000 0.0000 2735.2974 -14225.1767 265.1125 -16960.4741 -14220.9628 268.3375 -505.4224 -430.9580 52056.8989 4.1630 4.5154
ENERGY: 325000 2.8856 12.1604 20.3274 0.0000 -19643.9389 2726.2430 0.0000 0.0000 2794.6481 -14087.6745 270.8650 -16882.3226 -14080.8225 270.5302 -280.7460 -201.1598 52714.8317 -2.7038 -2.8932
TCL: Running 1000000 steps at 300 kelvin.
TCL: Setting parameter langevinTemp to 300
TCL: Running for 1000000 steps
ETITLE: TS BOND ANGLE DIHED IMPRP ELECT VDW BOUNDARY MISC KINETIC TOTAL TEMP POTENTIAL TOTAL3 TEMPAVG PRESSURE GPRESSURE VOLUME PRESSAVG GPRESSAVG
ENERGY: 325000 2.8856 12.1604 20.3274 0.0000 -19643.9389 2726.2430 0.0000 0.0000 2793.2674 -14089.0552 270.7311 -16882.3226 -14084.1613 270.7311 -296.2020 -201.3531 52714.8317 -296.2020 -201.3531
ENERGY: 525000 4.2529 12.0210 19.2911 0.0000 -18806.7925 2565.2333 0.0000 0.0000 3093.2764 -13112.7178 299.8088 -16205.9942 -13104.1232 300.1635 168.3525 219.4115 53421.3093 9.8856 10.7239
ENERGY: 725000 1.6902 16.6936 19.1638 0.0000 -18860.6394 2518.3754 0.0000 0.0000 3048.8526 -13255.8637 295.5032 -16304.7163 -13244.9497 297.1371 -126.6028 -63.9353 53380.4363 4.3116 4.1771
ENERGY: 925000 4.9345 12.2350 20.3355 0.0000 -18659.4074 2453.0322 0.0000 0.0000 3126.6782 -13042.1921 303.0462 -16168.8703 -13036.1339 300.4887 -279.0290 -206.5326 54059.4920 2.3431 2.7854
ENERGY: 1125000 3.8773 12.1390 19.2424 0.0000 -18744.5140 2552.4608 0.0000 0.0000 3130.2491 -13026.5454 303.3923 -16156.7946 -13020.9900 300.4143 261.9112 333.2066 53522.5948 1.1706 0.6127
ENERGY: 1325000 2.6390 14.2850 21.3351 0.0000 -18983.5361 2663.0618 0.0000 0.0000 3100.0008 -13182.2145 300.4606 -16282.2153 -13176.5406 299.3000 530.1079 644.7530 53332.0616 1.4161 1.1214
TCL: Exiting due to exit command.
