Info: SIMULATION PARAMETERS:
Info: TIMESTEP               2
Info: NUMBER OF STEPS        0
Info: STEPS PER CYCLE        10
Info: PERIODIC CELL BASIS 1  32.0494 0 0
Info: PERIODIC CELL BASIS 2  0 30.1227 0
Info: PERIODIC CELL BASIS 3  0 0 31.9769
Info: PERIODIC CELL CENTER   0 0 0
Info: WRAPPING WATERS AROUND PERIODIC BOUNDARIES ON OUTPUT.
Info: WRAPPING ALL CLUSTERS AROUND PERIODIC BOUNDARIES ON OUTPUT.
Info: FIRST LDB TIMESTEP     50
Info: LAST LDB TIMESTEP     -1
Info: HOM BACKGROUND SCALING 1
Info: PME BACKGROUND SCALING 1
Info: MIN ATOMS PER PATCH    40
Info: EMPTY PATCH LOAD       40 ATOMS
Info: VELOCITY FILE          mobley_2837389_equil.vel
Info: CENTER OF MASS MOVING INITIALLY? NO
Info: DIELECTRIC             1
Info: EXCLUDE                SCALED ONE-FOUR
Info: 1-4 ELECTROSTATICS SCALED BY 0.833333
Info: MODIFIED 1-4 VDW PARAMETERS WILL BE USED
Info: DCD FILENAME           mobley_2837389_prod.dcd
Info: DCD FREQUENCY          100000
Info: DCD FIRST STEP         100000
Info: DCD FILE WILL CONTAIN UNIT CELL DATA
Info: XST FILENAME           mobley_2837389_prod.xst
Info: XST FREQUENCY          100000
Info: NO VELOCITY DCD OUTPUT
Info: NO FORCE DCD OUTPUT
Info: OUTPUT FILENAME        mobley_2837389_prod
Info: BINARY OUTPUT FILES WILL BE USED
Info: RESTART FILENAME       mobley_2837389_prod.restart
Info: RESTART FREQUENCY      100000
Info: BINARY RESTART FILES WILL BE USED
Info: CUTOFF                 9
Info: PAIRLIST DISTANCE      11
Info: PAIRLIST SHRINK RATE   0.01
Info: PAIRLIST GROW RATE     0.01
Info: PAIRLIST TRIGGER       0.3
Info: PAIRLISTS PER CYCLE    2
Info: PAIRLISTS ENABLED
Info: MARGIN                 2
Info: HYDROGEN GROUP CUTOFF  2.5
Info: PATCH DIMENSION        15.5
Info: ENERGY OUTPUT STEPS    100000
Info: ENERGY EVALUATION STEPS    100000
Info: OUTPUT ENERGY PRECISION 4
Info: CROSSTERM ENERGY INCLUDED IN DIHEDRAL
Info: TIMING OUTPUT STEPS    1000000
Info: PRESSURE OUTPUT STEPS  100000
Info: ALCHEMICAL FEP ON
Info: FEP CURRENT LAMBDA VALUE     1
Info: FEP COMPARISON LAMBDA VALUE  0.95
Info: FEP INTRA-ALCHEMICAL NON-BONDED INTERACTIONS WILL BE RETAINED
Info: FEP INTRA-ALCHEMICAL BONDED INTERACTIONS WILL BE RETAINED
Info: FEP VDW SHIFTING COEFFICIENT 5
Info: FEP ELEC. ACTIVE FOR ANNIHILATED PARTICLES BETWEEN LAMBDA = 0 AND LAMBDA = 0.5
Info: FEP ELEC. ACTIVE FOR EXNIHILATED PARTICLES BETWEEN LAMBDA = 0.5 AND LAMBDA = 1
Info: FEP VDW ACTIVE FOR ANNIHILATED PARTICLES BETWEEN LAMBDA = 0 AND LAMBDA = 1
Info: FEP VDW ACTIVE FOR EXNIHILATED PARTICLES BETWEEN LAMBDA = 0 AND LAMBDA = 1
Info: FEP BOND ACTIVE FOR ANNIHILATED PARTICLES BETWEEN LAMBDA = 1 AND LAMBDA = 1
Info: FEP BOND ACTIVE FOR EXNIHILATED PARTICLES BETWEEN LAMBDA = 0 AND LAMBDA = 0
Info: LANGEVIN DYNAMICS ACTIVE
Info: LANGEVIN TEMPERATURE   300
Info: LANGEVIN USING BBK INTEGRATOR
Info: LANGEVIN DAMPING COEFFICIENT IS 1 INVERSE PS
Info: LANGEVIN DYNAMICS APPLIED TO HYDROGENS
Info: LANGEVIN PISTON PRESSURE CONTROL ACTIVE
Info:        TARGET PRESSURE IS 1.01325 BAR
Info:     OSCILLATION PERIOD IS 50 FS
Info:             DECAY TIME IS 25 FS
Info:     PISTON TEMPERATURE IS 300 K
Info:       PRESSURE CONTROL IS GROUP-BASED
Info:    INITIAL STRAIN RATE IS -0.000294784 -0.000294784 -0.000294784
Info:       CELL FLUCTUATION IS ISOTROPIC
Info: PARTICLE MESH EWALD (PME) ACTIVE
Info: PME TOLERANCE               1e-06
Info: PME EWALD COEFFICIENT       0.348832
Info: PME INTERPOLATION ORDER     4
Info: PME GRID DIMENSIONS         36 32 32
Info: PME MAXIMUM GRID SPACING    1
Info: PME CALCULATION WILL BE PERFORMED ON GPU
Info: FULL ELECTROSTATIC EVALUATION FREQUENCY      2
Info: USING VERLET I (r-RESPA) MTS SCHEME.
Info: C1 SPLITTING OF LONG RANGE ELECTROSTATICS
Info: PLACING ATOMS IN PATCHES BY HYDROGEN GROUPS
Info: RIGID BONDS TO HYDROGEN : ALL
Info:         ERROR TOLERANCE : 1e-08
Info:          MAX ITERATIONS : 100
Info: RIGID WATER USING SETTLE ALGORITHM
Info: RANDOM NUMBER SEED     1742121955
Info: USE HYDROGEN BONDS?    NO
Info: Using AMBER format force field!
Info: AMBER PARM FILE        mobley_2837389.prmtop
Info: COORDINATE PDB         mobley_2837389.pdb
Info: Exclusions will be read from PARM file!
Info: SCNB (VDW SCALING)     2
Info: USING ARITHMETIC MEAN TO COMBINE L-J SIGMA PARAMETERS
Info: BINARY COORDINATES     mobley_2837389_equil.coor
Info: SUMMARY OF PARAMETERS:
Info: 8 BONDS
Info: 8 ANGLES
Info:   8 HARMONIC
Info:   0 COSINE-BASED
Info: 3 DIHEDRAL
Info: 0 IMPROPER
Info: 0 CROSSTERM
Info: 0 VDW
Info: 28 VDW_PAIRS
Info: 0 NBTHOLE_PAIRS
Info: To read alchdata from file: mobley_2837389.pdb
Info: To read alchflag data from column: 5
Info: STRUCTURE SUMMARY:
Info: 2959 ATOMS
Info: 2959 BONDS
Info: 15 ANGLES
Info: 21 DIHEDRALS
Info: 0 IMPROPERS
Info: 0 CROSSTERMS
Info: 2989 EXCLUSIONS
Info: 2954 RIGID BONDS
Info: ALCH: 0 ATOMS TO DISAPPEAR IN FINAL STATE
Info: ALCH: 10 ATOMS TO APPEAR IN FINAL STATE
Info: 5923 DEGREES OF FREEDOM
Info: 988 HYDROGEN GROUPS
Info: 3 ATOMS IN LARGEST HYDROGEN GROUP
Info: 988 MIGRATION GROUPS
Info: 3 ATOMS IN LARGEST MIGRATION GROUP
Info: TOTAL MASS = 17776.8 amu
Info: TOTAL CHARGE = -0.000100017 e
Info: MASS DENSITY = 0.956231 g/cm^3
Info: ATOM DENSITY = 0.0958505 atoms/A^3
Info: ADDED 0 IMPLICIT EXCLUSIONS
Info: NONBONDED TABLE R-SQUARED SPACING: 0.0625
Info: NONBONDED TABLE SIZE: 705 POINTS
Info: REMOVING COM VELOCITY 0.0509763 0.094155 0.228481
Info: Use 3D box decompostion in PME FFT.
Info: Updated CUDA force table with 4096 elements.
Info: Updated CUDA LJ table with 7 x 7 elements.
Info: Found 11 unique exclusion lists needing 16 bytes
TCL: Running for 1500000 steps
ETITLE: TS BOND ANGLE DIHED IMPRP ELECT VDW BOUNDARY MISC KINETIC TOTAL TEMP POTENTIAL TOTALAVG TEMPAVG PRESSURE GPRESSURE VOLUME PRESSAVG GPRESSAVG
ENERGY: 0 0.7841 9.0765 0.9107 0.0000 -10687.1616 1376.0572 0.0000 0.0000 1731.1889 -7569.1442 294.1664 -9300.3332 -7569.1442 294.1664 -779.2507 -700.2204 30870.9987 -779.2507 -700.2204
ENERGY: 300000 2.5073 8.1323 2.4751 0.0000 -10777.1192 1472.2789 0.0000 0.0000 1760.3217 -7531.4039 299.1167 -9291.7256 -7539.5065 297.3955 44.2439 126.2179 30366.7984 -436.0284 -349.4683
ENERGY: 600000 2.0450 8.1310 1.1689 0.0000 -10770.7456 1490.8457 0.0000 0.0000 1752.2813 -7516.2739 297.7505 -9268.5552 -7527.1100 299.3076 342.9493 341.8782 30413.4094 -268.8830 -194.9015
ENERGY: 900000 1.3824 7.4729 1.0195 0.0000 -10751.7473 1451.4223 0.0000 0.0000 1741.4794 -7548.9709 295.9150 -9290.4503 -7534.4474 298.8202 -29.6857 10.6096 30461.6162 -318.5429 -244.7102
ENERGY: 1200000 1.7113 7.8396 1.9613 0.0000 -10679.6029 1376.0101 0.0000 0.0000 1756.8861 -7535.1946 298.5329 -9292.0806 -7521.6068 299.4225 -566.4584 -452.4600 30672.2289 -218.8705 -147.2063
ENERGY: 1500000 0.3355 8.6858 2.7709 0.0000 -10749.1557 1435.7439 0.0000 0.0000 1763.9295 -7537.6901 299.7298 -9301.6196 -7525.7147 299.2705 57.3424 121.4748 30402.9915 -204.2457 -138.8071
TCL: Running FEP window   2: Lambda1 0.95   Lambda2 0.8999999999999999 [dLambda -0.050000000000000044]
TCL: Setting parameter firsttimestep to 0
TCL: Setting parameter alchLambda to 0.95
Info: NONBONDED TABLE R-SQUARED SPACING: 0.0625
Info: NONBONDED TABLE SIZE: 705 POINTS
TCL: Setting parameter alchLambda2 to 0.8999999999999999
Info: NONBONDED TABLE R-SQUARED SPACING: 0.0625
Info: NONBONDED TABLE SIZE: 705 POINTS
TCL: Running for 1500000 steps
ETITLE: TS BOND ANGLE DIHED IMPRP ELECT VDW BOUNDARY MISC KINETIC TOTAL TEMP POTENTIAL TOTALAVG TEMPAVG PRESSURE GPRESSURE VOLUME PRESSAVG GPRESSAVG
ENERGY: 0 0.3355 8.6858 2.7709 0.0000 -10747.9803 1435.5578 0.0000 0.0000 1763.0676 -7537.5628 299.5833 -9300.6303 -7537.5628 299.5833 19.4535 113.5730 30402.9915 19.4535 113.5730
ENERGY: 300000 0.6175 11.2400 2.6258 0.0000 -10790.3982 1457.2145 0.0000 0.0000 1762.8585 -7555.8419 299.5478 -9318.7004 -7505.8278 301.3190 22.9550 109.5175 30238.5655 -54.3536 23.6459
ENERGY: 600000 1.5004 8.5272 1.3663 0.0000 -10632.0390 1336.2583 0.0000 0.0000 1726.1690 -7558.2176 293.3134 -9284.3866 -7521.9292 298.8162 -936.8865 -897.5852 30634.3226 -122.0561 -53.6066
ENERGY: 900000 2.2103 8.3702 0.5316 0.0000 -10614.7415 1399.8795 0.0000 0.0000 1756.5661 -7447.1838 298.4786 -9203.7499 -7502.0127 299.0110 -103.3764 16.7167 30248.5319 -210.8490 -135.1397
ENERGY: 1200000 1.1736 8.7838 8.6860 0.0000 -10813.2247 1456.0302 0.0000 0.0000 1755.7959 -7582.7552 298.3477 -9338.5511 -7508.9337 299.1516 224.4310 272.9616 29984.9802 -176.1044 -106.7809
ENERGY: 1500000 0.8875 7.2674 1.1680 0.0000 -10641.4833 1411.4793 0.0000 0.0000 1772.7557 -7447.9253 301.2295 -9220.6810 -7511.7818 299.5879 -212.9432 -242.6389 30960.2037 -204.8721 -136.3954
TCL: Running FEP window   3: Lambda1 0.8999999999999999 Lambda2 0.8499999999999999 [dLambda -0.050000000000000044]
TCL: Setting parameter firsttimestep to 0
TCL: Setting parameter alchLambda to 0.8999999999999999
Info: NONBONDED TABLE R-SQUARED SPACING: 0.0625
Info: NONBONDED TABLE SIZE: 705 POINTS
TCL: Setting parameter alchLambda2 to 0.8499999999999999
Info: NONBONDED TABLE R-SQUARED SPACING: 0.0625
Info: NONBONDED TABLE SIZE: 705 POINTS
TCL: Running for 1500000 steps
ETITLE: TS BOND ANGLE DIHED IMPRP ELECT VDW BOUNDARY MISC KINETIC TOTAL TEMP POTENTIAL TOTALAVG TEMPAVG PRESSURE GPRESSURE VOLUME PRESSAVG GPRESSAVG
ENERGY: 0 0.8875 7.2674 1.1680 0.0000 -10639.7908 1410.4909 0.0000 0.0000 1771.8294 -7448.1475 301.0721 -9219.9769 -7448.1475 301.0721 -343.2465 -260.2907 30960.2037 -343.2465 -260.2907
ENERGY: 300000 3.4437 10.8765 2.0961 0.0000 -10763.1579 1494.8455 0.0000 0.0000 1766.9152 -7484.9810 300.2371 -9251.8962 -7472.1352 301.7199 341.1624 470.0717 30585.5534 -81.0824 -21.7836
ENERGY: 600000 3.4784 6.1365 2.4637 0.0000 -10662.0668 1423.9996 0.0000 0.0000 1728.1582 -7497.8304 293.6514 -9225.9886 -7485.0899 299.6351 96.8856 130.5448 30233.6382 -53.8781 -9.4494
ENERGY: 900000 0.5547 9.8086 3.6096 0.0000 -10885.7572 1486.4244 0.0000 0.0000 1765.8439 -7619.5159 300.0551 -9385.3598 -7501.1799 299.9596 -64.4900 44.1224 30403.5717 -42.5378 5.4857
ENERGY: 1200000 2.3658 5.6479 3.5117 0.0000 -10641.4927 1373.5382 0.0000 0.0000 1771.3833 -7485.0458 300.9963 -9256.4292 -7502.4975 299.7675 -434.1080 -369.3643 30372.8107 -89.7026 -38.7810
ENERGY: 1500000 2.8462 7.7889 1.5223 0.0000 -10779.1714 1395.5867 0.0000 0.0000 1790.0092 -7581.4180 304.1613 -9371.4272 -7507.5732 300.3023 -710.9556 -662.5433 30402.9529 -139.8561 -89.8293
TCL: Running FEP window   4: Lambda1 0.8499999999999999 Lambda2 0.7999999999999998 [dLambda -0.050000000000000044]
TCL: Setting parameter firsttimestep to 0
TCL: Setting parameter alchLambda to 0.8499999999999999
Info: NONBONDED TABLE R-SQUARED SPACING: 0.0625
Info: NONBONDED TABLE SIZE: 705 POINTS
TCL: Setting parameter alchLambda2 to 0.7999999999999998
Info: NONBONDED TABLE R-SQUARED SPACING: 0.0625
Info: NONBONDED TABLE SIZE: 705 POINTS
TCL: Running for 1500000 steps
ETITLE: TS BOND ANGLE DIHED IMPRP ELECT VDW BOUNDARY MISC KINETIC TOTAL TEMP POTENTIAL TOTALAVG TEMPAVG PRESSURE GPRESSURE VOLUME PRESSAVG GPRESSAVG
ENERGY: 0 2.8462 7.7889 1.5223 0.0000 -10778.1874 1395.6418 0.0000 0.0000 1789.1425 -7581.2456 304.0140 -9370.3881 -7581.2456 304.0140 -743.9032 -667.5715 30402.9529 -743.9032 -667.5715
ENERGY: 300000 0.4586 8.8258 2.4469 0.0000 -10828.2122 1518.9977 0.0000 0.0000 1786.7205 -7510.7626 303.6025 -9297.4832 -7556.6341 299.6273 594.9651 723.7251 30222.6196 400.1917 471.7429
ENERGY: 600000 2.5039 7.5813 1.9618 0.0000 -10645.3494 1431.7293 0.0000 0.0000 1799.7461 -7401.8270 305.8158 -9201.5731 -7517.8534 300.3274 286.3892 359.1359 30326.5577 283.2426 347.2548
ENERGY: 900000 2.3567 7.1683 5.1113 0.0000 -10843.5562 1483.3751 0.0000 0.0000 1738.6926 -7606.8523 295.4415 -9345.5449 -7524.2499 300.1331 205.0613 229.8608 30127.7250 155.4401 214.3808
ENERGY: 1200000 1.7328 6.8575 2.0898 0.0000 -10658.8096 1344.8890 0.0000 0.0000 1771.0211 -7532.2195 300.9348 -9303.2406 -7514.0392 301.0136 -996.5208 -928.0922 30553.6820 58.2207 116.3920
ENERGY: 1500000 1.5700 8.0448 2.0035 0.0000 -10699.1797 1427.4339 0.0000 0.0000 1836.1381 -7423.9893 311.9996 -9260.1274 -7508.6824 301.8706 111.4561 138.8081 30352.1164 -22.9678 34.6793
TCL: Running FEP window   5: Lambda1 0.7999999999999998 Lambda2 0.7499999999999998 [dLambda -0.050000000000000044]
TCL: Setting parameter firsttimestep to 0
TCL: Setting parameter alchLambda to 0.7999999999999998
Info: NONBONDED TABLE R-SQUARED SPACING: 0.0625
Info: NONBONDED TABLE SIZE: 705 POINTS
TCL: Setting parameter alchLambda2 to 0.7499999999999998
Info: NONBONDED TABLE R-SQUARED SPACING: 0.0625
Info: NONBONDED TABLE SIZE: 705 POINTS
TCL: Running for 1500000 steps
ETITLE: TS BOND ANGLE DIHED IMPRP ELECT VDW BOUNDARY MISC KINETIC TOTAL TEMP POTENTIAL TOTALAVG TEMPAVG PRESSURE GPRESSURE VOLUME PRESSAVG GPRESSAVG
ENERGY: 0 1.5700 8.0448 2.0035 0.0000 -10698.9792 1427.8183 0.0000 0.0000 1835.2346 -7424.3079 311.8461 -9259.5425 -7424.3079 311.8461 43.9945 136.0963 30352.1164 43.9945 136.0963
ENERGY: 300000 3.2113 9.1412 1.0406 0.0000 -10713.6828 1351.8800 0.0000 0.0000 1764.3232 -7584.0866 299.7967 -9348.4098 -7509.1572 303.3687 -818.1781 -700.2308 30066.1073 -299.6346 -244.8404
ENERGY: 600000 1.7369 6.5536 2.8552 0.0000 -10775.6736 1415.5273 0.0000 0.0000 1751.5015 -7597.4990 297.6180 -9349.0005 -7514.6605 301.6028 -611.6814 -489.1322 30760.7950 -290.7396 -212.5493
ENERGY: 900000 1.0006 11.0879 1.1529 0.0000 -10724.4915 1474.2267 0.0000 0.0000 1745.7825 -7491.2408 296.6462 -9237.0234 -7517.4984 301.5799 342.0083 417.3874 30424.5428 -190.6188 -107.1122
ENERGY: 1200000 0.5476 8.7170 2.4952 0.0000 -10735.0482 1381.3815 0.0000 0.0000 1768.5730 -7573.3339 300.5188 -9341.9069 -7517.7743 302.6426 -786.1918 -719.9031 30479.5679 -185.6349 -114.1087
ENERGY: 1500000 1.9663 9.2336 1.2614 0.0000 -10855.7833 1497.4958 0.0000 0.0000 1770.2872 -7575.5390 300.8101 -9345.8262 -7514.7494 302.7488 121.3786 223.9355 30572.3927 -194.9333 -123.1587
TCL: Running FEP window   6: Lambda1 0.7499999999999998 Lambda2 0.6999999999999997 [dLambda -0.050000000000000044]
TCL: Setting parameter firsttimestep to 0
TCL: Setting parameter alchLambda to 0.7499999999999998
Info: NONBONDED TABLE R-SQUARED SPACING: 0.0625
Info: NONBONDED TABLE SIZE: 705 POINTS
TCL: Setting parameter alchLambda2 to 0.6999999999999997
Info: NONBONDED TABLE R-SQUARED SPACING: 0.0625
Info: NONBONDED TABLE SIZE: 705 POINTS
TCL: Running for 1500000 steps
ETITLE: TS BOND ANGLE DIHED IMPRP ELECT VDW BOUNDARY MISC KINETIC TOTAL TEMP POTENTIAL TOTALAVG TEMPAVG PRESSURE GPRESSURE VOLUME PRESSAVG GPRESSAVG
ENERGY: 0 1.9663 9.2336 1.2614 0.0000 -10855.2123 1497.5552 0.0000 0.0000 1769.4285 -7575.7672 300.6642 -9345.1958 -7575.7672 300.6642 127.3300 216.5516 30572.3927 127.3300 216.5516
ENERGY: 300000 3.2204 8.4893 0.9141 0.0000 -10674.5005 1362.1406 0.0000 0.0000 1729.7096 -7570.0265 293.9151 -9299.7361 -7565.4436 296.8196 -716.7643 -670.0207 30353.0306 73.7435 163.8964
ENERGY: 600000 2.3247 11.0021 0.9135 0.0000 -10797.3644 1475.3287 0.0000 0.0000 1736.8075 -7570.9879 295.1212 -9307.7954 -7545.9551 298.1173 285.5749 375.5248 30224.3575 11.4347 96.6412
ENERGY: 900000 2.2105 8.8832 1.7953 0.0000 -10667.0502 1392.7523 0.0000 0.0000 1729.6918 -7531.7173 293.9120 -9261.4091 -7537.8715 299.2031 -279.7841 -205.7747 30369.2806 -104.1210 -16.0006
ENERGY: 1200000 2.3227 9.1461 0.7762 0.0000 -10725.5670 1470.4200 0.0000 0.0000 1719.0856 -7523.8164 292.1098 -9242.9020 -7533.4459 299.1879 353.0993 401.3336 30424.6341 -28.1985 45.2060
ENERGY: 1500000 5.4633 7.5192 0.7734 0.0000 -10793.8616 1448.9662 0.0000 0.0000 1754.9440 -7576.1956 298.2029 -9331.1396 -7538.5613 299.3858 -238.0695 -206.2196 30388.7613 28.8818 97.9001
TCL: Running FEP window   7: Lambda1 0.6999999999999997 Lambda2 0.6499999999999997 [dLambda -0.050000000000000044]
TCL: Setting parameter firsttimestep to 0
TCL: Setting parameter alchLambda to 0.6999999999999997
Info: NONBONDED TABLE R-SQUARED SPACING: 0.0625
Info: NONBONDED TABLE SIZE: 705 POINTS
TCL: Setting parameter alchLambda2 to 0.6499999999999997
Info: NONBONDED TABLE R-SQUARED SPACING: 0.0625
Info: NONBONDED TABLE SIZE: 705 POINTS
TCL: Running for 1500000 steps
ETITLE: TS BOND ANGLE DIHED IMPRP ELECT VDW BOUNDARY MISC KINETIC TOTAL TEMP POTENTIAL TOTALAVG TEMPAVG PRESSURE GPRESSURE VOLUME PRESSAVG GPRESSAVG
ENERGY: 0 5.4633 7.5192 0.7734 0.0000 -10793.7921 1449.0924 0.0000 0.0000 1754.0623 -7576.8816 298.0531 -9330.9439 -7576.8816 298.0531 -306.9194 -210.9213 30388.7613 -306.9194 -210.9213
ENERGY: 300000 2.0465 9.5982 2.1648 0.0000 -10758.4951 1529.7214 0.0000 0.0000 1701.1266 -7513.8376 289.0582 -9214.9642 -7494.9985 298.8688 795.0849 831.3429 30543.1717 236.2544 281.1978
ENERGY: 600000 1.7084 7.4104 3.4392 0.0000 -10878.4931 1506.5540 0.0000 0.0000 1708.7047 -7650.6763 290.3459 -9359.3810 -7537.0137 296.4464 99.2832 220.5433 30361.4220 90.1043 159.7159
ENERGY: 900000 3.6009 9.5223 1.8422 0.0000 -10643.0764 1414.4669 0.0000 0.0000 1749.2728 -7464.3713 297.2393 -9213.6441 -7528.7138 296.7411 -84.3338 -78.9299 30453.8338 -67.1770 -1.4875
ENERGY: 1200000 1.6465 9.2177 1.2781 0.0000 -10864.9428 1456.6727 0.0000 0.0000 1802.3488 -7593.7790 306.2580 -9396.1278 -7531.3052 297.2081 -10.6638 15.9387 30067.4996 -26.4481 30.3827
ENERGY: 1500000 1.5632 8.4456 1.9001 0.0000 -10734.9559 1455.0638 0.0000 0.0000 1770.1217 -7497.8615 300.7820 -9267.9833 -7523.4558 298.1280 205.4437 236.0336 30522.3760 -5.3051 49.7779
TCL: Running FEP window   8: Lambda1 0.6499999999999997 Lambda2 0.5999999999999996 [dLambda -0.050000000000000044]
TCL: Setting parameter firsttimestep to 0
TCL: Setting parameter alchLambda to 0.6499999999999997
Info: NONBONDED TABLE R-SQUARED SPACING: 0.0625
Info: NONBONDED TABLE SIZE: 705 POINTS
TCL: Setting parameter alchLambda2 to 0.5999999999999996
Info: NONBONDED TABLE R-SQUARED SPACING: 0.0625
Info: NONBONDED TABLE SIZE: 705 POINTS
TCL: Running for 1500000 steps
ETITLE: TS BOND ANGLE DIHED IMPRP ELECT VDW BOUNDARY MISC KINETIC TOTAL TEMP POTENTIAL TOTALAVG TEMPAVG PRESSURE GPRESSURE VOLUME PRESSAVG GPRESSAVG
ENERGY: 0 1.5632 8.4456 1.9001 0.0000 -10734.2732 1455.1564 0.0000 0.0000 1769.2293 -7497.9787 300.6303 -9267.2079 -7497.9787 300.6303 151.8212 233.8270 30522.3760 151.8212 233.8270
ENERGY: 300000 1.8827 8.1098 3.4190 0.0000 -10765.2809 1483.9915 0.0000 0.0000 1752.1880 -7515.6899 297.7346 -9267.8779 -7521.6860 296.4296 347.1840 425.9090 30496.4874 103.6453 169.6718
ENERGY: 600000 1.7508 10.4210 2.8154 0.0000 -10816.0917 1483.3348 0.0000 0.0000 1814.2479 -7503.5218 308.2799 -9317.7697 -7522.4844 299.0378 384.5125 435.3157 30201.4321 191.7900 257.4944
ENERGY: 900000 1.5166 7.9756 1.3889 0.0000 -10835.5895 1486.7544 0.0000 0.0000 1738.0731 -7599.8808 295.3362 -9337.9540 -7524.8833 298.8164 168.8265 285.3770 30396.0983 197.9127 267.6796
ENERGY: 1200000 0.9272 8.1338 1.3900 0.0000 -10894.6697 1530.2931 0.0000 0.0000 1776.1453 -7577.7803 301.8055 -9353.9256 -7523.4786 300.0548 462.9157 552.0560 30105.4106 192.3263 259.9917
ENERGY: 1500000 0.2920 10.8913 1.1233 0.0000 -10596.4563 1316.7453 0.0000 0.0000 1767.8486 -7499.5557 300.3957 -9267.4044 -7525.3974 299.7722 -1061.5456 -1031.4910 30854.6085 47.0848 110.6765
TCL: Running FEP window   9: Lambda1 0.5999999999999996 Lambda2 0.5499999999999996 [dLambda -0.050000000000000044]
TCL: Setting parameter firsttimestep to 0
TCL: Setting parameter alchLambda to 0.5999999999999996
Info: NONBONDED TABLE R-SQUARED SPACING: 0.0625
Info: NONBONDED TABLE SIZE: 705 POINTS
TCL: Setting parameter alchLambda2 to 0.5499999999999996
Info: NONBONDED TABLE R-SQUARED SPACING: 0.0625
Info: NONBONDED TABLE SIZE: 705 POINTS
TCL: Running for 1500000 steps
ETITLE: TS BOND ANGLE DIHED IMPRP ELECT VDW BOUNDARY MISC KINETIC TOTAL TEMP POTENTIAL TOTALAVG TEMPAVG PRESSURE GPRESSURE VOLUME PRESSAVG GPRESSAVG
ENERGY: 0 0.2920 10.8914 1.1233 0.0000 -10595.7743 1316.9334 0.0000 0.0000 1766.9411 -7499.5932 300.2415 -9266.5343 -7499.5932 300.2415 -1119.7693 -1033.5551 30854.6085 -1119.7693 -1033.5551
ENERGY: 300000 2.3238 9.2015 1.1248 0.0000 -10673.5971 1421.8184 0.0000 0.0000 1739.3217 -7499.8070 295.5484 -9239.1286 -7521.3382 293.4206 -193.3404 -111.0757 30663.3842 -491.7597 -420.0564
ENERGY: 600000 1.3769 7.8854 1.5318 0.0000 -10838.0043 1537.6343 0.0000 0.0000 1752.9920 -7536.5838 297.8712 -9289.5758 -7513.1146 296.0902 709.5029 747.1274 30156.2946 -50.8353 20.1334
ENERGY: 900000 1.5840 10.5616 0.7891 0.0000 -10779.1644 1484.4081 0.0000 0.0000 1676.6498 -7605.1719 284.8991 -9281.8217 -7528.3218 295.2765 539.5469 600.6961 29878.7988 48.6204 121.4037
ENERGY: 1200000 0.4993 6.7820 2.4983 0.0000 -10611.3008 1389.6006 0.0000 0.0000 1776.4652 -7435.4554 301.8599 -9211.9206 -7526.7610 295.9741 -456.4718 -332.8875 30929.6387 2.3736 75.3044
ENERGY: 1500000 1.5006 8.7252 0.6649 0.0000 -10655.8303 1417.5480 0.0000 0.0000 1754.6904 -7472.7012 298.1598 -9227.3916 -7503.0108 297.1804 68.1876 155.0880 30237.3775 12.0988 85.8108
TCL: Running FEP window  10: Lambda1 0.5499999999999996 Lambda2 0.4999999999999996 [dLambda -0.04999999999999999]
TCL: Setting parameter firsttimestep to 0
TCL: Setting parameter alchLambda to 0.5499999999999996
Info: NONBONDED TABLE R-SQUARED SPACING: 0.0625
Info: NONBONDED TABLE SIZE: 705 POINTS
TCL: Setting parameter alchLambda2 to 0.4999999999999996
Info: NONBONDED TABLE R-SQUARED SPACING: 0.0625
Info: NONBONDED TABLE SIZE: 705 POINTS
TCL: Running for 1500000 steps
ETITLE: TS BOND ANGLE DIHED IMPRP ELECT VDW BOUNDARY MISC KINETIC TOTAL TEMP POTENTIAL TOTALAVG TEMPAVG PRESSURE GPRESSURE VOLUME PRESSAVG GPRESSAVG
ENERGY: 0 1.5006 8.7252 0.6649 0.0000 -10655.7380 1418.0366 0.0000 0.0000 1753.8587 -7472.9521 298.0185 -9226.8108 -7472.9521 298.0185 71.5905 156.3794 30237.3775 71.5905 156.3794
ENERGY: 300000 2.8154 6.6025 4.3966 0.0000 -10736.9867 1449.9446 0.0000 0.0000 1826.3503 -7446.8773 310.3364 -9273.2277 -7504.3158 300.6617 118.7968 144.3617 30690.1717 -41.7737 16.0607
ENERGY: 600000 3.0140 10.4400 3.1796 0.0000 -10717.6642 1481.4717 0.0000 0.0000 1820.0478 -7399.5111 309.2655 -9219.5589 -7493.5236 300.0408 249.9917 394.0505 30578.7518 -10.4864 57.7159
ENERGY: 900000 1.2011 7.9635 2.2976 0.0000 -10873.6776 1520.7347 0.0000 0.0000 1751.9541 -7589.5265 297.6949 -9341.4807 -7512.3243 299.6048 435.2740 459.1737 30371.1820 -38.3086 14.8990
ENERGY: 1200000 2.2955 7.6705 4.9858 0.0000 -10668.8919 1448.5882 0.0000 0.0000 1781.2491 -7424.1028 302.6727 -9205.3519 -7526.0139 298.8013 113.6945 163.9676 30637.7715 85.7187 136.6742
ENERGY: 1500000 2.2802 5.6609 5.2221 0.0000 -10654.5835 1364.0919 0.0000 0.0000 1759.8607 -7517.4676 299.0384 -9277.3283 -7518.2107 299.0809 -400.3188 -472.6161 30184.6853 29.6200 74.5853
TCL: Running FEP window  11: Lambda1 0.4999999999999996 Lambda2 0.4499999999999996 [dLambda -0.04999999999999999]
TCL: Setting parameter firsttimestep to 0
TCL: Setting parameter alchLambda to 0.4999999999999996
Info: NONBONDED TABLE R-SQUARED SPACING: 0.0625
Info: NONBONDED TABLE SIZE: 705 POINTS
TCL: Setting parameter alchLambda2 to 0.4499999999999996
Info: NONBONDED TABLE R-SQUARED SPACING: 0.0625
Info: NONBONDED TABLE SIZE: 705 POINTS
TCL: Running for 1500000 steps
ETITLE: TS BOND ANGLE DIHED IMPRP ELECT VDW BOUNDARY MISC KINETIC TOTAL TEMP POTENTIAL TOTALAVG TEMPAVG PRESSURE GPRESSURE VOLUME PRESSAVG GPRESSAVG
ENERGY: 0 2.2802 5.6610 5.2221 0.0000 -10655.0125 1364.5544 0.0000 0.0000 1758.9288 -7518.3660 298.8800 -9277.2948 -7518.3660 298.8800 -563.9654 -475.8076 30184.6853 -563.9654 -475.8076
ENERGY: 300000 2.0355 8.0218 1.4071 0.0000 -10750.0100 1438.4851 0.0000 0.0000 1720.8420 -7579.2185 292.4083 -9300.0605 -7516.1522 299.1008 -81.0200 -37.4721 30395.8583 -82.7605 -12.1395
ENERGY: 600000 1.3239 7.2758 1.5459 0.0000 -10847.2232 1520.0408 0.0000 0.0000 1736.6269 -7580.4099 295.0905 -9317.0368 -7536.4441 299.5658 592.3763 654.6862 29863.7792 -173.4124 -118.8885
ENERGY: 900000 1.2950 8.5333 2.2333 0.0000 -10721.1597 1467.1450 0.0000 0.0000 1814.7559 -7427.1972 308.3663 -9241.9531 -7516.8465 300.9591 188.4403 247.8966 30399.4428 -141.0878 -93.9424
ENERGY: 1200000 0.9877 9.3546 1.3940 0.0000 -10756.2042 1450.2843 0.0000 0.0000 1799.7870 -7494.3966 305.8227 -9294.1836 -7521.5063 300.6698 -210.7192 -112.8381 30471.0980 -196.9108 -142.9636
ENERGY: 1500000 1.5957 10.4566 2.1456 0.0000 -10777.5611 1461.4647 0.0000 0.0000 1734.9347 -7566.9639 294.8029 -9301.8986 -7523.3671 299.9007 -82.0641 -17.1223 30274.8967 -211.4721 -153.7137
TCL: Running FEP window  12: Lambda1 0.4499999999999996 Lambda2 0.39999999999999963 [dLambda -0.04999999999999999]
TCL: Setting parameter firsttimestep to 0
TCL: Setting parameter alchLambda to 0.4499999999999996
Info: NONBONDED TABLE R-SQUARED SPACING: 0.0625
Info: NONBONDED TABLE SIZE: 705 POINTS
TCL: Setting parameter alchLambda2 to 0.39999999999999963
Info: NONBONDED TABLE R-SQUARED SPACING: 0.0625
Info: NONBONDED TABLE SIZE: 705 POINTS
TCL: Running for 1500000 steps
ETITLE: TS BOND ANGLE DIHED IMPRP ELECT VDW BOUNDARY MISC KINETIC TOTAL TEMP POTENTIAL TOTALAVG TEMPAVG PRESSURE GPRESSURE VOLUME PRESSAVG GPRESSAVG
ENERGY: 0 1.5957 10.4566 2.1456 0.0000 -10777.5612 1461.6828 0.0000 0.0000 1734.0756 -7567.6048 294.6570 -9301.6805 -7567.6048 294.6570 -104.2298 -18.0626 30274.8967 -104.2298 -18.0626
ENERGY: 300000 3.6998 8.7523 2.6992 0.0000 -10894.4293 1544.4511 0.0000 0.0000 1775.0614 -7559.7655 301.6213 -9334.8269 -7542.2220 297.3646 510.3509 540.6714 30479.4948 -120.3783 -78.9083
ENERGY: 600000 3.5992 8.4403 2.2123 0.0000 -10577.7231 1398.9108 0.0000 0.0000 1796.9310 -7367.6295 305.3374 -9164.5604 -7494.0294 300.1802 189.3081 206.2061 30342.1281 -13.5868 18.8560
ENERGY: 900000 2.8298 10.9245 2.9502 0.0000 -10642.1109 1370.6146 0.0000 0.0000 1748.7917 -7506.0001 297.1575 -9254.7918 -7504.7391 299.1233 -763.6512 -664.3585 30599.8512 -135.6930 -86.0196
ENERGY: 1200000 2.1191 6.8997 4.3135 0.0000 -10802.2314 1457.0691 0.0000 0.0000 1723.7977 -7608.0323 292.9105 -9331.8300 -7508.9331 299.0705 2.7501 87.8555 30294.4469 -184.2945 -125.4881
ENERGY: 1500000 2.4091 9.3848 2.7538 0.0000 -10715.4196 1474.1086 0.0000 0.0000 1777.6035 -7449.1598 302.0533 -9226.7633 -7502.0363 299.8559 684.0994 763.6409 30025.3553 -5.0329 47.2234
TCL: Running FEP window  13: Lambda1 0.39999999999999963 Lambda2 0.34999999999999964 [dLambda -0.04999999999999999]
TCL: Setting parameter firsttimestep to 0
TCL: Setting parameter alchLambda to 0.39999999999999963
Info: NONBONDED TABLE R-SQUARED SPACING: 0.0625
Info: NONBONDED TABLE SIZE: 705 POINTS
TCL: Setting parameter alchLambda2 to 0.34999999999999964
Info: NONBONDED TABLE R-SQUARED SPACING: 0.0625
Info: NONBONDED TABLE SIZE: 705 POINTS
TCL: Running for 1500000 steps
ETITLE: TS BOND ANGLE DIHED IMPRP ELECT VDW BOUNDARY MISC KINETIC TOTAL TEMP POTENTIAL TOTALAVG TEMPAVG PRESSURE GPRESSURE VOLUME PRESSAVG GPRESSAVG
ENERGY: 0 2.4091 9.3848 2.7538 0.0000 -10715.4204 1474.3895 0.0000 0.0000 1776.7316 -7449.7516 301.9051 -9226.4832 -7449.7516 301.9051 680.0989 762.3585 30025.3553 680.0989 762.3585
ENERGY: 300000 0.7340 7.9076 1.9852 0.0000 -10679.5643 1444.5840 0.0000 0.0000 1729.5545 -7494.7990 293.8887 -9224.3535 -7439.8778 297.1956 118.0098 113.9705 30456.6768 222.4463 272.7188
ENERGY: 600000 2.4550 8.5967 3.2096 0.0000 -10748.5946 1461.7482 0.0000 0.0000 1774.2443 -7498.3408 301.4825 -9272.5851 -7476.1410 298.7427 -60.8857 -43.9387 30967.9058 61.4213 124.2615
ENERGY: 900000 1.9359 9.7264 1.3963 0.0000 -10825.5174 1483.8833 0.0000 0.0000 1778.9401 -7549.6354 302.2804 -9328.5755 -7484.1188 300.6302 152.5867 171.8317 30425.2854 75.8494 124.7307
ENERGY: 1200000 0.9433 8.1970 1.1600 0.0000 -10661.1222 1364.9488 0.0000 0.0000 1759.4593 -7526.4139 298.9702 -9285.8731 -7499.5016 300.2611 -506.9460 -519.4483 30378.5172 62.3342 106.4592
ENERGY: 1500000 0.9189 9.2811 0.7459 0.0000 -10823.0659 1457.5407 0.0000 0.0000 1768.8113 -7585.7681 300.5593 -9354.5794 -7506.6888 300.4769 -216.3237 -82.4971 30441.7783 -2.2350 46.6245
TCL: Running FEP window  14: Lambda1 0.34999999999999964 Lambda2 0.29999999999999966 [dLambda -0.04999999999999999]
TCL: Setting parameter firsttimestep to 0
TCL: Setting parameter alchLambda to 0.34999999999999964
Info: NONBONDED TABLE R-SQUARED SPACING: 0.0625
Info: NONBONDED TABLE SIZE: 705 POINTS
TCL: Setting parameter alchLambda2 to 0.29999999999999966
Info: NONBONDED TABLE R-SQUARED SPACING: 0.0625
Info: NONBONDED TABLE SIZE: 705 POINTS
TCL: Running for 1500000 steps
ETITLE: TS BOND ANGLE DIHED IMPRP ELECT VDW BOUNDARY MISC KINETIC TOTAL TEMP POTENTIAL TOTALAVG TEMPAVG PRESSURE GPRESSURE VOLUME PRESSAVG GPRESSAVG
ENERGY: 0 0.9189 9.2811 0.7459 0.0000 -10823.0670 1457.5085 0.0000 0.0000 1767.9318 -7586.6808 300.4099 -9354.6127 -7586.6808 300.4099 -174.1605 -87.3743 30441.7783 -174.1605 -87.3743
ENERGY: 300000 1.0586 10.3091 1.5381 0.0000 -10751.3802 1462.3237 0.0000 0.0000 1786.1144 -7490.0363 303.4995 -9276.1506 -7508.5277 303.9237 268.7677 348.9628 30288.3668 225.5729 289.1183
ENERGY: 600000 2.8106 9.6146 1.8410 0.0000 -10623.3122 1359.5013 0.0000 0.0000 1745.4275 -7504.1173 296.5859 -9249.5447 -7525.3736 300.1525 -493.6875 -482.9807 30431.2640 122.3716 180.5599
ENERGY: 900000 1.8273 8.7158 4.3315 0.0000 -10575.3847 1388.0559 0.0000 0.0000 1703.5605 -7468.8935 289.4718 -9172.4541 -7508.9005 298.9451 -219.5367 -70.8891 30359.6551 -29.6338 45.3808
ENERGY: 1200000 1.1099 8.9641 1.4068 0.0000 -10670.3328 1454.5489 0.0000 0.0000 1763.0699 -7441.2332 299.5837 -9204.3031 -7508.6227 298.4658 73.8164 173.4009 30734.6292 5.7508 84.7720
ENERGY: 1500000 2.2160 11.9441 0.6504 0.0000 -10735.6105 1422.3712 0.0000 0.0000 1800.7195 -7497.7094 305.9812 -9298.4289 -7511.8041 299.3899 -28.2609 36.2185 30172.0083 -29.8587 52.5902
TCL: Running FEP window  15: Lambda1 0.29999999999999966 Lambda2 0.24999999999999967 [dLambda -0.04999999999999999]
TCL: Setting parameter firsttimestep to 0
TCL: Setting parameter alchLambda to 0.29999999999999966
Info: NONBONDED TABLE R-SQUARED SPACING: 0.0625
Info: NONBONDED TABLE SIZE: 705 POINTS
TCL: Setting parameter alchLambda2 to 0.24999999999999967
Info: NONBONDED TABLE R-SQUARED SPACING: 0.0625
Info: NONBONDED TABLE SIZE: 705 POINTS
TCL: Running for 1500000 steps
ETITLE: TS BOND ANGLE DIHED IMPRP ELECT VDW BOUNDARY MISC KINETIC TOTAL TEMP POTENTIAL TOTALAVG TEMPAVG PRESSURE GPRESSURE VOLUME PRESSAVG GPRESSAVG
ENERGY: 0 2.2160 11.9441 0.6504 0.0000 -10735.6097 1422.4644 0.0000 0.0000 1799.8467 -7498.4881 305.8329 -9298.3348 -7498.4881 305.8329 -64.1101 33.0432 30172.0083 -64.1101 33.0432
ENERGY: 300000 0.6129 9.7350 1.7493 0.0000 -10643.6617 1387.4104 0.0000 0.0000 1750.4891 -7493.6649 297.4460 -9244.1540 -7518.4438 299.6525 -379.0996 -315.6571 30248.1560 -158.3751 -91.4883
ENERGY: 600000 1.8914 7.8752 4.9494 0.0000 -10687.1280 1379.0588 0.0000 0.0000 1747.0776 -7546.2755 296.8663 -9293.3531 -7494.4887 300.3009 -513.6720 -436.7800 30264.1117 -176.2959 -106.7432
ENERGY: 900000 1.3317 7.7540 0.8258 0.0000 -10845.5826 1472.2463 0.0000 0.0000 1797.1202 -7566.3044 305.3696 -9363.4246 -7514.8570 300.6308 15.8286 149.2666 30274.1251 -216.1263 -140.5936
ENERGY: 1200000 2.3462 9.8292 2.0688 0.0000 -10729.8156 1475.2914 0.0000 0.0000 1726.2835 -7513.9965 293.3329 -9240.2800 -7516.0855 300.3194 286.9288 276.8722 30211.2732 -99.4253 -32.6080
ENERGY: 1500000 2.9148 7.5954 3.0345 0.0000 -10729.1753 1492.1177 0.0000 0.0000 1758.3592 -7465.1537 298.7833 -9223.5129 -7510.5180 300.4266 419.3330 500.2319 30669.4106 -68.0727 -0.2095
TCL: Running FEP window  16: Lambda1 0.24999999999999967 Lambda2 0.19999999999999968 [dLambda -0.04999999999999999]
TCL: Setting parameter firsttimestep to 0
TCL: Setting parameter alchLambda to 0.24999999999999967
Info: NONBONDED TABLE R-SQUARED SPACING: 0.0625
Info: NONBONDED TABLE SIZE: 705 POINTS
TCL: Setting parameter alchLambda2 to 0.19999999999999968
Info: NONBONDED TABLE R-SQUARED SPACING: 0.0625
Info: NONBONDED TABLE SIZE: 705 POINTS
TCL: Running for 1500000 steps
ETITLE: TS BOND ANGLE DIHED IMPRP ELECT VDW BOUNDARY MISC KINETIC TOTAL TEMP POTENTIAL TOTALAVG TEMPAVG PRESSURE GPRESSURE VOLUME PRESSAVG GPRESSAVG
ENERGY: 0 2.9148 7.5954 3.0345 0.0000 -10729.1752 1492.0748 0.0000 0.0000 1757.4993 -7466.0565 298.6371 -9223.5558 -7466.0565 298.6371 410.6561 498.4760 30669.4106 410.6561 498.4760
ENERGY: 300000 0.3594 9.0610 1.7612 0.0000 -10578.2781 1344.6288 0.0000 0.0000 1786.8483 -7435.6192 303.6242 -9222.4676 -7483.6462 299.5341 -715.1745 -658.8258 30650.2287 -256.5116 -183.2864
ENERGY: 600000 1.2931 8.3624 2.3254 0.0000 -10680.4042 1426.3455 0.0000 0.0000 1760.9105 -7481.1672 299.2168 -9242.0778 -7492.9588 298.6501 12.3295 95.3859 30188.9857 -147.6101 -84.3087
ENERGY: 900000 0.8693 9.8486 0.4932 0.0000 -10686.4140 1417.5360 0.0000 0.0000 1734.4443 -7523.2225 294.7196 -9257.6668 -7501.8823 297.8216 -175.6664 -141.4274 30393.2476 -188.0284 -121.9899
ENERGY: 1200000 1.7334 8.5254 1.8346 0.0000 -10722.9487 1402.0349 0.0000 0.0000 1750.1156 -7558.7047 297.3825 -9308.8203 -7499.1075 298.6769 -542.7451 -478.4021 30689.9373 -275.9261 -212.9845
ENERGY: 1500000 2.3951 7.8062 4.4483 0.0000 -10677.7885 1419.9539 0.0000 0.0000 1720.7410 -7522.4441 292.3911 -9243.1851 -7498.9987 299.2362 -385.9965 -337.3868 31076.7815 -261.6543 -203.7607
TCL: Running FEP window  17: Lambda1 0.19999999999999968 Lambda2 0.1499999999999997 [dLambda -0.04999999999999999]
TCL: Setting parameter firsttimestep to 0
TCL: Setting parameter alchLambda to 0.19999999999999968
Info: NONBONDED TABLE R-SQUARED SPACING: 0.0625
Info: NONBONDED TABLE SIZE: 705 POINTS
TCL: Setting parameter alchLambda2 to 0.1499999999999997
Info: NONBONDED TABLE R-SQUARED SPACING: 0.0625
Info: NONBONDED TABLE SIZE: 705 POINTS
TCL: Running for 1500000 steps
ETITLE: TS BOND ANGLE DIHED IMPRP ELECT VDW BOUNDARY MISC KINETIC TOTAL TEMP POTENTIAL TOTALAVG TEMPAVG PRESSURE GPRESSURE VOLUME PRESSAVG GPRESSAVG
ENERGY: 0 2.3951 7.8062 4.4483 0.0000 -10677.7880 1420.3973 0.0000 0.0000 1719.8436 -7522.8975 292.2386 -9242.7411 -7522.8975 292.2386 -418.8731 -338.0684 31076.7815 -418.8731 -338.0684
ENERGY: 300000 1.3378 8.1162 1.2819 0.0000 -10787.5137 1465.9654 0.0000 0.0000 1761.0504 -7549.7619 299.2405 -9310.8123 -7564.5834 294.6003 254.9504 274.3106 30103.2716 -49.0172 1.5119
ENERGY: 600000 0.8449 9.2948 1.6716 0.0000 -10626.7057 1378.2957 0.0000 0.0000 1763.5208 -7473.0780 299.6603 -9236.5987 -7534.3367 296.5773 -524.4074 -467.3114 30909.8599 152.7009 201.0156
ENERGY: 900000 0.9757 8.9824 2.0454 0.0000 -10715.6018 1409.9404 0.0000 0.0000 1755.5579 -7538.1001 298.3073 -9293.6580 -7539.9162 296.7525 -540.0296 -421.4173 30661.1782 -24.1530 31.8025
ENERGY: 1200000 1.7864 10.4233 1.5318 0.0000 -10857.8245 1505.9952 0.0000 0.0000 1829.4847 -7508.6031 310.8690 -9338.0878 -7528.7858 298.4413 251.8149 311.1505 30420.1026 -85.6214 -31.5644
ENERGY: 1500000 0.2046 8.4589 1.9043 0.0000 -10795.7542 1470.9503 0.0000 0.0000 1817.5435 -7496.6926 308.8399 -9314.2361 -7527.4973 298.9959 337.4849 372.4645 30057.6642 -37.5998 19.8819
TCL: Running FEP window  18: Lambda1 0.1499999999999997 Lambda2 0.09999999999999969 [dLambda -0.05 ]
TCL: Setting parameter firsttimestep to 0
TCL: Setting parameter alchLambda to 0.1499999999999997
Info: NONBONDED TABLE R-SQUARED SPACING: 0.0625
Info: NONBONDED TABLE SIZE: 705 POINTS
TCL: Setting parameter alchLambda2 to 0.09999999999999969
Info: NONBONDED TABLE R-SQUARED SPACING: 0.0625
Info: NONBONDED TABLE SIZE: 705 POINTS
TCL: Running for 1500000 steps
ETITLE: TS BOND ANGLE DIHED IMPRP ELECT VDW BOUNDARY MISC KINETIC TOTAL TEMP POTENTIAL TOTALAVG TEMPAVG PRESSURE GPRESSURE VOLUME PRESSAVG GPRESSAVG
ENERGY: 0 0.2046 8.4589 1.9043 0.0000 -10795.7526 1471.1905 0.0000 0.0000 1816.6529 -7497.3414 308.6886 -9313.9942 -7497.3414 308.6886 292.8881 368.2503 30057.6642 292.8881 368.2503
ENERGY: 300000 2.2771 6.9877 2.6847 0.0000 -10780.6419 1453.2398 0.0000 0.0000 1729.5400 -7585.9126 293.8862 -9315.4525 -7514.1964 302.3516 243.3871 384.7096 29728.8601 -24.8423 47.7098
ENERGY: 600000 2.1260 7.2834 1.1352 0.0000 -10494.6109 1337.9941 0.0000 0.0000 1721.2363 -7424.8359 292.4753 -9146.0722 -7516.6757 298.1357 -912.3628 -857.6028 31005.5629 -9.7493 52.9465
ENERGY: 900000 0.9810 6.6610 0.9573 0.0000 -10647.4318 1366.6019 0.0000 0.0000 1798.3054 -7473.9252 305.5710 -9272.2306 -7514.0906 298.2526 -799.5205 -700.9311 30886.8957 -25.7258 32.4987
ENERGY: 1200000 1.6925 10.1392 0.8487 0.0000 -10797.9328 1466.4410 0.0000 0.0000 1745.5138 -7573.2977 296.6005 -9318.8115 -7524.4902 298.7495 -175.6043 -153.5490 30837.0101 -84.1826 -33.2848
ENERGY: 1500000 1.8937 7.8930 1.3993 0.0000 -10653.6865 1344.9457 0.0000 0.0000 1690.5332 -7607.0215 287.2582 -9297.5547 -7524.0864 297.9990 -745.7204 -652.8361 30044.8207 -170.8891 -121.1082
TCL: Running FEP window  19: Lambda1 0.09999999999999969 Lambda2 0.049999999999999684 [dLambda -0.05 ]
TCL: Setting parameter firsttimestep to 0
TCL: Setting parameter alchLambda to 0.09999999999999969
Info: NONBONDED TABLE R-SQUARED SPACING: 0.0625
Info: NONBONDED TABLE SIZE: 705 POINTS
TCL: Setting parameter alchLambda2 to 0.049999999999999684
Info: NONBONDED TABLE R-SQUARED SPACING: 0.0625
Info: NONBONDED TABLE SIZE: 705 POINTS
TCL: Running for 1500000 steps
ETITLE: TS BOND ANGLE DIHED IMPRP ELECT VDW BOUNDARY MISC KINETIC TOTAL TEMP POTENTIAL TOTALAVG TEMPAVG PRESSURE GPRESSURE VOLUME PRESSAVG GPRESSAVG
ENERGY: 0 1.8937 7.8930 1.3993 0.0000 -10653.6875 1345.0421 0.0000 0.0000 1689.6778 -7607.7816 287.1128 -9297.4594 -7607.7816 287.1128 -751.5433 -654.6043 30044.8207 -751.5433 -654.6043
ENERGY: 300000 0.1659 9.0088 1.5591 0.0000 -10859.7487 1598.0427 0.0000 0.0000 1776.7628 -7474.2093 301.9104 -9250.9721 -7498.5301 298.3150 1478.3893 1552.6058 29901.2357 246.9944 313.1778
ENERGY: 600000 1.4029 9.1209 1.1245 0.0000 -10724.0001 1418.8341 0.0000 0.0000 1740.7653 -7552.7525 295.7937 -9293.5178 -7509.8692 298.1950 -292.4393 -259.4362 30527.4495 -36.3800 19.2939
ENERGY: 900000 3.3879 7.4539 2.6393 0.0000 -10637.6873 1387.0889 0.0000 0.0000 1720.7343 -7516.3830 292.3900 -9237.1173 -7517.0829 296.1160 -372.8354 -304.2904 30366.3536 -112.0379 -52.6149
ENERGY: 1200000 0.7300 7.3561 1.9825 0.0000 -10763.7263 1489.0312 0.0000 0.0000 1755.5327 -7509.0939 298.3030 -9264.6266 -7517.5644 296.8085 699.7804 789.5380 29871.1287 -93.7793 -33.2154
ENERGY: 1500000 2.8005 9.3665 2.3751 0.0000 -10759.9056 1444.1563 0.0000 0.0000 1780.0200 -7521.1872 302.4639 -9301.2072 -7519.0330 297.8085 -277.1475 -212.1583 30542.4306 -78.8941 -18.8027
TCL: Running FEP window  20: Lambda1 0.049999999999999684 Lambda2 0.0    [dLambda -0.049999999999999684]
TCL: Setting parameter firsttimestep to 0
TCL: Setting parameter alchLambda to 0.049999999999999684
Info: NONBONDED TABLE R-SQUARED SPACING: 0.0625
Info: NONBONDED TABLE SIZE: 705 POINTS
TCL: Setting parameter alchLambda2 to 0.0
Info: NONBONDED TABLE R-SQUARED SPACING: 0.0625
Info: NONBONDED TABLE SIZE: 705 POINTS
TCL: Running for 1500000 steps
ETITLE: TS BOND ANGLE DIHED IMPRP ELECT VDW BOUNDARY MISC KINETIC TOTAL TEMP POTENTIAL TOTALAVG TEMPAVG PRESSURE GPRESSURE VOLUME PRESSAVG GPRESSAVG
ENERGY: 0 2.8005 9.3665 2.3751 0.0000 -10759.9056 1444.2932 0.0000 0.0000 1779.1454 -7521.9250 302.3153 -9301.0704 -7521.9250 302.3153 -308.4682 -216.9821 30542.4306 -308.4682 -216.9821
ENERGY: 300000 2.2023 7.5901 1.6954 0.0000 -10676.6202 1413.2114 0.0000 0.0000 1746.8796 -7505.0414 296.8326 -9251.9210 -7554.4008 297.5131 -112.8810 38.0650 30103.5759 -247.5673 -144.0088
ENERGY: 600000 2.7686 6.9687 3.1335 0.0000 -10765.0523 1480.2694 0.0000 0.0000 1787.4251 -7484.4870 303.7222 -9271.9121 -7549.6603 299.4700 272.5666 302.1331 30357.0572 -65.6882 20.1809
ENERGY: 900000 1.0257 8.3497 3.3067 0.0000 -10729.0396 1502.9547 0.0000 0.0000 1750.4056 -7462.9973 297.4318 -9213.4029 -7542.2012 298.2213 496.3436 483.1536 30666.1592 -14.6176 58.7975
ENERGY: 1200000 1.9052 8.8696 3.1587 0.0000 -10744.8082 1528.6706 0.0000 0.0000 1781.5081 -7420.6961 302.7167 -9202.2041 -7535.3263 298.7877 720.0536 827.0159 30408.6109 75.7460 150.8890
ENERGY: 1500000 3.7895 7.8507 3.4398 0.0000 -10721.7135 1392.8867 0.0000 0.0000 1806.4031 -7507.3436 306.9470 -9313.7468 -7530.5485 299.7219 -277.9124 -218.6245 29892.0690 71.4173 137.3175
TCL: Exiting due to exit command.
