Info: SIMULATION PARAMETERS:
Info: TIMESTEP               2
Info: NUMBER OF STEPS        0
Info: STEPS PER CYCLE        10
Info: PERIODIC CELL BASIS 1  35.89 0 0
Info: PERIODIC CELL BASIS 2  0 34.26 0
Info: PERIODIC CELL BASIS 3  0 0 35.723
Info: PERIODIC CELL CENTER   0 0 0
Info: WRAPPING WATERS AROUND PERIODIC BOUNDARIES ON OUTPUT.
Info: WRAPPING ALL CLUSTERS AROUND PERIODIC BOUNDARIES ON OUTPUT.
Info: FIRST LDB TIMESTEP     50
Info: LAST LDB TIMESTEP     -1
Info: HOM BACKGROUND SCALING 1
Info: PME BACKGROUND SCALING 1
Info: MIN ATOMS PER PATCH    40
Info: EMPTY PATCH LOAD       40 ATOMS
Info: INITIAL TEMPERATURE    300
Info: CENTER OF MASS MOVING INITIALLY? NO
Info: DIELECTRIC             1
Info: EXCLUDE                SCALED ONE-FOUR
Info: 1-4 ELECTROSTATICS SCALED BY 0.833333
Info: MODIFIED 1-4 VDW PARAMETERS WILL BE USED
Info: DCD FILENAME           mobley_3370989_equil.dcd
Info: DCD FREQUENCY          100000
Info: DCD FIRST STEP         100000
Info: DCD FILE WILL CONTAIN UNIT CELL DATA
Info: XST FILENAME           mobley_3370989_equil.xst
Info: XST FREQUENCY          100000
Info: NO VELOCITY DCD OUTPUT
Info: NO FORCE DCD OUTPUT
Info: OUTPUT FILENAME        mobley_3370989_equil
Info: BINARY OUTPUT FILES WILL BE USED
Info: RESTART FILENAME       mobley_3370989_equil.restart
Info: RESTART FREQUENCY      100000
Info: BINARY RESTART FILES WILL BE USED
Info: CUTOFF                 9
Info: PAIRLIST DISTANCE      11
Info: PAIRLIST SHRINK RATE   0.01
Info: PAIRLIST GROW RATE     0.01
Info: PAIRLIST TRIGGER       0.3
Info: PAIRLISTS PER CYCLE    2
Info: PAIRLISTS ENABLED
Info: MARGIN                 8
Info: HYDROGEN GROUP CUTOFF  2.5
Info: PATCH DIMENSION        21.5
Info: ENERGY OUTPUT STEPS    100000
Info: ENERGY EVALUATION STEPS    100000
Info: OUTPUT ENERGY PRECISION 4
Info: CROSSTERM ENERGY INCLUDED IN DIHEDRAL
Info: TIMING OUTPUT STEPS    1000000
Info: PRESSURE OUTPUT STEPS  100000
Info: LANGEVIN DYNAMICS ACTIVE
Info: LANGEVIN TEMPERATURE   30
Info: LANGEVIN USING BBK INTEGRATOR
Info: LANGEVIN DAMPING COEFFICIENT IS 1 INVERSE PS
Info: LANGEVIN DYNAMICS APPLIED TO HYDROGENS
Info: LANGEVIN PISTON PRESSURE CONTROL ACTIVE
Info:        TARGET PRESSURE IS 1.01325 BAR
Info:     OSCILLATION PERIOD IS 50 FS
Info:             DECAY TIME IS 25 FS
Info:     PISTON TEMPERATURE IS 300 K
Info:       PRESSURE CONTROL IS GROUP-BASED
Info:    INITIAL STRAIN RATE IS 0 0 0
Info:       CELL FLUCTUATION IS ISOTROPIC
Info: PARTICLE MESH EWALD (PME) ACTIVE
Info: PME TOLERANCE               1e-06
Info: PME EWALD COEFFICIENT       0.348832
Info: PME INTERPOLATION ORDER     4
Info: PME GRID DIMENSIONS         36 36 36
Info: PME MAXIMUM GRID SPACING    1
Info: FULL ELECTROSTATIC EVALUATION FREQUENCY      2
Info: USING VERLET I (r-RESPA) MTS SCHEME.
Info: C1 SPLITTING OF LONG RANGE ELECTROSTATICS
Info: PLACING ATOMS IN PATCHES BY HYDROGEN GROUPS
Info: RIGID BONDS TO HYDROGEN : ALL
Info:         ERROR TOLERANCE : 1e-08
Info:          MAX ITERATIONS : 100
Info: RIGID WATER USING SETTLE ALGORITHM
Info: RANDOM NUMBER SEED     1742351164
Info: USE HYDROGEN BONDS?    NO
Info: Using AMBER format force field!
Info: AMBER PARM FILE        mobley_3370989.prmtop
Info: COORDINATE PDB         mobley_3370989.pdb
Info: Exclusions will be read from PARM file!
Info: SCNB (VDW SCALING)     2
Info: USING ARITHMETIC MEAN TO COMBINE L-J SIGMA PARAMETERS
Info: BINARY COORDINATES     mobley_3370989_min.coor
Info: SUMMARY OF PARAMETERS:
Info: 6 BONDS
Info: 6 ANGLES
Info:   6 HARMONIC
Info:   0 COSINE-BASED
Info: 2 DIHEDRAL
Info: 0 IMPROPER
Info: 0 CROSSTERM
Info: 0 VDW
Info: 21 VDW_PAIRS
Info: 0 NBTHOLE_PAIRS
Info: STRUCTURE SUMMARY:
Info: 2942 ATOMS
Info: 2941 BONDS
Info: 12 ANGLES
Info: 9 DIHEDRALS
Info: 0 IMPROPERS
Info: 0 CROSSTERMS
Info: 2962 EXCLUSIONS
Info: 2938 RIGID BONDS
Info: 5888 DEGREES OF FREEDOM
Info: 982 HYDROGEN GROUPS
Info: 4 ATOMS IN LARGEST HYDROGEN GROUP
Info: 982 MIGRATION GROUPS
Info: 4 ATOMS IN LARGEST MIGRATION GROUP
Info: TOTAL MASS = 17685.7 amu
Info: TOTAL CHARGE = -0.000200003 e
Info: MASS DENSITY = 0.66861 g/cm^3
Info: ATOM DENSITY = 0.0669783 atoms/A^3
Info: ADDED 0 IMPLICIT EXCLUSIONS
Info: NONBONDED TABLE R-SQUARED SPACING: 0.0625
Info: NONBONDED TABLE SIZE: 705 POINTS
Info: REMOVING COM VELOCITY -0.0715213 -0.100534 0.0240145
TCL: Running for 100000 steps
ETITLE: TS BOND ANGLE DIHED IMPRP ELECT VDW BOUNDARY MISC KINETIC TOTAL TEMP POTENTIAL TOTAL3 TEMPAVG PRESSURE GPRESSURE VOLUME PRESSAVG GPRESSAVG
ENERGY: 0 0.0014 0.0739 0.0016 0.0000 -13592.7916 2388.8814 0.0000 0.0000 1838.2149 -9365.6183 314.2092 -11203.8332 -9365.2066 314.2092 430.6237 460.5289 43924.6936 430.6237 460.5289
ENERGY: 100000 0.1910 0.4240 0.0134 0.0000 -14170.7143 2415.9343 0.0000 0.0000 173.3442 -11580.8073 29.6300 -11754.1515 -11580.3030 30.9613 -459.3719 -385.7173 28410.3771 4.3711 4.4362
TCL: Running 100000 steps at 60 kelvin.
TCL: Setting parameter langevinTemp to 60
TCL: Running for 100000 steps
ETITLE: TS BOND ANGLE DIHED IMPRP ELECT VDW BOUNDARY MISC KINETIC TOTAL TEMP POTENTIAL TOTAL3 TEMPAVG PRESSURE GPRESSURE VOLUME PRESSAVG GPRESSAVG
ENERGY: 100000 0.1910 0.4240 0.0134 0.0000 -14170.7143 2415.9343 0.0000 0.0000 173.2543 -11580.8972 29.6147 -11754.1515 -11580.4834 29.6147 -437.2058 -385.7112 28410.3771 -437.2058 -385.7112
ENERGY: 200000 0.0375 0.8062 0.0370 0.0000 -14052.7731 2380.0064 0.0000 0.0000 345.3115 -11326.5745 59.0247 -11671.8860 -11325.9101 59.8627 -466.6370 -393.8726 28454.0042 2.7052 2.6422
TCL: Running 100000 steps at 90 kelvin.
TCL: Setting parameter langevinTemp to 90
TCL: Running for 100000 steps
ETITLE: TS BOND ANGLE DIHED IMPRP ELECT VDW BOUNDARY MISC KINETIC TOTAL TEMP POTENTIAL TOTAL3 TEMPAVG PRESSURE GPRESSURE VOLUME PRESSAVG GPRESSAVG
ENERGY: 200000 0.0375 0.8062 0.0370 0.0000 -14052.7731 2380.0064 0.0000 0.0000 345.1328 -11326.7532 58.9941 -11671.8860 -11326.0086 58.9941 -440.3866 -393.8120 28454.0042 -440.3866 -393.8120
ENERGY: 300000 0.3701 0.5065 0.0952 0.0000 -13829.6783 2263.7767 0.0000 0.0000 536.2520 -11028.6779 91.6625 -11564.9299 -11026.7764 90.0636 -1078.9663 -1026.4189 28733.2110 5.5967 5.6588
TCL: Running 100000 steps at 120 kelvin.
TCL: Setting parameter langevinTemp to 120
TCL: Running for 100000 steps
ETITLE: TS BOND ANGLE DIHED IMPRP ELECT VDW BOUNDARY MISC KINETIC TOTAL TEMP POTENTIAL TOTAL3 TEMPAVG PRESSURE GPRESSURE VOLUME PRESSAVG GPRESSAVG
ENERGY: 300000 0.3701 0.5065 0.0952 0.0000 -13829.6783 2263.7767 0.0000 0.0000 535.9805 -11028.9494 91.6161 -11564.9299 -11027.6574 91.6161 -1069.1465 -1026.3423 28733.2110 -1069.1465 -1026.3423
ENERGY: 400000 0.5896 1.6079 0.0221 0.0000 -13752.2153 2309.7113 0.0000 0.0000 707.2580 -10733.0265 120.8928 -11440.2845 -10730.8471 120.3171 -137.9165 -62.3617 28617.0298 5.0848 4.9926
TCL: Running 100000 steps at 150 kelvin.
TCL: Setting parameter langevinTemp to 150
TCL: Running for 100000 steps
ETITLE: TS BOND ANGLE DIHED IMPRP ELECT VDW BOUNDARY MISC KINETIC TOTAL TEMP POTENTIAL TOTAL3 TEMPAVG PRESSURE GPRESSURE VOLUME PRESSAVG GPRESSAVG
ENERGY: 400000 0.5896 1.6079 0.0221 0.0000 -13752.2153 2309.7113 0.0000 0.0000 706.8997 -10733.3848 120.8316 -11440.2845 -10731.8135 120.8316 -104.7205 -61.1418 28617.0298 -104.7205 -61.1418
ENERGY: 500000 0.9061 2.2228 0.0290 0.0000 -13512.8246 2241.6172 0.0000 0.0000 837.1858 -10430.8636 143.1016 -11268.0494 -10429.5187 150.0508 -67.9695 -48.4603 28888.8808 4.3698 4.4879
TCL: Running 100000 steps at 180 kelvin.
TCL: Setting parameter langevinTemp to 180
TCL: Running for 100000 steps
ETITLE: TS BOND ANGLE DIHED IMPRP ELECT VDW BOUNDARY MISC KINETIC TOTAL TEMP POTENTIAL TOTAL3 TEMPAVG PRESSURE GPRESSURE VOLUME PRESSAVG GPRESSAVG
ENERGY: 500000 0.9061 2.2228 0.0290 0.0000 -13512.8246 2241.6172 0.0000 0.0000 836.7372 -10431.3122 143.0249 -11268.0494 -10429.5632 143.0249 -104.1018 -49.8403 28888.8808 -104.1018 -49.8403
ENERGY: 600000 0.1902 2.3787 0.0473 0.0000 -13204.6800 2208.9447 0.0000 0.0000 1055.0982 -9938.0208 180.3497 -10993.1190 -9937.0501 179.9261 788.2209 874.5263 28504.8979 4.5878 4.5782
TCL: Running 100000 steps at 210 kelvin.
TCL: Setting parameter langevinTemp to 210
TCL: Running for 100000 steps
ETITLE: TS BOND ANGLE DIHED IMPRP ELECT VDW BOUNDARY MISC KINETIC TOTAL TEMP POTENTIAL TOTAL3 TEMPAVG PRESSURE GPRESSURE VOLUME PRESSAVG GPRESSAVG
ENERGY: 600000 0.1902 2.3787 0.0473 0.0000 -13204.6800 2208.9447 0.0000 0.0000 1054.5600 -9938.5590 180.2577 -10993.1190 -9936.6091 180.2577 796.0619 873.6115 28504.8979 796.0619 873.6115
ENERGY: 700000 0.5840 2.9035 0.2551 0.0000 -12374.2198 1925.8725 0.0000 0.0000 1238.6987 -9205.9061 211.7329 -10444.6048 -9201.5022 210.0803 410.0326 468.3293 28705.0609 2.8695 2.7509
TCL: Running 100000 steps at 240 kelvin.
TCL: Setting parameter langevinTemp to 240
TCL: Running for 100000 steps
ETITLE: TS BOND ANGLE DIHED IMPRP ELECT VDW BOUNDARY MISC KINETIC TOTAL TEMP POTENTIAL TOTAL3 TEMPAVG PRESSURE GPRESSURE VOLUME PRESSAVG GPRESSAVG
ENERGY: 700000 0.5840 2.9035 0.2551 0.0000 -12374.2198 1925.8725 0.0000 0.0000 1238.0824 -9206.5223 211.6275 -10444.6048 -9204.5808 211.6275 399.9292 471.0059 28705.0609 399.9292 471.0059
ENERGY: 800000 1.3905 2.1135 0.2474 0.0000 -11887.4738 1781.4366 0.0000 0.0000 1372.7845 -8729.5012 234.6524 -10102.2858 -8726.7510 239.3758 468.5511 522.7394 28757.7364 1.9181 1.9826
TCL: Running 100000 steps at 270 kelvin.
TCL: Setting parameter langevinTemp to 270
TCL: Running for 100000 steps
ETITLE: TS BOND ANGLE DIHED IMPRP ELECT VDW BOUNDARY MISC KINETIC TOTAL TEMP POTENTIAL TOTAL3 TEMPAVG PRESSURE GPRESSURE VOLUME PRESSAVG GPRESSAVG
ENERGY: 800000 1.3905 2.1135 0.2474 0.0000 -11887.4738 1781.4366 0.0000 0.0000 1372.0906 -8730.1952 234.5338 -10102.2858 -8727.8108 234.5338 448.6679 523.4231 28757.7364 448.6679 523.4231
ENERGY: 900000 0.1230 1.0464 0.9811 0.0000 -11225.3022 1633.5731 0.0000 0.0000 1638.6524 -7950.9262 280.0976 -9589.5787 -7946.3607 269.7446 630.8605 752.1116 29674.3616 1.8185 1.8821
TCL: Running 1000000 steps at 300 kelvin.
TCL: Setting parameter langevinTemp to 300
TCL: Running for 1000000 steps
ETITLE: TS BOND ANGLE DIHED IMPRP ELECT VDW BOUNDARY MISC KINETIC TOTAL TEMP POTENTIAL TOTAL3 TEMPAVG PRESSURE GPRESSURE VOLUME PRESSAVG GPRESSAVG
ENERGY: 900000 0.1230 1.0464 0.9811 0.0000 -11225.3022 1633.5731 0.0000 0.0000 1637.8563 -7951.7223 279.9615 -9589.5787 -7949.3063 279.9615 660.7856 752.3521 29674.3616 660.7856 752.3521
ENERGY: 1100000 0.1831 6.0516 1.1916 0.0000 -10832.0966 1559.4137 0.0000 0.0000 1701.2020 -7564.0546 290.7893 -9265.2566 -7557.2457 299.6788 758.2475 906.0585 30168.6624 2.9463 3.1856
ENERGY: 1300000 1.0064 1.7644 0.0938 0.0000 -10552.0972 1390.7686 0.0000 0.0000 1734.0437 -7424.4203 296.4030 -9158.4640 -7425.2335 300.2944 -336.5418 -242.3822 30801.1806 2.4488 2.6746
ENERGY: 1500000 1.3863 3.1351 0.2561 0.0000 -10556.4157 1409.2768 0.0000 0.0000 1757.4790 -7384.8824 300.4089 -9142.3615 -7380.6102 299.9918 -36.0535 120.2281 30598.8421 3.3005 3.4158
ENERGY: 1700000 0.8279 1.8447 0.0109 0.0000 -10715.7074 1384.9446 0.0000 0.0000 1745.3664 -7582.7130 298.3384 -9328.0793 -7579.4120 299.7588 -597.0462 -480.9382 30175.7092 3.4660 3.6545
ENERGY: 1900000 0.6492 1.2685 0.0933 0.0000 -10595.3616 1368.8665 0.0000 0.0000 1713.7833 -7510.7009 292.9399 -9224.4842 -7506.5499 300.9848 -585.3668 -496.4739 30590.3336 3.8505 4.0645
TCL: Exiting due to exit command.
