Info: SIMULATION PARAMETERS:
Info: TIMESTEP               2
Info: NUMBER OF STEPS        0
Info: STEPS PER CYCLE        10
Info: PERIODIC CELL BASIS 1  34.986 0 0
Info: PERIODIC CELL BASIS 2  0 35.267 0
Info: PERIODIC CELL BASIS 3  0 0 35.516
Info: PERIODIC CELL CENTER   0 0 0
Info: WRAPPING WATERS AROUND PERIODIC BOUNDARIES ON OUTPUT.
Info: WRAPPING ALL CLUSTERS AROUND PERIODIC BOUNDARIES ON OUTPUT.
Info: FIRST LDB TIMESTEP     50
Info: LAST LDB TIMESTEP     -1
Info: HOM BACKGROUND SCALING 1
Info: PME BACKGROUND SCALING 1
Info: MIN ATOMS PER PATCH    40
Info: EMPTY PATCH LOAD       40 ATOMS
Info: INITIAL TEMPERATURE    300
Info: CENTER OF MASS MOVING INITIALLY? NO
Info: DIELECTRIC             1
Info: EXCLUDE                SCALED ONE-FOUR
Info: 1-4 ELECTROSTATICS SCALED BY 0.833333
Info: MODIFIED 1-4 VDW PARAMETERS WILL BE USED
Info: DCD FILENAME           mobley_1929982_equil.dcd
Info: DCD FREQUENCY          100000
Info: DCD FIRST STEP         100000
Info: DCD FILE WILL CONTAIN UNIT CELL DATA
Info: XST FILENAME           mobley_1929982_equil.xst
Info: XST FREQUENCY          100000
Info: NO VELOCITY DCD OUTPUT
Info: NO FORCE DCD OUTPUT
Info: OUTPUT FILENAME        mobley_1929982_equil
Info: BINARY OUTPUT FILES WILL BE USED
Info: RESTART FILENAME       mobley_1929982_equil.restart
Info: RESTART FREQUENCY      100000
Info: BINARY RESTART FILES WILL BE USED
Info: CUTOFF                 9
Info: PAIRLIST DISTANCE      11
Info: PAIRLIST SHRINK RATE   0.01
Info: PAIRLIST GROW RATE     0.01
Info: PAIRLIST TRIGGER       0.3
Info: PAIRLISTS PER CYCLE    2
Info: PAIRLISTS ENABLED
Info: MARGIN                 8
Info: HYDROGEN GROUP CUTOFF  2.5
Info: PATCH DIMENSION        21.5
Info: ENERGY OUTPUT STEPS    100000
Info: ENERGY EVALUATION STEPS    100000
Info: OUTPUT ENERGY PRECISION 4
Info: CROSSTERM ENERGY INCLUDED IN DIHEDRAL
Info: TIMING OUTPUT STEPS    1000000
Info: PRESSURE OUTPUT STEPS  100000
Info: FIXED ATOMS ACTIVE
Info: LANGEVIN DYNAMICS ACTIVE
Info: LANGEVIN TEMPERATURE   30
Info: LANGEVIN USING BBK INTEGRATOR
Info: LANGEVIN DAMPING COEFFICIENT IS 1 INVERSE PS
Info: LANGEVIN DYNAMICS APPLIED TO HYDROGENS
Info: LANGEVIN PISTON PRESSURE CONTROL ACTIVE
Info:        TARGET PRESSURE IS 1.01325 BAR
Info:     OSCILLATION PERIOD IS 50 FS
Info:             DECAY TIME IS 25 FS
Info:     PISTON TEMPERATURE IS 300 K
Info:       PRESSURE CONTROL IS GROUP-BASED
Info:    INITIAL STRAIN RATE IS 0 0 0
Info:       CELL FLUCTUATION IS ISOTROPIC
Info: PARTICLE MESH EWALD (PME) ACTIVE
Info: PME TOLERANCE               1e-06
Info: PME EWALD COEFFICIENT       0.348832
Info: PME INTERPOLATION ORDER     4
Info: PME GRID DIMENSIONS         36 36 36
Info: PME MAXIMUM GRID SPACING    1
Info: FULL ELECTROSTATIC EVALUATION FREQUENCY      2
Info: USING VERLET I (r-RESPA) MTS SCHEME.
Info: C1 SPLITTING OF LONG RANGE ELECTROSTATICS
Info: PLACING ATOMS IN PATCHES BY HYDROGEN GROUPS
Info: RIGID BONDS TO HYDROGEN : ALL
Info:         ERROR TOLERANCE : 1e-08
Info:          MAX ITERATIONS : 100
Info: RIGID WATER USING SETTLE ALGORITHM
Info: RANDOM NUMBER SEED     1741915349
Info: USE HYDROGEN BONDS?    NO
Info: Using AMBER format force field!
Info: AMBER PARM FILE        mobley_1929982.prmtop
Info: COORDINATE PDB         mobley_1929982.pdb
Info: Exclusions will be read from PARM file!
Info: SCNB (VDW SCALING)     2
Info: USING ARITHMETIC MEAN TO COMBINE L-J SIGMA PARAMETERS
Info: BINARY COORDINATES     mobley_1929982_min.coor
Info: SUMMARY OF PARAMETERS:
Info: 3 BONDS
Info: 1 ANGLES
Info:   1 HARMONIC
Info:   0 COSINE-BASED
Info: 0 DIHEDRAL
Info: 0 IMPROPER
Info: 0 CROSSTERM
Info: 0 VDW
Info: 10 VDW_PAIRS
Info: 0 NBTHOLE_PAIRS
Info: STRUCTURE SUMMARY:
Info: 2925 ATOMS
Info: 2924 BONDS
Info: 1 ANGLES
Info: 0 DIHEDRALS
Info: 0 IMPROPERS
Info: 0 CROSSTERMS
Info: 2925 EXCLUSIONS
Info: 3 FIXED ATOMS
Info: 2924 RIGID BONDS
Info: 2 RIGID BONDS BETWEEN FIXED ATOMS
Info: 5844 DEGREES OF FREEDOM
Info: 975 HYDROGEN GROUPS
Info: 3 ATOMS IN LARGEST HYDROGEN GROUP
Info: 975 MIGRATION GROUPS
Info: 3 ATOMS IN LARGEST MIGRATION GROUP
Info: 1 HYDROGEN GROUPS WITH ALL ATOMS FIXED
Info: TOTAL MASS = 17581.7 amu
Info: TOTAL CHARGE = 0.000100017 e
Info: MASS DENSITY = 0.666242 g/cm^3
Info: ATOM DENSITY = 0.0667481 atoms/A^3
Info: ADDED 0 IMPLICIT EXCLUSIONS
Info: NONBONDED TABLE R-SQUARED SPACING: 0.0625
Info: NONBONDED TABLE SIZE: 705 POINTS
Info: REMOVING COM VELOCITY -0.0569903 -0.207926 -0.121715
TCL: Running for 100000 steps
ETITLE: TS BOND ANGLE DIHED IMPRP ELECT VDW BOUNDARY MISC KINETIC TOTAL TEMP POTENTIAL TOTAL3 TEMPAVG PRESSURE GPRESSURE VOLUME PRESSAVG GPRESSAVG
ENERGY: 0 0.0000 0.0000 0.0000 0.0000 -13628.3806 2420.4078 0.0000 0.0000 1853.0559 -9354.9168 319.1308 -11207.9727 -9354.5328 319.1308 615.2479 651.7105 43821.4614 615.2479 651.7105
ENERGY: 100000 0.0000 0.0000 0.0000 0.0000 -14278.2739 2578.4795 0.0000 0.0000 176.3143 -11523.4801 30.3646 -11699.7944 -11523.0619 30.9481 1016.9573 1074.5342 28225.7594 4.3203 4.2778
TCL: Running 100000 steps at 60 kelvin.
TCL: Setting parameter langevinTemp to 60
TCL: Running for 100000 steps
ETITLE: TS BOND ANGLE DIHED IMPRP ELECT VDW BOUNDARY MISC KINETIC TOTAL TEMP POTENTIAL TOTAL3 TEMPAVG PRESSURE GPRESSURE VOLUME PRESSAVG GPRESSAVG
ENERGY: 100000 0.0000 0.0000 0.0000 0.0000 -14278.2739 2578.4795 0.0000 0.0000 176.2273 -11523.5671 30.3496 -11699.7944 -11523.2041 30.3496 1015.7313 1074.5898 28225.7594 1015.7313 1074.5898
ENERGY: 200000 0.0000 0.0000 0.0000 0.0000 -14168.0819 2512.1149 0.0000 0.0000 355.4747 -11300.4923 61.2194 -11655.9670 -11299.6012 59.8515 972.2415 1008.7884 27912.8337 4.9632 5.0239
TCL: Running 100000 steps at 90 kelvin.
TCL: Setting parameter langevinTemp to 90
TCL: Running for 100000 steps
ETITLE: TS BOND ANGLE DIHED IMPRP ELECT VDW BOUNDARY MISC KINETIC TOTAL TEMP POTENTIAL TOTAL3 TEMPAVG PRESSURE GPRESSURE VOLUME PRESSAVG GPRESSAVG
ENERGY: 200000 0.0000 0.0000 0.0000 0.0000 -14168.0819 2512.1149 0.0000 0.0000 355.3019 -11300.6651 61.1896 -11655.9670 -11299.9123 61.1896 954.8565 1008.5620 27912.8337 954.8565 1008.5620
ENERGY: 300000 0.0000 0.0000 0.0000 0.0000 -13872.4820 2347.1523 0.0000 0.0000 519.7831 -11005.5465 89.5163 -11525.3297 -11004.1537 89.7525 -86.7621 -52.8172 28042.1571 3.6484 3.8238
TCL: Running 100000 steps at 120 kelvin.
TCL: Setting parameter langevinTemp to 120
TCL: Running for 100000 steps
ETITLE: TS BOND ANGLE DIHED IMPRP ELECT VDW BOUNDARY MISC KINETIC TOTAL TEMP POTENTIAL TOTAL3 TEMPAVG PRESSURE GPRESSURE VOLUME PRESSAVG GPRESSAVG
ENERGY: 300000 0.0000 0.0000 0.0000 0.0000 -13872.4820 2347.1523 0.0000 0.0000 519.5284 -11005.8013 89.4725 -11525.3297 -11004.8851 89.4725 -97.9414 -52.9025 28042.1571 -97.9414 -52.9025
ENERGY: 400000 0.0000 0.0000 0.0000 0.0000 -13674.8563 2266.4157 0.0000 0.0000 700.5498 -10707.8908 120.6477 -11408.4406 -10706.3400 119.7409 -434.7931 -395.3376 28411.7155 4.3655 4.4291
TCL: Running 100000 steps at 150 kelvin.
TCL: Setting parameter langevinTemp to 150
TCL: Running for 100000 steps
ETITLE: TS BOND ANGLE DIHED IMPRP ELECT VDW BOUNDARY MISC KINETIC TOTAL TEMP POTENTIAL TOTAL3 TEMPAVG PRESSURE GPRESSURE VOLUME PRESSAVG GPRESSAVG
ENERGY: 400000 0.0000 0.0000 0.0000 0.0000 -13674.8563 2266.4157 0.0000 0.0000 700.1973 -10708.2433 120.5870 -11408.4406 -10706.8894 120.5870 -444.0036 -395.3629 28411.7155 -444.0036 -395.3629
ENERGY: 500000 0.0000 0.0000 0.0000 0.0000 -13413.5331 2185.1883 0.0000 0.0000 862.8032 -10365.5416 148.5908 -11228.3447 -10362.8777 149.8843 -605.9464 -556.1850 28751.1665 5.0105 5.0463
TCL: Running 100000 steps at 180 kelvin.
TCL: Setting parameter langevinTemp to 180
TCL: Running for 100000 steps
ETITLE: TS BOND ANGLE DIHED IMPRP ELECT VDW BOUNDARY MISC KINETIC TOTAL TEMP POTENTIAL TOTAL3 TEMPAVG PRESSURE GPRESSURE VOLUME PRESSAVG GPRESSAVG
ENERGY: 500000 0.0000 0.0000 0.0000 0.0000 -13413.5331 2185.1883 0.0000 0.0000 862.3530 -10365.9917 148.5133 -11228.3447 -10364.0135 148.5133 -605.5030 -556.4804 28751.1665 -605.5030 -556.4804
ENERGY: 600000 0.0000 0.0000 0.0000 0.0000 -13162.0830 2185.3417 0.0000 0.0000 1095.4801 -9881.2613 188.6621 -10976.7413 -9879.3178 179.7789 594.7099 630.6368 28584.6993 2.4300 2.3939
TCL: Running 100000 steps at 210 kelvin.
TCL: Setting parameter langevinTemp to 210
TCL: Running for 100000 steps
ETITLE: TS BOND ANGLE DIHED IMPRP ELECT VDW BOUNDARY MISC KINETIC TOTAL TEMP POTENTIAL TOTAL3 TEMPAVG PRESSURE GPRESSURE VOLUME PRESSAVG GPRESSAVG
ENERGY: 600000 0.0000 0.0000 0.0000 0.0000 -13162.0830 2185.3417 0.0000 0.0000 1094.9422 -9881.7992 188.5695 -10976.7413 -9879.9363 188.5695 569.4365 630.1195 28584.6993 569.4365 630.1195
ENERGY: 700000 0.0000 0.0000 0.0000 0.0000 -12439.5882 1927.0013 0.0000 0.0000 1217.9572 -9294.6297 209.7549 -10512.5869 -9291.9371 209.6885 145.7713 222.7376 28448.9817 2.3751 2.4288
TCL: Running 100000 steps at 240 kelvin.
TCL: Setting parameter langevinTemp to 240
TCL: Running for 100000 steps
ETITLE: TS BOND ANGLE DIHED IMPRP ELECT VDW BOUNDARY MISC KINETIC TOTAL TEMP POTENTIAL TOTAL3 TEMPAVG PRESSURE GPRESSURE VOLUME PRESSAVG GPRESSAVG
ENERGY: 700000 0.0000 0.0000 0.0000 0.0000 -12439.5882 1927.0013 0.0000 0.0000 1217.3604 -9295.2265 209.6522 -10512.5869 -9293.0049 209.6522 147.5472 222.0785 28448.9817 147.5472 222.0785
ENERGY: 800000 0.0000 0.0000 0.0000 0.0000 -11743.6647 1692.2407 0.0000 0.0000 1399.5301 -8651.8939 241.0252 -10051.4241 -8648.3043 239.7237 -107.4586 -39.9681 28570.0966 3.7076 3.7304
TCL: Running 100000 steps at 270 kelvin.
TCL: Setting parameter langevinTemp to 270
TCL: Running for 100000 steps
ETITLE: TS BOND ANGLE DIHED IMPRP ELECT VDW BOUNDARY MISC KINETIC TOTAL TEMP POTENTIAL TOTAL3 TEMPAVG PRESSURE GPRESSURE VOLUME PRESSAVG GPRESSAVG
ENERGY: 800000 0.0000 0.0000 0.0000 0.0000 -11743.6647 1692.2407 0.0000 0.0000 1398.8191 -8652.6050 240.9027 -10051.4241 -8650.3803 240.9027 -116.4702 -40.3794 28570.0966 -116.4702 -40.3794
ENERGY: 900000 0.0000 0.0000 0.0000 0.0000 -11014.9093 1368.4689 0.0000 0.0000 1534.7685 -8111.6719 264.3157 -9646.4404 -8108.1458 269.8166 -1886.8815 -1846.0829 29899.9237 4.4880 4.4755
TCL: Running 1000000 steps at 300 kelvin.
TCL: Setting parameter langevinTemp to 300
TCL: Running for 1000000 steps
ETITLE: TS BOND ANGLE DIHED IMPRP ELECT VDW BOUNDARY MISC KINETIC TOTAL TEMP POTENTIAL TOTAL3 TEMPAVG PRESSURE GPRESSURE VOLUME PRESSAVG GPRESSAVG
ENERGY: 900000 0.0000 0.0000 0.0000 0.0000 -11014.9093 1368.4689 0.0000 0.0000 1533.9882 -8112.4521 264.1814 -9646.4404 -8110.0822 264.1814 -1920.0191 -1847.7672 29899.9237 -1920.0191 -1847.7672
ENERGY: 1100000 0.0000 0.0000 0.0000 0.0000 -10630.5673 1406.3941 0.0000 0.0000 1726.5684 -7497.6048 297.3473 -9224.1732 -7494.3920 300.2018 -239.2003 -152.3740 30050.4265 3.6271 3.4377
ENERGY: 1300000 0.0000 0.0000 0.0000 0.0000 -10676.9087 1402.0226 0.0000 0.0000 1769.4035 -7505.4826 304.7243 -9274.8861 -7503.0052 299.6438 -442.3214 -438.2697 30234.7162 3.7197 3.8329
ENERGY: 1500000 0.0000 0.0000 0.0000 0.0000 -10708.4879 1439.2467 0.0000 0.0000 1695.6221 -7573.6191 292.0177 -9269.2412 -7570.7310 299.9827 -213.4815 -114.0131 30329.6485 1.9773 1.9653
ENERGY: 1700000 0.0000 0.0000 0.0000 0.0000 -10611.6319 1409.0687 0.0000 0.0000 1756.8902 -7445.6730 302.5693 -9202.5633 -7443.9211 300.1912 -235.5935 -201.7831 30544.0273 3.5262 3.6708
ENERGY: 1900000 0.0000 0.0000 0.0000 0.0000 -10656.8701 1462.5791 0.0000 0.0000 1741.0008 -7453.2902 299.8328 -9194.2910 -7452.9823 300.0483 -1.8474 74.0201 30598.0994 1.8400 1.7171
TCL: Exiting due to exit command.
