Info: SIMULATION PARAMETERS:
Info: TIMESTEP               2
Info: NUMBER OF STEPS        0
Info: STEPS PER CYCLE        10
Info: PERIODIC CELL BASIS 1  39.416 0 0
Info: PERIODIC CELL BASIS 2  0 41.432 0
Info: PERIODIC CELL BASIS 3  0 0 41.374
Info: PERIODIC CELL CENTER   0 0 0
Info: WRAPPING WATERS AROUND PERIODIC BOUNDARIES ON OUTPUT.
Info: WRAPPING ALL CLUSTERS AROUND PERIODIC BOUNDARIES ON OUTPUT.
Info: FIRST LDB TIMESTEP     50
Info: LAST LDB TIMESTEP     -1
Info: HOM BACKGROUND SCALING 1
Info: PME BACKGROUND SCALING 1
Info: MIN ATOMS PER PATCH    40
Info: EMPTY PATCH LOAD       40 ATOMS
Info: INITIAL TEMPERATURE    300
Info: CENTER OF MASS MOVING INITIALLY? NO
Info: DIELECTRIC             1
Info: EXCLUDE                SCALED ONE-FOUR
Info: 1-4 ELECTROSTATICS SCALED BY 0.833333
Info: MODIFIED 1-4 VDW PARAMETERS WILL BE USED
Info: DCD FILENAME           mobley_2279874_min.dcd
Info: DCD FREQUENCY          5000
Info: DCD FIRST STEP         5000
Info: DCD FILE WILL CONTAIN UNIT CELL DATA
Info: XST FILENAME           mobley_2279874_min.xst
Info: XST FREQUENCY          5000
Info: NO VELOCITY DCD OUTPUT
Info: NO FORCE DCD OUTPUT
Info: OUTPUT FILENAME        mobley_2279874_min
Info: BINARY OUTPUT FILES WILL BE USED
Info: RESTART FILENAME       mobley_2279874_min.restart
Info: RESTART FREQUENCY      5000
Info: BINARY RESTART FILES WILL BE USED
Info: CUTOFF                 9
Info: PAIRLIST DISTANCE      11
Info: PAIRLIST SHRINK RATE   0.01
Info: PAIRLIST GROW RATE     0.01
Info: PAIRLIST TRIGGER       0.3
Info: PAIRLISTS PER CYCLE    2
Info: PAIRLISTS ENABLED
Info: MARGIN                 8
Info: HYDROGEN GROUP CUTOFF  2.5
Info: PATCH DIMENSION        21.5
Info: ENERGY OUTPUT STEPS    5000
Info: ENERGY EVALUATION STEPS    5000
Info: OUTPUT ENERGY PRECISION 4
Info: CROSSTERM ENERGY INCLUDED IN DIHEDRAL
Info: TIMING OUTPUT STEPS    50000
Info: PRESSURE OUTPUT STEPS  5000
Info: LANGEVIN DYNAMICS ACTIVE
Info: LANGEVIN TEMPERATURE   300
Info: LANGEVIN USING BBK INTEGRATOR
Info: LANGEVIN DAMPING COEFFICIENT IS 1 INVERSE PS
Info: LANGEVIN DYNAMICS APPLIED TO HYDROGENS
Info: LANGEVIN PISTON PRESSURE CONTROL ACTIVE
Info:        TARGET PRESSURE IS 1.01325 BAR
Info:     OSCILLATION PERIOD IS 50 FS
Info:             DECAY TIME IS 25 FS
Info:     PISTON TEMPERATURE IS 300 K
Info:       PRESSURE CONTROL IS GROUP-BASED
Info:    INITIAL STRAIN RATE IS 0 0 0
Info:       CELL FLUCTUATION IS ISOTROPIC
Info: PARTICLE MESH EWALD (PME) ACTIVE
Info: PME TOLERANCE               1e-06
Info: PME EWALD COEFFICIENT       0.348832
Info: PME INTERPOLATION ORDER     4
Info: PME GRID DIMENSIONS         40 44 44
Info: PME MAXIMUM GRID SPACING    1
Info: FULL ELECTROSTATIC EVALUATION FREQUENCY      2
Info: USING VERLET I (r-RESPA) MTS SCHEME.
Info: C1 SPLITTING OF LONG RANGE ELECTROSTATICS
Info: PLACING ATOMS IN PATCHES BY HYDROGEN GROUPS
Info: RIGID BONDS TO HYDROGEN : ALL
Info:         ERROR TOLERANCE : 1e-08
Info:          MAX ITERATIONS : 100
Info: RIGID WATER USING SETTLE ALGORITHM
Info: RANDOM NUMBER SEED     1741318470
Info: USE HYDROGEN BONDS?    NO
Info: Using AMBER format force field!
Info: AMBER PARM FILE        mobley_2279874.prmtop
Info: COORDINATE PDB         mobley_2279874.pdb
Info: Exclusions will be read from PARM file!
Info: SCNB (VDW SCALING)     2
Info: USING ARITHMETIC MEAN TO COMBINE L-J SIGMA PARAMETERS
Info: SUMMARY OF PARAMETERS:
Info: 5 BONDS
Info: 5 ANGLES
Info:   5 HARMONIC
Info:   0 COSINE-BASED
Info: 5 DIHEDRAL
Info: 0 IMPROPER
Info: 0 CROSSTERM
Info: 0 VDW
Info: 21 VDW_PAIRS
Info: 0 NBTHOLE_PAIRS
Info: STRUCTURE SUMMARY:
Info: 4802 ATOMS
Info: 4801 BONDS
Info: 27 ANGLES
Info: 30 DIHEDRALS
Info: 0 IMPROPERS
Info: 0 CROSSTERMS
Info: 4846 EXCLUSIONS
Info: 4795 RIGID BONDS
Info: 9611 DEGREES OF FREEDOM
Info: 1602 HYDROGEN GROUPS
Info: 4 ATOMS IN LARGEST HYDROGEN GROUP
Info: 1602 MIGRATION GROUPS
Info: 4 ATOMS IN LARGEST MIGRATION GROUP
Info: TOTAL MASS = 28841.6 amu
Info: TOTAL CHARGE = 0.000299994 e
Info: MASS DENSITY = 0.708832 g/cm^3
Info: ATOM DENSITY = 0.07107 atoms/A^3
Info: ADDED 0 IMPLICIT EXCLUSIONS
Info: NONBONDED TABLE R-SQUARED SPACING: 0.0625
Info: NONBONDED TABLE SIZE: 705 POINTS
Info: REMOVING COM VELOCITY -0.122958 -0.0402121 0.00160649
TCL: Minimizing for 2000 steps
ETITLE: TS BOND ANGLE DIHED IMPRP ELECT VDW BOUNDARY MISC KINETIC TOTAL TEMP POTENTIAL TOTAL3 TEMPAVG PRESSURE GPRESSURE VOLUME PRESSAVG GPRESSAVG
ENERGY: 0 0.0988 2.9847 8.9145 0.0000 -14973.6464 1703.5309 0.0000 0.0000 0.0000 -13258.1174 0.0000 -13258.1174 -13258.1174 0.0000 11023.4519 -15452.6303 67567.2055 11023.4519 -15452.6303
ENERGY: 400 1.9898 2.5218 7.8820 0.0000 -20145.4254 2943.8654 0.0000 0.0000 0.0000 -17189.1663 0.0000 -17189.1663 -17189.1663 0.0000 15647.0269 15532.5266 67567.2055 15647.0269 15532.5266
ENERGY: 800 0.7354 1.3469 7.8617 0.0000 -21255.9476 3505.2940 0.0000 0.0000 0.0000 -17740.7096 0.0000 -17740.7096 -17740.7096 0.0000 18230.6247 18068.5360 67567.2055 18230.6247 18068.5360
ENERGY: 1200 0.7166 1.0692 7.8869 0.0000 -21669.0285 3671.4073 0.0000 0.0000 0.0000 -17987.9484 0.0000 -17987.9484 -17987.9484 0.0000 19049.5052 18818.7978 67567.2055 19049.5052 18818.7978
ENERGY: 1600 0.2181 0.7473 7.8482 0.0000 -21865.6079 3750.1740 0.0000 0.0000 0.0000 -18106.6203 0.0000 -18106.6203 -18106.6203 0.0000 19462.5866 19195.3489 67567.2055 19462.5866 19195.3489
ENERGY: 2000 0.3594 0.3964 8.0119 0.0000 -21986.5636 3809.0918 0.0000 0.0000 0.0000 -18168.7042 0.0000 -18168.7042 -18168.7042 0.0000 19796.2111 19584.7639 67567.2055 19796.2111 19584.7639
TCL: Exiting due to exit command.
Info: NAMD 3.0.1 for Linux-x86_64-multicore
Info: Please visit http://www.ks.uiuc.edu/Research/namd/
Info: for updates, documentation, and support information.
Info: Please cite Phillips et al., J. Chem. Phys. 153:044130 (2020) doi:10.1063/5.0014475
Info: in all publications reporting results obtained with NAMD.
Info: Based on Charm++/Converse 80000 for multicore-linux-x86_64-gcc
Info: Built Mon Oct 14 11:11:06 CDT 2024 by dhardy on athine.ks.uiuc.edu
Info: 1 NAMD  3.0.1  Linux-x86_64-multicore  16    k014  z5358697
Info: Running on 16 processors, 1 nodes, 1 physical nodes.
Info: CPU topology information available.
Info: Charm++/Converse parallel runtime startup completed at 0.00930479 s
Info: 1043.45 MB of memory in use based on /proc/self/stat
Info: Configuration file is mobley_2279874_equil.namd
Info: Working in the current directory /srv/scratch/z5358697/prod_prep_2/2279874
TCL: Running 25000 steps at 30 kelvin.
TCL: Suspending until startup complete.
Info: SIMULATION PARAMETERS:
Info: TIMESTEP               2
Info: NUMBER OF STEPS        0
Info: STEPS PER CYCLE        10
Info: PERIODIC CELL BASIS 1  39.416 0 0
Info: PERIODIC CELL BASIS 2  0 41.432 0
Info: PERIODIC CELL BASIS 3  0 0 41.374
Info: PERIODIC CELL CENTER   0 0 0
Info: WRAPPING WATERS AROUND PERIODIC BOUNDARIES ON OUTPUT.
Info: WRAPPING ALL CLUSTERS AROUND PERIODIC BOUNDARIES ON OUTPUT.
Info: FIRST LDB TIMESTEP     50
Info: LAST LDB TIMESTEP     -1
Info: HOM BACKGROUND SCALING 1
Info: PME BACKGROUND SCALING 1
Info: MIN ATOMS PER PATCH    40
Info: EMPTY PATCH LOAD       40 ATOMS
Info: INITIAL TEMPERATURE    300
Info: CENTER OF MASS MOVING INITIALLY? NO
Info: DIELECTRIC             1
Info: EXCLUDE                SCALED ONE-FOUR
Info: 1-4 ELECTROSTATICS SCALED BY 0.833333
Info: MODIFIED 1-4 VDW PARAMETERS WILL BE USED
Info: DCD FILENAME           mobley_2279874_equil.dcd
Info: DCD FREQUENCY          5000
Info: DCD FIRST STEP         5000
Info: DCD FILE WILL CONTAIN UNIT CELL DATA
Info: XST FILENAME           mobley_2279874_equil.xst
Info: XST FREQUENCY          5000
Info: NO VELOCITY DCD OUTPUT
Info: NO FORCE DCD OUTPUT
Info: OUTPUT FILENAME        mobley_2279874_equil
Info: BINARY OUTPUT FILES WILL BE USED
Info: RESTART FILENAME       mobley_2279874_equil.restart
Info: RESTART FREQUENCY      5000
Info: BINARY RESTART FILES WILL BE USED
Info: CUTOFF                 9
Info: PAIRLIST DISTANCE      11
Info: PAIRLIST SHRINK RATE   0.01
Info: PAIRLIST GROW RATE     0.01
Info: PAIRLIST TRIGGER       0.3
Info: PAIRLISTS PER CYCLE    2
Info: PAIRLISTS ENABLED
Info: MARGIN                 8
Info: HYDROGEN GROUP CUTOFF  2.5
Info: PATCH DIMENSION        21.5
Info: ENERGY OUTPUT STEPS    5000
Info: ENERGY EVALUATION STEPS    5000
Info: OUTPUT ENERGY PRECISION 4
Info: CROSSTERM ENERGY INCLUDED IN DIHEDRAL
Info: TIMING OUTPUT STEPS    50000
Info: PRESSURE OUTPUT STEPS  5000
Info: LANGEVIN DYNAMICS ACTIVE
Info: LANGEVIN TEMPERATURE   30
Info: LANGEVIN USING BBK INTEGRATOR
Info: LANGEVIN DAMPING COEFFICIENT IS 1 INVERSE PS
Info: LANGEVIN DYNAMICS APPLIED TO HYDROGENS
Info: LANGEVIN PISTON PRESSURE CONTROL ACTIVE
Info:        TARGET PRESSURE IS 1.01325 BAR
Info:     OSCILLATION PERIOD IS 50 FS
Info:             DECAY TIME IS 25 FS
Info:     PISTON TEMPERATURE IS 300 K
Info:       PRESSURE CONTROL IS GROUP-BASED
Info:    INITIAL STRAIN RATE IS 0 0 0
Info:       CELL FLUCTUATION IS ISOTROPIC
Info: PARTICLE MESH EWALD (PME) ACTIVE
Info: PME TOLERANCE               1e-06
Info: PME EWALD COEFFICIENT       0.348832
Info: PME INTERPOLATION ORDER     4
Info: PME GRID DIMENSIONS         40 44 44
Info: PME MAXIMUM GRID SPACING    1
Info: FULL ELECTROSTATIC EVALUATION FREQUENCY      2
Info: USING VERLET I (r-RESPA) MTS SCHEME.
Info: C1 SPLITTING OF LONG RANGE ELECTROSTATICS
Info: PLACING ATOMS IN PATCHES BY HYDROGEN GROUPS
Info: RIGID BONDS TO HYDROGEN : ALL
Info:         ERROR TOLERANCE : 1e-08
Info:          MAX ITERATIONS : 100
Info: RIGID WATER USING SETTLE ALGORITHM
Info: RANDOM NUMBER SEED     1741318487
Info: USE HYDROGEN BONDS?    NO
Info: Using AMBER format force field!
Info: AMBER PARM FILE        mobley_2279874.prmtop
Info: COORDINATE PDB         mobley_2279874.pdb
Info: Exclusions will be read from PARM file!
Info: SCNB (VDW SCALING)     2
Info: USING ARITHMETIC MEAN TO COMBINE L-J SIGMA PARAMETERS
Info: BINARY COORDINATES     mobley_2279874_min.coor
Info: SUMMARY OF PARAMETERS:
Info: 5 BONDS
Info: 5 ANGLES
Info: 5 DIHEDRAL
Info: 0 IMPROPER
Info: 0 CROSSTERM
Info: 0 VDW
Info: 21 VDW_PAIRS
Info: 0 NBTHOLE_PAIRS
Info: STRUCTURE SUMMARY:
Info: 4802 ATOMS
Info: 4801 BONDS
Info: 27 ANGLES
Info: 30 DIHEDRALS
Info: 0 IMPROPERS
Info: 0 CROSSTERMS
Info: 4846 EXCLUSIONS
Info: 4795 RIGID BONDS
Info: 9611 DEGREES OF FREEDOM
Info: 1602 HYDROGEN GROUPS
Info: 4 ATOMS IN LARGEST HYDROGEN GROUP
Info: 1602 MIGRATION GROUPS
Info: 4 ATOMS IN LARGEST MIGRATION GROUP
Info: TOTAL MASS = 28841.6 amu
Info: TOTAL CHARGE = 0.000299994 e
Info: MASS DENSITY = 0.708832 g/cm^3
Info: ATOM DENSITY = 0.07107 atoms/A^3
Info: ADDED 0 IMPLICIT EXCLUSIONS
Info: NONBONDED TABLE R-SQUARED SPACING: 0.0625
Info: NONBONDED TABLE SIZE: 705 POINTS
Info: REMOVING COM VELOCITY 0.0471252 -0.0398009 0.0176593
TCL: Running for 25000 steps
ETITLE: TS BOND ANGLE DIHED IMPRP ELECT VDW BOUNDARY MISC KINETIC TOTAL TEMP POTENTIAL TOTAL3 TEMPAVG PRESSURE GPRESSURE VOLUME PRESSAVG GPRESSAVG
ENERGY: 0 0.3594 0.3964 8.0119 0.0000 -21986.5636 3809.0918 0.0000 0.0000 2936.6087 -15232.0955 307.5161 -18168.7042 -15231.5009 307.5161 413.2614 447.1985 67567.2055 413.2614 447.1985
ENERGY: 5000 0.4418 1.0857 8.2020 0.0000 -22841.4508 3837.1913 0.0000 0.0000 291.4180 -18703.1120 30.5167 -18994.5300 -18702.3878 47.9681 -577.5521 -520.8901 46944.9706 2.6691 2.8654
ENERGY: 10000 0.2510 1.1428 7.9794 0.0000 -23174.1663 4135.6721 0.0000 0.0000 290.5952 -18738.5257 30.4306 -19029.1209 -18737.7959 30.2258 985.9651 1020.3022 46499.6121 3.9697 3.6995
ENERGY: 15000 0.4033 1.1257 7.9593 0.0000 -22929.0348 3876.9753 0.0000 0.0000 288.9732 -18753.5981 30.2607 -19042.5713 -18752.7151 30.1602 -477.3741 -427.3424 46968.4753 5.0146 5.2284
ENERGY: 20000 0.1697 1.1009 8.3058 0.0000 -23049.3455 3985.2130 0.0000 0.0000 278.3580 -18776.1981 29.1491 -19054.5561 -18775.8445 30.2400 58.4151 115.0787 46743.2672 4.3966 4.0436
ENERGY: 25000 0.5254 0.7791 8.1556 0.0000 -23025.6091 3957.7857 0.0000 0.0000 286.4939 -18771.8694 30.0011 -19058.3633 -18771.0965 30.1173 -19.9061 6.4651 46643.7376 3.7395 3.9095
TCL: Running 25000 steps at 60 kelvin.
TCL: Setting parameter langevinTemp to 60
TCL: Running for 25000 steps
ETITLE: TS BOND ANGLE DIHED IMPRP ELECT VDW BOUNDARY MISC KINETIC TOTAL TEMP POTENTIAL TOTAL3 TEMPAVG PRESSURE GPRESSURE VOLUME PRESSAVG GPRESSAVG
ENERGY: 25000 0.5254 0.7791 8.1556 0.0000 -23025.6091 3957.7857 0.0000 0.0000 286.3529 -18772.0104 29.9863 -19058.3633 -18771.4321 29.9863 -41.4503 6.5623 46643.7376 -41.4503 6.5623
ENERGY: 30000 0.5244 2.4249 8.4479 0.0000 -22671.6473 3837.4862 0.0000 0.0000 575.5998 -18247.1642 60.2757 -18822.7639 -18245.8902 57.0379 -248.4770 -180.6223 47051.6123 1.0451 1.1414
ENERGY: 35000 0.4308 2.0164 8.1159 0.0000 -22904.8824 4009.8126 0.0000 0.0000 565.7521 -18318.7547 59.2445 -18884.5067 -18317.5106 60.5869 621.9753 681.7358 46526.9647 2.0563 2.1126
ENERGY: 40000 0.4272 1.0421 8.5281 0.0000 -22802.1964 3871.3672 0.0000 0.0000 579.4872 -18341.3447 60.6828 -18920.8318 -18339.6534 59.9312 -209.4929 -148.2543 46797.3460 1.5918 1.8326
ENERGY: 45000 0.5007 1.3526 8.5094 0.0000 -22668.4355 3714.1099 0.0000 0.0000 584.2617 -18359.7012 61.1828 -18943.9629 -18357.5165 59.8308 -1113.6451 -1053.0585 46939.4336 4.3729 4.7444
ENERGY: 50000 0.3958 0.7966 8.1113 0.0000 -23029.8169 4081.3948 0.0000 0.0000 584.8679 -18354.2505 61.2463 -18939.1184 -18353.0958 59.8222 947.1631 1008.3830 46230.8745 -1.4820 -1.3223
TCL: Running 25000 steps at 90 kelvin.
TCL: Setting parameter langevinTemp to 90
TCL: Running for 25000 steps
ETITLE: TS BOND ANGLE DIHED IMPRP ELECT VDW BOUNDARY MISC KINETIC TOTAL TEMP POTENTIAL TOTAL3 TEMPAVG PRESSURE GPRESSURE VOLUME PRESSAVG GPRESSAVG
ENERGY: 50000 0.3958 0.7966 8.1113 0.0000 -23029.8169 4081.3948 0.0000 0.0000 584.5765 -18354.5419 61.2158 -18939.1184 -18353.4190 61.2158 952.1083 1008.1720 46230.8745 952.1083 1008.1720
ENERGY: 55000 0.3611 2.9375 8.5399 0.0000 -22265.0629 3636.9694 0.0000 0.0000 846.4615 -17769.7936 88.6399 -18616.2551 -17767.7761 87.6735 -753.9697 -672.2796 47257.5148 3.5137 3.6182
ENERGY: 60000 1.5604 2.6109 8.2163 0.0000 -22341.9879 3667.4563 0.0000 0.0000 854.5713 -17807.5726 89.4891 -18662.1439 -17804.4281 90.4153 -720.5032 -700.2760 47151.4126 2.5305 2.8763
ENERGY: 65000 0.1131 2.2553 8.3965 0.0000 -22620.1177 3911.7322 0.0000 0.0000 873.4841 -17824.1365 91.4696 -18697.6206 -17821.5906 90.8735 582.5757 621.7941 46687.2336 3.1110 2.5415
ENERGY: 70000 0.9843 2.3115 8.6173 0.0000 -22576.5278 3812.7965 0.0000 0.0000 847.9165 -17903.9017 88.7922 -18751.8182 -17901.7487 90.0402 -152.2333 -98.3470 46988.0709 3.3544 3.6649
ENERGY: 75000 0.7317 2.6852 8.8903 0.0000 -22496.3727 3737.2458 0.0000 0.0000 861.7328 -17885.0869 90.2390 -18746.8196 -17882.6582 89.9932 -486.6559 -419.1512 46882.4147 4.7283 4.5233
TCL: Running 25000 steps at 120 kelvin.
TCL: Setting parameter langevinTemp to 120
TCL: Running for 25000 steps
ETITLE: TS BOND ANGLE DIHED IMPRP ELECT VDW BOUNDARY MISC KINETIC TOTAL TEMP POTENTIAL TOTAL3 TEMPAVG PRESSURE GPRESSURE VOLUME PRESSAVG GPRESSAVG
ENERGY: 75000 0.7317 2.6852 8.8903 0.0000 -22496.3727 3737.2458 0.0000 0.0000 861.3046 -17885.5151 90.1942 -18746.8196 -17883.7483 90.1942 -479.2157 -419.0886 46882.4147 -479.2157 -419.0886
ENERGY: 80000 3.2878 3.2066 8.4746 0.0000 -22037.1916 3600.4232 0.0000 0.0000 1135.2120 -17286.5873 118.8773 -18421.7994 -17283.3451 117.0644 -455.6092 -372.5453 46982.3029 2.4083 2.1295
ENERGY: 85000 1.7594 2.5412 8.3511 0.0000 -22090.0777 3625.3279 0.0000 0.0000 1176.5273 -17275.5707 123.2037 -18452.0980 -17273.5676 119.8718 -456.9779 -414.0733 47266.8430 2.4420 2.5562
ENERGY: 90000 1.5347 3.2842 8.7247 0.0000 -22253.1211 3728.3420 0.0000 0.0000 1163.1705 -17348.0649 121.8050 -18511.2354 -17345.0268 120.0242 -10.6115 43.4394 46992.8438 4.1082 4.1354
ENERGY: 95000 1.2553 3.6616 8.5856 0.0000 -22246.3755 3739.5601 0.0000 0.0000 1158.4119 -17334.9010 121.3067 -18493.3129 -17331.6678 119.5687 109.9382 151.6424 46958.1148 2.5590 2.3973
ENERGY: 100000 1.1845 2.7754 8.1975 0.0000 -22423.3049 3876.3382 0.0000 0.0000 1155.5349 -17379.2744 121.0054 -18534.8093 -17376.7830 120.4838 773.2052 826.4443 46662.8813 3.8443 4.4288
TCL: Running 25000 steps at 150 kelvin.
TCL: Setting parameter langevinTemp to 150
TCL: Running for 25000 steps
ETITLE: TS BOND ANGLE DIHED IMPRP ELECT VDW BOUNDARY MISC KINETIC TOTAL TEMP POTENTIAL TOTAL3 TEMPAVG PRESSURE GPRESSURE VOLUME PRESSAVG GPRESSAVG
ENERGY: 100000 1.1845 2.7754 8.1975 0.0000 -22423.3049 3876.3382 0.0000 0.0000 1154.9712 -17379.8381 120.9464 -18534.8093 -17377.6878 120.9464 770.7978 826.2332 46662.8813 770.7978 826.2332
ENERGY: 105000 1.1677 2.5352 8.7712 0.0000 -21907.9367 3700.2234 0.0000 0.0000 1408.5619 -16786.6773 147.5019 -18195.2393 -16783.8272 146.6855 470.9874 549.9602 47190.2223 -2.5736 -2.5965
ENERGY: 110000 1.4699 2.0865 8.3741 0.0000 -21603.9016 3371.5346 0.0000 0.0000 1428.5921 -16791.8443 149.5995 -18220.4365 -16786.5001 149.6894 -1271.3422 -1231.3865 47816.4274 3.3461 3.4065
ENERGY: 115000 0.9847 3.6664 8.3976 0.0000 -21877.1696 3631.6122 0.0000 0.0000 1457.0750 -16775.4336 152.5821 -18232.5086 -16772.5864 150.3029 65.6135 146.6814 47172.7938 5.0974 5.0204
ENERGY: 120000 0.4148 4.1490 8.8601 0.0000 -21737.1079 3489.4775 0.0000 0.0000 1430.6652 -16803.5414 149.8166 -18234.2066 -16799.3104 150.7729 -583.2414 -527.9655 47174.7760 7.5222 7.2234
ENERGY: 125000 0.8359 3.6322 8.9417 0.0000 -21822.0697 3560.5421 0.0000 0.0000 1456.0266 -16792.0911 152.4724 -18248.1177 -16788.4471 150.3191 -300.2458 -246.4667 47182.7521 4.2421 4.5179
TCL: Running 50000 steps at 180 kelvin.
TCL: Setting parameter langevinTemp to 180
TCL: Running for 50000 steps
ETITLE: TS BOND ANGLE DIHED IMPRP ELECT VDW BOUNDARY MISC KINETIC TOTAL TEMP POTENTIAL TOTAL3 TEMPAVG PRESSURE GPRESSURE VOLUME PRESSAVG GPRESSAVG
ENERGY: 125000 0.8359 3.6322 8.9417 0.0000 -21822.0697 3560.5421 0.0000 0.0000 1455.3033 -16792.8144 152.3966 -18248.1177 -16790.0694 152.3966 -307.9427 -245.8172 47182.7521 -307.9427 -245.8172
ENERGY: 135000 2.4234 4.6929 9.3002 0.0000 -21420.9363 3534.3990 0.0000 0.0000 1706.0788 -16164.0419 178.6574 -17870.1207 -16160.9992 180.0674 267.8164 364.0491 47404.7094 2.5912 2.6944
ENERGY: 145000 0.7992 3.8999 8.9073 0.0000 -21268.3204 3426.5993 0.0000 0.0000 1696.4876 -16131.6271 177.6530 -17828.1147 -16127.5102 181.1327 -69.2909 9.3463 47216.1028 4.6770 4.3670
ENERGY: 155000 1.0578 5.4185 9.5847 0.0000 -21371.3396 3521.8045 0.0000 0.0000 1725.0123 -16108.4619 180.6400 -17833.4742 -16105.7284 179.5918 398.5165 520.5055 46860.7133 2.6058 2.3412
ENERGY: 165000 2.0883 3.0583 8.2173 0.0000 -21336.7088 3450.2862 0.0000 0.0000 1705.9261 -16167.1327 178.6414 -17873.0588 -16163.2173 179.4231 -40.9442 19.4776 47111.1642 6.9434 7.5941
ENERGY: 175000 2.1450 5.1350 8.2684 0.0000 -21253.6287 3373.3213 0.0000 0.0000 1752.9317 -16111.8273 183.5637 -17864.7589 -16108.8092 178.9204 -329.2355 -297.9204 47039.2189 -3.6759 -3.5275
TCL: Running 50000 steps at 210 kelvin.
TCL: Setting parameter langevinTemp to 210
TCL: Running for 50000 steps
ETITLE: TS BOND ANGLE DIHED IMPRP ELECT VDW BOUNDARY MISC KINETIC TOTAL TEMP POTENTIAL TOTAL3 TEMPAVG PRESSURE GPRESSURE VOLUME PRESSAVG GPRESSAVG
ENERGY: 175000 2.1450 5.1350 8.2684 0.0000 -21253.6287 3373.3213 0.0000 0.0000 1752.0330 -16112.7260 183.4696 -17864.7589 -16109.6091 183.4696 -355.6902 -297.8283 47039.2189 -355.6902 -297.8283
ENERGY: 185000 1.2142 3.6616 8.9978 0.0000 -20476.2750 3223.0895 0.0000 0.0000 1985.1673 -15254.1446 207.8830 -17239.3119 -15249.1842 208.5642 407.8020 477.7353 47038.8897 -1.7604 -1.8343
ENERGY: 195000 1.6139 3.8009 10.5434 0.0000 -20169.4670 3046.4861 0.0000 0.0000 2018.1396 -15088.8831 211.3358 -17107.0227 -15085.2271 212.2032 -280.2628 -150.4637 47184.5185 6.2125 6.1522
ENERGY: 205000 0.6997 5.2663 9.1720 0.0000 -20445.8686 3244.9342 0.0000 0.0000 1993.8846 -15191.9118 208.7958 -17185.7964 -15186.3171 209.2251 674.7385 780.3475 46520.7999 -0.5743 -0.6415
ENERGY: 215000 0.4582 8.1342 8.2479 0.0000 -20088.1032 2940.8669 0.0000 0.0000 2014.6263 -15115.7696 210.9679 -17130.3960 -15113.3748 209.5260 -743.0717 -709.7705 47050.2784 11.2017 11.3607
ENERGY: 225000 1.7162 3.3423 10.5926 0.0000 -20108.0999 2970.9984 0.0000 0.0000 1928.8367 -15192.6137 201.9841 -17121.4504 -15188.4765 209.8338 -579.0616 -476.6672 46903.3744 3.7871 3.4007
TCL: Running 50000 steps at 240 kelvin.
TCL: Setting parameter langevinTemp to 240
TCL: Running for 50000 steps
ETITLE: TS BOND ANGLE DIHED IMPRP ELECT VDW BOUNDARY MISC KINETIC TOTAL TEMP POTENTIAL TOTAL3 TEMPAVG PRESSURE GPRESSURE VOLUME PRESSAVG GPRESSAVG
ENERGY: 225000 1.7162 3.3423 10.5926 0.0000 -20108.0999 2970.9984 0.0000 0.0000 1927.8756 -15193.5749 201.8835 -17121.4504 -15190.1255 201.8835 -553.1631 -476.9413 46903.3744 -553.1631 -476.9413
ENERGY: 235000 2.1854 6.4402 10.2143 0.0000 -19097.4347 2706.6661 0.0000 0.0000 2294.5931 -14077.3356 240.2855 -16371.9287 -14073.5528 241.7649 -273.8022 -175.6702 46941.3500 0.2749 0.5281
ENERGY: 245000 1.8596 5.7217 8.8643 0.0000 -19301.1729 2795.6593 0.0000 0.0000 2331.8629 -14157.2051 244.1883 -16489.0680 -14152.6570 238.1090 -1.3735 78.7000 46867.2919 6.7904 6.7523
ENERGY: 255000 1.0284 4.5501 9.4695 0.0000 -19242.0238 2824.4725 0.0000 0.0000 2294.2334 -14108.2699 240.2478 -16402.5033 -14103.5553 241.0946 180.1453 252.6394 47081.0047 -1.0772 -0.4783
ENERGY: 265000 1.0460 8.4436 9.2453 0.0000 -19235.2414 2821.8228 0.0000 0.0000 2197.4617 -14197.2220 230.1140 -16394.6837 -14191.9343 239.5899 184.2833 242.4027 47181.8743 5.6433 5.6335
ENERGY: 275000 0.9482 7.7195 8.4378 0.0000 -19135.3072 2815.3025 0.0000 0.0000 2311.7583 -13991.1409 242.0830 -16302.8992 -13987.4865 240.9942 43.0532 161.8605 47780.4335 4.9231 4.7291
TCL: Running 50000 steps at 270 kelvin.
TCL: Setting parameter langevinTemp to 270
TCL: Running for 50000 steps
ETITLE: TS BOND ANGLE DIHED IMPRP ELECT VDW BOUNDARY MISC KINETIC TOTAL TEMP POTENTIAL TOTAL3 TEMPAVG PRESSURE GPRESSURE VOLUME PRESSAVG GPRESSAVG
ENERGY: 275000 0.9482 7.7195 8.4378 0.0000 -19135.3072 2815.3025 0.0000 0.0000 2310.6172 -13992.2820 241.9635 -16302.8992 -13987.9935 241.9635 82.9775 160.0296 47780.4335 82.9775 160.0296
ENERGY: 285000 1.8009 8.1464 9.4853 0.0000 -18412.0075 2566.9160 0.0000 0.0000 2571.3285 -13254.3304 269.2647 -15825.6589 -13249.3844 269.5948 -26.8909 70.6288 47760.1880 4.9329 4.8079
ENERGY: 295000 2.3821 4.3261 8.9455 0.0000 -18350.7013 2553.4472 0.0000 0.0000 2617.0748 -13164.5256 274.0551 -15781.6004 -13159.9091 270.8364 -56.2410 52.8452 47939.6550 4.0453 3.7933
ENERGY: 305000 2.3389 4.8762 10.2713 0.0000 -18425.2065 2630.4658 0.0000 0.0000 2507.9444 -13269.3099 262.6272 -15777.2543 -13264.7268 270.3408 212.9757 344.3328 47970.7590 2.2117 2.6357
ENERGY: 315000 1.1761 7.3064 9.4669 0.0000 -18414.2780 2558.3388 0.0000 0.0000 2540.9485 -13297.0413 266.0833 -15837.9898 -13290.1792 268.8663 -35.0831 78.4621 47763.8353 2.7242 1.6428
ENERGY: 325000 1.0172 6.7581 9.3749 0.0000 -18310.1061 2553.9550 0.0000 0.0000 2592.4004 -13146.6005 271.4713 -15739.0009 -13139.8247 269.9382 -27.2735 33.7984 47997.1494 7.1918 6.9310
TCL: Running 1000000 steps at 300 kelvin.
TCL: Setting parameter langevinTemp to 300
TCL: Running for 1000000 steps
ETITLE: TS BOND ANGLE DIHED IMPRP ELECT VDW BOUNDARY MISC KINETIC TOTAL TEMP POTENTIAL TOTAL3 TEMPAVG PRESSURE GPRESSURE VOLUME PRESSAVG GPRESSAVG
ENERGY: 325000 1.0172 6.7581 9.3749 0.0000 -18310.1061 2553.9550 0.0000 0.0000 2591.0963 -13147.9046 271.3347 -15739.0009 -13144.0057 271.3347 -57.2590 34.5382 47997.1494 -57.2590 34.5382
ENERGY: 525000 2.9666 6.1347 10.5118 0.0000 -17347.3626 2254.6294 0.0000 0.0000 2862.9370 -12210.1831 299.8014 -15073.1201 -12205.4156 297.6500 -334.1713 -308.1745 49442.5544 0.5670 0.5966
ENERGY: 725000 1.8007 6.2088 9.4228 0.0000 -17401.1952 2420.2555 0.0000 0.0000 2876.5530 -12086.9544 301.2272 -14963.5074 -12080.6914 300.6442 569.8867 667.7129 49160.8910 0.2165 0.5479
ENERGY: 925000 2.4937 3.9904 9.6250 0.0000 -17547.1082 2489.3108 0.0000 0.0000 2901.8621 -12139.8261 303.8775 -15041.6882 -12133.9176 301.4310 918.4670 1000.6462 48912.6889 3.9433 3.5305
ENERGY: 1125000 1.0182 8.4463 11.1996 0.0000 -17449.1707 2378.5753 0.0000 0.0000 2882.8332 -12167.0981 301.8849 -15049.9313 -12161.9754 300.8926 231.5114 297.5941 49228.2006 8.0164 8.8277
ENERGY: 1325000 3.0686 8.5270 10.2264 0.0000 -17677.1817 2380.0262 0.0000 0.0000 2814.9905 -12460.3430 294.7805 -15275.3335 -12454.7181 299.6090 -236.6569 -120.8911 49056.2201 2.4770 1.8158
TCL: Exiting due to exit command.
