Info: SIMULATION PARAMETERS:
Info: TIMESTEP               1
Info: NUMBER OF STEPS        0
Info: STEPS PER CYCLE        10
Info: PERIODIC CELL BASIS 1  30 0 0
Info: PERIODIC CELL BASIS 2  0 30 0
Info: PERIODIC CELL BASIS 3  0 0 30
Info: PERIODIC CELL CENTER   0 0 0
Info: WRAPPING ALL CLUSTERS AROUND PERIODIC BOUNDARIES ON OUTPUT.
Info: FIRST LDB TIMESTEP     50
Info: LAST LDB TIMESTEP     -1
Info: HOM BACKGROUND SCALING 1
Info: MIN ATOMS PER PATCH    40
Info: EMPTY PATCH LOAD       40 ATOMS
Info: INITIAL TEMPERATURE    298
Info: CENTER OF MASS MOVING INITIALLY? NO
Info: DIELECTRIC             1
Info: EXCLUDE                SCALED ONE-FOUR
Info: 1-4 ELECTROSTATICS SCALED BY 1
Info: MODIFIED 1-4 VDW PARAMETERS WILL BE USED
Info: DCD FILENAME           output.dcd
Info: DCD FREQUENCY          5
Info: DCD FIRST STEP         5
Info: DCD FILE WILL CONTAIN UNIT CELL DATA
Info: NO EXTENDED SYSTEM TRAJECTORY OUTPUT
Info: NO VELOCITY DCD OUTPUT
Info: NO FORCE DCD OUTPUT
Info: OUTPUT FILENAME        output
Info: BINARY OUTPUT FILES WILL BE USED
Info: NO RESTART FILE
Info: SWITCHING ACTIVE
Info: SWITCHING ON           10
Info: SWITCHING OFF          12
Info: PAIRLIST DISTANCE      14
Info: PAIRLIST SHRINK RATE   0.01
Info: PAIRLIST GROW RATE     0.01
Info: PAIRLIST TRIGGER       0.3
Info: PAIRLISTS PER CYCLE    2
Info: PAIRLISTS ENABLED
Info: MARGIN                 0
Info: HYDROGEN GROUP CUTOFF  2.5
Info: PATCH DIMENSION        16.5
Info: ENERGY OUTPUT STEPS    5
Info: ENERGY EVALUATION STEPS    5
Info: OUTPUT ENERGY PRECISION 4
Info: CROSSTERM ENERGY INCLUDED IN DIHEDRAL
Info: TIMING OUTPUT STEPS    5
Info: LANGEVIN DYNAMICS ACTIVE
Info: LANGEVIN TEMPERATURE   298
Info: LANGEVIN USING BBK INTEGRATOR
Info: LANGEVIN DAMPING COEFFICIENT IS 0.5 INVERSE PS
Info: LANGEVIN DYNAMICS APPLIED TO HYDROGENS
Info: MULTILEVEL SUMMATION METHOD (MSM) FOR ELECTROSTATICS ACTIVE
Info: MSM WITH C1 CUBIC INTERPOLATION AND C2 TAYLOR SPLITTING
Info: FULL ELECTROSTATIC EVALUATION FREQUENCY      1
Info: USING VERLET I (r-RESPA) MTS SCHEME.
Info: C1 SPLITTING OF LONG RANGE ELECTROSTATICS
Info: PLACING ATOMS IN PATCHES BY HYDROGEN GROUPS
Info: RIGID BONDS TO HYDROGEN : ALL
Info:         ERROR TOLERANCE : 1e-08
Info:          MAX ITERATIONS : 100
Info: RIGID WATER USING SETTLE ALGORITHM
Info: RANDOM NUMBER SEED     1740282290
Info: USE HYDROGEN BONDS?    NO
Info: COORDINATE PDB         ionized.pdb
Info: STRUCTURE FILE         ionized.psf
Info: PARAMETER file: CHARMM format!
Info: PARAMETERS             par_all27_prot_lipid.inp
Info: USING ARITHMETIC MEAN TO COMBINE L-J SIGMA PARAMETERS
Info: SUMMARY OF PARAMETERS:
Info: 180 BONDS
Info: 447 ANGLES
Info: 566 DIHEDRAL
Info: 46 IMPROPER
Info: 6 CROSSTERM
Info: 119 VDW
Info: 0 VDW_PAIRS
Info: 0 NBTHOLE_PAIRS
Info: STRUCTURE SUMMARY:
Info: 2476 ATOMS
Info: 1650 BONDS
Info: 825 ANGLES
Info: 0 DIHEDRALS
Info: 0 IMPROPERS
Info: 0 CROSSTERMS
Info: 0 EXCLUSIONS
Info: 2475 RIGID BONDS
Info: 4953 DEGREES OF FREEDOM
Info: 826 HYDROGEN GROUPS
Info: 3 ATOMS IN LARGEST HYDROGEN GROUP
Info: 826 MIGRATION GROUPS
Info: 3 ATOMS IN LARGEST MIGRATION GROUP
Info: TOTAL MASS = 14885.7 amu
Info: TOTAL CHARGE = 1 e
Info: MASS DENSITY = 0.915513 g/cm^3
Info: ATOM DENSITY = 0.0917037 atoms/A^3
Info: ADDED 2475 IMPLICIT EXCLUSIONS
Info: NONBONDED TABLE R-SQUARED SPACING: 0.0625
Info: NONBONDED TABLE SIZE: 769 POINTS
Info: REMOVING COM VELOCITY 0.111181 -0.0248807 0.108276
Info: MSM using C1 cubic interpolation
Info: MSM using C2 Taylor splitting function
Info: MSM block size decomposition along X is 8 grid points
Info: MSM block size decomposition along Y is 8 grid points
Info: MSM block size decomposition along Z is 8 grid points
Info: MSM grid spacing along X is 2.5 A
Info: MSM grid spacing along Y is 2.5 A
Info: MSM grid spacing along Z is 2.5 A
Info: MSM using 3 levels
Info:     level 0:  [0..11] x [0..11] x [0..11]
Info:     level 1:  [0..5] x [0..5] x [0..5]
Info:     level 2:  [0..2] x [0..2] x [0..2]
Info: MSM finished calculating stencils
Info: MSM finished creating map for grid levels
Info: MSM finished creating map for patches
Info: MSM has 9 interpolation / anterpolation objects (one per patch)
Info: MSM grid level 0 decomposed into 8 blocks ( 2 x 2 x 2 )
Info: MSM grid level 1 decomposed into 1 block ( 1 x 1 x 1 )
Info: MSM grid level 2 decomposed into 1 block ( 1 x 1 x 1 )
Info: MSM grid cutoff calculation decomposed into 783 work objects
TCL: Minimizing for 1000 steps
ETITLE: TS BOND ANGLE DIHED IMPRP ELECT VDW BOUNDARY MISC KINETIC TOTAL TEMP POTENTIAL TOTAL3 TEMPAVG PRESSURE GPRESSURE VOLUME PRESSAVG GPRESSAVG
ENERGY: 0 0.0000 0.0000 0.0000 0.0000 -7348.6497 6353.7252 0.0000 0.0000 0.0000 -994.9245 0.0000 -994.9245 -994.9245 0.0000 75204.0846 46356.0499 27000.0000 75204.0846 46356.0499
ENERGY: 200 0.0000 0.0000 0.0000 0.0000 -10387.4032 1019.4741 0.0000 0.0000 0.0000 -9367.9291 0.0000 -9367.9291 -9367.9291 0.0000 17849.6264 17783.2259 27000.0000 17849.6264 17783.2259
ENERGY: 400 0.0000 0.0000 0.0000 0.0000 -10924.4085 1250.3304 0.0000 0.0000 0.0000 -9674.0781 0.0000 -9674.0781 -9674.0781 0.0000 20424.0803 20332.9447 27000.0000 20424.0803 20332.9447
ENERGY: 600 0.0000 0.0000 0.0000 0.0000 -11072.6409 1295.7800 0.0000 0.0000 0.0000 -9776.8609 0.0000 -9776.8609 -9776.8609 0.0000 20961.7814 20875.2616 27000.0000 20961.7814 20875.2616
ENERGY: 800 0.0000 0.0000 0.0000 0.0000 -11180.5612 1317.3408 0.0000 0.0000 0.0000 -9863.2203 0.0000 -9863.2203 -9863.2203 0.0000 21186.7594 21111.5038 27000.0000 21186.7594 21111.5038
ENERGY: 1000 0.0000 0.0000 0.0000 0.0000 -11265.5555 1342.6775 0.0000 0.0000 0.0000 -9922.8780 0.0000 -9922.8780 -9922.8780 0.0000 21477.3055 21414.5577 27000.0000 21477.3055 21414.5577
TCL: Running for 1000 steps
ETITLE: TS BOND ANGLE DIHED IMPRP ELECT VDW BOUNDARY MISC KINETIC TOTAL TEMP POTENTIAL TOTAL3 TEMPAVG PRESSURE GPRESSURE VOLUME PRESSAVG GPRESSAVG
ENERGY: 1000 0.0000 0.0000 0.0000 0.0000 -11265.5555 1342.6775 0.0000 0.0000 1500.4818 -8422.3962 304.8967 -9922.8780 -8422.6334 304.8967 -2493.8759 -2493.8759 27000.0000 -2493.8759 -2493.8759
ENERGY: 1200 0.0000 0.0000 0.0000 0.0000 -10201.8255 1151.8546 0.0000 0.0000 771.7659 -8278.2049 156.8222 -9049.9709 -8278.0880 155.5648 -2063.8837 -2082.4046 27000.0000 -2049.0153 -2040.8164
ENERGY: 1400 0.0000 0.0000 0.0000 0.0000 -10137.6413 1154.5394 0.0000 0.0000 856.1661 -8126.9358 173.9723 -8983.1018 -8126.9664 174.1682 -1787.7848 -1756.3562 27000.0000 -1733.5052 -1721.4706
ENERGY: 1600 0.0000 0.0000 0.0000 0.0000 -10079.8519 1141.0165 0.0000 0.0000 925.2792 -8013.5562 188.0160 -8938.8354 -8013.2642 186.7324 -1829.5055 -1803.8837 27000.0000 -1799.4217 -1773.6738
ENERGY: 1800 0.0000 0.0000 0.0000 0.0000 -10031.6318 1145.5234 0.0000 0.0000 976.4015 -7909.7070 198.4040 -8886.1085 -7909.0720 199.2853 -1665.4309 -1583.0047 27000.0000 -1649.3241 -1645.5990
ENERGY: 2000 0.0000 0.0000 0.0000 0.0000 -9881.1159 1059.4681 0.0000 0.0000 987.3976 -7834.2502 200.6384 -8821.6478 -7835.0232 201.3335 -2159.3892 -2195.5598 27000.0000 -2160.7419 -2174.9239
