Info: SIMULATION PARAMETERS:
Info: TIMESTEP               2
Info: NUMBER OF STEPS        0
Info: STEPS PER CYCLE        10
Info: PERIODIC CELL BASIS 1  39.806 0 0
Info: PERIODIC CELL BASIS 2  0 39.303 0
Info: PERIODIC CELL BASIS 3  0 0 40.136
Info: PERIODIC CELL CENTER   0 0 0
Info: WRAPPING WATERS AROUND PERIODIC BOUNDARIES ON OUTPUT.
Info: WRAPPING ALL CLUSTERS AROUND PERIODIC BOUNDARIES ON OUTPUT.
Info: FIRST LDB TIMESTEP     50
Info: LAST LDB TIMESTEP     -1
Info: HOM BACKGROUND SCALING 1
Info: PME BACKGROUND SCALING 1
Info: MIN ATOMS PER PATCH    40
Info: EMPTY PATCH LOAD       40 ATOMS
Info: INITIAL TEMPERATURE    300
Info: CENTER OF MASS MOVING INITIALLY? NO
Info: DIELECTRIC             1
Info: EXCLUDE                SCALED ONE-FOUR
Info: 1-4 ELECTROSTATICS SCALED BY 0.833333
Info: MODIFIED 1-4 VDW PARAMETERS WILL BE USED
Info: DCD FILENAME           mobley_4699732_min.dcd
Info: DCD FREQUENCY          5000
Info: DCD FIRST STEP         5000
Info: DCD FILE WILL CONTAIN UNIT CELL DATA
Info: XST FILENAME           mobley_4699732_min.xst
Info: XST FREQUENCY          5000
Info: NO VELOCITY DCD OUTPUT
Info: NO FORCE DCD OUTPUT
Info: OUTPUT FILENAME        mobley_4699732_min
Info: BINARY OUTPUT FILES WILL BE USED
Info: RESTART FILENAME       mobley_4699732_min.restart
Info: RESTART FREQUENCY      5000
Info: BINARY RESTART FILES WILL BE USED
Info: CUTOFF                 9
Info: PAIRLIST DISTANCE      11
Info: PAIRLIST SHRINK RATE   0.01
Info: PAIRLIST GROW RATE     0.01
Info: PAIRLIST TRIGGER       0.3
Info: PAIRLISTS PER CYCLE    2
Info: PAIRLISTS ENABLED
Info: MARGIN                 8
Info: HYDROGEN GROUP CUTOFF  2.5
Info: PATCH DIMENSION        21.5
Info: ENERGY OUTPUT STEPS    5000
Info: ENERGY EVALUATION STEPS    5000
Info: OUTPUT ENERGY PRECISION 4
Info: CROSSTERM ENERGY INCLUDED IN DIHEDRAL
Info: TIMING OUTPUT STEPS    50000
Info: PRESSURE OUTPUT STEPS  5000
Info: LANGEVIN DYNAMICS ACTIVE
Info: LANGEVIN TEMPERATURE   300
Info: LANGEVIN USING BBK INTEGRATOR
Info: LANGEVIN DAMPING COEFFICIENT IS 1 INVERSE PS
Info: LANGEVIN DYNAMICS APPLIED TO HYDROGENS
Info: LANGEVIN PISTON PRESSURE CONTROL ACTIVE
Info:        TARGET PRESSURE IS 1.01325 BAR
Info:     OSCILLATION PERIOD IS 50 FS
Info:             DECAY TIME IS 25 FS
Info:     PISTON TEMPERATURE IS 300 K
Info:       PRESSURE CONTROL IS GROUP-BASED
Info:    INITIAL STRAIN RATE IS 0 0 0
Info:       CELL FLUCTUATION IS ISOTROPIC
Info: PARTICLE MESH EWALD (PME) ACTIVE
Info: PME TOLERANCE               1e-06
Info: PME EWALD COEFFICIENT       0.348832
Info: PME INTERPOLATION ORDER     4
Info: PME GRID DIMENSIONS         40 40 44
Info: PME MAXIMUM GRID SPACING    1
Info: FULL ELECTROSTATIC EVALUATION FREQUENCY      2
Info: USING VERLET I (r-RESPA) MTS SCHEME.
Info: C1 SPLITTING OF LONG RANGE ELECTROSTATICS
Info: PLACING ATOMS IN PATCHES BY HYDROGEN GROUPS
Info: RIGID BONDS TO HYDROGEN : ALL
Info:         ERROR TOLERANCE : 1e-08
Info:          MAX ITERATIONS : 100
Info: RIGID WATER USING SETTLE ALGORITHM
Info: RANDOM NUMBER SEED     1741336483
Info: USE HYDROGEN BONDS?    NO
Info: Using AMBER format force field!
Info: AMBER PARM FILE        mobley_4699732.prmtop
Info: COORDINATE PDB         mobley_4699732.pdb
Info: Exclusions will be read from PARM file!
Info: SCNB (VDW SCALING)     2
Info: USING ARITHMETIC MEAN TO COMBINE L-J SIGMA PARAMETERS
Info: SUMMARY OF PARAMETERS:
Info: 6 BONDS
Info: 7 ANGLES
Info:   7 HARMONIC
Info:   0 COSINE-BASED
Info: 6 DIHEDRAL
Info: 0 IMPROPER
Info: 0 CROSSTERM
Info: 0 VDW
Info: 21 VDW_PAIRS
Info: 0 NBTHOLE_PAIRS
Info: STRUCTURE SUMMARY:
Info: 4589 ATOMS
Info: 4588 BONDS
Info: 18 ANGLES
Info: 21 DIHEDRALS
Info: 0 IMPROPERS
Info: 0 CROSSTERMS
Info: 4624 EXCLUSIONS
Info: 4584 RIGID BONDS
Info: 9183 DEGREES OF FREEDOM
Info: 1531 HYDROGEN GROUPS
Info: 4 ATOMS IN LARGEST HYDROGEN GROUP
Info: 1531 MIGRATION GROUPS
Info: 4 ATOMS IN LARGEST MIGRATION GROUP
Info: TOTAL MASS = 27605.4 amu
Info: TOTAL CHARGE = -9.99905e-05 e
Info: MASS DENSITY = 0.730037 g/cm^3
Info: ATOM DENSITY = 0.0730819 atoms/A^3
Info: ADDED 0 IMPLICIT EXCLUSIONS
Info: NONBONDED TABLE R-SQUARED SPACING: 0.0625
Info: NONBONDED TABLE SIZE: 705 POINTS
Info: REMOVING COM VELOCITY -0.0771063 -0.0409622 0.0386534
TCL: Minimizing for 2000 steps
ETITLE: TS BOND ANGLE DIHED IMPRP ELECT VDW BOUNDARY MISC KINETIC TOTAL TEMP POTENTIAL TOTAL3 TEMPAVG PRESSURE GPRESSURE VOLUME PRESSAVG GPRESSAVG
ENERGY: 0 0.2229 0.4604 0.4400 0.0000 -14371.3887 1656.1220 0.0000 0.0000 0.0000 -12714.1435 0.0000 -12714.1435 -12714.1435 0.0000 11332.9693 -16003.5738 62792.5801 11332.9693 -16003.5738
ENERGY: 400 10.8176 13.5257 0.6136 0.0000 -19541.4359 2972.7941 0.0000 0.0000 0.0000 -16543.6849 0.0000 -16543.6849 -16543.6849 0.0000 16704.1704 16491.8367 62792.5801 16704.1704 16491.8367
ENERGY: 800 0.2733 1.1656 0.4150 0.0000 -20584.2120 3459.0242 0.0000 0.0000 0.0000 -17123.3340 0.0000 -17123.3340 -17123.3340 0.0000 19205.6393 18908.1470 62792.5801 19205.6393 18908.1470
ENERGY: 1200 0.2990 0.4910 0.4136 0.0000 -20937.4742 3596.0691 0.0000 0.0000 0.0000 -17340.2014 0.0000 -17340.2014 -17340.2014 0.0000 19928.6266 19623.3707 62792.5801 19928.6266 19623.3707
ENERGY: 1600 3.8616 3.1963 0.4572 0.0000 -21137.6515 3677.4389 0.0000 0.0000 0.0000 -17452.6975 0.0000 -17452.6975 -17452.6975 0.0000 20360.2931 20031.5255 62792.5801 20360.2931 20031.5255
ENERGY: 2000 0.4861 0.4941 0.4144 0.0000 -21255.9997 3724.7465 0.0000 0.0000 0.0000 -17529.8586 0.0000 -17529.8586 -17529.8586 0.0000 20602.0901 20288.4264 62792.5801 20602.0901 20288.4264
TCL: Exiting due to exit command.
Info: NAMD 3.0.1 for Linux-x86_64-multicore
Info: Please visit http://www.ks.uiuc.edu/Research/namd/
Info: for updates, documentation, and support information.
Info: Please cite Phillips et al., J. Chem. Phys. 153:044130 (2020) doi:10.1063/5.0014475
Info: in all publications reporting results obtained with NAMD.
Info: Based on Charm++/Converse 80000 for multicore-linux-x86_64-gcc
Info: Built Mon Oct 14 11:11:06 CDT 2024 by dhardy on athine.ks.uiuc.edu
Info: 1 NAMD  3.0.1  Linux-x86_64-multicore  16    k064  z5358697
Info: Running on 16 processors, 1 nodes, 1 physical nodes.
Info: CPU topology information available.
Info: Charm++/Converse parallel runtime startup completed at 0.00811571 s
Info: 1043.46 MB of memory in use based on /proc/self/stat
Info: Configuration file is mobley_4699732_equil.namd
Info: Working in the current directory /srv/scratch/z5358697/prod_prep_5/4699732
TCL: Running 25000 steps at 30 kelvin.
TCL: Suspending until startup complete.
Info: SIMULATION PARAMETERS:
Info: TIMESTEP               2
Info: NUMBER OF STEPS        0
Info: STEPS PER CYCLE        10
Info: PERIODIC CELL BASIS 1  39.806 0 0
Info: PERIODIC CELL BASIS 2  0 39.303 0
Info: PERIODIC CELL BASIS 3  0 0 40.136
Info: PERIODIC CELL CENTER   0 0 0
Info: WRAPPING WATERS AROUND PERIODIC BOUNDARIES ON OUTPUT.
Info: WRAPPING ALL CLUSTERS AROUND PERIODIC BOUNDARIES ON OUTPUT.
Info: FIRST LDB TIMESTEP     50
Info: LAST LDB TIMESTEP     -1
Info: HOM BACKGROUND SCALING 1
Info: PME BACKGROUND SCALING 1
Info: MIN ATOMS PER PATCH    40
Info: EMPTY PATCH LOAD       40 ATOMS
Info: INITIAL TEMPERATURE    300
Info: CENTER OF MASS MOVING INITIALLY? NO
Info: DIELECTRIC             1
Info: EXCLUDE                SCALED ONE-FOUR
Info: 1-4 ELECTROSTATICS SCALED BY 0.833333
Info: MODIFIED 1-4 VDW PARAMETERS WILL BE USED
Info: DCD FILENAME           mobley_4699732_equil.dcd
Info: DCD FREQUENCY          5000
Info: DCD FIRST STEP         5000
Info: DCD FILE WILL CONTAIN UNIT CELL DATA
Info: XST FILENAME           mobley_4699732_equil.xst
Info: XST FREQUENCY          5000
Info: NO VELOCITY DCD OUTPUT
Info: NO FORCE DCD OUTPUT
Info: OUTPUT FILENAME        mobley_4699732_equil
Info: BINARY OUTPUT FILES WILL BE USED
Info: RESTART FILENAME       mobley_4699732_equil.restart
Info: RESTART FREQUENCY      5000
Info: BINARY RESTART FILES WILL BE USED
Info: CUTOFF                 9
Info: PAIRLIST DISTANCE      11
Info: PAIRLIST SHRINK RATE   0.01
Info: PAIRLIST GROW RATE     0.01
Info: PAIRLIST TRIGGER       0.3
Info: PAIRLISTS PER CYCLE    2
Info: PAIRLISTS ENABLED
Info: MARGIN                 8
Info: HYDROGEN GROUP CUTOFF  2.5
Info: PATCH DIMENSION        21.5
Info: ENERGY OUTPUT STEPS    5000
Info: ENERGY EVALUATION STEPS    5000
Info: OUTPUT ENERGY PRECISION 4
Info: CROSSTERM ENERGY INCLUDED IN DIHEDRAL
Info: TIMING OUTPUT STEPS    50000
Info: PRESSURE OUTPUT STEPS  5000
Info: LANGEVIN DYNAMICS ACTIVE
Info: LANGEVIN TEMPERATURE   30
Info: LANGEVIN USING BBK INTEGRATOR
Info: LANGEVIN DAMPING COEFFICIENT IS 1 INVERSE PS
Info: LANGEVIN DYNAMICS APPLIED TO HYDROGENS
Info: LANGEVIN PISTON PRESSURE CONTROL ACTIVE
Info:        TARGET PRESSURE IS 1.01325 BAR
Info:     OSCILLATION PERIOD IS 50 FS
Info:             DECAY TIME IS 25 FS
Info:     PISTON TEMPERATURE IS 300 K
Info:       PRESSURE CONTROL IS GROUP-BASED
Info:    INITIAL STRAIN RATE IS 0 0 0
Info:       CELL FLUCTUATION IS ISOTROPIC
Info: PARTICLE MESH EWALD (PME) ACTIVE
Info: PME TOLERANCE               1e-06
Info: PME EWALD COEFFICIENT       0.348832
Info: PME INTERPOLATION ORDER     4
Info: PME GRID DIMENSIONS         40 40 44
Info: PME MAXIMUM GRID SPACING    1
Info: FULL ELECTROSTATIC EVALUATION FREQUENCY      2
Info: USING VERLET I (r-RESPA) MTS SCHEME.
Info: C1 SPLITTING OF LONG RANGE ELECTROSTATICS
Info: PLACING ATOMS IN PATCHES BY HYDROGEN GROUPS
Info: RIGID BONDS TO HYDROGEN : ALL
Info:         ERROR TOLERANCE : 1e-08
Info:          MAX ITERATIONS : 100
Info: RIGID WATER USING SETTLE ALGORITHM
Info: RANDOM NUMBER SEED     1741336497
Info: USE HYDROGEN BONDS?    NO
Info: Using AMBER format force field!
Info: AMBER PARM FILE        mobley_4699732.prmtop
Info: COORDINATE PDB         mobley_4699732.pdb
Info: Exclusions will be read from PARM file!
Info: SCNB (VDW SCALING)     2
Info: USING ARITHMETIC MEAN TO COMBINE L-J SIGMA PARAMETERS
Info: BINARY COORDINATES     mobley_4699732_min.coor
Info: SUMMARY OF PARAMETERS:
Info: 6 BONDS
Info: 7 ANGLES
Info:   7 HARMONIC
Info:   0 COSINE-BASED
Info: 6 DIHEDRAL
Info: 0 IMPROPER
Info: 0 CROSSTERM
Info: 0 VDW
Info: 21 VDW_PAIRS
Info: 0 NBTHOLE_PAIRS
Info: STRUCTURE SUMMARY:
Info: 4589 ATOMS
Info: 4588 BONDS
Info: 18 ANGLES
Info: 21 DIHEDRALS
Info: 0 IMPROPERS
Info: 0 CROSSTERMS
Info: 4624 EXCLUSIONS
Info: 4584 RIGID BONDS
Info: 9183 DEGREES OF FREEDOM
Info: 1531 HYDROGEN GROUPS
Info: 4 ATOMS IN LARGEST HYDROGEN GROUP
Info: 1531 MIGRATION GROUPS
Info: 4 ATOMS IN LARGEST MIGRATION GROUP
Info: TOTAL MASS = 27605.4 amu
Info: TOTAL CHARGE = -9.99905e-05 e
Info: MASS DENSITY = 0.730037 g/cm^3
Info: ATOM DENSITY = 0.0730819 atoms/A^3
Info: ADDED 0 IMPLICIT EXCLUSIONS
Info: NONBONDED TABLE R-SQUARED SPACING: 0.0625
Info: NONBONDED TABLE SIZE: 705 POINTS
Info: REMOVING COM VELOCITY -0.0268007 0.0675353 -0.0740127
TCL: Running for 25000 steps
ETITLE: TS BOND ANGLE DIHED IMPRP ELECT VDW BOUNDARY MISC KINETIC TOTAL TEMP POTENTIAL TOTAL3 TEMPAVG PRESSURE GPRESSURE VOLUME PRESSAVG GPRESSAVG
ENERGY: 0 0.4861 0.4941 0.4144 0.0000 -21255.9997 3724.7465 0.0000 0.0000 2728.6323 -14801.2263 299.0548 -17529.8586 -14800.6868 299.0548 336.9396 378.4672 62792.5801 336.9396 378.4672
ENERGY: 5000 0.0986 0.5758 0.4316 0.0000 -22222.7964 3935.9211 0.0000 0.0000 277.8850 -18007.8843 30.4559 -18285.7693 -18007.4337 47.5245 476.1012 532.1335 44303.0933 -0.7585 -0.7219
ENERGY: 10000 0.0600 0.7686 0.5450 0.0000 -22171.1247 3861.0842 0.0000 0.0000 271.3555 -18037.3115 29.7402 -18308.6670 -18036.7195 30.1615 60.3705 121.5080 44308.6326 4.5332 4.5559
ENERGY: 15000 0.1831 0.9340 0.4145 0.0000 -22196.7829 3891.1943 0.0000 0.0000 276.1081 -18027.9489 30.2611 -18304.0570 -18027.5949 30.1857 206.0425 293.4851 44168.5854 3.2667 3.2648
ENERGY: 20000 0.0530 0.5361 0.4062 0.0000 -22280.8378 3950.7781 0.0000 0.0000 283.9722 -18045.0923 31.1230 -18329.0645 -18044.1510 29.9795 506.1944 578.8108 44123.2189 -0.9812 -0.7773
ENERGY: 25000 0.3332 0.8354 0.4348 0.0000 -22279.0290 3940.6443 0.0000 0.0000 277.6645 -18059.1168 30.4317 -18336.7814 -18058.2389 30.2464 428.0605 501.0294 44055.2626 4.4368 4.2496
TCL: Running 25000 steps at 60 kelvin.
TCL: Setting parameter langevinTemp to 60
TCL: Running for 25000 steps
ETITLE: TS BOND ANGLE DIHED IMPRP ELECT VDW BOUNDARY MISC KINETIC TOTAL TEMP POTENTIAL TOTAL3 TEMPAVG PRESSURE GPRESSURE VOLUME PRESSAVG GPRESSAVG
ENERGY: 25000 0.3332 0.8354 0.4348 0.0000 -22279.0290 3940.6443 0.0000 0.0000 277.5290 -18059.2524 30.4168 -18336.7814 -18058.6667 30.4168 437.0187 501.0803 44055.2626 437.0187 501.0803
ENERGY: 30000 0.1523 1.0644 0.5621 0.0000 -21701.1716 3599.6582 0.0000 0.0000 543.7139 -17556.0208 59.5904 -18099.7347 -17554.4975 57.2580 -840.2849 -786.8807 44621.1724 0.8587 0.7975
ENERGY: 35000 0.4441 0.7768 0.4768 0.0000 -21879.3658 3763.5090 0.0000 0.0000 544.1278 -17570.0313 59.6358 -18114.1591 -17567.8463 60.3376 -33.9056 26.8830 44365.1388 3.5023 3.5923
ENERGY: 40000 0.0557 1.4190 0.6493 0.0000 -21903.5075 3745.4034 0.0000 0.0000 551.2180 -17604.7620 60.4128 -18155.9800 -17603.0744 60.1201 -198.9302 -138.0358 44354.4628 5.4679 5.4796
ENERGY: 45000 0.1131 1.5356 0.8144 0.0000 -22082.3140 3923.7983 0.0000 0.0000 550.7505 -17605.3022 60.3616 -18156.0526 -17604.3891 60.7376 768.0718 847.1272 44022.6028 -0.0946 -0.0322
ENERGY: 50000 0.1135 0.6880 0.4701 0.0000 -21837.5638 3675.1856 0.0000 0.0000 536.9487 -17624.1579 58.8489 -18161.1067 -17622.6671 59.8390 -568.7194 -520.6110 44413.5888 6.2912 5.9946
TCL: Running 25000 steps at 90 kelvin.
TCL: Setting parameter langevinTemp to 90
TCL: Running for 25000 steps
ETITLE: TS BOND ANGLE DIHED IMPRP ELECT VDW BOUNDARY MISC KINETIC TOTAL TEMP POTENTIAL TOTAL3 TEMPAVG PRESSURE GPRESSURE VOLUME PRESSAVG GPRESSAVG
ENERGY: 50000 0.1135 0.6880 0.4701 0.0000 -21837.5638 3675.1856 0.0000 0.0000 536.6817 -17624.4249 58.8197 -18161.1067 -17623.3273 58.8197 -571.9033 -520.6691 44413.5888 -571.9033 -520.6691
ENERGY: 55000 0.0582 1.2438 0.7739 0.0000 -21485.7113 3586.4213 0.0000 0.0000 819.5301 -17077.6840 89.8195 -17897.2141 -17075.1893 86.5786 -459.6163 -369.0418 44662.9242 2.8458 3.2912
ENERGY: 60000 0.8699 1.0378 0.6953 0.0000 -21576.3699 3663.7987 0.0000 0.0000 820.2993 -17089.6690 89.9038 -17909.9683 -17086.8804 90.0949 -121.5511 -112.7529 44745.6937 4.0922 4.1836
ENERGY: 65000 0.1595 2.0621 0.6440 0.0000 -21486.7974 3524.5220 0.0000 0.0000 799.3952 -17160.0145 87.6128 -17959.4097 -17156.9321 89.8303 -980.8836 -904.5970 44837.5993 0.4028 0.1759
ENERGY: 70000 1.0675 2.0410 0.6163 0.0000 -21614.4838 3634.8873 0.0000 0.0000 834.0989 -17141.7728 91.4162 -17975.8717 -17140.0351 90.6039 -382.4063 -305.2559 44544.8077 4.3413 4.3152
ENERGY: 75000 0.3487 1.6415 0.5001 0.0000 -21746.1418 3742.2466 0.0000 0.0000 826.0116 -17175.3934 90.5299 -18001.4050 -17173.3625 89.6239 126.5975 186.5228 44687.1053 1.3629 1.4389
TCL: Running 25000 steps at 120 kelvin.
TCL: Setting parameter langevinTemp to 120
TCL: Running for 25000 steps
ETITLE: TS BOND ANGLE DIHED IMPRP ELECT VDW BOUNDARY MISC KINETIC TOTAL TEMP POTENTIAL TOTAL3 TEMPAVG PRESSURE GPRESSURE VOLUME PRESSAVG GPRESSAVG
ENERGY: 75000 0.3487 1.6415 0.5001 0.0000 -21746.1418 3742.2466 0.0000 0.0000 825.5831 -17175.8219 90.4829 -18001.4050 -17174.4138 90.4829 133.1617 186.7087 44687.1053 133.1617 186.7087
ENERGY: 80000 0.4170 2.6210 0.4893 0.0000 -21105.0563 3410.4598 0.0000 0.0000 1109.1077 -16581.9614 121.5569 -17691.0692 -16578.9474 117.3634 -990.6850 -948.8304 45252.2455 1.3088 1.6403
ENERGY: 85000 1.0334 2.1941 0.6734 0.0000 -21332.5084 3600.3804 0.0000 0.0000 1087.1517 -16641.0755 119.1505 -17728.2271 -16637.2104 120.0967 -27.8518 18.6906 44815.1901 0.7582 0.6064
ENERGY: 90000 0.1610 1.6449 0.5435 0.0000 -21298.4819 3568.3440 0.0000 0.0000 1095.3277 -16632.4608 120.0466 -17727.7886 -16630.4823 120.4232 -198.1300 -129.5274 44788.3014 8.3648 8.4018
ENERGY: 95000 0.7336 1.6143 0.5737 0.0000 -21270.3827 3539.1805 0.0000 0.0000 1081.3943 -16646.8864 118.5195 -17728.2807 -16644.7715 119.3985 -372.6654 -308.9303 44886.7737 0.5554 0.6490
ENERGY: 100000 0.4070 3.2826 0.8077 0.0000 -21393.2363 3627.0673 0.0000 0.0000 1100.1397 -16661.5320 120.5740 -17761.6717 -16659.5501 119.8388 151.9703 228.0638 44589.8262 -3.3476 -3.3434
TCL: Running 25000 steps at 150 kelvin.
TCL: Setting parameter langevinTemp to 150
TCL: Running for 25000 steps
ETITLE: TS BOND ANGLE DIHED IMPRP ELECT VDW BOUNDARY MISC KINETIC TOTAL TEMP POTENTIAL TOTAL3 TEMPAVG PRESSURE GPRESSURE VOLUME PRESSAVG GPRESSAVG
ENERGY: 100000 0.4070 3.2826 0.8077 0.0000 -21393.2363 3627.0673 0.0000 0.0000 1099.5940 -16662.0777 120.5142 -17761.6717 -16659.9089 120.5142 172.5729 227.5615 44589.8262 172.5729 227.5615
ENERGY: 105000 0.1460 2.5728 0.7490 0.0000 -20744.0751 3357.5673 0.0000 0.0000 1344.7459 -16038.2941 147.3825 -17383.0400 -16036.2122 147.0040 -543.8925 -490.2253 45178.4878 4.1954 4.5167
ENERGY: 110000 0.2274 4.0863 1.2328 0.0000 -20873.5924 3377.9058 0.0000 0.0000 1389.7919 -16100.3482 152.3195 -17490.1402 -16096.9721 149.7622 -504.5511 -456.2001 45025.2981 4.3764 4.3435
ENERGY: 115000 0.9639 2.4114 0.9189 0.0000 -20847.6886 3411.5332 0.0000 0.0000 1366.9469 -16064.9145 149.8157 -17431.8613 -16061.0544 149.9763 -295.0913 -279.2060 45056.5712 -0.4544 -0.6521
ENERGY: 120000 0.4543 1.7247 0.5178 0.0000 -20788.2496 3375.7231 0.0000 0.0000 1397.8785 -16011.9513 153.2058 -17409.8298 -16008.9681 150.7838 -426.7066 -318.7043 45171.9370 -0.3568 -0.4343
ENERGY: 125000 0.6658 3.6560 0.5051 0.0000 -21011.1631 3520.5499 0.0000 0.0000 1392.6214 -16093.1648 152.6296 -17485.7862 -16088.6489 151.7439 161.6605 212.0279 44930.9822 1.2037 0.8291
TCL: Running 50000 steps at 180 kelvin.
TCL: Setting parameter langevinTemp to 180
TCL: Running for 50000 steps
ETITLE: TS BOND ANGLE DIHED IMPRP ELECT VDW BOUNDARY MISC KINETIC TOTAL TEMP POTENTIAL TOTAL3 TEMPAVG PRESSURE GPRESSURE VOLUME PRESSAVG GPRESSAVG
ENERGY: 125000 0.6658 3.6560 0.5051 0.0000 -21011.1631 3520.5499 0.0000 0.0000 1391.9473 -16093.8389 152.5558 -17485.7862 -16091.2638 152.5558 158.0814 212.2508 44930.9822 158.0814 212.2508
ENERGY: 135000 1.5559 2.1034 0.5020 0.0000 -20175.2109 3121.0788 0.0000 0.0000 1630.1569 -15419.8139 178.6632 -17049.9708 -15414.9956 179.5808 -1114.3348 -1046.9801 45736.7517 1.9482 1.9744
ENERGY: 145000 0.7757 2.9753 0.6179 0.0000 -20329.7582 3257.7736 0.0000 0.0000 1670.2198 -15397.3958 183.0541 -17067.6157 -15392.7266 180.2720 35.4407 90.2616 44742.7323 3.5342 3.4423
ENERGY: 155000 0.6368 2.7897 0.4954 0.0000 -20427.3876 3335.7906 0.0000 0.0000 1618.2145 -15469.4606 177.3544 -17087.6751 -15466.5662 179.8384 163.4919 244.3621 44972.5086 4.4129 4.1001
ENERGY: 165000 0.6524 6.4746 0.9095 0.0000 -20383.4562 3301.2849 0.0000 0.0000 1675.6703 -15398.4644 183.6515 -17074.1347 -15395.3502 181.7901 28.4058 90.0604 45082.2655 8.4886 8.2901
ENERGY: 175000 0.5846 3.9225 1.0028 0.0000 -20705.4103 3566.6113 0.0000 0.0000 1677.7308 -15455.5583 183.8773 -17133.2892 -15451.7594 180.9001 1213.4348 1309.0121 45059.7084 4.7609 4.5997
TCL: Running 50000 steps at 210 kelvin.
TCL: Setting parameter langevinTemp to 210
TCL: Running for 50000 steps
ETITLE: TS BOND ANGLE DIHED IMPRP ELECT VDW BOUNDARY MISC KINETIC TOTAL TEMP POTENTIAL TOTAL3 TEMPAVG PRESSURE GPRESSURE VOLUME PRESSAVG GPRESSAVG
ENERGY: 175000 0.5846 3.9225 1.0028 0.0000 -20705.4103 3566.6113 0.0000 0.0000 1676.9204 -15456.3688 183.7885 -17133.2892 -15453.4490 183.7885 1261.5379 1309.4233 45059.7084 1261.5379 1309.4233
ENERGY: 185000 1.3958 4.0678 0.9066 0.0000 -19359.6809 2877.8179 0.0000 0.0000 1917.3893 -14558.1035 210.1436 -16475.4928 -14552.1236 209.7448 -729.7362 -638.0510 44721.3893 -0.2006 -0.7273
ENERGY: 195000 1.0625 4.9538 0.8309 0.0000 -19631.5599 3230.2023 0.0000 0.0000 1955.2485 -14439.2618 214.2929 -16394.5103 -14433.4357 210.6381 1557.8247 1576.3495 44450.8812 2.0471 2.1956
ENERGY: 205000 0.2251 3.5613 1.1811 0.0000 -19333.6504 2973.5106 0.0000 0.0000 1912.9077 -14442.2645 209.6524 -16355.1722 -14437.4056 209.8171 10.7313 49.6759 44941.1548 4.3415 4.5229
ENERGY: 215000 1.2183 5.9350 0.8227 0.0000 -19284.0008 2987.1952 0.0000 0.0000 1906.4347 -14382.3949 208.9430 -16288.8295 -14377.7674 211.1118 442.2036 484.4501 44688.0811 7.4210 6.7575
ENERGY: 225000 1.6416 2.8489 1.0856 0.0000 -19421.0971 3005.5011 0.0000 0.0000 1936.3906 -14473.6293 212.2261 -16410.0199 -14470.7242 211.4900 276.1249 372.5321 44614.8117 1.8834 2.0490
TCL: Running 50000 steps at 240 kelvin.
TCL: Setting parameter langevinTemp to 240
TCL: Running for 50000 steps
ETITLE: TS BOND ANGLE DIHED IMPRP ELECT VDW BOUNDARY MISC KINETIC TOTAL TEMP POTENTIAL TOTAL3 TEMPAVG PRESSURE GPRESSURE VOLUME PRESSAVG GPRESSAVG
ENERGY: 225000 1.6416 2.8489 1.0856 0.0000 -19421.0971 3005.5011 0.0000 0.0000 1935.4206 -14474.5993 212.1198 -16410.0199 -14471.7540 212.1198 292.9742 372.9849 44614.8117 292.9742 372.9849
ENERGY: 235000 1.0108 1.9248 0.5823 0.0000 -18066.5279 2461.2562 0.0000 0.0000 2258.4974 -13343.2563 247.5286 -15601.7537 -13339.4139 239.5555 -1033.9401 -909.6843 45581.9012 4.3377 3.6590
ENERGY: 245000 1.5656 3.1654 1.0495 0.0000 -18220.6251 2548.9488 0.0000 0.0000 2169.9283 -13495.9675 237.8215 -15665.8958 -13489.1895 240.4104 -822.6328 -778.4949 46003.7247 2.3585 2.1696
ENERGY: 255000 0.7174 3.1179 0.9659 0.0000 -18478.4452 2742.3902 0.0000 0.0000 2257.9976 -13473.2561 247.4738 -15731.2538 -13467.6269 241.6398 277.6040 341.9026 45209.7042 -0.0581 -0.1033
ENERGY: 265000 0.7793 3.5082 0.4582 0.0000 -18524.6229 2700.3530 0.0000 0.0000 2163.3490 -13656.1751 237.1005 -15819.5242 -13649.6649 236.6881 -224.5508 -86.4113 45195.6040 5.6670 5.8753
ENERGY: 275000 0.1416 3.6100 0.8490 0.0000 -18472.5968 2668.9331 0.0000 0.0000 2191.4789 -13607.5841 240.1835 -15799.0631 -13603.5341 238.0169 -244.4123 -186.1806 45288.7379 -2.1774 -2.4471
TCL: Running 50000 steps at 270 kelvin.
TCL: Setting parameter langevinTemp to 270
TCL: Running for 50000 steps
ETITLE: TS BOND ANGLE DIHED IMPRP ELECT VDW BOUNDARY MISC KINETIC TOTAL TEMP POTENTIAL TOTAL3 TEMPAVG PRESSURE GPRESSURE VOLUME PRESSAVG GPRESSAVG
ENERGY: 275000 0.1416 3.6100 0.8490 0.0000 -18472.5968 2668.9331 0.0000 0.0000 2190.4166 -13608.6464 240.0670 -15799.0631 -13605.0379 240.0670 -269.5962 -186.3344 45288.7379 -269.5962 -186.3344
ENERGY: 285000 2.7469 4.9843 0.5630 0.0000 -17741.4568 2605.5412 0.0000 0.0000 2523.7255 -12603.8959 276.5973 -15127.6214 -12600.2886 269.2954 734.9835 807.4632 46057.7788 3.4309 3.0908
ENERGY: 295000 0.4880 4.1928 0.6558 0.0000 -17357.8529 2316.9402 0.0000 0.0000 2496.0833 -12539.4928 273.5677 -15035.5761 -12536.1283 270.2679 -694.4399 -648.6758 46415.9116 0.2754 -0.0962
ENERGY: 305000 0.0494 5.6149 0.6599 0.0000 -17445.6561 2374.4299 0.0000 0.0000 2435.9376 -12628.9645 266.9758 -15064.9020 -12623.7319 270.9422 -520.8578 -431.1992 46372.0549 0.4154 0.7573
ENERGY: 315000 1.0772 6.6240 0.9946 0.0000 -17495.6899 2442.2382 0.0000 0.0000 2465.8550 -12578.9008 270.2548 -15044.7559 -12574.5413 270.4906 31.1582 64.3785 46088.7371 5.5536 5.5432
ENERGY: 325000 0.8994 4.0473 0.8423 0.0000 -17622.1376 2524.3309 0.0000 0.0000 2483.3380 -12608.6798 272.1709 -15092.0177 -12607.4787 270.4855 402.3881 444.8874 46125.9424 7.8357 7.2739
TCL: Running 1000000 steps at 300 kelvin.
TCL: Setting parameter langevinTemp to 300
TCL: Running for 1000000 steps
ETITLE: TS BOND ANGLE DIHED IMPRP ELECT VDW BOUNDARY MISC KINETIC TOTAL TEMP POTENTIAL TOTAL3 TEMPAVG PRESSURE GPRESSURE VOLUME PRESSAVG GPRESSAVG
ENERGY: 325000 0.8994 4.0473 0.8423 0.0000 -17622.1376 2524.3309 0.0000 0.0000 2482.0839 -12609.9338 272.0334 -15092.0177 -12606.1366 272.0334 357.0511 442.6376 46125.9424 357.0511 442.6376
ENERGY: 525000 1.3889 3.2927 0.9607 0.0000 -16481.9897 2101.1744 0.0000 0.0000 2710.5664 -11664.6065 297.0748 -14375.1729 -11656.8418 298.8402 -714.6642 -623.6360 47444.7404 0.5338 0.5218
ENERGY: 725000 1.3152 2.1637 1.0692 0.0000 -16519.1824 2131.9333 0.0000 0.0000 2800.9127 -11581.7884 306.9767 -14382.7011 -11576.7422 300.6582 -488.9972 -432.7255 47636.1154 0.1355 -0.0218
ENERGY: 925000 0.7783 5.0194 1.1973 0.0000 -16570.2980 2180.3331 0.0000 0.0000 2700.2643 -11682.7057 295.9457 -14382.9699 -11679.0757 300.6421 -135.0553 -72.6959 47126.3361 7.8054 7.3963
ENERGY: 1125000 1.2584 5.9928 1.3654 0.0000 -16465.4542 2105.5789 0.0000 0.0000 2736.0350 -11615.2237 299.8662 -14351.2587 -11608.7981 300.5443 -654.2664 -621.0247 47761.1781 2.7005 3.1632
ENERGY: 1325000 0.4906 5.0162 1.5133 0.0000 -16776.2654 2328.8106 0.0000 0.0000 2838.2009 -11602.2338 311.0634 -14440.4347 -11596.3659 300.0844 513.8335 566.9849 47145.3235 5.1293 5.6962
TCL: Exiting due to exit command.
