Info: SIMULATION PARAMETERS:
Info: TIMESTEP               2
Info: NUMBER OF STEPS        0
Info: STEPS PER CYCLE        10
Info: PERIODIC CELL BASIS 1  39.806 0 0
Info: PERIODIC CELL BASIS 2  0 39.303 0
Info: PERIODIC CELL BASIS 3  0 0 42.851
Info: PERIODIC CELL CENTER   0 0 0
Info: WRAPPING WATERS AROUND PERIODIC BOUNDARIES ON OUTPUT.
Info: WRAPPING ALL CLUSTERS AROUND PERIODIC BOUNDARIES ON OUTPUT.
Info: FIRST LDB TIMESTEP     50
Info: LAST LDB TIMESTEP     -1
Info: HOM BACKGROUND SCALING 1
Info: PME BACKGROUND SCALING 1
Info: MIN ATOMS PER PATCH    40
Info: EMPTY PATCH LOAD       40 ATOMS
Info: INITIAL TEMPERATURE    300
Info: CENTER OF MASS MOVING INITIALLY? NO
Info: DIELECTRIC             1
Info: EXCLUDE                SCALED ONE-FOUR
Info: 1-4 ELECTROSTATICS SCALED BY 0.833333
Info: MODIFIED 1-4 VDW PARAMETERS WILL BE USED
Info: DCD FILENAME           mobley_1046331_min.dcd
Info: DCD FREQUENCY          5000
Info: DCD FIRST STEP         5000
Info: DCD FILE WILL CONTAIN UNIT CELL DATA
Info: XST FILENAME           mobley_1046331_min.xst
Info: XST FREQUENCY          5000
Info: NO VELOCITY DCD OUTPUT
Info: NO FORCE DCD OUTPUT
Info: OUTPUT FILENAME        mobley_1046331_min
Info: BINARY OUTPUT FILES WILL BE USED
Info: RESTART FILENAME       mobley_1046331_min.restart
Info: RESTART FREQUENCY      5000
Info: BINARY RESTART FILES WILL BE USED
Info: CUTOFF                 9
Info: PAIRLIST DISTANCE      11
Info: PAIRLIST SHRINK RATE   0.01
Info: PAIRLIST GROW RATE     0.01
Info: PAIRLIST TRIGGER       0.3
Info: PAIRLISTS PER CYCLE    2
Info: PAIRLISTS ENABLED
Info: MARGIN                 8
Info: HYDROGEN GROUP CUTOFF  2.5
Info: PATCH DIMENSION        21.5
Info: ENERGY OUTPUT STEPS    5000
Info: ENERGY EVALUATION STEPS    5000
Info: OUTPUT ENERGY PRECISION 4
Info: CROSSTERM ENERGY INCLUDED IN DIHEDRAL
Info: TIMING OUTPUT STEPS    50000
Info: PRESSURE OUTPUT STEPS  5000
Info: LANGEVIN DYNAMICS ACTIVE
Info: LANGEVIN TEMPERATURE   300
Info: LANGEVIN USING BBK INTEGRATOR
Info: LANGEVIN DAMPING COEFFICIENT IS 1 INVERSE PS
Info: LANGEVIN DYNAMICS APPLIED TO HYDROGENS
Info: LANGEVIN PISTON PRESSURE CONTROL ACTIVE
Info:        TARGET PRESSURE IS 1.01325 BAR
Info:     OSCILLATION PERIOD IS 50 FS
Info:             DECAY TIME IS 25 FS
Info:     PISTON TEMPERATURE IS 300 K
Info:       PRESSURE CONTROL IS GROUP-BASED
Info:    INITIAL STRAIN RATE IS 0 0 0
Info:       CELL FLUCTUATION IS ISOTROPIC
Info: PARTICLE MESH EWALD (PME) ACTIVE
Info: PME TOLERANCE               1e-06
Info: PME EWALD COEFFICIENT       0.348832
Info: PME INTERPOLATION ORDER     4
Info: PME GRID DIMENSIONS         40 40 44
Info: PME MAXIMUM GRID SPACING    1
Info: FULL ELECTROSTATIC EVALUATION FREQUENCY      2
Info: USING VERLET I (r-RESPA) MTS SCHEME.
Info: C1 SPLITTING OF LONG RANGE ELECTROSTATICS
Info: PLACING ATOMS IN PATCHES BY HYDROGEN GROUPS
Info: RIGID BONDS TO HYDROGEN : ALL
Info:         ERROR TOLERANCE : 1e-08
Info:          MAX ITERATIONS : 100
Info: RIGID WATER USING SETTLE ALGORITHM
Info: RANDOM NUMBER SEED     1741309214
Info: USE HYDROGEN BONDS?    NO
Info: Using AMBER format force field!
Info: AMBER PARM FILE        mobley_1046331.prmtop
Info: COORDINATE PDB         mobley_1046331.pdb
Info: Exclusions will be read from PARM file!
Info: SCNB (VDW SCALING)     2
Info: USING ARITHMETIC MEAN TO COMBINE L-J SIGMA PARAMETERS
Info: SUMMARY OF PARAMETERS:
Info: 8 BONDS
Info: 7 ANGLES
Info: 8 DIHEDRAL
Info: 0 IMPROPER
Info: 0 CROSSTERM
Info: 0 VDW
Info: 28 VDW_PAIRS
Info: 0 NBTHOLE_PAIRS
Info: STRUCTURE SUMMARY:
Info: 4899 ATOMS
Info: 4899 BONDS
Info: 22 ANGLES
Info: 36 DIHEDRALS
Info: 0 IMPROPERS
Info: 0 CROSSTERMS
Info: 4946 EXCLUSIONS
Info: 4890 RIGID BONDS
Info: 9807 DEGREES OF FREEDOM
Info: 1637 HYDROGEN GROUPS
Info: 3 ATOMS IN LARGEST HYDROGEN GROUP
Info: 1637 MIGRATION GROUPS
Info: 3 ATOMS IN LARGEST MIGRATION GROUP
Info: TOTAL MASS = 29452.2 amu
Info: TOTAL CHARGE = 0.000100024 e
Info: MASS DENSITY = 0.729527 g/cm^3
Info: ATOM DENSITY = 0.0730756 atoms/A^3
Info: ADDED 0 IMPLICIT EXCLUSIONS
Info: NONBONDED TABLE R-SQUARED SPACING: 0.0625
Info: NONBONDED TABLE SIZE: 705 POINTS
Info: REMOVING COM VELOCITY -0.0332104 0.033052 -0.0366822
TCL: Minimizing for 2000 steps
ETITLE: TS BOND ANGLE DIHED IMPRP ELECT VDW BOUNDARY MISC KINETIC TOTAL TEMP POTENTIAL TOTAL3 TEMPAVG PRESSURE GPRESSURE VOLUME PRESSAVG GPRESSAVG
ENERGY: 0 0.5232 2.4119 7.5403 0.0000 -15366.0375 1767.1226 0.0000 0.0000 0.0000 -13588.4395 0.0000 -13588.4395 -13588.4395 0.0000 11397.5908 -15957.2004 67040.1846 11397.5908 -15957.2004
ENERGY: 400 91.1504 17.1926 8.6511 0.0000 -20500.7846 2961.2728 0.0000 0.0000 0.0000 -17422.5177 0.0000 -17422.5177 -17422.5177 0.0000 15646.4641 15754.4028 67040.1846 15646.4641 15754.4028
ENERGY: 800 15.7641 3.2762 7.6385 0.0000 -21526.5639 3406.6037 0.0000 0.0000 0.0000 -18093.2814 0.0000 -18093.2814 -18093.2814 0.0000 17848.8625 17956.9564 67040.1846 17848.8625 17956.9564
ENERGY: 1200 4.1704 0.6549 6.8000 0.0000 -22165.8786 3746.4368 0.0000 0.0000 0.0000 -18407.8166 0.0000 -18407.8166 -18407.8166 0.0000 19605.2225 19688.4344 67040.1846 19605.2225 19688.4344
ENERGY: 1600 19.9771 8.2156 7.7190 0.0000 -22384.6036 3826.0811 0.0000 0.0000 0.0000 -18522.6108 0.0000 -18522.6108 -18522.6108 0.0000 20021.2265 20119.2271 67040.1846 20021.2265 20119.2271
ENERGY: 2000 0.3333 0.1732 6.6560 0.0000 -22544.7521 3907.8286 0.0000 0.0000 0.0000 -18629.7610 0.0000 -18629.7610 -18629.7610 0.0000 20486.2872 20564.4615 67040.1846 20486.2872 20564.4615
TCL: Exiting due to exit command.
Info: NAMD 3.0.1 for Linux-x86_64-multicore
Info: Please visit http://www.ks.uiuc.edu/Research/namd/
Info: for updates, documentation, and support information.
Info: Please cite Phillips et al., J. Chem. Phys. 153:044130 (2020) doi:10.1063/5.0014475
Info: in all publications reporting results obtained with NAMD.
Info: Based on Charm++/Converse 80000 for multicore-linux-x86_64-gcc
Info: Built Mon Oct 14 11:11:06 CDT 2024 by dhardy on athine.ks.uiuc.edu
Info: 1 NAMD  3.0.1  Linux-x86_64-multicore  16    k065  z5358697
Info: Running on 16 processors, 1 nodes, 1 physical nodes.
Info: CPU topology information available.
Info: Charm++/Converse parallel runtime startup completed at 0.00985238 s
Info: 1043.46 MB of memory in use based on /proc/self/stat
Info: Configuration file is mobley_1046331_equil.namd
Info: Working in the current directory /srv/scratch/z5358697/prod_prep/1046331
TCL: Running 25000 steps at 30 kelvin.
TCL: Suspending until startup complete.
Info: SIMULATION PARAMETERS:
Info: TIMESTEP               2
Info: NUMBER OF STEPS        0
Info: STEPS PER CYCLE        10
Info: PERIODIC CELL BASIS 1  39.806 0 0
Info: PERIODIC CELL BASIS 2  0 39.303 0
Info: PERIODIC CELL BASIS 3  0 0 42.851
Info: PERIODIC CELL CENTER   0 0 0
Info: WRAPPING WATERS AROUND PERIODIC BOUNDARIES ON OUTPUT.
Info: WRAPPING ALL CLUSTERS AROUND PERIODIC BOUNDARIES ON OUTPUT.
Info: FIRST LDB TIMESTEP     50
Info: LAST LDB TIMESTEP     -1
Info: HOM BACKGROUND SCALING 1
Info: PME BACKGROUND SCALING 1
Info: MIN ATOMS PER PATCH    40
Info: EMPTY PATCH LOAD       40 ATOMS
Info: INITIAL TEMPERATURE    300
Info: CENTER OF MASS MOVING INITIALLY? NO
Info: DIELECTRIC             1
Info: EXCLUDE                SCALED ONE-FOUR
Info: 1-4 ELECTROSTATICS SCALED BY 0.833333
Info: MODIFIED 1-4 VDW PARAMETERS WILL BE USED
Info: DCD FILENAME           mobley_1046331_equil.dcd
Info: DCD FREQUENCY          5000
Info: DCD FIRST STEP         5000
Info: DCD FILE WILL CONTAIN UNIT CELL DATA
Info: XST FILENAME           mobley_1046331_equil.xst
Info: XST FREQUENCY          5000
Info: NO VELOCITY DCD OUTPUT
Info: NO FORCE DCD OUTPUT
Info: OUTPUT FILENAME        mobley_1046331_equil
Info: BINARY OUTPUT FILES WILL BE USED
Info: RESTART FILENAME       mobley_1046331_equil.restart
Info: RESTART FREQUENCY      5000
Info: BINARY RESTART FILES WILL BE USED
Info: CUTOFF                 9
Info: PAIRLIST DISTANCE      11
Info: PAIRLIST SHRINK RATE   0.01
Info: PAIRLIST GROW RATE     0.01
Info: PAIRLIST TRIGGER       0.3
Info: PAIRLISTS PER CYCLE    2
Info: PAIRLISTS ENABLED
Info: MARGIN                 8
Info: HYDROGEN GROUP CUTOFF  2.5
Info: PATCH DIMENSION        21.5
Info: ENERGY OUTPUT STEPS    5000
Info: ENERGY EVALUATION STEPS    5000
Info: OUTPUT ENERGY PRECISION 4
Info: CROSSTERM ENERGY INCLUDED IN DIHEDRAL
Info: TIMING OUTPUT STEPS    50000
Info: PRESSURE OUTPUT STEPS  5000
Info: LANGEVIN DYNAMICS ACTIVE
Info: LANGEVIN TEMPERATURE   30
Info: LANGEVIN USING BBK INTEGRATOR
Info: LANGEVIN DAMPING COEFFICIENT IS 1 INVERSE PS
Info: LANGEVIN DYNAMICS APPLIED TO HYDROGENS
Info: LANGEVIN PISTON PRESSURE CONTROL ACTIVE
Info:        TARGET PRESSURE IS 1.01325 BAR
Info:     OSCILLATION PERIOD IS 50 FS
Info:             DECAY TIME IS 25 FS
Info:     PISTON TEMPERATURE IS 300 K
Info:       PRESSURE CONTROL IS GROUP-BASED
Info:    INITIAL STRAIN RATE IS 0 0 0
Info:       CELL FLUCTUATION IS ISOTROPIC
Info: PARTICLE MESH EWALD (PME) ACTIVE
Info: PME TOLERANCE               1e-06
Info: PME EWALD COEFFICIENT       0.348832
Info: PME INTERPOLATION ORDER     4
Info: PME GRID DIMENSIONS         40 40 44
Info: PME MAXIMUM GRID SPACING    1
Info: FULL ELECTROSTATIC EVALUATION FREQUENCY      2
Info: USING VERLET I (r-RESPA) MTS SCHEME.
Info: C1 SPLITTING OF LONG RANGE ELECTROSTATICS
Info: PLACING ATOMS IN PATCHES BY HYDROGEN GROUPS
Info: RIGID BONDS TO HYDROGEN : ALL
Info:         ERROR TOLERANCE : 1e-08
Info:          MAX ITERATIONS : 100
Info: RIGID WATER USING SETTLE ALGORITHM
Info: RANDOM NUMBER SEED     1741309228
Info: USE HYDROGEN BONDS?    NO
Info: Using AMBER format force field!
Info: AMBER PARM FILE        mobley_1046331.prmtop
Info: COORDINATE PDB         mobley_1046331.pdb
Info: Exclusions will be read from PARM file!
Info: SCNB (VDW SCALING)     2
Info: USING ARITHMETIC MEAN TO COMBINE L-J SIGMA PARAMETERS
Info: BINARY COORDINATES     mobley_1046331_min.coor
Info: SUMMARY OF PARAMETERS:
Info: 8 BONDS
Info: 7 ANGLES
Info:   7 HARMONIC
Info:   0 COSINE-BASED
Info: 8 DIHEDRAL
Info: 0 IMPROPER
Info: 0 CROSSTERM
Info: 0 VDW
Info: 28 VDW_PAIRS
Info: 0 NBTHOLE_PAIRS
Info: STRUCTURE SUMMARY:
Info: 4899 ATOMS
Info: 4899 BONDS
Info: 22 ANGLES
Info: 36 DIHEDRALS
Info: 0 IMPROPERS
Info: 0 CROSSTERMS
Info: 4946 EXCLUSIONS
Info: 4890 RIGID BONDS
Info: 9807 DEGREES OF FREEDOM
Info: 1637 HYDROGEN GROUPS
Info: 3 ATOMS IN LARGEST HYDROGEN GROUP
Info: 1637 MIGRATION GROUPS
Info: 3 ATOMS IN LARGEST MIGRATION GROUP
Info: TOTAL MASS = 29452.2 amu
Info: TOTAL CHARGE = 0.000100024 e
Info: MASS DENSITY = 0.729527 g/cm^3
Info: ATOM DENSITY = 0.0730756 atoms/A^3
Info: ADDED 0 IMPLICIT EXCLUSIONS
Info: NONBONDED TABLE R-SQUARED SPACING: 0.0625
Info: NONBONDED TABLE SIZE: 705 POINTS
Info: REMOVING COM VELOCITY -0.013724 -0.112633 0.0625203
TCL: Running for 25000 steps
ETITLE: TS BOND ANGLE DIHED IMPRP ELECT VDW BOUNDARY MISC KINETIC TOTAL TEMP POTENTIAL TOTAL3 TEMPAVG PRESSURE GPRESSURE VOLUME PRESSAVG GPRESSAVG
ENERGY: 0 0.3333 0.1732 6.6560 0.0000 -22544.7521 3907.8286 0.0000 0.0000 2867.1576 -15762.6035 294.2427 -18629.7610 -15762.0325 294.2427 363.3621 400.3891 67040.1846 363.3621 400.3891
ENERGY: 5000 0.5278 1.2359 6.4286 0.0000 -23267.5158 3869.6635 0.0000 0.0000 288.9432 -19100.7169 29.6529 -19389.6601 -19099.7500 47.0147 -1002.1157 -937.9502 47930.3176 3.9500 4.0679
ENERGY: 10000 0.3666 0.5783 6.3964 0.0000 -23586.3590 4130.2158 0.0000 0.0000 303.3507 -19145.4512 31.1314 -19448.8019 -19144.7060 30.3262 269.0135 338.3518 47615.6459 0.8995 0.7677
ENERGY: 15000 0.2839 0.8760 6.2637 0.0000 -23546.6056 4059.6897 0.0000 0.0000 288.1608 -19191.3315 29.5726 -19479.4924 -19190.4077 30.1833 -118.1237 -54.1061 47582.4784 -0.2913 -0.4104
ENERGY: 20000 0.6039 0.8063 6.2985 0.0000 -23555.3337 4055.0242 0.0000 0.0000 288.9440 -19203.6567 29.6530 -19492.6007 -19203.1175 29.8992 -207.6200 -144.7853 47518.0965 4.3362 4.3314
ENERGY: 25000 0.4839 1.5727 5.7801 0.0000 -23675.0211 4162.1045 0.0000 0.0000 300.2654 -19204.8144 30.8148 -19505.0798 -19203.8840 30.1293 412.2274 470.4525 47320.2368 0.0600 -0.0299
TCL: Running 25000 steps at 60 kelvin.
TCL: Setting parameter langevinTemp to 60
TCL: Running for 25000 steps
ETITLE: TS BOND ANGLE DIHED IMPRP ELECT VDW BOUNDARY MISC KINETIC TOTAL TEMP POTENTIAL TOTAL3 TEMPAVG PRESSURE GPRESSURE VOLUME PRESSAVG GPRESSAVG
ENERGY: 25000 0.4839 1.5727 5.7801 0.0000 -23675.0211 4162.1045 0.0000 0.0000 300.1189 -19204.9609 30.7998 -19505.0798 -19204.2967 30.7998 408.6360 470.4823 47320.2368 408.6360 470.4823
ENERGY: 30000 0.6752 1.4539 6.2665 0.0000 -23252.2681 4016.9249 0.0000 0.0000 574.9175 -18652.0301 59.0011 -19226.9477 -18651.0985 57.1517 341.4306 412.2251 47216.7671 0.7716 0.8176
ENERGY: 35000 0.8146 1.3141 6.8965 0.0000 -23251.0449 3970.3214 0.0000 0.0000 599.8311 -18671.8672 61.5578 -19271.6983 -18670.7295 60.3268 -103.3771 -25.0599 47453.2161 -1.9355 -1.8190
ENERGY: 40000 0.5021 0.9871 6.6019 0.0000 -23240.5404 3948.8569 0.0000 0.0000 584.1769 -18699.4154 59.9513 -19283.5924 -18698.0455 60.2580 -123.0194 -68.5230 47274.3943 5.9369 6.1168
ENERGY: 45000 0.7945 0.9184 5.9113 0.0000 -23438.7090 4118.0655 0.0000 0.0000 587.3750 -18725.6442 60.2795 -19313.0192 -18724.9489 60.0380 683.8354 754.8299 47059.2096 5.5182 5.6649
ENERGY: 50000 0.5328 0.2804 7.0312 0.0000 -23330.1638 4011.1221 0.0000 0.0000 573.2356 -18737.9617 58.8284 -19311.1973 -18736.5954 59.6514 98.6473 161.3255 47295.1323 1.1816 0.9746
TCL: Running 25000 steps at 90 kelvin.
TCL: Setting parameter langevinTemp to 90
TCL: Running for 25000 steps
ETITLE: TS BOND ANGLE DIHED IMPRP ELECT VDW BOUNDARY MISC KINETIC TOTAL TEMP POTENTIAL TOTAL3 TEMPAVG PRESSURE GPRESSURE VOLUME PRESSAVG GPRESSAVG
ENERGY: 50000 0.5328 0.2804 7.0312 0.0000 -23330.1638 4011.1221 0.0000 0.0000 572.9484 -18738.2489 58.7990 -19311.1973 -18737.1167 58.7990 105.5340 161.2672 47295.1323 105.5340 161.2672
ENERGY: 55000 0.4904 1.7171 6.1661 0.0000 -22890.6306 3854.8569 0.0000 0.0000 892.4827 -18134.9175 91.5913 -19027.4001 -18131.8334 87.0576 39.1184 112.7332 47488.9264 3.6515 3.6724
ENERGY: 60000 1.0497 2.2213 6.2829 0.0000 -22935.8712 3861.9805 0.0000 0.0000 869.3153 -18195.0216 89.2137 -19064.3368 -18193.0708 89.8851 -161.6701 -96.1221 47712.9826 4.0648 4.0725
ENERGY: 65000 1.6578 1.3639 6.8228 0.0000 -22921.3095 3781.5545 0.0000 0.0000 895.5158 -18234.3947 91.9025 -19129.9105 -18231.8994 89.8333 -719.5150 -658.5047 47726.0872 0.6259 0.5228
ENERGY: 70000 0.6873 1.7862 7.1113 0.0000 -23090.5683 3937.9890 0.0000 0.0000 871.6061 -18271.3884 89.4488 -19142.9945 -18269.4109 90.1814 103.6201 161.4427 47573.2679 2.0865 2.1964
ENERGY: 75000 0.4119 0.8278 8.1408 0.0000 -23000.3202 3831.7296 0.0000 0.0000 873.1949 -18286.0153 89.6118 -19159.2102 -18283.9602 90.3550 -415.9804 -379.2238 47586.7316 -2.8044 -2.8443
TCL: Running 25000 steps at 120 kelvin.
TCL: Setting parameter langevinTemp to 120
TCL: Running for 25000 steps
ETITLE: TS BOND ANGLE DIHED IMPRP ELECT VDW BOUNDARY MISC KINETIC TOTAL TEMP POTENTIAL TOTAL3 TEMPAVG PRESSURE GPRESSURE VOLUME PRESSAVG GPRESSAVG
ENERGY: 75000 0.4119 0.8278 8.1408 0.0000 -23000.3202 3831.7296 0.0000 0.0000 872.7569 -18286.4532 89.5669 -19159.2102 -18284.8495 89.5669 -430.1742 -378.9170 47586.7316 -430.1742 -378.9170
ENERGY: 80000 1.8092 2.4391 7.2788 0.0000 -22744.3470 3910.9186 0.0000 0.0000 1183.8379 -17638.0634 121.4917 -18821.9013 -17635.2788 117.2694 704.2747 756.1765 47421.9041 -0.0484 -0.2443
ENERGY: 85000 1.5977 0.7557 6.6180 0.0000 -22623.1200 3773.9009 0.0000 0.0000 1164.8532 -17675.3945 119.5433 -18840.2477 -17673.1214 119.6073 -51.8030 2.1056 47677.7181 -2.3166 -1.7731
ENERGY: 90000 0.7735 1.9115 7.8970 0.0000 -22740.1539 3860.5497 0.0000 0.0000 1163.4415 -17705.5808 119.3985 -18869.0223 -17702.4272 120.0553 314.1691 349.3744 47608.1680 0.9305 1.3353
ENERGY: 95000 1.5833 1.7080 6.7243 0.0000 -22709.6639 3751.1576 0.0000 0.0000 1174.6786 -17773.8121 120.5517 -18948.4907 -17769.7821 120.2659 -502.0179 -442.5290 47860.9572 -0.2078 -0.0029
ENERGY: 100000 0.7784 2.6146 6.9963 0.0000 -22733.2294 3802.7383 0.0000 0.0000 1172.3689 -17747.7329 120.3147 -18920.1018 -17745.6167 120.5693 -64.2344 -17.7401 47679.8820 4.9300 4.8676
TCL: Running 25000 steps at 150 kelvin.
TCL: Setting parameter langevinTemp to 150
TCL: Running for 25000 steps
ETITLE: TS BOND ANGLE DIHED IMPRP ELECT VDW BOUNDARY MISC KINETIC TOTAL TEMP POTENTIAL TOTAL3 TEMPAVG PRESSURE GPRESSURE VOLUME PRESSAVG GPRESSAVG
ENERGY: 100000 0.7784 2.6146 6.9963 0.0000 -22733.2294 3802.7383 0.0000 0.0000 1171.7771 -17748.3247 120.2539 -18920.1018 -17745.6463 120.2539 -78.0212 -18.1340 47679.8820 -78.0212 -18.1340
ENERGY: 105000 1.6169 2.1166 7.6962 0.0000 -22318.2096 3722.8158 0.0000 0.0000 1470.8723 -17113.0919 150.9486 -18583.9642 -17109.7739 146.6091 286.0956 343.1116 47858.6931 -1.3044 -0.7167
ENERGY: 110000 2.7135 2.0263 8.3527 0.0000 -22302.4199 3697.3159 0.0000 0.0000 1442.4711 -17149.5404 148.0339 -18592.0115 -17145.3177 149.8947 67.9882 141.1592 47920.4203 1.5216 2.3185
ENERGY: 115000 1.5879 2.3511 7.4429 0.0000 -22303.5699 3648.2907 0.0000 0.0000 1468.0092 -17175.8882 150.6548 -18643.8974 -17171.3434 149.6976 -368.2007 -330.2111 48177.4012 3.0266 3.2099
ENERGY: 120000 1.0175 1.7437 8.3295 0.0000 -22305.1436 3657.4948 0.0000 0.0000 1457.9574 -17178.6007 149.6232 -18636.5581 -17174.2601 149.5100 -105.9257 -53.6087 47817.4546 0.2909 0.1900
ENERGY: 125000 2.6987 2.3238 6.4150 0.0000 -22329.9065 3664.3200 0.0000 0.0000 1461.1847 -17192.9644 149.9544 -18654.1490 -17190.4470 149.8464 -187.0161 -207.0502 48131.6607 2.6498 2.4383
TCL: Running 50000 steps at 180 kelvin.
TCL: Setting parameter langevinTemp to 180
TCL: Running for 50000 steps
ETITLE: TS BOND ANGLE DIHED IMPRP ELECT VDW BOUNDARY MISC KINETIC TOTAL TEMP POTENTIAL TOTAL3 TEMPAVG PRESSURE GPRESSURE VOLUME PRESSAVG GPRESSAVG
ENERGY: 125000 2.6987 2.3238 6.4150 0.0000 -22329.9065 3664.3200 0.0000 0.0000 1460.4677 -17193.6814 149.8809 -18654.1490 -17190.7368 149.8809 -255.7368 -208.0000 48131.6607 -255.7368 -208.0000
ENERGY: 135000 1.5853 2.2342 8.9449 0.0000 -21515.4698 3327.4301 0.0000 0.0000 1727.3774 -16447.8978 177.2725 -18175.2752 -16443.5126 179.1390 -1071.6097 -990.5134 48709.1181 4.4873 4.6566
ENERGY: 145000 1.6076 1.5689 8.5412 0.0000 -21649.0690 3508.2458 0.0000 0.0000 1765.6342 -16363.4713 181.1986 -18129.1055 -16358.5736 181.1720 148.7137 216.5609 48064.1824 7.4074 7.4299
ENERGY: 155000 0.9785 3.7072 6.4296 0.0000 -21875.3213 3655.3133 0.0000 0.0000 1774.2207 -16434.6721 182.0798 -18208.8928 -16429.4820 179.2745 701.5243 761.1613 47902.9076 1.7869 1.8384
ENERGY: 165000 2.9914 2.5247 6.1298 0.0000 -21983.0167 3690.9021 0.0000 0.0000 1758.7471 -16521.7216 180.4919 -18280.4687 -16516.6608 179.4269 622.2716 647.9047 47999.4263 -1.0618 -1.5726
ENERGY: 175000 0.9614 3.5498 8.8499 0.0000 -21771.5854 3529.5739 0.0000 0.0000 1753.2383 -16475.4121 179.9265 -18228.6504 -16469.7337 179.7695 40.3351 64.7829 48297.6589 3.8250 3.9321
TCL: Running 50000 steps at 210 kelvin.
TCL: Setting parameter langevinTemp to 210
TCL: Running for 50000 steps
ETITLE: TS BOND ANGLE DIHED IMPRP ELECT VDW BOUNDARY MISC KINETIC TOTAL TEMP POTENTIAL TOTAL3 TEMPAVG PRESSURE GPRESSURE VOLUME PRESSAVG GPRESSAVG
ENERGY: 175000 0.9614 3.5498 8.8499 0.0000 -21771.5854 3529.5739 0.0000 0.0000 1752.3595 -16476.2909 179.8363 -18228.6504 -16473.3863 179.8363 3.8919 66.2737 48297.6589 3.8919 66.2737
ENERGY: 185000 1.5887 2.0825 9.8705 0.0000 -20760.8341 3285.4891 0.0000 0.0000 2068.3889 -15393.4144 212.2689 -17461.8033 -15387.7351 209.8569 413.1439 435.3383 48411.5365 3.8141 3.2713
ENERGY: 195000 1.5517 1.8832 7.6504 0.0000 -20559.2195 3059.2852 0.0000 0.0000 2050.5066 -15438.3425 210.4337 -17488.8491 -15433.5892 209.3937 -592.6092 -537.2300 48156.2193 4.0132 4.4925
ENERGY: 205000 1.6536 3.3294 7.2988 0.0000 -20662.5030 3083.5757 0.0000 0.0000 2053.4813 -15513.1641 210.7390 -17566.6454 -15506.3891 208.9765 -652.7497 -551.6476 48129.0354 4.3129 4.0663
ENERGY: 215000 1.9535 3.1932 10.1648 0.0000 -20440.3495 2978.0278 0.0000 0.0000 2073.0501 -15373.9601 212.7473 -17447.0102 -15369.2884 210.6805 -894.9497 -804.4879 47905.4014 -4.1222 -4.1539
ENERGY: 225000 1.0141 2.9988 11.2578 0.0000 -20754.0123 3209.6954 0.0000 0.0000 2047.8599 -15481.1863 210.1621 -17529.0462 -15476.1561 209.7745 224.5390 331.2059 47561.3921 1.5782 1.4593
TCL: Running 50000 steps at 240 kelvin.
TCL: Setting parameter langevinTemp to 240
TCL: Running for 50000 steps
ETITLE: TS BOND ANGLE DIHED IMPRP ELECT VDW BOUNDARY MISC KINETIC TOTAL TEMP POTENTIAL TOTAL3 TEMPAVG PRESSURE GPRESSURE VOLUME PRESSAVG GPRESSAVG
ENERGY: 225000 1.0141 2.9988 11.2578 0.0000 -20754.0123 3209.6954 0.0000 0.0000 2046.8381 -15482.2081 210.0573 -17529.0462 -15478.1049 210.0573 245.9671 330.8849 47561.3921 245.9671 330.8849
ENERGY: 235000 4.4728 4.6014 8.7511 0.0000 -19565.2587 2794.7247 0.0000 0.0000 2318.6761 -14434.0326 237.9547 -16752.7087 -14430.9210 238.2134 -236.5858 -144.4479 48330.2654 3.7438 3.2864
ENERGY: 245000 1.3266 2.7712 9.8567 0.0000 -19565.2857 2842.3108 0.0000 0.0000 2305.6273 -14403.3931 236.6156 -16709.0204 -14399.9239 240.5074 -53.1927 2.0219 48252.4164 8.1919 7.9742
ENERGY: 255000 2.5617 3.5677 10.8478 0.0000 -19763.0332 2911.1114 0.0000 0.0000 2316.3230 -14518.6217 237.7132 -16834.9447 -14513.2471 238.9902 133.5289 212.9769 47996.8792 3.2086 3.3866
ENERGY: 265000 1.3835 2.9415 7.9076 0.0000 -19540.1355 2793.2750 0.0000 0.0000 2362.5305 -14372.0973 242.4553 -16734.6278 -14367.8929 241.6523 -357.0590 -334.7754 48642.5797 4.7714 4.6058
ENERGY: 275000 4.1518 4.9000 7.1919 0.0000 -19440.1369 2713.4590 0.0000 0.0000 2382.6597 -14327.7744 244.5210 -16710.4342 -14325.2617 241.4567 -468.2225 -433.2550 47995.9365 2.8233 3.4861
TCL: Running 50000 steps at 270 kelvin.
TCL: Setting parameter langevinTemp to 270
TCL: Running for 50000 steps
ETITLE: TS BOND ANGLE DIHED IMPRP ELECT VDW BOUNDARY MISC KINETIC TOTAL TEMP POTENTIAL TOTAL3 TEMPAVG PRESSURE GPRESSURE VOLUME PRESSAVG GPRESSAVG
ENERGY: 275000 4.1518 4.9000 7.1919 0.0000 -19440.1369 2713.4590 0.0000 0.0000 2381.5029 -14328.9312 244.4023 -16710.4342 -14325.3096 244.4023 -518.1728 -435.1547 47995.9365 -518.1728 -435.1547
ENERGY: 285000 3.3075 2.6745 8.8460 0.0000 -18421.9195 2441.6251 0.0000 0.0000 2638.3687 -13327.0977 270.7632 -15965.4664 -13322.2141 271.2456 -749.6032 -715.9951 49883.6030 6.4517 6.2577
ENERGY: 295000 1.4663 4.8646 7.4513 0.0000 -18535.4974 2548.0336 0.0000 0.0000 2589.4138 -13384.2679 265.7392 -15973.6816 -13381.7820 270.5257 -152.7593 -69.3419 49313.3514 4.2215 4.1602
ENERGY: 305000 1.9968 3.6438 9.7077 0.0000 -18727.1416 2642.8144 0.0000 0.0000 2655.9163 -13413.0625 272.5641 -16068.9788 -13408.8678 269.9297 76.5490 193.3293 49210.5825 0.7139 1.0454
ENERGY: 315000 1.7532 2.6426 6.7178 0.0000 -18514.4201 2541.8275 0.0000 0.0000 2654.3295 -13307.1496 272.4012 -15961.4790 -13301.3464 271.8559 -180.1162 -53.2910 49039.2941 7.2564 6.6022
ENERGY: 325000 2.5320 4.3366 8.6538 0.0000 -18654.7843 2614.3848 0.0000 0.0000 2644.2330 -13380.6442 271.3651 -16024.8771 -13375.1423 269.9918 181.9360 230.0735 49071.6212 -0.2789 -0.0772
TCL: Running 1000000 steps at 300 kelvin.
TCL: Setting parameter langevinTemp to 300
TCL: Running for 1000000 steps
ETITLE: TS BOND ANGLE DIHED IMPRP ELECT VDW BOUNDARY MISC KINETIC TOTAL TEMP POTENTIAL TOTAL3 TEMPAVG PRESSURE GPRESSURE VOLUME PRESSAVG GPRESSAVG
ENERGY: 325000 2.5320 4.3366 8.6538 0.0000 -18654.7843 2614.3848 0.0000 0.0000 2642.9267 -13381.9504 271.2310 -16024.8771 -13378.5742 271.2310 135.2495 230.9710 49071.6212 135.2495 230.9710
ENERGY: 525000 3.1531 3.5161 3.0920 0.0000 -17873.5629 2405.6011 0.0000 0.0000 2946.6462 -12511.5544 302.4003 -15458.2005 -12506.9079 297.9394 -22.5915 70.6402 50122.1622 5.8897 6.0593
ENERGY: 725000 3.1740 4.8505 2.8311 0.0000 -17903.6130 2473.3242 0.0000 0.0000 2881.2903 -12538.1430 295.6931 -15419.4333 -12530.9151 299.2178 126.4128 270.7936 51070.1296 2.1138 2.1927
ENERGY: 925000 2.5293 2.5149 2.7260 0.0000 -17887.2291 2416.5114 0.0000 0.0000 2945.0155 -12517.9321 302.2329 -15462.9476 -12513.2652 298.7656 136.9851 221.8711 49864.0451 -1.8439 -1.3110
ENERGY: 1125000 5.0447 6.7248 7.0938 0.0000 -17633.4209 2239.5828 0.0000 0.0000 2955.7580 -12419.2168 303.3354 -15374.9748 -12411.6883 299.8237 -742.5234 -608.3495 50527.7272 1.7132 1.4269
ENERGY: 1325000 2.6718 5.4006 2.5284 0.0000 -17903.3186 2471.2448 0.0000 0.0000 2929.0080 -12492.4650 300.5902 -15421.4730 -12487.1022 298.9587 275.2495 374.9549 50381.2025 0.4303 0.3089
TCL: Exiting due to exit command.
