Info: SIMULATION PARAMETERS:
Info: TIMESTEP               2
Info: NUMBER OF STEPS        0
Info: STEPS PER CYCLE        10
Info: PERIODIC CELL BASIS 1  82.8105 0 0
Info: PERIODIC CELL BASIS 2  0 82.8105 0
Info: PERIODIC CELL BASIS 3  0 0 82.8105
Info: PERIODIC CELL CENTER   34.576 34.576 34.576
Info: WRAPPING ALL CLUSTERS AROUND PERIODIC BOUNDARIES ON OUTPUT.
Info: FIRST LDB TIMESTEP     50
Info: LAST LDB TIMESTEP     -1
Info: HOM BACKGROUND SCALING 1
Info: PME BACKGROUND SCALING 1
Info: MIN ATOMS PER PATCH    40
Info: EMPTY PATCH LOAD       40 ATOMS
Info: VELOCITY FILE          mobley_4639255_equilibrated.vel
Info: CENTER OF MASS MOVING INITIALLY? NO
Info: DIELECTRIC             1
Info: EXCLUDE                SCALED ONE-FOUR
Info: 1-4 ELECTROSTATICS SCALED BY 1
Info: MODIFIED 1-4 VDW PARAMETERS WILL BE USED
Info: DCD FILENAME           mobley_4639255_backwards.dcd
Info: DCD FREQUENCY          500
Info: DCD FIRST STEP         500
Info: DCD FILE WILL CONTAIN UNIT CELL DATA
Info: NO EXTENDED SYSTEM TRAJECTORY OUTPUT
Info: NO VELOCITY DCD OUTPUT
Info: NO FORCE DCD OUTPUT
Info: OUTPUT FILENAME        mobley_4639255_backwards
Info: BINARY OUTPUT FILES WILL BE USED
Info: NO RESTART FILE
Info: SWITCHING ACTIVE
Info: SWITCHING ON           10
Info: SWITCHING OFF          12
Info: PAIRLIST DISTANCE      14
Info: PAIRLIST SHRINK RATE   0.01
Info: PAIRLIST GROW RATE     0.01
Info: PAIRLIST TRIGGER       0.3
Info: PAIRLISTS PER CYCLE    2
Info: PAIRLISTS ENABLED
Info: MARGIN                 8
Info: HYDROGEN GROUP CUTOFF  2.5
Info: PATCH DIMENSION        24.5
Info: ENERGY OUTPUT STEPS    500
Info: ENERGY EVALUATION STEPS    500
Info: OUTPUT ENERGY PRECISION 4
Info: CROSSTERM ENERGY INCLUDED IN DIHEDRAL
Info: TIMING OUTPUT STEPS    500
Info: PRESSURE OUTPUT STEPS  500
Info: ALCHEMICAL FEP ON
Info: FEP CURRENT LAMBDA VALUE     1
Info: FEP COMPARISON LAMBDA VALUE  0.9375
Info: FEP INTRA-ALCHEMICAL NON-BONDED INTERACTIONS WILL BE DECOUPLED
Info: FEP INTRA-ALCHEMICAL BONDED INTERACTIONS WILL BE RETAINED
Info: FEP VDW SHIFTING COEFFICIENT 6
Info: FEP ELEC. ACTIVE FOR ANNIHILATED PARTICLES BETWEEN LAMBDA = 0 AND LAMBDA = 0.5
Info: FEP ELEC. ACTIVE FOR EXNIHILATED PARTICLES BETWEEN LAMBDA = 0.5 AND LAMBDA = 1
Info: FEP VDW ACTIVE FOR ANNIHILATED PARTICLES BETWEEN LAMBDA = 0 AND LAMBDA = 1
Info: FEP VDW ACTIVE FOR EXNIHILATED PARTICLES BETWEEN LAMBDA = 0 AND LAMBDA = 1
Info: FEP BOND ACTIVE FOR ANNIHILATED PARTICLES BETWEEN LAMBDA = 1 AND LAMBDA = 1
Info: FEP BOND ACTIVE FOR EXNIHILATED PARTICLES BETWEEN LAMBDA = 0 AND LAMBDA = 0
Info: LANGEVIN DYNAMICS ACTIVE
Info: LANGEVIN TEMPERATURE   298
Info: LANGEVIN USING BBK INTEGRATOR
Info: LANGEVIN DAMPING COEFFICIENT IS 1 INVERSE PS
Info: LANGEVIN DYNAMICS NOT APPLIED TO HYDROGENS
Info: LANGEVIN PISTON PRESSURE CONTROL ACTIVE
Info:        TARGET PRESSURE IS 1.01325 BAR
Info:     OSCILLATION PERIOD IS 100 FS
Info:             DECAY TIME IS 50 FS
Info:     PISTON TEMPERATURE IS 298 K
Info:       PRESSURE CONTROL IS GROUP-BASED
Info:    INITIAL STRAIN RATE IS 0.000116479 0.000116479 0.000116479
Info:       CELL FLUCTUATION IS ISOTROPIC
Info: PARTICLE MESH EWALD (PME) ACTIVE
Info: PME TOLERANCE               1e-05
Info: PME EWALD COEFFICIENT       0.226635
Info: PME INTERPOLATION ORDER     4
Info: PME GRID DIMENSIONS         84 84 84
Info: PME MAXIMUM GRID SPACING    1
Info: FULL ELECTROSTATIC EVALUATION FREQUENCY      1
Info: USING VERLET I (r-RESPA) MTS SCHEME.
Info: C1 SPLITTING OF LONG RANGE ELECTROSTATICS
Info: PLACING ATOMS IN PATCHES BY HYDROGEN GROUPS
Info: RIGID BONDS TO HYDROGEN : ALL
Info:         ERROR TOLERANCE : 1e-08
Info:          MAX ITERATIONS : 100
Info: RIGID WATER USING SETTLE ALGORITHM
Info: RANDOM NUMBER SEED     1740643081
Info: USE HYDROGEN BONDS?    NO
Info: COORDINATE PDB         mobley_4639255.pdb
Info: STRUCTURE FILE         mobley_4639255.psf
Info: PARAMETER file: CHARMM format!
Info: PARAMETERS             ../common/par_all27_prot_lipid.inp
Info: PARAMETERS             mobley_4639255.prm
Info: USING ARITHMETIC MEAN TO COMBINE L-J SIGMA PARAMETERS
Info: BINARY COORDINATES     mobley_4639255_equilibrated.coor
Info: SUMMARY OF PARAMETERS:
Info: 184 BONDS
Info: 452 ANGLES
Info: 574 DIHEDRAL
Info: 46 IMPROPER
Info: 6 CROSSTERM
Info: 123 VDW
Info: 0 VDW_PAIRS
Info: 0 NBTHOLE_PAIRS
Info: To read alchdata from file: mobley_4639255.pdb
Info: To read alchflag data from column: 5
Info: STRUCTURE SUMMARY:
Info: 4036 ATOMS
Info: 2693 BONDS
Info: 1356 ANGLES
Info: 15 DIHEDRALS
Info: 0 IMPROPERS
Info: 0 CROSSTERMS
Info: 0 EXCLUSIONS
Info: 4032 RIGID BONDS
Info: ALCH: 0 ATOMS TO DISAPPEAR IN FINAL STATE
Info: ALCH: 10 ATOMS TO APPEAR IN FINAL STATE
Info: 8076 DEGREES OF FREEDOM
Info: 1346 HYDROGEN GROUPS
Info: 3 ATOMS IN LARGEST HYDROGEN GROUP
Info: 1346 MIGRATION GROUPS
Info: 3 ATOMS IN LARGEST MIGRATION GROUP
Info: TOTAL MASS = 24238.7 amu
Info: TOTAL CHARGE = -1.99676e-06 e
Info: MASS DENSITY = 0.0708782 g/cm^3
Info: ATOM DENSITY = 0.00710713 atoms/A^3
Info: ADDED 4064 IMPLICIT EXCLUSIONS
Info: NONBONDED TABLE R-SQUARED SPACING: 0.0625
Info: NONBONDED TABLE SIZE: 769 POINTS
Info: REMOVING COM VELOCITY 0.136202 0.204948 0.00834532
TCL: Running for 5000 steps
ETITLE: TS BOND ANGLE DIHED IMPRP ELECT VDW BOUNDARY MISC KINETIC TOTAL TEMP POTENTIAL TOTAL3 TEMPAVG PRESSURE GPRESSURE VOLUME PRESSAVG GPRESSAVG
ENERGY: 0 1.5607 4.1129 2.2960 0.0000 -13863.3190 1459.6679 0.0000 0.0000 2363.4346 -10032.2468 294.5355 -12395.6814 -10027.4192 294.5355 -2.0730 -2.1225 567880.0451 -2.0730 -2.1225
ENERGY: 1000 0.0401 5.2061 1.6548 0.0000 -13900.7308 1533.3483 0.0000 0.0000 2371.7080 -9988.7734 295.5666 -12360.4814 -9987.5918 297.4307 26.7412 26.7246 550967.8694 2.7939 2.8440
ENERGY: 2000 0.6257 3.6787 2.3071 0.0000 -13990.6387 1531.0837 0.0000 0.0000 2382.8316 -10070.1118 296.9528 -12452.9434 -10064.1696 295.9345 27.6232 28.1797 531052.2305 -0.0681 -0.0731
ENERGY: 3000 0.7253 3.1615 2.6546 0.0000 -14004.9366 1523.0447 0.0000 0.0000 2374.3530 -10100.9975 295.8962 -12475.3505 -10095.1398 295.6689 23.6314 23.4031 548271.1381 -0.3692 -0.3841
ENERGY: 4000 1.2159 4.1729 2.1251 0.0000 -13943.7795 1509.9757 0.0000 0.0000 2328.5626 -10097.7274 290.1897 -12426.2899 -10093.3747 295.0191 -12.0082 -11.8007 583244.6519 0.0902 0.0691
ENERGY: 5000 0.6770 3.2821 3.4830 0.0000 -13993.7140 1521.3518 0.0000 0.0000 2410.3959 -10054.5241 300.3879 -12464.9200 -10049.4033 296.9987 42.1070 43.4289 550427.3991 1.0087 0.9729
TCL: Running FEP window   2: Lambda1 0.9375 Lambda2 0.875  [dLambda -0.0625]
TCL: Setting parameter firsttimestep to 0
TCL: Setting parameter alchLambda to 0.9375
Info: NONBONDED TABLE R-SQUARED SPACING: 0.0625
Info: NONBONDED TABLE SIZE: 769 POINTS
TCL: Setting parameter alchLambda2 to 0.875
Info: NONBONDED TABLE R-SQUARED SPACING: 0.0625
Info: NONBONDED TABLE SIZE: 769 POINTS
TCL: Running for 5000 steps
ETITLE: TS BOND ANGLE DIHED IMPRP ELECT VDW BOUNDARY MISC KINETIC TOTAL TEMP POTENTIAL TOTAL3 TEMPAVG PRESSURE GPRESSURE VOLUME PRESSAVG GPRESSAVG
ENERGY: 0 0.6770 3.2821 3.4830 0.0000 -13992.2872 1519.5550 0.0000 0.0000 2410.3228 -10054.9673 300.3788 -12465.2901 -10051.1838 300.3788 42.0741 42.1058 550427.3991 42.0741 42.1058
ENERGY: 1000 3.1538 3.8869 2.5990 0.0000 -14005.1426 1541.3766 0.0000 0.0000 2425.9153 -10028.2110 302.3220 -12454.1263 -10022.9510 298.1199 28.5724 29.1185 566886.7199 2.4814 2.4984
ENERGY: 2000 0.7378 3.0236 3.4662 0.0000 -13937.5053 1511.0646 0.0000 0.0000 2340.8769 -10078.3362 291.7243 -12419.2131 -10074.2165 296.7970 15.2870 14.7664 546217.7170 0.6088 0.5999
ENERGY: 3000 0.6158 3.5998 1.6852 0.0000 -13995.7472 1476.3780 0.0000 0.0000 2369.9075 -10143.5609 295.3422 -12513.4684 -10140.1144 293.8903 -12.5482 -12.2946 541130.6380 1.3584 1.3812
ENERGY: 4000 1.2097 4.8822 3.5967 0.0000 -13857.6939 1450.7643 0.0000 0.0000 2376.7236 -10020.5174 296.1916 -12397.2410 -10013.6105 293.7649 -22.8586 -22.8761 562444.0974 -0.3439 -0.3555
ENERGY: 5000 1.8678 4.1725 2.0795 0.0000 -14010.7586 1540.1329 0.0000 0.0000 2377.7336 -10084.7724 296.3175 -12462.5060 -10079.8873 296.8310 11.6433 12.1964 573910.2822 -1.3430 -1.3590
TCL: Running FEP window   3: Lambda1 0.875  Lambda2 0.8125 [dLambda -0.0625]
TCL: Setting parameter firsttimestep to 0
TCL: Setting parameter alchLambda to 0.875
Info: NONBONDED TABLE R-SQUARED SPACING: 0.0625
Info: NONBONDED TABLE SIZE: 769 POINTS
TCL: Setting parameter alchLambda2 to 0.8125
Info: NONBONDED TABLE R-SQUARED SPACING: 0.0625
Info: NONBONDED TABLE SIZE: 769 POINTS
TCL: Running for 5000 steps
ETITLE: TS BOND ANGLE DIHED IMPRP ELECT VDW BOUNDARY MISC KINETIC TOTAL TEMP POTENTIAL TOTAL3 TEMPAVG PRESSURE GPRESSURE VOLUME PRESSAVG GPRESSAVG
ENERGY: 0 1.8678 4.1725 2.0795 0.0000 -14010.4268 1539.2858 0.0000 0.0000 2377.6567 -10085.3646 296.3079 -12463.0213 -10081.0325 296.3079 11.5018 11.4007 573910.2822 11.5018 11.4007
ENERGY: 1000 0.7279 2.9911 2.1208 0.0000 -13849.4668 1395.5615 0.0000 0.0000 2389.7163 -10058.3491 297.8108 -12448.0654 -10052.9352 295.5925 -27.3897 -27.2836 588868.1847 1.9669 1.9615
ENERGY: 2000 0.7681 5.6732 2.3910 0.0000 -13918.5437 1481.6280 0.0000 0.0000 2431.1340 -9996.9494 302.9723 -12428.0834 -9993.5998 296.6863 5.9955 5.8834 614456.5311 -1.2246 -1.2526
ENERGY: 3000 0.2324 6.1562 1.7283 0.0000 -13852.6153 1457.0566 0.0000 0.0000 2400.8659 -9986.5759 299.2003 -12387.4418 -9981.8547 295.9263 -9.1695 -9.1664 622481.6667 1.5391 1.5580
ENERGY: 4000 0.6418 4.1926 1.4528 0.0000 -13862.4054 1497.3197 0.0000 0.0000 2360.3367 -9998.4619 294.1494 -12358.7986 -9994.3179 295.0809 2.6425 2.4763 636874.0713 1.2981 1.2935
ENERGY: 5000 3.0089 2.0857 2.9302 0.0000 -13890.8073 1509.7824 0.0000 0.0000 2355.5450 -10017.4550 293.5523 -12373.0000 -10011.6001 296.5915 12.6545 12.9459 644467.3521 0.8119 0.7950
TCL: Running FEP window   4: Lambda1 0.8125 Lambda2 0.75   [dLambda -0.0625]
TCL: Setting parameter firsttimestep to 0
TCL: Setting parameter alchLambda to 0.8125
Info: NONBONDED TABLE R-SQUARED SPACING: 0.0625
Info: NONBONDED TABLE SIZE: 769 POINTS
TCL: Setting parameter alchLambda2 to 0.75
Info: NONBONDED TABLE R-SQUARED SPACING: 0.0625
Info: NONBONDED TABLE SIZE: 769 POINTS
TCL: Running for 5000 steps
ETITLE: TS BOND ANGLE DIHED IMPRP ELECT VDW BOUNDARY MISC KINETIC TOTAL TEMP POTENTIAL TOTAL3 TEMPAVG PRESSURE GPRESSURE VOLUME PRESSAVG GPRESSAVG
ENERGY: 0 3.0089 2.0857 2.9302 0.0000 -13888.8889 1507.8954 0.0000 0.0000 2355.4705 -10017.4981 293.5430 -12372.9686 -10012.8628 293.5430 12.0931 12.1173 644467.3521 12.0931 12.1173
ENERGY: 1000 0.5728 1.7315 2.1344 0.0000 -13806.1874 1489.5572 0.0000 0.0000 2351.0379 -9961.1535 292.9906 -12312.1914 -9954.8009 295.9270 21.0844 20.6241 640171.7842 1.5497 1.5870
ENERGY: 2000 1.0663 3.3183 2.0991 0.0000 -13779.0625 1433.0670 0.0000 0.0000 2394.6849 -9944.8268 298.4300 -12339.5117 -9939.6648 301.7584 -9.0086 -10.2812 634889.1421 -0.1048 -0.1333
ENERGY: 3000 0.1949 4.2089 3.1741 0.0000 -13748.9287 1402.6512 0.0000 0.0000 2427.3322 -9911.3675 302.4985 -12338.6997 -9905.2648 301.7844 -19.7080 -19.7311 616497.6395 1.3768 1.3638
ENERGY: 4000 0.2395 4.6991 2.5978 0.0000 -13894.9834 1428.1238 0.0000 0.0000 2417.2871 -10042.0360 301.2467 -12459.3231 -10036.6341 298.4241 -18.8523 -19.6933 626626.6558 -0.7721 -0.7871
ENERGY: 5000 1.7983 3.7687 1.4952 0.0000 -13936.7677 1488.4946 0.0000 0.0000 2369.5304 -10071.6805 295.2952 -12441.2109 -10069.4106 296.8360 15.5978 15.9250 634175.0735 2.3486 2.3550
TCL: Running FEP window   5: Lambda1 0.75   Lambda2 0.6875 [dLambda -0.0625]
TCL: Setting parameter firsttimestep to 0
TCL: Setting parameter alchLambda to 0.75
Info: NONBONDED TABLE R-SQUARED SPACING: 0.0625
Info: NONBONDED TABLE SIZE: 769 POINTS
TCL: Setting parameter alchLambda2 to 0.6875
Info: NONBONDED TABLE R-SQUARED SPACING: 0.0625
Info: NONBONDED TABLE SIZE: 769 POINTS
TCL: Running for 5000 steps
ETITLE: TS BOND ANGLE DIHED IMPRP ELECT VDW BOUNDARY MISC KINETIC TOTAL TEMP POTENTIAL TOTAL3 TEMPAVG PRESSURE GPRESSURE VOLUME PRESSAVG GPRESSAVG
ENERGY: 0 1.7983 3.7687 1.4952 0.0000 -13935.4358 1486.0533 0.0000 0.0000 2369.4579 -10072.8624 295.2861 -12442.3203 -10067.9331 295.2861 14.5574 14.5521 634175.0735 14.5574 14.5521
ENERGY: 1000 1.0700 3.5719 2.6104 0.0000 -13917.4426 1494.4357 0.0000 0.0000 2348.1832 -10067.5714 292.6349 -12415.7546 -10063.4290 295.0417 19.8197 20.2676 612632.2320 2.2605 2.2703
ENERGY: 2000 0.8695 3.7351 2.4763 0.0000 -14045.4577 1578.7578 0.0000 0.0000 2343.7897 -10115.8293 292.0873 -12459.6190 -10111.1195 291.6118 46.3808 46.3294 606664.4386 0.3291 0.3228
ENERGY: 3000 1.9871 1.1969 2.3358 0.0000 -13838.7861 1396.2571 0.0000 0.0000 2410.7182 -10026.2909 300.4281 -12437.0091 -10020.8192 295.8382 -44.4871 -43.9375 604805.8518 0.5646 0.5816
ENERGY: 4000 0.6456 2.2415 2.0506 0.0000 -13946.4820 1472.4084 0.0000 0.0000 2358.3021 -10110.8338 293.8959 -12469.1358 -10105.8718 294.7160 -7.8823 -7.7179 600573.9765 2.0904 2.0931
ENERGY: 5000 1.1587 3.3139 1.8454 0.0000 -13919.5539 1481.3533 0.0000 0.0000 2423.9822 -10007.9003 302.0811 -12431.8825 -10002.4239 295.7920 4.3090 4.1645 635093.6612 1.4004 1.3851
TCL: Running FEP window   6: Lambda1 0.6875 Lambda2 0.625  [dLambda -0.0625]
TCL: Setting parameter firsttimestep to 0
TCL: Setting parameter alchLambda to 0.6875
Info: NONBONDED TABLE R-SQUARED SPACING: 0.0625
Info: NONBONDED TABLE SIZE: 769 POINTS
TCL: Setting parameter alchLambda2 to 0.625
Info: NONBONDED TABLE R-SQUARED SPACING: 0.0625
Info: NONBONDED TABLE SIZE: 769 POINTS
TCL: Running for 5000 steps
ETITLE: TS BOND ANGLE DIHED IMPRP ELECT VDW BOUNDARY MISC KINETIC TOTAL TEMP POTENTIAL TOTAL3 TEMPAVG PRESSURE GPRESSURE VOLUME PRESSAVG GPRESSAVG
ENERGY: 0 1.1587 3.3139 1.8454 0.0000 -13918.6693 1480.3609 0.0000 0.0000 2423.9102 -10008.0801 302.0721 -12431.9903 -10003.5239 302.0721 3.6526 3.6362 635093.6612 3.6526 3.6362
ENERGY: 1000 0.7561 2.0966 2.7668 0.0000 -13989.2329 1564.1195 0.0000 0.0000 2431.0546 -9988.4393 302.9624 -12419.4939 -9982.6274 296.8328 44.5009 44.2711 613370.0547 1.1194 1.1588
ENERGY: 2000 1.7648 4.3516 1.4666 0.0000 -13985.1505 1602.6411 0.0000 0.0000 2384.5667 -9990.3596 297.1690 -12374.9263 -9988.5601 296.0384 58.7045 58.6581 592734.6966 -0.1078 -0.1284
ENERGY: 3000 0.5351 2.0622 2.3029 0.0000 -13806.5523 1466.3600 0.0000 0.0000 2335.7624 -9999.5297 291.0869 -12335.2921 -9996.5911 298.6302 5.5522 5.3274 565663.3757 1.6531 1.6517
ENERGY: 4000 2.0583 2.0007 4.2021 0.0000 -13837.3022 1457.7426 0.0000 0.0000 2377.5319 -9993.7666 296.2923 -12371.2986 -9990.1276 298.7912 -7.0459 -6.4199 545672.2491 1.7144 1.6884
ENERGY: 5000 1.0977 1.8217 2.7068 0.0000 -13801.8239 1435.2282 0.0000 0.0000 2398.8965 -9962.0730 298.9548 -12360.9695 -9956.5824 297.1217 -31.2919 -30.8568 525966.4213 0.4839 0.4841
TCL: Running FEP window   7: Lambda1 0.625  Lambda2 0.5625 [dLambda -0.0625]
TCL: Setting parameter firsttimestep to 0
TCL: Setting parameter alchLambda to 0.625
Info: NONBONDED TABLE R-SQUARED SPACING: 0.0625
Info: NONBONDED TABLE SIZE: 769 POINTS
TCL: Setting parameter alchLambda2 to 0.5625
Info: NONBONDED TABLE R-SQUARED SPACING: 0.0625
Info: NONBONDED TABLE SIZE: 769 POINTS
TCL: Running for 5000 steps
ETITLE: TS BOND ANGLE DIHED IMPRP ELECT VDW BOUNDARY MISC KINETIC TOTAL TEMP POTENTIAL TOTAL3 TEMPAVG PRESSURE GPRESSURE VOLUME PRESSAVG GPRESSAVG
ENERGY: 0 1.0977 1.8217 2.7068 0.0000 -13801.5717 1434.3737 0.0000 0.0000 2398.8241 -9962.7477 298.9458 -12361.5718 -9957.8852 298.9458 -31.3177 -31.3445 525966.4213 -31.3177 -31.3445
ENERGY: 1000 0.7690 5.5768 1.7955 0.0000 -13771.8675 1400.2987 0.0000 0.0000 2390.5490 -9972.8785 297.9146 -12363.4275 -9966.8334 298.9144 -49.0688 -48.8490 511682.3136 -1.1017 -1.1037
ENERGY: 2000 1.1309 3.5584 1.8671 0.0000 -13917.5645 1536.7519 0.0000 0.0000 2381.2220 -9993.0341 296.7522 -12374.2562 -9988.9951 297.2643 39.5148 38.8725 506465.5817 0.4744 0.4687
ENERGY: 3000 0.8885 1.8755 2.7612 0.0000 -13672.1305 1385.2432 0.0000 0.0000 2385.5753 -9895.7869 297.2947 -12281.3621 -9892.4232 298.7437 -33.2922 -33.2160 509293.8546 1.9011 1.8990
ENERGY: 4000 1.7007 5.7636 3.7026 0.0000 -13937.9929 1509.4310 0.0000 0.0000 2433.8234 -9983.5715 303.3075 -12417.3949 -9978.6192 301.0456 19.8705 19.8008 472086.9761 -0.5800 -0.5551
ENERGY: 5000 1.3426 2.2616 2.7751 0.0000 -13922.6026 1455.9344 0.0000 0.0000 2398.5173 -10061.7716 298.9076 -12460.2889 -10059.5565 296.1019 -20.1812 -19.4477 474436.3600 -0.1231 -0.1134
TCL: Running FEP window   8: Lambda1 0.5625 Lambda2 0.5    [dLambda -0.0625]
TCL: Setting parameter firsttimestep to 0
TCL: Setting parameter alchLambda to 0.5625
Info: NONBONDED TABLE R-SQUARED SPACING: 0.0625
Info: NONBONDED TABLE SIZE: 769 POINTS
TCL: Setting parameter alchLambda2 to 0.5
Info: NONBONDED TABLE R-SQUARED SPACING: 0.0625
Info: NONBONDED TABLE SIZE: 769 POINTS
TCL: Running for 5000 steps
ETITLE: TS BOND ANGLE DIHED IMPRP ELECT VDW BOUNDARY MISC KINETIC TOTAL TEMP POTENTIAL TOTAL3 TEMPAVG PRESSURE GPRESSURE VOLUME PRESSAVG GPRESSAVG
ENERGY: 0 1.3426 2.2616 2.7751 0.0000 -13924.2971 1455.7915 0.0000 0.0000 2398.4472 -10063.6790 298.8988 -12462.1262 -10058.5740 298.8988 -20.1371 -20.2254 474436.3600 -20.1371 -20.2254
ENERGY: 1000 0.0927 4.9860 2.4135 0.0000 -13991.5421 1523.6147 0.0000 0.0000 2321.3416 -10139.0934 289.2898 -12460.4351 -10134.6054 292.8489 7.4888 6.3913 483195.6580 1.8297 1.8226
ENERGY: 2000 1.4897 3.7600 1.8090 0.0000 -14000.8524 1538.7969 0.0000 0.0000 2389.3578 -10065.6391 297.7661 -12454.9969 -10062.7129 293.7311 16.1632 16.5799 485498.6175 2.8450 2.8336
ENERGY: 3000 0.3573 2.1209 3.4202 0.0000 -13870.3706 1440.3831 0.0000 0.0000 2369.8425 -10054.2465 295.3341 -12424.0890 -10050.5132 295.3465 -4.4574 -5.9245 479341.6381 0.9620 0.9371
ENERGY: 4000 0.6695 2.2135 2.1632 0.0000 -13866.5704 1488.4539 0.0000 0.0000 2348.0181 -10025.0523 292.6143 -12373.0704 -10019.3368 297.6411 17.8523 17.2502 484003.8976 -0.7111 -0.7309
ENERGY: 5000 0.2687 2.4854 2.8481 0.0000 -13923.5943 1472.5848 0.0000 0.0000 2427.6911 -10017.7161 302.5433 -12445.4072 -10012.8730 296.0520 2.6069 2.3934 474524.9788 0.5380 0.5396
TCL: Running FEP window   9: Lambda1 0.5    Lambda2 0.4375 [dLambda -0.0625]
TCL: Setting parameter firsttimestep to 0
TCL: Setting parameter alchLambda to 0.5
Info: NONBONDED TABLE R-SQUARED SPACING: 0.0625
Info: NONBONDED TABLE SIZE: 769 POINTS
TCL: Setting parameter alchLambda2 to 0.4375
Info: NONBONDED TABLE R-SQUARED SPACING: 0.0625
Info: NONBONDED TABLE SIZE: 769 POINTS
TCL: Running for 5000 steps
ETITLE: TS BOND ANGLE DIHED IMPRP ELECT VDW BOUNDARY MISC KINETIC TOTAL TEMP POTENTIAL TOTAL3 TEMPAVG PRESSURE GPRESSURE VOLUME PRESSAVG GPRESSAVG
ENERGY: 0 0.2687 2.4854 2.8481 0.0000 -13926.4365 1472.6272 0.0000 0.0000 2427.6207 -10020.5864 302.5345 -12448.2071 -10016.0988 302.5345 2.3449 2.2907 474524.9788 2.3449 2.2907
ENERGY: 1000 0.1442 6.7507 2.0393 0.0000 -14007.6407 1579.9345 0.0000 0.0000 2435.7652 -9983.0069 303.5495 -12418.7721 -9978.1562 301.1628 66.4865 65.9551 471263.6251 1.8360 1.8390
ENERGY: 2000 2.7239 2.6991 1.7449 0.0000 -13912.7337 1516.9915 0.0000 0.0000 2418.4337 -9970.1405 301.3896 -12388.5742 -9966.1988 296.8343 34.4316 35.1793 468490.1897 1.1720 1.1908
ENERGY: 3000 0.0830 5.5040 3.3093 0.0000 -13835.8961 1419.6233 0.0000 0.0000 2436.0512 -9971.3252 303.5851 -12407.3764 -9966.7503 299.2232 -17.9845 -17.3629 462338.6801 -0.3056 -0.3021
ENERGY: 4000 0.0348 2.7849 3.0125 0.0000 -13935.6414 1489.0887 0.0000 0.0000 2428.5296 -10012.1908 302.6478 -12440.7205 -10006.9755 300.5318 21.3448 22.6737 453057.7635 1.4118 1.3959
ENERGY: 5000 1.0477 3.7419 3.1441 0.0000 -13790.6784 1388.5300 0.0000 0.0000 2406.9015 -9987.3132 299.9524 -12394.2147 -9983.6069 298.7811 -42.8792 -43.6857 459468.8343 1.1529 1.1579
TCL: Running FEP window  10: Lambda1 0.4375 Lambda2 0.375  [dLambda -0.0625]
TCL: Setting parameter firsttimestep to 0
TCL: Setting parameter alchLambda to 0.4375
Info: NONBONDED TABLE R-SQUARED SPACING: 0.0625
Info: NONBONDED TABLE SIZE: 769 POINTS
TCL: Setting parameter alchLambda2 to 0.375
Info: NONBONDED TABLE R-SQUARED SPACING: 0.0625
Info: NONBONDED TABLE SIZE: 769 POINTS
TCL: Running for 5000 steps
ETITLE: TS BOND ANGLE DIHED IMPRP ELECT VDW BOUNDARY MISC KINETIC TOTAL TEMP POTENTIAL TOTAL3 TEMPAVG PRESSURE GPRESSURE VOLUME PRESSAVG GPRESSAVG
ENERGY: 0 1.0477 3.7419 3.1441 0.0000 -13790.6784 1388.6077 0.0000 0.0000 2406.8303 -9987.3067 299.9436 -12394.1370 -9982.3521 299.9436 -44.0020 -43.8674 459468.8343 -44.0020 -43.8674
ENERGY: 1000 0.3504 5.1984 2.2459 0.0000 -13923.9777 1469.6265 0.0000 0.0000 2435.9736 -10010.5829 303.5755 -12446.5565 -10006.6765 297.7147 -9.0404 -9.1547 476717.1232 1.2421 1.2345
ENERGY: 2000 0.1270 4.8594 1.6522 0.0000 -13942.9350 1507.5477 0.0000 0.0000 2365.7174 -10063.0313 294.8200 -12428.7487 -10057.5842 296.0609 20.7748 20.9574 476705.8228 2.3332 2.3961
ENERGY: 3000 0.8681 2.0000 4.1882 0.0000 -13893.3092 1487.4452 0.0000 0.0000 2401.7087 -9997.0990 299.3053 -12398.8077 -9991.7448 296.8243 19.3288 18.6858 462586.8099 1.1138 1.1174
ENERGY: 4000 1.3069 5.2161 2.2098 0.0000 -13799.3919 1407.5581 0.0000 0.0000 2372.8703 -10010.2307 295.7114 -12383.1010 -10005.7382 298.5595 -38.3081 -37.4899 465605.6996 1.2308 1.2696
ENERGY: 5000 0.9964 3.4436 2.6422 0.0000 -13931.7282 1455.3734 0.0000 0.0000 2369.3584 -10099.9141 295.2737 -12469.2725 -10094.7278 297.0439 -34.1241 -33.3232 474600.2476 2.9737 3.0051
TCL: Running FEP window  11: Lambda1 0.375  Lambda2 0.3125 [dLambda -0.0625]
TCL: Setting parameter firsttimestep to 0
TCL: Setting parameter alchLambda to 0.375
Info: NONBONDED TABLE R-SQUARED SPACING: 0.0625
Info: NONBONDED TABLE SIZE: 769 POINTS
TCL: Setting parameter alchLambda2 to 0.3125
Info: NONBONDED TABLE R-SQUARED SPACING: 0.0625
Info: NONBONDED TABLE SIZE: 769 POINTS
TCL: Running for 5000 steps
ETITLE: TS BOND ANGLE DIHED IMPRP ELECT VDW BOUNDARY MISC KINETIC TOTAL TEMP POTENTIAL TOTAL3 TEMPAVG PRESSURE GPRESSURE VOLUME PRESSAVG GPRESSAVG
ENERGY: 0 0.9964 3.4436 2.6422 0.0000 -13931.7282 1455.4245 0.0000 0.0000 2369.2892 -10099.9321 295.2651 -12469.2214 -10095.2375 295.2651 -33.2869 -33.2824 474600.2476 -33.2869 -33.2824
ENERGY: 1000 0.9335 3.4060 4.3303 0.0000 -14004.3118 1500.3684 0.0000 0.0000 2374.3761 -10120.8975 295.8991 -12495.2736 -10117.1758 291.9223 -7.5475 -7.1578 460500.7073 0.5732 0.5993
ENERGY: 2000 0.1987 2.3929 2.0132 0.0000 -13945.6286 1508.1669 0.0000 0.0000 2305.7680 -10127.0888 287.3490 -12432.8569 -10123.0051 293.1762 -3.3460 -3.5985 456041.5054 1.5513 1.5388
ENERGY: 3000 0.2985 4.4899 3.1195 0.0000 -13923.1412 1466.6200 0.0000 0.0000 2298.1809 -10150.4324 286.4035 -12448.6133 -10147.4170 293.0000 -5.2933 -5.0161 448974.1803 3.1618 3.1695
ENERGY: 4000 1.4138 2.1905 3.5440 0.0000 -13935.7652 1460.6169 0.0000 0.0000 2302.1891 -10165.8109 286.9030 -12468.0000 -10162.6429 294.1130 -12.8192 -11.7257 426860.9279 0.2789 0.3103
ENERGY: 5000 0.7977 2.3079 2.7323 0.0000 -13996.4271 1431.1762 0.0000 0.0000 2361.1478 -10198.2652 294.2505 -12559.4130 -10193.2068 288.7303 -46.8180 -47.2942 417707.6032 0.0792 0.0826
TCL: Running FEP window  12: Lambda1 0.3125 Lambda2 0.25   [dLambda -0.0625]
TCL: Setting parameter firsttimestep to 0
TCL: Setting parameter alchLambda to 0.3125
Info: NONBONDED TABLE R-SQUARED SPACING: 0.0625
Info: NONBONDED TABLE SIZE: 769 POINTS
TCL: Setting parameter alchLambda2 to 0.25
Info: NONBONDED TABLE R-SQUARED SPACING: 0.0625
Info: NONBONDED TABLE SIZE: 769 POINTS
TCL: Running for 5000 steps
ETITLE: TS BOND ANGLE DIHED IMPRP ELECT VDW BOUNDARY MISC KINETIC TOTAL TEMP POTENTIAL TOTAL3 TEMPAVG PRESSURE GPRESSURE VOLUME PRESSAVG GPRESSAVG
ENERGY: 0 0.7977 2.3079 2.7323 0.0000 -13996.4271 1431.1911 0.0000 0.0000 2361.0730 -10198.3251 294.2412 -12559.3981 -10194.1561 294.2412 -47.0748 -47.2196 417707.6032 -47.0748 -47.2196
ENERGY: 1000 1.4004 1.9392 2.5837 0.0000 -14051.5968 1537.2375 0.0000 0.0000 2316.4694 -10191.9665 288.6826 -12508.4359 -10188.6145 290.4960 17.8407 18.5888 419534.5291 2.0310 2.0703
ENERGY: 2000 0.7916 3.9334 1.9630 0.0000 -14044.1286 1516.9785 0.0000 0.0000 2384.2899 -10136.1721 297.1345 -12520.4620 -10132.7118 294.0882 28.0424 28.9572 408915.6465 3.0501 3.1042
ENERGY: 3000 0.2726 4.5451 1.9888 0.0000 -13869.8111 1448.0564 0.0000 0.0000 2327.0904 -10087.8578 290.0062 -12414.9482 -10081.6672 294.7185 -41.9582 -41.8621 420982.9935 -0.6717 -0.6399
ENERGY: 4000 3.3552 3.2332 2.4596 0.0000 -13857.4523 1471.7211 0.0000 0.0000 2375.0075 -10001.6757 295.9777 -12376.6832 -9994.9918 296.1578 2.2951 1.3383 418587.7388 1.4130 1.4139
ENERGY: 5000 0.6694 4.4802 1.7018 0.0000 -13945.7832 1459.6665 0.0000 0.0000 2460.1100 -10019.1552 306.5834 -12479.2652 -10013.2861 297.5534 3.7158 5.5544 438268.2389 1.9274 1.9772
TCL: Running FEP window  13: Lambda1 0.25   Lambda2 0.1875 [dLambda -0.0625]
TCL: Setting parameter firsttimestep to 0
TCL: Setting parameter alchLambda to 0.25
Info: NONBONDED TABLE R-SQUARED SPACING: 0.0625
Info: NONBONDED TABLE SIZE: 769 POINTS
TCL: Setting parameter alchLambda2 to 0.1875
Info: NONBONDED TABLE R-SQUARED SPACING: 0.0625
Info: NONBONDED TABLE SIZE: 769 POINTS
TCL: Running for 5000 steps
ETITLE: TS BOND ANGLE DIHED IMPRP ELECT VDW BOUNDARY MISC KINETIC TOTAL TEMP POTENTIAL TOTAL3 TEMPAVG PRESSURE GPRESSURE VOLUME PRESSAVG GPRESSAVG
ENERGY: 0 0.6694 4.4802 1.7018 0.0000 -13945.7832 1459.6813 0.0000 0.0000 2460.0327 -10019.2177 306.5737 -12479.2504 -10015.2918 306.5737 5.7009 5.7485 438268.2389 5.7009 5.7485
ENERGY: 1000 2.9214 3.7110 1.5489 0.0000 -13909.4234 1497.8389 0.0000 0.0000 2350.3987 -10053.0044 292.9110 -12403.4032 -10048.4041 299.3083 13.7116 13.2377 461275.6748 1.0038 1.0254
ENERGY: 2000 1.3847 4.7390 2.6528 0.0000 -13813.4835 1401.9101 0.0000 0.0000 2419.1945 -9983.6023 301.4844 -12402.7969 -9977.8747 298.7130 -54.1260 -54.1508 493456.2921 3.1358 3.1439
ENERGY: 3000 1.0731 2.8291 2.5956 0.0000 -13868.0797 1468.4473 0.0000 0.0000 2390.5391 -10002.5955 297.9133 -12393.1346 -9998.4916 297.2764 7.9873 7.6888 493361.4415 0.9695 1.0250
ENERGY: 4000 0.1632 4.0047 2.3278 0.0000 -13899.4896 1507.2510 0.0000 0.0000 2362.4481 -10023.2949 294.4126 -12385.7430 -10020.6032 297.9754 24.3662 24.3376 506822.8343 2.3398 2.3452
ENERGY: 5000 0.0202 4.0594 2.2015 0.0000 -13850.8902 1463.6143 0.0000 0.0000 2388.8125 -9992.1823 297.6982 -12380.9948 -9988.0424 296.9741 -3.4203 -3.7863 495811.6907 -2.2225 -2.2038
TCL: Running FEP window  14: Lambda1 0.1875 Lambda2 0.125  [dLambda -0.0625]
TCL: Setting parameter firsttimestep to 0
TCL: Setting parameter alchLambda to 0.1875
Info: NONBONDED TABLE R-SQUARED SPACING: 0.0625
Info: NONBONDED TABLE SIZE: 769 POINTS
TCL: Setting parameter alchLambda2 to 0.125
Info: NONBONDED TABLE R-SQUARED SPACING: 0.0625
Info: NONBONDED TABLE SIZE: 769 POINTS
TCL: Running for 5000 steps
ETITLE: TS BOND ANGLE DIHED IMPRP ELECT VDW BOUNDARY MISC KINETIC TOTAL TEMP POTENTIAL TOTAL3 TEMPAVG PRESSURE GPRESSURE VOLUME PRESSAVG GPRESSAVG
ENERGY: 0 0.0202 4.0594 2.2015 0.0000 -13850.8902 1463.6282 0.0000 0.0000 2388.7387 -9992.2422 297.6889 -12380.9809 -9988.4157 297.6889 -3.7751 -3.7363 495811.6907 -3.7751 -3.7363
ENERGY: 1000 0.2384 8.2174 2.8873 0.0000 -13983.4385 1527.1123 0.0000 0.0000 2440.2165 -10004.7667 304.1042 -12444.9831 -9999.8162 299.5343 35.6531 35.9269 472321.6033 -0.1503 -0.1700
ENERGY: 2000 1.2453 5.6608 2.7880 0.0000 -13862.9347 1456.6053 0.0000 0.0000 2448.2874 -9948.3479 305.1100 -12396.6354 -9944.8792 300.0468 -12.5108 -12.5710 458984.5939 0.3501 0.3510
ENERGY: 3000 0.8998 3.5185 2.1714 0.0000 -13928.1942 1509.7598 0.0000 0.0000 2383.1997 -10028.6449 296.9987 -12411.8446 -10024.0508 297.2202 -3.3053 -2.2679 462709.6661 1.5780 1.6163
ENERGY: 4000 0.5467 3.9561 2.0314 0.0000 -13899.0945 1498.2923 0.0000 0.0000 2302.4611 -10091.8068 286.9369 -12394.2679 -10087.7519 294.2556 0.1876 0.7717 467650.0661 1.4062 1.4045
ENERGY: 5000 0.4956 4.9805 1.9368 0.0000 -13858.0935 1494.2131 0.0000 0.0000 2343.3875 -10013.0799 292.0372 -12356.4675 -10009.6441 294.6815 17.1553 17.3550 467878.7933 3.0322 3.0273
TCL: Running FEP window  15: Lambda1 0.125  Lambda2 0.0625 [dLambda -0.0625]
TCL: Setting parameter firsttimestep to 0
TCL: Setting parameter alchLambda to 0.125
Info: NONBONDED TABLE R-SQUARED SPACING: 0.0625
Info: NONBONDED TABLE SIZE: 769 POINTS
TCL: Setting parameter alchLambda2 to 0.0625
Info: NONBONDED TABLE R-SQUARED SPACING: 0.0625
Info: NONBONDED TABLE SIZE: 769 POINTS
TCL: Running for 5000 steps
ETITLE: TS BOND ANGLE DIHED IMPRP ELECT VDW BOUNDARY MISC KINETIC TOTAL TEMP POTENTIAL TOTAL3 TEMPAVG PRESSURE GPRESSURE VOLUME PRESSAVG GPRESSAVG
ENERGY: 0 0.4956 4.9805 1.9368 0.0000 -13858.0935 1494.2653 0.0000 0.0000 2343.3168 -10013.0986 292.0284 -12356.4153 -10008.7676 292.0284 17.1711 17.2581 467878.7933 17.1711 17.2581
ENERGY: 1000 0.2345 5.4510 2.1178 0.0000 -13871.2260 1488.2045 0.0000 0.0000 2392.7488 -9982.4695 298.1887 -12375.2183 -9978.1731 299.1750 -1.6520 -1.7768 461374.7481 1.5599 1.5528
ENERGY: 2000 3.0601 5.0388 2.0574 0.0000 -13810.9165 1460.9069 0.0000 0.0000 2383.4447 -9956.4086 297.0292 -12339.8533 -9954.9199 299.8049 13.7944 15.2884 467163.7974 2.7260 2.7434
ENERGY: 3000 0.4695 3.7987 2.3780 0.0000 -13839.5299 1428.0499 0.0000 0.0000 2360.7992 -10044.0346 294.2071 -12404.8338 -10036.9842 298.5032 -24.9604 -24.6360 487513.2659 2.3121 2.3348
ENERGY: 4000 0.6815 4.5006 2.3297 0.0000 -13952.6511 1546.8755 0.0000 0.0000 2365.2352 -10033.0286 294.7599 -12398.2639 -10029.8349 295.6237 52.7413 52.8061 501972.4578 3.0230 3.0244
ENERGY: 5000 0.4607 1.1945 1.8478 0.0000 -13728.3114 1382.1151 0.0000 0.0000 2294.6360 -10048.0572 285.9617 -12342.6932 -10043.7862 295.6669 -46.5530 -46.8897 508543.6568 1.4987 1.4956
TCL: Running FEP window  16: Lambda1 0.0625 Lambda2 0.0    [dLambda -0.0625]
TCL: Setting parameter firsttimestep to 0
TCL: Setting parameter alchLambda to 0.0625
Info: NONBONDED TABLE R-SQUARED SPACING: 0.0625
Info: NONBONDED TABLE SIZE: 769 POINTS
TCL: Setting parameter alchLambda2 to 0.0
Info: NONBONDED TABLE R-SQUARED SPACING: 0.0625
Info: NONBONDED TABLE SIZE: 769 POINTS
TCL: Running for 5000 steps
ETITLE: TS BOND ANGLE DIHED IMPRP ELECT VDW BOUNDARY MISC KINETIC TOTAL TEMP POTENTIAL TOTAL3 TEMPAVG PRESSURE GPRESSURE VOLUME PRESSAVG GPRESSAVG
ENERGY: 0 0.4607 1.1945 1.8478 0.0000 -13728.3114 1382.1260 0.0000 0.0000 2294.5638 -10048.1185 285.9527 -12342.6823 -10043.6945 285.9527 -46.9401 -46.9164 508543.6568 -46.9401 -46.9164
ENERGY: 1000 0.8252 5.6114 1.9359 0.0000 -13811.2460 1476.6633 0.0000 0.0000 2437.5283 -9888.6818 303.7692 -12326.2101 -9883.0045 299.2419 26.1616 25.5609 508815.0769 3.5982 3.6265
ENERGY: 2000 2.0498 4.2956 2.9074 0.0000 -13874.0660 1481.7299 0.0000 0.0000 2446.9998 -9936.0836 304.9496 -12383.0833 -9929.4682 302.8452 0.4441 0.3154 517694.8856 1.8306 1.8155
ENERGY: 3000 2.4408 5.9112 2.8635 0.0000 -13961.1046 1538.6275 0.0000 0.0000 2376.6033 -10034.6583 296.1766 -12411.2617 -10029.5531 297.5111 36.6983 36.7463 511678.5741 1.6941 1.7041
ENERGY: 4000 1.3327 4.8202 2.4335 0.0000 -13908.9931 1465.2297 0.0000 0.0000 2293.8453 -10141.3318 285.8632 -12435.1771 -10137.7183 294.0870 -12.9915 -12.2141 538005.3853 2.0109 2.0266
ENERGY: 5000 0.6249 4.1863 2.1562 0.0000 -13981.4908 1528.7344 0.0000 0.0000 2365.1430 -10080.6460 294.7484 -12445.7890 -10074.7397 297.1109 27.9532 28.0162 532116.9219 1.7125 1.6773
