Info: SIMULATION PARAMETERS:
Info: TIMESTEP               2
Info: NUMBER OF STEPS        0
Info: STEPS PER CYCLE        10
Info: PERIODIC CELL BASIS 1  31.2701 0 0
Info: PERIODIC CELL BASIS 2  0 31.6283 0
Info: PERIODIC CELL BASIS 3  0 0 31.9069
Info: PERIODIC CELL CENTER   0 0 0
Info: WRAPPING WATERS AROUND PERIODIC BOUNDARIES ON OUTPUT.
Info: WRAPPING ALL CLUSTERS AROUND PERIODIC BOUNDARIES ON OUTPUT.
Info: FIRST LDB TIMESTEP     50
Info: LAST LDB TIMESTEP     -1
Info: HOM BACKGROUND SCALING 1
Info: PME BACKGROUND SCALING 1
Info: MIN ATOMS PER PATCH    40
Info: EMPTY PATCH LOAD       40 ATOMS
Info: VELOCITY FILE          mobley_676247_equil.vel
Info: CENTER OF MASS MOVING INITIALLY? NO
Info: DIELECTRIC             1
Info: EXCLUDE                SCALED ONE-FOUR
Info: 1-4 ELECTROSTATICS SCALED BY 0.833333
Info: MODIFIED 1-4 VDW PARAMETERS WILL BE USED
Info: DCD FILENAME           mobley_676247_prod.dcd
Info: DCD FREQUENCY          100000
Info: DCD FIRST STEP         100000
Info: DCD FILE WILL CONTAIN UNIT CELL DATA
Info: XST FILENAME           mobley_676247_prod.xst
Info: XST FREQUENCY          100000
Info: NO VELOCITY DCD OUTPUT
Info: NO FORCE DCD OUTPUT
Info: OUTPUT FILENAME        mobley_676247_prod
Info: BINARY OUTPUT FILES WILL BE USED
Info: RESTART FILENAME       mobley_676247_prod.restart
Info: RESTART FREQUENCY      100000
Info: BINARY RESTART FILES WILL BE USED
Info: CUTOFF                 9
Info: PAIRLIST DISTANCE      11
Info: PAIRLIST SHRINK RATE   0.01
Info: PAIRLIST GROW RATE     0.01
Info: PAIRLIST TRIGGER       0.3
Info: PAIRLISTS PER CYCLE    2
Info: PAIRLISTS ENABLED
Info: MARGIN                 2
Info: HYDROGEN GROUP CUTOFF  2.5
Info: PATCH DIMENSION        15.5
Info: ENERGY OUTPUT STEPS    100000
Info: ENERGY EVALUATION STEPS    100000
Info: OUTPUT ENERGY PRECISION 4
Info: CROSSTERM ENERGY INCLUDED IN DIHEDRAL
Info: TIMING OUTPUT STEPS    1000000
Info: PRESSURE OUTPUT STEPS  100000
Info: ALCHEMICAL FEP ON
Info: FEP CURRENT LAMBDA VALUE     1
Info: FEP COMPARISON LAMBDA VALUE  0.95
Info: FEP INTRA-ALCHEMICAL NON-BONDED INTERACTIONS WILL BE RETAINED
Info: FEP INTRA-ALCHEMICAL BONDED INTERACTIONS WILL BE RETAINED
Info: FEP VDW SHIFTING COEFFICIENT 5
Info: FEP ELEC. ACTIVE FOR ANNIHILATED PARTICLES BETWEEN LAMBDA = 0 AND LAMBDA = 0.5
Info: FEP ELEC. ACTIVE FOR EXNIHILATED PARTICLES BETWEEN LAMBDA = 0.5 AND LAMBDA = 1
Info: FEP VDW ACTIVE FOR ANNIHILATED PARTICLES BETWEEN LAMBDA = 0 AND LAMBDA = 1
Info: FEP VDW ACTIVE FOR EXNIHILATED PARTICLES BETWEEN LAMBDA = 0 AND LAMBDA = 1
Info: FEP BOND ACTIVE FOR ANNIHILATED PARTICLES BETWEEN LAMBDA = 1 AND LAMBDA = 1
Info: FEP BOND ACTIVE FOR EXNIHILATED PARTICLES BETWEEN LAMBDA = 0 AND LAMBDA = 0
Info: LANGEVIN DYNAMICS ACTIVE
Info: LANGEVIN TEMPERATURE   300
Info: LANGEVIN USING BBK INTEGRATOR
Info: LANGEVIN DAMPING COEFFICIENT IS 1 INVERSE PS
Info: LANGEVIN DYNAMICS APPLIED TO HYDROGENS
Info: LANGEVIN PISTON PRESSURE CONTROL ACTIVE
Info:        TARGET PRESSURE IS 1.01325 BAR
Info:     OSCILLATION PERIOD IS 50 FS
Info:             DECAY TIME IS 25 FS
Info:     PISTON TEMPERATURE IS 300 K
Info:       PRESSURE CONTROL IS GROUP-BASED
Info:    INITIAL STRAIN RATE IS -0.000137626 -0.000137626 -0.000137626
Info:       CELL FLUCTUATION IS ISOTROPIC
Info: PARTICLE MESH EWALD (PME) ACTIVE
Info: PME TOLERANCE               1e-06
Info: PME EWALD COEFFICIENT       0.348832
Info: PME INTERPOLATION ORDER     4
Info: PME GRID DIMENSIONS         32 32 32
Info: PME MAXIMUM GRID SPACING    1
Info: PME CALCULATION WILL BE PERFORMED ON GPU
Info: FULL ELECTROSTATIC EVALUATION FREQUENCY      2
Info: USING VERLET I (r-RESPA) MTS SCHEME.
Info: C1 SPLITTING OF LONG RANGE ELECTROSTATICS
Info: PLACING ATOMS IN PATCHES BY HYDROGEN GROUPS
Info: RIGID BONDS TO HYDROGEN : ALL
Info:         ERROR TOLERANCE : 1e-08
Info:          MAX ITERATIONS : 100
Info: RIGID WATER USING SETTLE ALGORITHM
Info: RANDOM NUMBER SEED     1741944112
Info: USE HYDROGEN BONDS?    NO
Info: Using AMBER format force field!
Info: AMBER PARM FILE        mobley_676247.prmtop
Info: COORDINATE PDB         mobley_676247.pdb
Info: Exclusions will be read from PARM file!
Info: SCNB (VDW SCALING)     2
Info: USING ARITHMETIC MEAN TO COMBINE L-J SIGMA PARAMETERS
Info: BINARY COORDINATES     mobley_676247_equil.coor
Info: SUMMARY OF PARAMETERS:
Info: 3 BONDS
Info: 1 ANGLES
Info:   1 HARMONIC
Info:   0 COSINE-BASED
Info: 0 DIHEDRAL
Info: 0 IMPROPER
Info: 0 CROSSTERM
Info: 0 VDW
Info: 10 VDW_PAIRS
Info: 0 NBTHOLE_PAIRS
Info: To read alchdata from file: mobley_676247.pdb
Info: To read alchflag data from column: 5
Info: STRUCTURE SUMMARY:
Info: 2993 ATOMS
Info: 2992 BONDS
Info: 6 ANGLES
Info: 0 DIHEDRALS
Info: 0 IMPROPERS
Info: 0 CROSSTERMS
Info: 2998 EXCLUSIONS
Info: 2988 RIGID BONDS
Info: ALCH: 0 ATOMS TO DISAPPEAR IN FINAL STATE
Info: ALCH: 5 ATOMS TO APPEAR IN FINAL STATE
Info: 5991 DEGREES OF FREEDOM
Info: 1001 HYDROGEN GROUPS
Info: 3 ATOMS IN LARGEST HYDROGEN GROUP
Info: 1001 MIGRATION GROUPS
Info: 3 ATOMS IN LARGEST MIGRATION GROUP
Info: TOTAL MASS = 18031.9 amu
Info: TOTAL CHARGE = 0.000200033 e
Info: MASS DENSITY = 0.948883 g/cm^3
Info: ATOM DENSITY = 0.0948457 atoms/A^3
Info: ADDED 0 IMPLICIT EXCLUSIONS
Info: NONBONDED TABLE R-SQUARED SPACING: 0.0625
Info: NONBONDED TABLE SIZE: 705 POINTS
Info: REDUCING NUMBER OF PATCHES TO IMPROVE LOAD BALANCE
Info: REMOVING COM VELOCITY -0.0139004 -0.14672 -0.0303934
Info: Use 3D box decompostion in PME FFT.
Info: Updated CUDA force table with 4096 elements.
Info: Updated CUDA LJ table with 4 x 4 elements.
Info: Found 8 unique exclusion lists needing 8 bytes
TCL: Running for 1500000 steps
ETITLE: TS BOND ANGLE DIHED IMPRP ELECT VDW BOUNDARY MISC KINETIC TOTAL TEMP POTENTIAL TOTALAVG TEMPAVG PRESSURE GPRESSURE VOLUME PRESSAVG GPRESSAVG
ENERGY: 0 1.0987 1.1704 0.0000 0.0000 -10841.5688 1462.1026 0.0000 0.0000 1761.5038 -7615.6934 295.9202 -9377.1972 -7615.6934 295.9202 -217.2122 -137.4296 31556.5229 -217.2122 -137.4296
ENERGY: 300000 1.1467 3.4552 0.0000 0.0000 -10836.5905 1439.9337 0.0000 0.0000 1832.1508 -7559.9041 307.7884 -9392.0549 -7647.8268 297.8865 -304.6741 -221.3306 31378.2862 -145.6673 -84.0820
ENERGY: 600000 1.5209 1.2531 0.0000 0.0000 -10955.6249 1528.2101 0.0000 0.0000 1789.8128 -7634.8280 300.6759 -9424.6408 -7624.9771 300.2912 296.1134 279.5121 31057.9354 -193.1207 -127.3375
ENERGY: 900000 1.7927 1.6388 0.0000 0.0000 -10815.9058 1469.4049 0.0000 0.0000 1788.8225 -7554.2469 300.5096 -9343.0694 -7616.1658 301.0003 230.7925 306.7110 30906.4010 -251.9112 -178.9302
ENERGY: 1200000 0.8785 1.2570 0.0000 0.0000 -10769.2442 1448.6952 0.0000 0.0000 1831.1116 -7487.3019 307.6138 -9318.4135 -7602.1906 303.1701 -113.4267 41.4999 31416.5850 -144.2476 -70.9863
ENERGY: 1500000 3.7312 1.0449 0.0000 0.0000 -10870.0947 1423.1305 0.0000 0.0000 1733.6650 -7708.5231 291.2435 -9442.1881 -7613.3524 301.2327 -492.7118 -410.3099 30929.8729 -179.4516 -110.8837
TCL: Running FEP window   2: Lambda1 0.95   Lambda2 0.8999999999999999 [dLambda -0.050000000000000044]
TCL: Setting parameter firsttimestep to 0
TCL: Setting parameter alchLambda to 0.95
Info: NONBONDED TABLE R-SQUARED SPACING: 0.0625
Info: NONBONDED TABLE SIZE: 705 POINTS
TCL: Setting parameter alchLambda2 to 0.8999999999999999
Info: NONBONDED TABLE R-SQUARED SPACING: 0.0625
Info: NONBONDED TABLE SIZE: 705 POINTS
TCL: Running for 1500000 steps
ETITLE: TS BOND ANGLE DIHED IMPRP ELECT VDW BOUNDARY MISC KINETIC TOTAL TEMP POTENTIAL TOTALAVG TEMPAVG PRESSURE GPRESSURE VOLUME PRESSAVG GPRESSAVG
ENERGY: 0 3.7312 1.0449 0.0000 0.0000 -10869.9365 1423.2024 0.0000 0.0000 1732.7789 -7709.1790 291.0947 -9441.9580 -7709.1790 291.0947 -487.5460 -414.8722 30929.8729 -487.5460 -414.8722
ENERGY: 300000 1.9843 2.0811 0.0000 0.0000 -10818.2633 1460.7678 0.0000 0.0000 1825.9341 -7527.4960 306.7441 -9353.4301 -7592.1384 303.0740 308.4136 343.6790 30803.4747 -231.2897 -170.6921
ENERGY: 600000 1.0923 3.5906 0.0000 0.0000 -10853.6387 1437.8175 0.0000 0.0000 1704.1480 -7706.9903 286.2849 -9411.1383 -7631.7106 299.3835 -244.5572 -152.2202 30576.8095 -75.4688 -10.6083
ENERGY: 900000 2.0883 3.4751 0.0000 0.0000 -10904.4037 1457.1036 0.0000 0.0000 1867.2963 -7574.4404 313.6926 -9441.7368 -7620.4831 300.4814 -8.1598 34.6124 30829.2619 -61.8367 5.4605
ENERGY: 1200000 2.7541 3.2092 0.0000 0.0000 -10875.2340 1512.3278 0.0000 0.0000 1837.0763 -7519.8667 308.6159 -9356.9430 -7615.4654 301.0343 410.0780 466.1734 30883.9412 -71.0103 -10.4831
ENERGY: 1500000 0.6466 5.3088 0.0000 0.0000 -11003.0550 1544.1829 0.0000 0.0000 1780.9281 -7671.9886 299.1834 -9452.9167 -7623.6609 300.8265 656.9419 689.5157 30505.2262 88.9432 148.6035
TCL: Running FEP window   3: Lambda1 0.8999999999999999 Lambda2 0.8499999999999999 [dLambda -0.050000000000000044]
TCL: Setting parameter firsttimestep to 0
TCL: Setting parameter alchLambda to 0.8999999999999999
Info: NONBONDED TABLE R-SQUARED SPACING: 0.0625
Info: NONBONDED TABLE SIZE: 705 POINTS
TCL: Setting parameter alchLambda2 to 0.8499999999999999
Info: NONBONDED TABLE R-SQUARED SPACING: 0.0625
Info: NONBONDED TABLE SIZE: 705 POINTS
TCL: Running for 1500000 steps
ETITLE: TS BOND ANGLE DIHED IMPRP ELECT VDW BOUNDARY MISC KINETIC TOTAL TEMP POTENTIAL TOTALAVG TEMPAVG PRESSURE GPRESSURE VOLUME PRESSAVG GPRESSAVG
ENERGY: 0 0.6466 5.3088 0.0000 0.0000 -11002.9699 1544.3985 0.0000 0.0000 1780.0544 -7672.5616 299.0366 -9452.6160 -7672.5616 299.0366 604.4120 686.0794 30505.2262 604.4120 686.0794
ENERGY: 300000 1.1509 1.3865 0.0000 0.0000 -10884.4278 1431.8287 0.0000 0.0000 1785.9703 -7664.0915 300.0304 -9450.0618 -7661.0598 299.9548 -15.7198 70.1501 30126.1246 -193.1429 -125.9674
ENERGY: 600000 1.2574 1.6701 0.0000 0.0000 -10714.2285 1401.6576 0.0000 0.0000 1750.4181 -7559.2253 294.0579 -9309.6434 -7642.4516 298.8557 -532.7261 -420.4872 31323.3795 -201.6977 -135.4089
ENERGY: 900000 0.3887 2.6091 0.0000 0.0000 -10821.8103 1445.4107 0.0000 0.0000 1766.3308 -7607.0709 296.7311 -9373.4018 -7633.5709 298.9892 -49.4049 -21.8234 30896.1248 -136.3001 -79.1446
ENERGY: 1200000 1.9097 2.6049 0.0000 0.0000 -10964.5129 1474.8203 0.0000 0.0000 1792.1318 -7693.0462 301.0655 -9485.1780 -7650.9835 298.9652 247.8064 246.1232 30391.3768 -124.7513 -78.8956
ENERGY: 1500000 1.4568 1.7568 0.0000 0.0000 -10872.3969 1458.0498 0.0000 0.0000 1752.1935 -7658.9400 294.3562 -9411.1335 -7659.9512 298.6282 -250.8179 -200.3817 31163.7783 -96.2066 -45.1482
TCL: Running FEP window   4: Lambda1 0.8499999999999999 Lambda2 0.7999999999999998 [dLambda -0.050000000000000044]
TCL: Setting parameter firsttimestep to 0
TCL: Setting parameter alchLambda to 0.8499999999999999
Info: NONBONDED TABLE R-SQUARED SPACING: 0.0625
Info: NONBONDED TABLE SIZE: 705 POINTS
TCL: Setting parameter alchLambda2 to 0.7999999999999998
Info: NONBONDED TABLE R-SQUARED SPACING: 0.0625
Info: NONBONDED TABLE SIZE: 705 POINTS
TCL: Running for 1500000 steps
ETITLE: TS BOND ANGLE DIHED IMPRP ELECT VDW BOUNDARY MISC KINETIC TOTAL TEMP POTENTIAL TOTALAVG TEMPAVG PRESSURE GPRESSURE VOLUME PRESSAVG GPRESSAVG
ENERGY: 0 1.4568 1.7568 0.0000 0.0000 -10872.3805 1458.2331 0.0000 0.0000 1751.2976 -7659.6363 294.2057 -9410.9338 -7659.6363 294.2057 -273.1556 -204.3205 31163.7783 -273.1556 -204.3205
ENERGY: 300000 0.6683 2.2749 0.0000 0.0000 -10804.0106 1417.0681 0.0000 0.0000 1776.1972 -7607.8021 298.3886 -9383.9993 -7661.8606 294.5309 -149.9437 -142.2390 30662.2211 -567.3096 -531.4058
ENERGY: 600000 2.0182 1.7596 0.0000 0.0000 -10839.3459 1467.0890 0.0000 0.0000 1758.1190 -7610.3602 295.3516 -9368.4792 -7649.1125 295.7720 -170.8619 -68.2645 31201.0958 -541.5299 -492.4095
ENERGY: 900000 0.7813 2.0118 0.0000 0.0000 -11009.4084 1505.8471 0.0000 0.0000 1797.8375 -7702.9308 302.0240 -9500.7683 -7656.1168 297.1665 -49.0666 42.1373 30975.0944 -350.4777 -289.0145
ENERGY: 1200000 1.4787 1.2830 0.0000 0.0000 -10790.8745 1463.7331 0.0000 0.0000 1795.4155 -7528.9642 301.6171 -9324.3797 -7634.5688 298.7243 311.5167 396.7100 30819.1286 -282.8104 -219.0674
ENERGY: 1500000 0.5678 2.3486 0.0000 0.0000 -10946.4105 1499.6457 0.0000 0.0000 1746.5904 -7697.2582 293.4149 -9443.8485 -7629.2193 298.7217 179.8396 221.9260 30799.6873 -251.8657 -189.3359
TCL: Running FEP window   5: Lambda1 0.7999999999999998 Lambda2 0.7499999999999998 [dLambda -0.050000000000000044]
TCL: Setting parameter firsttimestep to 0
TCL: Setting parameter alchLambda to 0.7999999999999998
Info: NONBONDED TABLE R-SQUARED SPACING: 0.0625
Info: NONBONDED TABLE SIZE: 705 POINTS
TCL: Setting parameter alchLambda2 to 0.7499999999999998
Info: NONBONDED TABLE R-SQUARED SPACING: 0.0625
Info: NONBONDED TABLE SIZE: 705 POINTS
TCL: Running for 1500000 steps
ETITLE: TS BOND ANGLE DIHED IMPRP ELECT VDW BOUNDARY MISC KINETIC TOTAL TEMP POTENTIAL TOTALAVG TEMPAVG PRESSURE GPRESSURE VOLUME PRESSAVG GPRESSAVG
ENERGY: 0 0.5678 2.3486 0.0000 0.0000 -10946.3271 1499.7803 0.0000 0.0000 1745.6836 -7697.9469 293.2625 -9443.6305 -7697.9469 293.2625 133.3159 218.8356 30799.6873 133.3159 218.8356
ENERGY: 300000 0.8672 1.5216 0.0000 0.0000 -10922.5262 1496.4650 0.0000 0.0000 1701.4299 -7722.2425 285.8282 -9423.6724 -7681.4667 293.2328 158.5775 224.3038 30863.7230 32.0797 91.2577
ENERGY: 600000 4.2243 2.9908 0.0000 0.0000 -10834.3874 1395.0162 0.0000 0.0000 1800.9442 -7631.2119 302.5459 -9432.1561 -7635.5388 298.2446 -705.4792 -629.0303 30955.6070 128.0250 194.2646
ENERGY: 900000 0.8752 3.0438 0.0000 0.0000 -10972.8812 1468.4319 0.0000 0.0000 1811.7798 -7688.7505 304.3662 -9500.5303 -7622.9336 299.3724 -198.1898 -171.3258 30666.3828 39.2888 105.8866
ENERGY: 1200000 0.3608 2.1861 0.0000 0.0000 -10995.3603 1525.7826 0.0000 0.0000 1821.7566 -7645.2741 306.0423 -9467.0307 -7627.4239 299.3575 262.9378 268.4905 30979.5299 62.2606 120.9709
ENERGY: 1500000 1.3467 1.4110 0.0000 0.0000 -10779.5847 1453.3347 0.0000 0.0000 1816.9150 -7506.5773 305.2289 -9323.4922 -7620.2815 299.8229 41.4060 76.4074 31223.1894 20.0682 73.9968
TCL: Running FEP window   6: Lambda1 0.7499999999999998 Lambda2 0.6999999999999997 [dLambda -0.050000000000000044]
TCL: Setting parameter firsttimestep to 0
TCL: Setting parameter alchLambda to 0.7499999999999998
Info: NONBONDED TABLE R-SQUARED SPACING: 0.0625
Info: NONBONDED TABLE SIZE: 705 POINTS
TCL: Setting parameter alchLambda2 to 0.6999999999999997
Info: NONBONDED TABLE R-SQUARED SPACING: 0.0625
Info: NONBONDED TABLE SIZE: 705 POINTS
TCL: Running for 1500000 steps
ETITLE: TS BOND ANGLE DIHED IMPRP ELECT VDW BOUNDARY MISC KINETIC TOTAL TEMP POTENTIAL TOTALAVG TEMPAVG PRESSURE GPRESSURE VOLUME PRESSAVG GPRESSAVG
ENERGY: 0 1.3467 1.4110 0.0000 0.0000 -10779.5877 1453.3039 0.0000 0.0000 1816.0102 -7507.5160 305.0769 -9323.5262 -7507.5160 305.0769 -11.0757 72.6530 31223.1894 -11.0757 72.6530
ENERGY: 300000 1.4346 1.7559 0.0000 0.0000 -10812.2083 1420.7142 0.0000 0.0000 1760.3233 -7627.9802 295.7219 -9388.3036 -7601.4941 301.7686 -290.8021 -260.7748 30918.9449 -75.7482 -53.9182
ENERGY: 600000 0.2849 3.8761 0.0000 0.0000 -11033.9078 1568.0902 0.0000 0.0000 1780.6246 -7681.0321 299.1324 -9461.6567 -7639.9256 298.3157 897.0940 1014.9791 30192.4193 3.8222 53.8954
ENERGY: 900000 1.4496 2.0577 0.0000 0.0000 -11089.5775 1626.5549 0.0000 0.0000 1804.4582 -7655.0571 303.1363 -9459.5153 -7655.7258 298.7397 1127.8821 1187.7697 30794.8776 55.3568 110.5242
ENERGY: 1200000 0.4532 4.2585 0.0000 0.0000 -10877.0927 1504.6695 0.0000 0.0000 1749.1240 -7618.5876 293.8405 -9367.7116 -7652.9048 298.5510 447.7751 495.0862 30735.7400 54.5048 106.5678
ENERGY: 1500000 1.2978 4.2296 0.0000 0.0000 -10782.1187 1416.5411 0.0000 0.0000 1812.1105 -7547.9398 304.4218 -9360.0502 -7643.8377 298.6854 -468.5869 -442.0194 31571.3358 6.8785 54.7629
TCL: Running FEP window   7: Lambda1 0.6999999999999997 Lambda2 0.6499999999999997 [dLambda -0.050000000000000044]
TCL: Setting parameter firsttimestep to 0
TCL: Setting parameter alchLambda to 0.6999999999999997
Info: NONBONDED TABLE R-SQUARED SPACING: 0.0625
Info: NONBONDED TABLE SIZE: 705 POINTS
TCL: Setting parameter alchLambda2 to 0.6499999999999997
Info: NONBONDED TABLE R-SQUARED SPACING: 0.0625
Info: NONBONDED TABLE SIZE: 705 POINTS
TCL: Running for 1500000 steps
ETITLE: TS BOND ANGLE DIHED IMPRP ELECT VDW BOUNDARY MISC KINETIC TOTAL TEMP POTENTIAL TOTALAVG TEMPAVG PRESSURE GPRESSURE VOLUME PRESSAVG GPRESSAVG
ENERGY: 0 1.2978 4.2296 0.0000 0.0000 -10781.9254 1416.1573 0.0000 0.0000 1811.1969 -7549.0439 304.2683 -9360.2408 -7549.0439 304.2683 -526.6442 -447.6706 31571.3358 -526.6442 -447.6706
ENERGY: 300000 3.3037 3.0446 0.0000 0.0000 -10734.1946 1343.6833 0.0000 0.0000 1729.9553 -7654.2078 290.6203 -9384.1631 -7622.4049 300.6475 -1176.6307 -1124.2451 31375.3048 -400.5540 -323.6540
ENERGY: 600000 2.0971 1.5043 0.0000 0.0000 -10870.9961 1457.0182 0.0000 0.0000 1801.8769 -7608.4995 302.7026 -9410.3764 -7607.9179 303.1164 15.2343 145.0338 30555.3619 -321.8166 -246.1653
ENERGY: 900000 1.9135 2.4975 0.0000 0.0000 -10898.6204 1498.6446 0.0000 0.0000 1778.7410 -7616.8239 298.8160 -9395.5649 -7614.2638 302.0068 219.5657 274.3298 30802.9151 -120.0609 -45.9317
ENERGY: 1200000 1.1083 2.2133 0.0000 0.0000 -10801.5489 1439.2051 0.0000 0.0000 1817.9052 -7541.1169 305.3953 -9359.0221 -7609.7899 302.1789 -49.0424 -19.1968 31018.9496 -226.1950 -160.7180
ENERGY: 1500000 1.0282 1.9309 0.0000 0.0000 -10888.2617 1440.5646 0.0000 0.0000 1713.7786 -7730.9593 287.9027 -9444.7380 -7611.1475 301.4567 -378.4353 -271.5987 30695.7796 -134.6669 -71.4625
TCL: Running FEP window   8: Lambda1 0.6499999999999997 Lambda2 0.5999999999999996 [dLambda -0.050000000000000044]
TCL: Setting parameter firsttimestep to 0
TCL: Setting parameter alchLambda to 0.6499999999999997
Info: NONBONDED TABLE R-SQUARED SPACING: 0.0625
Info: NONBONDED TABLE SIZE: 705 POINTS
TCL: Setting parameter alchLambda2 to 0.5999999999999996
Info: NONBONDED TABLE R-SQUARED SPACING: 0.0625
Info: NONBONDED TABLE SIZE: 705 POINTS
TCL: Running for 1500000 steps
ETITLE: TS BOND ANGLE DIHED IMPRP ELECT VDW BOUNDARY MISC KINETIC TOTAL TEMP POTENTIAL TOTALAVG TEMPAVG PRESSURE GPRESSURE VOLUME PRESSAVG GPRESSAVG
ENERGY: 0 1.0282 1.9309 0.0000 0.0000 -10888.1539 1440.7719 0.0000 0.0000 1712.9051 -7731.5178 287.7560 -9444.4229 -7731.5178 287.7560 -342.9078 -272.5090 30695.7796 -342.9078 -272.5090
ENERGY: 300000 1.2024 1.9169 0.0000 0.0000 -10842.0832 1394.7434 0.0000 0.0000 1764.6157 -7679.6048 296.4430 -9444.2204 -7677.0982 296.3803 -621.5899 -592.2711 30804.2144 -239.0261 -177.5092
ENERGY: 600000 0.7387 5.0012 0.0000 0.0000 -10890.5237 1455.3953 0.0000 0.0000 1813.5494 -7615.8391 304.6635 -9429.3885 -7641.3952 297.5817 -267.7150 -255.1343 31271.3337 -289.2545 -233.2228
ENERGY: 900000 0.8728 2.3491 0.0000 0.0000 -10776.5278 1393.4366 0.0000 0.0000 1762.7543 -7617.1150 296.1303 -9379.8694 -7628.7075 297.4743 -463.1425 -414.1937 30886.5931 -376.0134 -329.4645
ENERGY: 1200000 0.5934 3.9244 0.0000 0.0000 -10951.0938 1448.2476 0.0000 0.0000 1794.9482 -7703.3802 301.5386 -9498.3284 -7639.0557 297.3106 -397.3823 -333.0647 30817.2656 -350.9745 -301.0703
ENERGY: 1500000 1.1023 3.2319 0.0000 0.0000 -10792.5372 1393.1177 0.0000 0.0000 1738.8282 -7656.2571 292.1109 -9395.0853 -7634.2595 297.8952 -634.2193 -488.0486 30697.2822 -344.4478 -286.9185
TCL: Running FEP window   9: Lambda1 0.5999999999999996 Lambda2 0.5499999999999996 [dLambda -0.050000000000000044]
TCL: Setting parameter firsttimestep to 0
TCL: Setting parameter alchLambda to 0.5999999999999996
Info: NONBONDED TABLE R-SQUARED SPACING: 0.0625
Info: NONBONDED TABLE SIZE: 705 POINTS
TCL: Setting parameter alchLambda2 to 0.5499999999999996
Info: NONBONDED TABLE R-SQUARED SPACING: 0.0625
Info: NONBONDED TABLE SIZE: 705 POINTS
TCL: Running for 1500000 steps
ETITLE: TS BOND ANGLE DIHED IMPRP ELECT VDW BOUNDARY MISC KINETIC TOTAL TEMP POTENTIAL TOTALAVG TEMPAVG PRESSURE GPRESSURE VOLUME PRESSAVG GPRESSAVG
ENERGY: 0 1.1023 3.2319 0.0000 0.0000 -10792.6014 1393.3464 0.0000 0.0000 1737.9285 -7656.9923 291.9597 -9394.9208 -7656.9923 291.9597 -589.8004 -486.9230 30697.2822 -589.8004 -486.9230
ENERGY: 300000 2.4025 1.6856 0.0000 0.0000 -10680.3601 1310.6657 0.0000 0.0000 1764.5466 -7601.0596 296.4314 -9365.6063 -7616.9112 299.2542 -1040.7975 -949.5522 30757.1592 -261.8701 -195.8387
ENERGY: 600000 0.7118 1.6555 0.0000 0.0000 -10895.9186 1484.0243 0.0000 0.0000 1778.8874 -7630.6396 298.8405 -9409.5270 -7610.7755 301.3002 404.2058 463.4603 30297.8002 -158.2093 -91.9772
ENERGY: 900000 1.2105 1.6019 0.0000 0.0000 -10909.1652 1521.1096 0.0000 0.0000 1750.4313 -7634.8119 294.0601 -9385.2432 -7611.7192 301.4445 535.2293 695.2464 30457.4817 -86.1977 -18.0417
ENERGY: 1200000 0.5024 3.3540 0.0000 0.0000 -10837.9787 1471.5878 0.0000 0.0000 1843.3744 -7519.1601 309.6739 -9362.5345 -7614.7851 301.1178 169.2932 297.2658 30862.2911 -54.2035 22.3869
ENERGY: 1500000 1.2811 2.2652 0.0000 0.0000 -10855.7599 1417.9141 0.0000 0.0000 1757.1149 -7677.1845 295.1829 -9434.2995 -7625.4638 299.8276 -494.3308 -412.1849 30982.5683 -109.7832 -32.4548
TCL: Running FEP window  10: Lambda1 0.5499999999999996 Lambda2 0.4999999999999996 [dLambda -0.04999999999999999]
TCL: Setting parameter firsttimestep to 0
TCL: Setting parameter alchLambda to 0.5499999999999996
Info: NONBONDED TABLE R-SQUARED SPACING: 0.0625
Info: NONBONDED TABLE SIZE: 705 POINTS
TCL: Setting parameter alchLambda2 to 0.4999999999999996
Info: NONBONDED TABLE R-SQUARED SPACING: 0.0625
Info: NONBONDED TABLE SIZE: 705 POINTS
TCL: Running for 1500000 steps
ETITLE: TS BOND ANGLE DIHED IMPRP ELECT VDW BOUNDARY MISC KINETIC TOTAL TEMP POTENTIAL TOTALAVG TEMPAVG PRESSURE GPRESSURE VOLUME PRESSAVG GPRESSAVG
ENERGY: 0 1.2811 2.2652 0.0000 0.0000 -10855.7953 1417.6934 0.0000 0.0000 1756.2519 -7678.3038 295.0379 -9434.5556 -7678.3038 295.0379 -497.4442 -419.0020 30982.5683 -497.4442 -419.0020
ENERGY: 300000 0.1789 3.1558 0.0000 0.0000 -10810.8424 1385.9831 0.0000 0.0000 1803.9418 -7617.5829 303.0495 -9421.5247 -7633.3844 301.2091 -602.1091 -537.2271 30826.7537 -316.5456 -230.4850
ENERGY: 600000 1.0478 6.6564 0.0000 0.0000 -10902.2166 1499.5080 0.0000 0.0000 1754.5995 -7640.4049 294.7603 -9395.0044 -7629.0912 300.5962 -68.3679 1.4194 31685.0215 -197.9157 -131.8777
ENERGY: 900000 3.2693 1.4263 0.0000 0.0000 -10809.2739 1421.0681 0.0000 0.0000 1804.7841 -7578.7261 303.1910 -9383.5102 -7624.3678 299.3086 -436.8545 -390.1223 31171.4043 -126.8819 -60.3898
ENERGY: 1200000 0.7987 1.6804 0.0000 0.0000 -10883.6314 1532.4656 0.0000 0.0000 1800.2647 -7548.4220 302.4318 -9348.6867 -7618.8017 299.9241 675.3206 705.5446 30616.8307 -36.6707 29.6139
ENERGY: 1500000 1.1208 2.0914 0.0000 0.0000 -10808.9148 1400.4391 0.0000 0.0000 1778.9806 -7626.2829 298.8562 -9405.2635 -7616.2203 299.5507 -390.4535 -369.8706 30691.3405 -75.7203 -15.1030
TCL: Running FEP window  11: Lambda1 0.4999999999999996 Lambda2 0.4499999999999996 [dLambda -0.04999999999999999]
TCL: Setting parameter firsttimestep to 0
TCL: Setting parameter alchLambda to 0.4999999999999996
Info: NONBONDED TABLE R-SQUARED SPACING: 0.0625
Info: NONBONDED TABLE SIZE: 705 POINTS
TCL: Setting parameter alchLambda2 to 0.4499999999999996
Info: NONBONDED TABLE R-SQUARED SPACING: 0.0625
Info: NONBONDED TABLE SIZE: 705 POINTS
TCL: Running for 1500000 steps
ETITLE: TS BOND ANGLE DIHED IMPRP ELECT VDW BOUNDARY MISC KINETIC TOTAL TEMP POTENTIAL TOTALAVG TEMPAVG PRESSURE GPRESSURE VOLUME PRESSAVG GPRESSAVG
ENERGY: 0 1.1208 2.0914 0.0000 0.0000 -10808.8796 1400.6684 0.0000 0.0000 1778.0937 -7626.9053 298.7072 -9404.9990 -7626.9053 298.7072 -479.7320 -372.3285 30691.3405 -479.7320 -372.3285
ENERGY: 300000 0.7649 2.1168 0.0000 0.0000 -10888.5442 1455.4243 0.0000 0.0000 1858.5884 -7571.6499 312.2297 -9430.2382 -7587.5976 303.7880 109.9269 207.1061 30642.7707 -34.8544 30.8410
ENERGY: 600000 1.1104 2.8702 0.0000 0.0000 -10940.1931 1539.3051 0.0000 0.0000 1845.0412 -7551.8661 309.9539 -9396.9073 -7569.1432 302.6484 950.1052 952.2789 30512.0757 151.2928 206.3235
ENERGY: 900000 1.4858 1.8356 0.0000 0.0000 -10886.2383 1489.6522 0.0000 0.0000 1756.7525 -7636.5121 295.1220 -9393.2646 -7588.0852 302.8484 139.6862 198.4430 30983.6261 143.5410 194.7279
ENERGY: 1200000 0.9625 2.9423 0.0000 0.0000 -10811.9433 1445.4792 0.0000 0.0000 1730.8880 -7631.6713 290.7770 -9362.5593 -7593.7298 301.3537 41.1037 38.2980 30915.1329 113.1181 158.9179
ENERGY: 1500000 0.7734 1.0749 0.0000 0.0000 -10858.9548 1449.3465 0.0000 0.0000 1754.6272 -7653.1328 294.7650 -9407.7600 -7597.2495 300.9000 74.4999 131.3885 30359.3326 70.8475 117.4229
TCL: Running FEP window  12: Lambda1 0.4499999999999996 Lambda2 0.39999999999999963 [dLambda -0.04999999999999999]
TCL: Setting parameter firsttimestep to 0
TCL: Setting parameter alchLambda to 0.4499999999999996
Info: NONBONDED TABLE R-SQUARED SPACING: 0.0625
Info: NONBONDED TABLE SIZE: 705 POINTS
TCL: Setting parameter alchLambda2 to 0.39999999999999963
Info: NONBONDED TABLE R-SQUARED SPACING: 0.0625
Info: NONBONDED TABLE SIZE: 705 POINTS
TCL: Running for 1500000 steps
ETITLE: TS BOND ANGLE DIHED IMPRP ELECT VDW BOUNDARY MISC KINETIC TOTAL TEMP POTENTIAL TOTALAVG TEMPAVG PRESSURE GPRESSURE VOLUME PRESSAVG GPRESSAVG
ENERGY: 0 0.7734 1.0749 0.0000 0.0000 -10858.9534 1449.4868 0.0000 0.0000 1753.7226 -7653.8956 294.6130 -9407.6182 -7653.8956 294.6130 45.1816 128.3588 30359.3326 45.1816 128.3588
ENERGY: 300000 2.0924 2.1169 0.0000 0.0000 -10810.4569 1412.5875 0.0000 0.0000 1752.1133 -7641.5469 294.3427 -9393.6601 -7663.8713 295.5256 -577.3779 -560.7527 31229.2441 -245.6524 -182.6489
ENERGY: 600000 1.2203 2.1903 0.0000 0.0000 -10814.4004 1431.3987 0.0000 0.0000 1768.6123 -7610.9789 297.1144 -9379.5911 -7643.2577 298.3170 -325.5731 -295.6684 31047.8377 -356.8748 -296.3091
ENERGY: 900000 2.1028 2.7273 0.0000 0.0000 -10680.9275 1388.8563 0.0000 0.0000 1725.2363 -7562.0048 289.8275 -9287.2411 -7642.0437 296.1784 -463.4754 -426.5689 31127.0582 -348.3575 -290.9704
ENERGY: 1200000 1.1413 3.3849 0.0000 0.0000 -10974.1838 1467.6206 0.0000 0.0000 1777.8875 -7724.1495 298.6726 -9502.0370 -7651.1841 296.4889 -392.8231 -409.7392 31165.7848 -272.1773 -217.6797
ENERGY: 1500000 0.8500 2.9710 0.0000 0.0000 -10946.1721 1546.4029 0.0000 0.0000 1752.0257 -7643.9226 294.3280 -9395.9483 -7643.8652 297.2146 645.2989 693.1230 30628.7998 -167.8336 -115.0552
TCL: Running FEP window  13: Lambda1 0.39999999999999963 Lambda2 0.34999999999999964 [dLambda -0.04999999999999999]
TCL: Setting parameter firsttimestep to 0
TCL: Setting parameter alchLambda to 0.39999999999999963
Info: NONBONDED TABLE R-SQUARED SPACING: 0.0625
Info: NONBONDED TABLE SIZE: 705 POINTS
TCL: Setting parameter alchLambda2 to 0.34999999999999964
Info: NONBONDED TABLE R-SQUARED SPACING: 0.0625
Info: NONBONDED TABLE SIZE: 705 POINTS
TCL: Running for 1500000 steps
ETITLE: TS BOND ANGLE DIHED IMPRP ELECT VDW BOUNDARY MISC KINETIC TOTAL TEMP POTENTIAL TOTALAVG TEMPAVG PRESSURE GPRESSURE VOLUME PRESSAVG GPRESSAVG
ENERGY: 0 0.8500 2.9710 0.0000 0.0000 -10946.1729 1546.2771 0.0000 0.0000 1751.1422 -7644.9326 294.1796 -9396.0748 -7644.9326 294.1796 614.4085 690.8528 30628.7998 614.4085 690.8528
ENERGY: 300000 1.1109 1.0402 0.0000 0.0000 -10922.4176 1502.5820 0.0000 0.0000 1831.8439 -7585.8406 307.7369 -9417.6846 -7632.1436 301.3247 459.8602 542.9749 30365.3748 175.9829 228.9010
ENERGY: 600000 3.0304 1.5148 0.0000 0.0000 -10914.9872 1458.4566 0.0000 0.0000 1845.8227 -7606.1627 310.0852 -9451.9854 -7630.4568 302.6559 -30.6877 45.9403 30554.8535 68.2063 116.9525
ENERGY: 900000 0.6087 2.3896 0.0000 0.0000 -10816.8831 1409.5334 0.0000 0.0000 1727.5010 -7676.8505 290.2080 -9404.3515 -7627.0246 302.0149 -89.2867 -31.7863 29985.7311 47.9685 92.8908
ENERGY: 1200000 0.2352 1.6157 0.0000 0.0000 -10889.0213 1510.6646 0.0000 0.0000 1737.9528 -7638.5529 291.9638 -9376.5057 -7638.6560 300.5869 536.3290 583.8751 30592.8234 67.6406 109.7532
ENERGY: 1500000 2.1155 2.1072 0.0000 0.0000 -10966.7820 1468.0182 0.0000 0.0000 1749.7982 -7744.7429 293.9538 -9494.5411 -7653.3160 299.5431 39.7398 91.2673 30429.6839 122.8072 165.0993
TCL: Running FEP window  14: Lambda1 0.34999999999999964 Lambda2 0.29999999999999966 [dLambda -0.04999999999999999]
TCL: Setting parameter firsttimestep to 0
TCL: Setting parameter alchLambda to 0.34999999999999964
Info: NONBONDED TABLE R-SQUARED SPACING: 0.0625
Info: NONBONDED TABLE SIZE: 705 POINTS
TCL: Setting parameter alchLambda2 to 0.29999999999999966
Info: NONBONDED TABLE R-SQUARED SPACING: 0.0625
Info: NONBONDED TABLE SIZE: 705 POINTS
TCL: Running for 1500000 steps
ETITLE: TS BOND ANGLE DIHED IMPRP ELECT VDW BOUNDARY MISC KINETIC TOTAL TEMP POTENTIAL TOTALAVG TEMPAVG PRESSURE GPRESSURE VOLUME PRESSAVG GPRESSAVG
ENERGY: 0 2.1155 2.1072 0.0000 0.0000 -10966.7815 1467.9712 0.0000 0.0000 1748.9290 -7745.6586 293.8077 -9494.5876 -7745.6586 293.8077 4.0018 87.4449 30429.6839 4.0018 87.4449
ENERGY: 300000 1.1631 5.8181 0.0000 0.0000 -10993.1006 1540.6057 0.0000 0.0000 1669.7339 -7775.7798 280.5035 -9445.5137 -7664.9702 294.6099 584.0021 661.8056 30508.6631 -106.0419 -40.2491
ENERGY: 600000 0.8972 2.1362 0.0000 0.0000 -10962.3290 1551.4803 0.0000 0.0000 1734.0625 -7673.7528 291.3103 -9407.8153 -7659.8211 295.1976 721.0777 744.6771 30565.0665 -1.1666 47.8592
ENERGY: 900000 1.1857 2.5189 0.0000 0.0000 -10787.3161 1393.1030 0.0000 0.0000 1817.1037 -7573.4048 305.2606 -9390.5085 -7645.9392 296.9116 -403.2101 -369.9696 30712.7610 -131.5549 -87.0711
ENERGY: 1200000 0.3114 1.8810 0.0000 0.0000 -10967.2025 1524.1704 0.0000 0.0000 1870.3679 -7570.4719 314.2086 -9440.8397 -7636.8102 298.4607 559.2170 609.4212 30494.0938 -20.1189 22.4779
ENERGY: 1500000 1.1922 1.7250 0.0000 0.0000 -10926.3806 1496.8334 0.0000 0.0000 1802.3951 -7624.2350 302.7897 -9426.6301 -7639.0778 298.7262 331.8987 376.5056 30501.0697 -55.8410 -9.5845
TCL: Running FEP window  15: Lambda1 0.29999999999999966 Lambda2 0.24999999999999967 [dLambda -0.04999999999999999]
TCL: Setting parameter firsttimestep to 0
TCL: Setting parameter alchLambda to 0.29999999999999966
Info: NONBONDED TABLE R-SQUARED SPACING: 0.0625
Info: NONBONDED TABLE SIZE: 705 POINTS
TCL: Setting parameter alchLambda2 to 0.24999999999999967
Info: NONBONDED TABLE R-SQUARED SPACING: 0.0625
Info: NONBONDED TABLE SIZE: 705 POINTS
TCL: Running for 1500000 steps
ETITLE: TS BOND ANGLE DIHED IMPRP ELECT VDW BOUNDARY MISC KINETIC TOTAL TEMP POTENTIAL TOTALAVG TEMPAVG PRESSURE GPRESSURE VOLUME PRESSAVG GPRESSAVG
ENERGY: 0 1.1922 1.7250 0.0000 0.0000 -10926.3807 1496.8658 0.0000 0.0000 1801.5080 -7625.0897 302.6407 -9426.5977 -7625.0897 302.6407 287.0157 374.1321 30501.0697 287.0157 374.1321
ENERGY: 300000 0.7988 3.7213 0.0000 0.0000 -10926.5899 1526.8949 0.0000 0.0000 1776.9526 -7618.2224 298.5155 -9395.1750 -7602.6469 302.1750 675.4561 725.3081 30485.6902 167.0156 201.7862
ENERGY: 600000 0.1585 1.5533 0.0000 0.0000 -10912.7644 1541.4547 0.0000 0.0000 1787.2386 -7582.3593 300.2435 -9369.5979 -7591.3882 302.9646 684.5721 802.3992 30593.6427 126.7083 193.1188
ENERGY: 900000 0.7758 1.4682 0.0000 0.0000 -10796.4270 1363.3114 0.0000 0.0000 1804.1402 -7626.7314 303.0828 -9430.8716 -7610.3129 302.0529 -826.1684 -781.8186 30819.3904 -3.9359 63.4667
ENERGY: 1200000 2.0842 1.2912 0.0000 0.0000 -10936.2753 1522.7880 0.0000 0.0000 1762.7980 -7647.3139 296.1376 -9410.1119 -7633.3445 300.2435 512.3582 570.7554 30611.7809 86.0782 157.0971
ENERGY: 1500000 0.1326 2.3658 0.0000 0.0000 -10760.7914 1392.9871 0.0000 0.0000 1771.8752 -7593.4307 297.6626 -9365.3059 -7629.8906 300.0413 -505.7224 -453.7411 30934.5743 23.0112 89.3147
TCL: Running FEP window  16: Lambda1 0.24999999999999967 Lambda2 0.19999999999999968 [dLambda -0.04999999999999999]
TCL: Setting parameter firsttimestep to 0
TCL: Setting parameter alchLambda to 0.24999999999999967
Info: NONBONDED TABLE R-SQUARED SPACING: 0.0625
Info: NONBONDED TABLE SIZE: 705 POINTS
TCL: Setting parameter alchLambda2 to 0.19999999999999968
Info: NONBONDED TABLE R-SQUARED SPACING: 0.0625
Info: NONBONDED TABLE SIZE: 705 POINTS
TCL: Running for 1500000 steps
ETITLE: TS BOND ANGLE DIHED IMPRP ELECT VDW BOUNDARY MISC KINETIC TOTAL TEMP POTENTIAL TOTALAVG TEMPAVG PRESSURE GPRESSURE VOLUME PRESSAVG GPRESSAVG
ENERGY: 0 0.1326 2.3658 0.0000 0.0000 -10760.7920 1392.8234 0.0000 0.0000 1770.9317 -7594.5385 297.5040 -9365.4701 -7594.5385 297.5040 -533.2378 -454.7910 30934.5743 -533.2378 -454.7910
ENERGY: 300000 0.4030 2.0372 0.0000 0.0000 -10850.0422 1483.1791 0.0000 0.0000 1749.5394 -7614.8836 293.9103 -9364.4229 -7630.3131 293.8406 223.8324 341.4937 31054.9473 -105.9920 -17.7803
ENERGY: 600000 1.8673 1.6367 0.0000 0.0000 -11010.2520 1546.3471 0.0000 0.0000 1836.1076 -7624.2932 308.4531 -9460.4009 -7610.7313 298.1232 444.6307 546.7125 30673.1580 -9.3383 85.2824
ENERGY: 900000 2.8377 2.3566 0.0000 0.0000 -10921.2388 1510.7228 0.0000 0.0000 1810.2863 -7595.0354 304.1153 -9405.3218 -7624.8866 298.1340 148.5422 225.5376 30973.1925 -17.5289 63.1078
ENERGY: 1200000 1.6094 2.9879 0.0000 0.0000 -10916.0216 1475.5815 0.0000 0.0000 1795.3653 -7640.4776 301.6087 -9435.8428 -7622.2732 299.4271 9.1960 47.6387 30771.3074 -53.2269 19.8269
ENERGY: 1500000 2.7250 6.6678 0.0000 0.0000 -10858.8590 1437.2297 0.0000 0.0000 1782.2516 -7629.9850 299.4057 -9412.2365 -7626.1151 299.6986 -311.7428 -309.2532 30724.7868 -112.8000 -42.8315
TCL: Running FEP window  17: Lambda1 0.19999999999999968 Lambda2 0.1499999999999997 [dLambda -0.04999999999999999]
TCL: Setting parameter firsttimestep to 0
TCL: Setting parameter alchLambda to 0.19999999999999968
Info: NONBONDED TABLE R-SQUARED SPACING: 0.0625
Info: NONBONDED TABLE SIZE: 705 POINTS
TCL: Setting parameter alchLambda2 to 0.1499999999999997
Info: NONBONDED TABLE R-SQUARED SPACING: 0.0625
Info: NONBONDED TABLE SIZE: 705 POINTS
TCL: Running for 1500000 steps
ETITLE: TS BOND ANGLE DIHED IMPRP ELECT VDW BOUNDARY MISC KINETIC TOTAL TEMP POTENTIAL TOTALAVG TEMPAVG PRESSURE GPRESSURE VOLUME PRESSAVG GPRESSAVG
ENERGY: 0 2.7250 6.6678 0.0000 0.0000 -10858.8592 1437.0352 0.0000 0.0000 1781.3325 -7631.0988 299.2513 -9412.4313 -7631.0988 299.2513 -389.7994 -312.9832 30724.7868 -389.7994 -312.9832
ENERGY: 300000 4.2635 1.8470 0.0000 0.0000 -10874.8889 1429.7395 0.0000 0.0000 1810.5789 -7628.4601 304.1645 -9439.0389 -7652.7804 295.9725 -656.0654 -577.8631 31183.8477 -728.2543 -662.4624
ENERGY: 600000 0.4979 4.0305 0.0000 0.0000 -10895.3631 1485.0166 0.0000 0.0000 1816.2039 -7589.6143 305.1094 -9405.8181 -7636.8430 297.3491 372.9111 364.1344 30540.4197 -369.5984 -335.9056
ENERGY: 900000 3.2353 2.2916 0.0000 0.0000 -10861.0468 1443.7844 0.0000 0.0000 1770.4951 -7641.2404 297.4307 -9411.7355 -7631.9199 298.2759 128.9417 193.0327 30337.4363 -237.1726 -187.4351
ENERGY: 1200000 0.9177 2.4722 0.0000 0.0000 -10940.8805 1545.8935 0.0000 0.0000 1759.4213 -7632.1758 295.5704 -9391.5970 -7627.9980 297.4409 810.6945 800.5639 30573.0509 -227.5377 -182.4101
ENERGY: 1500000 2.6117 5.5308 0.0000 0.0000 -10790.1598 1367.4987 0.0000 0.0000 1809.9273 -7604.5914 304.0550 -9414.5187 -7617.6272 298.8493 -824.0966 -764.0548 30844.6822 -352.6227 -306.8286
TCL: Running FEP window  18: Lambda1 0.1499999999999997 Lambda2 0.09999999999999969 [dLambda -0.05 ]
TCL: Setting parameter firsttimestep to 0
TCL: Setting parameter alchLambda to 0.1499999999999997
Info: NONBONDED TABLE R-SQUARED SPACING: 0.0625
Info: NONBONDED TABLE SIZE: 705 POINTS
TCL: Setting parameter alchLambda2 to 0.09999999999999969
Info: NONBONDED TABLE R-SQUARED SPACING: 0.0625
Info: NONBONDED TABLE SIZE: 705 POINTS
TCL: Running for 1500000 steps
ETITLE: TS BOND ANGLE DIHED IMPRP ELECT VDW BOUNDARY MISC KINETIC TOTAL TEMP POTENTIAL TOTALAVG TEMPAVG PRESSURE GPRESSURE VOLUME PRESSAVG GPRESSAVG
ENERGY: 0 2.6117 5.5308 0.0000 0.0000 -10790.1587 1367.2479 0.0000 0.0000 1809.0643 -7605.7040 303.9101 -9414.7683 -7605.7040 303.9101 -849.5340 -771.1341 30844.6822 -849.5340 -771.1341
ENERGY: 300000 0.3472 3.6249 0.0000 0.0000 -10824.3036 1445.4408 0.0000 0.0000 1775.5719 -7599.3187 298.2836 -9374.8906 -7616.0211 301.5862 -112.0281 -55.2400 30975.2587 -378.8868 -329.0563
ENERGY: 600000 0.4249 1.7776 0.0000 0.0000 -10922.0683 1472.1439 0.0000 0.0000 1756.1382 -7691.5837 295.0188 -9447.7218 -7628.8387 301.0993 -23.4015 28.9180 30666.8188 -126.6424 -83.7571
ENERGY: 900000 2.6845 2.5741 0.0000 0.0000 -10961.7639 1553.1708 0.0000 0.0000 1796.7005 -7606.6340 301.8330 -9403.3346 -7630.8343 300.1643 546.2184 602.4659 30683.3606 -20.9363 27.3228
ENERGY: 1200000 1.5579 2.0129 0.0000 0.0000 -11007.3013 1536.2985 0.0000 0.0000 1791.4909 -7675.9411 300.9579 -9467.4321 -7641.2052 301.2101 513.5497 609.5063 30709.6191 79.5551 132.4254
ENERGY: 1500000 1.5435 1.6897 0.0000 0.0000 -10989.5009 1484.1217 0.0000 0.0000 1823.5518 -7678.5942 306.3439 -9502.1460 -7645.6627 301.1012 -195.9448 -136.9566 31218.8405 41.4493 95.3324
TCL: Running FEP window  19: Lambda1 0.09999999999999969 Lambda2 0.049999999999999684 [dLambda -0.05 ]
TCL: Setting parameter firsttimestep to 0
TCL: Setting parameter alchLambda to 0.09999999999999969
Info: NONBONDED TABLE R-SQUARED SPACING: 0.0625
Info: NONBONDED TABLE SIZE: 705 POINTS
TCL: Setting parameter alchLambda2 to 0.049999999999999684
Info: NONBONDED TABLE R-SQUARED SPACING: 0.0625
Info: NONBONDED TABLE SIZE: 705 POINTS
TCL: Running for 1500000 steps
ETITLE: TS BOND ANGLE DIHED IMPRP ELECT VDW BOUNDARY MISC KINETIC TOTAL TEMP POTENTIAL TOTALAVG TEMPAVG PRESSURE GPRESSURE VOLUME PRESSAVG GPRESSAVG
ENERGY: 0 1.5435 1.6897 0.0000 0.0000 -10989.5000 1484.0239 0.0000 0.0000 1822.6376 -7679.6053 306.1903 -9502.2429 -7679.6053 306.1903 -232.2372 -138.0925 31218.8405 -232.2372 -138.0925
ENERGY: 300000 1.3634 1.4231 0.0000 0.0000 -10881.7506 1517.5139 0.0000 0.0000 1772.3189 -7589.1313 297.7371 -9361.4502 -7672.5697 298.7360 305.4480 414.8607 30833.7906 -122.1421 -62.8752
ENERGY: 600000 0.1638 1.8134 0.0000 0.0000 -10914.0739 1500.6176 0.0000 0.0000 1757.9648 -7653.5143 295.3257 -9411.4791 -7661.3399 297.5275 28.3546 167.5022 30982.2190 -177.7129 -100.4552
ENERGY: 900000 0.5894 2.5463 0.0000 0.0000 -10791.3800 1402.0567 0.0000 0.0000 1807.3547 -7578.8328 303.6229 -9386.1876 -7638.6249 300.4550 -778.7929 -723.0393 31354.6254 -209.6133 -148.9227
ENERGY: 1200000 0.0693 2.1006 0.0000 0.0000 -10930.5925 1515.3039 0.0000 0.0000 1809.3058 -7603.8128 303.9506 -9413.1186 -7628.4281 300.5311 230.7654 268.4546 31068.3488 -143.4487 -86.3584
ENERGY: 1500000 1.9293 2.4283 0.0000 0.0000 -10860.6209 1428.3416 0.0000 0.0000 1741.4400 -7686.4817 292.5497 -9427.9218 -7635.6360 299.4667 -268.4098 -199.7581 30531.1358 -154.1166 -91.6497
TCL: Running FEP window  20: Lambda1 0.049999999999999684 Lambda2 0.0    [dLambda -0.049999999999999684]
TCL: Setting parameter firsttimestep to 0
TCL: Setting parameter alchLambda to 0.049999999999999684
Info: NONBONDED TABLE R-SQUARED SPACING: 0.0625
Info: NONBONDED TABLE SIZE: 705 POINTS
TCL: Setting parameter alchLambda2 to 0.0
Info: NONBONDED TABLE R-SQUARED SPACING: 0.0625
Info: NONBONDED TABLE SIZE: 705 POINTS
TCL: Running for 1500000 steps
ETITLE: TS BOND ANGLE DIHED IMPRP ELECT VDW BOUNDARY MISC KINETIC TOTAL TEMP POTENTIAL TOTALAVG TEMPAVG PRESSURE GPRESSURE VOLUME PRESSAVG GPRESSAVG
ENERGY: 0 1.9293 2.4283 0.0000 0.0000 -10860.6216 1427.3677 0.0000 0.0000 1740.5405 -7688.3558 292.3985 -9428.8963 -7688.3558 292.3985 -295.7905 -203.6976 30531.1358 -295.7905 -203.6976
ENERGY: 300000 1.0957 1.5088 0.0000 0.0000 -10982.1945 1541.2928 0.0000 0.0000 1802.9606 -7635.3366 302.8847 -9438.2972 -7653.4622 297.1738 755.0077 792.7371 30130.8840 155.5208 242.0487
ENERGY: 600000 0.4677 1.5447 0.0000 0.0000 -10882.8628 1428.7702 0.0000 0.0000 1738.7311 -7713.3491 292.0946 -9452.0802 -7646.7941 298.0748 -500.1945 -387.1557 30709.0897 -2.1463 82.8228
ENERGY: 900000 0.7921 1.9485 0.0000 0.0000 -10976.0324 1542.1131 0.0000 0.0000 1811.0697 -7620.1090 304.2469 -9431.1787 -7644.2211 300.3958 645.8012 678.1807 30715.2379 193.9235 265.5654
ENERGY: 1200000 0.6037 2.7871 0.0000 0.0000 -10916.3567 1513.6204 0.0000 0.0000 1769.4718 -7629.8736 297.2588 -9399.3454 -7646.1185 300.4897 425.8256 523.7295 30600.1296 237.5816 306.5892
ENERGY: 1500000 2.1315 3.2976 0.0000 0.0000 -11077.8854 1573.1149 0.0000 0.0000 1776.9651 -7722.3763 298.5176 -9499.3414 -7652.8036 300.5434 597.0653 680.7066 30415.0943 256.4137 322.2250
TCL: Exiting due to exit command.
