Info: SIMULATION PARAMETERS:
Info: TIMESTEP               1
Info: NUMBER OF STEPS        0
Info: STEPS PER CYCLE        10
Info: PERIODIC CELL BASIS 1  30 0 0
Info: PERIODIC CELL BASIS 2  0 30 0
Info: PERIODIC CELL BASIS 3  0 0 30
Info: PERIODIC CELL CENTER   0 0 0
Info: WRAPPING ALL CLUSTERS AROUND PERIODIC BOUNDARIES ON OUTPUT.
Info: FIRST LDB TIMESTEP     50
Info: LAST LDB TIMESTEP     -1
Info: HOM BACKGROUND SCALING 1
Info: MIN ATOMS PER PATCH    40
Info: EMPTY PATCH LOAD       40 ATOMS
Info: INITIAL TEMPERATURE    298
Info: CENTER OF MASS MOVING INITIALLY? NO
Info: DIELECTRIC             1
Info: EXCLUDE                SCALED ONE-FOUR
Info: 1-4 ELECTROSTATICS SCALED BY 1
Info: MODIFIED 1-4 VDW PARAMETERS WILL BE USED
Info: DCD FILENAME           output.dcd
Info: DCD FREQUENCY          5
Info: DCD FIRST STEP         5
Info: DCD FILE WILL CONTAIN UNIT CELL DATA
Info: NO EXTENDED SYSTEM TRAJECTORY OUTPUT
Info: NO VELOCITY DCD OUTPUT
Info: NO FORCE DCD OUTPUT
Info: OUTPUT FILENAME        output
Info: BINARY OUTPUT FILES WILL BE USED
Info: NO RESTART FILE
Info: SWITCHING ACTIVE
Info: SWITCHING ON           10
Info: SWITCHING OFF          12
Info: PAIRLIST DISTANCE      14
Info: PAIRLIST SHRINK RATE   0.01
Info: PAIRLIST GROW RATE     0.01
Info: PAIRLIST TRIGGER       0.3
Info: PAIRLISTS PER CYCLE    2
Info: PAIRLISTS ENABLED
Info: MARGIN                 0.495
Info: HYDROGEN GROUP CUTOFF  2.5
Info: PATCH DIMENSION        16.995
Info: ENERGY OUTPUT STEPS    5
Info: ENERGY EVALUATION STEPS    5
Info: OUTPUT ENERGY PRECISION 4
Info: CROSSTERM ENERGY INCLUDED IN DIHEDRAL
Info: TIMING OUTPUT STEPS    5
Info: LANGEVIN DYNAMICS ACTIVE
Info: LANGEVIN TEMPERATURE   298
Info: LANGEVIN USING BBK INTEGRATOR
Info: LANGEVIN DAMPING COEFFICIENT IS 1 INVERSE PS
Info: LANGEVIN DYNAMICS NOT APPLIED TO HYDROGENS
Info: LANGEVIN PISTON PRESSURE CONTROL ACTIVE
Info:        TARGET PRESSURE IS 1.01325 BAR
Info:     OSCILLATION PERIOD IS 100 FS
Info:             DECAY TIME IS 50 FS
Info:     PISTON TEMPERATURE IS 298 K
Info:       PRESSURE CONTROL IS GROUP-BASED
Info:    INITIAL STRAIN RATE IS 0 0 0
Info:       CELL FLUCTUATION IS ISOTROPIC
Info: MULTILEVEL SUMMATION METHOD (MSM) FOR ELECTROSTATICS ACTIVE
Info: MSM WITH C1 CUBIC INTERPOLATION AND C2 TAYLOR SPLITTING
Info: FULL ELECTROSTATIC EVALUATION FREQUENCY      1
Info: USING VERLET I (r-RESPA) MTS SCHEME.
Info: C1 SPLITTING OF LONG RANGE ELECTROSTATICS
Info: PLACING ATOMS IN PATCHES BY HYDROGEN GROUPS
Info: RIGID BONDS TO HYDROGEN : ALL
Info:         ERROR TOLERANCE : 1e-08
Info:          MAX ITERATIONS : 100
Info: RIGID WATER USING SETTLE ALGORITHM
Info: RANDOM NUMBER SEED     1740284909
Info: USE HYDROGEN BONDS?    NO
Info: COORDINATE PDB         ionized.pdb
Info: STRUCTURE FILE         ionized.psf
Info: PARAMETER file: CHARMM format!
Info: PARAMETERS             par_all27_prot_lipid.inp
Info: USING ARITHMETIC MEAN TO COMBINE L-J SIGMA PARAMETERS
Info: SUMMARY OF PARAMETERS:
Info: 180 BONDS
Info: 447 ANGLES
Info: 566 DIHEDRAL
Info: 46 IMPROPER
Info: 6 CROSSTERM
Info: 119 VDW
Info: 0 VDW_PAIRS
Info: 0 NBTHOLE_PAIRS
Info: STRUCTURE SUMMARY:
Info: 2476 ATOMS
Info: 1650 BONDS
Info: 825 ANGLES
Info: 0 DIHEDRALS
Info: 0 IMPROPERS
Info: 0 CROSSTERMS
Info: 0 EXCLUSIONS
Info: 2475 RIGID BONDS
Info: 4953 DEGREES OF FREEDOM
Info: 826 HYDROGEN GROUPS
Info: 3 ATOMS IN LARGEST HYDROGEN GROUP
Info: 826 MIGRATION GROUPS
Info: 3 ATOMS IN LARGEST MIGRATION GROUP
Info: TOTAL MASS = 14885.7 amu
Info: TOTAL CHARGE = 1 e
Info: MASS DENSITY = 0.915513 g/cm^3
Info: ATOM DENSITY = 0.0917037 atoms/A^3
Info: ADDED 2475 IMPLICIT EXCLUSIONS
Info: NONBONDED TABLE R-SQUARED SPACING: 0.0625
Info: NONBONDED TABLE SIZE: 769 POINTS
Info: REMOVING COM VELOCITY 0.00224767 -0.172852 -0.0122412
Info: MSM using C1 cubic interpolation
Info: MSM using C2 Taylor splitting function
Info: MSM block size decomposition along X is 8 grid points
Info: MSM block size decomposition along Y is 8 grid points
Info: MSM block size decomposition along Z is 8 grid points
Info: MSM grid spacing along X is 2.5 A
Info: MSM grid spacing along Y is 2.5 A
Info: MSM grid spacing along Z is 2.5 A
Info: MSM using 3 levels
Info:     level 0:  [0..11] x [0..11] x [0..11]
Info:     level 1:  [0..5] x [0..5] x [0..5]
Info:     level 2:  [0..2] x [0..2] x [0..2]
Info: MSM finished calculating stencils
Info: MSM finished creating map for grid levels
Info: MSM finished creating map for patches
Info: MSM has 9 interpolation / anterpolation objects (one per patch)
Info: MSM grid level 0 decomposed into 8 blocks ( 2 x 2 x 2 )
Info: MSM grid level 1 decomposed into 1 block ( 1 x 1 x 1 )
Info: MSM grid level 2 decomposed into 1 block ( 1 x 1 x 1 )
Info: MSM grid cutoff calculation decomposed into 783 work objects
TCL: Minimizing for 1000 steps
ETITLE: TS BOND ANGLE DIHED IMPRP ELECT VDW BOUNDARY MISC KINETIC TOTAL TEMP POTENTIAL TOTAL3 TEMPAVG PRESSURE GPRESSURE VOLUME PRESSAVG GPRESSAVG
ENERGY: 0 0.0000 0.0000 0.0000 0.0000 -7348.6497 6353.7252 0.0000 0.0000 0.0000 -994.9246 0.0000 -994.9246 -994.9246 0.0000 75204.0846 46356.0499 27000.0000 75204.0846 46356.0499
ENERGY: 200 0.0000 0.0000 0.0000 0.0000 -10332.2492 980.7907 0.0000 0.0000 0.0000 -9351.4585 0.0000 -9351.4585 -9351.4585 0.0000 17409.6909 17352.8808 27000.0000 17409.6909 17352.8808
ENERGY: 400 0.0000 0.0000 0.0000 0.0000 -10896.1038 1243.3686 0.0000 0.0000 0.0000 -9652.7352 0.0000 -9652.7352 -9652.7352 0.0000 20355.6381 20269.3742 27000.0000 20355.6381 20269.3742
ENERGY: 600 0.0000 0.0000 0.0000 0.0000 -11075.7358 1292.4015 0.0000 0.0000 0.0000 -9783.3343 0.0000 -9783.3343 -9783.3343 0.0000 20920.4128 20835.6635 27000.0000 20920.4128 20835.6635
ENERGY: 800 0.0000 0.0000 0.0000 0.0000 -11180.1401 1318.9607 0.0000 0.0000 0.0000 -9861.1794 0.0000 -9861.1794 -9861.1794 0.0000 21209.7815 21140.2046 27000.0000 21209.7815 21140.2046
ENERGY: 1000 0.0000 0.0000 0.0000 0.0000 -11266.0233 1347.5667 0.0000 0.0000 0.0000 -9918.4566 0.0000 -9918.4566 -9918.4566 0.0000 21528.8550 21447.2517 27000.0000 21528.8550 21447.2517
TCL: Running for 1000 steps
ETITLE: TS BOND ANGLE DIHED IMPRP ELECT VDW BOUNDARY MISC KINETIC TOTAL TEMP POTENTIAL TOTAL3 TEMPAVG PRESSURE GPRESSURE VOLUME PRESSAVG GPRESSAVG
ENERGY: 1000 0.0000 0.0000 0.0000 0.0000 -11266.0235 1347.5667 0.0000 0.0000 1398.7419 -8519.7149 284.2233 -9918.4568 -8519.9168 284.2233 -2509.0229 -2509.0229 27000.0000 -2509.0229 -2509.0229
ENERGY: 1200 0.0000 0.0000 0.0000 0.0000 -10440.2751 1304.9596 0.0000 0.0000 746.3663 -8388.9493 151.6610 -9135.3155 -8388.5986 151.9924 -401.9814 -390.2445 26192.3176 -370.7262 -370.7465
ENERGY: 1400 0.0000 0.0000 0.0000 0.0000 -10409.5877 1321.4253 0.0000 0.0000 806.1406 -8282.0218 163.8072 -9088.1624 -8282.6410 163.9407 191.3085 185.9993 25587.1189 7.3231 7.3872
ENERGY: 1600 0.0000 0.0000 0.0000 0.0000 -10382.9944 1291.2117 0.0000 0.0000 865.7725 -8226.0101 175.9243 -9091.7826 -8225.8511 176.7111 193.3508 186.5562 25125.1564 68.1776 75.5977
ENERGY: 1800 0.0000 0.0000 0.0000 0.0000 -10303.2269 1259.8064 0.0000 0.0000 916.1258 -8127.2947 186.1561 -9043.4205 -8127.4313 186.2360 -20.1871 2.6578 25217.1654 -151.5982 -145.2128
ENERGY: 2000 0.0000 0.0000 0.0000 0.0000 -10283.7996 1275.2929 0.0000 0.0000 970.6956 -8037.8111 197.2446 -9008.5067 -8037.3415 197.4291 573.5397 579.4789 24856.3817 792.7395 791.7301
