Info: SIMULATION PARAMETERS:
Info: TIMESTEP               2
Info: NUMBER OF STEPS        0
Info: STEPS PER CYCLE        10
Info: PERIODIC CELL BASIS 1  41.123 0 0
Info: PERIODIC CELL BASIS 2  0 39.115 0
Info: PERIODIC CELL BASIS 3  0 0 42.009
Info: PERIODIC CELL CENTER   0 0 0
Info: WRAPPING WATERS AROUND PERIODIC BOUNDARIES ON OUTPUT.
Info: WRAPPING ALL CLUSTERS AROUND PERIODIC BOUNDARIES ON OUTPUT.
Info: FIRST LDB TIMESTEP     50
Info: LAST LDB TIMESTEP     -1
Info: HOM BACKGROUND SCALING 1
Info: PME BACKGROUND SCALING 1
Info: MIN ATOMS PER PATCH    40
Info: EMPTY PATCH LOAD       40 ATOMS
Info: INITIAL TEMPERATURE    300
Info: CENTER OF MASS MOVING INITIALLY? NO
Info: DIELECTRIC             1
Info: EXCLUDE                SCALED ONE-FOUR
Info: 1-4 ELECTROSTATICS SCALED BY 0.833333
Info: MODIFIED 1-4 VDW PARAMETERS WILL BE USED
Info: DCD FILENAME           mobley_1760914_min.dcd
Info: DCD FREQUENCY          5000
Info: DCD FIRST STEP         5000
Info: DCD FILE WILL CONTAIN UNIT CELL DATA
Info: XST FILENAME           mobley_1760914_min.xst
Info: XST FREQUENCY          5000
Info: NO VELOCITY DCD OUTPUT
Info: NO FORCE DCD OUTPUT
Info: OUTPUT FILENAME        mobley_1760914_min
Info: BINARY OUTPUT FILES WILL BE USED
Info: RESTART FILENAME       mobley_1760914_min.restart
Info: RESTART FREQUENCY      5000
Info: BINARY RESTART FILES WILL BE USED
Info: CUTOFF                 9
Info: PAIRLIST DISTANCE      11
Info: PAIRLIST SHRINK RATE   0.01
Info: PAIRLIST GROW RATE     0.01
Info: PAIRLIST TRIGGER       0.3
Info: PAIRLISTS PER CYCLE    2
Info: PAIRLISTS ENABLED
Info: MARGIN                 8
Info: HYDROGEN GROUP CUTOFF  2.5
Info: PATCH DIMENSION        21.5
Info: ENERGY OUTPUT STEPS    5000
Info: ENERGY EVALUATION STEPS    5000
Info: OUTPUT ENERGY PRECISION 4
Info: CROSSTERM ENERGY INCLUDED IN DIHEDRAL
Info: TIMING OUTPUT STEPS    50000
Info: PRESSURE OUTPUT STEPS  5000
Info: LANGEVIN DYNAMICS ACTIVE
Info: LANGEVIN TEMPERATURE   300
Info: LANGEVIN USING BBK INTEGRATOR
Info: LANGEVIN DAMPING COEFFICIENT IS 1 INVERSE PS
Info: LANGEVIN DYNAMICS APPLIED TO HYDROGENS
Info: LANGEVIN PISTON PRESSURE CONTROL ACTIVE
Info:        TARGET PRESSURE IS 1.01325 BAR
Info:     OSCILLATION PERIOD IS 50 FS
Info:             DECAY TIME IS 25 FS
Info:     PISTON TEMPERATURE IS 300 K
Info:       PRESSURE CONTROL IS GROUP-BASED
Info:    INITIAL STRAIN RATE IS 0 0 0
Info:       CELL FLUCTUATION IS ISOTROPIC
Info: PARTICLE MESH EWALD (PME) ACTIVE
Info: PME TOLERANCE               1e-06
Info: PME EWALD COEFFICIENT       0.348832
Info: PME INTERPOLATION ORDER     4
Info: PME GRID DIMENSIONS         44 40 44
Info: PME MAXIMUM GRID SPACING    1
Info: FULL ELECTROSTATIC EVALUATION FREQUENCY      2
Info: USING VERLET I (r-RESPA) MTS SCHEME.
Info: C1 SPLITTING OF LONG RANGE ELECTROSTATICS
Info: PLACING ATOMS IN PATCHES BY HYDROGEN GROUPS
Info: RIGID BONDS TO HYDROGEN : ALL
Info:         ERROR TOLERANCE : 1e-08
Info:          MAX ITERATIONS : 100
Info: RIGID WATER USING SETTLE ALGORITHM
Info: RANDOM NUMBER SEED     1741356516
Info: USE HYDROGEN BONDS?    NO
Info: Using AMBER format force field!
Info: AMBER PARM FILE        mobley_1760914.prmtop
Info: COORDINATE PDB         mobley_1760914.pdb
Info: Exclusions will be read from PARM file!
Info: SCNB (VDW SCALING)     2
Info: USING ARITHMETIC MEAN TO COMBINE L-J SIGMA PARAMETERS
Info: SUMMARY OF PARAMETERS:
Info: 7 BONDS
Info: 6 ANGLES
Info:   6 HARMONIC
Info:   0 COSINE-BASED
Info: 3 DIHEDRAL
Info: 0 IMPROPER
Info: 0 CROSSTERM
Info: 0 VDW
Info: 28 VDW_PAIRS
Info: 0 NBTHOLE_PAIRS
Info: STRUCTURE SUMMARY:
Info: 4812 ATOMS
Info: 4812 BONDS
Info: 24 ANGLES
Info: 36 DIHEDRALS
Info: 0 IMPROPERS
Info: 0 CROSSTERMS
Info: 4863 EXCLUSIONS
Info: 4804 RIGID BONDS
Info: 9632 DEGREES OF FREEDOM
Info: 1607 HYDROGEN GROUPS
Info: 4 ATOMS IN LARGEST HYDROGEN GROUP
Info: 1607 MIGRATION GROUPS
Info: 4 ATOMS IN LARGEST MIGRATION GROUP
Info: TOTAL MASS = 28934.2 amu
Info: TOTAL CHARGE = 1.49012e-08 e
Info: MASS DENSITY = 0.711049 g/cm^3
Info: ATOM DENSITY = 0.0712123 atoms/A^3
Info: ADDED 0 IMPLICIT EXCLUSIONS
Info: NONBONDED TABLE R-SQUARED SPACING: 0.0625
Info: NONBONDED TABLE SIZE: 705 POINTS
Info: REMOVING COM VELOCITY -0.00921563 -0.0797178 0.0318036
TCL: Minimizing for 2000 steps
ETITLE: TS BOND ANGLE DIHED IMPRP ELECT VDW BOUNDARY MISC KINETIC TOTAL TEMP POTENTIAL TOTAL3 TEMPAVG PRESSURE GPRESSURE VOLUME PRESSAVG GPRESSAVG
ENERGY: 0 0.2996 0.2876 0.0007 0.0000 -14947.5924 1718.9753 0.0000 0.0000 0.0000 -13228.0292 0.0000 -13228.0292 -13228.0292 0.0000 11064.0323 -15344.7487 67572.5748 11064.0323 -15344.7487
ENERGY: 400 1.2285 0.8928 0.4883 0.0000 -20151.3938 2991.5269 0.0000 0.0000 0.0000 -17157.2573 0.0000 -17157.2573 -17157.2573 0.0000 15792.5562 15945.1749 67572.5748 15792.5562 15945.1749
ENERGY: 800 1.1889 0.5138 0.1646 0.0000 -21096.1041 3381.0695 0.0000 0.0000 0.0000 -17713.1672 0.0000 -17713.1672 -17713.1672 0.0000 17559.3448 17685.5548 67572.5748 17559.3448 17685.5548
ENERGY: 1200 0.3968 0.3732 0.1054 0.0000 -21578.7534 3603.8984 0.0000 0.0000 0.0000 -17973.9796 0.0000 -17973.9796 -17973.9796 0.0000 18598.5880 18702.3231 67572.5748 18598.5880 18702.3231
ENERGY: 1600 0.4779 0.2852 0.0489 0.0000 -21780.1760 3677.0553 0.0000 0.0000 0.0000 -18102.3087 0.0000 -18102.3087 -18102.3087 0.0000 18987.4887 19062.8821 67572.5748 18987.4887 19062.8821
ENERGY: 2000 0.3355 0.3136 0.0380 0.0000 -21967.2288 3776.2030 0.0000 0.0000 0.0000 -18190.3388 0.0000 -18190.3388 -18190.3388 0.0000 19479.6091 19558.3135 67572.5748 19479.6091 19558.3135
TCL: Exiting due to exit command.
Info: NAMD 3.0.1 for Linux-x86_64-multicore
Info: Please visit http://www.ks.uiuc.edu/Research/namd/
Info: for updates, documentation, and support information.
Info: Please cite Phillips et al., J. Chem. Phys. 153:044130 (2020) doi:10.1063/5.0014475
Info: in all publications reporting results obtained with NAMD.
Info: Based on Charm++/Converse 80000 for multicore-linux-x86_64-gcc
Info: Built Mon Oct 14 11:11:06 CDT 2024 by dhardy on athine.ks.uiuc.edu
Info: 1 NAMD  3.0.1  Linux-x86_64-multicore  16    k063  z5358697
Info: Running on 16 processors, 1 nodes, 1 physical nodes.
Info: CPU topology information available.
Info: Charm++/Converse parallel runtime startup completed at 0.00808445 s
Info: 1043.46 MB of memory in use based on /proc/self/stat
Info: Configuration file is mobley_1760914_equil.namd
Info: Working in the current directory /srv/scratch/z5358697/prod_prep_1/1760914
TCL: Running 25000 steps at 30 kelvin.
TCL: Suspending until startup complete.
Info: SIMULATION PARAMETERS:
Info: TIMESTEP               2
Info: NUMBER OF STEPS        0
Info: STEPS PER CYCLE        10
Info: PERIODIC CELL BASIS 1  41.123 0 0
Info: PERIODIC CELL BASIS 2  0 39.115 0
Info: PERIODIC CELL BASIS 3  0 0 42.009
Info: PERIODIC CELL CENTER   0 0 0
Info: WRAPPING WATERS AROUND PERIODIC BOUNDARIES ON OUTPUT.
Info: WRAPPING ALL CLUSTERS AROUND PERIODIC BOUNDARIES ON OUTPUT.
Info: FIRST LDB TIMESTEP     50
Info: LAST LDB TIMESTEP     -1
Info: HOM BACKGROUND SCALING 1
Info: PME BACKGROUND SCALING 1
Info: MIN ATOMS PER PATCH    40
Info: EMPTY PATCH LOAD       40 ATOMS
Info: INITIAL TEMPERATURE    300
Info: CENTER OF MASS MOVING INITIALLY? NO
Info: DIELECTRIC             1
Info: EXCLUDE                SCALED ONE-FOUR
Info: 1-4 ELECTROSTATICS SCALED BY 0.833333
Info: MODIFIED 1-4 VDW PARAMETERS WILL BE USED
Info: DCD FILENAME           mobley_1760914_equil.dcd
Info: DCD FREQUENCY          5000
Info: DCD FIRST STEP         5000
Info: DCD FILE WILL CONTAIN UNIT CELL DATA
Info: XST FILENAME           mobley_1760914_equil.xst
Info: XST FREQUENCY          5000
Info: NO VELOCITY DCD OUTPUT
Info: NO FORCE DCD OUTPUT
Info: OUTPUT FILENAME        mobley_1760914_equil
Info: BINARY OUTPUT FILES WILL BE USED
Info: RESTART FILENAME       mobley_1760914_equil.restart
Info: RESTART FREQUENCY      5000
Info: BINARY RESTART FILES WILL BE USED
Info: CUTOFF                 9
Info: PAIRLIST DISTANCE      11
Info: PAIRLIST SHRINK RATE   0.01
Info: PAIRLIST GROW RATE     0.01
Info: PAIRLIST TRIGGER       0.3
Info: PAIRLISTS PER CYCLE    2
Info: PAIRLISTS ENABLED
Info: MARGIN                 8
Info: HYDROGEN GROUP CUTOFF  2.5
Info: PATCH DIMENSION        21.5
Info: ENERGY OUTPUT STEPS    5000
Info: ENERGY EVALUATION STEPS    5000
Info: OUTPUT ENERGY PRECISION 4
Info: CROSSTERM ENERGY INCLUDED IN DIHEDRAL
Info: TIMING OUTPUT STEPS    50000
Info: PRESSURE OUTPUT STEPS  5000
Info: LANGEVIN DYNAMICS ACTIVE
Info: LANGEVIN TEMPERATURE   30
Info: LANGEVIN USING BBK INTEGRATOR
Info: LANGEVIN DAMPING COEFFICIENT IS 1 INVERSE PS
Info: LANGEVIN DYNAMICS APPLIED TO HYDROGENS
Info: LANGEVIN PISTON PRESSURE CONTROL ACTIVE
Info:        TARGET PRESSURE IS 1.01325 BAR
Info:     OSCILLATION PERIOD IS 50 FS
Info:             DECAY TIME IS 25 FS
Info:     PISTON TEMPERATURE IS 300 K
Info:       PRESSURE CONTROL IS GROUP-BASED
Info:    INITIAL STRAIN RATE IS 0 0 0
Info:       CELL FLUCTUATION IS ISOTROPIC
Info: PARTICLE MESH EWALD (PME) ACTIVE
Info: PME TOLERANCE               1e-06
Info: PME EWALD COEFFICIENT       0.348832
Info: PME INTERPOLATION ORDER     4
Info: PME GRID DIMENSIONS         44 40 44
Info: PME MAXIMUM GRID SPACING    1
Info: FULL ELECTROSTATIC EVALUATION FREQUENCY      2
Info: USING VERLET I (r-RESPA) MTS SCHEME.
Info: C1 SPLITTING OF LONG RANGE ELECTROSTATICS
Info: PLACING ATOMS IN PATCHES BY HYDROGEN GROUPS
Info: RIGID BONDS TO HYDROGEN : ALL
Info:         ERROR TOLERANCE : 1e-08
Info:          MAX ITERATIONS : 100
Info: RIGID WATER USING SETTLE ALGORITHM
Info: RANDOM NUMBER SEED     1741356532
Info: USE HYDROGEN BONDS?    NO
Info: Using AMBER format force field!
Info: AMBER PARM FILE        mobley_1760914.prmtop
Info: COORDINATE PDB         mobley_1760914.pdb
Info: Exclusions will be read from PARM file!
Info: SCNB (VDW SCALING)     2
Info: USING ARITHMETIC MEAN TO COMBINE L-J SIGMA PARAMETERS
Info: BINARY COORDINATES     mobley_1760914_min.coor
Info: SUMMARY OF PARAMETERS:
Info: 7 BONDS
Info: 6 ANGLES
Info:   6 HARMONIC
Info:   0 COSINE-BASED
Info: 3 DIHEDRAL
Info: 0 IMPROPER
Info: 0 CROSSTERM
Info: 0 VDW
Info: 28 VDW_PAIRS
Info: 0 NBTHOLE_PAIRS
Info: STRUCTURE SUMMARY:
Info: 4812 ATOMS
Info: 4812 BONDS
Info: 24 ANGLES
Info: 36 DIHEDRALS
Info: 0 IMPROPERS
Info: 0 CROSSTERMS
Info: 4863 EXCLUSIONS
Info: 4804 RIGID BONDS
Info: 9632 DEGREES OF FREEDOM
Info: 1607 HYDROGEN GROUPS
Info: 4 ATOMS IN LARGEST HYDROGEN GROUP
Info: 1607 MIGRATION GROUPS
Info: 4 ATOMS IN LARGEST MIGRATION GROUP
Info: TOTAL MASS = 28934.2 amu
Info: TOTAL CHARGE = 1.49012e-08 e
Info: MASS DENSITY = 0.711049 g/cm^3
Info: ATOM DENSITY = 0.0712123 atoms/A^3
Info: ADDED 0 IMPLICIT EXCLUSIONS
Info: NONBONDED TABLE R-SQUARED SPACING: 0.0625
Info: NONBONDED TABLE SIZE: 705 POINTS
Info: REMOVING COM VELOCITY -0.0845887 0.00127743 0.0810891
TCL: Running for 25000 steps
ETITLE: TS BOND ANGLE DIHED IMPRP ELECT VDW BOUNDARY MISC KINETIC TOTAL TEMP POTENTIAL TOTAL3 TEMPAVG PRESSURE GPRESSURE VOLUME PRESSAVG GPRESSAVG
ENERGY: 0 0.3355 0.3136 0.0380 0.0000 -21967.2288 3776.2030 0.0000 0.0000 2825.3427 -15364.9961 295.2195 -18190.3388 -15364.4319 295.2195 41.0031 81.6446 67572.5748 41.0031 81.6446
ENERGY: 5000 0.2958 0.6021 0.1303 0.0000 -23083.5642 4013.5863 0.0000 0.0000 291.5468 -18777.4029 30.4637 -19068.9497 -18776.6944 47.5293 133.0992 200.0447 46851.8089 -0.4358 -0.3942
ENERGY: 10000 0.2535 0.4160 0.4480 0.0000 -22948.9237 3843.3574 0.0000 0.0000 285.4987 -18818.9500 29.8317 -19104.4488 -18817.9430 30.2689 -865.9696 -799.1361 46896.4718 3.6694 3.6412
ENERGY: 15000 0.6284 0.5047 0.2374 0.0000 -23062.4768 3928.5754 0.0000 0.0000 290.2145 -18842.3164 30.3245 -19132.5309 -18841.2959 30.0729 -480.3087 -422.7275 46729.1019 5.3689 5.1296
ENERGY: 20000 0.3686 0.7049 0.3127 0.0000 -23338.2886 4200.0153 0.0000 0.0000 289.6108 -18847.2764 30.2614 -19136.8871 -18846.5946 30.0315 993.8534 1049.6556 46234.3121 4.1147 4.1200
ENERGY: 25000 0.3452 1.3218 0.2570 0.0000 -23181.3154 4039.1783 0.0000 0.0000 282.5648 -18857.6484 29.5251 -19140.2132 -18856.7389 30.1021 141.9216 179.4415 46535.3018 -0.1655 -0.1931
TCL: Running 25000 steps at 60 kelvin.
TCL: Setting parameter langevinTemp to 60
TCL: Running for 25000 steps
ETITLE: TS BOND ANGLE DIHED IMPRP ELECT VDW BOUNDARY MISC KINETIC TOTAL TEMP POTENTIAL TOTAL3 TEMPAVG PRESSURE GPRESSURE VOLUME PRESSAVG GPRESSAVG
ENERGY: 25000 0.3452 1.3218 0.2570 0.0000 -23181.3154 4039.1783 0.0000 0.0000 282.4227 -18857.7905 29.5103 -19140.2132 -18857.1964 29.5103 129.7695 179.6639 46535.3018 129.7695 179.6639
ENERGY: 30000 0.4824 0.8080 1.2078 0.0000 -22753.7322 3894.4661 0.0000 0.0000 575.4392 -18281.3288 60.1275 -18856.7680 -18280.2531 57.0808 15.7849 56.3563 46952.1119 1.9081 1.8609
ENERGY: 35000 0.7430 1.0435 0.4604 0.0000 -22931.8016 4017.7563 0.0000 0.0000 578.9438 -18332.8545 60.4937 -18911.7983 -18331.1196 60.2274 572.8734 619.1569 46673.1749 5.1478 5.0808
ENERGY: 40000 0.8279 1.0517 1.0560 0.0000 -22992.2779 4061.3150 0.0000 0.0000 581.4910 -18346.5363 60.7599 -18928.0273 -18345.3273 60.3558 733.6287 791.7512 46518.3993 2.3273 2.4633
ENERGY: 45000 0.3083 1.7643 0.8965 0.0000 -22871.9488 3907.3277 0.0000 0.0000 582.4354 -18379.2165 60.8586 -18961.6520 -18378.3220 60.5335 -120.3964 -71.1207 46814.1456 5.4405 5.1776
ENERGY: 50000 0.1368 1.3516 0.3409 0.0000 -22868.1105 3885.6830 0.0000 0.0000 580.6273 -18399.9710 60.6696 -18980.5982 -18398.1420 60.5620 -344.1191 -284.4903 46849.5615 6.4266 6.1707
TCL: Running 25000 steps at 90 kelvin.
TCL: Setting parameter langevinTemp to 90
TCL: Running for 25000 steps
ETITLE: TS BOND ANGLE DIHED IMPRP ELECT VDW BOUNDARY MISC KINETIC TOTAL TEMP POTENTIAL TOTAL3 TEMPAVG PRESSURE GPRESSURE VOLUME PRESSAVG GPRESSAVG
ENERGY: 50000 0.1368 1.3516 0.3409 0.0000 -22868.1105 3885.6830 0.0000 0.0000 580.3420 -18400.2563 60.6398 -18980.5982 -18398.9112 60.6398 -328.3750 -284.3883 46849.5615 -328.3750 -284.3883
ENERGY: 55000 0.4306 0.9198 0.5595 0.0000 -22605.5685 3930.3980 0.0000 0.0000 843.0794 -17830.1811 88.0932 -18673.2605 -17829.3043 87.3104 593.9376 640.2794 47069.6999 2.1746 2.3022
ENERGY: 60000 0.6396 2.1046 1.3273 0.0000 -22572.5154 3869.6706 0.0000 0.0000 864.0622 -17834.7112 90.2857 -18698.7734 -17832.8905 90.5444 210.4241 286.9423 46858.7738 7.1656 7.3046
ENERGY: 65000 1.1124 1.8028 0.8487 0.0000 -22572.3052 3804.2292 0.0000 0.0000 842.4685 -17921.8436 88.0294 -18764.3121 -17919.5457 90.2046 -191.0819 -125.2502 46680.6452 0.5273 0.2495
ENERGY: 70000 0.5463 1.9448 0.6200 0.0000 -22585.1233 3808.4899 0.0000 0.0000 885.2284 -17888.2938 92.4973 -18773.5223 -17885.5609 90.5466 -186.6458 -128.7123 46759.4418 2.3291 2.4629
ENERGY: 75000 0.8043 0.6108 0.5430 0.0000 -22704.6555 3884.7638 0.0000 0.0000 869.2718 -17948.6618 90.8300 -18817.9337 -17947.1030 90.3077 218.9412 265.3393 46580.7845 -1.5145 -1.5895
TCL: Running 25000 steps at 120 kelvin.
TCL: Setting parameter langevinTemp to 120
TCL: Running for 25000 steps
ETITLE: TS BOND ANGLE DIHED IMPRP ELECT VDW BOUNDARY MISC KINETIC TOTAL TEMP POTENTIAL TOTAL3 TEMPAVG PRESSURE GPRESSURE VOLUME PRESSAVG GPRESSAVG
ENERGY: 75000 0.8043 0.6108 0.5430 0.0000 -22704.6555 3884.7638 0.0000 0.0000 868.8438 -17949.0899 90.7853 -18817.9337 -17947.4636 90.7853 209.8583 265.1127 46580.7845 209.8583 265.1127
ENERGY: 80000 1.1284 1.3443 1.2391 0.0000 -22342.4606 3843.3426 0.0000 0.0000 1132.9775 -17362.4287 118.3846 -18495.4062 -17360.2461 115.9876 731.7609 778.5157 46653.9474 3.2686 3.6507
ENERGY: 85000 0.9185 1.9120 2.3068 0.0000 -22509.0139 3956.0537 0.0000 0.0000 1152.5247 -17395.2982 120.4271 -18547.8229 -17392.6245 120.3669 1148.1394 1200.8802 46567.7211 2.0972 2.6234
ENERGY: 90000 2.1683 1.2882 1.7545 0.0000 -22315.6887 3766.7048 0.0000 0.0000 1146.6342 -17397.1388 119.8116 -18543.7730 -17394.6195 120.1856 115.3202 147.9701 46963.5069 2.3765 2.0996
ENERGY: 95000 0.2690 1.0916 0.8617 0.0000 -22289.8042 3716.6021 0.0000 0.0000 1144.0712 -17426.9086 119.5438 -18570.9798 -17424.4968 121.2565 -132.6645 -36.7184 46741.4810 4.7350 4.6847
ENERGY: 100000 2.0210 1.8737 1.6136 0.0000 -22275.5700 3618.6388 0.0000 0.0000 1149.3943 -17502.0286 120.1000 -18651.4228 -17498.8421 120.2652 -820.5632 -764.8372 46913.8833 3.4320 3.1151
TCL: Running 25000 steps at 150 kelvin.
TCL: Setting parameter langevinTemp to 150
TCL: Running for 25000 steps
ETITLE: TS BOND ANGLE DIHED IMPRP ELECT VDW BOUNDARY MISC KINETIC TOTAL TEMP POTENTIAL TOTAL3 TEMPAVG PRESSURE GPRESSURE VOLUME PRESSAVG GPRESSAVG
ENERGY: 100000 2.0210 1.8737 1.6136 0.0000 -22275.5700 3618.6388 0.0000 0.0000 1148.8134 -17502.6094 120.0393 -18651.4228 -17499.7242 120.0393 -832.7374 -764.6224 46913.8833 -832.7374 -764.6224
ENERGY: 105000 2.4116 1.6860 1.4364 0.0000 -21749.2178 3521.9519 0.0000 0.0000 1452.8416 -16768.8903 151.8071 -18221.7319 -16764.2136 145.7070 -413.9975 -347.6461 47262.0967 6.2245 5.7596
ENERGY: 110000 2.3717 2.0754 1.5406 0.0000 -21768.8634 3499.3971 0.0000 0.0000 1460.7646 -16802.7140 152.6350 -18263.4785 -16798.6269 150.1110 -728.9471 -697.9777 47499.9861 3.4599 3.3279
ENERGY: 115000 1.6910 1.6162 0.9471 0.0000 -21943.2306 3647.1717 0.0000 0.0000 1425.5599 -16866.2448 148.9565 -18291.8047 -16864.2038 149.0161 -47.7072 65.6042 47117.5587 6.2893 6.5796
ENERGY: 120000 1.1406 1.0739 0.9428 0.0000 -22149.5460 3832.2552 0.0000 0.0000 1454.4525 -16859.6811 151.9755 -18314.1336 -16856.2902 150.3024 1099.5048 1154.1496 46707.7486 6.7948 6.6158
ENERGY: 125000 1.8791 0.6891 2.5593 0.0000 -22083.0923 3776.6431 0.0000 0.0000 1435.5693 -16865.7524 150.0023 -18301.3216 -16862.4278 150.8820 670.4116 696.7600 46922.7448 -0.4211 -0.4812
TCL: Running 50000 steps at 180 kelvin.
TCL: Setting parameter langevinTemp to 180
TCL: Running for 50000 steps
ETITLE: TS BOND ANGLE DIHED IMPRP ELECT VDW BOUNDARY MISC KINETIC TOTAL TEMP POTENTIAL TOTAL3 TEMPAVG PRESSURE GPRESSURE VOLUME PRESSAVG GPRESSAVG
ENERGY: 125000 1.8791 0.6891 2.5593 0.0000 -22083.0923 3776.6431 0.0000 0.0000 1434.8593 -16866.4623 149.9282 -18301.3216 -16864.6306 149.9282 647.3273 697.3005 46922.7448 647.3273 697.3005
ENERGY: 135000 3.3235 2.5342 2.4994 0.0000 -21272.2145 3413.9995 0.0000 0.0000 1723.0185 -16126.8394 180.0379 -17849.8580 -16120.4291 179.5464 -265.3607 -204.9793 47594.4353 -1.0512 -1.6474
ENERGY: 145000 0.2518 2.5393 1.1642 0.0000 -21388.6831 3437.3197 0.0000 0.0000 1683.7996 -16263.6085 175.9399 -17947.4081 -16259.7406 179.3981 -204.7902 -101.6763 47238.5801 -1.1673 -0.9481
ENERGY: 155000 0.8560 1.1873 1.6403 0.0000 -21391.3202 3459.3235 0.0000 0.0000 1706.4618 -16221.8513 178.3079 -17928.3131 -16218.3417 179.5696 -43.0297 -28.5000 47240.5744 -1.4723 -1.4181
ENERGY: 165000 2.1737 3.5564 1.8891 0.0000 -21405.4433 3397.0818 0.0000 0.0000 1727.0924 -16273.6499 180.4635 -18000.7423 -16269.0714 179.0264 -676.8160 -549.0192 47500.9668 2.8758 3.0217
ENERGY: 175000 0.5720 2.1124 4.1227 0.0000 -21558.6413 3558.3214 0.0000 0.0000 1742.4204 -16251.0924 182.0652 -17993.5128 -16248.0901 180.0093 475.0595 565.4648 46676.1015 -0.2031 0.4651
TCL: Running 50000 steps at 210 kelvin.
TCL: Setting parameter langevinTemp to 210
TCL: Running for 50000 steps
ETITLE: TS BOND ANGLE DIHED IMPRP ELECT VDW BOUNDARY MISC KINETIC TOTAL TEMP POTENTIAL TOTAL3 TEMPAVG PRESSURE GPRESSURE VOLUME PRESSAVG GPRESSAVG
ENERGY: 175000 0.5720 2.1124 4.1227 0.0000 -21558.6413 3558.3214 0.0000 0.0000 1741.5644 -16251.9484 181.9757 -17993.5128 -16248.9139 181.9757 490.6100 565.0634 46676.1015 490.6100 565.0634
ENERGY: 185000 1.1402 3.1412 1.7877 0.0000 -20387.2319 3138.8329 0.0000 0.0000 1982.7068 -15259.6232 207.1726 -17242.3300 -15255.2774 210.1276 172.5912 203.0853 46471.0580 6.8992 7.5518
ENERGY: 195000 3.9444 4.6927 1.2065 0.0000 -20229.7150 3028.0694 0.0000 0.0000 1978.9621 -15212.8399 206.7814 -17191.8020 -15207.1933 210.0109 -389.5773 -329.0189 46949.4330 2.3630 2.1711
ENERGY: 205000 1.1299 4.8574 2.2290 0.0000 -19941.1284 2811.7283 0.0000 0.0000 2085.6532 -15035.5306 217.9295 -17121.1837 -15031.6714 210.3974 -1440.5899 -1348.6659 47415.6588 3.4852 3.8870
ENERGY: 215000 0.3500 3.7299 0.7962 0.0000 -20256.5610 3084.6895 0.0000 0.0000 1999.9017 -15167.0936 208.9693 -17166.9953 -15161.0185 210.0703 -129.3234 -50.9713 47271.9786 -2.3849 -2.2917
ENERGY: 225000 1.0216 3.2697 1.7892 0.0000 -20251.0756 3106.9261 0.0000 0.0000 2086.9643 -15051.1047 218.0665 -17138.0690 -15044.1242 210.4894 137.3238 200.8276 46782.4153 5.8603 4.9130
TCL: Running 50000 steps at 240 kelvin.
TCL: Setting parameter langevinTemp to 240
TCL: Running for 50000 steps
ETITLE: TS BOND ANGLE DIHED IMPRP ELECT VDW BOUNDARY MISC KINETIC TOTAL TEMP POTENTIAL TOTAL3 TEMPAVG PRESSURE GPRESSURE VOLUME PRESSAVG GPRESSAVG
ENERGY: 225000 1.0216 3.2697 1.7892 0.0000 -20251.0756 3106.9261 0.0000 0.0000 2085.9626 -15052.1064 217.9618 -17138.0690 -15048.7535 217.9618 118.2162 201.3229 46782.4153 118.2162 201.3229
ENERGY: 235000 2.6077 2.2751 1.0401 0.0000 -19233.5383 2816.9366 0.0000 0.0000 2273.5825 -14137.0963 237.5662 -16410.6788 -14132.7927 240.9403 -24.9064 142.6523 47318.4839 5.6865 5.0891
ENERGY: 245000 2.8168 3.4394 1.2742 0.0000 -19400.0998 2913.2077 0.0000 0.0000 2318.7940 -14160.5676 242.2903 -16479.3616 -14152.4179 239.8226 696.2867 818.2332 46759.7168 1.6895 2.1648
ENERGY: 255000 2.8808 1.7587 0.9806 0.0000 -19186.4712 2712.8425 0.0000 0.0000 2324.9480 -14143.0606 242.9334 -16468.0085 -14139.4917 239.8191 -556.9763 -459.7911 47734.7118 -4.9925 -4.7553
ENERGY: 265000 3.2210 4.1264 2.2203 0.0000 -19232.3794 2830.2904 0.0000 0.0000 2302.3882 -14090.1330 240.5761 -16392.5212 -14085.2964 239.4828 246.6388 337.2335 47342.2309 5.4377 5.2391
ENERGY: 275000 1.2640 1.5560 1.5228 0.0000 -19041.9180 2743.5826 0.0000 0.0000 2277.8087 -14016.1840 238.0078 -16293.9927 -14013.0078 240.3689 -159.8752 -58.7065 47770.4562 2.2248 1.6083
TCL: Running 50000 steps at 270 kelvin.
TCL: Setting parameter langevinTemp to 270
TCL: Running for 50000 steps
ETITLE: TS BOND ANGLE DIHED IMPRP ELECT VDW BOUNDARY MISC KINETIC TOTAL TEMP POTENTIAL TOTAL3 TEMPAVG PRESSURE GPRESSURE VOLUME PRESSAVG GPRESSAVG
ENERGY: 275000 1.2640 1.5560 1.5228 0.0000 -19041.9180 2743.5826 0.0000 0.0000 2276.6498 -14017.3429 237.8867 -16293.9927 -14012.5932 237.8867 -140.3360 -59.6702 47770.4562 -140.3360 -59.6702
ENERGY: 285000 4.0909 4.3497 2.1379 0.0000 -18360.7372 2571.3128 0.0000 0.0000 2585.2512 -13193.5947 270.1324 -15778.8459 -13187.3405 268.3051 -135.7391 -96.2570 48502.2307 1.0562 1.4498
ENERGY: 295000 2.3456 3.9238 2.1435 0.0000 -18447.6708 2614.4570 0.0000 0.0000 2497.8834 -13326.9174 261.0033 -15824.8008 -13323.9831 269.6991 357.7967 469.8623 47536.8380 4.9897 4.7964
ENERGY: 305000 1.4894 4.1629 2.0975 0.0000 -17991.7773 2371.9622 0.0000 0.0000 2551.0321 -13061.0332 266.5568 -15612.0653 -13056.8026 270.6151 -901.6218 -840.4993 49123.3649 0.8509 0.8348
ENERGY: 315000 1.3208 2.8633 4.0414 0.0000 -18288.8272 2517.2214 0.0000 0.0000 2579.2313 -13184.1490 269.5034 -15763.3803 -13176.0019 271.3952 -308.8041 -244.0693 48608.1036 5.5854 5.3845
ENERGY: 325000 2.0192 6.4873 2.9183 0.0000 -18271.3696 2545.0146 0.0000 0.0000 2519.2857 -13195.6445 263.2397 -15714.9302 -13188.3583 270.4568 -205.1357 -127.1103 48853.5849 4.2057 5.2317
TCL: Running 1000000 steps at 300 kelvin.
TCL: Setting parameter langevinTemp to 300
TCL: Running for 1000000 steps
ETITLE: TS BOND ANGLE DIHED IMPRP ELECT VDW BOUNDARY MISC KINETIC TOTAL TEMP POTENTIAL TOTAL3 TEMPAVG PRESSURE GPRESSURE VOLUME PRESSAVG GPRESSAVG
ENERGY: 325000 2.0192 6.4873 2.9183 0.0000 -18271.3696 2545.0146 0.0000 0.0000 2517.9927 -13196.9375 263.1046 -15714.9302 -13193.0695 263.1046 -216.0967 -126.0984 48853.5849 -216.0967 -126.0984
ENERGY: 525000 2.7774 4.0268 2.0548 0.0000 -17455.0174 2387.3858 0.0000 0.0000 2938.9743 -12119.7984 307.0928 -15058.7727 -12113.2952 301.1228 193.2287 261.9579 49773.2861 1.3165 1.1400
ENERGY: 725000 3.9022 4.1893 4.2634 0.0000 -17427.2746 2273.0916 0.0000 0.0000 2893.8341 -12247.9940 302.3762 -15141.8281 -12243.9507 300.7362 -241.0056 -224.3222 48992.5789 -0.6532 0.1926
ENERGY: 925000 2.0317 6.3594 3.3307 0.0000 -17400.7175 2288.9618 0.0000 0.0000 2906.2045 -12193.8293 303.6687 -15100.0338 -12186.1724 298.7015 -29.7223 -7.3539 49252.9152 3.8624 3.5102
ENERGY: 1125000 1.0588 2.9218 1.4528 0.0000 -17701.6392 2504.1201 0.0000 0.0000 2912.7166 -12279.3690 304.3492 -15192.0857 -12272.4621 301.6330 634.5534 729.9897 49466.9968 0.5842 0.6757
ENERGY: 1325000 3.1530 3.1476 1.9367 0.0000 -17252.2509 2202.6126 0.0000 0.0000 2875.8994 -12165.5015 300.5022 -15041.4009 -12161.3913 300.9217 -558.6152 -500.8133 49674.3334 1.4320 1.4957
TCL: Exiting due to exit command.
