Info: SIMULATION PARAMETERS:
Info: TIMESTEP               2
Info: NUMBER OF STEPS        0
Info: STEPS PER CYCLE        10
Info: PERIODIC CELL BASIS 1  39.806 0 0
Info: PERIODIC CELL BASIS 2  0 37.835 0
Info: PERIODIC CELL BASIS 3  0 0 42.851
Info: PERIODIC CELL CENTER   0 0 0
Info: WRAPPING WATERS AROUND PERIODIC BOUNDARIES ON OUTPUT.
Info: WRAPPING ALL CLUSTERS AROUND PERIODIC BOUNDARIES ON OUTPUT.
Info: FIRST LDB TIMESTEP     50
Info: LAST LDB TIMESTEP     -1
Info: HOM BACKGROUND SCALING 1
Info: PME BACKGROUND SCALING 1
Info: MIN ATOMS PER PATCH    40
Info: EMPTY PATCH LOAD       40 ATOMS
Info: INITIAL TEMPERATURE    300
Info: CENTER OF MASS MOVING INITIALLY? NO
Info: DIELECTRIC             1
Info: EXCLUDE                SCALED ONE-FOUR
Info: 1-4 ELECTROSTATICS SCALED BY 0.833333
Info: MODIFIED 1-4 VDW PARAMETERS WILL BE USED
Info: DCD FILENAME           mobley_5326154_min.dcd
Info: DCD FREQUENCY          5000
Info: DCD FIRST STEP         5000
Info: DCD FILE WILL CONTAIN UNIT CELL DATA
Info: XST FILENAME           mobley_5326154_min.xst
Info: XST FREQUENCY          5000
Info: NO VELOCITY DCD OUTPUT
Info: NO FORCE DCD OUTPUT
Info: OUTPUT FILENAME        mobley_5326154_min
Info: BINARY OUTPUT FILES WILL BE USED
Info: RESTART FILENAME       mobley_5326154_min.restart
Info: RESTART FREQUENCY      5000
Info: BINARY RESTART FILES WILL BE USED
Info: CUTOFF                 9
Info: PAIRLIST DISTANCE      11
Info: PAIRLIST SHRINK RATE   0.01
Info: PAIRLIST GROW RATE     0.01
Info: PAIRLIST TRIGGER       0.3
Info: PAIRLISTS PER CYCLE    2
Info: PAIRLISTS ENABLED
Info: MARGIN                 8
Info: HYDROGEN GROUP CUTOFF  2.5
Info: PATCH DIMENSION        21.5
Info: ENERGY OUTPUT STEPS    5000
Info: ENERGY EVALUATION STEPS    5000
Info: OUTPUT ENERGY PRECISION 4
Info: CROSSTERM ENERGY INCLUDED IN DIHEDRAL
Info: TIMING OUTPUT STEPS    50000
Info: PRESSURE OUTPUT STEPS  5000
Info: LANGEVIN DYNAMICS ACTIVE
Info: LANGEVIN TEMPERATURE   300
Info: LANGEVIN USING BBK INTEGRATOR
Info: LANGEVIN DAMPING COEFFICIENT IS 1 INVERSE PS
Info: LANGEVIN DYNAMICS APPLIED TO HYDROGENS
Info: LANGEVIN PISTON PRESSURE CONTROL ACTIVE
Info:        TARGET PRESSURE IS 1.01325 BAR
Info:     OSCILLATION PERIOD IS 50 FS
Info:             DECAY TIME IS 25 FS
Info:     PISTON TEMPERATURE IS 300 K
Info:       PRESSURE CONTROL IS GROUP-BASED
Info:    INITIAL STRAIN RATE IS 0 0 0
Info:       CELL FLUCTUATION IS ISOTROPIC
Info: PARTICLE MESH EWALD (PME) ACTIVE
Info: PME TOLERANCE               1e-06
Info: PME EWALD COEFFICIENT       0.348832
Info: PME INTERPOLATION ORDER     4
Info: PME GRID DIMENSIONS         40 40 44
Info: PME MAXIMUM GRID SPACING    1
Info: FULL ELECTROSTATIC EVALUATION FREQUENCY      2
Info: USING VERLET I (r-RESPA) MTS SCHEME.
Info: C1 SPLITTING OF LONG RANGE ELECTROSTATICS
Info: PLACING ATOMS IN PATCHES BY HYDROGEN GROUPS
Info: RIGID BONDS TO HYDROGEN : ALL
Info:         ERROR TOLERANCE : 1e-08
Info:          MAX ITERATIONS : 100
Info: RIGID WATER USING SETTLE ALGORITHM
Info: RANDOM NUMBER SEED     1741343110
Info: USE HYDROGEN BONDS?    NO
Info: Using AMBER format force field!
Info: AMBER PARM FILE        mobley_5326154.prmtop
Info: COORDINATE PDB         mobley_5326154.pdb
Info: Exclusions will be read from PARM file!
Info: SCNB (VDW SCALING)     2
Info: USING ARITHMETIC MEAN TO COMBINE L-J SIGMA PARAMETERS
Info: SUMMARY OF PARAMETERS:
Info: 7 BONDS
Info: 7 ANGLES
Info: 5 DIHEDRAL
Info: 0 IMPROPER
Info: 0 CROSSTERM
Info: 0 VDW
Info: 28 VDW_PAIRS
Info: 0 NBTHOLE_PAIRS
Info: STRUCTURE SUMMARY:
Info: 4670 ATOMS
Info: 4670 BONDS
Info: 33 ANGLES
Info: 45 DIHEDRALS
Info: 0 IMPROPERS
Info: 0 CROSSTERMS
Info: 4740 EXCLUSIONS
Info: 4661 RIGID BONDS
Info: 9349 DEGREES OF FREEDOM
Info: 1559 HYDROGEN GROUPS
Info: 4 ATOMS IN LARGEST HYDROGEN GROUP
Info: 1559 MIGRATION GROUPS
Info: 4 ATOMS IN LARGEST MIGRATION GROUP
Info: TOTAL MASS = 28046 amu
Info: TOTAL CHARGE = -0.00029996 e
Info: MASS DENSITY = 0.72165 g/cm^3
Info: ATOM DENSITY = 0.0723625 atoms/A^3
Info: ADDED 0 IMPLICIT EXCLUSIONS
Info: NONBONDED TABLE R-SQUARED SPACING: 0.0625
Info: NONBONDED TABLE SIZE: 705 POINTS
Info: REMOVING COM VELOCITY -0.0633239 -0.0583254 -0.14097
TCL: Minimizing for 2000 steps
ETITLE: TS BOND ANGLE DIHED IMPRP ELECT VDW BOUNDARY MISC KINETIC TOTAL TEMP POTENTIAL TOTAL3 TEMPAVG PRESSURE GPRESSURE VOLUME PRESSAVG GPRESSAVG
ENERGY: 0 0.0614 0.2937 3.5290 0.0000 -14485.8080 1672.3726 0.0000 0.0000 0.0000 -12809.5514 0.0000 -12809.5514 -12809.5514 0.0000 11242.2170 -15556.5792 64536.1775 11242.2170 -15556.5792
ENERGY: 400 3.2869 1.8433 6.7709 0.0000 -19390.9873 2758.1169 0.0000 0.0000 0.0000 -16620.9692 0.0000 -16620.9692 -16620.9692 0.0000 15314.4542 15036.3388 64536.1775 15314.4542 15036.3388
ENERGY: 800 1.2881 0.5596 5.1920 0.0000 -20441.6591 3249.9465 0.0000 0.0000 0.0000 -17184.6729 0.0000 -17184.6729 -17184.6729 0.0000 17691.1700 17363.0322 64536.1775 17691.1700 17363.0322
ENERGY: 1200 0.2553 0.7040 4.9099 0.0000 -20976.0181 3509.3850 0.0000 0.0000 0.0000 -17460.7639 0.0000 -17460.7639 -17460.7639 0.0000 19038.8208 18750.6738 64536.1775 19038.8208 18750.6738
ENERGY: 1600 1.0804 0.5098 3.7987 0.0000 -21273.5672 3672.8229 0.0000 0.0000 0.0000 -17595.3553 0.0000 -17595.3553 -17595.3553 0.0000 19899.0619 19605.2784 64536.1775 19899.0619 19605.2784
ENERGY: 2000 0.6542 0.4202 3.6802 0.0000 -21344.9612 3689.8832 0.0000 0.0000 0.0000 -17650.3235 0.0000 -17650.3235 -17650.3235 0.0000 19993.8859 19705.5545 64536.1775 19993.8859 19705.5545
TCL: Exiting due to exit command.
Info: NAMD 3.0.1 for Linux-x86_64-multicore
Info: Please visit http://www.ks.uiuc.edu/Research/namd/
Info: for updates, documentation, and support information.
Info: Please cite Phillips et al., J. Chem. Phys. 153:044130 (2020) doi:10.1063/5.0014475
Info: in all publications reporting results obtained with NAMD.
Info: Based on Charm++/Converse 80000 for multicore-linux-x86_64-gcc
Info: Built Mon Oct 14 11:11:06 CDT 2024 by dhardy on athine.ks.uiuc.edu
Info: 1 NAMD  3.0.1  Linux-x86_64-multicore  16    k026  z5358697
Info: Running on 16 processors, 1 nodes, 1 physical nodes.
Info: CPU topology information available.
Info: Charm++/Converse parallel runtime startup completed at 0.00725549 s
Info: 1043.46 MB of memory in use based on /proc/self/stat
Info: Configuration file is mobley_5326154_equil.namd
Info: Working in the current directory /srv/scratch/z5358697/prod_prep_6/5326154
TCL: Running 25000 steps at 30 kelvin.
TCL: Suspending until startup complete.
Info: SIMULATION PARAMETERS:
Info: TIMESTEP               2
Info: NUMBER OF STEPS        0
Info: STEPS PER CYCLE        10
Info: PERIODIC CELL BASIS 1  39.806 0 0
Info: PERIODIC CELL BASIS 2  0 37.835 0
Info: PERIODIC CELL BASIS 3  0 0 42.851
Info: PERIODIC CELL CENTER   0 0 0
Info: WRAPPING WATERS AROUND PERIODIC BOUNDARIES ON OUTPUT.
Info: WRAPPING ALL CLUSTERS AROUND PERIODIC BOUNDARIES ON OUTPUT.
Info: FIRST LDB TIMESTEP     50
Info: LAST LDB TIMESTEP     -1
Info: HOM BACKGROUND SCALING 1
Info: PME BACKGROUND SCALING 1
Info: MIN ATOMS PER PATCH    40
Info: EMPTY PATCH LOAD       40 ATOMS
Info: INITIAL TEMPERATURE    300
Info: CENTER OF MASS MOVING INITIALLY? NO
Info: DIELECTRIC             1
Info: EXCLUDE                SCALED ONE-FOUR
Info: 1-4 ELECTROSTATICS SCALED BY 0.833333
Info: MODIFIED 1-4 VDW PARAMETERS WILL BE USED
Info: DCD FILENAME           mobley_5326154_equil.dcd
Info: DCD FREQUENCY          5000
Info: DCD FIRST STEP         5000
Info: DCD FILE WILL CONTAIN UNIT CELL DATA
Info: XST FILENAME           mobley_5326154_equil.xst
Info: XST FREQUENCY          5000
Info: NO VELOCITY DCD OUTPUT
Info: NO FORCE DCD OUTPUT
Info: OUTPUT FILENAME        mobley_5326154_equil
Info: BINARY OUTPUT FILES WILL BE USED
Info: RESTART FILENAME       mobley_5326154_equil.restart
Info: RESTART FREQUENCY      5000
Info: BINARY RESTART FILES WILL BE USED
Info: CUTOFF                 9
Info: PAIRLIST DISTANCE      11
Info: PAIRLIST SHRINK RATE   0.01
Info: PAIRLIST GROW RATE     0.01
Info: PAIRLIST TRIGGER       0.3
Info: PAIRLISTS PER CYCLE    2
Info: PAIRLISTS ENABLED
Info: MARGIN                 8
Info: HYDROGEN GROUP CUTOFF  2.5
Info: PATCH DIMENSION        21.5
Info: ENERGY OUTPUT STEPS    5000
Info: ENERGY EVALUATION STEPS    5000
Info: OUTPUT ENERGY PRECISION 4
Info: CROSSTERM ENERGY INCLUDED IN DIHEDRAL
Info: TIMING OUTPUT STEPS    50000
Info: PRESSURE OUTPUT STEPS  5000
Info: LANGEVIN DYNAMICS ACTIVE
Info: LANGEVIN TEMPERATURE   30
Info: LANGEVIN USING BBK INTEGRATOR
Info: LANGEVIN DAMPING COEFFICIENT IS 1 INVERSE PS
Info: LANGEVIN DYNAMICS APPLIED TO HYDROGENS
Info: LANGEVIN PISTON PRESSURE CONTROL ACTIVE
Info:        TARGET PRESSURE IS 1.01325 BAR
Info:     OSCILLATION PERIOD IS 50 FS
Info:             DECAY TIME IS 25 FS
Info:     PISTON TEMPERATURE IS 300 K
Info:       PRESSURE CONTROL IS GROUP-BASED
Info:    INITIAL STRAIN RATE IS 0 0 0
Info:       CELL FLUCTUATION IS ISOTROPIC
Info: PARTICLE MESH EWALD (PME) ACTIVE
Info: PME TOLERANCE               1e-06
Info: PME EWALD COEFFICIENT       0.348832
Info: PME INTERPOLATION ORDER     4
Info: PME GRID DIMENSIONS         40 40 44
Info: PME MAXIMUM GRID SPACING    1
Info: FULL ELECTROSTATIC EVALUATION FREQUENCY      2
Info: USING VERLET I (r-RESPA) MTS SCHEME.
Info: C1 SPLITTING OF LONG RANGE ELECTROSTATICS
Info: PLACING ATOMS IN PATCHES BY HYDROGEN GROUPS
Info: RIGID BONDS TO HYDROGEN : ALL
Info:         ERROR TOLERANCE : 1e-08
Info:          MAX ITERATIONS : 100
Info: RIGID WATER USING SETTLE ALGORITHM
Info: RANDOM NUMBER SEED     1741343124
Info: USE HYDROGEN BONDS?    NO
Info: Using AMBER format force field!
Info: AMBER PARM FILE        mobley_5326154.prmtop
Info: COORDINATE PDB         mobley_5326154.pdb
Info: Exclusions will be read from PARM file!
Info: SCNB (VDW SCALING)     2
Info: USING ARITHMETIC MEAN TO COMBINE L-J SIGMA PARAMETERS
Info: BINARY COORDINATES     mobley_5326154_min.coor
Info: SUMMARY OF PARAMETERS:
Info: 7 BONDS
Info: 7 ANGLES
Info: 5 DIHEDRAL
Info: 0 IMPROPER
Info: 0 CROSSTERM
Info: 0 VDW
Info: 28 VDW_PAIRS
Info: 0 NBTHOLE_PAIRS
Info: STRUCTURE SUMMARY:
Info: 4670 ATOMS
Info: 4670 BONDS
Info: 33 ANGLES
Info: 45 DIHEDRALS
Info: 0 IMPROPERS
Info: 0 CROSSTERMS
Info: 4740 EXCLUSIONS
Info: 4661 RIGID BONDS
Info: 9349 DEGREES OF FREEDOM
Info: 1559 HYDROGEN GROUPS
Info: 4 ATOMS IN LARGEST HYDROGEN GROUP
Info: 1559 MIGRATION GROUPS
Info: 4 ATOMS IN LARGEST MIGRATION GROUP
Info: TOTAL MASS = 28046 amu
Info: TOTAL CHARGE = -0.00029996 e
Info: MASS DENSITY = 0.72165 g/cm^3
Info: ATOM DENSITY = 0.0723625 atoms/A^3
Info: ADDED 0 IMPLICIT EXCLUSIONS
Info: NONBONDED TABLE R-SQUARED SPACING: 0.0625
Info: NONBONDED TABLE SIZE: 705 POINTS
Info: REMOVING COM VELOCITY -0.0410087 -0.0738097 -0.105737
TCL: Running for 25000 steps
ETITLE: TS BOND ANGLE DIHED IMPRP ELECT VDW BOUNDARY MISC KINETIC TOTAL TEMP POTENTIAL TOTAL3 TEMPAVG PRESSURE GPRESSURE VOLUME PRESSAVG GPRESSAVG
ENERGY: 0 0.6542 0.4202 3.6802 0.0000 -21344.9612 3689.8832 0.0000 0.0000 2715.6370 -14934.6866 292.3459 -17650.3235 -14934.1569 292.3459 246.1952 278.9692 64536.1775 246.1952 278.9692
ENERGY: 5000 0.2896 0.7179 3.9449 0.0000 -22318.8043 3828.3694 0.0000 0.0000 271.9221 -18213.5603 29.2732 -18485.4824 -18212.9413 47.6459 -221.6210 -163.9376 45574.3782 1.5097 1.6113
ENERGY: 10000 1.0135 1.0784 4.1060 0.0000 -22410.6831 3872.6912 0.0000 0.0000 281.2990 -18250.4951 30.2826 -18531.7940 -18249.7047 30.3628 -112.4163 -68.0769 45409.5325 4.2617 4.2839
ENERGY: 15000 0.4491 1.0097 3.9539 0.0000 -22682.5302 4113.8109 0.0000 0.0000 283.0067 -18280.3000 30.4665 -18563.3067 -18279.6018 30.0626 1178.8487 1224.0085 45003.0418 -0.7606 -0.9573
ENERGY: 20000 0.5753 0.6422 4.0295 0.0000 -22540.5197 3952.2515 0.0000 0.0000 279.6984 -18303.3226 30.1103 -18583.0210 -18302.4923 30.0427 202.2644 262.0096 45319.8777 3.0848 3.0445
ENERGY: 25000 0.9713 1.3785 3.5759 0.0000 -22508.9227 3904.5656 0.0000 0.0000 274.6972 -18323.7342 29.5719 -18598.4314 -18323.0290 30.2127 -56.8375 6.3126 45141.7047 2.0692 1.9930
TCL: Running 25000 steps at 60 kelvin.
TCL: Setting parameter langevinTemp to 60
TCL: Running for 25000 steps
ETITLE: TS BOND ANGLE DIHED IMPRP ELECT VDW BOUNDARY MISC KINETIC TOTAL TEMP POTENTIAL TOTAL3 TEMPAVG PRESSURE GPRESSURE VOLUME PRESSAVG GPRESSAVG
ENERGY: 25000 0.9713 1.3785 3.5759 0.0000 -22508.9227 3904.5656 0.0000 0.0000 274.5619 -18323.8695 29.5573 -18598.4314 -18323.2889 29.5573 -38.8566 6.3455 45141.7047 -38.8566 6.3455
ENERGY: 30000 0.6839 1.2702 4.3594 0.0000 -22035.2820 3691.7959 0.0000 0.0000 558.4155 -17778.7570 60.1150 -18337.1725 -17777.2304 57.1962 -611.6170 -534.6255 45438.1621 2.8560 2.9274
ENERGY: 35000 1.1390 1.5939 4.6909 0.0000 -22027.3334 3631.2471 0.0000 0.0000 563.5562 -17825.1063 60.6684 -18388.6625 -17823.6920 60.0780 -1042.0344 -996.9619 45565.6067 5.8840 5.8879
ENERGY: 40000 1.4531 1.3294 5.2193 0.0000 -22215.8337 3791.7197 0.0000 0.0000 552.7146 -17863.3975 59.5013 -18416.1122 -17861.6730 59.7759 -243.5237 -198.9771 45211.3671 3.1347 3.2706
ENERGY: 45000 0.8516 1.3833 5.1589 0.0000 -22126.1837 3703.4601 0.0000 0.0000 549.1078 -17866.2221 59.1130 -18415.3299 -17864.7707 59.7889 -656.0045 -610.6865 45309.4088 5.2177 5.0846
ENERGY: 50000 0.9186 1.8124 4.7998 0.0000 -22308.8192 3871.5216 0.0000 0.0000 551.9727 -17877.7941 59.4214 -18429.7668 -17876.5491 60.0327 360.0232 376.4066 44940.4083 2.4704 2.1393
TCL: Running 25000 steps at 90 kelvin.
TCL: Setting parameter langevinTemp to 90
TCL: Running for 25000 steps
ETITLE: TS BOND ANGLE DIHED IMPRP ELECT VDW BOUNDARY MISC KINETIC TOTAL TEMP POTENTIAL TOTAL3 TEMPAVG PRESSURE GPRESSURE VOLUME PRESSAVG GPRESSAVG
ENERGY: 50000 0.9186 1.8124 4.7998 0.0000 -22308.8192 3871.5216 0.0000 0.0000 551.7002 -17878.0666 59.3921 -18429.7668 -17876.8495 59.3921 331.4623 376.2375 44940.4083 331.4623 376.2375
ENERGY: 55000 1.0943 1.2252 5.0987 0.0000 -21731.7341 3582.3187 0.0000 0.0000 833.2044 -17308.7928 89.6968 -18141.9972 -17306.1918 87.0087 -597.4663 -557.2071 45511.0322 0.4647 0.5260
ENERGY: 60000 1.3020 3.0934 4.2564 0.0000 -21980.0282 3776.5318 0.0000 0.0000 857.6354 -17337.2092 92.3268 -18194.8447 -17335.3829 90.5882 258.6576 301.9411 45408.6103 -0.0820 0.0393
ENERGY: 65000 0.4712 2.3421 4.2550 0.0000 -22002.9738 3787.8250 0.0000 0.0000 834.5060 -17373.5745 89.8369 -18208.0805 -17371.6656 90.4391 399.3577 430.7817 45138.8536 4.9778 5.1456
ENERGY: 70000 1.5005 3.3519 5.5047 0.0000 -21917.9681 3695.8466 0.0000 0.0000 859.1684 -17352.5960 92.4919 -18211.7643 -17350.9003 89.9812 -181.3174 -137.5781 45429.0721 -0.3187 -0.4030
ENERGY: 75000 0.8459 2.1901 5.6410 0.0000 -22034.3709 3770.5548 0.0000 0.0000 840.3917 -17414.7475 90.4705 -18255.1392 -17412.1030 90.1229 203.2139 293.8304 45108.9600 -1.4318 -1.9278
TCL: Running 25000 steps at 120 kelvin.
TCL: Setting parameter langevinTemp to 120
TCL: Running for 25000 steps
ETITLE: TS BOND ANGLE DIHED IMPRP ELECT VDW BOUNDARY MISC KINETIC TOTAL TEMP POTENTIAL TOTAL3 TEMPAVG PRESSURE GPRESSURE VOLUME PRESSAVG GPRESSAVG
ENERGY: 75000 0.8459 2.1901 5.6410 0.0000 -22034.3709 3770.5548 0.0000 0.0000 839.9806 -17415.1586 90.4262 -18255.1392 -17413.5116 90.4262 239.5815 294.3966 45108.9600 239.5815 294.3966
ENERGY: 80000 2.1959 3.0287 5.4080 0.0000 -21604.9465 3674.9394 0.0000 0.0000 1129.2554 -16790.1192 121.5675 -17919.3745 -16787.2223 117.6809 224.6192 341.4341 45641.2751 2.4452 2.8401
ENERGY: 85000 1.3888 2.2224 5.5773 0.0000 -21400.1813 3495.3446 0.0000 0.0000 1112.4013 -16783.2468 119.7531 -17895.6481 -16782.1851 120.7224 -539.0945 -455.0253 45753.9589 -0.3734 -0.2181
ENERGY: 90000 0.6086 2.8637 4.3312 0.0000 -21612.9515 3578.0726 0.0000 0.0000 1111.1827 -16915.8928 119.6219 -18027.0755 -16912.8653 120.1136 -292.2319 -222.5841 45416.1418 3.1980 3.0277
ENERGY: 95000 0.1727 2.0900 5.7756 0.0000 -21645.2370 3625.9860 0.0000 0.0000 1098.9466 -16912.2662 118.3047 -18011.2128 -16908.4900 119.4894 30.6749 112.8206 45307.3198 -0.8019 -0.7464
ENERGY: 100000 2.2956 4.5834 4.8804 0.0000 -21436.8593 3421.4975 0.0000 0.0000 1102.3245 -16901.2778 118.6683 -18003.6024 -16898.9116 120.6780 -1232.8835 -1168.6879 45867.3868 2.4682 2.5691
TCL: Running 25000 steps at 150 kelvin.
TCL: Setting parameter langevinTemp to 150
TCL: Running for 25000 steps
ETITLE: TS BOND ANGLE DIHED IMPRP ELECT VDW BOUNDARY MISC KINETIC TOTAL TEMP POTENTIAL TOTAL3 TEMPAVG PRESSURE GPRESSURE VOLUME PRESSAVG GPRESSAVG
ENERGY: 100000 2.2956 4.5834 4.8804 0.0000 -21436.8593 3421.4975 0.0000 0.0000 1101.7793 -16901.8231 118.6096 -18003.6024 -16899.7344 118.6096 -1219.2988 -1169.2983 45867.3868 -1219.2988 -1169.2983
ENERGY: 105000 1.5512 3.2964 5.0680 0.0000 -21412.4493 3679.6665 0.0000 0.0000 1383.3280 -16339.5392 148.9191 -17722.8671 -16335.0883 147.5892 921.4370 1022.5488 45368.1457 4.3653 3.9953
ENERGY: 110000 0.9592 1.8894 4.7609 0.0000 -21173.5937 3504.1290 0.0000 0.0000 1388.7577 -16273.0974 149.5036 -17661.8552 -16270.5114 151.1515 80.4103 85.4691 45851.3158 4.3235 4.8232
ENERGY: 115000 1.6352 5.1023 6.6310 0.0000 -21152.5112 3416.6881 0.0000 0.0000 1391.8351 -16330.6195 149.8349 -17722.4546 -16326.9465 151.0956 -615.1731 -543.4757 45793.4369 2.7728 2.7690
ENERGY: 120000 0.8662 4.0409 3.5013 0.0000 -21337.3657 3530.6077 0.0000 0.0000 1418.3440 -16380.0056 152.6887 -17798.3496 -16376.9889 149.6272 14.0870 39.6409 45435.9253 6.6284 6.3866
ENERGY: 125000 1.5878 5.0109 5.0636 0.0000 -21432.8670 3611.8162 0.0000 0.0000 1432.5903 -16376.7981 154.2223 -17809.3884 -16373.9710 149.7948 320.3755 424.5482 45470.6785 -0.7591 -0.6592
TCL: Running 50000 steps at 180 kelvin.
TCL: Setting parameter langevinTemp to 180
TCL: Running for 50000 steps
ETITLE: TS BOND ANGLE DIHED IMPRP ELECT VDW BOUNDARY MISC KINETIC TOTAL TEMP POTENTIAL TOTAL3 TEMPAVG PRESSURE GPRESSURE VOLUME PRESSAVG GPRESSAVG
ENERGY: 125000 1.5878 5.0109 5.0636 0.0000 -21432.8670 3611.8162 0.0000 0.0000 1431.8815 -16377.5069 154.1460 -17809.3884 -16375.0172 154.1460 378.0332 425.2435 45470.6785 378.0332 425.2435
ENERGY: 135000 3.2378 4.0262 5.9755 0.0000 -20639.9295 3268.7729 0.0000 0.0000 1646.3937 -15711.5235 177.2389 -17357.9172 -15708.3636 180.4194 -435.6576 -383.5934 45800.0789 1.0256 0.9800
ENERGY: 145000 1.1486 3.4247 6.3259 0.0000 -20617.3626 3282.3292 0.0000 0.0000 1712.2620 -15611.8722 184.3298 -17324.1342 -15607.1704 181.8977 -178.4414 -96.9320 45504.1618 2.7015 2.6631
ENERGY: 155000 2.2694 4.4685 4.6303 0.0000 -20700.0942 3296.1209 0.0000 0.0000 1664.4668 -15728.1383 179.1845 -17392.6050 -15721.4519 180.1763 -501.5113 -446.1165 46081.0241 0.4011 0.6046
ENERGY: 165000 1.9963 4.7895 5.5689 0.0000 -20921.6885 3533.0311 0.0000 0.0000 1648.4126 -15727.8900 177.4562 -17376.3026 -15724.0097 179.9357 1055.3871 1067.3321 45514.1718 3.1352 3.5656
ENERGY: 175000 2.4338 3.6505 5.1430 0.0000 -20845.0594 3395.6958 0.0000 0.0000 1649.7620 -15788.3743 177.6015 -17438.1363 -15785.0146 180.0909 11.5572 56.1153 45846.6933 -0.4563 -0.2488
TCL: Running 50000 steps at 210 kelvin.
TCL: Setting parameter langevinTemp to 210
TCL: Running for 50000 steps
ETITLE: TS BOND ANGLE DIHED IMPRP ELECT VDW BOUNDARY MISC KINETIC TOTAL TEMP POTENTIAL TOTAL3 TEMPAVG PRESSURE GPRESSURE VOLUME PRESSAVG GPRESSAVG
ENERGY: 175000 2.4338 3.6505 5.1430 0.0000 -20845.0594 3395.6958 0.0000 0.0000 1648.9390 -15789.1974 177.5129 -17438.1363 -15786.5082 177.5129 -11.2170 55.7046 45846.6933 -11.2170 55.7046
ENERGY: 185000 3.0832 4.9806 5.5070 0.0000 -19671.4767 3033.0181 0.0000 0.0000 1904.1819 -14720.7059 204.9905 -16624.8878 -14715.3214 210.7359 -55.7672 9.0017 45950.2481 3.5941 3.2193
ENERGY: 195000 1.8577 6.2935 6.9625 0.0000 -19528.6514 2896.3852 0.0000 0.0000 1999.8699 -14617.2827 215.2915 -16617.1526 -14613.7733 211.3080 -673.8144 -610.0076 45995.6250 6.6006 6.7942
ENERGY: 205000 2.6553 3.4397 4.6017 0.0000 -19799.3377 3101.6740 0.0000 0.0000 2018.2113 -14668.7557 217.2660 -16686.9670 -14665.0397 209.8626 231.8987 352.9146 45975.3176 1.7618 2.2466
ENERGY: 215000 2.8069 4.5981 5.0216 0.0000 -19828.7238 3141.9964 0.0000 0.0000 1975.9806 -14698.3202 212.7198 -16674.3008 -14694.6894 208.1352 719.9664 720.1434 45536.8063 4.5377 4.3770
ENERGY: 225000 2.6947 4.0373 6.7103 0.0000 -19619.0942 2968.0879 0.0000 0.0000 1974.1398 -14663.4242 212.5216 -16637.5639 -14660.9825 209.1885 -437.8129 -346.5470 46094.6531 1.8132 1.9063
TCL: Running 50000 steps at 240 kelvin.
TCL: Setting parameter langevinTemp to 240
TCL: Running for 50000 steps
ETITLE: TS BOND ANGLE DIHED IMPRP ELECT VDW BOUNDARY MISC KINETIC TOTAL TEMP POTENTIAL TOTAL3 TEMPAVG PRESSURE GPRESSURE VOLUME PRESSAVG GPRESSAVG
ENERGY: 225000 2.6947 4.0373 6.7103 0.0000 -19619.0942 2968.0879 0.0000 0.0000 1973.1573 -14664.4066 212.4159 -16637.5639 -14660.9701 212.4159 -421.0326 -347.3023 46094.6531 -421.0326 -347.3023
ENERGY: 235000 2.1550 7.2960 7.3852 0.0000 -18750.5370 2734.5779 0.0000 0.0000 2234.6131 -13764.5098 240.5623 -15999.1229 -13759.7274 241.1715 70.6281 160.2220 45707.0191 -0.8913 -0.7558
ENERGY: 245000 2.3561 5.7354 6.4184 0.0000 -18747.2696 2696.4463 0.0000 0.0000 2220.5960 -13815.7175 239.0533 -16036.3134 -13810.7714 240.1273 -427.0087 -380.6741 46212.1227 5.9350 5.7835
ENERGY: 255000 1.5976 5.9237 6.6768 0.0000 -18659.9939 2729.9379 0.0000 0.0000 2211.9183 -13703.9395 238.1191 -15915.8578 -13698.4136 239.7639 195.8609 252.5118 45825.7363 1.6918 1.6915
ENERGY: 265000 1.0746 5.8143 7.3119 0.0000 -18650.4309 2699.7588 0.0000 0.0000 2211.5457 -13724.9256 238.0790 -15936.4714 -13721.9202 239.9594 -14.1642 31.9680 46187.3882 2.6623 2.4686
ENERGY: 275000 2.5286 4.7067 7.6633 0.0000 -18654.1740 2681.8520 0.0000 0.0000 2268.9197 -13688.5038 244.2555 -15957.4235 -13683.2771 240.6174 -357.8444 -260.6515 46220.7670 3.1203 3.1361
TCL: Running 50000 steps at 270 kelvin.
TCL: Setting parameter langevinTemp to 270
TCL: Running for 50000 steps
ETITLE: TS BOND ANGLE DIHED IMPRP ELECT VDW BOUNDARY MISC KINETIC TOTAL TEMP POTENTIAL TOTAL3 TEMPAVG PRESSURE GPRESSURE VOLUME PRESSAVG GPRESSAVG
ENERGY: 275000 2.5286 4.7067 7.6633 0.0000 -18654.1740 2681.8520 0.0000 0.0000 2267.7652 -13689.6583 244.1312 -15957.4235 -13685.5592 244.1312 -328.7411 -259.3185 46220.7670 -328.7411 -259.3185
ENERGY: 285000 3.4736 6.9571 8.3748 0.0000 -17762.8483 2379.6096 0.0000 0.0000 2447.2356 -12917.1977 263.4517 -15364.4333 -12910.8398 270.5249 -659.3431 -583.4978 47104.4896 4.0911 3.7682
ENERGY: 295000 1.5023 7.6976 6.5558 0.0000 -17938.5346 2568.4639 0.0000 0.0000 2543.0849 -12811.2301 273.7701 -15354.3150 -12807.7429 270.8843 437.0517 494.1016 46647.3712 3.1687 3.5531
ENERGY: 305000 3.5804 6.4237 8.0048 0.0000 -17620.7206 2452.8389 0.0000 0.0000 2497.1019 -12652.7710 268.8199 -15149.8728 -12645.2650 269.8441 -82.9073 30.9022 47293.9167 0.2979 0.1760
ENERGY: 315000 2.9772 6.2745 5.9613 0.0000 -17873.0925 2539.3473 0.0000 0.0000 2497.6502 -12820.8820 268.8790 -15318.5321 -12818.0389 270.9670 241.9344 350.9775 46621.4618 1.3746 0.8696
ENERGY: 325000 2.7767 8.4158 5.1215 0.0000 -17988.9276 2652.3566 0.0000 0.0000 2520.2098 -12800.0472 271.3076 -15320.2570 -12794.7276 269.4754 595.3255 674.9369 47333.5236 4.7905 5.1312
TCL: Running 1000000 steps at 300 kelvin.
TCL: Setting parameter langevinTemp to 300
TCL: Running for 1000000 steps
ETITLE: TS BOND ANGLE DIHED IMPRP ELECT VDW BOUNDARY MISC KINETIC TOTAL TEMP POTENTIAL TOTAL3 TEMPAVG PRESSURE GPRESSURE VOLUME PRESSAVG GPRESSAVG
ENERGY: 325000 2.7767 8.4158 5.1215 0.0000 -17988.9276 2652.3566 0.0000 0.0000 2518.9707 -12801.2863 271.1742 -15320.2570 -12798.1123 271.1742 592.7758 674.8137 47333.5236 592.7758 674.8137
ENERGY: 525000 2.9153 7.6269 11.4751 0.0000 -16910.4712 2245.5055 0.0000 0.0000 2757.5103 -11885.4381 296.8536 -14642.9484 -11877.8623 299.6296 -346.8542 -200.0268 48655.6654 -1.4265 -1.1549
ENERGY: 725000 5.1027 5.8718 4.1022 0.0000 -16945.5938 2272.1840 0.0000 0.0000 2810.6585 -11847.6746 302.5752 -14658.3332 -11841.8051 300.7485 137.4332 231.4375 47483.3426 5.0118 5.0182
ENERGY: 925000 3.6648 4.7307 6.7565 0.0000 -16960.1761 2308.9154 0.0000 0.0000 2779.3377 -11856.7711 299.2034 -14636.1088 -11853.3726 300.4862 93.8405 214.8294 48267.6655 5.4737 5.3265
ENERGY: 1125000 2.7188 7.5150 8.8422 0.0000 -17004.7894 2255.9982 0.0000 0.0000 2778.5145 -11951.2006 299.1148 -14729.7151 -11946.2744 298.4205 -396.3124 -301.8085 48153.9879 1.6293 1.0420
ENERGY: 1325000 1.9112 8.1042 4.5531 0.0000 -17078.7600 2347.6258 0.0000 0.0000 2743.6614 -11972.9042 295.3628 -14716.5656 -11967.7736 299.9891 208.2675 313.1122 48110.7364 -1.1042 -1.1241
TCL: Exiting due to exit command.
