Info: SIMULATION PARAMETERS:
Info: TIMESTEP               1
Info: NUMBER OF STEPS        0
Info: STEPS PER CYCLE        10
Info: PERIODIC CELL BASIS 1  30 0 0
Info: PERIODIC CELL BASIS 2  0 30 0
Info: PERIODIC CELL BASIS 3  0 0 30
Info: PERIODIC CELL CENTER   0 0 0
Info: WRAPPING ALL CLUSTERS AROUND PERIODIC BOUNDARIES ON OUTPUT.
Info: FIRST LDB TIMESTEP     50
Info: LAST LDB TIMESTEP     -1
Info: HOM BACKGROUND SCALING 1
Info: MIN ATOMS PER PATCH    40
Info: EMPTY PATCH LOAD       40 ATOMS
Info: INITIAL TEMPERATURE    298
Info: CENTER OF MASS MOVING INITIALLY? NO
Info: DIELECTRIC             1
Info: EXCLUDE                SCALED ONE-FOUR
Info: 1-4 ELECTROSTATICS SCALED BY 1
Info: MODIFIED 1-4 VDW PARAMETERS WILL BE USED
Info: DCD FILENAME           output.dcd
Info: DCD FREQUENCY          25000
Info: DCD FIRST STEP         25000
Info: DCD FILE WILL CONTAIN UNIT CELL DATA
Info: NO EXTENDED SYSTEM TRAJECTORY OUTPUT
Info: NO VELOCITY DCD OUTPUT
Info: NO FORCE DCD OUTPUT
Info: OUTPUT FILENAME        output
Info: BINARY OUTPUT FILES WILL BE USED
Info: NO RESTART FILE
Info: SWITCHING ACTIVE
Info: SWITCHING ON           10
Info: SWITCHING OFF          12
Info: PAIRLIST DISTANCE      14
Info: PAIRLIST SHRINK RATE   0.01
Info: PAIRLIST GROW RATE     0.01
Info: PAIRLIST TRIGGER       0.3
Info: PAIRLISTS PER CYCLE    2
Info: PAIRLISTS ENABLED
Info: MARGIN                 0
Info: HYDROGEN GROUP CUTOFF  2.5
Info: PATCH DIMENSION        16.5
Info: ENERGY OUTPUT STEPS    25000
Info: ENERGY EVALUATION STEPS    25000
Info: OUTPUT ENERGY PRECISION 4
Info: CROSSTERM ENERGY INCLUDED IN DIHEDRAL
Info: TIMING OUTPUT STEPS    25000
Info: LANGEVIN DYNAMICS ACTIVE
Info: LANGEVIN TEMPERATURE   298
Info: LANGEVIN USING BBK INTEGRATOR
Info: LANGEVIN DAMPING COEFFICIENT IS 1 INVERSE PS
Info: LANGEVIN DYNAMICS NOT APPLIED TO HYDROGENS
Info: MULTILEVEL SUMMATION METHOD (MSM) FOR ELECTROSTATICS ACTIVE
Info: MSM WITH C1 CUBIC INTERPOLATION AND C2 TAYLOR SPLITTING
Info: FULL ELECTROSTATIC EVALUATION FREQUENCY      1
Info: USING VERLET I (r-RESPA) MTS SCHEME.
Info: C1 SPLITTING OF LONG RANGE ELECTROSTATICS
Info: PLACING ATOMS IN PATCHES BY HYDROGEN GROUPS
Info: RIGID BONDS TO HYDROGEN : ALL
Info:         ERROR TOLERANCE : 1e-08
Info:          MAX ITERATIONS : 100
Info: RIGID WATER USING SETTLE ALGORITHM
Info: RANDOM NUMBER SEED     1740224901
Info: USE HYDROGEN BONDS?    NO
Info: COORDINATE PDB         ionized.pdb
Info: STRUCTURE FILE         ionized.psf
Info: PARAMETER file: CHARMM format!
Info: PARAMETERS             par_all27_prot_lipid.inp
Info: USING ARITHMETIC MEAN TO COMBINE L-J SIGMA PARAMETERS
Info: SUMMARY OF PARAMETERS:
Info: 180 BONDS
Info: 447 ANGLES
Info: 566 DIHEDRAL
Info: 46 IMPROPER
Info: 6 CROSSTERM
Info: 119 VDW
Info: 0 VDW_PAIRS
Info: 0 NBTHOLE_PAIRS
Info: STRUCTURE SUMMARY:
Info: 2476 ATOMS
Info: 1650 BONDS
Info: 825 ANGLES
Info: 0 DIHEDRALS
Info: 0 IMPROPERS
Info: 0 CROSSTERMS
Info: 0 EXCLUSIONS
Info: 2475 RIGID BONDS
Info: 4953 DEGREES OF FREEDOM
Info: 826 HYDROGEN GROUPS
Info: 3 ATOMS IN LARGEST HYDROGEN GROUP
Info: 826 MIGRATION GROUPS
Info: 3 ATOMS IN LARGEST MIGRATION GROUP
Info: TOTAL MASS = 14885.7 amu
Info: TOTAL CHARGE = 1 e
Info: MASS DENSITY = 0.915513 g/cm^3
Info: ATOM DENSITY = 0.0917037 atoms/A^3
Info: ADDED 2475 IMPLICIT EXCLUSIONS
Info: NONBONDED TABLE R-SQUARED SPACING: 0.0625
Info: NONBONDED TABLE SIZE: 769 POINTS
Info: REMOVING COM VELOCITY -0.11284 0.117834 -0.207399
Info: MSM using C1 cubic interpolation
Info: MSM using C2 Taylor splitting function
Info: MSM block size decomposition along X is 8 grid points
Info: MSM block size decomposition along Y is 8 grid points
Info: MSM block size decomposition along Z is 8 grid points
Info: MSM grid spacing along X is 2.5 A
Info: MSM grid spacing along Y is 2.5 A
Info: MSM grid spacing along Z is 2.5 A
Info: MSM using 3 levels
Info:     level 0:  [0..11] x [0..11] x [0..11]
Info:     level 1:  [0..5] x [0..5] x [0..5]
Info:     level 2:  [0..2] x [0..2] x [0..2]
Info: MSM finished calculating stencils
Info: MSM finished creating map for grid levels
Info: MSM finished creating map for patches
Info: MSM has 9 interpolation / anterpolation objects (one per patch)
Info: MSM grid level 0 decomposed into 8 blocks ( 2 x 2 x 2 )
Info: MSM grid level 1 decomposed into 1 block ( 1 x 1 x 1 )
Info: MSM grid level 2 decomposed into 1 block ( 1 x 1 x 1 )
Info: MSM grid cutoff calculation decomposed into 783 work objects
TCL: Minimizing for 100 steps
ETITLE: TS BOND ANGLE DIHED IMPRP ELECT VDW BOUNDARY MISC KINETIC TOTAL TEMP POTENTIAL TOTAL3 TEMPAVG PRESSURE GPRESSURE VOLUME PRESSAVG GPRESSAVG
ENERGY: 0 0.0000 0.0000 0.0000 0.0000 -7348.6494 6353.7252 0.0000 0.0000 0.0000 -994.9243 0.0000 -994.9243 -994.9243 0.0000 75204.0846 46356.0498 27000.0000 75204.0846 46356.0498
ENERGY: 20 0.0000 0.0000 0.0000 0.0000 -8744.5972 644.7588 0.0000 0.0000 0.0000 -8099.8384 0.0000 -8099.8384 -8099.8384 0.0000 14286.6723 -2608.4245 27000.0000 14286.6723 -2608.4245
ENERGY: 40 0.0000 0.0000 0.0000 0.0000 -9255.3679 673.7887 0.0000 0.0000 0.0000 -8581.5791 0.0000 -8581.5791 -8581.5791 0.0000 14306.7125 -3612.4724 27000.0000 14306.7125 -3612.4724
ENERGY: 60 0.0000 0.0000 0.0000 0.0000 -9570.7009 738.1056 0.0000 0.0000 0.0000 -8832.5953 0.0000 -8832.5953 -8832.5953 0.0000 14889.9954 -3661.0804 27000.0000 14889.9954 -3661.0804
ENERGY: 80 0.0000 0.0000 0.0000 0.0000 -9709.9421 782.3832 0.0000 0.0000 0.0000 -8927.5589 0.0000 -8927.5589 -8927.5589 0.0000 15330.8924 -3519.5694 27000.0000 15330.8924 -3519.5694
ENERGY: 100 0.0000 0.0000 0.0000 0.0000 -9870.8952 823.6258 0.0000 0.0000 0.0000 -9047.2693 0.0000 -9047.2693 -9047.2693 0.0000 15747.1897 15671.1056 27000.0000 15747.1897 15671.1056
TCL: Running for 5000000 steps
ETITLE: TS BOND ANGLE DIHED IMPRP ELECT VDW BOUNDARY MISC KINETIC TOTAL TEMP POTENTIAL TOTAL3 TEMPAVG PRESSURE GPRESSURE VOLUME PRESSAVG GPRESSAVG
ENERGY: 25000 0.0000 0.0000 0.0000 0.0000 -8784.7511 835.9691 0.0000 0.0000 1449.4421 -6499.3399 294.5255 -7948.7820 -6498.4768 284.9004 -1282.7636 -1277.9562 27000.0000 -1486.0274 -1486.0235
ENERGY: 1025000 0.0000 0.0000 0.0000 0.0000 -8823.7587 867.2331 0.0000 0.0000 1458.2975 -6498.2281 296.3249 -7956.5255 -6496.9042 300.3018 -954.5806 -943.9659 27000.0000 -1287.3909 -1287.3363
ENERGY: 2025000 0.0000 0.0000 0.0000 0.0000 -8759.1616 791.7154 0.0000 0.0000 1456.9781 -6510.4681 296.0568 -7967.4462 -6510.0559 297.7396 -1808.1165 -1828.0218 27000.0000 -1345.6186 -1345.6641
ENERGY: 3000000 0.0000 0.0000 0.0000 0.0000 -8928.3432 873.8242 0.0000 0.0000 1445.9318 -6608.5871 293.8122 -8054.5189 -6608.0445 294.0053 -1187.8428 -1189.7615 27000.0000 -1352.1388 -1352.1409
ENERGY: 4000000 0.0000 0.0000 0.0000 0.0000 -8840.0283 877.3746 0.0000 0.0000 1472.4386 -6490.2150 299.1984 -7962.6536 -6490.5705 297.2217 -976.2488 -986.4258 27000.0000 -1332.3534 -1332.3430
ENERGY: 5000000 0.0000 0.0000 0.0000 0.0000 -8751.5509 848.5549 0.0000 0.0000 1511.9900 -6391.0060 307.2352 -7902.9960 -6390.8634 295.9487 -937.0006 -935.5125 27000.0000 -1293.9903 -1293.9700
