Info: SIMULATION PARAMETERS:
Info: TIMESTEP               2
Info: NUMBER OF STEPS        0
Info: STEPS PER CYCLE        10
Info: PERIODIC CELL BASIS 1  35.01 0 0
Info: PERIODIC CELL BASIS 2  0 34.26 0
Info: PERIODIC CELL BASIS 3  0 0 36.199
Info: PERIODIC CELL CENTER   0 0 0
Info: WRAPPING WATERS AROUND PERIODIC BOUNDARIES ON OUTPUT.
Info: WRAPPING ALL CLUSTERS AROUND PERIODIC BOUNDARIES ON OUTPUT.
Info: FIRST LDB TIMESTEP     50
Info: LAST LDB TIMESTEP     -1
Info: HOM BACKGROUND SCALING 1
Info: PME BACKGROUND SCALING 1
Info: MIN ATOMS PER PATCH    40
Info: EMPTY PATCH LOAD       40 ATOMS
Info: INITIAL TEMPERATURE    300
Info: CENTER OF MASS MOVING INITIALLY? NO
Info: DIELECTRIC             1
Info: EXCLUDE                SCALED ONE-FOUR
Info: 1-4 ELECTROSTATICS SCALED BY 0.833333
Info: MODIFIED 1-4 VDW PARAMETERS WILL BE USED
Info: DCD FILENAME           mobley_5692472_equil.dcd
Info: DCD FREQUENCY          100000
Info: DCD FIRST STEP         100000
Info: DCD FILE WILL CONTAIN UNIT CELL DATA
Info: XST FILENAME           mobley_5692472_equil.xst
Info: XST FREQUENCY          100000
Info: NO VELOCITY DCD OUTPUT
Info: NO FORCE DCD OUTPUT
Info: OUTPUT FILENAME        mobley_5692472_equil
Info: BINARY OUTPUT FILES WILL BE USED
Info: RESTART FILENAME       mobley_5692472_equil.restart
Info: RESTART FREQUENCY      100000
Info: BINARY RESTART FILES WILL BE USED
Info: CUTOFF                 9
Info: PAIRLIST DISTANCE      11
Info: PAIRLIST SHRINK RATE   0.01
Info: PAIRLIST GROW RATE     0.01
Info: PAIRLIST TRIGGER       0.3
Info: PAIRLISTS PER CYCLE    2
Info: PAIRLISTS ENABLED
Info: MARGIN                 8
Info: HYDROGEN GROUP CUTOFF  2.5
Info: PATCH DIMENSION        21.5
Info: ENERGY OUTPUT STEPS    100000
Info: ENERGY EVALUATION STEPS    100000
Info: OUTPUT ENERGY PRECISION 4
Info: CROSSTERM ENERGY INCLUDED IN DIHEDRAL
Info: TIMING OUTPUT STEPS    1000000
Info: PRESSURE OUTPUT STEPS  100000
Info: LANGEVIN DYNAMICS ACTIVE
Info: LANGEVIN TEMPERATURE   30
Info: LANGEVIN USING BBK INTEGRATOR
Info: LANGEVIN DAMPING COEFFICIENT IS 1 INVERSE PS
Info: LANGEVIN DYNAMICS APPLIED TO HYDROGENS
Info: LANGEVIN PISTON PRESSURE CONTROL ACTIVE
Info:        TARGET PRESSURE IS 1.01325 BAR
Info:     OSCILLATION PERIOD IS 50 FS
Info:             DECAY TIME IS 25 FS
Info:     PISTON TEMPERATURE IS 300 K
Info:       PRESSURE CONTROL IS GROUP-BASED
Info:    INITIAL STRAIN RATE IS 0 0 0
Info:       CELL FLUCTUATION IS ISOTROPIC
Info: PARTICLE MESH EWALD (PME) ACTIVE
Info: PME TOLERANCE               1e-06
Info: PME EWALD COEFFICIENT       0.348832
Info: PME INTERPOLATION ORDER     4
Info: PME GRID DIMENSIONS         36 36 40
Info: PME MAXIMUM GRID SPACING    1
Info: FULL ELECTROSTATIC EVALUATION FREQUENCY      2
Info: USING VERLET I (r-RESPA) MTS SCHEME.
Info: C1 SPLITTING OF LONG RANGE ELECTROSTATICS
Info: PLACING ATOMS IN PATCHES BY HYDROGEN GROUPS
Info: RIGID BONDS TO HYDROGEN : ALL
Info:         ERROR TOLERANCE : 1e-08
Info:          MAX ITERATIONS : 100
Info: RIGID WATER USING SETTLE ALGORITHM
Info: RANDOM NUMBER SEED     1742449455
Info: USE HYDROGEN BONDS?    NO
Info: Using AMBER format force field!
Info: AMBER PARM FILE        mobley_5692472.prmtop
Info: COORDINATE PDB         mobley_5692472.pdb
Info: Exclusions will be read from PARM file!
Info: SCNB (VDW SCALING)     2
Info: USING ARITHMETIC MEAN TO COMBINE L-J SIGMA PARAMETERS
Info: BINARY COORDINATES     mobley_5692472_min.coor
Info: SUMMARY OF PARAMETERS:
Info: 5 BONDS
Info: 4 ANGLES
Info:   4 HARMONIC
Info:   0 COSINE-BASED
Info: 2 DIHEDRAL
Info: 0 IMPROPER
Info: 0 CROSSTERM
Info: 0 VDW
Info: 21 VDW_PAIRS
Info: 0 NBTHOLE_PAIRS
Info: STRUCTURE SUMMARY:
Info: 2941 ATOMS
Info: 2940 BONDS
Info: 15 ANGLES
Info: 12 DIHEDRALS
Info: 0 IMPROPERS
Info: 0 CROSSTERMS
Info: 2967 EXCLUSIONS
Info: 2938 RIGID BONDS
Info: 5885 DEGREES OF FREEDOM
Info: 980 HYDROGEN GROUPS
Info: 4 ATOMS IN LARGEST HYDROGEN GROUP
Info: 980 MIGRATION GROUPS
Info: 4 ATOMS IN LARGEST MIGRATION GROUP
Info: TOTAL MASS = 17646.7 amu
Info: TOTAL CHARGE = 7.45058e-09 e
Info: MASS DENSITY = 0.674912 g/cm^3
Info: ATOM DENSITY = 0.0677359 atoms/A^3
Info: ADDED 0 IMPLICIT EXCLUSIONS
Info: NONBONDED TABLE R-SQUARED SPACING: 0.0625
Info: NONBONDED TABLE SIZE: 705 POINTS
Info: REMOVING COM VELOCITY -0.256727 0.0290816 -0.0476483
TCL: Running for 100000 steps
ETITLE: TS BOND ANGLE DIHED IMPRP ELECT VDW BOUNDARY MISC KINETIC TOTAL TEMP POTENTIAL TOTAL3 TEMPAVG PRESSURE GPRESSURE VOLUME PRESSAVG GPRESSAVG
ENERGY: 0 0.0506 0.1153 0.0041 0.0000 -13635.4620 2406.6066 0.0000 0.0000 1753.2156 -9475.4698 299.8329 -11228.6854 -9475.1280 299.8329 403.9029 436.6337 43418.6227 403.9029 436.6337
ENERGY: 100000 0.0112 0.8629 0.0644 0.0000 -14157.2494 2422.2264 0.0000 0.0000 169.6947 -11564.3899 29.0210 -11734.0846 -11563.8603 30.8817 -446.1315 -382.4109 28885.0359 3.8540 3.8932
TCL: Running 100000 steps at 60 kelvin.
TCL: Setting parameter langevinTemp to 60
TCL: Running for 100000 steps
ETITLE: TS BOND ANGLE DIHED IMPRP ELECT VDW BOUNDARY MISC KINETIC TOTAL TEMP POTENTIAL TOTAL3 TEMPAVG PRESSURE GPRESSURE VOLUME PRESSAVG GPRESSAVG
ENERGY: 100000 0.0112 0.8629 0.0644 0.0000 -14157.2494 2422.2264 0.0000 0.0000 169.6051 -11564.4795 29.0057 -11734.0846 -11564.0818 29.0057 -439.1651 -382.4223 28885.0359 -439.1651 -382.4223
ENERGY: 200000 0.1797 0.7865 0.0629 0.0000 -14059.5210 2427.6918 0.0000 0.0000 348.1914 -11282.6088 59.5473 -11630.8002 -11281.5473 59.9809 -4.0188 52.7389 28844.8635 2.8616 2.8693
TCL: Running 100000 steps at 90 kelvin.
TCL: Setting parameter langevinTemp to 90
TCL: Running for 100000 steps
ETITLE: TS BOND ANGLE DIHED IMPRP ELECT VDW BOUNDARY MISC KINETIC TOTAL TEMP POTENTIAL TOTAL3 TEMPAVG PRESSURE GPRESSURE VOLUME PRESSAVG GPRESSAVG
ENERGY: 200000 0.1797 0.7865 0.0629 0.0000 -14059.5210 2427.6918 0.0000 0.0000 348.0205 -11282.7797 59.5181 -11630.8002 -11282.1814 59.5181 -10.0135 52.7359 28844.8635 -10.0135 52.7359
ENERGY: 300000 0.1945 1.2021 0.0712 0.0000 -13918.0663 2360.5328 0.0000 0.0000 538.2232 -11017.8424 92.0463 -11556.0656 -11016.4316 89.8793 -227.0842 -182.8277 28807.8100 4.1104 4.0722
TCL: Running 100000 steps at 120 kelvin.
TCL: Setting parameter langevinTemp to 120
TCL: Running for 100000 steps
ETITLE: TS BOND ANGLE DIHED IMPRP ELECT VDW BOUNDARY MISC KINETIC TOTAL TEMP POTENTIAL TOTAL3 TEMPAVG PRESSURE GPRESSURE VOLUME PRESSAVG GPRESSAVG
ENERGY: 300000 0.1945 1.2021 0.0712 0.0000 -13918.0663 2360.5328 0.0000 0.0000 537.9466 -11018.1190 91.9990 -11556.0656 -11017.1987 91.9990 -244.6232 -183.1986 28807.8100 -244.6232 -183.1986
ENERGY: 400000 0.4214 1.1912 0.9592 0.0000 -13745.5300 2338.2210 0.0000 0.0000 718.4095 -10686.3278 122.8615 -11404.7372 -10684.3511 119.8658 166.2480 252.2604 28677.3780 3.7530 3.7179
TCL: Running 100000 steps at 150 kelvin.
TCL: Setting parameter langevinTemp to 150
TCL: Running for 100000 steps
ETITLE: TS BOND ANGLE DIHED IMPRP ELECT VDW BOUNDARY MISC KINETIC TOTAL TEMP POTENTIAL TOTAL3 TEMPAVG PRESSURE GPRESSURE VOLUME PRESSAVG GPRESSAVG
ENERGY: 400000 0.4214 1.1912 0.9592 0.0000 -13745.5300 2338.2210 0.0000 0.0000 718.0517 -10686.6855 122.8004 -11404.7372 -10685.2154 122.8004 197.2305 252.5059 28677.3780 197.2305 252.5059
ENERGY: 500000 0.0150 1.8979 0.1936 0.0000 -13572.8844 2273.1771 0.0000 0.0000 875.7607 -10421.8402 149.7716 -11297.6008 -10419.9209 150.1134 0.4207 34.0998 28746.3623 2.6183 2.5595
TCL: Running 100000 steps at 180 kelvin.
TCL: Setting parameter langevinTemp to 180
TCL: Running for 100000 steps
ETITLE: TS BOND ANGLE DIHED IMPRP ELECT VDW BOUNDARY MISC KINETIC TOTAL TEMP POTENTIAL TOTAL3 TEMPAVG PRESSURE GPRESSURE VOLUME PRESSAVG GPRESSAVG
ENERGY: 500000 0.0150 1.8979 0.1936 0.0000 -13572.8844 2273.1771 0.0000 0.0000 875.3099 -10422.2909 149.6945 -11297.6008 -10420.6303 149.6945 -3.7569 34.7672 28746.3623 -3.7569 34.7672
ENERGY: 600000 0.0060 3.2624 0.3559 0.0000 -12966.9716 2030.9083 0.0000 0.0000 1059.8863 -9872.5527 181.2605 -10932.4390 -9869.3600 179.9577 -692.7991 -640.1076 28866.5892 2.8831 3.0360
TCL: Running 100000 steps at 210 kelvin.
TCL: Setting parameter langevinTemp to 210
TCL: Running for 100000 steps
ETITLE: TS BOND ANGLE DIHED IMPRP ELECT VDW BOUNDARY MISC KINETIC TOTAL TEMP POTENTIAL TOTAL3 TEMPAVG PRESSURE GPRESSURE VOLUME PRESSAVG GPRESSAVG
ENERGY: 600000 0.0060 3.2624 0.3559 0.0000 -12966.9716 2030.9083 0.0000 0.0000 1059.3735 -9873.0655 181.1728 -10932.4390 -9870.5881 181.1728 -706.3720 -639.3428 28866.5892 -706.3720 -639.3428
ENERGY: 700000 0.2281 4.4011 0.7340 0.0000 -12211.0477 1692.1919 0.0000 0.0000 1241.0754 -9272.4171 212.2473 -10513.4926 -9269.6106 209.8438 -1760.8247 -1643.1158 28727.2494 4.6485 4.6699
TCL: Running 100000 steps at 240 kelvin.
TCL: Setting parameter langevinTemp to 240
TCL: Running for 100000 steps
ETITLE: TS BOND ANGLE DIHED IMPRP ELECT VDW BOUNDARY MISC KINETIC TOTAL TEMP POTENTIAL TOTAL3 TEMPAVG PRESSURE GPRESSURE VOLUME PRESSAVG GPRESSAVG
ENERGY: 700000 0.2281 4.4011 0.7340 0.0000 -12211.0477 1692.1919 0.0000 0.0000 1240.4615 -9273.0310 212.1423 -10513.4926 -9270.4474 212.1423 -1719.6635 -1642.4755 28727.2494 -1719.6635 -1642.4755
ENERGY: 800000 0.1661 3.0648 0.0741 0.0000 -11730.5123 1659.3666 0.0000 0.0000 1443.5956 -8624.2451 246.8820 -10067.8407 -8620.0812 239.4610 -625.8317 -529.7833 29110.6713 4.1206 4.1551
TCL: Running 100000 steps at 270 kelvin.
TCL: Setting parameter langevinTemp to 270
TCL: Running for 100000 steps
ETITLE: TS BOND ANGLE DIHED IMPRP ELECT VDW BOUNDARY MISC KINETIC TOTAL TEMP POTENTIAL TOTAL3 TEMPAVG PRESSURE GPRESSURE VOLUME PRESSAVG GPRESSAVG
ENERGY: 800000 0.1661 3.0648 0.0741 0.0000 -11730.5123 1659.3666 0.0000 0.0000 1442.8621 -8624.9786 246.7566 -10067.8407 -8622.4628 246.7566 -607.5031 -530.9082 29110.6713 -607.5031 -530.9082
ENERGY: 900000 2.0242 3.8813 0.6245 0.0000 -11159.9931 1519.5541 0.0000 0.0000 1581.7596 -8052.1495 270.5107 -9633.9091 -8049.5513 270.2756 -371.0962 -311.0786 29530.4541 2.7881 2.7678
TCL: Running 1000000 steps at 300 kelvin.
TCL: Setting parameter langevinTemp to 300
TCL: Running for 1000000 steps
ETITLE: TS BOND ANGLE DIHED IMPRP ELECT VDW BOUNDARY MISC KINETIC TOTAL TEMP POTENTIAL TOTAL3 TEMPAVG PRESSURE GPRESSURE VOLUME PRESSAVG GPRESSAVG
ENERGY: 900000 2.0242 3.8813 0.6245 0.0000 -11159.9931 1519.5541 0.0000 0.0000 1580.9604 -8052.9486 270.3740 -9633.9091 -8050.9270 270.3740 -389.3454 -311.0844 29530.4541 -389.3454 -311.0844
ENERGY: 1100000 1.2582 1.8809 2.5531 0.0000 -10514.4021 1375.5815 0.0000 0.0000 1754.1295 -7378.9988 299.9892 -9133.1283 -7375.8606 299.8364 -343.2170 -274.9917 30537.1904 3.0732 3.2203
ENERGY: 1300000 0.5060 3.3552 0.5336 0.0000 -10705.3840 1453.5943 0.0000 0.0000 1744.3456 -7503.0495 298.3159 -9247.3950 -7499.8549 300.1415 -115.4579 -129.0123 30756.5923 4.0551 4.0186
ENERGY: 1500000 0.1736 4.0295 0.3372 0.0000 -10695.3198 1453.0585 0.0000 0.0000 1771.4028 -7466.3182 302.9432 -9237.7210 -7463.4650 300.3139 193.6941 301.3181 30080.6444 4.5360 4.6273
ENERGY: 1700000 0.6361 4.5075 1.6477 0.0000 -10800.5341 1505.0828 0.0000 0.0000 1716.8855 -7571.7745 293.6197 -9288.6600 -7568.4212 299.8191 118.5626 228.0507 30490.4486 2.1698 2.2712
ENERGY: 1900000 0.1646 6.2705 0.2667 0.0000 -10635.0239 1411.1538 0.0000 0.0000 1739.1170 -7478.0513 297.4217 -9217.1683 -7472.3206 300.1254 -36.1867 50.7341 29991.7466 2.9965 3.0339
TCL: Exiting due to exit command.
