Info: SIMULATION PARAMETERS:
Info: TIMESTEP               2
Info: NUMBER OF STEPS        0
Info: STEPS PER CYCLE        10
Info: PERIODIC CELL BASIS 1  31.0078 0 0
Info: PERIODIC CELL BASIS 2  0 30.3644 0
Info: PERIODIC CELL BASIS 3  0 0 32.0829
Info: PERIODIC CELL CENTER   0 0 0
Info: WRAPPING WATERS AROUND PERIODIC BOUNDARIES ON OUTPUT.
Info: WRAPPING ALL CLUSTERS AROUND PERIODIC BOUNDARIES ON OUTPUT.
Info: FIRST LDB TIMESTEP     50
Info: LAST LDB TIMESTEP     -1
Info: HOM BACKGROUND SCALING 1
Info: PME BACKGROUND SCALING 1
Info: MIN ATOMS PER PATCH    40
Info: EMPTY PATCH LOAD       40 ATOMS
Info: VELOCITY FILE          mobley_9246351_equil.vel
Info: CENTER OF MASS MOVING INITIALLY? NO
Info: DIELECTRIC             1
Info: EXCLUDE                SCALED ONE-FOUR
Info: 1-4 ELECTROSTATICS SCALED BY 0.833333
Info: MODIFIED 1-4 VDW PARAMETERS WILL BE USED
Info: DCD FILENAME           mobley_9246351_prod.dcd
Info: DCD FREQUENCY          100000
Info: DCD FIRST STEP         100000
Info: DCD FILE WILL CONTAIN UNIT CELL DATA
Info: XST FILENAME           mobley_9246351_prod.xst
Info: XST FREQUENCY          100000
Info: NO VELOCITY DCD OUTPUT
Info: NO FORCE DCD OUTPUT
Info: OUTPUT FILENAME        mobley_9246351_prod
Info: BINARY OUTPUT FILES WILL BE USED
Info: RESTART FILENAME       mobley_9246351_prod.restart
Info: RESTART FREQUENCY      100000
Info: BINARY RESTART FILES WILL BE USED
Info: CUTOFF                 9
Info: PAIRLIST DISTANCE      11
Info: PAIRLIST SHRINK RATE   0.01
Info: PAIRLIST GROW RATE     0.01
Info: PAIRLIST TRIGGER       0.3
Info: PAIRLISTS PER CYCLE    2
Info: PAIRLISTS ENABLED
Info: MARGIN                 2
Info: HYDROGEN GROUP CUTOFF  2.5
Info: PATCH DIMENSION        15.5
Info: ENERGY OUTPUT STEPS    100000
Info: ENERGY EVALUATION STEPS    100000
Info: OUTPUT ENERGY PRECISION 4
Info: CROSSTERM ENERGY INCLUDED IN DIHEDRAL
Info: TIMING OUTPUT STEPS    1000000
Info: PRESSURE OUTPUT STEPS  100000
Info: ALCHEMICAL FEP ON
Info: FEP CURRENT LAMBDA VALUE     1
Info: FEP COMPARISON LAMBDA VALUE  0.95
Info: FEP INTRA-ALCHEMICAL NON-BONDED INTERACTIONS WILL BE RETAINED
Info: FEP INTRA-ALCHEMICAL BONDED INTERACTIONS WILL BE RETAINED
Info: FEP VDW SHIFTING COEFFICIENT 5
Info: FEP ELEC. ACTIVE FOR ANNIHILATED PARTICLES BETWEEN LAMBDA = 0 AND LAMBDA = 0.5
Info: FEP ELEC. ACTIVE FOR EXNIHILATED PARTICLES BETWEEN LAMBDA = 0.5 AND LAMBDA = 1
Info: FEP VDW ACTIVE FOR ANNIHILATED PARTICLES BETWEEN LAMBDA = 0 AND LAMBDA = 1
Info: FEP VDW ACTIVE FOR EXNIHILATED PARTICLES BETWEEN LAMBDA = 0 AND LAMBDA = 1
Info: FEP BOND ACTIVE FOR ANNIHILATED PARTICLES BETWEEN LAMBDA = 1 AND LAMBDA = 1
Info: FEP BOND ACTIVE FOR EXNIHILATED PARTICLES BETWEEN LAMBDA = 0 AND LAMBDA = 0
Info: LANGEVIN DYNAMICS ACTIVE
Info: LANGEVIN TEMPERATURE   300
Info: LANGEVIN USING BBK INTEGRATOR
Info: LANGEVIN DAMPING COEFFICIENT IS 1 INVERSE PS
Info: LANGEVIN DYNAMICS APPLIED TO HYDROGENS
Info: LANGEVIN PISTON PRESSURE CONTROL ACTIVE
Info:        TARGET PRESSURE IS 1.01325 BAR
Info:     OSCILLATION PERIOD IS 50 FS
Info:             DECAY TIME IS 25 FS
Info:     PISTON TEMPERATURE IS 300 K
Info:       PRESSURE CONTROL IS GROUP-BASED
Info:    INITIAL STRAIN RATE IS -0.000868642 -0.000868642 -0.000868642
Info:       CELL FLUCTUATION IS ISOTROPIC
Info: PARTICLE MESH EWALD (PME) ACTIVE
Info: PME TOLERANCE               1e-06
Info: PME EWALD COEFFICIENT       0.348832
Info: PME INTERPOLATION ORDER     4
Info: PME GRID DIMENSIONS         32 32 36
Info: PME MAXIMUM GRID SPACING    1
Info: PME CALCULATION WILL BE PERFORMED ON GPU
Info: FULL ELECTROSTATIC EVALUATION FREQUENCY      2
Info: USING VERLET I (r-RESPA) MTS SCHEME.
Info: C1 SPLITTING OF LONG RANGE ELECTROSTATICS
Info: PLACING ATOMS IN PATCHES BY HYDROGEN GROUPS
Info: RIGID BONDS TO HYDROGEN : ALL
Info:         ERROR TOLERANCE : 1e-08
Info:          MAX ITERATIONS : 100
Info: RIGID WATER USING SETTLE ALGORITHM
Info: RANDOM NUMBER SEED     1742001788
Info: USE HYDROGEN BONDS?    NO
Info: Using AMBER format force field!
Info: AMBER PARM FILE        mobley_9246351.prmtop
Info: COORDINATE PDB         mobley_9246351.pdb
Info: Exclusions will be read from PARM file!
Info: SCNB (VDW SCALING)     2
Info: USING ARITHMETIC MEAN TO COMBINE L-J SIGMA PARAMETERS
Info: BINARY COORDINATES     mobley_9246351_equil.coor
Info: SUMMARY OF PARAMETERS:
Info: 4 BONDS
Info: 3 ANGLES
Info:   3 HARMONIC
Info:   0 COSINE-BASED
Info: 0 DIHEDRAL
Info: 0 IMPROPER
Info: 0 CROSSTERM
Info: 0 VDW
Info: 15 VDW_PAIRS
Info: 0 NBTHOLE_PAIRS
Info: To read alchdata from file: mobley_9246351.pdb
Info: To read alchflag data from column: 5
Info: STRUCTURE SUMMARY:
Info: 2906 ATOMS
Info: 2905 BONDS
Info: 6 ANGLES
Info: 0 DIHEDRALS
Info: 0 IMPROPERS
Info: 0 CROSSTERMS
Info: 2911 EXCLUSIONS
Info: 2903 RIGID BONDS
Info: ALCH: 0 ATOMS TO DISAPPEAR IN FINAL STATE
Info: ALCH: 5 ATOMS TO APPEAR IN FINAL STATE
Info: 5815 DEGREES OF FREEDOM
Info: 970 HYDROGEN GROUPS
Info: 3 ATOMS IN LARGEST HYDROGEN GROUP
Info: 970 MIGRATION GROUPS
Info: 3 ATOMS IN LARGEST MIGRATION GROUP
Info: TOTAL MASS = 17595.3 amu
Info: TOTAL CHARGE = -0.000100001 e
Info: MASS DENSITY = 0.967269 g/cm^3
Info: ATOM DENSITY = 0.0962026 atoms/A^3
Info: ADDED 0 IMPLICIT EXCLUSIONS
Info: NONBONDED TABLE R-SQUARED SPACING: 0.0625
Info: NONBONDED TABLE SIZE: 705 POINTS
Info: REMOVING COM VELOCITY -0.039076 0.0188189 -0.156563
Info: Use 3D box decompostion in PME FFT.
Info: Updated CUDA force table with 4096 elements.
Info: Updated CUDA LJ table with 5 x 5 elements.
Info: Found 8 unique exclusion lists needing 8 bytes
TCL: Running for 1500000 steps
ETITLE: TS BOND ANGLE DIHED IMPRP ELECT VDW BOUNDARY MISC KINETIC TOTAL TEMP POTENTIAL TOTALAVG TEMPAVG PRESSURE GPRESSURE VOLUME PRESSAVG GPRESSAVG
ENERGY: 0 0.2846 1.8348 0.0000 0.0000 -10503.9049 1386.6409 0.0000 0.0000 1716.0695 -7399.0751 297.0131 -9115.1446 -7399.0751 297.0131 -253.7959 -157.2966 30207.0844 -253.7959 -157.2966
ENERGY: 300000 0.2677 0.4753 0.0000 0.0000 -10574.6267 1473.6646 0.0000 0.0000 1723.9940 -7376.2251 298.3846 -9100.2192 -7404.3853 299.5343 650.2473 750.1072 29653.0639 -126.9585 -39.0228
ENERGY: 600000 0.3156 1.9297 0.0000 0.0000 -10519.7946 1374.8722 0.0000 0.0000 1730.2946 -7412.3824 299.4751 -9142.6770 -7405.3533 300.5437 20.7471 100.3650 29506.7683 59.2883 133.7488
ENERGY: 900000 1.5387 1.2680 0.0000 0.0000 -10479.5034 1319.7917 0.0000 0.0000 1759.6859 -7397.2191 304.5621 -9156.9050 -7410.2945 300.6320 -680.2404 -635.9478 29621.7199 -41.7966 26.7907
ENERGY: 1200000 0.5557 3.5242 0.0000 0.0000 -10560.3233 1377.7052 0.0000 0.0000 1798.0423 -7380.4959 311.2007 -9178.5382 -7406.4954 301.9373 -656.7401 -646.6410 30567.6529 56.1856 112.4126
ENERGY: 1500000 0.1789 0.4122 0.0000 0.0000 -10609.5881 1453.6452 0.0000 0.0000 1726.2033 -7429.1484 298.7670 -9155.3517 -7408.3435 301.7040 72.2797 130.9252 30350.4628 48.7333 107.1046
TCL: Running FEP window   2: Lambda1 0.95   Lambda2 0.8999999999999999 [dLambda -0.050000000000000044]
TCL: Setting parameter firsttimestep to 0
TCL: Setting parameter alchLambda to 0.95
Info: NONBONDED TABLE R-SQUARED SPACING: 0.0625
Info: NONBONDED TABLE SIZE: 705 POINTS
TCL: Setting parameter alchLambda2 to 0.8999999999999999
Info: NONBONDED TABLE R-SQUARED SPACING: 0.0625
Info: NONBONDED TABLE SIZE: 705 POINTS
TCL: Running for 1500000 steps
ETITLE: TS BOND ANGLE DIHED IMPRP ELECT VDW BOUNDARY MISC KINETIC TOTAL TEMP POTENTIAL TOTALAVG TEMPAVG PRESSURE GPRESSURE VOLUME PRESSAVG GPRESSAVG
ENERGY: 0 0.1789 0.4122 0.0000 0.0000 -10609.2935 1454.0228 0.0000 0.0000 1725.3449 -7429.3347 298.6184 -9154.6796 -7429.3347 298.6184 61.5125 127.0361 30350.4628 61.5125 127.0361
ENERGY: 300000 0.2500 1.7344 0.0000 0.0000 -10457.5980 1373.9360 0.0000 0.0000 1750.4414 -7331.2362 302.9621 -9081.6776 -7383.6970 299.9204 -126.6066 -54.4171 29956.8196 327.5685 385.7139
ENERGY: 600000 0.7334 2.1775 0.0000 0.0000 -10635.4185 1381.7307 0.0000 0.0000 1711.0054 -7539.7715 296.1366 -9250.7769 -7392.9785 301.1448 -786.4933 -727.3302 30082.9437 65.8954 111.8897
ENERGY: 900000 0.7509 1.8163 0.0000 0.0000 -10587.9990 1427.4131 0.0000 0.0000 1686.3547 -7471.6640 291.8701 -9158.0187 -7399.1145 300.2943 269.8781 358.5842 29191.6745 102.7287 159.2106
ENERGY: 1200000 0.6075 1.4056 0.0000 0.0000 -10523.2563 1416.6489 0.0000 0.0000 1735.6969 -7368.8973 300.4101 -9104.5942 -7397.9330 300.7766 -73.8224 -42.6039 30321.6980 0.0767 61.1158
ENERGY: 1500000 0.4914 1.1210 0.0000 0.0000 -10577.5659 1406.2432 0.0000 0.0000 1716.7983 -7452.9120 297.1392 -9169.7104 -7400.5760 300.3701 -271.9576 -133.4901 30009.2355 -59.0580 8.3442
TCL: Running FEP window   3: Lambda1 0.8999999999999999 Lambda2 0.8499999999999999 [dLambda -0.050000000000000044]
TCL: Setting parameter firsttimestep to 0
TCL: Setting parameter alchLambda to 0.8999999999999999
Info: NONBONDED TABLE R-SQUARED SPACING: 0.0625
Info: NONBONDED TABLE SIZE: 705 POINTS
TCL: Setting parameter alchLambda2 to 0.8499999999999999
Info: NONBONDED TABLE R-SQUARED SPACING: 0.0625
Info: NONBONDED TABLE SIZE: 705 POINTS
TCL: Running for 1500000 steps
ETITLE: TS BOND ANGLE DIHED IMPRP ELECT VDW BOUNDARY MISC KINETIC TOTAL TEMP POTENTIAL TOTALAVG TEMPAVG PRESSURE GPRESSURE VOLUME PRESSAVG GPRESSAVG
ENERGY: 0 0.4914 1.1210 0.0000 0.0000 -10577.3862 1406.5888 0.0000 0.0000 1715.9229 -7453.2621 296.9877 -9169.1850 -7453.2621 296.9877 -222.0202 -134.0709 30009.2355 -222.0202 -134.0709
ENERGY: 300000 0.2588 2.6706 0.0000 0.0000 -10544.9153 1416.6926 0.0000 0.0000 1721.1537 -7404.1397 297.8930 -9125.2933 -7415.8953 300.0150 -83.4095 7.3219 30096.5644 -119.9417 -31.3277
ENERGY: 600000 1.2467 2.9663 0.0000 0.0000 -10459.9969 1344.9176 0.0000 0.0000 1685.1874 -7425.6789 291.6681 -9110.8663 -7415.8774 300.5321 -445.2092 -393.2161 29913.2650 -268.1256 -190.5703
ENERGY: 900000 1.9058 2.5550 0.0000 0.0000 -10645.3501 1522.2872 0.0000 0.0000 1772.8065 -7345.7956 306.8330 -9118.6021 -7393.1420 301.9903 893.0315 927.8199 29984.9536 -167.5771 -94.8003
ENERGY: 1200000 0.2459 0.9745 0.0000 0.0000 -10534.5168 1394.0231 0.0000 0.0000 1785.8038 -7353.4694 309.0825 -9139.2733 -7383.2829 302.6647 -102.8050 -53.6474 29937.0911 -154.2770 -92.3514
ENERGY: 1500000 0.0968 0.8711 0.0000 0.0000 -10524.6290 1380.5980 0.0000 0.0000 1746.6912 -7396.3719 302.3130 -9143.0631 -7387.2807 301.8901 -514.0018 -394.8050 30249.0184 -164.8983 -106.9332
TCL: Running FEP window   4: Lambda1 0.8499999999999999 Lambda2 0.7999999999999998 [dLambda -0.050000000000000044]
TCL: Setting parameter firsttimestep to 0
TCL: Setting parameter alchLambda to 0.8499999999999999
Info: NONBONDED TABLE R-SQUARED SPACING: 0.0625
Info: NONBONDED TABLE SIZE: 705 POINTS
TCL: Setting parameter alchLambda2 to 0.7999999999999998
Info: NONBONDED TABLE R-SQUARED SPACING: 0.0625
Info: NONBONDED TABLE SIZE: 705 POINTS
TCL: Running for 1500000 steps
ETITLE: TS BOND ANGLE DIHED IMPRP ELECT VDW BOUNDARY MISC KINETIC TOTAL TEMP POTENTIAL TOTALAVG TEMPAVG PRESSURE GPRESSURE VOLUME PRESSAVG GPRESSAVG
ENERGY: 0 0.0968 0.8711 0.0000 0.0000 -10524.5825 1381.0830 0.0000 0.0000 1745.8398 -7396.6918 302.1656 -9142.5316 -7396.6918 302.1656 -486.9238 -395.2275 30249.0184 -486.9238 -395.2275
ENERGY: 300000 0.4206 1.3168 0.0000 0.0000 -10653.3105 1479.8148 0.0000 0.0000 1810.0731 -7361.6852 313.2830 -9171.7583 -7338.7296 308.2554 431.5544 504.5314 29982.1750 110.1361 178.6705
ENERGY: 600000 0.8189 2.6168 0.0000 0.0000 -10528.6399 1343.3714 0.0000 0.0000 1736.7020 -7445.1308 300.5841 -9181.8328 -7381.8414 302.7212 -774.0875 -672.9225 30022.1037 -143.9668 -77.9622
ENERGY: 900000 0.0474 2.3150 0.0000 0.0000 -10623.7169 1395.8868 0.0000 0.0000 1694.5124 -7530.9553 293.2820 -9225.4677 -7394.4696 300.4403 -336.0142 -277.2991 29942.9474 -144.7223 -75.1941
ENERGY: 1200000 1.3504 0.7952 0.0000 0.0000 -10621.1727 1490.3468 0.0000 0.0000 1814.2986 -7314.3816 314.0143 -9128.6803 -7401.2095 301.4411 729.6939 793.6150 29892.2321 -8.4610 57.7873
ENERGY: 1500000 0.0316 0.9662 0.0000 0.0000 -10584.3849 1431.4702 0.0000 0.0000 1764.1053 -7387.8116 305.3270 -9151.9169 -7397.2320 301.6479 265.9980 336.2908 29661.9217 20.3869 84.0719
TCL: Running FEP window   5: Lambda1 0.7999999999999998 Lambda2 0.7499999999999998 [dLambda -0.050000000000000044]
TCL: Setting parameter firsttimestep to 0
TCL: Setting parameter alchLambda to 0.7999999999999998
Info: NONBONDED TABLE R-SQUARED SPACING: 0.0625
Info: NONBONDED TABLE SIZE: 705 POINTS
TCL: Setting parameter alchLambda2 to 0.7499999999999998
Info: NONBONDED TABLE R-SQUARED SPACING: 0.0625
Info: NONBONDED TABLE SIZE: 705 POINTS
TCL: Running for 1500000 steps
ETITLE: TS BOND ANGLE DIHED IMPRP ELECT VDW BOUNDARY MISC KINETIC TOTAL TEMP POTENTIAL TOTALAVG TEMPAVG PRESSURE GPRESSURE VOLUME PRESSAVG GPRESSAVG
ENERGY: 0 0.0316 0.9662 0.0000 0.0000 -10584.1005 1431.1507 0.0000 0.0000 1763.2376 -7388.7144 305.1768 -9151.9520 -7388.7144 305.1768 246.4817 328.3791 29661.9217 246.4817 328.3791
ENERGY: 300000 0.1003 0.3713 0.0000 0.0000 -10606.5130 1469.3513 0.0000 0.0000 1785.1482 -7351.5418 308.9690 -9136.6900 -7356.3938 308.0726 350.6947 413.3523 30277.1680 149.5397 212.3907
ENERGY: 600000 0.8020 0.7432 0.0000 0.0000 -10499.4557 1360.2261 0.0000 0.0000 1760.1030 -7377.5815 304.6343 -9137.6844 -7396.1399 305.9952 -441.0820 -371.5975 30015.7683 0.1565 64.6561
ENERGY: 900000 0.1727 2.3634 0.0000 0.0000 -10494.5866 1365.9236 0.0000 0.0000 1707.3063 -7418.8206 295.4963 -9126.1270 -7405.3776 302.9365 -442.8937 -310.0201 29746.4381 -74.6491 0.9380
ENERGY: 1200000 0.0285 2.0853 0.0000 0.0000 -10584.9453 1410.0292 0.0000 0.0000 1747.7364 -7425.0660 302.4939 -9172.8024 -7407.1315 303.1827 -30.7743 -20.9754 29817.8362 -28.4867 34.3582
ENERGY: 1500000 0.6394 2.6058 0.0000 0.0000 -10596.3888 1424.5142 0.0000 0.0000 1732.2512 -7436.3782 299.8137 -9168.6294 -7403.9142 302.1613 -328.5692 -256.8990 30527.5264 19.0181 82.2049
TCL: Running FEP window   6: Lambda1 0.7499999999999998 Lambda2 0.6999999999999997 [dLambda -0.050000000000000044]
TCL: Setting parameter firsttimestep to 0
TCL: Setting parameter alchLambda to 0.7499999999999998
Info: NONBONDED TABLE R-SQUARED SPACING: 0.0625
Info: NONBONDED TABLE SIZE: 705 POINTS
TCL: Setting parameter alchLambda2 to 0.6999999999999997
Info: NONBONDED TABLE R-SQUARED SPACING: 0.0625
Info: NONBONDED TABLE SIZE: 705 POINTS
TCL: Running for 1500000 steps
ETITLE: TS BOND ANGLE DIHED IMPRP ELECT VDW BOUNDARY MISC KINETIC TOTAL TEMP POTENTIAL TOTALAVG TEMPAVG PRESSURE GPRESSURE VOLUME PRESSAVG GPRESSAVG
ENERGY: 0 0.6394 2.6058 0.0000 0.0000 -10595.9172 1424.6433 0.0000 0.0000 1731.3966 -7436.6322 299.6658 -9168.0288 -7436.6322 299.6658 -318.6308 -256.8375 30527.5264 -318.6308 -256.8375
ENERGY: 300000 0.7032 1.4988 0.0000 0.0000 -10455.2137 1412.0428 0.0000 0.0000 1722.0113 -7318.9576 298.0414 -9040.9689 -7412.9888 299.6514 145.7805 198.8495 30155.9747 37.4127 95.3376
ENERGY: 600000 0.0647 1.1409 0.0000 0.0000 -10614.6523 1494.8214 0.0000 0.0000 1652.5508 -7466.0746 286.0194 -9118.6253 -7421.9162 298.0589 499.8286 533.3425 30089.0156 214.6100 262.4508
ENERGY: 900000 0.8221 0.6917 0.0000 0.0000 -10525.2105 1377.2411 0.0000 0.0000 1752.4394 -7394.0162 303.3079 -9146.4556 -7416.1619 299.0545 -305.7383 -274.3028 30115.2924 73.9025 116.5414
ENERGY: 1200000 0.4310 3.0237 0.0000 0.0000 -10682.9527 1465.7592 0.0000 0.0000 1716.0129 -7497.7259 297.0033 -9213.7387 -7423.0717 298.8330 121.9699 149.1585 29961.5094 78.9880 124.6967
ENERGY: 1500000 0.8124 1.3304 0.0000 0.0000 -10513.1772 1329.9458 0.0000 0.0000 1728.1731 -7452.9155 299.1079 -9181.0886 -7421.5624 298.7938 -963.2111 -931.4961 30228.4687 -15.3586 35.8808
TCL: Running FEP window   7: Lambda1 0.6999999999999997 Lambda2 0.6499999999999997 [dLambda -0.050000000000000044]
TCL: Setting parameter firsttimestep to 0
TCL: Setting parameter alchLambda to 0.6999999999999997
Info: NONBONDED TABLE R-SQUARED SPACING: 0.0625
Info: NONBONDED TABLE SIZE: 705 POINTS
TCL: Setting parameter alchLambda2 to 0.6499999999999997
Info: NONBONDED TABLE R-SQUARED SPACING: 0.0625
Info: NONBONDED TABLE SIZE: 705 POINTS
TCL: Running for 1500000 steps
ETITLE: TS BOND ANGLE DIHED IMPRP ELECT VDW BOUNDARY MISC KINETIC TOTAL TEMP POTENTIAL TOTALAVG TEMPAVG PRESSURE GPRESSURE VOLUME PRESSAVG GPRESSAVG
ENERGY: 0 0.8124 1.3304 0.0000 0.0000 -10512.6285 1330.1085 0.0000 0.0000 1727.2855 -7453.0918 298.9543 -9180.3773 -7453.0918 298.9543 -1025.1110 -936.4205 30228.4687 -1025.1110 -936.4205
ENERGY: 300000 0.9920 1.9037 0.0000 0.0000 -10482.3177 1376.2967 0.0000 0.0000 1768.6038 -7334.5215 306.1056 -9103.1253 -7374.6883 305.6586 -45.9704 95.2816 29837.9422 -282.2725 -171.0296
ENERGY: 600000 0.2961 2.6538 0.0000 0.0000 -10487.8758 1359.2798 0.0000 0.0000 1815.5573 -7310.0887 314.2322 -9125.6460 -7371.5941 305.8482 -215.9462 -191.9159 29755.3608 -327.1225 -244.9218
ENERGY: 900000 0.8925 2.1889 0.0000 0.0000 -10516.2654 1412.2372 0.0000 0.0000 1714.2704 -7386.6764 296.7017 -9100.9468 -7382.0351 302.9721 9.5786 72.0787 30090.4285 -262.9607 -184.0738
ENERGY: 1200000 0.8557 1.5732 0.0000 0.0000 -10708.0598 1477.0010 0.0000 0.0000 1736.4850 -7492.1448 300.5465 -9228.6299 -7403.1795 301.3605 196.6557 281.6673 29883.3226 -233.4602 -153.5347
ENERGY: 1500000 0.3806 0.9371 0.0000 0.0000 -10576.2836 1410.2642 0.0000 0.0000 1749.1601 -7415.5416 302.7403 -9164.7017 -7403.2420 301.1748 -209.0272 -135.7047 30033.3722 -233.1970 -155.8027
TCL: Running FEP window   8: Lambda1 0.6499999999999997 Lambda2 0.5999999999999996 [dLambda -0.050000000000000044]
TCL: Setting parameter firsttimestep to 0
TCL: Setting parameter alchLambda to 0.6499999999999997
Info: NONBONDED TABLE R-SQUARED SPACING: 0.0625
Info: NONBONDED TABLE SIZE: 705 POINTS
TCL: Setting parameter alchLambda2 to 0.5999999999999996
Info: NONBONDED TABLE R-SQUARED SPACING: 0.0625
Info: NONBONDED TABLE SIZE: 705 POINTS
TCL: Running for 1500000 steps
ETITLE: TS BOND ANGLE DIHED IMPRP ELECT VDW BOUNDARY MISC KINETIC TOTAL TEMP POTENTIAL TOTALAVG TEMPAVG PRESSURE GPRESSURE VOLUME PRESSAVG GPRESSAVG
ENERGY: 0 0.3806 0.9371 0.0000 0.0000 -10576.2359 1410.3141 0.0000 0.0000 1748.3222 -7416.2819 302.5953 -9164.6041 -7416.2819 302.5953 -244.5788 -143.2366 30033.3722 -244.5788 -143.2366
ENERGY: 300000 0.5704 0.6260 0.0000 0.0000 -10648.0268 1395.7607 0.0000 0.0000 1752.2755 -7498.7941 303.2795 -9251.0697 -7385.7553 304.1711 -374.2706 -351.4570 29691.0876 -579.3463 -526.3374
ENERGY: 600000 0.0801 2.0935 0.0000 0.0000 -10524.1731 1387.6459 0.0000 0.0000 1740.7085 -7393.6452 301.2775 -9134.3537 -7391.9743 301.6138 -152.6073 -57.7998 29698.4377 -433.8926 -369.6158
ENERGY: 900000 0.0476 1.0342 0.0000 0.0000 -10756.4745 1510.9064 0.0000 0.0000 1712.1780 -7532.3083 296.3395 -9244.4863 -7409.6233 300.4542 327.9133 383.5993 29794.5747 -295.7115 -234.7060
ENERGY: 1200000 0.2462 1.4059 0.0000 0.0000 -10495.5861 1320.7029 0.0000 0.0000 1733.1043 -7440.1268 299.9614 -9173.2311 -7400.6386 300.3529 -1001.6032 -964.1526 29985.1715 -199.7604 -138.1126
ENERGY: 1500000 0.3401 2.4163 0.0000 0.0000 -10543.0343 1469.9235 0.0000 0.0000 1751.0194 -7319.3350 303.0621 -9070.3544 -7408.0559 299.6157 822.6661 864.5955 29504.0145 -60.1188 1.0023
TCL: Running FEP window   9: Lambda1 0.5999999999999996 Lambda2 0.5499999999999996 [dLambda -0.050000000000000044]
TCL: Setting parameter firsttimestep to 0
TCL: Setting parameter alchLambda to 0.5999999999999996
Info: NONBONDED TABLE R-SQUARED SPACING: 0.0625
Info: NONBONDED TABLE SIZE: 705 POINTS
TCL: Setting parameter alchLambda2 to 0.5499999999999996
Info: NONBONDED TABLE R-SQUARED SPACING: 0.0625
Info: NONBONDED TABLE SIZE: 705 POINTS
TCL: Running for 1500000 steps
ETITLE: TS BOND ANGLE DIHED IMPRP ELECT VDW BOUNDARY MISC KINETIC TOTAL TEMP POTENTIAL TOTALAVG TEMPAVG PRESSURE GPRESSURE VOLUME PRESSAVG GPRESSAVG
ENERGY: 0 0.3401 2.4163 0.0000 0.0000 -10542.9027 1470.2640 0.0000 0.0000 1750.1245 -7319.7578 302.9072 -9069.8823 -7319.7578 302.9072 788.4341 863.4750 29504.0145 788.4341 863.4750
ENERGY: 300000 3.6257 0.6595 0.0000 0.0000 -10619.3941 1473.8459 0.0000 0.0000 1691.2805 -7449.9824 292.7226 -9141.2629 -7415.7519 295.0596 105.0199 159.7052 30229.6499 600.0879 650.9829
ENERGY: 600000 1.5406 3.3360 0.0000 0.0000 -10592.3957 1428.6563 0.0000 0.0000 1787.2107 -7371.6521 309.3260 -9158.8628 -7414.4463 299.3230 253.8483 212.8173 29641.1913 292.5011 323.8917
ENERGY: 900000 0.3464 0.3718 0.0000 0.0000 -10683.2400 1504.6070 0.0000 0.0000 1763.1180 -7414.7968 305.1561 -9177.9148 -7421.2521 299.8684 471.3876 565.4220 30035.6119 173.4364 222.9517
ENERGY: 1200000 0.3476 1.1085 0.0000 0.0000 -10557.4295 1490.6139 0.0000 0.0000 1712.9685 -7352.3910 296.4763 -9065.3595 -7417.2263 299.0886 584.7462 643.5955 29961.5956 314.3748 363.4935
ENERGY: 1500000 0.5052 3.6358 0.0000 0.0000 -10499.2553 1327.8703 0.0000 0.0000 1703.5519 -7463.6922 294.8465 -9167.2440 -7420.4156 298.0718 -816.8836 -701.6625 29578.7342 200.7092 253.1257
TCL: Running FEP window  10: Lambda1 0.5499999999999996 Lambda2 0.4999999999999996 [dLambda -0.04999999999999999]
TCL: Setting parameter firsttimestep to 0
TCL: Setting parameter alchLambda to 0.5499999999999996
Info: NONBONDED TABLE R-SQUARED SPACING: 0.0625
Info: NONBONDED TABLE SIZE: 705 POINTS
TCL: Setting parameter alchLambda2 to 0.4999999999999996
Info: NONBONDED TABLE R-SQUARED SPACING: 0.0625
Info: NONBONDED TABLE SIZE: 705 POINTS
TCL: Running for 1500000 steps
ETITLE: TS BOND ANGLE DIHED IMPRP ELECT VDW BOUNDARY MISC KINETIC TOTAL TEMP POTENTIAL TOTALAVG TEMPAVG PRESSURE GPRESSURE VOLUME PRESSAVG GPRESSAVG
ENERGY: 0 0.5052 3.6358 0.0000 0.0000 -10499.3143 1328.2031 0.0000 0.0000 1702.6494 -7464.3208 294.6903 -9166.9701 -7464.3208 294.6903 -803.2079 -702.7572 29578.7342 -803.2079 -702.7572
ENERGY: 300000 1.0527 2.1283 0.0000 0.0000 -10537.5255 1429.3046 0.0000 0.0000 1713.8853 -7391.1546 296.6350 -9105.0399 -7425.8745 298.4216 -55.4441 -31.2335 30260.5908 -97.5077 -42.4816
ENERGY: 600000 0.1151 0.6034 0.0000 0.0000 -10566.9952 1398.0780 0.0000 0.0000 1737.9543 -7430.2445 300.8008 -9168.1987 -7440.5908 297.5902 -278.4630 -221.5557 29945.4403 -90.1332 -26.3409
ENERGY: 900000 0.0526 1.2541 0.0000 0.0000 -10498.3022 1380.9320 0.0000 0.0000 1720.5382 -7395.5254 297.7865 -9116.0636 -7428.9496 298.4051 -382.3375 -318.2723 30183.9417 -123.3381 -57.4290
ENERGY: 1200000 0.5537 1.4256 0.0000 0.0000 -10481.8171 1402.5945 0.0000 0.0000 1708.2243 -7369.0191 295.6552 -9077.2434 -7414.4806 298.8649 100.9535 82.1205 30025.3750 -151.1869 -90.9312
ENERGY: 1500000 0.3513 1.1320 0.0000 0.0000 -10578.4295 1429.3760 0.0000 0.0000 1689.0482 -7458.5220 292.3363 -9147.5703 -7407.3989 299.5711 -4.4734 16.7604 30132.7330 -164.2456 -106.9826
TCL: Running FEP window  11: Lambda1 0.4999999999999996 Lambda2 0.4499999999999996 [dLambda -0.04999999999999999]
TCL: Setting parameter firsttimestep to 0
TCL: Setting parameter alchLambda to 0.4999999999999996
Info: NONBONDED TABLE R-SQUARED SPACING: 0.0625
Info: NONBONDED TABLE SIZE: 705 POINTS
TCL: Setting parameter alchLambda2 to 0.4499999999999996
Info: NONBONDED TABLE R-SQUARED SPACING: 0.0625
Info: NONBONDED TABLE SIZE: 705 POINTS
TCL: Running for 1500000 steps
ETITLE: TS BOND ANGLE DIHED IMPRP ELECT VDW BOUNDARY MISC KINETIC TOTAL TEMP POTENTIAL TOTALAVG TEMPAVG PRESSURE GPRESSURE VOLUME PRESSAVG GPRESSAVG
ENERGY: 0 0.3513 1.1320 0.0000 0.0000 -10578.4823 1429.6570 0.0000 0.0000 1688.1528 -7459.1892 292.1813 -9147.3420 -7459.1892 292.1813 -57.6296 13.2642 30132.7330 -57.6296 13.2642
ENERGY: 300000 0.0327 2.8251 0.0000 0.0000 -10627.1453 1394.7022 0.0000 0.0000 1735.8694 -7493.7159 300.4400 -9229.5853 -7469.4404 296.7590 -575.5743 -496.7365 30012.1748 -245.1284 -171.1835
ENERGY: 600000 0.6530 1.4728 0.0000 0.0000 -10728.1677 1486.1070 0.0000 0.0000 1769.7505 -7470.1844 306.3040 -9239.9348 -7457.6202 297.2513 478.5560 549.0857 29448.2968 -88.5504 -14.2308
ENERGY: 900000 0.9698 3.9096 0.0000 0.0000 -10525.5888 1412.8559 0.0000 0.0000 1694.7598 -7413.0937 293.3248 -9107.8535 -7440.6455 298.0203 -248.5657 -77.5599 30126.7064 -126.0816 -37.5509
ENERGY: 1200000 0.8553 3.0524 0.0000 0.0000 -10507.2327 1326.3388 0.0000 0.0000 1746.1904 -7430.7957 302.2263 -9176.9861 -7425.4517 298.0728 -774.6302 -759.4969 29792.4039 -219.2666 -139.5030
ENERGY: 1500000 0.0033 3.1388 0.0000 0.0000 -10507.1979 1334.1650 0.0000 0.0000 1721.4829 -7448.4079 297.9500 -9169.8908 -7422.9973 298.7821 -717.3900 -592.8507 29767.7956 -139.0003 -65.4663
TCL: Running FEP window  12: Lambda1 0.4499999999999996 Lambda2 0.39999999999999963 [dLambda -0.04999999999999999]
TCL: Setting parameter firsttimestep to 0
TCL: Setting parameter alchLambda to 0.4499999999999996
Info: NONBONDED TABLE R-SQUARED SPACING: 0.0625
Info: NONBONDED TABLE SIZE: 705 POINTS
TCL: Setting parameter alchLambda2 to 0.39999999999999963
Info: NONBONDED TABLE R-SQUARED SPACING: 0.0625
Info: NONBONDED TABLE SIZE: 705 POINTS
TCL: Running for 1500000 steps
ETITLE: TS BOND ANGLE DIHED IMPRP ELECT VDW BOUNDARY MISC KINETIC TOTAL TEMP POTENTIAL TOTALAVG TEMPAVG PRESSURE GPRESSURE VOLUME PRESSAVG GPRESSAVG
ENERGY: 0 0.0033 3.1388 0.0000 0.0000 -10507.1982 1334.2584 0.0000 0.0000 1720.6047 -7449.1931 297.7980 -9169.7977 -7449.1931 297.7980 -684.6118 -596.6103 29767.7956 -684.6118 -596.6103
ENERGY: 300000 0.2848 0.9534 0.0000 0.0000 -10509.6153 1337.5739 0.0000 0.0000 1715.2589 -7455.5442 296.8728 -9170.8032 -7398.6174 300.8097 -837.3583 -755.9699 30218.4343 -661.9695 -572.8988
ENERGY: 600000 0.9438 4.5169 0.0000 0.0000 -10590.6673 1449.1416 0.0000 0.0000 1741.7764 -7394.2886 301.4623 -9136.0650 -7404.4173 301.7160 152.7458 248.4678 29899.9430 -521.1386 -431.5162
ENERGY: 900000 1.0703 1.9863 0.0000 0.0000 -10430.2854 1412.5084 0.0000 0.0000 1763.2381 -7251.4823 305.1769 -9014.7204 -7389.7632 302.0229 93.1947 214.3302 30333.3520 -295.4567 -221.4137
ENERGY: 1200000 0.0202 0.8118 0.0000 0.0000 -10458.3228 1380.0306 0.0000 0.0000 1701.4825 -7375.9777 294.4884 -9077.4602 -7382.9125 302.0213 -432.6040 -359.0990 30446.1460 -345.9451 -273.5346
ENERGY: 1500000 0.0033 1.8614 0.0000 0.0000 -10556.6045 1398.2177 0.0000 0.0000 1662.6368 -7493.8854 287.7651 -9156.5222 -7389.5794 301.4452 -379.2548 -257.4105 30009.4457 -364.8728 -294.9332
TCL: Running FEP window  13: Lambda1 0.39999999999999963 Lambda2 0.34999999999999964 [dLambda -0.04999999999999999]
TCL: Setting parameter firsttimestep to 0
TCL: Setting parameter alchLambda to 0.39999999999999963
Info: NONBONDED TABLE R-SQUARED SPACING: 0.0625
Info: NONBONDED TABLE SIZE: 705 POINTS
TCL: Setting parameter alchLambda2 to 0.34999999999999964
Info: NONBONDED TABLE R-SQUARED SPACING: 0.0625
Info: NONBONDED TABLE SIZE: 705 POINTS
TCL: Running for 1500000 steps
ETITLE: TS BOND ANGLE DIHED IMPRP ELECT VDW BOUNDARY MISC KINETIC TOTAL TEMP POTENTIAL TOTALAVG TEMPAVG PRESSURE GPRESSURE VOLUME PRESSAVG GPRESSAVG
ENERGY: 0 0.0033 1.8614 0.0000 0.0000 -10556.6050 1398.1667 0.0000 0.0000 1661.8181 -7494.7554 287.6234 -9156.5736 -7494.7554 287.6234 -357.1131 -263.2372 30009.4457 -357.1131 -263.2372
ENERGY: 300000 0.7970 2.5082 0.0000 0.0000 -10498.9152 1314.7585 0.0000 0.0000 1709.8356 -7471.0158 295.9341 -9180.8514 -7497.9549 292.7148 -707.8920 -684.8440 29371.5792 -121.5065 -56.5650
ENERGY: 600000 0.5508 5.5735 0.0000 0.0000 -10468.9102 1326.6683 0.0000 0.0000 1690.4770 -7445.6405 292.5836 -9136.1175 -7468.5058 295.8666 -948.2773 -881.5934 30147.0774 -317.0894 -246.9077
ENERGY: 900000 0.4826 2.4009 0.0000 0.0000 -10394.6834 1319.7651 0.0000 0.0000 1700.7030 -7371.3318 294.3535 -9072.0348 -7432.9545 297.2017 -811.9609 -822.8748 30371.7223 -180.8267 -117.6585
ENERGY: 1200000 1.0677 1.2582 0.0000 0.0000 -10609.4381 1459.6130 0.0000 0.0000 1737.0347 -7410.4646 300.6417 -9147.4993 -7421.1877 298.2289 429.0558 446.3273 29741.1024 -102.9102 -45.7909
ENERGY: 1500000 1.2363 3.0449 0.0000 0.0000 -10669.1764 1487.6328 0.0000 0.0000 1746.0661 -7431.1963 302.2048 -9177.2624 -7417.4631 298.7379 488.9079 523.4794 29472.2245 -140.3744 -81.3017
TCL: Running FEP window  14: Lambda1 0.34999999999999964 Lambda2 0.29999999999999966 [dLambda -0.04999999999999999]
TCL: Setting parameter firsttimestep to 0
TCL: Setting parameter alchLambda to 0.34999999999999964
Info: NONBONDED TABLE R-SQUARED SPACING: 0.0625
Info: NONBONDED TABLE SIZE: 705 POINTS
TCL: Setting parameter alchLambda2 to 0.29999999999999966
Info: NONBONDED TABLE R-SQUARED SPACING: 0.0625
Info: NONBONDED TABLE SIZE: 705 POINTS
TCL: Running for 1500000 steps
ETITLE: TS BOND ANGLE DIHED IMPRP ELECT VDW BOUNDARY MISC KINETIC TOTAL TEMP POTENTIAL TOTALAVG TEMPAVG PRESSURE GPRESSURE VOLUME PRESSAVG GPRESSAVG
ENERGY: 0 1.2363 3.0449 0.0000 0.0000 -10669.1758 1487.7871 0.0000 0.0000 1745.1828 -7431.9246 302.0519 -9177.1074 -7431.9246 302.0519 425.5032 517.2345 29472.2245 425.5032 517.2345
ENERGY: 300000 0.1079 1.0190 0.0000 0.0000 -10510.1263 1394.0059 0.0000 0.0000 1765.1112 -7349.8822 305.5011 -9114.9934 -7424.2081 299.1092 -5.6734 62.8772 29679.0889 142.8796 226.8499
ENERGY: 600000 0.3136 1.0314 0.0000 0.0000 -10441.5341 1391.1743 0.0000 0.0000 1667.2291 -7381.7857 288.5599 -9049.0148 -7410.4433 296.9438 -136.3905 19.4871 30163.0805 -68.4320 26.1211
ENERGY: 900000 0.6775 1.8227 0.0000 0.0000 -10555.4681 1410.5647 0.0000 0.0000 1716.5953 -7425.8078 297.1041 -9142.4032 -7418.8992 297.4330 -81.5656 -22.2808 29795.5574 -107.0404 -17.7402
ENERGY: 1200000 0.1169 1.8870 0.0000 0.0000 -10419.5246 1292.2708 0.0000 0.0000 1735.1667 -7390.0832 300.3184 -9125.2499 -7414.1442 298.8008 -980.0888 -949.8774 30075.3489 -224.6516 -140.2600
ENERGY: 1500000 1.0254 2.3514 0.0000 0.0000 -10530.3899 1443.0364 0.0000 0.0000 1669.1310 -7414.8457 288.8891 -9083.9767 -7423.0386 296.8297 591.8365 621.1325 29657.3778 -174.3689 -102.2413
TCL: Running FEP window  15: Lambda1 0.29999999999999966 Lambda2 0.24999999999999967 [dLambda -0.04999999999999999]
TCL: Setting parameter firsttimestep to 0
TCL: Setting parameter alchLambda to 0.29999999999999966
Info: NONBONDED TABLE R-SQUARED SPACING: 0.0625
Info: NONBONDED TABLE SIZE: 705 POINTS
TCL: Setting parameter alchLambda2 to 0.24999999999999967
Info: NONBONDED TABLE R-SQUARED SPACING: 0.0625
Info: NONBONDED TABLE SIZE: 705 POINTS
TCL: Running for 1500000 steps
ETITLE: TS BOND ANGLE DIHED IMPRP ELECT VDW BOUNDARY MISC KINETIC TOTAL TEMP POTENTIAL TOTALAVG TEMPAVG PRESSURE GPRESSURE VOLUME PRESSAVG GPRESSAVG
ENERGY: 0 1.0254 2.3514 0.0000 0.0000 -10530.3904 1443.0002 0.0000 0.0000 1668.2679 -7415.7456 288.7397 -9084.0135 -7415.7456 288.7397 538.8565 619.9641 29657.3778 538.8565 619.9641
ENERGY: 300000 0.4228 2.1901 0.0000 0.0000 -10496.2457 1356.7647 0.0000 0.0000 1737.2346 -7399.6335 300.6763 -9136.8681 -7410.6357 294.9873 -561.9189 -489.5872 30097.7075 -15.8550 85.3529
ENERGY: 600000 0.6794 1.8977 0.0000 0.0000 -10664.5657 1515.6568 0.0000 0.0000 1781.0598 -7365.2719 308.2614 -9146.3318 -7398.2156 296.6523 476.8704 413.8138 30569.5833 9.5791 68.7041
ENERGY: 900000 0.0537 1.2121 0.0000 0.0000 -10584.2516 1464.7789 0.0000 0.0000 1679.5756 -7438.6314 290.6968 -9118.2070 -7417.3016 296.0944 342.3497 402.9848 30002.8374 58.3440 115.7145
ENERGY: 1200000 5.5464 1.8077 0.0000 0.0000 -10464.9393 1365.9829 0.0000 0.0000 1773.0530 -7318.5492 306.8756 -9091.6022 -7403.7891 296.5303 -250.3986 -128.8483 29644.0070 85.2626 141.7756
ENERGY: 1500000 1.4635 4.1176 0.0000 0.0000 -10584.4328 1400.8386 0.0000 0.0000 1787.6224 -7390.3907 309.3973 -9178.0131 -7401.3974 298.8169 -180.9105 -117.7622 30000.6872 59.5453 113.0353
TCL: Running FEP window  16: Lambda1 0.24999999999999967 Lambda2 0.19999999999999968 [dLambda -0.04999999999999999]
TCL: Setting parameter firsttimestep to 0
TCL: Setting parameter alchLambda to 0.24999999999999967
Info: NONBONDED TABLE R-SQUARED SPACING: 0.0625
Info: NONBONDED TABLE SIZE: 705 POINTS
TCL: Setting parameter alchLambda2 to 0.19999999999999968
Info: NONBONDED TABLE R-SQUARED SPACING: 0.0625
Info: NONBONDED TABLE SIZE: 705 POINTS
TCL: Running for 1500000 steps
ETITLE: TS BOND ANGLE DIHED IMPRP ELECT VDW BOUNDARY MISC KINETIC TOTAL TEMP POTENTIAL TOTALAVG TEMPAVG PRESSURE GPRESSURE VOLUME PRESSAVG GPRESSAVG
ENERGY: 0 1.4635 4.1176 0.0000 0.0000 -10584.4321 1400.7373 0.0000 0.0000 1786.7572 -7391.3565 309.2475 -9178.1137 -7391.3565 309.2475 -217.2541 -121.0873 30000.6872 -217.2541 -121.0873
ENERGY: 300000 0.3491 1.7825 0.0000 0.0000 -10548.7111 1418.5462 0.0000 0.0000 1688.6572 -7439.3762 292.2686 -9128.0334 -7433.0359 293.8095 -239.5382 -131.9137 30046.7189 -395.8442 -336.7265
ENERGY: 600000 1.0875 2.3140 0.0000 0.0000 -10559.3597 1383.1254 0.0000 0.0000 1669.6346 -7503.1982 288.9762 -9172.8328 -7456.3461 293.9812 -473.1215 -491.7814 30072.1685 -417.7474 -356.7817
ENERGY: 900000 0.2014 4.6870 0.0000 0.0000 -10505.6442 1378.4209 0.0000 0.0000 1755.6017 -7366.7333 303.8552 -9122.3350 -7430.3207 297.4089 -331.5597 -300.7953 30256.3274 -401.3383 -336.5984
ENERGY: 1200000 0.5678 0.9724 0.0000 0.0000 -10586.7914 1529.0929 0.0000 0.0000 1697.0707 -7359.0876 293.7248 -9056.1584 -7410.5180 298.6501 1115.6231 1211.6505 29858.3340 -138.7395 -73.2666
ENERGY: 1500000 0.9545 1.2112 0.0000 0.0000 -10580.5926 1496.7109 0.0000 0.0000 1721.2975 -7360.4185 297.9179 -9081.7160 -7406.8772 299.0871 1121.5853 1134.3800 29260.8186 -28.3765 37.0856
TCL: Running FEP window  17: Lambda1 0.19999999999999968 Lambda2 0.1499999999999997 [dLambda -0.04999999999999999]
TCL: Setting parameter firsttimestep to 0
TCL: Setting parameter alchLambda to 0.19999999999999968
Info: NONBONDED TABLE R-SQUARED SPACING: 0.0625
Info: NONBONDED TABLE SIZE: 705 POINTS
TCL: Setting parameter alchLambda2 to 0.1499999999999997
Info: NONBONDED TABLE R-SQUARED SPACING: 0.0625
Info: NONBONDED TABLE SIZE: 705 POINTS
TCL: Running for 1500000 steps
ETITLE: TS BOND ANGLE DIHED IMPRP ELECT VDW BOUNDARY MISC KINETIC TOTAL TEMP POTENTIAL TOTALAVG TEMPAVG PRESSURE GPRESSURE VOLUME PRESSAVG GPRESSAVG
ENERGY: 0 0.9545 1.2112 0.0000 0.0000 -10580.5942 1496.8165 0.0000 0.0000 1720.4181 -7361.1939 297.7657 -9081.6121 -7361.1939 297.7657 1047.5282 1130.4710 29260.8186 1047.5282 1130.4710
ENERGY: 300000 0.1591 2.8834 0.0000 0.0000 -10584.5065 1445.5555 0.0000 0.0000 1730.9554 -7404.9532 299.5895 -9135.9086 -7357.5650 300.2030 -0.4502 133.0303 29864.3699 610.5549 700.1468
ENERGY: 600000 0.0667 1.9604 0.0000 0.0000 -10402.5327 1325.4579 0.0000 0.0000 1795.7341 -7279.3136 310.8012 -9075.0477 -7357.4966 302.1012 -583.9430 -501.0414 29931.6351 280.0719 358.7191
ENERGY: 900000 0.0090 0.5936 0.0000 0.0000 -10578.2512 1383.7430 0.0000 0.0000 1712.1242 -7481.7813 296.3302 -9193.9056 -7378.6362 300.6092 -334.4856 -360.1344 29746.2930 269.6535 334.2969
ENERGY: 1200000 0.1226 3.5238 0.0000 0.0000 -10431.2713 1312.2990 0.0000 0.0000 1727.7934 -7387.5325 299.0422 -9115.3259 -7384.5176 300.2926 -827.7691 -794.0179 29881.1875 16.1676 79.6738
ENERGY: 1500000 0.4034 3.0931 0.0000 0.0000 -10486.0870 1403.4113 0.0000 0.0000 1743.1829 -7335.9963 301.7058 -9079.1792 -7388.0870 300.1116 61.3375 107.1951 29881.1477 89.2566 151.9341
TCL: Running FEP window  18: Lambda1 0.1499999999999997 Lambda2 0.09999999999999969 [dLambda -0.05 ]
TCL: Setting parameter firsttimestep to 0
TCL: Setting parameter alchLambda to 0.1499999999999997
Info: NONBONDED TABLE R-SQUARED SPACING: 0.0625
Info: NONBONDED TABLE SIZE: 705 POINTS
TCL: Setting parameter alchLambda2 to 0.09999999999999969
Info: NONBONDED TABLE R-SQUARED SPACING: 0.0625
Info: NONBONDED TABLE SIZE: 705 POINTS
TCL: Running for 1500000 steps
ETITLE: TS BOND ANGLE DIHED IMPRP ELECT VDW BOUNDARY MISC KINETIC TOTAL TEMP POTENTIAL TOTALAVG TEMPAVG PRESSURE GPRESSURE VOLUME PRESSAVG GPRESSAVG
ENERGY: 0 0.4034 3.0931 0.0000 0.0000 -10486.0868 1403.1725 0.0000 0.0000 1742.3436 -7337.0742 301.5605 -9079.4178 -7337.0742 301.5605 16.7528 101.1950 29881.1477 16.7528 101.1950
ENERGY: 300000 0.1408 1.2588 0.0000 0.0000 -10614.1137 1443.2481 0.0000 0.0000 1718.2763 -7451.1898 297.3950 -9169.4660 -7356.0837 304.2069 236.4605 278.9422 29653.2435 38.3200 101.2307
ENERGY: 600000 0.0185 2.1229 0.0000 0.0000 -10587.8240 1413.8453 0.0000 0.0000 1737.9799 -7433.8574 300.8052 -9171.8372 -7399.6909 301.9192 -301.1013 -199.2573 30107.0627 1.1171 73.4695
ENERGY: 900000 3.5754 1.6965 0.0000 0.0000 -10527.2326 1392.3332 0.0000 0.0000 1783.3965 -7346.2309 308.6659 -9129.6274 -7410.7301 301.0440 -308.4323 -230.2704 29948.2221 19.8104 87.5594
ENERGY: 1200000 0.2583 1.2117 0.0000 0.0000 -10755.6138 1491.3964 0.0000 0.0000 1700.8861 -7561.8614 294.3851 -9262.7475 -7428.1079 299.7118 323.6140 317.2047 29634.1745 -15.6006 42.3567
ENERGY: 1500000 0.6850 2.0494 0.0000 0.0000 -10567.1192 1385.9976 0.0000 0.0000 1719.3755 -7459.0117 297.5852 -9178.3872 -7429.4804 299.5046 -494.0781 -443.2302 29899.4501 10.4829 68.5674
TCL: Running FEP window  19: Lambda1 0.09999999999999969 Lambda2 0.049999999999999684 [dLambda -0.05 ]
TCL: Setting parameter firsttimestep to 0
TCL: Setting parameter alchLambda to 0.09999999999999969
Info: NONBONDED TABLE R-SQUARED SPACING: 0.0625
Info: NONBONDED TABLE SIZE: 705 POINTS
TCL: Setting parameter alchLambda2 to 0.049999999999999684
Info: NONBONDED TABLE R-SQUARED SPACING: 0.0625
Info: NONBONDED TABLE SIZE: 705 POINTS
TCL: Running for 1500000 steps
ETITLE: TS BOND ANGLE DIHED IMPRP ELECT VDW BOUNDARY MISC KINETIC TOTAL TEMP POTENTIAL TOTALAVG TEMPAVG PRESSURE GPRESSURE VOLUME PRESSAVG GPRESSAVG
ENERGY: 0 0.6850 2.0494 0.0000 0.0000 -10567.1191 1386.3106 0.0000 0.0000 1718.5194 -7459.5547 297.4371 -9178.0741 -7459.5547 297.4371 -527.4668 -442.4150 29899.4501 -527.4668 -442.4150
ENERGY: 300000 0.1220 2.2753 0.0000 0.0000 -10456.4703 1369.1784 0.0000 0.0000 1711.7546 -7373.1399 296.2662 -9084.8946 -7393.8852 301.6385 -496.2984 -433.7372 30150.6161 -430.2188 -335.0769
ENERGY: 600000 0.1600 1.8306 0.0000 0.0000 -10399.6476 1329.0318 0.0000 0.0000 1755.4231 -7313.2021 303.8243 -9068.6252 -7396.8203 301.0871 -745.2260 -724.8576 30479.9385 -408.8922 -328.3578
ENERGY: 900000 0.3674 1.6997 0.0000 0.0000 -10590.5612 1434.6040 0.0000 0.0000 1769.3418 -7384.5483 306.2333 -9153.8901 -7389.7801 302.2670 201.8202 294.5921 29506.1016 -175.5327 -104.4117
ENERGY: 1200000 1.4306 2.0222 0.0000 0.0000 -10658.7794 1549.6412 0.0000 0.0000 1797.4858 -7308.1995 311.1044 -9105.6853 -7382.9159 301.4494 1148.8871 1243.5597 29896.9056 -53.7065 18.5803
ENERGY: 1500000 0.0121 0.5612 0.0000 0.0000 -10510.9783 1416.1676 0.0000 0.0000 1705.6228 -7388.6145 295.2050 -9094.2374 -7389.2458 300.8646 53.4864 148.6037 29741.6429 -29.1618 42.5317
TCL: Running FEP window  20: Lambda1 0.049999999999999684 Lambda2 0.0    [dLambda -0.049999999999999684]
TCL: Setting parameter firsttimestep to 0
TCL: Setting parameter alchLambda to 0.049999999999999684
Info: NONBONDED TABLE R-SQUARED SPACING: 0.0625
Info: NONBONDED TABLE SIZE: 705 POINTS
TCL: Setting parameter alchLambda2 to 0.0
Info: NONBONDED TABLE R-SQUARED SPACING: 0.0625
Info: NONBONDED TABLE SIZE: 705 POINTS
TCL: Running for 1500000 steps
ETITLE: TS BOND ANGLE DIHED IMPRP ELECT VDW BOUNDARY MISC KINETIC TOTAL TEMP POTENTIAL TOTALAVG TEMPAVG PRESSURE GPRESSURE VOLUME PRESSAVG GPRESSAVG
ENERGY: 0 0.0121 0.5612 0.0000 0.0000 -10510.9777 1415.7019 0.0000 0.0000 1704.7618 -7389.9406 295.0559 -9094.7024 -7389.9406 295.0559 73.6320 145.5676 29741.6429 73.6320 145.5676
ENERGY: 300000 0.7264 5.0576 0.0000 0.0000 -10490.7576 1388.8641 0.0000 0.0000 1739.9216 -7356.1879 301.1413 -9096.1095 -7374.4287 300.9708 -396.6079 -355.0271 30387.5579 -201.9467 -147.3058
ENERGY: 600000 1.2444 5.0517 0.0000 0.0000 -10458.2088 1319.6780 0.0000 0.0000 1773.3224 -7358.9122 306.9223 -9132.2347 -7379.2551 304.7478 -724.1095 -658.7062 29661.3158 -193.9246 -139.3433
ENERGY: 900000 1.4942 2.8105 0.0000 0.0000 -10523.7766 1390.5934 0.0000 0.0000 1723.6666 -7405.2119 298.3279 -9128.8785 -7383.2448 304.4729 -124.4565 -66.9586 29463.7272 -258.2302 -202.9579
ENERGY: 1200000 0.7671 1.9050 0.0000 0.0000 -10592.8179 1411.0192 0.0000 0.0000 1751.3280 -7427.7986 303.1155 -9179.1266 -7385.3943 303.7956 -188.8323 -176.6050 30103.9398 -198.5747 -145.5724
ENERGY: 1500000 0.0813 3.6765 0.0000 0.0000 -10625.3153 1502.1866 0.0000 0.0000 1725.4671 -7393.9038 298.6396 -9119.3709 -7385.7879 303.3373 823.7270 765.0302 29679.5232 -114.4037 -61.3752
TCL: Exiting due to exit command.
