Info: SIMULATION PARAMETERS:
Info: TIMESTEP               2
Info: NUMBER OF STEPS        0
Info: STEPS PER CYCLE        10
Info: PERIODIC CELL BASIS 1  35.01 0 0
Info: PERIODIC CELL BASIS 2  0 34.1 0
Info: PERIODIC CELL BASIS 3  0 0 36.199
Info: PERIODIC CELL CENTER   0 0 0
Info: WRAPPING WATERS AROUND PERIODIC BOUNDARIES ON OUTPUT.
Info: WRAPPING ALL CLUSTERS AROUND PERIODIC BOUNDARIES ON OUTPUT.
Info: FIRST LDB TIMESTEP     50
Info: LAST LDB TIMESTEP     -1
Info: HOM BACKGROUND SCALING 1
Info: PME BACKGROUND SCALING 1
Info: MIN ATOMS PER PATCH    40
Info: EMPTY PATCH LOAD       40 ATOMS
Info: INITIAL TEMPERATURE    300
Info: CENTER OF MASS MOVING INITIALLY? NO
Info: DIELECTRIC             1
Info: EXCLUDE                SCALED ONE-FOUR
Info: 1-4 ELECTROSTATICS SCALED BY 0.833333
Info: MODIFIED 1-4 VDW PARAMETERS WILL BE USED
Info: DCD FILENAME           mobley_9913368_equil.dcd
Info: DCD FREQUENCY          100000
Info: DCD FIRST STEP         100000
Info: DCD FILE WILL CONTAIN UNIT CELL DATA
Info: XST FILENAME           mobley_9913368_equil.xst
Info: XST FREQUENCY          100000
Info: NO VELOCITY DCD OUTPUT
Info: NO FORCE DCD OUTPUT
Info: OUTPUT FILENAME        mobley_9913368_equil
Info: BINARY OUTPUT FILES WILL BE USED
Info: RESTART FILENAME       mobley_9913368_equil.restart
Info: RESTART FREQUENCY      100000
Info: BINARY RESTART FILES WILL BE USED
Info: CUTOFF                 9
Info: PAIRLIST DISTANCE      11
Info: PAIRLIST SHRINK RATE   0.01
Info: PAIRLIST GROW RATE     0.01
Info: PAIRLIST TRIGGER       0.3
Info: PAIRLISTS PER CYCLE    2
Info: PAIRLISTS ENABLED
Info: MARGIN                 8
Info: HYDROGEN GROUP CUTOFF  2.5
Info: PATCH DIMENSION        21.5
Info: ENERGY OUTPUT STEPS    100000
Info: ENERGY EVALUATION STEPS    100000
Info: OUTPUT ENERGY PRECISION 4
Info: CROSSTERM ENERGY INCLUDED IN DIHEDRAL
Info: TIMING OUTPUT STEPS    1000000
Info: PRESSURE OUTPUT STEPS  100000
Info: FIXED ATOMS ACTIVE
Info: LANGEVIN DYNAMICS ACTIVE
Info: LANGEVIN TEMPERATURE   30
Info: LANGEVIN USING BBK INTEGRATOR
Info: LANGEVIN DAMPING COEFFICIENT IS 1 INVERSE PS
Info: LANGEVIN DYNAMICS APPLIED TO HYDROGENS
Info: LANGEVIN PISTON PRESSURE CONTROL ACTIVE
Info:        TARGET PRESSURE IS 1.01325 BAR
Info:     OSCILLATION PERIOD IS 50 FS
Info:             DECAY TIME IS 25 FS
Info:     PISTON TEMPERATURE IS 300 K
Info:       PRESSURE CONTROL IS GROUP-BASED
Info:    INITIAL STRAIN RATE IS 0 0 0
Info:       CELL FLUCTUATION IS ISOTROPIC
Info: PARTICLE MESH EWALD (PME) ACTIVE
Info: PME TOLERANCE               1e-06
Info: PME EWALD COEFFICIENT       0.348832
Info: PME INTERPOLATION ORDER     4
Info: PME GRID DIMENSIONS         36 36 40
Info: PME MAXIMUM GRID SPACING    1
Info: FULL ELECTROSTATIC EVALUATION FREQUENCY      2
Info: USING VERLET I (r-RESPA) MTS SCHEME.
Info: C1 SPLITTING OF LONG RANGE ELECTROSTATICS
Info: PLACING ATOMS IN PATCHES BY HYDROGEN GROUPS
Info: RIGID BONDS TO HYDROGEN : ALL
Info:         ERROR TOLERANCE : 1e-08
Info:          MAX ITERATIONS : 100
Info: RIGID WATER USING SETTLE ALGORITHM
Info: RANDOM NUMBER SEED     1741925354
Info: USE HYDROGEN BONDS?    NO
Info: Using AMBER format force field!
Info: AMBER PARM FILE        mobley_9913368.prmtop
Info: COORDINATE PDB         mobley_9913368.pdb
Info: Exclusions will be read from PARM file!
Info: SCNB (VDW SCALING)     2
Info: USING ARITHMETIC MEAN TO COMBINE L-J SIGMA PARAMETERS
Info: BINARY COORDINATES     mobley_9913368_min.coor
Info: SUMMARY OF PARAMETERS:
Info: 5 BONDS
Info: 3 ANGLES
Info:   3 HARMONIC
Info:   0 COSINE-BASED
Info: 1 DIHEDRAL
Info: 0 IMPROPER
Info: 0 CROSSTERM
Info: 0 VDW
Info: 15 VDW_PAIRS
Info: 0 NBTHOLE_PAIRS
Info: STRUCTURE SUMMARY:
Info: 2916 ATOMS
Info: 2915 BONDS
Info: 6 ANGLES
Info: 4 DIHEDRALS
Info: 0 IMPROPERS
Info: 0 CROSSTERMS
Info: 2925 EXCLUSIONS
Info: 6 FIXED ATOMS
Info: 2912 RIGID BONDS
Info: 2 RIGID BONDS BETWEEN FIXED ATOMS
Info: 5820 DEGREES OF FREEDOM
Info: 974 HYDROGEN GROUPS
Info: 3 ATOMS IN LARGEST HYDROGEN GROUP
Info: 974 MIGRATION GROUPS
Info: 3 ATOMS IN LARGEST MIGRATION GROUP
Info: 4 HYDROGEN GROUPS WITH ALL ATOMS FIXED
Info: TOTAL MASS = 17572.5 amu
Info: TOTAL CHARGE = 0.000100002 e
Info: MASS DENSITY = 0.675225 g/cm^3
Info: ATOM DENSITY = 0.0674752 atoms/A^3
Info: ADDED 0 IMPLICIT EXCLUSIONS
Info: NONBONDED TABLE R-SQUARED SPACING: 0.0625
Info: NONBONDED TABLE SIZE: 705 POINTS
Info: REMOVING COM VELOCITY 0.0186491 -0.278128 -0.0395732
TCL: Running for 100000 steps
ETITLE: TS BOND ANGLE DIHED IMPRP ELECT VDW BOUNDARY MISC KINETIC TOTAL TEMP POTENTIAL TOTAL3 TEMPAVG PRESSURE GPRESSURE VOLUME PRESSAVG GPRESSAVG
ENERGY: 0 0.0000 0.0000 0.0000 0.0000 -13561.6264 2409.2624 0.0000 0.0000 1752.5205 -9399.8435 303.0613 -11152.3640 -9399.4711 303.0613 498.0195 532.8811 43215.8504 498.0195 532.8811
ENERGY: 100000 0.0000 0.0000 0.0000 0.0000 -14105.3995 2507.5176 0.0000 0.0000 173.0152 -11424.8667 29.9193 -11597.8819 -11424.3351 30.9082 262.5092 305.3930 29203.8627 3.8926 3.8612
TCL: Running 100000 steps at 60 kelvin.
TCL: Setting parameter langevinTemp to 60
TCL: Running for 100000 steps
ETITLE: TS BOND ANGLE DIHED IMPRP ELECT VDW BOUNDARY MISC KINETIC TOTAL TEMP POTENTIAL TOTAL3 TEMPAVG PRESSURE GPRESSURE VOLUME PRESSAVG GPRESSAVG
ENERGY: 100000 0.0000 0.0000 0.0000 0.0000 -14105.3995 2507.5176 0.0000 0.0000 172.9313 -11424.9507 29.9048 -11597.8819 -11424.5437 29.9048 250.3911 305.6117 29203.8627 250.3911 305.6117
ENERGY: 200000 0.0000 0.0000 0.0000 0.0000 -13954.1796 2396.6296 0.0000 0.0000 350.0924 -11207.4576 60.5411 -11557.5500 -11206.9901 59.9034 -250.1802 -203.3263 28848.9957 3.4137 3.3108
TCL: Running 100000 steps at 90 kelvin.
TCL: Setting parameter langevinTemp to 90
TCL: Running for 100000 steps
ETITLE: TS BOND ANGLE DIHED IMPRP ELECT VDW BOUNDARY MISC KINETIC TOTAL TEMP POTENTIAL TOTAL3 TEMPAVG PRESSURE GPRESSURE VOLUME PRESSAVG GPRESSAVG
ENERGY: 200000 0.0000 0.0000 0.0000 0.0000 -13954.1796 2396.6296 0.0000 0.0000 349.9250 -11207.6250 60.5121 -11557.5500 -11206.9037 60.5121 -269.0132 -203.4799 28848.9957 -269.0132 -203.4799
ENERGY: 300000 0.0000 0.0000 0.0000 0.0000 -13676.4265 2227.7235 0.0000 0.0000 506.1770 -10942.5259 87.5326 -11448.7030 -10940.9161 90.1063 -1149.3453 -1080.9001 28896.6075 4.4959 4.4880
TCL: Running 100000 steps at 120 kelvin.
TCL: Setting parameter langevinTemp to 120
TCL: Running for 100000 steps
ETITLE: TS BOND ANGLE DIHED IMPRP ELECT VDW BOUNDARY MISC KINETIC TOTAL TEMP POTENTIAL TOTAL3 TEMPAVG PRESSURE GPRESSURE VOLUME PRESSAVG GPRESSAVG
ENERGY: 300000 0.0000 0.0000 0.0000 0.0000 -13676.4265 2227.7235 0.0000 0.0000 505.9073 -10942.7956 87.4860 -11448.7030 -10941.6555 87.4860 -1146.4834 -1080.1462 28896.6075 -1146.4834 -1080.1462
ENERGY: 400000 0.0000 0.0000 0.0000 0.0000 -13640.5189 2321.3238 0.0000 0.0000 702.1378 -10617.0572 121.4199 -11319.1950 -10615.5876 119.9891 -40.1591 38.8497 28935.1355 4.7256 4.7072
TCL: Running 100000 steps at 150 kelvin.
TCL: Setting parameter langevinTemp to 150
TCL: Running for 100000 steps
ETITLE: TS BOND ANGLE DIHED IMPRP ELECT VDW BOUNDARY MISC KINETIC TOTAL TEMP POTENTIAL TOTAL3 TEMPAVG PRESSURE GPRESSURE VOLUME PRESSAVG GPRESSAVG
ENERGY: 400000 0.0000 0.0000 0.0000 0.0000 -13640.5189 2321.3238 0.0000 0.0000 701.7955 -10617.3995 121.3607 -11319.1950 -10615.8206 121.3607 -17.3686 37.6555 28935.1355 -17.3686 37.6555
ENERGY: 500000 0.0000 0.0000 0.0000 0.0000 -13293.1257 2122.5880 0.0000 0.0000 849.6416 -10320.8961 146.9275 -11170.5377 -10318.6704 150.0442 -855.6250 -793.3435 28456.7643 3.6380 3.6292
TCL: Running 100000 steps at 180 kelvin.
TCL: Setting parameter langevinTemp to 180
TCL: Running for 100000 steps
ETITLE: TS BOND ANGLE DIHED IMPRP ELECT VDW BOUNDARY MISC KINETIC TOTAL TEMP POTENTIAL TOTAL3 TEMPAVG PRESSURE GPRESSURE VOLUME PRESSAVG GPRESSAVG
ENERGY: 500000 0.0000 0.0000 0.0000 0.0000 -13293.1257 2122.5880 0.0000 0.0000 849.2266 -10321.3111 146.8558 -11170.5377 -10319.4021 146.8558 -847.4804 -794.0707 28456.7643 -847.4804 -794.0707
ENERGY: 600000 0.0000 0.0000 0.0000 0.0000 -12986.8050 2078.7680 0.0000 0.0000 1041.4167 -9866.6204 180.0910 -10908.0370 -9864.3716 180.1282 -205.7898 -115.7242 28478.9147 5.4897 5.2282
TCL: Running 100000 steps at 210 kelvin.
TCL: Setting parameter langevinTemp to 210
TCL: Running for 100000 steps
ETITLE: TS BOND ANGLE DIHED IMPRP ELECT VDW BOUNDARY MISC KINETIC TOTAL TEMP POTENTIAL TOTAL3 TEMPAVG PRESSURE GPRESSURE VOLUME PRESSAVG GPRESSAVG
ENERGY: 600000 0.0000 0.0000 0.0000 0.0000 -12986.8050 2078.7680 0.0000 0.0000 1040.8941 -9867.1430 180.0006 -10908.0370 -9865.0431 180.0006 -185.0804 -116.1427 28478.9147 -185.0804 -116.1427
ENERGY: 700000 0.0000 0.0000 0.0000 0.0000 -12264.1077 1842.8301 0.0000 0.0000 1195.7111 -9225.5665 206.7729 -10421.2776 -9222.7402 209.6964 -430.1432 -317.4642 28550.5218 3.5898 3.4997
TCL: Running 100000 steps at 240 kelvin.
TCL: Setting parameter langevinTemp to 240
TCL: Running for 100000 steps
ETITLE: TS BOND ANGLE DIHED IMPRP ELECT VDW BOUNDARY MISC KINETIC TOTAL TEMP POTENTIAL TOTAL3 TEMPAVG PRESSURE GPRESSURE VOLUME PRESSAVG GPRESSAVG
ENERGY: 700000 0.0000 0.0000 0.0000 0.0000 -12264.1077 1842.8301 0.0000 0.0000 1195.1139 -9226.1637 206.6697 -10421.2776 -9223.9077 206.6697 -398.5306 -317.9097 28550.5218 -398.5306 -317.9097
ENERGY: 800000 0.0000 0.0000 0.0000 0.0000 -11785.3483 1728.6583 0.0000 0.0000 1410.5695 -8646.1205 243.9281 -10056.6900 -8644.4718 239.6415 227.4060 263.4832 28458.0541 4.3027 4.3411
TCL: Running 100000 steps at 270 kelvin.
TCL: Setting parameter langevinTemp to 270
TCL: Running for 100000 steps
ETITLE: TS BOND ANGLE DIHED IMPRP ELECT VDW BOUNDARY MISC KINETIC TOTAL TEMP POTENTIAL TOTAL3 TEMPAVG PRESSURE GPRESSURE VOLUME PRESSAVG GPRESSAVG
ENERGY: 800000 0.0000 0.0000 0.0000 0.0000 -11785.3483 1728.6583 0.0000 0.0000 1409.8651 -8646.8249 243.8063 -10056.6900 -8644.7355 243.8063 171.4667 263.8553 28458.0541 171.4667 263.8553
ENERGY: 900000 0.0000 0.0000 0.0000 0.0000 -11017.8422 1481.1430 0.0000 0.0000 1531.3501 -8005.3491 264.8146 -9536.6992 -8002.2004 270.2099 -505.0135 -411.7119 29404.6597 3.4087 3.5470
TCL: Running 1000000 steps at 300 kelvin.
TCL: Setting parameter langevinTemp to 300
TCL: Running for 1000000 steps
ETITLE: TS BOND ANGLE DIHED IMPRP ELECT VDW BOUNDARY MISC KINETIC TOTAL TEMP POTENTIAL TOTAL3 TEMPAVG PRESSURE GPRESSURE VOLUME PRESSAVG GPRESSAVG
ENERGY: 900000 0.0000 0.0000 0.0000 0.0000 -11017.8422 1481.1430 0.0000 0.0000 1530.5652 -8006.1339 264.6789 -9536.6992 -8004.3398 264.6789 -501.9853 -412.2656 29404.6597 -501.9853 -412.2656
ENERGY: 1100000 0.0000 0.0000 0.0000 0.0000 -10771.6116 1519.3832 0.0000 0.0000 1777.7465 -7474.4820 307.4236 -9252.2285 -7471.4816 299.9377 360.4991 499.4320 30065.4553 2.9220 2.8234
ENERGY: 1300000 0.0000 0.0000 0.0000 0.0000 -10679.4432 1409.7743 0.0000 0.0000 1715.1425 -7554.5264 296.5976 -9269.6689 -7552.3036 300.2513 -337.1156 -283.8134 29806.1524 1.4350 1.5969
ENERGY: 1500000 0.0000 0.0000 0.0000 0.0000 -10693.3597 1481.4218 0.0000 0.0000 1728.3174 -7483.6206 298.8759 -9211.9380 -7478.0753 300.1225 365.7371 496.9338 29725.5966 3.3442 3.3166
ENERGY: 1700000 0.0000 0.0000 0.0000 0.0000 -10473.3766 1366.8378 0.0000 0.0000 1716.5202 -7390.0185 296.8358 -9106.5388 -7386.4604 300.4970 -10.5608 76.9932 29675.9289 2.9067 2.8315
ENERGY: 1900000 0.0000 0.0000 0.0000 0.0000 -10603.8095 1413.1095 0.0000 0.0000 1763.9604 -7426.7396 305.0396 -9190.7000 -7422.2316 300.0530 -335.9849 -244.1183 30422.6250 4.3369 4.2864
TCL: Exiting due to exit command.
