Info: SIMULATION PARAMETERS:
Info: TIMESTEP               2
Info: NUMBER OF STEPS        0
Info: STEPS PER CYCLE        10
Info: PERIODIC CELL BASIS 1  34.986 0 0
Info: PERIODIC CELL BASIS 2  0 34.696 0
Info: PERIODIC CELL BASIS 3  0 0 35.723
Info: PERIODIC CELL CENTER   0 0 0
Info: WRAPPING WATERS AROUND PERIODIC BOUNDARIES ON OUTPUT.
Info: WRAPPING ALL CLUSTERS AROUND PERIODIC BOUNDARIES ON OUTPUT.
Info: FIRST LDB TIMESTEP     50
Info: LAST LDB TIMESTEP     -1
Info: HOM BACKGROUND SCALING 1
Info: PME BACKGROUND SCALING 1
Info: MIN ATOMS PER PATCH    40
Info: EMPTY PATCH LOAD       40 ATOMS
Info: INITIAL TEMPERATURE    300
Info: CENTER OF MASS MOVING INITIALLY? NO
Info: DIELECTRIC             1
Info: EXCLUDE                SCALED ONE-FOUR
Info: 1-4 ELECTROSTATICS SCALED BY 0.833333
Info: MODIFIED 1-4 VDW PARAMETERS WILL BE USED
Info: DCD FILENAME           mobley_4305650_equil.dcd
Info: DCD FREQUENCY          100000
Info: DCD FIRST STEP         100000
Info: DCD FILE WILL CONTAIN UNIT CELL DATA
Info: XST FILENAME           mobley_4305650_equil.xst
Info: XST FREQUENCY          100000
Info: NO VELOCITY DCD OUTPUT
Info: NO FORCE DCD OUTPUT
Info: OUTPUT FILENAME        mobley_4305650_equil
Info: BINARY OUTPUT FILES WILL BE USED
Info: RESTART FILENAME       mobley_4305650_equil.restart
Info: RESTART FREQUENCY      100000
Info: BINARY RESTART FILES WILL BE USED
Info: CUTOFF                 9
Info: PAIRLIST DISTANCE      11
Info: PAIRLIST SHRINK RATE   0.01
Info: PAIRLIST GROW RATE     0.01
Info: PAIRLIST TRIGGER       0.3
Info: PAIRLISTS PER CYCLE    2
Info: PAIRLISTS ENABLED
Info: MARGIN                 8
Info: HYDROGEN GROUP CUTOFF  2.5
Info: PATCH DIMENSION        21.5
Info: ENERGY OUTPUT STEPS    100000
Info: ENERGY EVALUATION STEPS    100000
Info: OUTPUT ENERGY PRECISION 4
Info: CROSSTERM ENERGY INCLUDED IN DIHEDRAL
Info: TIMING OUTPUT STEPS    1000000
Info: PRESSURE OUTPUT STEPS  100000
Info: LANGEVIN DYNAMICS ACTIVE
Info: LANGEVIN TEMPERATURE   30
Info: LANGEVIN USING BBK INTEGRATOR
Info: LANGEVIN DAMPING COEFFICIENT IS 1 INVERSE PS
Info: LANGEVIN DYNAMICS APPLIED TO HYDROGENS
Info: LANGEVIN PISTON PRESSURE CONTROL ACTIVE
Info:        TARGET PRESSURE IS 1.01325 BAR
Info:     OSCILLATION PERIOD IS 50 FS
Info:             DECAY TIME IS 25 FS
Info:     PISTON TEMPERATURE IS 300 K
Info:       PRESSURE CONTROL IS GROUP-BASED
Info:    INITIAL STRAIN RATE IS 0 0 0
Info:       CELL FLUCTUATION IS ISOTROPIC
Info: PARTICLE MESH EWALD (PME) ACTIVE
Info: PME TOLERANCE               1e-06
Info: PME EWALD COEFFICIENT       0.348832
Info: PME INTERPOLATION ORDER     4
Info: PME GRID DIMENSIONS         36 36 36
Info: PME MAXIMUM GRID SPACING    1
Info: FULL ELECTROSTATIC EVALUATION FREQUENCY      2
Info: USING VERLET I (r-RESPA) MTS SCHEME.
Info: C1 SPLITTING OF LONG RANGE ELECTROSTATICS
Info: PLACING ATOMS IN PATCHES BY HYDROGEN GROUPS
Info: RIGID BONDS TO HYDROGEN : ALL
Info:         ERROR TOLERANCE : 1e-08
Info:          MAX ITERATIONS : 100
Info: RIGID WATER USING SETTLE ALGORITHM
Info: RANDOM NUMBER SEED     1742360394
Info: USE HYDROGEN BONDS?    NO
Info: Using AMBER format force field!
Info: AMBER PARM FILE        mobley_4305650.prmtop
Info: COORDINATE PDB         mobley_4305650.pdb
Info: Exclusions will be read from PARM file!
Info: SCNB (VDW SCALING)     2
Info: USING ARITHMETIC MEAN TO COMBINE L-J SIGMA PARAMETERS
Info: BINARY COORDINATES     mobley_4305650_min.coor
Info: SUMMARY OF PARAMETERS:
Info: 6 BONDS
Info: 5 ANGLES
Info:   5 HARMONIC
Info:   0 COSINE-BASED
Info: 3 DIHEDRAL
Info: 0 IMPROPER
Info: 0 CROSSTERM
Info: 0 VDW
Info: 21 VDW_PAIRS
Info: 0 NBTHOLE_PAIRS
Info: STRUCTURE SUMMARY:
Info: 2919 ATOMS
Info: 2918 BONDS
Info: 13 ANGLES
Info: 12 DIHEDRALS
Info: 0 IMPROPERS
Info: 0 CROSSTERMS
Info: 2943 EXCLUSIONS
Info: 2915 RIGID BONDS
Info: 5842 DEGREES OF FREEDOM
Info: 974 HYDROGEN GROUPS
Info: 4 ATOMS IN LARGEST HYDROGEN GROUP
Info: 974 MIGRATION GROUPS
Info: 4 ATOMS IN LARGEST MIGRATION GROUP
Info: TOTAL MASS = 17530.6 amu
Info: TOTAL CHARGE = -0.000200007 e
Info: MASS DENSITY = 0.671327 g/cm^3
Info: ATOM DENSITY = 0.0673151 atoms/A^3
Info: ADDED 0 IMPLICIT EXCLUSIONS
Info: NONBONDED TABLE R-SQUARED SPACING: 0.0625
Info: NONBONDED TABLE SIZE: 705 POINTS
Info: REMOVING COM VELOCITY -0.0249823 -0.136994 -0.0503269
TCL: Running for 100000 steps
ETITLE: TS BOND ANGLE DIHED IMPRP ELECT VDW BOUNDARY MISC KINETIC TOTAL TEMP POTENTIAL TOTAL3 TEMPAVG PRESSURE GPRESSURE VOLUME PRESSAVG GPRESSAVG
ENERGY: 0 0.0153 0.0810 0.0017 0.0000 -13509.8243 2379.1416 0.0000 0.0000 1759.2363 -9371.3483 303.0770 -11130.5846 -9370.9984 303.0770 466.2515 507.4108 43363.2300 466.2515 507.4108
ENERGY: 100000 0.5235 0.3117 0.0447 0.0000 -14148.5189 2495.1140 0.0000 0.0000 174.6420 -11477.8830 30.0869 -11652.5250 -11477.3964 30.9180 112.8564 168.2553 28615.1222 3.3041 3.3112
TCL: Running 100000 steps at 60 kelvin.
TCL: Setting parameter langevinTemp to 60
TCL: Running for 100000 steps
ETITLE: TS BOND ANGLE DIHED IMPRP ELECT VDW BOUNDARY MISC KINETIC TOTAL TEMP POTENTIAL TOTAL3 TEMPAVG PRESSURE GPRESSURE VOLUME PRESSAVG GPRESSAVG
ENERGY: 100000 0.5235 0.3117 0.0447 0.0000 -14148.5189 2495.1140 0.0000 0.0000 174.5544 -11477.9706 30.0718 -11652.5250 -11477.6386 30.0718 113.4835 168.3902 28615.1222 113.4835 168.3902
ENERGY: 200000 0.7057 0.5598 0.0211 0.0000 -13818.3970 2241.2691 0.0000 0.0000 354.0369 -11221.8045 60.9926 -11575.8413 -11220.9830 60.0417 -1582.5721 -1547.1648 28833.1097 3.6500 3.5709
TCL: Running 100000 steps at 90 kelvin.
TCL: Setting parameter langevinTemp to 90
TCL: Running for 100000 steps
ETITLE: TS BOND ANGLE DIHED IMPRP ELECT VDW BOUNDARY MISC KINETIC TOTAL TEMP POTENTIAL TOTAL3 TEMPAVG PRESSURE GPRESSURE VOLUME PRESSAVG GPRESSAVG
ENERGY: 200000 0.7057 0.5598 0.0211 0.0000 -13818.3970 2241.2691 0.0000 0.0000 353.8598 -11221.9815 60.9621 -11575.8413 -11221.2482 60.9621 -1599.3642 -1547.2970 28833.1097 -1599.3642 -1547.2970
ENERGY: 300000 0.0630 1.2544 0.0389 0.0000 -13902.1691 2427.9050 0.0000 0.0000 529.6779 -10943.2298 91.2516 -11472.9077 -10941.5593 89.8673 694.7277 735.0771 27877.4151 3.7776 3.8344
TCL: Running 100000 steps at 120 kelvin.
TCL: Setting parameter langevinTemp to 120
TCL: Running for 100000 steps
ETITLE: TS BOND ANGLE DIHED IMPRP ELECT VDW BOUNDARY MISC KINETIC TOTAL TEMP POTENTIAL TOTAL3 TEMPAVG PRESSURE GPRESSURE VOLUME PRESSAVG GPRESSAVG
ENERGY: 300000 0.0630 1.2544 0.0389 0.0000 -13902.1691 2427.9050 0.0000 0.0000 529.4103 -10943.4974 91.2055 -11472.9077 -10942.6053 91.2055 680.6527 735.2161 27877.4151 680.6527 735.2161
ENERGY: 400000 0.0622 2.4236 0.2134 0.0000 -13632.1302 2271.9103 0.0000 0.0000 714.0689 -10643.4519 123.0181 -11357.5208 -10641.0985 120.0592 -314.8962 -266.7547 28468.1944 4.3767 4.3506
TCL: Running 100000 steps at 150 kelvin.
TCL: Setting parameter langevinTemp to 150
TCL: Running for 100000 steps
ETITLE: TS BOND ANGLE DIHED IMPRP ELECT VDW BOUNDARY MISC KINETIC TOTAL TEMP POTENTIAL TOTAL3 TEMPAVG PRESSURE GPRESSURE VOLUME PRESSAVG GPRESSAVG
ENERGY: 400000 0.0622 2.4236 0.2134 0.0000 -13632.1302 2271.9103 0.0000 0.0000 713.7202 -10643.8006 122.9580 -11357.5208 -10642.1042 122.9580 -320.1288 -266.1465 28468.1944 -320.1288 -266.1465
ENERGY: 500000 0.0903 1.5920 0.0473 0.0000 -13351.6318 2200.4073 0.0000 0.0000 895.8827 -10253.6122 154.3405 -11149.4949 -10250.7992 150.0560 -260.0140 -220.4160 28594.6218 4.0748 4.2596
TCL: Running 100000 steps at 180 kelvin.
TCL: Setting parameter langevinTemp to 180
TCL: Running for 100000 steps
ETITLE: TS BOND ANGLE DIHED IMPRP ELECT VDW BOUNDARY MISC KINETIC TOTAL TEMP POTENTIAL TOTAL3 TEMPAVG PRESSURE GPRESSURE VOLUME PRESSAVG GPRESSAVG
ENERGY: 500000 0.0903 1.5920 0.0473 0.0000 -13351.6318 2200.4073 0.0000 0.0000 895.4408 -10254.0540 154.2644 -11149.4949 -10252.2486 154.2644 -269.2767 -220.4666 28594.6218 -269.2767 -220.4666
ENERGY: 600000 1.4218 2.5091 0.2864 0.0000 -12965.7959 2109.9930 0.0000 0.0000 1034.5315 -9817.0541 178.2266 -10851.5856 -9813.4770 179.7796 118.1700 197.1141 28479.5292 5.3430 5.2221
TCL: Running 100000 steps at 210 kelvin.
TCL: Setting parameter langevinTemp to 210
TCL: Running for 100000 steps
ETITLE: TS BOND ANGLE DIHED IMPRP ELECT VDW BOUNDARY MISC KINETIC TOTAL TEMP POTENTIAL TOTAL3 TEMPAVG PRESSURE GPRESSURE VOLUME PRESSAVG GPRESSAVG
ENERGY: 600000 1.4218 2.5091 0.2864 0.0000 -12965.7959 2109.9930 0.0000 0.0000 1034.0140 -9817.5717 178.1374 -10851.5856 -9816.2298 178.1374 137.9005 199.6158 28479.5292 137.9005 199.6158
ENERGY: 700000 0.9037 3.6455 0.7381 0.0000 -12309.5769 1848.9583 0.0000 0.0000 1219.2576 -9236.0738 210.0508 -10455.3314 -9232.2544 209.8993 -317.8821 -168.0520 28167.1396 3.6443 3.7579
TCL: Running 100000 steps at 240 kelvin.
TCL: Setting parameter langevinTemp to 240
TCL: Running for 100000 steps
ETITLE: TS BOND ANGLE DIHED IMPRP ELECT VDW BOUNDARY MISC KINETIC TOTAL TEMP POTENTIAL TOTAL3 TEMPAVG PRESSURE GPRESSURE VOLUME PRESSAVG GPRESSAVG
ENERGY: 700000 0.9037 3.6455 0.7381 0.0000 -12309.5769 1848.9583 0.0000 0.0000 1218.6314 -9236.7000 209.9429 -10455.3314 -9234.9165 209.9429 -258.3190 -167.4578 28167.1396 -258.3190 -167.4578
ENERGY: 800000 1.1140 4.9450 0.0953 0.0000 -11740.1587 1764.7817 0.0000 0.0000 1388.1778 -8581.0448 239.1520 -9969.2227 -8577.6998 239.9795 542.8998 581.3893 28720.2059 3.1195 3.0640
TCL: Running 100000 steps at 270 kelvin.
TCL: Setting parameter langevinTemp to 270
TCL: Running for 100000 steps
ETITLE: TS BOND ANGLE DIHED IMPRP ELECT VDW BOUNDARY MISC KINETIC TOTAL TEMP POTENTIAL TOTAL3 TEMPAVG PRESSURE GPRESSURE VOLUME PRESSAVG GPRESSAVG
ENERGY: 800000 1.1140 4.9450 0.0953 0.0000 -11740.1587 1764.7817 0.0000 0.0000 1387.4659 -8581.7568 239.0293 -9969.2227 -8578.9846 239.0293 522.8917 581.8880 28720.2059 522.8917 581.8880
ENERGY: 900000 0.3285 3.8874 0.0407 0.0000 -11071.8839 1543.2370 0.0000 0.0000 1596.7589 -7927.6314 275.0858 -9524.3903 -7921.1681 270.2958 -25.0325 86.8411 29283.5222 3.3275 3.4390
TCL: Running 1000000 steps at 300 kelvin.
TCL: Setting parameter langevinTemp to 300
TCL: Running for 1000000 steps
ETITLE: TS BOND ANGLE DIHED IMPRP ELECT VDW BOUNDARY MISC KINETIC TOTAL TEMP POTENTIAL TOTAL3 TEMPAVG PRESSURE GPRESSURE VOLUME PRESSAVG GPRESSAVG
ENERGY: 900000 0.3285 3.8874 0.0407 0.0000 -11071.8839 1543.2370 0.0000 0.0000 1596.0189 -7928.3714 274.9583 -9524.3903 -7926.3121 274.9583 6.2535 91.0216 29283.5222 6.2535 91.0216
ENERGY: 1100000 1.0004 3.6957 0.0624 0.0000 -10662.8978 1488.4167 0.0000 0.0000 1749.9763 -7419.7464 301.4817 -9169.7226 -7415.8176 300.5039 478.1881 564.1905 29941.2090 2.6368 2.7704
ENERGY: 1300000 2.1992 4.0243 0.0757 0.0000 -10576.2925 1374.8443 0.0000 0.0000 1721.7519 -7473.3972 296.6193 -9195.1491 -7470.9886 300.1798 -518.2105 -382.7312 29841.2512 2.9762 3.1097
ENERGY: 1500000 1.3441 3.0881 0.1157 0.0000 -10524.5219 1408.1846 0.0000 0.0000 1765.9870 -7345.8024 304.2400 -9111.7894 -7340.8587 300.4440 -21.7232 93.3273 30277.1993 3.5779 3.7150
ENERGY: 1700000 1.2231 3.5061 0.1017 0.0000 -10665.7003 1517.2249 0.0000 0.0000 1754.4753 -7389.1693 302.2568 -9143.6446 -7386.5929 300.5940 705.8427 818.3847 29964.7344 5.0086 4.8767
ENERGY: 1900000 2.1517 2.8144 0.2528 0.0000 -10545.2570 1368.1265 0.0000 0.0000 1712.6047 -7459.3069 295.0434 -9171.9116 -7453.5598 300.2073 -749.0759 -633.0500 30301.1030 3.2002 3.2659
TCL: Exiting due to exit command.
