Info: SIMULATION PARAMETERS:
Info: TIMESTEP               1
Info: NUMBER OF STEPS        0
Info: STEPS PER CYCLE        10
Info: PERIODIC CELL BASIS 1  30 0 0
Info: PERIODIC CELL BASIS 2  0 30 0
Info: PERIODIC CELL BASIS 3  0 0 30
Info: PERIODIC CELL CENTER   0 0 0
Info: WRAPPING ALL CLUSTERS AROUND PERIODIC BOUNDARIES ON OUTPUT.
Info: FIRST LDB TIMESTEP     50
Info: LAST LDB TIMESTEP     -1
Info: HOM BACKGROUND SCALING 1
Info: MIN ATOMS PER PATCH    40
Info: EMPTY PATCH LOAD       40 ATOMS
Info: INITIAL TEMPERATURE    298
Info: CENTER OF MASS MOVING INITIALLY? NO
Info: DIELECTRIC             1
Info: EXCLUDE                SCALED ONE-FOUR
Info: 1-4 ELECTROSTATICS SCALED BY 1
Info: MODIFIED 1-4 VDW PARAMETERS WILL BE USED
Info: DCD FILENAME           output.dcd
Info: DCD FREQUENCY          10
Info: DCD FIRST STEP         10
Info: DCD FILE WILL CONTAIN UNIT CELL DATA
Info: NO EXTENDED SYSTEM TRAJECTORY OUTPUT
Info: NO VELOCITY DCD OUTPUT
Info: NO FORCE DCD OUTPUT
Info: OUTPUT FILENAME        output
Info: BINARY OUTPUT FILES WILL BE USED
Info: NO RESTART FILE
Info: SWITCHING ACTIVE
Info: SWITCHING ON           10
Info: SWITCHING OFF          12
Info: PAIRLIST DISTANCE      14
Info: PAIRLIST SHRINK RATE   0.01
Info: PAIRLIST GROW RATE     0.01
Info: PAIRLIST TRIGGER       0.3
Info: PAIRLISTS PER CYCLE    2
Info: PAIRLISTS ENABLED
Info: MARGIN                 0
Info: HYDROGEN GROUP CUTOFF  2.5
Info: PATCH DIMENSION        16.5
Info: ENERGY OUTPUT STEPS    10
Info: ENERGY EVALUATION STEPS    10
Info: OUTPUT ENERGY PRECISION 4
Info: CROSSTERM ENERGY INCLUDED IN DIHEDRAL
Info: TIMING OUTPUT STEPS    10
Info: TEMPERATURE COUPLING ACTIVE
Info: COUPLING TEMPERATURE   298
Info: MULTILEVEL SUMMATION METHOD (MSM) FOR ELECTROSTATICS ACTIVE
Info: MSM WITH C1 CUBIC INTERPOLATION AND C2 TAYLOR SPLITTING
Info: FULL ELECTROSTATIC EVALUATION FREQUENCY      1
Info: USING VERLET I (r-RESPA) MTS SCHEME.
Info: C1 SPLITTING OF LONG RANGE ELECTROSTATICS
Info: PLACING ATOMS IN PATCHES BY HYDROGEN GROUPS
Info: RIGID BONDS TO HYDROGEN : ALL
Info:         ERROR TOLERANCE : 1e-08
Info:          MAX ITERATIONS : 100
Info: RIGID WATER USING SETTLE ALGORITHM
Info: RANDOM NUMBER SEED     1740278086
Info: USE HYDROGEN BONDS?    NO
Info: COORDINATE PDB         ionized.pdb
Info: STRUCTURE FILE         ionized.psf
Info: PARAMETER file: CHARMM format!
Info: PARAMETERS             par_all27_prot_lipid.inp
Info: USING ARITHMETIC MEAN TO COMBINE L-J SIGMA PARAMETERS
Info: SUMMARY OF PARAMETERS:
Info: 180 BONDS
Info: 447 ANGLES
Info: 566 DIHEDRAL
Info: 46 IMPROPER
Info: 6 CROSSTERM
Info: 119 VDW
Info: 0 VDW_PAIRS
Info: 0 NBTHOLE_PAIRS
Info: STRUCTURE SUMMARY:
Info: 2476 ATOMS
Info: 1650 BONDS
Info: 825 ANGLES
Info: 0 DIHEDRALS
Info: 0 IMPROPERS
Info: 0 CROSSTERMS
Info: 0 EXCLUSIONS
Info: 2475 RIGID BONDS
Info: 4950 DEGREES OF FREEDOM
Info: 826 HYDROGEN GROUPS
Info: 3 ATOMS IN LARGEST HYDROGEN GROUP
Info: 826 MIGRATION GROUPS
Info: 3 ATOMS IN LARGEST MIGRATION GROUP
Info: TOTAL MASS = 14885.7 amu
Info: TOTAL CHARGE = 1 e
Info: MASS DENSITY = 0.915513 g/cm^3
Info: ATOM DENSITY = 0.0917037 atoms/A^3
Info: ADDED 2475 IMPLICIT EXCLUSIONS
Info: NONBONDED TABLE R-SQUARED SPACING: 0.0625
Info: NONBONDED TABLE SIZE: 769 POINTS
Info: REMOVING COM VELOCITY 0.0676548 0.0543186 0.177957
Info: MSM using C1 cubic interpolation
Info: MSM using C2 Taylor splitting function
Info: MSM block size decomposition along X is 8 grid points
Info: MSM block size decomposition along Y is 8 grid points
Info: MSM block size decomposition along Z is 8 grid points
Info: MSM grid spacing along X is 2.5 A
Info: MSM grid spacing along Y is 2.5 A
Info: MSM grid spacing along Z is 2.5 A
Info: MSM using 3 levels
Info:     level 0:  [0..11] x [0..11] x [0..11]
Info:     level 1:  [0..5] x [0..5] x [0..5]
Info:     level 2:  [0..2] x [0..2] x [0..2]
Info: MSM finished calculating stencils
Info: MSM finished creating map for grid levels
Info: MSM finished creating map for patches
Info: MSM has 9 interpolation / anterpolation objects (one per patch)
Info: MSM grid level 0 decomposed into 8 blocks ( 2 x 2 x 2 )
Info: MSM grid level 1 decomposed into 1 block ( 1 x 1 x 1 )
Info: MSM grid level 2 decomposed into 1 block ( 1 x 1 x 1 )
Info: MSM grid cutoff calculation decomposed into 783 work objects
TCL: Minimizing for 1000 steps
ETITLE: TS BOND ANGLE DIHED IMPRP ELECT VDW BOUNDARY MISC KINETIC TOTAL TEMP POTENTIAL TOTAL3 TEMPAVG PRESSURE GPRESSURE VOLUME PRESSAVG GPRESSAVG
ENERGY: 0 0.0000 0.0000 0.0000 0.0000 -7348.6496 6353.7252 0.0000 0.0000 0.0000 -994.9244 0.0000 -994.9244 -994.9244 0.0000 75204.0846 46356.0498 27000.0000 75204.0846 46356.0498
ENERGY: 200 0.0000 0.0000 0.0000 0.0000 -10303.6458 972.2705 0.0000 0.0000 0.0000 -9331.3753 0.0000 -9331.3753 -9331.3753 0.0000 17316.1215 17245.3828 27000.0000 17316.1215 17245.3828
ENERGY: 400 0.0000 0.0000 0.0000 0.0000 -10904.8019 1241.7539 0.0000 0.0000 0.0000 -9663.0480 0.0000 -9663.0480 -9663.0480 0.0000 20333.9282 20240.9729 27000.0000 20333.9282 20240.9729
ENERGY: 600 0.0000 0.0000 0.0000 0.0000 -11082.1840 1295.0387 0.0000 0.0000 0.0000 -9787.1453 0.0000 -9787.1453 -9787.1453 0.0000 20948.5745 20851.7919 27000.0000 20948.5745 20851.7919
ENERGY: 800 0.0000 0.0000 0.0000 0.0000 -11186.5982 1320.7096 0.0000 0.0000 0.0000 -9865.8886 0.0000 -9865.8886 -9865.8886 0.0000 21228.4622 21152.5476 27000.0000 21228.4622 21152.5476
ENERGY: 1000 0.0000 0.0000 0.0000 0.0000 -11260.9649 1344.6246 0.0000 0.0000 0.0000 -9916.3403 0.0000 -9916.3403 -9916.3403 0.0000 21495.5356 21413.7656 27000.0000 21495.5356 21413.7656
TCL: Running for 2000 steps
ETITLE: TS BOND ANGLE DIHED IMPRP ELECT VDW BOUNDARY MISC KINETIC TOTAL TEMP POTENTIAL TOTAL3 TEMPAVG PRESSURE GPRESSURE VOLUME PRESSAVG GPRESSAVG
ENERGY: 1000 0.0000 0.0000 0.0000 0.0000 -11260.9651 1344.6246 0.0000 0.0000 1462.1020 -8454.2385 297.2781 -9916.3405 -8454.4551 297.2781 -2469.6030 -2469.6030 27000.0000 -2469.6030 -2469.6030
ENERGY: 1400 0.0000 0.0000 0.0000 0.0000 -10012.9667 1132.0096 0.0000 0.0000 933.0138 -7947.9434 189.7026 -8880.9571 -7947.5029 191.8786 -1697.3907 -1696.9422 27000.0000 -1751.0382 -1750.5986
ENERGY: 1800 0.0000 0.0000 0.0000 0.0000 -9714.2021 1025.9959 0.0000 0.0000 1089.5824 -7598.6238 221.5365 -8688.2062 -7598.0907 223.4273 -1887.8769 -1887.5695 27000.0000 -1881.4464 -1881.1441
ENERGY: 2200 0.0000 0.0000 0.0000 0.0000 -9571.1710 1038.2125 0.0000 0.0000 1199.5854 -7333.3730 243.9026 -8532.9584 -7332.7671 241.2141 -1332.8830 -1332.6537 27000.0000 -1201.5539 -1201.3127
ENERGY: 2600 0.0000 0.0000 0.0000 0.0000 -9347.0076 944.2628 0.0000 0.0000 1263.1258 -7139.6190 256.8217 -8402.7448 -7138.9552 256.5495 -1703.6506 -1703.4812 27000.0000 -1715.4021 -1715.2325
ENERGY: 3000 0.0000 0.0000 0.0000 0.0000 -9258.5658 975.0220 0.0000 0.0000 1287.5333 -6996.0106 261.7843 -8283.5439 -6995.3697 260.8482 -1068.1727 -1068.0194 27000.0000 -977.6223 -977.4646
