Info: SIMULATION PARAMETERS:
Info: TIMESTEP               2
Info: NUMBER OF STEPS        0
Info: STEPS PER CYCLE        10
Info: PERIODIC CELL BASIS 1  40.176 0 0
Info: PERIODIC CELL BASIS 2  0 39.757 0
Info: PERIODIC CELL BASIS 3  0 0 40.862
Info: PERIODIC CELL CENTER   0 0 0
Info: WRAPPING WATERS AROUND PERIODIC BOUNDARIES ON OUTPUT.
Info: WRAPPING ALL CLUSTERS AROUND PERIODIC BOUNDARIES ON OUTPUT.
Info: FIRST LDB TIMESTEP     50
Info: LAST LDB TIMESTEP     -1
Info: HOM BACKGROUND SCALING 1
Info: PME BACKGROUND SCALING 1
Info: MIN ATOMS PER PATCH    40
Info: EMPTY PATCH LOAD       40 ATOMS
Info: INITIAL TEMPERATURE    300
Info: CENTER OF MASS MOVING INITIALLY? NO
Info: DIELECTRIC             1
Info: EXCLUDE                SCALED ONE-FOUR
Info: 1-4 ELECTROSTATICS SCALED BY 0.833333
Info: MODIFIED 1-4 VDW PARAMETERS WILL BE USED
Info: DCD FILENAME           mobley_63712_min.dcd
Info: DCD FREQUENCY          5000
Info: DCD FIRST STEP         5000
Info: DCD FILE WILL CONTAIN UNIT CELL DATA
Info: XST FILENAME           mobley_63712_min.xst
Info: XST FREQUENCY          5000
Info: NO VELOCITY DCD OUTPUT
Info: NO FORCE DCD OUTPUT
Info: OUTPUT FILENAME        mobley_63712_min
Info: BINARY OUTPUT FILES WILL BE USED
Info: RESTART FILENAME       mobley_63712_min.restart
Info: RESTART FREQUENCY      5000
Info: BINARY RESTART FILES WILL BE USED
Info: CUTOFF                 9
Info: PAIRLIST DISTANCE      11
Info: PAIRLIST SHRINK RATE   0.01
Info: PAIRLIST GROW RATE     0.01
Info: PAIRLIST TRIGGER       0.3
Info: PAIRLISTS PER CYCLE    2
Info: PAIRLISTS ENABLED
Info: MARGIN                 8
Info: HYDROGEN GROUP CUTOFF  2.5
Info: PATCH DIMENSION        21.5
Info: ENERGY OUTPUT STEPS    5000
Info: ENERGY EVALUATION STEPS    5000
Info: OUTPUT ENERGY PRECISION 4
Info: CROSSTERM ENERGY INCLUDED IN DIHEDRAL
Info: TIMING OUTPUT STEPS    50000
Info: PRESSURE OUTPUT STEPS  5000
Info: LANGEVIN DYNAMICS ACTIVE
Info: LANGEVIN TEMPERATURE   300
Info: LANGEVIN USING BBK INTEGRATOR
Info: LANGEVIN DAMPING COEFFICIENT IS 1 INVERSE PS
Info: LANGEVIN DYNAMICS APPLIED TO HYDROGENS
Info: LANGEVIN PISTON PRESSURE CONTROL ACTIVE
Info:        TARGET PRESSURE IS 1.01325 BAR
Info:     OSCILLATION PERIOD IS 50 FS
Info:             DECAY TIME IS 25 FS
Info:     PISTON TEMPERATURE IS 300 K
Info:       PRESSURE CONTROL IS GROUP-BASED
Info:    INITIAL STRAIN RATE IS 0 0 0
Info:       CELL FLUCTUATION IS ISOTROPIC
Info: PARTICLE MESH EWALD (PME) ACTIVE
Info: PME TOLERANCE               1e-06
Info: PME EWALD COEFFICIENT       0.348832
Info: PME INTERPOLATION ORDER     4
Info: PME GRID DIMENSIONS         44 40 44
Info: PME MAXIMUM GRID SPACING    1
Info: FULL ELECTROSTATIC EVALUATION FREQUENCY      2
Info: USING VERLET I (r-RESPA) MTS SCHEME.
Info: C1 SPLITTING OF LONG RANGE ELECTROSTATICS
Info: PLACING ATOMS IN PATCHES BY HYDROGEN GROUPS
Info: RIGID BONDS TO HYDROGEN : ALL
Info:         ERROR TOLERANCE : 1e-08
Info:          MAX ITERATIONS : 100
Info: RIGID WATER USING SETTLE ALGORITHM
Info: RANDOM NUMBER SEED     1741382348
Info: USE HYDROGEN BONDS?    NO
Info: Using AMBER format force field!
Info: AMBER PARM FILE        mobley_63712.prmtop
Info: COORDINATE PDB         mobley_63712.pdb
Info: Exclusions will be read from PARM file!
Info: SCNB (VDW SCALING)     2
Info: USING ARITHMETIC MEAN TO COMBINE L-J SIGMA PARAMETERS
Info: SUMMARY OF PARAMETERS:
Info: 6 BONDS
Info: 8 ANGLES
Info:   8 HARMONIC
Info:   0 COSINE-BASED
Info: 8 DIHEDRAL
Info: 0 IMPROPER
Info: 0 CROSSTERM
Info: 0 VDW
Info: 21 VDW_PAIRS
Info: 0 NBTHOLE_PAIRS
Info: STRUCTURE SUMMARY:
Info: 4826 ATOMS
Info: 4826 BONDS
Info: 39 ANGLES
Info: 54 DIHEDRALS
Info: 0 IMPROPERS
Info: 0 CROSSTERMS
Info: 4916 EXCLUSIONS
Info: 4819 RIGID BONDS
Info: 9659 DEGREES OF FREEDOM
Info: 1609 HYDROGEN GROUPS
Info: 4 ATOMS IN LARGEST HYDROGEN GROUP
Info: 1609 MIGRATION GROUPS
Info: 4 ATOMS IN LARGEST MIGRATION GROUP
Info: TOTAL MASS = 28960.8 amu
Info: TOTAL CHARGE = -1.11759e-08 e
Info: MASS DENSITY = 0.736835 g/cm^3
Info: ATOM DENSITY = 0.0739414 atoms/A^3
Info: ADDED 0 IMPLICIT EXCLUSIONS
Info: NONBONDED TABLE R-SQUARED SPACING: 0.0625
Info: NONBONDED TABLE SIZE: 705 POINTS
Info: REMOVING COM VELOCITY 0.00269875 0.0651593 -0.102917
TCL: Minimizing for 2000 steps
ETITLE: TS BOND ANGLE DIHED IMPRP ELECT VDW BOUNDARY MISC KINETIC TOTAL TEMP POTENTIAL TOTAL3 TEMPAVG PRESSURE GPRESSURE VOLUME PRESSAVG GPRESSAVG
ENERGY: 0 0.0964 0.6591 0.3550 0.0000 -15239.9814 1739.3776 0.0000 0.0000 0.0000 -13499.4934 0.0000 -13499.4934 -13499.4934 0.0000 11556.2715 -16353.6009 65267.9423 11556.2715 -16353.6009
ENERGY: 400 24.1664 32.3310 2.2894 0.0000 -20304.4429 2921.0676 0.0000 0.0000 0.0000 -17324.5885 0.0000 -17324.5885 -17324.5885 0.0000 16149.9904 16195.3148 65267.9423 16149.9904 16195.3148
ENERGY: 800 0.8975 0.7985 0.5697 0.0000 -21384.7173 3510.1846 0.0000 0.0000 0.0000 -17872.2671 0.0000 -17872.2671 -17872.2671 0.0000 18965.4306 19091.0850 65267.9423 18965.4306 19091.0850
ENERGY: 1200 7.8221 10.3801 0.7661 0.0000 -21804.2493 3685.8699 0.0000 0.0000 0.0000 -18099.4111 0.0000 -18099.4111 -18099.4111 0.0000 19862.8540 19957.4677 65267.9423 19862.8540 19957.4677
ENERGY: 1600 5.6194 7.0956 0.6395 0.0000 -22013.8573 3774.3885 0.0000 0.0000 0.0000 -18226.1143 0.0000 -18226.1143 -18226.1143 0.0000 20360.0898 20447.7630 65267.9423 20360.0898 20447.7630
ENERGY: 2000 0.3731 0.3426 0.5197 0.0000 -22187.7006 3856.7206 0.0000 0.0000 0.0000 -18329.7446 0.0000 -18329.7446 -18329.7446 0.0000 20755.7062 20861.6634 65267.9423 20755.7062 20861.6634
TCL: Exiting due to exit command.
Info: NAMD 3.0.1 for Linux-x86_64-multicore
Info: Please visit http://www.ks.uiuc.edu/Research/namd/
Info: for updates, documentation, and support information.
Info: Please cite Phillips et al., J. Chem. Phys. 153:044130 (2020) doi:10.1063/5.0014475
Info: in all publications reporting results obtained with NAMD.
Info: Based on Charm++/Converse 80000 for multicore-linux-x86_64-gcc
Info: Built Mon Oct 14 11:11:06 CDT 2024 by dhardy on athine.ks.uiuc.edu
Info: 1 NAMD  3.0.1  Linux-x86_64-multicore  16    k018  z5358697
Info: Running on 16 processors, 1 nodes, 1 physical nodes.
Info: CPU topology information available.
Info: Charm++/Converse parallel runtime startup completed at 0.00522113 s
Info: 1043.45 MB of memory in use based on /proc/self/stat
Info: Configuration file is mobley_63712_equil.namd
Info: Working in the current directory /srv/scratch/z5358697/prod_prep_8/63712
TCL: Running 25000 steps at 30 kelvin.
TCL: Suspending until startup complete.
Info: SIMULATION PARAMETERS:
Info: TIMESTEP               2
Info: NUMBER OF STEPS        0
Info: STEPS PER CYCLE        10
Info: PERIODIC CELL BASIS 1  40.176 0 0
Info: PERIODIC CELL BASIS 2  0 39.757 0
Info: PERIODIC CELL BASIS 3  0 0 40.862
Info: PERIODIC CELL CENTER   0 0 0
Info: WRAPPING WATERS AROUND PERIODIC BOUNDARIES ON OUTPUT.
Info: WRAPPING ALL CLUSTERS AROUND PERIODIC BOUNDARIES ON OUTPUT.
Info: FIRST LDB TIMESTEP     50
Info: LAST LDB TIMESTEP     -1
Info: HOM BACKGROUND SCALING 1
Info: PME BACKGROUND SCALING 1
Info: MIN ATOMS PER PATCH    40
Info: EMPTY PATCH LOAD       40 ATOMS
Info: INITIAL TEMPERATURE    300
Info: CENTER OF MASS MOVING INITIALLY? NO
Info: DIELECTRIC             1
Info: EXCLUDE                SCALED ONE-FOUR
Info: 1-4 ELECTROSTATICS SCALED BY 0.833333
Info: MODIFIED 1-4 VDW PARAMETERS WILL BE USED
Info: DCD FILENAME           mobley_63712_equil.dcd
Info: DCD FREQUENCY          5000
Info: DCD FIRST STEP         5000
Info: DCD FILE WILL CONTAIN UNIT CELL DATA
Info: XST FILENAME           mobley_63712_equil.xst
Info: XST FREQUENCY          5000
Info: NO VELOCITY DCD OUTPUT
Info: NO FORCE DCD OUTPUT
Info: OUTPUT FILENAME        mobley_63712_equil
Info: BINARY OUTPUT FILES WILL BE USED
Info: RESTART FILENAME       mobley_63712_equil.restart
Info: RESTART FREQUENCY      5000
Info: BINARY RESTART FILES WILL BE USED
Info: CUTOFF                 9
Info: PAIRLIST DISTANCE      11
Info: PAIRLIST SHRINK RATE   0.01
Info: PAIRLIST GROW RATE     0.01
Info: PAIRLIST TRIGGER       0.3
Info: PAIRLISTS PER CYCLE    2
Info: PAIRLISTS ENABLED
Info: MARGIN                 8
Info: HYDROGEN GROUP CUTOFF  2.5
Info: PATCH DIMENSION        21.5
Info: ENERGY OUTPUT STEPS    5000
Info: ENERGY EVALUATION STEPS    5000
Info: OUTPUT ENERGY PRECISION 4
Info: CROSSTERM ENERGY INCLUDED IN DIHEDRAL
Info: TIMING OUTPUT STEPS    50000
Info: PRESSURE OUTPUT STEPS  5000
Info: LANGEVIN DYNAMICS ACTIVE
Info: LANGEVIN TEMPERATURE   30
Info: LANGEVIN USING BBK INTEGRATOR
Info: LANGEVIN DAMPING COEFFICIENT IS 1 INVERSE PS
Info: LANGEVIN DYNAMICS APPLIED TO HYDROGENS
Info: LANGEVIN PISTON PRESSURE CONTROL ACTIVE
Info:        TARGET PRESSURE IS 1.01325 BAR
Info:     OSCILLATION PERIOD IS 50 FS
Info:             DECAY TIME IS 25 FS
Info:     PISTON TEMPERATURE IS 300 K
Info:       PRESSURE CONTROL IS GROUP-BASED
Info:    INITIAL STRAIN RATE IS 0 0 0
Info:       CELL FLUCTUATION IS ISOTROPIC
Info: PARTICLE MESH EWALD (PME) ACTIVE
Info: PME TOLERANCE               1e-06
Info: PME EWALD COEFFICIENT       0.348832
Info: PME INTERPOLATION ORDER     4
Info: PME GRID DIMENSIONS         44 40 44
Info: PME MAXIMUM GRID SPACING    1
Info: FULL ELECTROSTATIC EVALUATION FREQUENCY      2
Info: USING VERLET I (r-RESPA) MTS SCHEME.
Info: C1 SPLITTING OF LONG RANGE ELECTROSTATICS
Info: PLACING ATOMS IN PATCHES BY HYDROGEN GROUPS
Info: RIGID BONDS TO HYDROGEN : ALL
Info:         ERROR TOLERANCE : 1e-08
Info:          MAX ITERATIONS : 100
Info: RIGID WATER USING SETTLE ALGORITHM
Info: RANDOM NUMBER SEED     1741382364
Info: USE HYDROGEN BONDS?    NO
Info: Using AMBER format force field!
Info: AMBER PARM FILE        mobley_63712.prmtop
Info: COORDINATE PDB         mobley_63712.pdb
Info: Exclusions will be read from PARM file!
Info: SCNB (VDW SCALING)     2
Info: USING ARITHMETIC MEAN TO COMBINE L-J SIGMA PARAMETERS
Info: BINARY COORDINATES     mobley_63712_min.coor
Info: SUMMARY OF PARAMETERS:
Info: 6 BONDS
Info: 8 ANGLES
Info:   8 HARMONIC
Info:   0 COSINE-BASED
Info: 8 DIHEDRAL
Info: 0 IMPROPER
Info: 0 CROSSTERM
Info: 0 VDW
Info: 21 VDW_PAIRS
Info: 0 NBTHOLE_PAIRS
Info: STRUCTURE SUMMARY:
Info: 4826 ATOMS
Info: 4826 BONDS
Info: 39 ANGLES
Info: 54 DIHEDRALS
Info: 0 IMPROPERS
Info: 0 CROSSTERMS
Info: 4916 EXCLUSIONS
Info: 4819 RIGID BONDS
Info: 9659 DEGREES OF FREEDOM
Info: 1609 HYDROGEN GROUPS
Info: 4 ATOMS IN LARGEST HYDROGEN GROUP
Info: 1609 MIGRATION GROUPS
Info: 4 ATOMS IN LARGEST MIGRATION GROUP
Info: TOTAL MASS = 28960.8 amu
Info: TOTAL CHARGE = -1.11759e-08 e
Info: MASS DENSITY = 0.736835 g/cm^3
Info: ATOM DENSITY = 0.0739414 atoms/A^3
Info: ADDED 0 IMPLICIT EXCLUSIONS
Info: NONBONDED TABLE R-SQUARED SPACING: 0.0625
Info: NONBONDED TABLE SIZE: 705 POINTS
Info: REMOVING COM VELOCITY -0.0597496 0.0914762 0.0376502
TCL: Running for 25000 steps
ETITLE: TS BOND ANGLE DIHED IMPRP ELECT VDW BOUNDARY MISC KINETIC TOTAL TEMP POTENTIAL TOTAL3 TEMPAVG PRESSURE GPRESSURE VOLUME PRESSAVG GPRESSAVG
ENERGY: 0 0.3731 0.3426 0.5197 0.0000 -22187.7005 3856.7206 0.0000 0.0000 2899.9975 -15429.7471 302.1731 -18329.7446 -15429.1293 302.1731 418.7179 446.7285 65267.9423 418.7179 446.7285
ENERGY: 5000 0.8002 1.0309 0.5543 0.0000 -23264.9251 4081.8152 0.0000 0.0000 296.1228 -18884.6018 30.8553 -19180.7246 -18883.7208 47.9356 240.2134 280.8133 46812.7901 -0.3270 -0.6299
ENERGY: 10000 0.2673 1.4317 0.5789 0.0000 -23262.5429 4070.2048 0.0000 0.0000 292.1975 -18897.8626 30.4463 -19190.0602 -18897.2461 30.2653 215.0102 258.3844 46709.3302 2.4328 2.3336
ENERGY: 15000 0.7560 1.2427 0.5085 0.0000 -23325.4740 4109.5312 0.0000 0.0000 285.1261 -18928.3094 29.7095 -19213.4355 -18927.3288 29.9076 320.9061 381.4621 46672.1814 1.5037 1.4400
ENERGY: 20000 0.7174 1.1641 0.6171 0.0000 -23378.4638 4159.7099 0.0000 0.0000 291.9696 -18924.2856 30.4226 -19216.2552 -18923.4050 30.1597 624.0423 659.1654 46454.0347 1.8849 1.9778
ENERGY: 25000 0.2600 1.0265 0.7322 0.0000 -23241.8666 4009.3666 0.0000 0.0000 291.7952 -18938.6860 30.4044 -19230.4812 -18937.8119 30.1944 -208.5321 -160.4004 46772.3354 4.7338 4.4877
TCL: Running 25000 steps at 60 kelvin.
TCL: Setting parameter langevinTemp to 60
TCL: Running for 25000 steps
ETITLE: TS BOND ANGLE DIHED IMPRP ELECT VDW BOUNDARY MISC KINETIC TOTAL TEMP POTENTIAL TOTAL3 TEMPAVG PRESSURE GPRESSURE VOLUME PRESSAVG GPRESSAVG
ENERGY: 25000 0.2600 1.0265 0.7322 0.0000 -23241.8666 4009.3666 0.0000 0.0000 291.6487 -18938.8325 30.3891 -19230.4812 -18938.1530 30.3891 -214.5126 -160.5256 46772.3354 -214.5126 -160.5256
ENERGY: 30000 0.5544 1.6149 0.6252 0.0000 -22686.6806 3725.5595 0.0000 0.0000 569.2496 -18389.0769 59.3145 -18958.3265 -18387.3284 56.8719 -1050.5540 -1000.4905 47264.1453 6.2864 6.5793
ENERGY: 35000 0.7870 2.7444 1.0913 0.0000 -22829.7555 3841.8313 0.0000 0.0000 591.0725 -18392.2291 61.5884 -18983.3016 -18390.5088 60.3531 -517.5001 -452.9583 47079.0724 4.6752 4.3463
ENERGY: 40000 0.9466 1.5201 0.8810 0.0000 -22995.3813 3989.6364 0.0000 0.0000 574.9061 -18427.4911 59.9039 -19002.3972 -18426.5110 60.0813 173.7085 210.4393 46825.9205 1.1748 1.1065
ENERGY: 45000 0.3673 3.0257 0.6888 0.0000 -23097.3724 4066.8132 0.0000 0.0000 567.9951 -18458.4823 59.1838 -19026.4774 -18456.6170 59.9244 566.6799 611.7661 46685.7134 7.7230 8.1846
ENERGY: 50000 0.3267 2.1740 0.3607 0.0000 -23051.0215 4005.1322 0.0000 0.0000 591.5188 -18451.5091 61.6349 -19043.0279 -18449.4081 60.2918 189.9419 246.1221 46761.5852 6.8780 6.9562
TCL: Running 25000 steps at 90 kelvin.
TCL: Setting parameter langevinTemp to 90
TCL: Running for 25000 steps
ETITLE: TS BOND ANGLE DIHED IMPRP ELECT VDW BOUNDARY MISC KINETIC TOTAL TEMP POTENTIAL TOTAL3 TEMPAVG PRESSURE GPRESSURE VOLUME PRESSAVG GPRESSAVG
ENERGY: 50000 0.3267 2.1740 0.3607 0.0000 -23051.0215 4005.1322 0.0000 0.0000 591.2302 -18451.7977 61.6048 -19043.0279 -18450.3397 61.6048 188.1139 246.1354 46761.5852 188.1139 246.1354
ENERGY: 55000 0.8833 2.0829 1.3356 0.0000 -22614.6325 3844.9185 0.0000 0.0000 863.9228 -17901.4893 90.0188 -18765.4121 -17898.9099 87.3389 -25.4681 43.2298 47297.1549 2.8061 2.8300
ENERGY: 60000 0.7564 2.2708 1.2191 0.0000 -22668.1908 3882.4428 0.0000 0.0000 841.8486 -17939.6532 87.7187 -18781.5018 -17936.9004 90.1214 153.2588 213.0896 47046.7435 4.1486 3.9746
ENERGY: 65000 0.5917 2.3593 1.6333 0.0000 -22542.0302 3777.1709 0.0000 0.0000 850.1926 -17910.0824 88.5881 -18760.2750 -17908.9454 90.3294 -419.8152 -355.9620 47369.6952 6.1974 6.2250
ENERGY: 70000 1.5487 3.1098 0.3960 0.0000 -22872.6538 4025.3842 0.0000 0.0000 879.3000 -17962.9151 91.6211 -18842.2152 -17960.2571 89.8350 776.7586 825.0070 46831.1016 -0.7742 -0.4678
ENERGY: 75000 0.5246 3.2309 0.9594 0.0000 -22749.5770 3909.1679 0.0000 0.0000 866.6598 -17969.0345 90.3040 -18835.6943 -17966.6179 91.0258 176.2876 282.0978 46935.4892 2.4339 1.8776
TCL: Running 25000 steps at 120 kelvin.
TCL: Setting parameter langevinTemp to 120
TCL: Running for 25000 steps
ETITLE: TS BOND ANGLE DIHED IMPRP ELECT VDW BOUNDARY MISC KINETIC TOTAL TEMP POTENTIAL TOTAL3 TEMPAVG PRESSURE GPRESSURE VOLUME PRESSAVG GPRESSAVG
ENERGY: 75000 0.5246 3.2309 0.9594 0.0000 -22749.5770 3909.1679 0.0000 0.0000 866.2328 -17969.4615 90.2595 -18835.6943 -17967.3251 90.2595 229.9831 281.7255 46935.4892 229.9831 281.7255
ENERGY: 80000 1.3489 4.9003 0.9660 0.0000 -22034.0490 3528.5661 0.0000 0.0000 1148.2417 -17350.0259 119.6442 -18498.2675 -17345.1052 116.6634 -1112.4781 -1041.9718 47663.9747 7.5726 7.4122
ENERGY: 85000 0.7093 3.3882 0.4247 0.0000 -22119.7672 3570.7334 0.0000 0.0000 1143.1176 -17401.3940 119.1102 -18544.5116 -17398.6148 121.4077 -947.9818 -876.4790 47543.5130 -1.9012 -1.8938
ENERGY: 90000 0.9613 3.1975 1.7726 0.0000 -22358.5050 3767.4654 0.0000 0.0000 1151.5712 -17433.5371 119.9911 -18585.1083 -17430.4575 119.7733 6.4990 71.0330 47207.6678 6.3393 6.8817
ENERGY: 95000 0.5802 3.0597 1.1320 0.0000 -22372.4410 3789.9809 0.0000 0.0000 1158.6211 -17419.0671 120.7257 -18577.6882 -17415.3426 120.4188 185.1741 272.3361 47202.2583 4.0280 4.2019
ENERGY: 100000 0.3131 3.6433 0.7964 0.0000 -22409.0564 3795.2945 0.0000 0.0000 1174.2665 -17434.7427 122.3559 -18609.0092 -17432.4240 120.2300 138.7279 235.8618 47141.4943 -3.7049 -3.7861
TCL: Running 25000 steps at 150 kelvin.
TCL: Setting parameter langevinTemp to 150
TCL: Running for 25000 steps
ETITLE: TS BOND ANGLE DIHED IMPRP ELECT VDW BOUNDARY MISC KINETIC TOTAL TEMP POTENTIAL TOTAL3 TEMPAVG PRESSURE GPRESSURE VOLUME PRESSAVG GPRESSAVG
ENERGY: 100000 0.3131 3.6433 0.7964 0.0000 -22409.0564 3795.2945 0.0000 0.0000 1173.6997 -17435.3095 122.2968 -18609.0092 -17433.1078 122.2968 188.7699 235.6936 47141.4943 188.7699 235.6936
ENERGY: 105000 1.7425 7.6941 0.7025 0.0000 -21794.6444 3493.6008 0.0000 0.0000 1426.7414 -16864.1630 148.6632 -18290.9044 -16860.3535 146.4002 -722.3465 -646.3980 47652.2144 -2.2947 -2.2333
ENERGY: 110000 1.0873 5.3597 0.7439 0.0000 -21892.2065 3615.9877 0.0000 0.0000 1494.2091 -16774.8188 155.6932 -18269.0279 -16770.3983 150.0515 -22.5763 31.4488 47333.7387 3.6604 3.3737
ENERGY: 115000 0.9934 2.8733 0.8011 0.0000 -22046.6003 3688.3349 0.0000 0.0000 1395.9264 -16957.6712 145.4523 -18353.5976 -16956.0092 150.2943 301.0670 332.9262 46976.0313 8.5096 8.2845
ENERGY: 120000 1.3560 3.2806 0.7721 0.0000 -21825.8211 3551.1014 0.0000 0.0000 1428.9216 -16840.3894 148.8904 -18269.3110 -16837.9283 149.0893 -248.1416 -226.8678 47399.6749 2.7648 3.1934
ENERGY: 125000 2.4024 4.2799 1.0160 0.0000 -21718.8629 3386.0551 0.0000 0.0000 1430.5732 -16894.5363 149.0625 -18325.1095 -16890.4758 149.5443 -1263.4615 -1215.6806 47439.2129 5.1163 5.2091
TCL: Running 50000 steps at 180 kelvin.
TCL: Setting parameter langevinTemp to 180
TCL: Running for 50000 steps
ETITLE: TS BOND ANGLE DIHED IMPRP ELECT VDW BOUNDARY MISC KINETIC TOTAL TEMP POTENTIAL TOTAL3 TEMPAVG PRESSURE GPRESSURE VOLUME PRESSAVG GPRESSAVG
ENERGY: 125000 2.4024 4.2799 1.0160 0.0000 -21718.8629 3386.0551 0.0000 0.0000 1429.8440 -16895.2655 148.9865 -18325.1095 -16892.3102 148.9865 -1276.3536 -1215.1283 47439.2129 -1276.3536 -1215.1283
ENERGY: 135000 2.7524 3.7446 1.8650 0.0000 -21429.6584 3516.0948 0.0000 0.0000 1713.6542 -16191.5475 178.5589 -17905.2016 -16188.3052 180.6934 291.5151 309.7633 47369.3886 5.8819 6.5407
ENERGY: 145000 1.1644 2.2745 0.9835 0.0000 -21412.1965 3498.9908 0.0000 0.0000 1743.4905 -16165.2929 181.6677 -17908.7834 -16162.1239 179.5229 38.8691 141.0057 47510.7534 4.6963 4.5845
ENERGY: 155000 1.9651 6.3733 0.9113 0.0000 -21239.2956 3340.0145 0.0000 0.0000 1748.5757 -16141.4557 182.1976 -17890.0314 -16135.6556 179.2219 -606.9272 -538.0788 47400.4355 1.5740 1.5593
ENERGY: 165000 0.9489 6.6762 1.8818 0.0000 -21295.2311 3435.7179 0.0000 0.0000 1694.1730 -16155.8333 176.5290 -17850.0063 -16152.6031 180.9132 13.2030 77.9873 47250.7692 4.1655 3.9732
ENERGY: 175000 1.8257 5.4656 1.7453 0.0000 -21375.9914 3495.5428 0.0000 0.0000 1727.9818 -16143.4302 180.0518 -17871.4121 -16139.8644 179.4141 409.5427 501.0566 46807.4765 2.0204 2.1779
TCL: Running 50000 steps at 210 kelvin.
TCL: Setting parameter langevinTemp to 210
TCL: Running for 50000 steps
ETITLE: TS BOND ANGLE DIHED IMPRP ELECT VDW BOUNDARY MISC KINETIC TOTAL TEMP POTENTIAL TOTAL3 TEMPAVG PRESSURE GPRESSURE VOLUME PRESSAVG GPRESSAVG
ENERGY: 175000 1.8257 5.4656 1.7453 0.0000 -21375.9914 3495.5428 0.0000 0.0000 1727.1258 -16144.2863 179.9626 -17871.4121 -16141.5622 179.9626 431.6725 500.9583 46807.4765 431.6725 500.9583
ENERGY: 185000 1.8784 6.5499 0.8709 0.0000 -20333.9286 3089.7516 0.0000 0.0000 2055.4299 -15179.4479 214.1711 -17234.8778 -15174.2986 209.8671 -253.1415 -178.5117 47437.0311 -2.4113 -1.8922
ENERGY: 195000 1.0592 6.7846 1.0990 0.0000 -20193.2032 2994.1953 0.0000 0.0000 1993.3119 -15196.7532 207.6986 -17190.0651 -15191.1815 210.0932 -435.9352 -354.3157 46775.6668 0.2734 -0.2053
ENERGY: 205000 2.8330 6.6664 1.2634 0.0000 -20222.4487 2999.5294 0.0000 0.0000 2051.1104 -15161.0461 213.7210 -17212.1566 -15157.9317 210.8044 -546.5958 -470.3544 47010.9236 5.3227 4.6792
ENERGY: 215000 0.7530 5.4012 1.3612 0.0000 -20335.3359 3130.9972 0.0000 0.0000 2024.9814 -15171.8421 210.9984 -17196.8234 -15165.9646 210.1271 290.2731 323.9758 46834.3617 8.0272 7.8829
ENERGY: 225000 0.6303 6.6598 2.4530 0.0000 -20097.8061 2940.1494 0.0000 0.0000 2034.3181 -15113.5956 211.9713 -17147.9136 -15111.8212 210.3313 -775.6482 -722.7298 47220.1414 1.8040 1.8411
TCL: Running 50000 steps at 240 kelvin.
TCL: Setting parameter langevinTemp to 240
TCL: Running for 50000 steps
ETITLE: TS BOND ANGLE DIHED IMPRP ELECT VDW BOUNDARY MISC KINETIC TOTAL TEMP POTENTIAL TOTAL3 TEMPAVG PRESSURE GPRESSURE VOLUME PRESSAVG GPRESSAVG
ENERGY: 225000 0.6303 6.6598 2.4530 0.0000 -20097.8061 2940.1494 0.0000 0.0000 2033.3291 -15114.5846 211.8683 -17147.9136 -15110.7379 211.8683 -791.1576 -724.5136 47220.1414 -791.1576 -724.5136
ENERGY: 235000 1.9966 6.6078 2.2673 0.0000 -19266.5998 2787.9931 0.0000 0.0000 2273.5592 -14194.1758 236.8997 -16467.7350 -14189.1804 238.8970 -26.3660 35.9747 47401.5217 1.7124 2.4427
ENERGY: 245000 3.9794 9.1331 0.5381 0.0000 -19352.7300 2811.0581 0.0000 0.0000 2299.7356 -14228.2858 239.6272 -16528.0213 -14222.7524 241.1131 45.9062 139.5752 47006.9531 3.5502 3.7731
ENERGY: 255000 1.3457 9.1690 0.6582 0.0000 -19118.1487 2697.8826 0.0000 0.0000 2287.2879 -14121.8052 238.3302 -16409.0931 -14117.4109 239.4940 -567.0155 -478.7571 47884.1028 6.0977 6.4054
ENERGY: 265000 1.6186 4.6064 1.6082 0.0000 -19316.5494 2822.1568 0.0000 0.0000 2288.0649 -14198.4946 238.4111 -16486.5595 -14191.9792 240.0332 204.7447 280.7357 47082.0828 -0.7020 0.1179
ENERGY: 275000 1.3293 8.1456 1.5679 0.0000 -19024.6030 2560.9597 0.0000 0.0000 2265.5987 -14187.0018 236.0702 -16452.6005 -14180.6986 239.6449 -1225.4512 -1185.0091 47629.5586 4.8400 5.1315
TCL: Running 50000 steps at 270 kelvin.
TCL: Setting parameter langevinTemp to 270
TCL: Running for 50000 steps
ETITLE: TS BOND ANGLE DIHED IMPRP ELECT VDW BOUNDARY MISC KINETIC TOTAL TEMP POTENTIAL TOTAL3 TEMPAVG PRESSURE GPRESSURE VOLUME PRESSAVG GPRESSAVG
ENERGY: 275000 1.3293 8.1456 1.5679 0.0000 -19024.6030 2560.9597 0.0000 0.0000 2264.4217 -14188.1788 235.9476 -16452.6005 -14183.5903 235.9476 -1275.8979 -1185.9148 47629.5586 -1275.8979 -1185.9148
ENERGY: 285000 1.7372 12.9219 0.4691 0.0000 -18527.1870 2696.1331 0.0000 0.0000 2571.2126 -13244.7131 267.9145 -15815.9257 -13241.0815 269.7273 438.9753 574.3559 48506.8727 7.4103 7.2369
ENERGY: 295000 1.1420 11.1013 1.4964 0.0000 -18284.6841 2557.0340 0.0000 0.0000 2614.5169 -13099.3935 272.4267 -15713.9104 -13094.0530 271.5206 26.7364 144.2019 48520.4829 6.4004 5.8336
ENERGY: 305000 3.8075 4.6607 1.3213 0.0000 -18196.0711 2453.8246 0.0000 0.0000 2603.9031 -13128.5539 271.3208 -15732.4570 -13121.5828 270.7256 -649.4122 -537.6424 48848.8149 4.3013 4.6315
ENERGY: 315000 0.8337 8.1267 1.0251 0.0000 -18473.9695 2597.3060 0.0000 0.0000 2545.8535 -13320.8246 265.2721 -15866.6781 -13313.9545 270.5614 -355.3959 -282.1632 49314.7637 2.1190 2.8181
ENERGY: 325000 3.3695 10.1131 0.8333 0.0000 -18424.2199 2549.1623 0.0000 0.0000 2581.6266 -13279.1150 268.9996 -15860.7416 -13273.6764 271.4809 -127.0664 -43.3863 48373.2623 -0.9272 -0.9349
TCL: Running 1000000 steps at 300 kelvin.
TCL: Setting parameter langevinTemp to 300
TCL: Running for 1000000 steps
ETITLE: TS BOND ANGLE DIHED IMPRP ELECT VDW BOUNDARY MISC KINETIC TOTAL TEMP POTENTIAL TOTAL3 TEMPAVG PRESSURE GPRESSURE VOLUME PRESSAVG GPRESSAVG
ENERGY: 325000 3.3695 10.1131 0.8333 0.0000 -18424.2199 2549.1623 0.0000 0.0000 2580.3526 -13280.3890 268.8669 -15860.7416 -13276.2814 268.8669 -128.0704 -44.0568 48373.2623 -128.0704 -44.0568
ENERGY: 525000 1.2315 11.6203 1.0322 0.0000 -17488.2551 2434.3784 0.0000 0.0000 2918.2650 -12121.7277 304.0766 -15039.9927 -12117.7151 303.3623 498.9836 595.0858 49994.1340 7.7586 8.3018
ENERGY: 725000 3.8895 10.8997 2.1671 0.0000 -17439.3925 2279.4290 0.0000 0.0000 2918.6036 -12224.4036 304.1118 -15143.0072 -12217.9867 300.4973 -242.1135 -159.1527 48992.5053 5.3796 5.1084
ENERGY: 925000 1.6965 11.4421 1.5599 0.0000 -17589.1845 2451.1533 0.0000 0.0000 2895.4775 -12227.8553 301.7022 -15123.3327 -12222.5825 300.2996 386.9188 484.4849 49663.9206 4.7071 4.4694
ENERGY: 1125000 1.6644 8.0024 3.3263 0.0000 -17534.0721 2367.3319 0.0000 0.0000 2887.2135 -12266.5336 300.8411 -15153.7471 -12258.6814 301.0245 49.2642 121.2989 49352.9419 2.7871 2.0711
ENERGY: 1325000 3.7959 10.0150 1.2337 0.0000 -17500.3982 2267.7328 0.0000 0.0000 2911.5051 -12306.1157 303.3722 -15217.6208 -12301.6466 299.9448 -438.3268 -344.2804 49352.2129 2.3804 2.2160
TCL: Exiting due to exit command.
