Info: SIMULATION PARAMETERS:
Info: TIMESTEP               2
Info: NUMBER OF STEPS        0
Info: STEPS PER CYCLE        10
Info: PERIODIC CELL BASIS 1  32.1657 0 0
Info: PERIODIC CELL BASIS 2  0 30.2321 0
Info: PERIODIC CELL BASIS 3  0 0 32.093
Info: PERIODIC CELL CENTER   0 0 0
Info: WRAPPING WATERS AROUND PERIODIC BOUNDARIES ON OUTPUT.
Info: WRAPPING ALL CLUSTERS AROUND PERIODIC BOUNDARIES ON OUTPUT.
Info: FIRST LDB TIMESTEP     50
Info: LAST LDB TIMESTEP     -1
Info: HOM BACKGROUND SCALING 1
Info: PME BACKGROUND SCALING 1
Info: MIN ATOMS PER PATCH    40
Info: EMPTY PATCH LOAD       40 ATOMS
Info: VELOCITY FILE          mobley_3980099_equil.vel
Info: CENTER OF MASS MOVING INITIALLY? NO
Info: DIELECTRIC             1
Info: EXCLUDE                SCALED ONE-FOUR
Info: 1-4 ELECTROSTATICS SCALED BY 0.833333
Info: MODIFIED 1-4 VDW PARAMETERS WILL BE USED
Info: DCD FILENAME           mobley_3980099_prod.dcd
Info: DCD FREQUENCY          100000
Info: DCD FIRST STEP         100000
Info: DCD FILE WILL CONTAIN UNIT CELL DATA
Info: XST FILENAME           mobley_3980099_prod.xst
Info: XST FREQUENCY          100000
Info: NO VELOCITY DCD OUTPUT
Info: NO FORCE DCD OUTPUT
Info: OUTPUT FILENAME        mobley_3980099_prod
Info: BINARY OUTPUT FILES WILL BE USED
Info: RESTART FILENAME       mobley_3980099_prod.restart
Info: RESTART FREQUENCY      100000
Info: BINARY RESTART FILES WILL BE USED
Info: CUTOFF                 9
Info: PAIRLIST DISTANCE      11
Info: PAIRLIST SHRINK RATE   0.01
Info: PAIRLIST GROW RATE     0.01
Info: PAIRLIST TRIGGER       0.3
Info: PAIRLISTS PER CYCLE    2
Info: PAIRLISTS ENABLED
Info: MARGIN                 2
Info: HYDROGEN GROUP CUTOFF  2.5
Info: PATCH DIMENSION        15.5
Info: ENERGY OUTPUT STEPS    100000
Info: ENERGY EVALUATION STEPS    100000
Info: OUTPUT ENERGY PRECISION 4
Info: CROSSTERM ENERGY INCLUDED IN DIHEDRAL
Info: TIMING OUTPUT STEPS    1000000
Info: PRESSURE OUTPUT STEPS  100000
Info: ALCHEMICAL FEP ON
Info: FEP CURRENT LAMBDA VALUE     1
Info: FEP COMPARISON LAMBDA VALUE  0.95
Info: FEP INTRA-ALCHEMICAL NON-BONDED INTERACTIONS WILL BE RETAINED
Info: FEP INTRA-ALCHEMICAL BONDED INTERACTIONS WILL BE RETAINED
Info: FEP VDW SHIFTING COEFFICIENT 5
Info: FEP ELEC. ACTIVE FOR ANNIHILATED PARTICLES BETWEEN LAMBDA = 0 AND LAMBDA = 0.5
Info: FEP ELEC. ACTIVE FOR EXNIHILATED PARTICLES BETWEEN LAMBDA = 0.5 AND LAMBDA = 1
Info: FEP VDW ACTIVE FOR ANNIHILATED PARTICLES BETWEEN LAMBDA = 0 AND LAMBDA = 1
Info: FEP VDW ACTIVE FOR EXNIHILATED PARTICLES BETWEEN LAMBDA = 0 AND LAMBDA = 1
Info: FEP BOND ACTIVE FOR ANNIHILATED PARTICLES BETWEEN LAMBDA = 1 AND LAMBDA = 1
Info: FEP BOND ACTIVE FOR EXNIHILATED PARTICLES BETWEEN LAMBDA = 0 AND LAMBDA = 0
Info: LANGEVIN DYNAMICS ACTIVE
Info: LANGEVIN TEMPERATURE   300
Info: LANGEVIN USING BBK INTEGRATOR
Info: LANGEVIN DAMPING COEFFICIENT IS 1 INVERSE PS
Info: LANGEVIN DYNAMICS APPLIED TO HYDROGENS
Info: LANGEVIN PISTON PRESSURE CONTROL ACTIVE
Info:        TARGET PRESSURE IS 1.01325 BAR
Info:     OSCILLATION PERIOD IS 50 FS
Info:             DECAY TIME IS 25 FS
Info:     PISTON TEMPERATURE IS 300 K
Info:       PRESSURE CONTROL IS GROUP-BASED
Info:    INITIAL STRAIN RATE IS 0.000788045 0.000788045 0.000788045
Info:       CELL FLUCTUATION IS ISOTROPIC
Info: PARTICLE MESH EWALD (PME) ACTIVE
Info: PME TOLERANCE               1e-06
Info: PME EWALD COEFFICIENT       0.348832
Info: PME INTERPOLATION ORDER     4
Info: PME GRID DIMENSIONS         36 32 36
Info: PME MAXIMUM GRID SPACING    1
Info: PME CALCULATION WILL BE PERFORMED ON GPU
Info: FULL ELECTROSTATIC EVALUATION FREQUENCY      2
Info: USING VERLET I (r-RESPA) MTS SCHEME.
Info: C1 SPLITTING OF LONG RANGE ELECTROSTATICS
Info: PLACING ATOMS IN PATCHES BY HYDROGEN GROUPS
Info: RIGID BONDS TO HYDROGEN : ALL
Info:         ERROR TOLERANCE : 1e-08
Info:          MAX ITERATIONS : 100
Info: RIGID WATER USING SETTLE ALGORITHM
Info: RANDOM NUMBER SEED     1742182482
Info: USE HYDROGEN BONDS?    NO
Info: Using AMBER format force field!
Info: AMBER PARM FILE        mobley_3980099.prmtop
Info: COORDINATE PDB         mobley_3980099.pdb
Info: Exclusions will be read from PARM file!
Info: SCNB (VDW SCALING)     2
Info: USING ARITHMETIC MEAN TO COMBINE L-J SIGMA PARAMETERS
Info: BINARY COORDINATES     mobley_3980099_equil.coor
Info: SUMMARY OF PARAMETERS:
Info: 5 BONDS
Info: 3 ANGLES
Info:   3 HARMONIC
Info:   0 COSINE-BASED
Info: 2 DIHEDRAL
Info: 0 IMPROPER
Info: 0 CROSSTERM
Info: 0 VDW
Info: 15 VDW_PAIRS
Info: 0 NBTHOLE_PAIRS
Info: To read alchdata from file: mobley_3980099.pdb
Info: To read alchflag data from column: 5
Info: STRUCTURE SUMMARY:
Info: 2988 ATOMS
Info: 2988 BONDS
Info: 18 ANGLES
Info: 30 DIHEDRALS
Info: 0 IMPROPERS
Info: 0 CROSSTERMS
Info: 3027 EXCLUSIONS
Info: 2979 RIGID BONDS
Info: ALCH: 0 ATOMS TO DISAPPEAR IN FINAL STATE
Info: ALCH: 12 ATOMS TO APPEAR IN FINAL STATE
Info: 5985 DEGREES OF FREEDOM
Info: 1001 HYDROGEN GROUPS
Info: 3 ATOMS IN LARGEST HYDROGEN GROUP
Info: 1001 MIGRATION GROUPS
Info: 3 ATOMS IN LARGEST MIGRATION GROUP
Info: TOTAL MASS = 18053.3 amu
Info: TOTAL CHARGE = -1.11759e-08 e
Info: MASS DENSITY = 0.960606 g/cm^3
Info: ATOM DENSITY = 0.0957436 atoms/A^3
Info: ADDED 0 IMPLICIT EXCLUSIONS
Info: NONBONDED TABLE R-SQUARED SPACING: 0.0625
Info: NONBONDED TABLE SIZE: 705 POINTS
Info: REMOVING COM VELOCITY 0.0738132 -0.0236482 0.143943
Info: Use 3D box decompostion in PME FFT.
Info: Updated CUDA force table with 4096 elements.
Info: Updated CUDA LJ table with 5 x 5 elements.
Info: Found 15 unique exclusion lists needing 28 bytes
TCL: Running for 1500000 steps
ETITLE: TS BOND ANGLE DIHED IMPRP ELECT VDW BOUNDARY MISC KINETIC TOTAL TEMP POTENTIAL TOTALAVG TEMPAVG PRESSURE GPRESSURE VOLUME PRESSAVG GPRESSAVG
ENERGY: 0 1.3761 1.8849 1.5799 0.0000 -10699.9791 1376.3605 0.0000 0.0000 1793.2448 -7525.5330 301.5545 -9318.7777 -7525.5330 301.5545 -523.2255 -444.7946 31208.3413 -523.2255 -444.7946
ENERGY: 300000 4.0418 1.7049 1.6036 0.0000 -10894.2520 1486.9922 0.0000 0.0000 1798.6598 -7601.2497 302.4651 -9399.9095 -7543.2676 300.1416 356.8757 409.8754 30666.9417 -236.9843 -172.0568
ENERGY: 600000 2.0935 1.8060 1.2926 0.0000 -10813.1837 1439.9797 0.0000 0.0000 1761.7516 -7606.2603 296.2586 -9368.0119 -7570.0552 299.6283 -33.4732 35.3303 30616.2222 -217.6088 -154.0802
ENERGY: 900000 4.7605 3.7029 4.3118 0.0000 -10803.4112 1421.7387 0.0000 0.0000 1747.3150 -7621.5824 293.8309 -9368.8974 -7578.3513 299.3696 -373.8791 -324.5242 31001.8291 -218.0674 -160.9842
ENERGY: 1200000 2.7798 1.7430 0.5819 0.0000 -10768.3019 1422.2242 0.0000 0.0000 1791.6552 -7549.3178 301.2872 -9340.9730 -7581.5344 299.5917 -332.5965 -194.7461 31119.0252 -215.1259 -149.2713
ENERGY: 1500000 3.3492 1.0854 1.1303 0.0000 -10783.5882 1377.8848 0.0000 0.0000 1826.0095 -7574.1291 307.0643 -9400.1386 -7575.6376 299.8794 -517.8833 -430.3444 30842.3461 -260.2790 -197.7908
TCL: Running FEP window   2: Lambda1 0.95   Lambda2 0.8999999999999999 [dLambda -0.050000000000000044]
TCL: Setting parameter firsttimestep to 0
TCL: Setting parameter alchLambda to 0.95
Info: NONBONDED TABLE R-SQUARED SPACING: 0.0625
Info: NONBONDED TABLE SIZE: 705 POINTS
TCL: Setting parameter alchLambda2 to 0.8999999999999999
Info: NONBONDED TABLE R-SQUARED SPACING: 0.0625
Info: NONBONDED TABLE SIZE: 705 POINTS
TCL: Running for 1500000 steps
ETITLE: TS BOND ANGLE DIHED IMPRP ELECT VDW BOUNDARY MISC KINETIC TOTAL TEMP POTENTIAL TOTALAVG TEMPAVG PRESSURE GPRESSURE VOLUME PRESSAVG GPRESSAVG
ENERGY: 0 3.3492 1.0854 1.1303 0.0000 -10783.4319 1378.5882 0.0000 0.0000 1825.1194 -7574.1595 306.9146 -9399.2789 -7574.1595 306.9146 -515.0043 -432.1557 30842.3461 -515.0043 -432.1557
ENERGY: 300000 1.7662 2.9731 1.6172 0.0000 -10776.1060 1430.3712 0.0000 0.0000 1762.9447 -7576.4336 296.4592 -9339.3784 -7581.5674 301.6657 -305.3429 -164.1340 31081.1356 -337.8771 -241.6711
ENERGY: 600000 3.2294 2.4361 0.8497 0.0000 -10976.3840 1518.9806 0.0000 0.0000 1800.0642 -7650.8240 302.7013 -9450.8882 -7601.5035 301.2026 550.8793 575.9126 30658.7332 -237.0993 -163.9194
ENERGY: 900000 2.1568 1.5368 2.1754 0.0000 -10847.6588 1482.0999 0.0000 0.0000 1743.8955 -7615.7944 293.2559 -9359.6899 -7594.0515 300.9070 119.4137 218.6164 30716.9819 -89.7975 -27.2019
ENERGY: 1200000 2.0327 2.9060 5.8804 0.0000 -10642.4133 1422.6654 0.0000 0.0000 1759.0936 -7449.8351 295.8116 -9208.9287 -7583.4405 300.1609 92.0044 177.0561 31226.3177 -113.2618 -53.9676
ENERGY: 1500000 1.4828 2.4233 3.8082 0.0000 -10687.9020 1406.6161 0.0000 0.0000 1813.1767 -7460.3949 304.9063 -9273.5716 -7575.3417 299.8057 -374.2844 -307.0018 31562.9648 -163.1191 -105.4668
TCL: Running FEP window   3: Lambda1 0.8999999999999999 Lambda2 0.8499999999999999 [dLambda -0.050000000000000044]
TCL: Setting parameter firsttimestep to 0
TCL: Setting parameter alchLambda to 0.8999999999999999
Info: NONBONDED TABLE R-SQUARED SPACING: 0.0625
Info: NONBONDED TABLE SIZE: 705 POINTS
TCL: Setting parameter alchLambda2 to 0.8499999999999999
Info: NONBONDED TABLE R-SQUARED SPACING: 0.0625
Info: NONBONDED TABLE SIZE: 705 POINTS
TCL: Running for 1500000 steps
ETITLE: TS BOND ANGLE DIHED IMPRP ELECT VDW BOUNDARY MISC KINETIC TOTAL TEMP POTENTIAL TOTALAVG TEMPAVG PRESSURE GPRESSURE VOLUME PRESSAVG GPRESSAVG
ENERGY: 0 1.4828 2.4233 3.8082 0.0000 -10687.6720 1406.8239 0.0000 0.0000 1812.2793 -7460.8545 304.7554 -9273.1337 -7460.8545 304.7554 -394.4471 -314.7198 31562.9648 -394.4471 -314.7198
ENERGY: 300000 6.4826 1.4043 1.9586 0.0000 -10819.2366 1487.2647 0.0000 0.0000 1827.4230 -7494.7033 307.3020 -9322.1263 -7517.1529 305.4294 319.0997 335.2810 30826.0798 -126.9366 -68.8545
ENERGY: 600000 3.8016 3.0805 5.3639 0.0000 -10780.9156 1420.4103 0.0000 0.0000 1824.3646 -7523.8947 306.7876 -9348.2593 -7541.1872 304.5233 89.0379 73.7253 30417.8986 -70.3549 -9.4276
ENERGY: 900000 6.4144 3.9499 1.3672 0.0000 -10937.5957 1546.6453 0.0000 0.0000 1764.2243 -7614.9946 296.6744 -9379.2189 -7550.6025 302.5891 541.4056 648.9786 30776.3114 -126.2860 -64.0660
ENERGY: 1200000 3.6022 2.0876 2.0733 0.0000 -10946.2026 1607.1365 0.0000 0.0000 1774.4382 -7556.8648 298.3920 -9331.3030 -7549.8806 301.5439 1272.2618 1328.7908 30782.9353 -31.9352 31.2753
ENERGY: 1500000 3.2828 2.4206 0.8909 0.0000 -10683.1804 1412.0816 0.0000 0.0000 1795.2734 -7469.2312 301.8956 -9264.5046 -7546.7208 301.7432 -190.5082 -119.0775 31303.8984 39.2792 102.1968
TCL: Running FEP window   4: Lambda1 0.8499999999999999 Lambda2 0.7999999999999998 [dLambda -0.050000000000000044]
TCL: Setting parameter firsttimestep to 0
TCL: Setting parameter alchLambda to 0.8499999999999999
Info: NONBONDED TABLE R-SQUARED SPACING: 0.0625
Info: NONBONDED TABLE SIZE: 705 POINTS
TCL: Setting parameter alchLambda2 to 0.7999999999999998
Info: NONBONDED TABLE R-SQUARED SPACING: 0.0625
Info: NONBONDED TABLE SIZE: 705 POINTS
TCL: Running for 1500000 steps
ETITLE: TS BOND ANGLE DIHED IMPRP ELECT VDW BOUNDARY MISC KINETIC TOTAL TEMP POTENTIAL TOTALAVG TEMPAVG PRESSURE GPRESSURE VOLUME PRESSAVG GPRESSAVG
ENERGY: 0 3.2827 2.4206 0.8909 0.0000 -10682.9986 1412.6815 0.0000 0.0000 1794.4094 -7469.3136 301.7503 -9263.7230 -7469.3136 301.7503 -205.3561 -120.1653 31303.8984 -205.3561 -120.1653
ENERGY: 300000 2.5195 3.9121 2.4172 0.0000 -10783.8343 1442.2667 0.0000 0.0000 1857.3285 -7475.3904 312.3309 -9332.7189 -7515.6175 302.7514 -189.1915 -113.0433 31163.2818 7.3648 70.4967
ENERGY: 600000 1.9724 1.7727 2.6393 0.0000 -10725.8455 1418.7783 0.0000 0.0000 1765.0644 -7535.6185 296.8156 -9300.6829 -7543.6856 301.1550 -269.0469 -170.8088 31133.8724 -161.7744 -109.5416
ENERGY: 900000 1.4916 0.9008 1.5555 0.0000 -10759.1548 1433.5121 0.0000 0.0000 1761.2992 -7560.3956 296.1825 -9321.6947 -7548.2089 301.1655 353.0751 414.8070 30161.6482 -83.7756 -36.8875
ENERGY: 1200000 1.3153 2.0647 2.6862 0.0000 -10803.7702 1408.7219 0.0000 0.0000 1827.5295 -7561.4525 307.3199 -9388.9820 -7555.8732 302.2693 -594.0057 -531.8407 31186.5873 -144.8440 -91.4256
ENERGY: 1500000 3.2044 2.4514 2.4628 0.0000 -10825.1052 1399.7284 0.0000 0.0000 1752.4184 -7664.8397 294.6891 -9417.2581 -7558.8131 301.8138 -488.9721 -410.4446 30766.1446 -130.4525 -68.4884
TCL: Running FEP window   5: Lambda1 0.7999999999999998 Lambda2 0.7499999999999998 [dLambda -0.050000000000000044]
TCL: Setting parameter firsttimestep to 0
TCL: Setting parameter alchLambda to 0.7999999999999998
Info: NONBONDED TABLE R-SQUARED SPACING: 0.0625
Info: NONBONDED TABLE SIZE: 705 POINTS
TCL: Setting parameter alchLambda2 to 0.7499999999999998
Info: NONBONDED TABLE R-SQUARED SPACING: 0.0625
Info: NONBONDED TABLE SIZE: 705 POINTS
TCL: Running for 1500000 steps
ETITLE: TS BOND ANGLE DIHED IMPRP ELECT VDW BOUNDARY MISC KINETIC TOTAL TEMP POTENTIAL TOTALAVG TEMPAVG PRESSURE GPRESSURE VOLUME PRESSAVG GPRESSAVG
ENERGY: 0 3.2044 2.4514 2.4628 0.0000 -10824.9390 1400.0710 0.0000 0.0000 1751.5336 -7665.2157 294.5403 -9416.7493 -7665.2157 294.5403 -491.4175 -417.4851 30766.1446 -491.4175 -417.4851
ENERGY: 300000 2.0296 1.6613 1.7775 0.0000 -10894.6420 1515.9135 0.0000 0.0000 1736.1693 -7637.0908 291.9566 -9373.2602 -7637.4707 297.2890 320.9002 382.1018 30864.1770 31.2324 121.9047
ENERGY: 600000 2.3387 2.9919 1.0128 0.0000 -11047.9214 1634.3044 0.0000 0.0000 1767.6722 -7639.6014 297.2542 -9407.2736 -7639.7747 297.5512 1559.3296 1565.0409 30305.1665 220.6770 289.5401
ENERGY: 900000 5.6164 1.9414 1.8354 0.0000 -10711.4879 1378.1021 0.0000 0.0000 1796.2950 -7527.6977 302.0674 -9323.9927 -7614.6616 297.7874 -282.6983 -205.9817 30282.9999 104.9093 167.6989
ENERGY: 1200000 1.3856 1.9119 2.3454 0.0000 -10907.8074 1538.6685 0.0000 0.0000 1744.4271 -7619.0689 293.3452 -9363.4960 -7613.5842 297.7948 798.9591 818.3791 30775.9821 134.4691 190.4156
ENERGY: 1500000 1.5069 2.3282 1.1208 0.0000 -10745.2537 1379.7742 0.0000 0.0000 1774.3290 -7586.1946 298.3736 -9360.5237 -7607.1683 297.6974 -935.9917 -843.2057 31610.1766 116.9586 170.7784
TCL: Running FEP window   6: Lambda1 0.7499999999999998 Lambda2 0.6999999999999997 [dLambda -0.050000000000000044]
TCL: Setting parameter firsttimestep to 0
TCL: Setting parameter alchLambda to 0.7499999999999998
Info: NONBONDED TABLE R-SQUARED SPACING: 0.0625
Info: NONBONDED TABLE SIZE: 705 POINTS
TCL: Setting parameter alchLambda2 to 0.6999999999999997
Info: NONBONDED TABLE R-SQUARED SPACING: 0.0625
Info: NONBONDED TABLE SIZE: 705 POINTS
TCL: Running for 1500000 steps
ETITLE: TS BOND ANGLE DIHED IMPRP ELECT VDW BOUNDARY MISC KINETIC TOTAL TEMP POTENTIAL TOTALAVG TEMPAVG PRESSURE GPRESSURE VOLUME PRESSAVG GPRESSAVG
ENERGY: 0 1.5069 2.3282 1.1208 0.0000 -10744.9116 1380.1796 0.0000 0.0000 1773.4229 -7586.3533 298.2212 -9359.7762 -7586.3533 298.2212 -933.0272 -847.7700 31610.1766 -933.0272 -847.7700
ENERGY: 300000 3.6935 2.7205 2.4643 0.0000 -10732.4452 1359.1038 0.0000 0.0000 1735.9465 -7628.5166 291.9191 -9364.4631 -7568.4378 299.1615 -996.3755 -877.2879 30969.7389 -561.2160 -500.6730
ENERGY: 600000 2.0761 2.3109 3.0799 0.0000 -10908.4046 1464.8481 0.0000 0.0000 1737.9531 -7698.1364 292.2566 -9436.0895 -7594.1755 298.4800 169.2738 171.4053 30350.2738 -407.7669 -363.4325
ENERGY: 900000 1.5587 2.6788 1.6717 0.0000 -10855.1606 1481.8032 0.0000 0.0000 1865.3655 -7502.0827 313.6824 -9367.4481 -7591.2700 300.6758 422.7869 493.3292 30390.8589 -231.7473 -179.9937
ENERGY: 1200000 2.2184 2.4809 3.6503 0.0000 -10797.2232 1492.9310 0.0000 0.0000 1886.6476 -7409.2951 317.2612 -9295.9426 -7580.9149 301.9489 425.6534 457.1860 31133.7770 -237.9622 -185.5824
ENERGY: 1500000 4.4369 1.0899 3.7505 0.0000 -10832.2323 1454.2415 0.0000 0.0000 1759.2250 -7609.4885 295.8337 -9368.7134 -7580.4868 301.5813 128.3330 117.0506 30764.9920 -282.0035 -233.5715
TCL: Running FEP window   7: Lambda1 0.6999999999999997 Lambda2 0.6499999999999997 [dLambda -0.050000000000000044]
TCL: Setting parameter firsttimestep to 0
TCL: Setting parameter alchLambda to 0.6999999999999997
Info: NONBONDED TABLE R-SQUARED SPACING: 0.0625
Info: NONBONDED TABLE SIZE: 705 POINTS
TCL: Setting parameter alchLambda2 to 0.6499999999999997
Info: NONBONDED TABLE R-SQUARED SPACING: 0.0625
Info: NONBONDED TABLE SIZE: 705 POINTS
TCL: Running for 1500000 steps
ETITLE: TS BOND ANGLE DIHED IMPRP ELECT VDW BOUNDARY MISC KINETIC TOTAL TEMP POTENTIAL TOTALAVG TEMPAVG PRESSURE GPRESSURE VOLUME PRESSAVG GPRESSAVG
ENERGY: 0 4.4369 1.0899 3.7505 0.0000 -10831.7019 1454.3379 0.0000 0.0000 1758.3120 -7609.7747 295.6802 -9368.0867 -7609.7747 295.6802 17.2232 106.9048 30764.9920 17.2232 106.9048
ENERGY: 300000 4.4324 1.8676 2.2519 0.0000 -10775.9289 1486.9418 0.0000 0.0000 1784.1370 -7496.2982 300.0229 -9280.4352 -7542.3542 300.9998 702.7987 675.2768 30657.3674 25.6528 88.7052
ENERGY: 600000 1.8391 0.8069 3.4148 0.0000 -10825.3598 1434.7444 0.0000 0.0000 1788.5786 -7595.9761 300.7698 -9384.5547 -7592.9467 298.5944 -380.6925 -304.5217 31051.0823 -44.9505 22.4290
ENERGY: 900000 2.2606 1.7590 3.4150 0.0000 -10745.3019 1395.4936 0.0000 0.0000 1754.7551 -7587.6186 295.0820 -9342.3736 -7584.6791 299.3177 -425.3791 -324.8987 30862.1899 95.0679 166.5864
ENERGY: 1200000 1.7915 1.2824 4.8312 0.0000 -10807.6676 1412.4030 0.0000 0.0000 1796.7598 -7590.5996 302.1456 -9387.3594 -7586.1853 299.0870 -230.8519 -147.7141 30333.5441 -2.0166 63.9433
ENERGY: 1500000 1.0495 0.9702 5.8163 0.0000 -10998.4091 1591.3644 0.0000 0.0000 1829.4697 -7569.7389 307.6461 -9399.2087 -7590.4141 299.3156 1594.7531 1640.5053 30046.0260 74.5240 138.3499
TCL: Running FEP window   8: Lambda1 0.6499999999999997 Lambda2 0.5999999999999996 [dLambda -0.050000000000000044]
TCL: Setting parameter firsttimestep to 0
TCL: Setting parameter alchLambda to 0.6499999999999997
Info: NONBONDED TABLE R-SQUARED SPACING: 0.0625
Info: NONBONDED TABLE SIZE: 705 POINTS
TCL: Setting parameter alchLambda2 to 0.5999999999999996
Info: NONBONDED TABLE R-SQUARED SPACING: 0.0625
Info: NONBONDED TABLE SIZE: 705 POINTS
TCL: Running for 1500000 steps
ETITLE: TS BOND ANGLE DIHED IMPRP ELECT VDW BOUNDARY MISC KINETIC TOTAL TEMP POTENTIAL TOTALAVG TEMPAVG PRESSURE GPRESSURE VOLUME PRESSAVG GPRESSAVG
ENERGY: 0 1.0495 0.9702 5.8163 0.0000 -10998.2118 1591.9596 0.0000 0.0000 1828.5709 -7569.8453 307.4950 -9398.4162 -7569.8453 307.4950 1564.6054 1638.2731 30046.0260 1564.6054 1638.2731
ENERGY: 300000 3.0362 5.2119 2.6299 0.0000 -10827.6900 1460.3709 0.0000 0.0000 1753.3037 -7603.1375 294.8379 -9356.4412 -7576.3676 300.9447 191.8077 292.6937 30526.1432 270.3146 350.6401
ENERGY: 600000 3.4353 1.2540 3.2091 0.0000 -10797.3858 1429.9127 0.0000 0.0000 1794.9871 -7564.5877 301.8475 -9359.5748 -7591.1464 300.1021 -393.7211 -362.9557 31102.5149 36.0936 101.0346
ENERGY: 900000 3.2126 2.6621 2.0941 0.0000 -10853.5276 1459.2894 0.0000 0.0000 1776.5394 -7609.7300 298.7453 -9386.2694 -7601.7552 299.1895 185.1949 247.4649 30143.5898 20.8465 83.2545
ENERGY: 1200000 3.4982 1.5205 3.4725 0.0000 -10783.5095 1423.1038 0.0000 0.0000 1813.5762 -7538.3382 304.9735 -9351.9144 -7591.6853 300.0208 -439.3344 -346.9821 31402.7668 -42.1076 16.6457
ENERGY: 1500000 2.8526 2.9564 1.8921 0.0000 -10803.9141 1391.1805 0.0000 0.0000 1803.1576 -7601.8750 303.2214 -9405.0326 -7588.7842 300.3104 -297.6993 -205.2421 30466.6800 -117.9870 -55.3426
TCL: Running FEP window   9: Lambda1 0.5999999999999996 Lambda2 0.5499999999999996 [dLambda -0.050000000000000044]
TCL: Setting parameter firsttimestep to 0
TCL: Setting parameter alchLambda to 0.5999999999999996
Info: NONBONDED TABLE R-SQUARED SPACING: 0.0625
Info: NONBONDED TABLE SIZE: 705 POINTS
TCL: Setting parameter alchLambda2 to 0.5499999999999996
Info: NONBONDED TABLE R-SQUARED SPACING: 0.0625
Info: NONBONDED TABLE SIZE: 705 POINTS
TCL: Running for 1500000 steps
ETITLE: TS BOND ANGLE DIHED IMPRP ELECT VDW BOUNDARY MISC KINETIC TOTAL TEMP POTENTIAL TOTALAVG TEMPAVG PRESSURE GPRESSURE VOLUME PRESSAVG GPRESSAVG
ENERGY: 0 2.8526 2.9564 1.8921 0.0000 -10803.9295 1391.3250 0.0000 0.0000 1802.2389 -7602.6645 303.0670 -9404.9034 -7602.6645 303.0670 -289.7795 -209.6940 30466.6800 -289.7795 -209.6940
ENERGY: 300000 6.4415 2.4785 2.5068 0.0000 -10884.4332 1473.2345 0.0000 0.0000 1746.9487 -7652.8233 293.7693 -9399.7720 -7595.7760 303.1751 -276.4365 -195.3623 30925.6884 -119.6240 -19.2894
ENERGY: 600000 3.2214 2.1939 2.3439 0.0000 -10734.1020 1437.4677 0.0000 0.0000 1779.1448 -7509.7303 299.1834 -9288.8751 -7604.6511 301.3741 139.1143 212.6752 30601.8294 -29.3334 65.9103
ENERGY: 900000 1.2804 1.6441 0.8429 0.0000 -10774.0795 1462.1558 0.0000 0.0000 1809.7377 -7498.4187 304.3280 -9308.1564 -7590.7403 302.0505 313.1787 332.9741 30730.3726 33.3627 120.3145
ENERGY: 1200000 3.5884 1.0274 1.8365 0.0000 -10840.6063 1520.6050 0.0000 0.0000 1751.6305 -7561.9185 294.5566 -9313.5490 -7583.4726 300.5562 454.1454 491.2776 31081.9837 35.3891 118.7426
ENERGY: 1500000 3.1396 4.3256 2.9722 0.0000 -10832.1500 1477.1754 0.0000 0.0000 1802.6017 -7541.9356 303.1280 -9344.5373 -7575.6919 301.5653 389.8024 479.1835 30620.2092 44.8105 126.4518
TCL: Running FEP window  10: Lambda1 0.5499999999999996 Lambda2 0.4999999999999996 [dLambda -0.04999999999999999]
TCL: Setting parameter firsttimestep to 0
TCL: Setting parameter alchLambda to 0.5499999999999996
Info: NONBONDED TABLE R-SQUARED SPACING: 0.0625
Info: NONBONDED TABLE SIZE: 705 POINTS
TCL: Setting parameter alchLambda2 to 0.4999999999999996
Info: NONBONDED TABLE R-SQUARED SPACING: 0.0625
Info: NONBONDED TABLE SIZE: 705 POINTS
TCL: Running for 1500000 steps
ETITLE: TS BOND ANGLE DIHED IMPRP ELECT VDW BOUNDARY MISC KINETIC TOTAL TEMP POTENTIAL TOTALAVG TEMPAVG PRESSURE GPRESSURE VOLUME PRESSAVG GPRESSAVG
ENERGY: 0 3.1396 4.3256 2.9722 0.0000 -10831.8757 1477.1514 0.0000 0.0000 1801.6808 -7542.6061 302.9731 -9344.2869 -7542.6061 302.9731 384.8094 470.5508 30620.2092 384.8094 470.5508
ENERGY: 300000 2.6083 2.8066 1.1909 0.0000 -10814.1314 1482.1081 0.0000 0.0000 1793.2972 -7532.1203 301.5633 -9325.4176 -7544.0355 300.2066 34.4800 84.1991 31439.3263 254.3463 323.0464
ENERGY: 600000 2.8037 0.9952 1.6837 0.0000 -10838.0595 1464.9356 0.0000 0.0000 1824.0272 -7543.6142 306.7309 -9367.6413 -7547.6940 300.8555 13.9203 142.6794 30877.9204 -5.5045 49.2272
ENERGY: 900000 4.3207 3.5451 1.5080 0.0000 -10863.6315 1448.1133 0.0000 0.0000 1768.8321 -7637.3123 297.4492 -9406.1444 -7565.4255 299.8262 -289.7760 -229.5766 30846.9643 -49.5698 5.4261
ENERGY: 1200000 2.9321 1.0503 1.5073 0.0000 -10878.7397 1431.7107 0.0000 0.0000 1745.0435 -7696.4958 293.4489 -9441.5393 -7587.1563 299.3145 -583.2265 -492.2159 30958.2304 -66.4266 -12.1197
ENERGY: 1500000 3.3601 2.6944 2.5587 0.0000 -10832.8813 1433.2420 0.0000 0.0000 1771.7134 -7619.3127 297.9337 -9391.0260 -7589.3029 299.7284 -449.3036 -432.6134 31169.7740 -107.6294 -53.8244
TCL: Running FEP window  11: Lambda1 0.4999999999999996 Lambda2 0.4499999999999996 [dLambda -0.04999999999999999]
TCL: Setting parameter firsttimestep to 0
TCL: Setting parameter alchLambda to 0.4999999999999996
Info: NONBONDED TABLE R-SQUARED SPACING: 0.0625
Info: NONBONDED TABLE SIZE: 705 POINTS
TCL: Setting parameter alchLambda2 to 0.4499999999999996
Info: NONBONDED TABLE R-SQUARED SPACING: 0.0625
Info: NONBONDED TABLE SIZE: 705 POINTS
TCL: Running for 1500000 steps
ETITLE: TS BOND ANGLE DIHED IMPRP ELECT VDW BOUNDARY MISC KINETIC TOTAL TEMP POTENTIAL TOTALAVG TEMPAVG PRESSURE GPRESSURE VOLUME PRESSAVG GPRESSAVG
ENERGY: 0 3.3601 2.6944 2.5587 0.0000 -10833.1602 1433.8136 0.0000 0.0000 1770.8393 -7619.8940 297.7868 -9390.7334 -7619.8940 297.7868 -513.0455 -433.4723 31169.7740 -513.0455 -433.4723
ENERGY: 200000 2.3613 2.8452 5.0765 0.0000 -10860.1926 1396.4458 0.0000 0.0000 1751.4751 -7701.9888 294.5304 -9453.4638 -7610.2934 297.5451 -818.5313 -824.4065 30958.6177 -548.0164 -496.9919
ENERGY: 400000 2.5984 3.2476 4.4361 0.0000 -10892.1481 1526.5934 0.0000 0.0000 1767.0880 -7588.1846 297.1559 -9355.2726 -7580.9408 300.5895 651.2276 676.9368 30444.2928 -81.0741 -37.4226
ENERGY: 600000 1.8273 3.9504 3.9891 0.0000 -10728.7281 1382.0090 0.0000 0.0000 1797.1569 -7539.7954 302.2124 -9336.9524 -7560.0811 301.6613 -549.3598 -452.4487 30959.0741 -147.1761 -100.4164
ENERGY: 800000 0.9914 3.8569 2.2675 0.0000 -10770.8982 1398.5695 0.0000 0.0000 1747.9727 -7617.2402 293.9415 -9365.2129 -7568.0180 300.5994 -537.1171 -476.4217 31021.0537 -169.4925 -119.2724
ENERGY: 1000000 1.5458 2.6276 3.6105 0.0000 -10801.0232 1499.0657 0.0000 0.0000 1769.6597 -7524.5139 297.5884 -9294.1736 -7561.2038 301.0198 319.5230 311.0668 31193.1683 -151.3443 -104.1442
