Info: SIMULATION PARAMETERS:
Info: TIMESTEP               2
Info: NUMBER OF STEPS        0
Info: STEPS PER CYCLE        10
Info: PERIODIC CELL BASIS 1  41.545 0 0
Info: PERIODIC CELL BASIS 2  0 43.772 0
Info: PERIODIC CELL BASIS 3  0 0 39.271
Info: PERIODIC CELL CENTER   0 0 0
Info: WRAPPING WATERS AROUND PERIODIC BOUNDARIES ON OUTPUT.
Info: WRAPPING ALL CLUSTERS AROUND PERIODIC BOUNDARIES ON OUTPUT.
Info: FIRST LDB TIMESTEP     50
Info: LAST LDB TIMESTEP     -1
Info: HOM BACKGROUND SCALING 1
Info: PME BACKGROUND SCALING 1
Info: MIN ATOMS PER PATCH    40
Info: EMPTY PATCH LOAD       40 ATOMS
Info: INITIAL TEMPERATURE    300
Info: CENTER OF MASS MOVING INITIALLY? NO
Info: DIELECTRIC             1
Info: EXCLUDE                SCALED ONE-FOUR
Info: 1-4 ELECTROSTATICS SCALED BY 0.833333
Info: MODIFIED 1-4 VDW PARAMETERS WILL BE USED
Info: DCD FILENAME           mobley_5890803_min.dcd
Info: DCD FREQUENCY          5000
Info: DCD FIRST STEP         5000
Info: DCD FILE WILL CONTAIN UNIT CELL DATA
Info: XST FILENAME           mobley_5890803_min.xst
Info: XST FREQUENCY          5000
Info: NO VELOCITY DCD OUTPUT
Info: NO FORCE DCD OUTPUT
Info: OUTPUT FILENAME        mobley_5890803_min
Info: BINARY OUTPUT FILES WILL BE USED
Info: RESTART FILENAME       mobley_5890803_min.restart
Info: RESTART FREQUENCY      5000
Info: BINARY RESTART FILES WILL BE USED
Info: CUTOFF                 9
Info: PAIRLIST DISTANCE      11
Info: PAIRLIST SHRINK RATE   0.01
Info: PAIRLIST GROW RATE     0.01
Info: PAIRLIST TRIGGER       0.3
Info: PAIRLISTS PER CYCLE    2
Info: PAIRLISTS ENABLED
Info: MARGIN                 8
Info: HYDROGEN GROUP CUTOFF  2.5
Info: PATCH DIMENSION        21.5
Info: ENERGY OUTPUT STEPS    5000
Info: ENERGY EVALUATION STEPS    5000
Info: OUTPUT ENERGY PRECISION 4
Info: CROSSTERM ENERGY INCLUDED IN DIHEDRAL
Info: TIMING OUTPUT STEPS    50000
Info: PRESSURE OUTPUT STEPS  5000
Info: LANGEVIN DYNAMICS ACTIVE
Info: LANGEVIN TEMPERATURE   300
Info: LANGEVIN USING BBK INTEGRATOR
Info: LANGEVIN DAMPING COEFFICIENT IS 1 INVERSE PS
Info: LANGEVIN DYNAMICS APPLIED TO HYDROGENS
Info: LANGEVIN PISTON PRESSURE CONTROL ACTIVE
Info:        TARGET PRESSURE IS 1.01325 BAR
Info:     OSCILLATION PERIOD IS 50 FS
Info:             DECAY TIME IS 25 FS
Info:     PISTON TEMPERATURE IS 300 K
Info:       PRESSURE CONTROL IS GROUP-BASED
Info:    INITIAL STRAIN RATE IS 0 0 0
Info:       CELL FLUCTUATION IS ISOTROPIC
Info: PARTICLE MESH EWALD (PME) ACTIVE
Info: PME TOLERANCE               1e-06
Info: PME EWALD COEFFICIENT       0.348832
Info: PME INTERPOLATION ORDER     4
Info: PME GRID DIMENSIONS         44 44 40
Info: PME MAXIMUM GRID SPACING    1
Info: FULL ELECTROSTATIC EVALUATION FREQUENCY      2
Info: USING VERLET I (r-RESPA) MTS SCHEME.
Info: C1 SPLITTING OF LONG RANGE ELECTROSTATICS
Info: PLACING ATOMS IN PATCHES BY HYDROGEN GROUPS
Info: RIGID BONDS TO HYDROGEN : ALL
Info:         ERROR TOLERANCE : 1e-08
Info:          MAX ITERATIONS : 100
Info: RIGID WATER USING SETTLE ALGORITHM
Info: RANDOM NUMBER SEED     1741354534
Info: USE HYDROGEN BONDS?    NO
Info: Using AMBER format force field!
Info: AMBER PARM FILE        mobley_5890803.prmtop
Info: COORDINATE PDB         mobley_5890803.pdb
Info: Exclusions will be read from PARM file!
Info: SCNB (VDW SCALING)     2
Info: USING ARITHMETIC MEAN TO COMBINE L-J SIGMA PARAMETERS
Info: SUMMARY OF PARAMETERS:
Info: 9 BONDS
Info: 13 ANGLES
Info:   13 HARMONIC
Info:   0 COSINE-BASED
Info: 20 DIHEDRAL
Info: 0 IMPROPER
Info: 0 CROSSTERM
Info: 0 VDW
Info: 36 VDW_PAIRS
Info: 0 NBTHOLE_PAIRS
Info: STRUCTURE SUMMARY:
Info: 5162 ATOMS
Info: 5161 BONDS
Info: 34 ANGLES
Info: 49 DIHEDRALS
Info: 0 IMPROPERS
Info: 0 CROSSTERMS
Info: 5233 EXCLUSIONS
Info: 5154 RIGID BONDS
Info: 10332 DEGREES OF FREEDOM
Info: 1722 HYDROGEN GROUPS
Info: 4 ATOMS IN LARGEST HYDROGEN GROUP
Info: 1722 MIGRATION GROUPS
Info: 4 ATOMS IN LARGEST MIGRATION GROUP
Info: TOTAL MASS = 30995.6 amu
Info: TOTAL CHARGE = 0.000100039 e
Info: MASS DENSITY = 0.720729 g/cm^3
Info: ATOM DENSITY = 0.0722821 atoms/A^3
Info: ADDED 0 IMPLICIT EXCLUSIONS
Info: NONBONDED TABLE R-SQUARED SPACING: 0.0625
Info: NONBONDED TABLE SIZE: 705 POINTS
Info: REMOVING COM VELOCITY -0.15098 0.00734425 -0.0383222
TCL: Minimizing for 2000 steps
ETITLE: TS BOND ANGLE DIHED IMPRP ELECT VDW BOUNDARY MISC KINETIC TOTAL TEMP POTENTIAL TOTAL3 TEMPAVG PRESSURE GPRESSURE VOLUME PRESSAVG GPRESSAVG
ENERGY: 0 0.2643 0.8483 22.2451 0.0000 -15975.5084 1749.4748 0.0000 0.0000 0.0000 -14202.6759 0.0000 -14202.6759 -14202.6759 0.0000 10775.5029 -15508.2346 71414.6175 10775.5029 -15508.2346
ENERGY: 400 65.8736 20.0829 22.3563 0.0000 -21536.4383 3165.7709 0.0000 0.0000 0.0000 -18262.3546 0.0000 -18262.3546 -18262.3546 0.0000 15777.1103 10232.5550 71414.6175 15777.1103 10232.5550
ENERGY: 800 0.8456 1.9843 20.5161 0.0000 -22642.7548 3618.6015 0.0000 0.0000 0.0000 -19000.8074 0.0000 -19000.8074 -19000.8074 0.0000 17786.6991 11978.0511 71414.6175 17786.6991 11978.0511
ENERGY: 1200 0.6251 1.0769 21.0218 0.0000 -23168.4621 3863.9035 0.0000 0.0000 0.0000 -19281.8349 0.0000 -19281.8349 -19281.8349 0.0000 18868.9840 12806.3291 71414.6175 18868.9840 12806.3291
ENERGY: 1600 13.4394 4.6025 20.1572 0.0000 -23393.7836 3962.2350 0.0000 0.0000 0.0000 -19393.3494 0.0000 -19393.3494 -19393.3494 0.0000 19353.4945 13271.3456 71414.6175 19353.4945 13271.3456
ENERGY: 2000 0.1533 0.7177 19.2423 0.0000 -23541.0824 4026.3688 0.0000 0.0000 0.0000 -19494.6003 0.0000 -19494.6003 -19494.6003 0.0000 19639.1616 13562.3565 71414.6175 19639.1616 13562.3565
TCL: Exiting due to exit command.
Info: NAMD 3.0.1 for Linux-x86_64-multicore
Info: Please visit http://www.ks.uiuc.edu/Research/namd/
Info: for updates, documentation, and support information.
Info: Please cite Phillips et al., J. Chem. Phys. 153:044130 (2020) doi:10.1063/5.0014475
Info: in all publications reporting results obtained with NAMD.
Info: Based on Charm++/Converse 80000 for multicore-linux-x86_64-gcc
Info: Built Mon Oct 14 11:11:06 CDT 2024 by dhardy on athine.ks.uiuc.edu
Info: 1 NAMD  3.0.1  Linux-x86_64-multicore  16    k135  z5358697
Info: Running on 16 processors, 1 nodes, 1 physical nodes.
Info: CPU topology information available.
Info: Charm++/Converse parallel runtime startup completed at 0.00489323 s
Info: 1043.48 MB of memory in use based on /proc/self/stat
Info: Configuration file is mobley_5890803_equil.namd
Info: Working in the current directory /srv/scratch/z5358697/prod_prep_7/5890803
TCL: Running 25000 steps at 30 kelvin.
TCL: Suspending until startup complete.
Info: SIMULATION PARAMETERS:
Info: TIMESTEP               2
Info: NUMBER OF STEPS        0
Info: STEPS PER CYCLE        10
Info: PERIODIC CELL BASIS 1  41.545 0 0
Info: PERIODIC CELL BASIS 2  0 43.772 0
Info: PERIODIC CELL BASIS 3  0 0 39.271
Info: PERIODIC CELL CENTER   0 0 0
Info: WRAPPING WATERS AROUND PERIODIC BOUNDARIES ON OUTPUT.
Info: WRAPPING ALL CLUSTERS AROUND PERIODIC BOUNDARIES ON OUTPUT.
Info: FIRST LDB TIMESTEP     50
Info: LAST LDB TIMESTEP     -1
Info: HOM BACKGROUND SCALING 1
Info: PME BACKGROUND SCALING 1
Info: MIN ATOMS PER PATCH    40
Info: EMPTY PATCH LOAD       40 ATOMS
Info: INITIAL TEMPERATURE    300
Info: CENTER OF MASS MOVING INITIALLY? NO
Info: DIELECTRIC             1
Info: EXCLUDE                SCALED ONE-FOUR
Info: 1-4 ELECTROSTATICS SCALED BY 0.833333
Info: MODIFIED 1-4 VDW PARAMETERS WILL BE USED
Info: DCD FILENAME           mobley_5890803_equil.dcd
Info: DCD FREQUENCY          5000
Info: DCD FIRST STEP         5000
Info: DCD FILE WILL CONTAIN UNIT CELL DATA
Info: XST FILENAME           mobley_5890803_equil.xst
Info: XST FREQUENCY          5000
Info: NO VELOCITY DCD OUTPUT
Info: NO FORCE DCD OUTPUT
Info: OUTPUT FILENAME        mobley_5890803_equil
Info: BINARY OUTPUT FILES WILL BE USED
Info: RESTART FILENAME       mobley_5890803_equil.restart
Info: RESTART FREQUENCY      5000
Info: BINARY RESTART FILES WILL BE USED
Info: CUTOFF                 9
Info: PAIRLIST DISTANCE      11
Info: PAIRLIST SHRINK RATE   0.01
Info: PAIRLIST GROW RATE     0.01
Info: PAIRLIST TRIGGER       0.3
Info: PAIRLISTS PER CYCLE    2
Info: PAIRLISTS ENABLED
Info: MARGIN                 8
Info: HYDROGEN GROUP CUTOFF  2.5
Info: PATCH DIMENSION        21.5
Info: ENERGY OUTPUT STEPS    5000
Info: ENERGY EVALUATION STEPS    5000
Info: OUTPUT ENERGY PRECISION 4
Info: CROSSTERM ENERGY INCLUDED IN DIHEDRAL
Info: TIMING OUTPUT STEPS    50000
Info: PRESSURE OUTPUT STEPS  5000
Info: LANGEVIN DYNAMICS ACTIVE
Info: LANGEVIN TEMPERATURE   30
Info: LANGEVIN USING BBK INTEGRATOR
Info: LANGEVIN DAMPING COEFFICIENT IS 1 INVERSE PS
Info: LANGEVIN DYNAMICS APPLIED TO HYDROGENS
Info: LANGEVIN PISTON PRESSURE CONTROL ACTIVE
Info:        TARGET PRESSURE IS 1.01325 BAR
Info:     OSCILLATION PERIOD IS 50 FS
Info:             DECAY TIME IS 25 FS
Info:     PISTON TEMPERATURE IS 300 K
Info:       PRESSURE CONTROL IS GROUP-BASED
Info:    INITIAL STRAIN RATE IS 0 0 0
Info:       CELL FLUCTUATION IS ISOTROPIC
Info: PARTICLE MESH EWALD (PME) ACTIVE
Info: PME TOLERANCE               1e-06
Info: PME EWALD COEFFICIENT       0.348832
Info: PME INTERPOLATION ORDER     4
Info: PME GRID DIMENSIONS         44 44 40
Info: PME MAXIMUM GRID SPACING    1
Info: FULL ELECTROSTATIC EVALUATION FREQUENCY      2
Info: USING VERLET I (r-RESPA) MTS SCHEME.
Info: C1 SPLITTING OF LONG RANGE ELECTROSTATICS
Info: PLACING ATOMS IN PATCHES BY HYDROGEN GROUPS
Info: RIGID BONDS TO HYDROGEN : ALL
Info:         ERROR TOLERANCE : 1e-08
Info:          MAX ITERATIONS : 100
Info: RIGID WATER USING SETTLE ALGORITHM
Info: RANDOM NUMBER SEED     1741354552
Info: USE HYDROGEN BONDS?    NO
Info: Using AMBER format force field!
Info: AMBER PARM FILE        mobley_5890803.prmtop
Info: COORDINATE PDB         mobley_5890803.pdb
Info: Exclusions will be read from PARM file!
Info: SCNB (VDW SCALING)     2
Info: USING ARITHMETIC MEAN TO COMBINE L-J SIGMA PARAMETERS
Info: BINARY COORDINATES     mobley_5890803_min.coor
Info: SUMMARY OF PARAMETERS:
Info: 9 BONDS
Info: 13 ANGLES
Info:   13 HARMONIC
Info:   0 COSINE-BASED
Info: 20 DIHEDRAL
Info: 0 IMPROPER
Info: 0 CROSSTERM
Info: 0 VDW
Info: 36 VDW_PAIRS
Info: 0 NBTHOLE_PAIRS
Info: STRUCTURE SUMMARY:
Info: 5162 ATOMS
Info: 5161 BONDS
Info: 34 ANGLES
Info: 49 DIHEDRALS
Info: 0 IMPROPERS
Info: 0 CROSSTERMS
Info: 5233 EXCLUSIONS
Info: 5154 RIGID BONDS
Info: 10332 DEGREES OF FREEDOM
Info: 1722 HYDROGEN GROUPS
Info: 4 ATOMS IN LARGEST HYDROGEN GROUP
Info: 1722 MIGRATION GROUPS
Info: 4 ATOMS IN LARGEST MIGRATION GROUP
Info: TOTAL MASS = 30995.6 amu
Info: TOTAL CHARGE = 0.000100039 e
Info: MASS DENSITY = 0.720729 g/cm^3
Info: ATOM DENSITY = 0.0722821 atoms/A^3
Info: ADDED 0 IMPLICIT EXCLUSIONS
Info: NONBONDED TABLE R-SQUARED SPACING: 0.0625
Info: NONBONDED TABLE SIZE: 705 POINTS
Info: REMOVING COM VELOCITY 0.0330055 -0.0414611 0.165363
TCL: Running for 25000 steps
ETITLE: TS BOND ANGLE DIHED IMPRP ELECT VDW BOUNDARY MISC KINETIC TOTAL TEMP POTENTIAL TOTAL3 TEMPAVG PRESSURE GPRESSURE VOLUME PRESSAVG GPRESSAVG
ENERGY: 0 0.1533 0.7177 19.2423 0.0000 -23541.0824 4026.3688 0.0000 0.0000 3084.3358 -16410.2646 300.4468 -19494.6003 -16409.6704 300.4468 -26.4457 15.1011 71414.6175 -26.4457 15.1011
ENERGY: 5000 0.3189 1.1254 19.2638 0.0000 -24727.5576 4239.6707 0.0000 0.0000 316.7171 -20150.4618 30.8516 -20467.1789 -20149.7599 47.9318 -300.4559 -246.9856 50501.5221 1.5055 1.7574
ENERGY: 10000 0.4416 1.1646 19.4246 0.0000 -24836.1069 4302.6736 0.0000 0.0000 307.6227 -20204.7797 29.9657 -20512.4025 -20203.8985 30.2441 -140.9112 -51.9775 50454.9310 2.5840 2.4983
ENERGY: 15000 0.2853 0.7666 19.6550 0.0000 -24949.0833 4405.9727 0.0000 0.0000 303.6530 -20218.7506 29.5790 -20522.4037 -20218.3205 29.9947 364.5195 424.9616 50297.2080 1.2087 1.2026
ENERGY: 20000 0.0875 1.0212 19.9165 0.0000 -25034.9032 4478.1040 0.0000 0.0000 298.8562 -20236.9178 29.1117 -20535.7740 -20236.2563 30.0271 789.7117 853.8120 50059.4544 -2.1263 -1.9995
ENERGY: 25000 0.3832 1.3555 19.1208 0.0000 -24796.8368 4229.4222 0.0000 0.0000 309.2623 -20237.2927 30.1254 -20546.5550 -20236.5116 29.6235 -507.6617 -440.8755 50517.2007 6.2786 6.2895
TCL: Running 25000 steps at 60 kelvin.
TCL: Setting parameter langevinTemp to 60
TCL: Running for 25000 steps
ETITLE: TS BOND ANGLE DIHED IMPRP ELECT VDW BOUNDARY MISC KINETIC TOTAL TEMP POTENTIAL TOTAL3 TEMPAVG PRESSURE GPRESSURE VOLUME PRESSAVG GPRESSAVG
ENERGY: 25000 0.3832 1.3555 19.1208 0.0000 -24796.8368 4229.4222 0.0000 0.0000 309.1104 -20237.4446 30.1106 -20546.5550 -20236.8035 30.1106 -505.4495 -440.7264 50517.2007 -505.4495 -440.7264
ENERGY: 30000 0.5935 2.1739 19.3604 0.0000 -24369.6040 4080.1458 0.0000 0.0000 623.0849 -19644.2454 60.6950 -20267.3303 -19642.1503 56.9255 -628.0511 -557.8119 50788.6330 2.9281 2.9748
ENERGY: 35000 0.4020 2.5817 19.6252 0.0000 -24397.8469 4076.0618 0.0000 0.0000 605.6035 -19693.5728 58.9922 -20299.1763 -19692.3376 60.1975 -702.4288 -653.8220 50829.5567 5.0913 4.9991
ENERGY: 40000 0.4163 2.0739 19.4991 0.0000 -24806.7430 4480.7105 0.0000 0.0000 621.6770 -19682.3663 60.5579 -20304.0433 -19681.5934 60.1432 1342.0673 1413.8021 49982.3854 7.1994 6.8393
ENERGY: 45000 0.1390 2.8007 19.1559 0.0000 -24685.6085 4288.2518 0.0000 0.0000 623.8619 -19751.3992 60.7707 -20375.2611 -19750.3231 60.1803 171.6517 238.5158 50335.6956 5.2573 5.2465
ENERGY: 50000 0.4182 2.0418 19.6468 0.0000 -24606.0681 4207.1830 0.0000 0.0000 621.0533 -19755.7249 60.4971 -20376.7783 -19754.0768 59.9222 -198.4913 -156.9855 50410.5779 6.5758 6.6189
TCL: Running 25000 steps at 90 kelvin.
TCL: Setting parameter langevinTemp to 90
TCL: Running for 25000 steps
ETITLE: TS BOND ANGLE DIHED IMPRP ELECT VDW BOUNDARY MISC KINETIC TOTAL TEMP POTENTIAL TOTAL3 TEMPAVG PRESSURE GPRESSURE VOLUME PRESSAVG GPRESSAVG
ENERGY: 50000 0.4182 2.0418 19.6468 0.0000 -24606.0681 4207.1830 0.0000 0.0000 620.7409 -19756.0374 60.4667 -20376.7783 -19754.7337 60.4667 -216.2433 -157.0421 50410.5779 -216.2433 -157.0421
ENERGY: 55000 0.9452 2.1079 20.0213 0.0000 -24084.6391 4011.2919 0.0000 0.0000 920.7613 -19129.5116 89.6919 -20050.2728 -19125.7858 87.2670 -447.6344 -416.4196 50741.3888 2.1237 2.0724
ENERGY: 60000 0.8123 1.9335 19.9315 0.0000 -24357.0077 4206.7168 0.0000 0.0000 933.4872 -19194.1264 90.9315 -20127.6136 -19191.5035 89.5226 334.5378 391.6806 50460.5081 4.6890 4.7297
ENERGY: 65000 1.1038 3.0868 19.8055 0.0000 -24375.2718 4174.0603 0.0000 0.0000 918.9302 -19258.2852 89.5135 -20177.2154 -19256.1993 90.1956 51.3297 95.4163 50481.1890 6.0431 5.6102
ENERGY: 70000 0.4660 4.0718 20.0921 0.0000 -24511.8741 4307.3468 0.0000 0.0000 922.5526 -19257.3449 89.8664 -20179.8975 -19254.6332 89.7459 644.6720 730.2272 50368.1981 2.8755 2.4955
ENERGY: 75000 0.3801 2.9450 19.2298 0.0000 -24212.3101 4007.2562 0.0000 0.0000 920.6154 -19261.8836 89.6776 -20182.4990 -19259.6010 89.8810 -727.0931 -692.9856 50802.2921 5.1284 5.1616
TCL: Running 25000 steps at 120 kelvin.
TCL: Setting parameter langevinTemp to 120
TCL: Running for 25000 steps
ETITLE: TS BOND ANGLE DIHED IMPRP ELECT VDW BOUNDARY MISC KINETIC TOTAL TEMP POTENTIAL TOTAL3 TEMPAVG PRESSURE GPRESSURE VOLUME PRESSAVG GPRESSAVG
ENERGY: 75000 0.3801 2.9450 19.2298 0.0000 -24212.3101 4007.2562 0.0000 0.0000 920.1661 -19262.3328 89.6339 -20182.4990 -19260.3213 89.6339 -736.8332 -693.1993 50802.2921 -736.8332 -693.1993
ENERGY: 80000 0.3894 2.9617 19.8042 0.0000 -23889.7064 4035.5036 0.0000 0.0000 1242.6587 -18588.3888 121.0481 -19831.0475 -18585.2970 116.2310 68.4273 133.9536 50976.1242 3.7960 3.3515
ENERGY: 85000 1.2391 5.3467 20.5890 0.0000 -23875.5141 3980.3373 0.0000 0.0000 1236.1538 -18631.8482 120.4144 -19868.0020 -18630.0928 120.3713 -242.8636 -193.6186 51132.9529 1.7698 2.0273
ENERGY: 90000 0.8993 3.0802 20.0672 0.0000 -24044.6509 4127.3922 0.0000 0.0000 1279.2505 -18613.9614 124.6125 -19893.2120 -18610.8540 119.3990 435.2993 486.8619 50794.1185 3.0709 2.3316
ENERGY: 95000 0.3165 3.5450 20.4852 0.0000 -24024.6957 4126.7326 0.0000 0.0000 1246.7719 -18626.8444 121.4487 -19873.6164 -18623.9785 120.2163 398.9550 438.0490 50946.2279 0.8835 0.9339
ENERGY: 100000 1.3750 3.3981 19.5023 0.0000 -23948.5938 4041.0704 0.0000 0.0000 1233.8419 -18649.4061 120.1892 -19883.2479 -18645.2934 120.6109 -18.0851 41.1658 50919.6442 3.2420 3.0422
TCL: Running 25000 steps at 150 kelvin.
TCL: Setting parameter langevinTemp to 150
TCL: Running for 25000 steps
ETITLE: TS BOND ANGLE DIHED IMPRP ELECT VDW BOUNDARY MISC KINETIC TOTAL TEMP POTENTIAL TOTAL3 TEMPAVG PRESSURE GPRESSURE VOLUME PRESSAVG GPRESSAVG
ENERGY: 100000 1.3750 3.3981 19.5023 0.0000 -23948.5938 4041.0704 0.0000 0.0000 1233.2254 -18650.0225 120.1292 -19883.2479 -18647.4086 120.1292 -1.9642 41.1181 50919.6442 -1.9642 41.1181
ENERGY: 105000 1.1341 3.5356 20.2782 0.0000 -23308.6452 3775.7388 0.0000 0.0000 1542.5840 -17965.3745 150.2640 -19507.9585 -17961.2884 146.4570 -483.3842 -428.0442 51121.4597 6.4582 6.5523
ENERGY: 110000 1.5369 3.2780 19.3738 0.0000 -23216.6099 3653.0688 0.0000 0.0000 1501.5117 -18037.8407 146.2631 -19539.3525 -18032.9084 149.7284 -1028.1531 -985.6891 51227.3559 3.4567 3.3412
ENERGY: 115000 0.2465 4.4815 19.2768 0.0000 -23528.1760 3946.8370 0.0000 0.0000 1535.8707 -18021.4634 149.6100 -19557.3341 -18019.8637 150.0733 524.7211 566.9399 50563.4909 0.9748 1.5080
ENERGY: 120000 0.5034 3.4882 20.0412 0.0000 -23666.0483 4089.8526 0.0000 0.0000 1560.3278 -17991.8350 151.9924 -19552.1629 -17989.0270 150.3216 1084.4179 1107.8461 50684.8532 4.7470 4.9355
ENERGY: 125000 0.7883 3.8317 20.7137 0.0000 -23553.2714 3913.7889 0.0000 0.0000 1588.3406 -18025.8083 154.7211 -19614.1489 -18021.2555 150.6499 201.5353 251.9932 50733.4327 1.3674 1.6837
TCL: Running 50000 steps at 180 kelvin.
TCL: Setting parameter langevinTemp to 180
TCL: Running for 50000 steps
ETITLE: TS BOND ANGLE DIHED IMPRP ELECT VDW BOUNDARY MISC KINETIC TOTAL TEMP POTENTIAL TOTAL3 TEMPAVG PRESSURE GPRESSURE VOLUME PRESSAVG GPRESSAVG
ENERGY: 125000 0.7883 3.8317 20.7137 0.0000 -23553.2714 3913.7889 0.0000 0.0000 1587.5737 -18026.5751 154.6464 -19614.1489 -18023.0730 154.6464 193.5266 251.4821 50733.4327 193.5266 251.4821
ENERGY: 135000 1.8798 4.1272 20.5484 0.0000 -22772.6341 3576.8746 0.0000 0.0000 1871.5831 -17297.6209 182.3119 -19169.2040 -17291.2071 180.2738 -653.8607 -611.0561 51281.6857 2.0358 1.8516
ENERGY: 145000 1.5365 4.5739 20.8139 0.0000 -22829.1494 3668.8611 0.0000 0.0000 1895.4012 -17237.9629 184.6321 -19133.3640 -17232.2619 181.3409 -160.6390 -103.6023 51091.1889 -0.2164 -0.0255
ENERGY: 155000 1.5234 5.2128 19.5032 0.0000 -22861.7879 3668.4718 0.0000 0.0000 1837.0356 -17330.0411 178.9466 -19167.0767 -17325.0568 179.2191 -267.9403 -182.7383 50812.8177 -0.9042 -1.0479
ENERGY: 165000 3.2134 6.4462 20.2183 0.0000 -22726.5033 3557.7007 0.0000 0.0000 1855.3228 -17283.6019 180.7280 -19138.9248 -17279.1639 180.2207 -885.0249 -830.4438 51277.7562 2.0866 2.4765
ENERGY: 175000 1.7961 6.7410 20.6029 0.0000 -22757.7609 3568.3076 0.0000 0.0000 1847.4403 -17312.8730 179.9602 -19160.3133 -17310.2435 179.2730 -780.5823 -757.9968 51164.9604 6.3817 6.1276
TCL: Running 50000 steps at 210 kelvin.
TCL: Setting parameter langevinTemp to 210
TCL: Running for 50000 steps
ETITLE: TS BOND ANGLE DIHED IMPRP ELECT VDW BOUNDARY MISC KINETIC TOTAL TEMP POTENTIAL TOTAL3 TEMPAVG PRESSURE GPRESSURE VOLUME PRESSAVG GPRESSAVG
ENERGY: 175000 1.7961 6.7410 20.6029 0.0000 -22757.7609 3568.3076 0.0000 0.0000 1846.5258 -17313.7876 179.8711 -19160.3134 -17310.4081 179.8711 -829.5587 -758.5573 51164.9604 -829.5587 -758.5573
ENERGY: 185000 1.3214 7.2315 22.5999 0.0000 -21712.4399 3240.8734 0.0000 0.0000 2127.7850 -16312.6288 207.2687 -18440.4138 -16307.0359 209.4057 -603.1013 -525.4708 50571.2057 2.0508 1.8121
ENERGY: 195000 3.0448 5.8160 20.7143 0.0000 -21916.7753 3463.5051 0.0000 0.0000 2189.4097 -16234.2854 213.2716 -18423.6951 -16230.5760 210.9211 678.3880 711.2288 50266.8858 4.1732 4.0508
ENERGY: 205000 1.6893 5.9623 20.5891 0.0000 -21618.0960 3277.7035 0.0000 0.0000 2178.9737 -16133.1780 212.2550 -18312.1517 -16129.6737 210.4348 -150.7152 -34.7211 50238.9701 1.0948 1.5199
ENERGY: 215000 1.6966 7.6100 21.9561 0.0000 -21828.1231 3449.9335 0.0000 0.0000 2144.8990 -16202.0281 208.9358 -18346.9270 -16196.6360 209.4445 737.3872 819.8436 50181.6251 1.8813 1.8594
ENERGY: 225000 0.1266 5.8088 19.6666 0.0000 -21746.9511 3345.1498 0.0000 0.0000 2166.8217 -16209.3774 211.0713 -18376.1992 -16204.0814 209.5765 238.0249 323.5939 50151.7063 4.9528 4.2354
TCL: Running 50000 steps at 240 kelvin.
TCL: Setting parameter langevinTemp to 240
TCL: Running for 50000 steps
ETITLE: TS BOND ANGLE DIHED IMPRP ELECT VDW BOUNDARY MISC KINETIC TOTAL TEMP POTENTIAL TOTAL3 TEMPAVG PRESSURE GPRESSURE VOLUME PRESSAVG GPRESSAVG
ENERGY: 225000 0.1266 5.8088 19.6666 0.0000 -21746.9511 3345.1498 0.0000 0.0000 2165.7534 -16210.4458 210.9672 -18376.1992 -16207.1160 210.9672 247.7899 324.0505 50151.7063 247.7899 324.0505
ENERGY: 235000 1.0048 8.8427 20.6410 0.0000 -20725.1840 3058.0101 0.0000 0.0000 2548.6286 -15088.0569 248.2633 -17636.6855 -15083.8521 239.5070 164.8516 276.4073 51017.0700 -2.2581 -2.2027
ENERGY: 245000 1.6794 8.2352 21.9765 0.0000 -20607.5446 3038.0637 0.0000 0.0000 2462.6270 -15074.9628 239.8858 -17537.5898 -15069.5545 241.0573 430.5579 516.0923 50368.6114 -0.2617 0.2400
ENERGY: 255000 1.1432 7.5631 20.7115 0.0000 -20526.9909 2928.1390 0.0000 0.0000 2512.5877 -15056.8464 244.7525 -17569.4341 -15051.3683 241.7158 -196.6109 -109.8643 50720.6904 5.3951 5.2134
ENERGY: 265000 1.0301 8.1393 20.7784 0.0000 -20852.5994 3117.4073 0.0000 0.0000 2514.4094 -15190.8349 244.9300 -17705.2443 -15185.9229 240.8058 624.1699 659.6658 50275.4956 4.8842 4.1376
ENERGY: 275000 1.2237 7.0937 19.1060 0.0000 -20670.7371 2941.3734 0.0000 0.0000 2443.3277 -15258.6125 238.0059 -17701.9403 -15256.0085 240.1899 -499.0545 -439.3438 51086.9251 3.8483 3.9738
TCL: Running 50000 steps at 270 kelvin.
TCL: Setting parameter langevinTemp to 270
TCL: Running for 50000 steps
ETITLE: TS BOND ANGLE DIHED IMPRP ELECT VDW BOUNDARY MISC KINETIC TOTAL TEMP POTENTIAL TOTAL3 TEMPAVG PRESSURE GPRESSURE VOLUME PRESSAVG GPRESSAVG
ENERGY: 275000 1.2237 7.0937 19.1060 0.0000 -20670.7371 2941.3734 0.0000 0.0000 2442.1131 -15259.8272 237.8876 -17701.9403 -15255.4650 237.8876 -518.2910 -441.5201 51086.9251 -518.2910 -441.5201
ENERGY: 285000 0.7021 11.8438 22.2371 0.0000 -19715.9059 2763.8068 0.0000 0.0000 2803.9908 -14113.3254 273.1383 -16917.3162 -14107.4642 270.5369 -52.8725 46.4162 51955.6441 5.0664 5.0117
ENERGY: 295000 1.4184 4.0935 21.9545 0.0000 -19698.1755 2742.1346 0.0000 0.0000 2756.0147 -14172.5597 268.4649 -16928.5745 -14164.1412 269.5612 -135.3158 -82.2631 52054.2740 4.3169 3.6882
ENERGY: 305000 0.7868 9.1912 19.7281 0.0000 -19604.8741 2717.7441 0.0000 0.0000 2798.4738 -14058.9501 272.6009 -16857.4240 -14051.1192 271.9525 19.7837 92.7994 51681.9377 -0.4419 -0.1725
ENERGY: 315000 1.6051 9.6834 19.5833 0.0000 -19852.0916 2868.1625 0.0000 0.0000 2804.7744 -14148.2829 273.2146 -16953.0574 -14141.2670 268.8903 350.9012 397.6426 52018.9592 3.7521 4.0885
ENERGY: 325000 2.1274 4.4783 20.5022 0.0000 -19673.4829 2812.9358 0.0000 0.0000 2795.5461 -14037.8932 272.3157 -16833.4393 -14035.1709 271.3299 241.3648 316.5170 52275.2543 2.7169 2.5344
TCL: Running 1000000 steps at 300 kelvin.
TCL: Setting parameter langevinTemp to 300
TCL: Running for 1000000 steps
ETITLE: TS BOND ANGLE DIHED IMPRP ELECT VDW BOUNDARY MISC KINETIC TOTAL TEMP POTENTIAL TOTAL3 TEMPAVG PRESSURE GPRESSURE VOLUME PRESSAVG GPRESSAVG
ENERGY: 325000 2.1274 4.4783 20.5022 0.0000 -19673.4829 2812.9358 0.0000 0.0000 2794.1536 -14039.2857 272.1800 -16833.4393 -14035.1116 272.1800 230.7474 315.4008 52275.2543 230.7474 315.4008
ENERGY: 525000 1.6949 9.7184 19.4340 0.0000 -18686.4984 2591.9057 0.0000 0.0000 3071.3647 -12992.3806 299.1833 -16063.7453 -12988.7174 299.6264 504.5772 593.5332 52982.1286 0.7918 0.6677
ENERGY: 725000 3.9372 11.8138 23.0019 0.0000 -18731.2373 2559.6467 0.0000 0.0000 3068.3098 -13064.5279 298.8857 -16132.8377 -13059.7717 303.0391 250.0794 347.2299 52915.6797 1.1453 1.3464
ENERGY: 925000 4.4175 10.5431 22.7626 0.0000 -18844.0545 2566.5156 0.0000 0.0000 3113.2692 -13126.5464 303.2653 -16239.8157 -13120.3866 298.8317 145.4687 209.5640 53143.5223 4.0618 3.4111
ENERGY: 1125000 2.5922 5.3660 20.4802 0.0000 -18780.2837 2545.3912 0.0000 0.0000 3069.3461 -13137.1080 298.9867 -16206.4541 -13132.7857 299.0205 251.5966 293.0490 52744.6385 5.0255 4.7997
ENERGY: 1325000 3.4922 8.0013 21.1419 0.0000 -18512.5071 2406.3764 0.0000 0.0000 3097.8453 -12975.6500 301.7628 -16073.4953 -12969.6419 300.2970 -593.7779 -522.8028 54388.7324 0.1302 0.8968
TCL: Exiting due to exit command.
