Info: SIMULATION PARAMETERS:
Info: TIMESTEP               2
Info: NUMBER OF STEPS        0
Info: STEPS PER CYCLE        10
Info: PERIODIC CELL BASIS 1  31.0733 0 0
Info: PERIODIC CELL BASIS 2  0 30.4285 0
Info: PERIODIC CELL BASIS 3  0 0 32.4917
Info: PERIODIC CELL CENTER   0 0 0
Info: WRAPPING WATERS AROUND PERIODIC BOUNDARIES ON OUTPUT.
Info: WRAPPING ALL CLUSTERS AROUND PERIODIC BOUNDARIES ON OUTPUT.
Info: FIRST LDB TIMESTEP     50
Info: LAST LDB TIMESTEP     -1
Info: HOM BACKGROUND SCALING 1
Info: PME BACKGROUND SCALING 1
Info: MIN ATOMS PER PATCH    40
Info: EMPTY PATCH LOAD       40 ATOMS
Info: VELOCITY FILE          mobley_664966_equil.vel
Info: CENTER OF MASS MOVING INITIALLY? NO
Info: DIELECTRIC             1
Info: EXCLUDE                SCALED ONE-FOUR
Info: 1-4 ELECTROSTATICS SCALED BY 0.833333
Info: MODIFIED 1-4 VDW PARAMETERS WILL BE USED
Info: DCD FILENAME           mobley_664966_prod.dcd
Info: DCD FREQUENCY          100000
Info: DCD FIRST STEP         100000
Info: DCD FILE WILL CONTAIN UNIT CELL DATA
Info: XST FILENAME           mobley_664966_prod.xst
Info: XST FREQUENCY          100000
Info: NO VELOCITY DCD OUTPUT
Info: NO FORCE DCD OUTPUT
Info: OUTPUT FILENAME        mobley_664966_prod
Info: BINARY OUTPUT FILES WILL BE USED
Info: RESTART FILENAME       mobley_664966_prod.restart
Info: RESTART FREQUENCY      100000
Info: BINARY RESTART FILES WILL BE USED
Info: CUTOFF                 9
Info: PAIRLIST DISTANCE      11
Info: PAIRLIST SHRINK RATE   0.01
Info: PAIRLIST GROW RATE     0.01
Info: PAIRLIST TRIGGER       0.3
Info: PAIRLISTS PER CYCLE    2
Info: PAIRLISTS ENABLED
Info: MARGIN                 2
Info: HYDROGEN GROUP CUTOFF  2.5
Info: PATCH DIMENSION        15.5
Info: ENERGY OUTPUT STEPS    100000
Info: ENERGY EVALUATION STEPS    100000
Info: OUTPUT ENERGY PRECISION 4
Info: CROSSTERM ENERGY INCLUDED IN DIHEDRAL
Info: TIMING OUTPUT STEPS    1000000
Info: PRESSURE OUTPUT STEPS  100000
Info: ALCHEMICAL FEP ON
Info: FEP CURRENT LAMBDA VALUE     1
Info: FEP COMPARISON LAMBDA VALUE  0.95
Info: FEP INTRA-ALCHEMICAL NON-BONDED INTERACTIONS WILL BE RETAINED
Info: FEP INTRA-ALCHEMICAL BONDED INTERACTIONS WILL BE RETAINED
Info: FEP VDW SHIFTING COEFFICIENT 5
Info: FEP ELEC. ACTIVE FOR ANNIHILATED PARTICLES BETWEEN LAMBDA = 0 AND LAMBDA = 0.5
Info: FEP ELEC. ACTIVE FOR EXNIHILATED PARTICLES BETWEEN LAMBDA = 0.5 AND LAMBDA = 1
Info: FEP VDW ACTIVE FOR ANNIHILATED PARTICLES BETWEEN LAMBDA = 0 AND LAMBDA = 1
Info: FEP VDW ACTIVE FOR EXNIHILATED PARTICLES BETWEEN LAMBDA = 0 AND LAMBDA = 1
Info: FEP BOND ACTIVE FOR ANNIHILATED PARTICLES BETWEEN LAMBDA = 1 AND LAMBDA = 1
Info: FEP BOND ACTIVE FOR EXNIHILATED PARTICLES BETWEEN LAMBDA = 0 AND LAMBDA = 0
Info: LANGEVIN DYNAMICS ACTIVE
Info: LANGEVIN TEMPERATURE   300
Info: LANGEVIN USING BBK INTEGRATOR
Info: LANGEVIN DAMPING COEFFICIENT IS 1 INVERSE PS
Info: LANGEVIN DYNAMICS APPLIED TO HYDROGENS
Info: LANGEVIN PISTON PRESSURE CONTROL ACTIVE
Info:        TARGET PRESSURE IS 1.01325 BAR
Info:     OSCILLATION PERIOD IS 50 FS
Info:             DECAY TIME IS 25 FS
Info:     PISTON TEMPERATURE IS 300 K
Info:       PRESSURE CONTROL IS GROUP-BASED
Info:    INITIAL STRAIN RATE IS -0.000405785 -0.000405785 -0.000405785
Info:       CELL FLUCTUATION IS ISOTROPIC
Info: PARTICLE MESH EWALD (PME) ACTIVE
Info: PME TOLERANCE               1e-06
Info: PME EWALD COEFFICIENT       0.348832
Info: PME INTERPOLATION ORDER     4
Info: PME GRID DIMENSIONS         32 32 36
Info: PME MAXIMUM GRID SPACING    1
Info: PME CALCULATION WILL BE PERFORMED ON GPU
Info: FULL ELECTROSTATIC EVALUATION FREQUENCY      2
Info: USING VERLET I (r-RESPA) MTS SCHEME.
Info: C1 SPLITTING OF LONG RANGE ELECTROSTATICS
Info: PLACING ATOMS IN PATCHES BY HYDROGEN GROUPS
Info: RIGID BONDS TO HYDROGEN : ALL
Info:         ERROR TOLERANCE : 1e-08
Info:          MAX ITERATIONS : 100
Info: RIGID WATER USING SETTLE ALGORITHM
Info: RANDOM NUMBER SEED     1741944111
Info: USE HYDROGEN BONDS?    NO
Info: Using AMBER format force field!
Info: AMBER PARM FILE        mobley_664966.prmtop
Info: COORDINATE PDB         mobley_664966.pdb
Info: Exclusions will be read from PARM file!
Info: SCNB (VDW SCALING)     2
Info: USING ARITHMETIC MEAN TO COMBINE L-J SIGMA PARAMETERS
Info: BINARY COORDINATES     mobley_664966_equil.coor
Info: SUMMARY OF PARAMETERS:
Info: 4 BONDS
Info: 3 ANGLES
Info:   3 HARMONIC
Info:   0 COSINE-BASED
Info: 0 DIHEDRAL
Info: 0 IMPROPER
Info: 0 CROSSTERM
Info: 0 VDW
Info: 15 VDW_PAIRS
Info: 0 NBTHOLE_PAIRS
Info: To read alchdata from file: mobley_664966.pdb
Info: To read alchflag data from column: 5
Info: STRUCTURE SUMMARY:
Info: 2960 ATOMS
Info: 2959 BONDS
Info: 6 ANGLES
Info: 0 DIHEDRALS
Info: 0 IMPROPERS
Info: 0 CROSSTERMS
Info: 2965 EXCLUSIONS
Info: 2957 RIGID BONDS
Info: ALCH: 0 ATOMS TO DISAPPEAR IN FINAL STATE
Info: ALCH: 5 ATOMS TO APPEAR IN FINAL STATE
Info: 5923 DEGREES OF FREEDOM
Info: 988 HYDROGEN GROUPS
Info: 3 ATOMS IN LARGEST HYDROGEN GROUP
Info: 988 MIGRATION GROUPS
Info: 3 ATOMS IN LARGEST MIGRATION GROUP
Info: TOTAL MASS = 18013.6 amu
Info: TOTAL CHARGE = -0.000200003 e
Info: MASS DENSITY = 0.973682 g/cm^3
Info: ATOM DENSITY = 0.0963495 atoms/A^3
Info: ADDED 0 IMPLICIT EXCLUSIONS
Info: NONBONDED TABLE R-SQUARED SPACING: 0.0625
Info: NONBONDED TABLE SIZE: 705 POINTS
Info: REMOVING COM VELOCITY -0.0281766 -0.0387297 -0.105934
Info: Use 3D box decompostion in PME FFT.
Info: Updated CUDA force table with 4096 elements.
Info: Updated CUDA LJ table with 5 x 5 elements.
Info: Found 8 unique exclusion lists needing 8 bytes
TCL: Running for 1500000 steps
ETITLE: TS BOND ANGLE DIHED IMPRP ELECT VDW BOUNDARY MISC KINETIC TOTAL TEMP POTENTIAL TOTALAVG TEMPAVG PRESSURE GPRESSURE VOLUME PRESSAVG GPRESSAVG
ENERGY: 0 0.4400 1.0687 0.0000 0.0000 -10730.4024 1438.6129 0.0000 0.0000 1752.7548 -7537.5261 297.8309 -9290.2809 -7537.5261 297.8309 -45.5044 30.1649 30721.4804 -45.5044 30.1649
ENERGY: 300000 0.4619 2.8549 0.0000 0.0000 -10841.9360 1482.3151 0.0000 0.0000 1740.8858 -7615.4183 295.8141 -9356.3041 -7533.9242 299.5211 207.9259 279.8157 30340.4185 47.8185 104.9600
ENERGY: 600000 1.4678 2.8929 0.0000 0.0000 -10746.7007 1445.9609 0.0000 0.0000 1750.1275 -7546.2516 297.3845 -9296.3792 -7544.1726 298.5762 79.2708 96.6918 30590.0250 -4.2235 56.8448
ENERGY: 900000 0.1163 0.2948 0.0000 0.0000 -10754.9839 1450.7559 0.0000 0.0000 1804.8039 -7499.0131 306.6752 -9303.8170 -7527.0244 300.3113 -10.3021 47.5427 31042.4729 -9.0207 54.3787
ENERGY: 1200000 2.6937 0.2636 0.0000 0.0000 -10816.8600 1440.1418 0.0000 0.0000 1768.8558 -7604.9052 300.5669 -9373.7610 -7524.3596 301.3314 -280.1741 -174.0701 30441.2462 -1.8624 65.8160
ENERGY: 1500000 0.0561 0.6601 0.0000 0.0000 -10713.2795 1396.0811 0.0000 0.0000 1763.7532 -7552.7290 299.6998 -9316.4822 -7516.5454 301.3023 -353.6967 -328.2806 30616.1481 -42.3404 18.6904
TCL: Running FEP window   2: Lambda1 0.95   Lambda2 0.8999999999999999 [dLambda -0.050000000000000044]
TCL: Setting parameter firsttimestep to 0
TCL: Setting parameter alchLambda to 0.95
Info: NONBONDED TABLE R-SQUARED SPACING: 0.0625
Info: NONBONDED TABLE SIZE: 705 POINTS
TCL: Setting parameter alchLambda2 to 0.8999999999999999
Info: NONBONDED TABLE R-SQUARED SPACING: 0.0625
Info: NONBONDED TABLE SIZE: 705 POINTS
TCL: Running for 1500000 steps
ETITLE: TS BOND ANGLE DIHED IMPRP ELECT VDW BOUNDARY MISC KINETIC TOTAL TEMP POTENTIAL TOTALAVG TEMPAVG PRESSURE GPRESSURE VOLUME PRESSAVG GPRESSAVG
ENERGY: 0 0.0561 0.6601 0.0000 0.0000 -10712.5798 1395.8919 0.0000 0.0000 1762.8912 -7553.0805 299.5533 -9315.9717 -7553.0805 299.5533 -417.5384 -339.4898 30616.1481 -417.5384 -339.4898
ENERGY: 300000 0.0971 1.5977 0.0000 0.0000 -10565.2710 1321.7954 0.0000 0.0000 1761.9735 -7479.8072 299.3974 -9241.7807 -7558.3431 295.0413 -794.4748 -711.7447 30710.3094 -343.9100 -270.5531
ENERGY: 600000 0.0465 1.2451 0.0000 0.0000 -10643.5635 1351.9210 0.0000 0.0000 1760.8754 -7529.4756 299.2108 -9290.3509 -7569.3907 296.5561 -326.1436 -305.8198 29908.3505 -279.5223 -226.9980
ENERGY: 900000 0.4989 0.7722 0.0000 0.0000 -10860.9207 1558.9066 0.0000 0.0000 1716.3085 -7584.4345 291.6379 -9300.7430 -7562.8576 296.9739 1134.8732 1162.8164 30155.9288 -134.2598 -82.9358
ENERGY: 1200000 0.8777 1.6064 0.0000 0.0000 -10777.6733 1488.4760 0.0000 0.0000 1744.1458 -7542.5674 296.3681 -9286.7132 -7564.8925 296.3922 386.8212 499.1760 30238.9592 -33.7501 16.2008
ENERGY: 1500000 0.1175 1.1243 0.0000 0.0000 -10821.7102 1469.2533 0.0000 0.0000 1835.1218 -7516.0932 311.8269 -9351.2150 -7562.6163 297.9289 252.6503 315.8843 30319.3297 -18.4744 36.6710
TCL: Running FEP window   3: Lambda1 0.8999999999999999 Lambda2 0.8499999999999999 [dLambda -0.050000000000000044]
TCL: Setting parameter firsttimestep to 0
TCL: Setting parameter alchLambda to 0.8999999999999999
Info: NONBONDED TABLE R-SQUARED SPACING: 0.0625
Info: NONBONDED TABLE SIZE: 705 POINTS
TCL: Setting parameter alchLambda2 to 0.8499999999999999
Info: NONBONDED TABLE R-SQUARED SPACING: 0.0625
Info: NONBONDED TABLE SIZE: 705 POINTS
TCL: Running for 1500000 steps
ETITLE: TS BOND ANGLE DIHED IMPRP ELECT VDW BOUNDARY MISC KINETIC TOTAL TEMP POTENTIAL TOTALAVG TEMPAVG PRESSURE GPRESSURE VOLUME PRESSAVG GPRESSAVG
ENERGY: 0 0.1175 1.1243 0.0000 0.0000 -10821.2493 1469.1035 0.0000 0.0000 1834.2343 -7516.6697 311.6761 -9350.9039 -7516.6697 311.6761 217.1259 302.9948 30319.3297 217.1259 302.9948
ENERGY: 300000 1.0278 1.8650 0.0000 0.0000 -10726.0550 1449.1101 0.0000 0.0000 1845.2190 -7428.8331 313.5426 -9274.0521 -7519.7508 307.6238 81.6564 107.2396 30787.0920 41.3085 97.4286
ENERGY: 600000 0.4007 0.9010 0.0000 0.0000 -10763.3378 1404.7063 0.0000 0.0000 1760.4790 -7596.8508 299.1435 -9357.3298 -7546.9461 303.6878 -502.6501 -371.5035 30551.9956 -93.6641 -22.4294
ENERGY: 900000 1.1819 0.7510 0.0000 0.0000 -10858.0637 1531.7236 0.0000 0.0000 1815.4043 -7509.0029 308.4764 -9324.4071 -7539.2302 304.0415 787.0930 862.3999 30375.2050 -46.9148 23.7345
ENERGY: 1200000 0.5777 3.0256 0.0000 0.0000 -10731.8638 1442.4022 0.0000 0.0000 1803.2501 -7482.6083 306.4112 -9285.8583 -7523.9053 304.7405 35.9909 191.3301 30411.0970 -53.9602 18.9812
ENERGY: 1500000 1.1849 1.3892 0.0000 0.0000 -10928.0429 1495.9291 0.0000 0.0000 1776.7150 -7652.8246 301.9023 -9429.5396 -7537.2345 303.9801 164.3419 256.6811 30228.7753 -71.1007 -2.3120
TCL: Running FEP window   4: Lambda1 0.8499999999999999 Lambda2 0.7999999999999998 [dLambda -0.050000000000000044]
TCL: Setting parameter firsttimestep to 0
TCL: Setting parameter alchLambda to 0.8499999999999999
Info: NONBONDED TABLE R-SQUARED SPACING: 0.0625
Info: NONBONDED TABLE SIZE: 705 POINTS
TCL: Setting parameter alchLambda2 to 0.7999999999999998
Info: NONBONDED TABLE R-SQUARED SPACING: 0.0625
Info: NONBONDED TABLE SIZE: 705 POINTS
TCL: Running for 1500000 steps
ETITLE: TS BOND ANGLE DIHED IMPRP ELECT VDW BOUNDARY MISC KINETIC TOTAL TEMP POTENTIAL TOTALAVG TEMPAVG PRESSURE GPRESSURE VOLUME PRESSAVG GPRESSAVG
ENERGY: 0 1.1849 1.3892 0.0000 0.0000 -10927.6619 1496.3524 0.0000 0.0000 1775.8847 -7652.8507 301.7612 -9428.7354 -7652.8507 301.7612 164.5089 253.3084 30228.7753 164.5089 253.3084
ENERGY: 300000 2.1327 1.0150 0.0000 0.0000 -10628.0574 1348.4309 0.0000 0.0000 1778.2011 -7498.2777 302.1548 -9276.4788 -7586.9541 296.3337 -842.5499 -714.9234 30887.0823 -107.4690 -9.1263
ENERGY: 600000 1.1327 2.7219 0.0000 0.0000 -10907.5880 1564.8359 0.0000 0.0000 1754.8101 -7584.0875 298.1802 -9338.8976 -7594.7245 295.4801 1000.2567 1019.1451 30212.5726 -32.8744 52.9312
ENERGY: 900000 0.4022 2.5552 0.0000 0.0000 -10691.8197 1430.4079 0.0000 0.0000 1774.6575 -7483.7969 301.5527 -9258.4544 -7579.9367 296.3151 31.8513 113.7386 30721.8185 -45.2958 39.4298
ENERGY: 1200000 0.0489 2.9852 0.0000 0.0000 -10776.2488 1384.0647 0.0000 0.0000 1761.1196 -7628.0305 299.2523 -9389.1501 -7579.6805 297.7566 -506.4503 -455.1816 30102.5541 -26.3097 50.9998
ENERGY: 1500000 0.0914 0.7939 0.0000 0.0000 -10647.9380 1323.1242 0.0000 0.0000 1720.4343 -7603.4941 292.3390 -9323.9285 -7574.8526 297.6897 -998.1140 -912.1755 30492.6109 -55.4224 20.5794
TCL: Running FEP window   5: Lambda1 0.7999999999999998 Lambda2 0.7499999999999998 [dLambda -0.050000000000000044]
TCL: Setting parameter firsttimestep to 0
TCL: Setting parameter alchLambda to 0.7999999999999998
Info: NONBONDED TABLE R-SQUARED SPACING: 0.0625
Info: NONBONDED TABLE SIZE: 705 POINTS
TCL: Setting parameter alchLambda2 to 0.7499999999999998
Info: NONBONDED TABLE R-SQUARED SPACING: 0.0625
Info: NONBONDED TABLE SIZE: 705 POINTS
TCL: Running for 1500000 steps
ETITLE: TS BOND ANGLE DIHED IMPRP ELECT VDW BOUNDARY MISC KINETIC TOTAL TEMP POTENTIAL TOTALAVG TEMPAVG PRESSURE GPRESSURE VOLUME PRESSAVG GPRESSAVG
ENERGY: 0 0.0914 0.7939 0.0000 0.0000 -10647.2442 1323.0391 0.0000 0.0000 1719.5495 -7603.7703 292.1886 -9323.3198 -7603.7703 292.1886 -996.7710 -919.9767 30492.6109 -996.7710 -919.9767
ENERGY: 300000 1.1426 1.2338 0.0000 0.0000 -10815.9843 1498.8796 0.0000 0.0000 1778.0554 -7536.6729 302.1301 -9314.7283 -7587.5276 298.3455 622.1437 658.0200 30230.2299 -86.0089 -42.0788
ENERGY: 600000 2.8490 0.7518 0.0000 0.0000 -10687.1332 1370.6379 0.0000 0.0000 1781.5247 -7531.3698 302.7196 -9312.8945 -7563.0606 299.1319 -560.6506 -518.3910 30681.3534 -216.9649 -163.2703
ENERGY: 900000 0.4942 2.8014 0.0000 0.0000 -10818.7387 1451.7503 0.0000 0.0000 1788.7724 -7574.9204 303.9511 -9363.6928 -7552.1803 300.5154 -79.6541 33.4665 30592.3712 -156.0723 -113.0552
ENERGY: 1200000 0.7361 1.2597 0.0000 0.0000 -10701.7529 1449.1478 0.0000 0.0000 1783.2009 -7467.4084 303.0044 -9250.6093 -7544.4436 300.3014 293.9251 342.5022 30672.2806 -90.9680 -33.4176
ENERGY: 1500000 0.4342 1.1809 0.0000 0.0000 -10735.7921 1394.7172 0.0000 0.0000 1846.6398 -7492.8200 313.7840 -9339.4598 -7545.1084 301.2117 -195.1692 -136.1937 30051.9459 -1.3443 57.4244
TCL: Running FEP window   6: Lambda1 0.7499999999999998 Lambda2 0.6999999999999997 [dLambda -0.050000000000000044]
TCL: Setting parameter firsttimestep to 0
TCL: Setting parameter alchLambda to 0.7499999999999998
Info: NONBONDED TABLE R-SQUARED SPACING: 0.0625
Info: NONBONDED TABLE SIZE: 705 POINTS
TCL: Setting parameter alchLambda2 to 0.6999999999999997
Info: NONBONDED TABLE R-SQUARED SPACING: 0.0625
Info: NONBONDED TABLE SIZE: 705 POINTS
TCL: Running for 1500000 steps
ETITLE: TS BOND ANGLE DIHED IMPRP ELECT VDW BOUNDARY MISC KINETIC TOTAL TEMP POTENTIAL TOTALAVG TEMPAVG PRESSURE GPRESSURE VOLUME PRESSAVG GPRESSAVG
ENERGY: 0 0.4342 1.1809 0.0000 0.0000 -10735.4342 1394.6719 0.0000 0.0000 1845.7578 -7493.3894 313.6342 -9339.1472 -7493.3894 313.6342 -231.8706 -145.2794 30051.9459 -231.8706 -145.2794
ENERGY: 300000 0.5252 1.3486 0.0000 0.0000 -10705.2988 1363.4461 0.0000 0.0000 1720.0882 -7619.8907 292.2802 -9339.9789 -7533.3841 302.7398 -794.6330 -774.2831 30713.6556 -424.0256 -361.4723
ENERGY: 600000 0.2296 0.9223 0.0000 0.0000 -10767.0961 1403.2830 0.0000 0.0000 1831.6799 -7530.9812 311.2420 -9362.6611 -7536.7153 303.0185 -515.6078 -519.7557 30602.8342 -284.5037 -241.6912
ENERGY: 900000 0.9751 2.5167 0.0000 0.0000 -10682.0162 1388.6721 0.0000 0.0000 1793.3529 -7496.4993 304.7294 -9289.8522 -7537.1995 303.6847 -656.1619 -573.5513 30866.2037 -219.5722 -165.1776
ENERGY: 1200000 0.2779 1.2040 0.0000 0.0000 -10724.7430 1446.8672 0.0000 0.0000 1793.8772 -7482.5168 304.8185 -9276.3940 -7535.5237 302.9350 24.9944 111.9149 30527.0087 -219.9564 -157.3217
ENERGY: 1500000 0.3509 2.2497 0.0000 0.0000 -10748.1065 1463.8494 0.0000 0.0000 1800.1159 -7481.5406 305.8786 -9281.6565 -7535.4630 302.6476 25.4356 10.6148 31004.4619 -161.7807 -99.9614
TCL: Running FEP window   7: Lambda1 0.6999999999999997 Lambda2 0.6499999999999997 [dLambda -0.050000000000000044]
TCL: Setting parameter firsttimestep to 0
TCL: Setting parameter alchLambda to 0.6999999999999997
Info: NONBONDED TABLE R-SQUARED SPACING: 0.0625
Info: NONBONDED TABLE SIZE: 705 POINTS
TCL: Setting parameter alchLambda2 to 0.6499999999999997
Info: NONBONDED TABLE R-SQUARED SPACING: 0.0625
Info: NONBONDED TABLE SIZE: 705 POINTS
TCL: Running for 1500000 steps
ETITLE: TS BOND ANGLE DIHED IMPRP ELECT VDW BOUNDARY MISC KINETIC TOTAL TEMP POTENTIAL TOTALAVG TEMPAVG PRESSURE GPRESSURE VOLUME PRESSAVG GPRESSAVG
ENERGY: 0 0.3509 2.2497 0.0000 0.0000 -10747.7420 1463.6718 0.0000 0.0000 1799.2440 -7482.2255 305.7305 -9281.4696 -7482.2255 305.7305 -86.3347 3.9901 31004.4619 -86.3347 3.9901
ENERGY: 300000 0.2646 0.6595 0.0000 0.0000 -10713.4730 1460.3233 0.0000 0.0000 1760.1362 -7492.0894 299.0852 -9252.2257 -7508.2190 301.6491 399.0538 438.0892 30332.8558 115.9521 183.5249
ENERGY: 600000 1.7599 0.1057 0.0000 0.0000 -10584.1172 1288.7737 0.0000 0.0000 1705.5638 -7587.9141 289.8122 -9293.4778 -7540.8097 299.1769 -1325.4573 -1276.9638 30983.1495 -148.2604 -82.6908
ENERGY: 900000 0.3349 2.6952 0.0000 0.0000 -10754.5112 1417.4994 0.0000 0.0000 1778.6003 -7555.3815 302.2226 -9333.9817 -7539.0915 300.8414 -391.1236 -281.3971 30657.4675 -129.5869 -54.2655
ENERGY: 1200000 0.3379 1.7291 0.0000 0.0000 -10757.8105 1437.4717 0.0000 0.0000 1761.4982 -7556.7737 299.3166 -9318.2719 -7545.3083 300.5581 52.5113 155.7668 30269.2709 -239.5735 -163.1181
ENERGY: 1500000 0.0989 0.9641 0.0000 0.0000 -10827.9849 1520.6332 0.0000 0.0000 1738.2333 -7568.0553 295.3634 -9306.2886 -7547.2945 300.6986 536.5929 655.3205 30520.0061 -153.4621 -73.7720
TCL: Running FEP window   8: Lambda1 0.6499999999999997 Lambda2 0.5999999999999996 [dLambda -0.050000000000000044]
TCL: Setting parameter firsttimestep to 0
TCL: Setting parameter alchLambda to 0.6499999999999997
Info: NONBONDED TABLE R-SQUARED SPACING: 0.0625
Info: NONBONDED TABLE SIZE: 705 POINTS
TCL: Setting parameter alchLambda2 to 0.5999999999999996
Info: NONBONDED TABLE R-SQUARED SPACING: 0.0625
Info: NONBONDED TABLE SIZE: 705 POINTS
TCL: Running for 1500000 steps
ETITLE: TS BOND ANGLE DIHED IMPRP ELECT VDW BOUNDARY MISC KINETIC TOTAL TEMP POTENTIAL TOTALAVG TEMPAVG PRESSURE GPRESSURE VOLUME PRESSAVG GPRESSAVG
ENERGY: 0 0.0989 0.9641 0.0000 0.0000 -10827.4498 1520.7385 0.0000 0.0000 1737.3305 -7568.3178 295.2100 -9305.6483 -7568.3178 295.2100 552.7583 648.4425 30520.0061 552.7583 648.4425
ENERGY: 300000 0.0573 2.9099 0.0000 0.0000 -10769.3399 1372.1714 0.0000 0.0000 1733.4542 -7660.7471 294.5514 -9394.2013 -7555.4929 295.3908 -907.1057 -811.3381 30524.1054 133.2524 201.4273
ENERGY: 600000 0.2156 0.5041 0.0000 0.0000 -10756.7310 1468.3635 0.0000 0.0000 1784.5763 -7503.0715 303.2381 -9287.6478 -7561.5881 298.0315 119.0897 117.5845 30814.4954 64.8955 121.9796
ENERGY: 900000 0.3252 0.5390 0.0000 0.0000 -10737.1585 1411.5246 0.0000 0.0000 1809.4169 -7515.3529 307.4591 -9324.7698 -7551.8964 299.8906 -104.8382 -77.2911 30395.9924 96.9323 153.1944
ENERGY: 1200000 0.6996 0.9603 0.0000 0.0000 -10833.3236 1514.4474 0.0000 0.0000 1832.0064 -7485.2100 311.2975 -9317.2163 -7547.1836 300.8310 717.5693 706.1070 30435.4727 144.1089 199.9318
ENERGY: 1500000 0.8305 1.3127 0.0000 0.0000 -10722.9327 1447.3206 0.0000 0.0000 1812.4051 -7461.0638 307.9668 -9273.4688 -7538.9725 301.3749 -7.7344 -30.5131 30699.5251 102.0601 145.9381
TCL: Running FEP window   9: Lambda1 0.5999999999999996 Lambda2 0.5499999999999996 [dLambda -0.050000000000000044]
TCL: Setting parameter firsttimestep to 0
TCL: Setting parameter alchLambda to 0.5999999999999996
Info: NONBONDED TABLE R-SQUARED SPACING: 0.0625
Info: NONBONDED TABLE SIZE: 705 POINTS
TCL: Setting parameter alchLambda2 to 0.5499999999999996
Info: NONBONDED TABLE R-SQUARED SPACING: 0.0625
Info: NONBONDED TABLE SIZE: 705 POINTS
TCL: Running for 1500000 steps
ETITLE: TS BOND ANGLE DIHED IMPRP ELECT VDW BOUNDARY MISC KINETIC TOTAL TEMP POTENTIAL TOTALAVG TEMPAVG PRESSURE GPRESSURE VOLUME PRESSAVG GPRESSAVG
ENERGY: 0 0.8305 1.3127 0.0000 0.0000 -10722.4542 1447.6858 0.0000 0.0000 1811.5249 -7461.1003 307.8173 -9272.6251 -7461.1003 307.8173 -112.3540 -33.3804 30699.5251 -112.3540 -33.3804
ENERGY: 300000 0.5812 2.2624 0.0000 0.0000 -10594.5424 1298.6406 0.0000 0.0000 1798.6093 -7494.4490 305.6226 -9293.0583 -7519.3632 301.0958 -1175.4721 -1173.0825 30636.9242 -566.7266 -483.6026
ENERGY: 600000 0.4018 0.8070 0.0000 0.0000 -10838.2024 1461.6515 0.0000 0.0000 1764.3372 -7611.0049 299.7990 -9375.3420 -7552.2533 300.8227 128.8824 156.4544 30161.3341 -309.7682 -244.8247
ENERGY: 900000 1.5597 0.5921 0.0000 0.0000 -10741.8992 1449.2365 0.0000 0.0000 1745.8259 -7544.6850 296.6536 -9290.5109 -7558.5486 299.7441 -109.8736 -89.8907 30652.9528 -193.3233 -136.2652
ENERGY: 1200000 0.2846 3.1235 0.0000 0.0000 -10733.8571 1453.0866 0.0000 0.0000 1722.4365 -7554.9258 292.6792 -9277.3624 -7561.5579 298.8067 147.3901 169.9575 30696.1275 -128.2395 -68.9733
ENERGY: 1500000 0.4937 0.9545 0.0000 0.0000 -10708.4067 1416.3876 0.0000 0.0000 1802.8352 -7487.7357 306.3407 -9290.5709 -7553.9261 299.0149 -42.8990 -29.5138 30281.5919 -103.9993 -45.2053
TCL: Running FEP window  10: Lambda1 0.5499999999999996 Lambda2 0.4999999999999996 [dLambda -0.04999999999999999]
TCL: Setting parameter firsttimestep to 0
TCL: Setting parameter alchLambda to 0.5499999999999996
Info: NONBONDED TABLE R-SQUARED SPACING: 0.0625
Info: NONBONDED TABLE SIZE: 705 POINTS
TCL: Setting parameter alchLambda2 to 0.4999999999999996
Info: NONBONDED TABLE R-SQUARED SPACING: 0.0625
Info: NONBONDED TABLE SIZE: 705 POINTS
TCL: Running for 1500000 steps
ETITLE: TS BOND ANGLE DIHED IMPRP ELECT VDW BOUNDARY MISC KINETIC TOTAL TEMP POTENTIAL TOTALAVG TEMPAVG PRESSURE GPRESSURE VOLUME PRESSAVG GPRESSAVG
ENERGY: 0 0.4937 0.9545 0.0000 0.0000 -10708.5493 1416.4810 0.0000 0.0000 1801.9623 -7488.6578 306.1924 -9290.6201 -7488.6578 306.1924 -115.7044 -33.9897 30281.5919 -115.7044 -33.9897
ENERGY: 300000 0.1575 1.2108 0.0000 0.0000 -10746.1883 1481.1522 0.0000 0.0000 1776.5472 -7487.1205 301.8738 -9263.6677 -7535.3142 303.2822 446.1264 532.8424 30298.3601 208.0461 289.7350
ENERGY: 600000 0.2807 2.8850 0.0000 0.0000 -10639.4806 1420.7260 0.0000 0.0000 1745.8181 -7469.7708 296.6522 -9215.5889 -7509.2860 301.6521 -245.5732 -172.2995 30946.1343 166.9077 245.6327
ENERGY: 900000 0.4070 1.1859 0.0000 0.0000 -10808.3063 1503.2294 0.0000 0.0000 1810.0581 -7493.4259 307.5680 -9303.4840 -7500.2027 302.3695 566.4589 570.1806 30342.2198 208.4553 285.5262
ENERGY: 1200000 1.0813 4.1978 0.0000 0.0000 -10634.0037 1359.8864 0.0000 0.0000 1793.5715 -7475.2668 304.7666 -9268.8382 -7495.7847 302.7819 -726.6385 -710.7873 30766.2697 76.7666 142.8687
ENERGY: 1500000 0.7183 3.3152 0.0000 0.0000 -10649.7363 1381.4616 0.0000 0.0000 1735.9087 -7528.3325 294.9684 -9264.2412 -7512.3364 301.2030 -593.4574 -552.4974 30852.5660 8.6859 72.0778
TCL: Running FEP window  11: Lambda1 0.4999999999999996 Lambda2 0.4499999999999996 [dLambda -0.04999999999999999]
TCL: Setting parameter firsttimestep to 0
TCL: Setting parameter alchLambda to 0.4999999999999996
Info: NONBONDED TABLE R-SQUARED SPACING: 0.0625
Info: NONBONDED TABLE SIZE: 705 POINTS
TCL: Setting parameter alchLambda2 to 0.4499999999999996
Info: NONBONDED TABLE R-SQUARED SPACING: 0.0625
Info: NONBONDED TABLE SIZE: 705 POINTS
TCL: Running for 1500000 steps
ETITLE: TS BOND ANGLE DIHED IMPRP ELECT VDW BOUNDARY MISC KINETIC TOTAL TEMP POTENTIAL TOTALAVG TEMPAVG PRESSURE GPRESSURE VOLUME PRESSAVG GPRESSAVG
ENERGY: 0 0.7183 3.3152 0.0000 0.0000 -10649.3852 1381.8981 0.0000 0.0000 1735.0315 -7528.4222 294.8194 -9263.4537 -7528.4222 294.8194 -623.1714 -552.1736 30852.5660 -623.1714 -552.1736
ENERGY: 300000 0.5079 2.6196 0.0000 0.0000 -10888.0102 1518.4124 0.0000 0.0000 1767.7429 -7598.7273 300.3778 -9366.4703 -7554.2575 297.2494 779.9905 855.7081 29762.9192 -187.7103 -120.7964
ENERGY: 600000 0.6022 2.8982 0.0000 0.0000 -10725.6593 1409.4447 0.0000 0.0000 1766.5342 -7546.1800 300.1724 -9312.7142 -7526.7246 300.4393 -256.2662 -247.3443 30712.4835 -171.4413 -110.4603
ENERGY: 900000 1.2430 0.6375 0.0000 0.0000 -10764.1900 1451.6913 0.0000 0.0000 1791.7368 -7518.8816 304.4548 -9310.6183 -7544.8601 300.2988 168.6653 238.6011 30291.6172 -84.6476 -27.7950
ENERGY: 1200000 0.0809 0.6975 0.0000 0.0000 -10756.5195 1477.1010 0.0000 0.0000 1804.8191 -7473.8211 306.6778 -9278.6402 -7549.1869 300.6486 435.2316 491.8667 30387.6547 -62.9096 -8.9461
ENERGY: 1500000 0.3413 1.9753 0.0000 0.0000 -10746.5735 1497.5983 0.0000 0.0000 1737.2695 -7509.3892 295.1996 -9246.6586 -7549.0989 299.5463 358.4007 409.8601 30727.4135 4.4801 63.9906
TCL: Running FEP window  12: Lambda1 0.4499999999999996 Lambda2 0.39999999999999963 [dLambda -0.04999999999999999]
TCL: Setting parameter firsttimestep to 0
TCL: Setting parameter alchLambda to 0.4499999999999996
Info: NONBONDED TABLE R-SQUARED SPACING: 0.0625
Info: NONBONDED TABLE SIZE: 705 POINTS
TCL: Setting parameter alchLambda2 to 0.39999999999999963
Info: NONBONDED TABLE R-SQUARED SPACING: 0.0625
Info: NONBONDED TABLE SIZE: 705 POINTS
TCL: Running for 1500000 steps
ETITLE: TS BOND ANGLE DIHED IMPRP ELECT VDW BOUNDARY MISC KINETIC TOTAL TEMP POTENTIAL TOTALAVG TEMPAVG PRESSURE GPRESSURE VOLUME PRESSAVG GPRESSAVG
ENERGY: 0 0.3413 1.9753 0.0000 0.0000 -10746.5754 1497.9679 0.0000 0.0000 1736.3417 -7509.9491 295.0420 -9246.2909 -7509.9491 295.0420 342.1209 408.1030 30727.4135 342.1209 408.1030
ENERGY: 300000 0.6911 1.8039 0.0000 0.0000 -10663.9038 1421.9649 0.0000 0.0000 1764.5920 -7474.8519 299.8423 -9239.4439 -7503.7737 300.5993 -93.1424 31.0926 30641.1236 36.4398 107.8777
ENERGY: 600000 0.2686 0.7096 0.0000 0.0000 -10660.8195 1365.0248 0.0000 0.0000 1836.8433 -7457.9732 312.1194 -9294.8165 -7510.1800 302.5972 -688.1592 -628.0307 30785.7340 27.3880 85.3222
ENERGY: 900000 0.9971 1.6051 0.0000 0.0000 -10821.9326 1439.0729 0.0000 0.0000 1796.0451 -7584.2124 305.1869 -9380.2575 -7524.5831 301.9826 -44.6794 52.6476 29997.0501 -12.5147 44.5183
ENERGY: 1200000 0.2271 1.2264 0.0000 0.0000 -10689.5997 1409.0297 0.0000 0.0000 1711.0781 -7568.0384 290.7492 -9279.1165 -7523.2779 301.0346 -165.6377 -155.1991 30353.2885 -102.8557 -53.6626
ENERGY: 1500000 0.0461 0.9163 0.0000 0.0000 -10684.0392 1346.8543 0.0000 0.0000 1782.3459 -7553.8767 302.8591 -9336.2226 -7530.9696 300.5033 -1059.1778 -973.8762 30918.6971 -162.7948 -113.4948
TCL: Running FEP window  13: Lambda1 0.39999999999999963 Lambda2 0.34999999999999964 [dLambda -0.04999999999999999]
TCL: Setting parameter firsttimestep to 0
TCL: Setting parameter alchLambda to 0.39999999999999963
Info: NONBONDED TABLE R-SQUARED SPACING: 0.0625
Info: NONBONDED TABLE SIZE: 705 POINTS
TCL: Setting parameter alchLambda2 to 0.34999999999999964
Info: NONBONDED TABLE R-SQUARED SPACING: 0.0625
Info: NONBONDED TABLE SIZE: 705 POINTS
TCL: Running for 1500000 steps
ETITLE: TS BOND ANGLE DIHED IMPRP ELECT VDW BOUNDARY MISC KINETIC TOTAL TEMP POTENTIAL TOTALAVG TEMPAVG PRESSURE GPRESSURE VOLUME PRESSAVG GPRESSAVG
ENERGY: 0 0.0461 0.9163 0.0000 0.0000 -10684.0380 1347.1396 0.0000 0.0000 1781.4606 -7554.4755 302.7087 -9335.9361 -7554.4755 302.7087 -1050.2294 -976.9631 30918.6971 -1050.2294 -976.9631
ENERGY: 300000 1.1504 1.5827 0.0000 0.0000 -10654.9483 1372.7536 0.0000 0.0000 1717.9573 -7561.5042 291.9181 -9279.4615 -7532.3748 298.5290 -818.2361 -768.4674 30830.2021 -504.4792 -437.1095
ENERGY: 600000 0.6744 0.6797 0.0000 0.0000 -10859.7812 1487.4054 0.0000 0.0000 1752.6511 -7618.3705 297.8133 -9371.0216 -7566.4742 297.3587 148.7536 179.2389 30320.7806 -340.9628 -264.9462
ENERGY: 900000 1.5018 2.0450 0.0000 0.0000 -10627.8850 1379.2413 0.0000 0.0000 1783.4209 -7461.6761 303.0418 -9245.0970 -7552.0008 299.0947 -628.6367 -592.0612 30944.0351 -246.8832 -178.4651
ENERGY: 1200000 0.5398 0.8382 0.0000 0.0000 -10623.6378 1403.6407 0.0000 0.0000 1787.1874 -7431.4317 303.6818 -9218.6191 -7539.4882 299.5597 -439.3572 -374.5841 30977.1884 -188.3695 -118.0406
ENERGY: 1500000 0.0634 1.6778 0.0000 0.0000 -10782.9133 1459.2361 0.0000 0.0000 1820.6110 -7501.3250 309.3612 -9321.9360 -7536.6074 300.3668 114.6134 202.6569 30311.0854 -202.4306 -132.0025
TCL: Running FEP window  14: Lambda1 0.34999999999999964 Lambda2 0.29999999999999966 [dLambda -0.04999999999999999]
TCL: Setting parameter firsttimestep to 0
TCL: Setting parameter alchLambda to 0.34999999999999964
Info: NONBONDED TABLE R-SQUARED SPACING: 0.0625
Info: NONBONDED TABLE SIZE: 705 POINTS
TCL: Setting parameter alchLambda2 to 0.29999999999999966
Info: NONBONDED TABLE R-SQUARED SPACING: 0.0625
Info: NONBONDED TABLE SIZE: 705 POINTS
TCL: Running for 1500000 steps
ETITLE: TS BOND ANGLE DIHED IMPRP ELECT VDW BOUNDARY MISC KINETIC TOTAL TEMP POTENTIAL TOTALAVG TEMPAVG PRESSURE GPRESSURE VOLUME PRESSAVG GPRESSAVG
ENERGY: 0 0.0634 1.6778 0.0000 0.0000 -10782.9146 1459.4578 0.0000 0.0000 1819.7440 -7501.9716 309.2139 -9321.7156 -7501.9716 309.2139 115.8991 201.7885 30311.0854 115.8991 201.7885
ENERGY: 300000 0.0924 1.7540 0.0000 0.0000 -10899.7452 1490.4847 0.0000 0.0000 1830.4385 -7576.9757 311.0311 -9407.4142 -7573.7643 303.7282 153.5161 182.1291 30594.8303 -201.5654 -150.8948
ENERGY: 600000 0.3323 2.3240 0.0000 0.0000 -10725.3734 1402.0113 0.0000 0.0000 1759.8892 -7560.8165 299.0432 -9320.7058 -7548.2754 302.0850 -627.1256 -583.9864 30799.3832 -216.7276 -163.8584
ENERGY: 900000 0.2925 3.4042 0.0000 0.0000 -10772.3404 1458.8209 0.0000 0.0000 1766.2514 -7543.5714 300.1243 -9309.8228 -7540.3141 301.5325 97.1689 135.8966 30448.8583 -71.8735 -23.6406
ENERGY: 1200000 0.4967 0.9403 0.0000 0.0000 -10838.0317 1484.7359 0.0000 0.0000 1783.5257 -7568.3331 303.0596 -9351.8588 -7542.8301 301.1647 271.1330 331.3676 30371.8418 -40.6539 12.8302
ENERGY: 1500000 1.2124 0.8981 0.0000 0.0000 -10677.9292 1434.3458 0.0000 0.0000 1787.3377 -7454.1351 303.7073 -9241.4729 -7538.6954 300.7859 88.8665 215.5024 30699.7192 -66.2082 -3.6664
TCL: Running FEP window  15: Lambda1 0.29999999999999966 Lambda2 0.24999999999999967 [dLambda -0.04999999999999999]
TCL: Setting parameter firsttimestep to 0
TCL: Setting parameter alchLambda to 0.29999999999999966
Info: NONBONDED TABLE R-SQUARED SPACING: 0.0625
Info: NONBONDED TABLE SIZE: 705 POINTS
TCL: Setting parameter alchLambda2 to 0.24999999999999967
Info: NONBONDED TABLE R-SQUARED SPACING: 0.0625
Info: NONBONDED TABLE SIZE: 705 POINTS
TCL: Running for 1500000 steps
ETITLE: TS BOND ANGLE DIHED IMPRP ELECT VDW BOUNDARY MISC KINETIC TOTAL TEMP POTENTIAL TOTALAVG TEMPAVG PRESSURE GPRESSURE VOLUME PRESSAVG GPRESSAVG
ENERGY: 0 1.2124 0.8981 0.0000 0.0000 -10677.9286 1434.8085 0.0000 0.0000 1786.4510 -7454.5587 303.5566 -9241.0096 -7454.5587 303.5566 131.5242 219.2128 30699.7192 131.5242 219.2128
ENERGY: 300000 0.2904 0.4620 0.0000 0.0000 -10701.0191 1461.4603 0.0000 0.0000 1770.6787 -7468.1277 300.8766 -9238.8064 -7497.1900 302.9758 265.8781 271.7889 30747.2639 149.4059 204.1196
ENERGY: 600000 0.4324 1.1104 0.0000 0.0000 -10733.3721 1412.4377 0.0000 0.0000 1816.6804 -7502.7112 308.6933 -9319.3916 -7532.2109 301.7537 -290.3821 -267.2549 30529.3270 23.6830 85.5997
ENERGY: 900000 0.6315 0.6497 0.0000 0.0000 -10676.0992 1394.3451 0.0000 0.0000 1772.4457 -7508.0272 301.1769 -9280.4729 -7536.9774 300.3605 -435.3401 -364.4167 30664.4958 70.6785 130.3531
ENERGY: 1200000 0.4585 0.4031 0.0000 0.0000 -10836.8075 1498.3737 0.0000 0.0000 1793.3011 -7544.2711 304.7206 -9337.5722 -7535.4570 301.0234 421.3901 512.3525 30206.3090 76.1863 140.4375
ENERGY: 1500000 0.4649 1.9819 0.0000 0.0000 -10775.0216 1456.5713 0.0000 0.0000 1823.2591 -7492.7444 309.8111 -9316.0035 -7540.8153 300.9534 40.8355 95.9722 30590.9892 66.4935 126.2203
TCL: Running FEP window  16: Lambda1 0.24999999999999967 Lambda2 0.19999999999999968 [dLambda -0.04999999999999999]
TCL: Setting parameter firsttimestep to 0
TCL: Setting parameter alchLambda to 0.24999999999999967
Info: NONBONDED TABLE R-SQUARED SPACING: 0.0625
Info: NONBONDED TABLE SIZE: 705 POINTS
TCL: Setting parameter alchLambda2 to 0.19999999999999968
Info: NONBONDED TABLE R-SQUARED SPACING: 0.0625
Info: NONBONDED TABLE SIZE: 705 POINTS
TCL: Running for 1500000 steps
ETITLE: TS BOND ANGLE DIHED IMPRP ELECT VDW BOUNDARY MISC KINETIC TOTAL TEMP POTENTIAL TOTALAVG TEMPAVG PRESSURE GPRESSURE VOLUME PRESSAVG GPRESSAVG
ENERGY: 0 0.4649 1.9819 0.0000 0.0000 -10775.0218 1456.8417 0.0000 0.0000 1822.4041 -7493.3293 309.6659 -9315.7334 -7493.3293 309.6659 -0.7462 92.5195 30590.9892 -0.7462 92.5195
ENERGY: 300000 0.7794 0.8230 0.0000 0.0000 -10808.2522 1488.1616 0.0000 0.0000 1817.6421 -7500.8461 308.8567 -9318.4882 -7506.6381 303.4618 486.5889 547.2931 30383.1499 129.1892 164.9264
ENERGY: 600000 0.2414 0.6988 0.0000 0.0000 -10833.8429 1494.2444 0.0000 0.0000 1785.0438 -7553.6146 303.3175 -9338.6584 -7513.3885 303.1485 315.3048 413.6462 30379.5029 104.3567 149.2206
ENERGY: 900000 0.6365 3.3266 0.0000 0.0000 -10703.7618 1398.6741 0.0000 0.0000 1768.3086 -7532.8161 300.4739 -9301.1246 -7506.9199 302.0064 -262.7905 -196.7852 30367.9674 78.0090 135.1036
ENERGY: 1200000 0.6663 2.5581 0.0000 0.0000 -10711.7791 1376.7971 0.0000 0.0000 1748.6424 -7583.1152 297.1322 -9331.7576 -7518.5617 300.6497 -836.7414 -789.8413 30833.6872 -10.0616 43.6046
ENERGY: 1500000 0.4044 1.3569 0.0000 0.0000 -10852.6799 1513.4313 0.0000 0.0000 1761.2245 -7576.2629 299.2701 -9337.4874 -7521.8709 301.0345 419.9957 465.2587 30569.3859 -48.1384 1.2402
TCL: Running FEP window  17: Lambda1 0.19999999999999968 Lambda2 0.1499999999999997 [dLambda -0.04999999999999999]
TCL: Setting parameter firsttimestep to 0
TCL: Setting parameter alchLambda to 0.19999999999999968
Info: NONBONDED TABLE R-SQUARED SPACING: 0.0625
Info: NONBONDED TABLE SIZE: 705 POINTS
TCL: Setting parameter alchLambda2 to 0.1499999999999997
Info: NONBONDED TABLE R-SQUARED SPACING: 0.0625
Info: NONBONDED TABLE SIZE: 705 POINTS
TCL: Running for 1500000 steps
ETITLE: TS BOND ANGLE DIHED IMPRP ELECT VDW BOUNDARY MISC KINETIC TOTAL TEMP POTENTIAL TOTALAVG TEMPAVG PRESSURE GPRESSURE VOLUME PRESSAVG GPRESSAVG
ENERGY: 0 0.4044 1.3569 0.0000 0.0000 -10852.6786 1513.7039 0.0000 0.0000 1760.2951 -7576.9183 299.1122 -9337.2134 -7576.9183 299.1122 385.0122 463.6369 30569.3859 385.0122 463.6369
ENERGY: 300000 0.4597 0.5394 0.0000 0.0000 -10777.3650 1464.5602 0.0000 0.0000 1769.0840 -7542.7215 300.6056 -9311.8056 -7531.1914 300.9135 -1.4823 157.5588 30312.5123 165.5531 230.2406
ENERGY: 600000 0.0137 2.8601 0.0000 0.0000 -10709.0073 1434.5150 0.0000 0.0000 1760.9829 -7510.6356 299.2291 -9271.6185 -7511.1593 302.2198 -28.2133 0.2856 30642.6013 -5.0852 50.4499
ENERGY: 900000 0.3592 2.0619 0.0000 0.0000 -10694.3726 1428.0927 0.0000 0.0000 1723.1961 -7540.6627 292.8083 -9263.8588 -7513.6391 301.1769 -208.1109 -150.0811 30526.1825 -28.5706 36.5854
ENERGY: 1200000 1.2763 0.8533 0.0000 0.0000 -10709.8204 1384.4157 0.0000 0.0000 1768.1525 -7555.1227 300.4473 -9323.2752 -7519.2353 300.5744 -388.5024 -302.0260 29982.3033 -50.5641 20.0321
ENERGY: 1500000 1.5547 1.1987 0.0000 0.0000 -10815.1202 1549.6074 0.0000 0.0000 1755.0418 -7507.7177 298.2195 -9262.7594 -7512.9108 300.9980 948.6989 1035.8466 30325.0332 37.7030 109.8600
TCL: Running FEP window  18: Lambda1 0.1499999999999997 Lambda2 0.09999999999999969 [dLambda -0.05 ]
TCL: Setting parameter firsttimestep to 0
TCL: Setting parameter alchLambda to 0.1499999999999997
Info: NONBONDED TABLE R-SQUARED SPACING: 0.0625
Info: NONBONDED TABLE SIZE: 705 POINTS
TCL: Setting parameter alchLambda2 to 0.09999999999999969
Info: NONBONDED TABLE R-SQUARED SPACING: 0.0625
Info: NONBONDED TABLE SIZE: 705 POINTS
TCL: Running for 1500000 steps
ETITLE: TS BOND ANGLE DIHED IMPRP ELECT VDW BOUNDARY MISC KINETIC TOTAL TEMP POTENTIAL TOTALAVG TEMPAVG PRESSURE GPRESSURE VOLUME PRESSAVG GPRESSAVG
ENERGY: 0 1.5547 1.1987 0.0000 0.0000 -10815.1204 1550.0316 0.0000 0.0000 1754.1877 -7508.1478 298.0744 -9262.3354 -7508.1478 298.0744 964.6112 1036.1043 30325.0332 964.6112 1036.1043
ENERGY: 300000 0.1558 1.0138 0.0000 0.0000 -10725.2928 1451.7806 0.0000 0.0000 1747.5347 -7524.8078 296.9439 -9272.3425 -7546.3641 299.3235 78.9312 156.5160 30686.6106 227.7891 293.0871
ENERGY: 600000 0.7064 1.3912 0.0000 0.0000 -10898.6424 1570.5053 0.0000 0.0000 1767.2760 -7558.7635 300.2984 -9326.0395 -7552.3170 301.3026 910.0393 936.6331 30381.0670 267.3786 331.8863
ENERGY: 900000 0.1855 0.9495 0.0000 0.0000 -10888.1056 1538.8871 0.0000 0.0000 1802.6065 -7545.4770 306.3018 -9348.0835 -7556.0173 301.0546 645.0754 669.5868 30474.0179 303.6863 366.4925
ENERGY: 1200000 0.2723 2.3306 0.0000 0.0000 -10669.3616 1417.9828 0.0000 0.0000 1790.8657 -7457.9102 304.3068 -9248.7759 -7546.5490 301.1067 -240.6001 -213.8414 30931.4552 176.5337 232.3552
ENERGY: 1500000 0.1347 1.6513 0.0000 0.0000 -10826.1718 1434.9705 0.0000 0.0000 1707.7716 -7681.6437 290.1873 -9389.4153 -7555.7771 300.5733 -503.9958 -391.5622 30583.3940 156.1732 217.5741
TCL: Running FEP window  19: Lambda1 0.09999999999999969 Lambda2 0.049999999999999684 [dLambda -0.05 ]
TCL: Setting parameter firsttimestep to 0
TCL: Setting parameter alchLambda to 0.09999999999999969
Info: NONBONDED TABLE R-SQUARED SPACING: 0.0625
Info: NONBONDED TABLE SIZE: 705 POINTS
TCL: Setting parameter alchLambda2 to 0.049999999999999684
Info: NONBONDED TABLE R-SQUARED SPACING: 0.0625
Info: NONBONDED TABLE SIZE: 705 POINTS
TCL: Running for 1500000 steps
ETITLE: TS BOND ANGLE DIHED IMPRP ELECT VDW BOUNDARY MISC KINETIC TOTAL TEMP POTENTIAL TOTALAVG TEMPAVG PRESSURE GPRESSURE VOLUME PRESSAVG GPRESSAVG
ENERGY: 0 0.1347 1.6513 0.0000 0.0000 -10826.1715 1434.7988 0.0000 0.0000 1706.9269 -7682.6598 290.0438 -9389.5867 -7682.6598 290.0438 -485.5466 -395.1342 30583.3940 -485.5466 -395.1342
ENERGY: 300000 0.2895 1.3956 0.0000 0.0000 -10800.9885 1435.9972 0.0000 0.0000 1766.8427 -7596.4635 300.2248 -9363.3062 -7573.2755 296.5531 -285.3390 -259.3023 30547.4856 -171.7451 -123.6524
ENERGY: 600000 1.6021 1.1265 0.0000 0.0000 -10793.7468 1492.5229 0.0000 0.0000 1792.4633 -7506.0321 304.5783 -9298.4953 -7564.3951 298.1482 523.7448 603.5579 30127.1772 54.2202 99.3971
ENERGY: 900000 0.5772 2.8235 0.0000 0.0000 -10688.5398 1410.7332 0.0000 0.0000 1728.4889 -7545.9169 293.7076 -9274.4059 -7562.7405 297.6053 -237.2445 -207.7874 30442.1216 42.7122 90.3807
ENERGY: 1200000 0.2743 2.1845 0.0000 0.0000 -10899.4424 1523.1482 0.0000 0.0000 1707.6577 -7666.1777 290.1680 -9373.8354 -7566.9668 297.1390 648.6061 650.7413 29915.3970 128.0185 174.5056
ENERGY: 1500000 0.1373 1.8836 0.0000 0.0000 -10678.7778 1362.7169 0.0000 0.0000 1815.5083 -7498.5317 308.4941 -9314.0400 -7560.3762 297.9168 -623.8109 -548.1693 30384.9223 157.6104 208.0220
TCL: Running FEP window  20: Lambda1 0.049999999999999684 Lambda2 0.0    [dLambda -0.049999999999999684]
TCL: Setting parameter firsttimestep to 0
TCL: Setting parameter alchLambda to 0.049999999999999684
Info: NONBONDED TABLE R-SQUARED SPACING: 0.0625
Info: NONBONDED TABLE SIZE: 705 POINTS
TCL: Setting parameter alchLambda2 to 0.0
Info: NONBONDED TABLE R-SQUARED SPACING: 0.0625
Info: NONBONDED TABLE SIZE: 705 POINTS
TCL: Running for 1500000 steps
ETITLE: TS BOND ANGLE DIHED IMPRP ELECT VDW BOUNDARY MISC KINETIC TOTAL TEMP POTENTIAL TOTALAVG TEMPAVG PRESSURE GPRESSURE VOLUME PRESSAVG GPRESSAVG
ENERGY: 0 0.1373 1.8836 0.0000 0.0000 -10678.7770 1362.5225 0.0000 0.0000 1814.6660 -7499.5675 308.3510 -9314.2335 -7499.5675 308.3510 -630.4156 -548.3532 30384.9223 -630.4156 -548.3532
ENERGY: 300000 0.0453 1.1061 0.0000 0.0000 -10793.8671 1512.6848 0.0000 0.0000 1786.4509 -7493.5801 303.5566 -9280.0310 -7541.4793 303.2041 469.6122 568.2311 30591.3098 19.8775 86.8216
ENERGY: 600000 0.6213 0.5491 0.0000 0.0000 -10739.4829 1450.4614 0.0000 0.0000 1766.0996 -7521.7516 300.0985 -9287.8511 -7541.6155 302.6816 -353.9655 -264.6898 31159.9922 -158.6207 -83.7735
ENERGY: 900000 0.5006 0.6066 0.0000 0.0000 -10694.0720 1438.1958 0.0000 0.0000 1814.5507 -7440.2183 308.3314 -9254.7690 -7526.0801 303.2695 254.2137 321.7749 30129.1213 -250.1440 -165.7451
ENERGY: 1200000 0.3109 0.6506 0.0000 0.0000 -10643.5748 1370.0052 0.0000 0.0000 1731.1505 -7541.4576 294.1599 -9272.6081 -7524.0225 301.9058 -639.3370 -577.5359 30473.3463 -228.5052 -150.1608
ENERGY: 1500000 0.9377 2.4785 0.0000 0.0000 -10752.7997 1474.8040 0.0000 0.0000 1769.9995 -7504.5801 300.7612 -9274.5796 -7521.2977 302.1941 267.2736 311.8156 30636.9702 -143.5011 -69.0447
TCL: Exiting due to exit command.
