Info: SIMULATION PARAMETERS:
Info: TIMESTEP               2
Info: NUMBER OF STEPS        0
Info: STEPS PER CYCLE        10
Info: PERIODIC CELL BASIS 1  38.861 0 0
Info: PERIODIC CELL BASIS 2  0 39.93 0
Info: PERIODIC CELL BASIS 3  0 0 40.136
Info: PERIODIC CELL CENTER   0 0 0
Info: WRAPPING WATERS AROUND PERIODIC BOUNDARIES ON OUTPUT.
Info: WRAPPING ALL CLUSTERS AROUND PERIODIC BOUNDARIES ON OUTPUT.
Info: FIRST LDB TIMESTEP     50
Info: LAST LDB TIMESTEP     -1
Info: HOM BACKGROUND SCALING 1
Info: PME BACKGROUND SCALING 1
Info: MIN ATOMS PER PATCH    40
Info: EMPTY PATCH LOAD       40 ATOMS
Info: INITIAL TEMPERATURE    300
Info: CENTER OF MASS MOVING INITIALLY? NO
Info: DIELECTRIC             1
Info: EXCLUDE                SCALED ONE-FOUR
Info: 1-4 ELECTROSTATICS SCALED BY 0.833333
Info: MODIFIED 1-4 VDW PARAMETERS WILL BE USED
Info: DCD FILENAME           mobley_2245668_min.dcd
Info: DCD FREQUENCY          5000
Info: DCD FIRST STEP         5000
Info: DCD FILE WILL CONTAIN UNIT CELL DATA
Info: XST FILENAME           mobley_2245668_min.xst
Info: XST FREQUENCY          5000
Info: NO VELOCITY DCD OUTPUT
Info: NO FORCE DCD OUTPUT
Info: OUTPUT FILENAME        mobley_2245668_min
Info: BINARY OUTPUT FILES WILL BE USED
Info: RESTART FILENAME       mobley_2245668_min.restart
Info: RESTART FREQUENCY      5000
Info: BINARY RESTART FILES WILL BE USED
Info: CUTOFF                 9
Info: PAIRLIST DISTANCE      11
Info: PAIRLIST SHRINK RATE   0.01
Info: PAIRLIST GROW RATE     0.01
Info: PAIRLIST TRIGGER       0.3
Info: PAIRLISTS PER CYCLE    2
Info: PAIRLISTS ENABLED
Info: MARGIN                 8
Info: HYDROGEN GROUP CUTOFF  2.5
Info: PATCH DIMENSION        21.5
Info: ENERGY OUTPUT STEPS    5000
Info: ENERGY EVALUATION STEPS    5000
Info: OUTPUT ENERGY PRECISION 4
Info: CROSSTERM ENERGY INCLUDED IN DIHEDRAL
Info: TIMING OUTPUT STEPS    50000
Info: PRESSURE OUTPUT STEPS  5000
Info: LANGEVIN DYNAMICS ACTIVE
Info: LANGEVIN TEMPERATURE   300
Info: LANGEVIN USING BBK INTEGRATOR
Info: LANGEVIN DAMPING COEFFICIENT IS 1 INVERSE PS
Info: LANGEVIN DYNAMICS APPLIED TO HYDROGENS
Info: LANGEVIN PISTON PRESSURE CONTROL ACTIVE
Info:        TARGET PRESSURE IS 1.01325 BAR
Info:     OSCILLATION PERIOD IS 50 FS
Info:             DECAY TIME IS 25 FS
Info:     PISTON TEMPERATURE IS 300 K
Info:       PRESSURE CONTROL IS GROUP-BASED
Info:    INITIAL STRAIN RATE IS 0 0 0
Info:       CELL FLUCTUATION IS ISOTROPIC
Info: PARTICLE MESH EWALD (PME) ACTIVE
Info: PME TOLERANCE               1e-06
Info: PME EWALD COEFFICIENT       0.348832
Info: PME INTERPOLATION ORDER     4
Info: PME GRID DIMENSIONS         40 40 44
Info: PME MAXIMUM GRID SPACING    1
Info: FULL ELECTROSTATIC EVALUATION FREQUENCY      2
Info: USING VERLET I (r-RESPA) MTS SCHEME.
Info: C1 SPLITTING OF LONG RANGE ELECTROSTATICS
Info: PLACING ATOMS IN PATCHES BY HYDROGEN GROUPS
Info: RIGID BONDS TO HYDROGEN : ALL
Info:         ERROR TOLERANCE : 1e-08
Info:          MAX ITERATIONS : 100
Info: RIGID WATER USING SETTLE ALGORITHM
Info: RANDOM NUMBER SEED     1741355051
Info: USE HYDROGEN BONDS?    NO
Info: Using AMBER format force field!
Info: AMBER PARM FILE        mobley_2245668.prmtop
Info: COORDINATE PDB         mobley_2245668.pdb
Info: Exclusions will be read from PARM file!
Info: SCNB (VDW SCALING)     2
Info: USING ARITHMETIC MEAN TO COMBINE L-J SIGMA PARAMETERS
Info: SUMMARY OF PARAMETERS:
Info: 7 BONDS
Info: 8 ANGLES
Info: 7 DIHEDRAL
Info: 0 IMPROPER
Info: 0 CROSSTERM
Info: 0 VDW
Info: 28 VDW_PAIRS
Info: 0 NBTHOLE_PAIRS
Info: STRUCTURE SUMMARY:
Info: 4527 ATOMS
Info: 4526 BONDS
Info: 25 ANGLES
Info: 30 DIHEDRALS
Info: 0 IMPROPERS
Info: 0 CROSSTERMS
Info: 4581 EXCLUSIONS
Info: 4522 RIGID BONDS
Info: 9059 DEGREES OF FREEDOM
Info: 1509 HYDROGEN GROUPS
Info: 4 ATOMS IN LARGEST HYDROGEN GROUP
Info: 1509 MIGRATION GROUPS
Info: 4 ATOMS IN LARGEST MIGRATION GROUP
Info: TOTAL MASS = 27170.2 amu
Info: TOTAL CHARGE = 2.98023e-08 e
Info: MASS DENSITY = 0.724443 g/cm^3
Info: ATOM DENSITY = 0.0726881 atoms/A^3
Info: ADDED 0 IMPLICIT EXCLUSIONS
Info: NONBONDED TABLE R-SQUARED SPACING: 0.0625
Info: NONBONDED TABLE SIZE: 705 POINTS
Info: REMOVING COM VELOCITY -0.0663964 0.0774285 -0.00505654
TCL: Minimizing for 2000 steps
ETITLE: TS BOND ANGLE DIHED IMPRP ELECT VDW BOUNDARY MISC KINETIC TOTAL TEMP POTENTIAL TOTAL3 TEMPAVG PRESSURE GPRESSURE VOLUME PRESSAVG GPRESSAVG
ENERGY: 0 0.0296 0.6709 0.0207 0.0000 -14063.6707 1604.9630 0.0000 0.0000 0.0000 -12457.9864 0.0000 -12457.9864 -12457.9864 0.0000 11139.4974 -15913.3670 62279.8231 11139.4974 -15913.3670
ENERGY: 400 1.1605 1.9017 0.2118 0.0000 -19319.1215 3007.8507 0.0000 0.0000 0.0000 -16307.9968 0.0000 -16307.9968 -16307.9968 0.0000 17093.9078 17203.4252 62279.8231 17093.9078 17203.4252
ENERGY: 800 1.1788 0.7956 0.1694 0.0000 -20117.2245 3285.7104 0.0000 0.0000 0.0000 -16829.3702 0.0000 -16829.3702 -16829.3702 0.0000 18420.2107 18553.9580 62279.8231 18420.2107 18553.9580
ENERGY: 1200 0.3141 0.9568 0.1811 0.0000 -20550.6058 3508.1579 0.0000 0.0000 0.0000 -17040.9958 0.0000 -17040.9958 -17040.9958 0.0000 19639.9622 19741.0124 62279.8231 19639.9622 19741.0124
ENERGY: 1600 0.2372 0.6170 0.1690 0.0000 -20712.7540 3571.5720 0.0000 0.0000 0.0000 -17140.1588 0.0000 -17140.1588 -17140.1588 0.0000 20002.2907 20101.6963 62279.8231 20002.2907 20101.6963
ENERGY: 2000 0.1290 0.6252 0.1037 0.0000 -20819.7855 3612.8527 0.0000 0.0000 0.0000 -17206.0749 0.0000 -17206.0749 -17206.0749 0.0000 20249.3467 20339.5132 62279.8231 20249.3467 20339.5132
TCL: Exiting due to exit command.
Info: NAMD 3.0.1 for Linux-x86_64-multicore
Info: Please visit http://www.ks.uiuc.edu/Research/namd/
Info: for updates, documentation, and support information.
Info: Please cite Phillips et al., J. Chem. Phys. 153:044130 (2020) doi:10.1063/5.0014475
Info: in all publications reporting results obtained with NAMD.
Info: Based on Charm++/Converse 80000 for multicore-linux-x86_64-gcc
Info: Built Mon Oct 14 11:11:06 CDT 2024 by dhardy on athine.ks.uiuc.edu
Info: 1 NAMD  3.0.1  Linux-x86_64-multicore  16    k138  z5358697
Info: Running on 16 processors, 1 nodes, 1 physical nodes.
Info: CPU topology information available.
Info: Charm++/Converse parallel runtime startup completed at 0.00518959 s
Info: 1043.48 MB of memory in use based on /proc/self/stat
Info: Configuration file is mobley_2245668_equil.namd
Info: Working in the current directory /srv/scratch/z5358697/prod_prep_2/2245668
TCL: Running 25000 steps at 30 kelvin.
TCL: Suspending until startup complete.
Info: SIMULATION PARAMETERS:
Info: TIMESTEP               2
Info: NUMBER OF STEPS        0
Info: STEPS PER CYCLE        10
Info: PERIODIC CELL BASIS 1  38.861 0 0
Info: PERIODIC CELL BASIS 2  0 39.93 0
Info: PERIODIC CELL BASIS 3  0 0 40.136
Info: PERIODIC CELL CENTER   0 0 0
Info: WRAPPING WATERS AROUND PERIODIC BOUNDARIES ON OUTPUT.
Info: WRAPPING ALL CLUSTERS AROUND PERIODIC BOUNDARIES ON OUTPUT.
Info: FIRST LDB TIMESTEP     50
Info: LAST LDB TIMESTEP     -1
Info: HOM BACKGROUND SCALING 1
Info: PME BACKGROUND SCALING 1
Info: MIN ATOMS PER PATCH    40
Info: EMPTY PATCH LOAD       40 ATOMS
Info: INITIAL TEMPERATURE    300
Info: CENTER OF MASS MOVING INITIALLY? NO
Info: DIELECTRIC             1
Info: EXCLUDE                SCALED ONE-FOUR
Info: 1-4 ELECTROSTATICS SCALED BY 0.833333
Info: MODIFIED 1-4 VDW PARAMETERS WILL BE USED
Info: DCD FILENAME           mobley_2245668_equil.dcd
Info: DCD FREQUENCY          5000
Info: DCD FIRST STEP         5000
Info: DCD FILE WILL CONTAIN UNIT CELL DATA
Info: XST FILENAME           mobley_2245668_equil.xst
Info: XST FREQUENCY          5000
Info: NO VELOCITY DCD OUTPUT
Info: NO FORCE DCD OUTPUT
Info: OUTPUT FILENAME        mobley_2245668_equil
Info: BINARY OUTPUT FILES WILL BE USED
Info: RESTART FILENAME       mobley_2245668_equil.restart
Info: RESTART FREQUENCY      5000
Info: BINARY RESTART FILES WILL BE USED
Info: CUTOFF                 9
Info: PAIRLIST DISTANCE      11
Info: PAIRLIST SHRINK RATE   0.01
Info: PAIRLIST GROW RATE     0.01
Info: PAIRLIST TRIGGER       0.3
Info: PAIRLISTS PER CYCLE    2
Info: PAIRLISTS ENABLED
Info: MARGIN                 8
Info: HYDROGEN GROUP CUTOFF  2.5
Info: PATCH DIMENSION        21.5
Info: ENERGY OUTPUT STEPS    5000
Info: ENERGY EVALUATION STEPS    5000
Info: OUTPUT ENERGY PRECISION 4
Info: CROSSTERM ENERGY INCLUDED IN DIHEDRAL
Info: TIMING OUTPUT STEPS    50000
Info: PRESSURE OUTPUT STEPS  5000
Info: LANGEVIN DYNAMICS ACTIVE
Info: LANGEVIN TEMPERATURE   30
Info: LANGEVIN USING BBK INTEGRATOR
Info: LANGEVIN DAMPING COEFFICIENT IS 1 INVERSE PS
Info: LANGEVIN DYNAMICS APPLIED TO HYDROGENS
Info: LANGEVIN PISTON PRESSURE CONTROL ACTIVE
Info:        TARGET PRESSURE IS 1.01325 BAR
Info:     OSCILLATION PERIOD IS 50 FS
Info:             DECAY TIME IS 25 FS
Info:     PISTON TEMPERATURE IS 300 K
Info:       PRESSURE CONTROL IS GROUP-BASED
Info:    INITIAL STRAIN RATE IS 0 0 0
Info:       CELL FLUCTUATION IS ISOTROPIC
Info: PARTICLE MESH EWALD (PME) ACTIVE
Info: PME TOLERANCE               1e-06
Info: PME EWALD COEFFICIENT       0.348832
Info: PME INTERPOLATION ORDER     4
Info: PME GRID DIMENSIONS         40 40 44
Info: PME MAXIMUM GRID SPACING    1
Info: FULL ELECTROSTATIC EVALUATION FREQUENCY      2
Info: USING VERLET I (r-RESPA) MTS SCHEME.
Info: C1 SPLITTING OF LONG RANGE ELECTROSTATICS
Info: PLACING ATOMS IN PATCHES BY HYDROGEN GROUPS
Info: RIGID BONDS TO HYDROGEN : ALL
Info:         ERROR TOLERANCE : 1e-08
Info:          MAX ITERATIONS : 100
Info: RIGID WATER USING SETTLE ALGORITHM
Info: RANDOM NUMBER SEED     1741355063
Info: USE HYDROGEN BONDS?    NO
Info: Using AMBER format force field!
Info: AMBER PARM FILE        mobley_2245668.prmtop
Info: COORDINATE PDB         mobley_2245668.pdb
Info: Exclusions will be read from PARM file!
Info: SCNB (VDW SCALING)     2
Info: USING ARITHMETIC MEAN TO COMBINE L-J SIGMA PARAMETERS
Info: BINARY COORDINATES     mobley_2245668_min.coor
Info: SUMMARY OF PARAMETERS:
Info: 7 BONDS
Info: 8 ANGLES
Info: 7 DIHEDRAL
Info: 0 IMPROPER
Info: 0 CROSSTERM
Info: 0 VDW
Info: 28 VDW_PAIRS
Info: 0 NBTHOLE_PAIRS
Info: STRUCTURE SUMMARY:
Info: 4527 ATOMS
Info: 4526 BONDS
Info: 25 ANGLES
Info: 30 DIHEDRALS
Info: 0 IMPROPERS
Info: 0 CROSSTERMS
Info: 4581 EXCLUSIONS
Info: 4522 RIGID BONDS
Info: 9059 DEGREES OF FREEDOM
Info: 1509 HYDROGEN GROUPS
Info: 4 ATOMS IN LARGEST HYDROGEN GROUP
Info: 1509 MIGRATION GROUPS
Info: 4 ATOMS IN LARGEST MIGRATION GROUP
Info: TOTAL MASS = 27170.2 amu
Info: TOTAL CHARGE = 2.98023e-08 e
Info: MASS DENSITY = 0.724443 g/cm^3
Info: ATOM DENSITY = 0.0726881 atoms/A^3
Info: ADDED 0 IMPLICIT EXCLUSIONS
Info: NONBONDED TABLE R-SQUARED SPACING: 0.0625
Info: NONBONDED TABLE SIZE: 705 POINTS
Info: REMOVING COM VELOCITY 0.0497698 -0.0604765 -0.00301549
TCL: Running for 25000 steps
ETITLE: TS BOND ANGLE DIHED IMPRP ELECT VDW BOUNDARY MISC KINETIC TOTAL TEMP POTENTIAL TOTAL3 TEMPAVG PRESSURE GPRESSURE VOLUME PRESSAVG GPRESSAVG
ENERGY: 0 0.1290 0.6252 0.1037 0.0000 -20819.7855 3612.8527 0.0000 0.0000 2698.0369 -14508.0380 299.7492 -17206.0749 -14507.4805 299.7492 199.4219 239.3211 62279.8231 199.4219 239.3211
ENERGY: 5000 0.1458 1.1759 0.2842 0.0000 -21665.8194 3665.4208 0.0000 0.0000 281.0511 -17717.7416 31.2245 -17998.7927 -17716.8682 47.4485 -864.7700 -806.8301 44555.0547 4.3965 4.4334
ENERGY: 10000 0.0761 0.8323 0.5054 0.0000 -21807.4944 3781.4848 0.0000 0.0000 264.7825 -17759.8132 29.4171 -18024.5958 -17759.1436 30.2604 -330.1446 -253.3638 44380.1218 3.1321 3.2565
ENERGY: 15000 0.0498 0.9196 0.4353 0.0000 -21920.5659 3877.2683 0.0000 0.0000 271.7377 -17770.1552 30.1898 -18041.8929 -17769.6024 30.2527 196.8086 242.8776 44202.1401 0.2578 0.1409
ENERGY: 20000 0.3019 1.0803 0.7244 0.0000 -21912.5768 3862.7815 0.0000 0.0000 268.7441 -17778.9445 29.8572 -18047.6886 -17778.2961 30.1159 98.1024 150.7470 44106.7644 3.3415 3.2819
ENERGY: 25000 0.5059 0.7639 0.1896 0.0000 -21830.3013 3771.5405 0.0000 0.0000 275.1426 -17782.1589 30.5681 -18057.3014 -17781.4676 30.2500 -479.1141 -416.0249 44340.5321 2.7890 2.8072
TCL: Running 25000 steps at 60 kelvin.
TCL: Setting parameter langevinTemp to 60
TCL: Running for 25000 steps
ETITLE: TS BOND ANGLE DIHED IMPRP ELECT VDW BOUNDARY MISC KINETIC TOTAL TEMP POTENTIAL TOTAL3 TEMPAVG PRESSURE GPRESSURE VOLUME PRESSAVG GPRESSAVG
ENERGY: 25000 0.5059 0.7639 0.1896 0.0000 -21830.3013 3771.5405 0.0000 0.0000 275.0079 -17782.2935 30.5531 -18057.3014 -17781.5875 30.5531 -476.7792 -416.1499 44340.5321 -476.7792 -416.1499
ENERGY: 30000 0.2053 1.8488 0.1857 0.0000 -21853.8956 3993.4340 0.0000 0.0000 547.6650 -17310.5569 60.8450 -17858.2219 -17309.2612 57.3103 1363.5279 1431.3044 43984.2102 -0.7290 -0.4396
ENERGY: 35000 0.7959 1.7441 0.3373 0.0000 -21537.9162 3664.7878 0.0000 0.0000 543.3362 -17326.9149 60.3641 -17870.2511 -17325.4751 60.1411 -514.1021 -458.8852 44471.6190 7.8174 7.3926
ENERGY: 40000 0.3711 1.7542 0.4136 0.0000 -21662.9227 3771.4915 0.0000 0.0000 545.5432 -17343.3491 60.6093 -17888.8922 -17342.2977 59.8945 15.7470 59.2840 44374.2562 5.7163 6.1259
ENERGY: 45000 0.5995 1.3745 0.3211 0.0000 -21725.8369 3836.0989 0.0000 0.0000 538.0960 -17349.3468 59.7819 -17887.4428 -17348.1539 60.0406 393.4777 441.9667 44284.7828 2.4499 2.3598
ENERGY: 50000 0.7146 2.0919 0.2215 0.0000 -21706.1302 3807.6981 0.0000 0.0000 543.4253 -17351.9788 60.3740 -17895.4042 -17350.2583 60.1454 187.2458 245.1203 44303.7462 -0.8482 -0.8776
TCL: Running 25000 steps at 90 kelvin.
TCL: Setting parameter langevinTemp to 90
TCL: Running for 25000 steps
ETITLE: TS BOND ANGLE DIHED IMPRP ELECT VDW BOUNDARY MISC KINETIC TOTAL TEMP POTENTIAL TOTAL3 TEMPAVG PRESSURE GPRESSURE VOLUME PRESSAVG GPRESSAVG
ENERGY: 50000 0.7146 2.0919 0.2215 0.0000 -21706.1302 3807.6981 0.0000 0.0000 543.1595 -17352.2447 60.3445 -17895.4042 -17351.1730 60.3445 195.0084 245.3945 44303.7462 195.0084 245.3945
ENERGY: 55000 0.3921 1.9938 0.5006 0.0000 -21273.6556 3659.7271 0.0000 0.0000 805.8159 -16805.2261 89.5253 -17611.0420 -16803.4679 87.4099 27.9981 104.5573 44666.4440 -0.2936 -0.6164
ENERGY: 60000 0.9034 1.8518 0.4163 0.0000 -21467.2452 3805.4754 0.0000 0.0000 822.4325 -16836.1659 91.3714 -17658.5984 -16834.2273 89.6891 768.2327 839.8242 44373.0075 1.4741 1.4548
ENERGY: 65000 0.3705 1.8843 0.3585 0.0000 -21312.1057 3626.9868 0.0000 0.0000 807.2805 -16875.2252 89.6880 -17682.5056 -16872.2411 89.7427 -284.7861 -227.9549 44763.7807 4.4099 4.9105
ENERGY: 70000 0.1698 1.7365 0.1633 0.0000 -21212.3929 3539.7578 0.0000 0.0000 824.0791 -16846.4864 91.5544 -17670.5655 -16844.2237 90.0764 -675.4805 -627.0036 44774.1619 0.9490 1.2959
ENERGY: 75000 0.3687 2.9902 0.4327 0.0000 -21531.3467 3819.6882 0.0000 0.0000 809.9889 -16897.8780 89.9889 -17707.8669 -16896.4480 90.2650 812.1942 838.0589 44378.2162 3.5929 3.5347
TCL: Running 25000 steps at 120 kelvin.
TCL: Setting parameter langevinTemp to 120
TCL: Running for 25000 steps
ETITLE: TS BOND ANGLE DIHED IMPRP ELECT VDW BOUNDARY MISC KINETIC TOTAL TEMP POTENTIAL TOTAL3 TEMPAVG PRESSURE GPRESSURE VOLUME PRESSAVG GPRESSAVG
ENERGY: 75000 0.3687 2.9902 0.4327 0.0000 -21531.3467 3819.6882 0.0000 0.0000 809.5809 -16898.2860 89.9436 -17707.8669 -16897.0917 89.9436 787.1019 837.9071 44378.2162 787.1019 837.9071
ENERGY: 80000 0.2533 2.6004 0.9373 0.0000 -21020.7881 3617.7574 0.0000 0.0000 1074.8793 -16324.3604 119.4180 -17399.2397 -16321.9470 117.3399 518.6842 574.0713 44388.3749 4.2562 4.4316
ENERGY: 85000 0.3490 2.0497 0.7716 0.0000 -20920.6383 3468.2884 0.0000 0.0000 1074.9300 -16374.2496 119.4236 -17449.1796 -16371.4483 119.2325 -392.5545 -348.0756 44414.1111 5.6160 5.6072
ENERGY: 90000 0.4441 2.9038 1.4969 0.0000 -20992.3459 3519.2233 0.0000 0.0000 1085.6385 -16382.6394 120.6133 -17468.2779 -16378.7725 120.1283 -178.9212 -128.7052 44422.4752 1.7053 1.7068
ENERGY: 95000 0.3376 3.0555 0.6756 0.0000 -21040.7480 3575.5095 0.0000 0.0000 1066.3426 -16394.8272 118.4696 -17461.1697 -16391.3857 119.7509 268.6429 311.0885 44193.8953 5.9455 5.8948
ENERGY: 100000 0.2937 2.5841 0.2931 0.0000 -21126.8703 3653.3375 0.0000 0.0000 1060.7871 -16409.5748 117.8524 -17470.3619 -16407.1691 120.6967 591.2351 642.6627 44101.4550 6.8184 6.6410
TCL: Running 25000 steps at 150 kelvin.
TCL: Setting parameter langevinTemp to 150
TCL: Running for 25000 steps
ETITLE: TS BOND ANGLE DIHED IMPRP ELECT VDW BOUNDARY MISC KINETIC TOTAL TEMP POTENTIAL TOTAL3 TEMPAVG PRESSURE GPRESSURE VOLUME PRESSAVG GPRESSAVG
ENERGY: 100000 0.2937 2.5841 0.2931 0.0000 -21126.8703 3653.3375 0.0000 0.0000 1060.2504 -16410.1115 117.7927 -17470.3619 -16407.9117 117.7927 599.8969 642.6183 44101.4550 599.8969 642.6183
ENERGY: 105000 0.0919 3.9087 0.1591 0.0000 -20311.4717 3199.1973 0.0000 0.0000 1358.5365 -15749.5782 150.9320 -17108.1147 -15745.7672 146.6010 -953.5674 -912.7669 44676.6194 -4.4931 -4.2597
ENERGY: 110000 0.6081 4.2166 0.4881 0.0000 -20652.8789 3476.8497 0.0000 0.0000 1378.2462 -15792.4700 153.1218 -17170.7163 -15788.0428 150.6676 489.1321 543.5366 44175.7473 2.5717 2.7368
ENERGY: 115000 0.6983 2.7479 1.8046 0.0000 -20570.6026 3415.9901 0.0000 0.0000 1345.4505 -15803.9113 149.4782 -17149.3618 -15800.7374 149.1201 72.0602 135.2029 44359.5123 3.4227 3.5963
ENERGY: 120000 0.3787 3.5850 0.4262 0.0000 -20665.0343 3477.5728 0.0000 0.0000 1350.9914 -15832.0802 150.0938 -17183.0716 -15828.3269 150.6020 352.2632 413.9960 44175.3853 1.3753 1.3999
ENERGY: 125000 1.1707 5.1097 0.2857 0.0000 -20713.7314 3460.4511 0.0000 0.0000 1342.9473 -15903.7669 149.2001 -17246.7142 -15900.0548 149.7476 141.4548 194.0684 44191.6706 3.8539 3.4913
TCL: Running 50000 steps at 180 kelvin.
TCL: Setting parameter langevinTemp to 180
TCL: Running for 50000 steps
ETITLE: TS BOND ANGLE DIHED IMPRP ELECT VDW BOUNDARY MISC KINETIC TOTAL TEMP POTENTIAL TOTAL3 TEMPAVG PRESSURE GPRESSURE VOLUME PRESSAVG GPRESSAVG
ENERGY: 125000 1.1707 5.1097 0.2857 0.0000 -20713.7314 3460.4511 0.0000 0.0000 1342.2903 -15904.4238 149.1271 -17246.7142 -15901.3581 149.1271 132.1370 193.3251 44191.6706 132.1370 193.3251
ENERGY: 135000 0.3067 5.4627 1.0122 0.0000 -20058.8164 3206.8237 0.0000 0.0000 1627.5284 -15217.6827 180.8168 -16845.2111 -15213.5091 179.9341 -360.4540 -312.2612 44613.8067 1.6780 1.4968
ENERGY: 145000 1.0378 4.1368 1.2289 0.0000 -20244.3008 3352.7748 0.0000 0.0000 1644.3187 -15240.8037 182.6822 -16885.1224 -15237.6345 179.9271 436.5946 470.3326 44324.5977 -0.9189 -0.8652
ENERGY: 155000 0.2643 3.4832 0.6563 0.0000 -20037.2769 3176.5334 0.0000 0.0000 1606.3555 -15249.9843 178.4645 -16856.3398 -15245.7043 180.2057 -361.3987 -303.9596 44338.7176 0.4106 0.5267
ENERGY: 165000 0.3058 3.7947 0.9726 0.0000 -20217.7301 3366.8170 0.0000 0.0000 1626.3247 -15219.5153 180.6830 -16845.8400 -15214.7344 177.9312 710.2019 767.9166 43981.5193 3.2991 3.4794
ENERGY: 175000 0.3502 3.4372 0.3811 0.0000 -20247.4018 3381.2571 0.0000 0.0000 1658.1767 -15203.7994 184.2218 -16861.9761 -15197.6339 179.9978 627.7078 662.4616 44167.7281 0.0378 0.7051
TCL: Running 50000 steps at 210 kelvin.
TCL: Setting parameter langevinTemp to 210
TCL: Running for 50000 steps
ETITLE: TS BOND ANGLE DIHED IMPRP ELECT VDW BOUNDARY MISC KINETIC TOTAL TEMP POTENTIAL TOTAL3 TEMPAVG PRESSURE GPRESSURE VOLUME PRESSAVG GPRESSAVG
ENERGY: 175000 0.3502 3.4372 0.3811 0.0000 -20247.4018 3381.2571 0.0000 0.0000 1657.3756 -15204.6005 184.1328 -16861.9761 -15201.6911 184.1328 598.5683 663.3120 44167.7281 598.5683 663.3120
ENERGY: 185000 0.2725 3.6746 0.1868 0.0000 -19101.2163 2946.8829 0.0000 0.0000 1836.9713 -14313.2282 204.0857 -16150.1995 -14310.3853 208.9312 -144.5008 -5.8510 44558.7439 3.6965 3.2531
ENERGY: 195000 0.7192 4.2204 1.1967 0.0000 -19068.4737 2851.1520 0.0000 0.0000 1890.4440 -14320.7414 210.0264 -16211.1854 -14315.0571 209.2581 -456.5580 -334.2660 43850.0030 0.4009 0.2405
ENERGY: 205000 1.3410 4.7349 0.8015 0.0000 -18983.9214 2834.7148 0.0000 0.0000 1844.7335 -14297.5957 204.9480 -16142.3292 -14292.9579 210.6608 -500.7511 -426.9133 44326.1013 -2.6699 -2.4525
ENERGY: 215000 1.1762 6.8545 1.8033 0.0000 -18869.4721 2739.4056 0.0000 0.0000 1894.2903 -14225.9423 210.4537 -16120.2325 -14220.8710 210.8087 -925.2012 -883.6115 44327.3917 3.4825 3.5448
ENERGY: 225000 1.5217 4.6615 1.6074 0.0000 -18804.8315 2723.6698 0.0000 0.0000 1923.3926 -14149.9785 213.6870 -16073.3711 -14145.2663 210.3239 -810.2870 -742.5117 44071.1013 6.0257 6.4537
TCL: Running 50000 steps at 240 kelvin.
TCL: Setting parameter langevinTemp to 240
TCL: Running for 50000 steps
ETITLE: TS BOND ANGLE DIHED IMPRP ELECT VDW BOUNDARY MISC KINETIC TOTAL TEMP POTENTIAL TOTAL3 TEMPAVG PRESSURE GPRESSURE VOLUME PRESSAVG GPRESSAVG
ENERGY: 225000 1.5217 4.6615 1.6074 0.0000 -18804.8315 2723.6698 0.0000 0.0000 1922.4578 -14150.9132 213.5831 -16073.3711 -14147.4015 213.5831 -821.3729 -741.3526 44071.1013 -821.3729 -741.3526
ENERGY: 235000 1.2211 7.8157 1.4170 0.0000 -18187.2793 2662.7517 0.0000 0.0000 2132.6167 -13381.4570 236.9316 -15514.0737 -13375.7179 239.8421 -103.8723 -13.9226 44912.0960 -0.9603 -1.3612
ENERGY: 245000 1.3653 4.2370 1.3108 0.0000 -18144.1389 2629.5620 0.0000 0.0000 2163.1145 -13344.5494 240.3198 -15507.6638 -13339.0425 238.4382 -193.9334 -124.5452 44854.9725 3.7716 4.0986
ENERGY: 255000 0.7070 6.8284 1.2933 0.0000 -18105.1353 2613.6341 0.0000 0.0000 2214.4934 -13268.1790 246.0280 -15482.6724 -13262.6311 241.2440 -235.9022 -163.8927 44806.5121 3.9041 3.8172
ENERGY: 265000 2.1364 6.7353 0.9342 0.0000 -18059.8907 2573.1260 0.0000 0.0000 2175.0727 -13301.8861 241.6484 -15476.9588 -13295.6182 240.0617 -400.5588 -304.9679 44733.8541 5.1373 5.0867
ENERGY: 275000 0.8560 6.6201 0.9484 0.0000 -18154.2543 2754.8647 0.0000 0.0000 2192.2939 -13198.6712 243.5616 -15390.9651 -13192.8281 239.9109 914.0562 1018.1256 44168.9551 -2.6653 -2.5147
TCL: Running 50000 steps at 270 kelvin.
TCL: Setting parameter langevinTemp to 270
TCL: Running for 50000 steps
ETITLE: TS BOND ANGLE DIHED IMPRP ELECT VDW BOUNDARY MISC KINETIC TOTAL TEMP POTENTIAL TOTAL3 TEMPAVG PRESSURE GPRESSURE VOLUME PRESSAVG GPRESSAVG
ENERGY: 275000 0.8560 6.6201 0.9484 0.0000 -18154.2543 2754.8647 0.0000 0.0000 2191.2377 -13199.7274 243.4443 -15390.9651 -13196.2749 243.4443 925.6951 1019.2470 44168.9551 925.6951 1019.2470
ENERGY: 285000 2.8482 5.0726 0.6534 0.0000 -17105.3610 2360.3425 0.0000 0.0000 2438.6138 -12297.8306 270.9275 -14736.4444 -12290.4594 271.3555 -374.2081 -296.0934 46134.1404 5.6590 6.1266
ENERGY: 295000 1.2909 5.5671 0.8098 0.0000 -17283.2064 2442.1083 0.0000 0.0000 2481.0029 -12352.4276 275.6369 -14833.4304 -12347.6491 270.7140 351.4520 424.9648 44914.7909 2.9702 3.1750
ENERGY: 305000 0.9383 9.3176 0.6437 0.0000 -17234.3837 2324.2770 0.0000 0.0000 2351.5165 -12547.6907 261.2511 -14899.2071 -12544.5455 270.0064 -510.4539 -414.7357 45065.7793 3.3475 3.1201
ENERGY: 315000 0.5121 5.3627 2.0864 0.0000 -17166.0048 2401.9619 0.0000 0.0000 2409.8000 -12346.2818 267.7264 -14756.0818 -12341.1060 270.4882 186.8628 262.8657 45220.8384 2.1201 1.6798
ENERGY: 325000 2.5514 4.8061 1.5965 0.0000 -17103.3776 2344.2361 0.0000 0.0000 2442.2842 -12307.9033 271.3353 -14750.1876 -12303.1614 270.7061 -230.6339 -170.2264 45542.2760 4.2801 4.5015
TCL: Running 1000000 steps at 300 kelvin.
TCL: Setting parameter langevinTemp to 300
TCL: Running for 1000000 steps
ETITLE: TS BOND ANGLE DIHED IMPRP ELECT VDW BOUNDARY MISC KINETIC TOTAL TEMP POTENTIAL TOTAL3 TEMPAVG PRESSURE GPRESSURE VOLUME PRESSAVG GPRESSAVG
ENERGY: 325000 2.5514 4.8061 1.5965 0.0000 -17103.3776 2344.2361 0.0000 0.0000 2441.0582 -12309.1293 271.1991 -14750.1876 -12305.5245 271.1991 -247.5744 -170.2379 45542.2760 -247.5744 -170.2379
ENERGY: 525000 1.6873 3.3195 0.3982 0.0000 -16209.6819 2136.1050 0.0000 0.0000 2641.6230 -11426.5489 293.4817 -14068.1719 -11422.5872 301.9621 -42.2448 73.9644 46534.1915 4.4446 4.4611
ENERGY: 725000 1.0961 13.6044 1.9563 0.0000 -16404.6620 2247.4021 0.0000 0.0000 2684.4153 -11456.1878 298.2358 -14140.6031 -11452.8681 300.3635 308.7775 422.6734 46734.9775 3.7523 3.0194
ENERGY: 925000 0.6769 7.8285 1.6019 0.0000 -16577.2354 2253.2820 0.0000 0.0000 2698.6995 -11615.1465 299.8228 -14313.8460 -11610.3444 301.2186 255.3646 332.3802 45850.3309 1.7402 1.7216
ENERGY: 1125000 1.6560 6.2655 0.2755 0.0000 -16281.1340 2101.6173 0.0000 0.0000 2673.9052 -11497.4145 297.0682 -14171.3197 -11491.5901 301.4637 -603.9939 -558.5483 46982.6634 3.5058 3.3261
ENERGY: 1325000 1.8392 12.7690 0.9454 0.0000 -16343.2556 2121.3460 0.0000 0.0000 2708.3402 -11498.0157 300.8939 -14206.3559 -11492.9206 299.4596 -559.0429 -492.3188 47083.1246 0.1885 0.4185
TCL: Exiting due to exit command.
