Info: SIMULATION PARAMETERS:
Info: TIMESTEP               2
Info: NUMBER OF STEPS        0
Info: STEPS PER CYCLE        10
Info: PERIODIC CELL BASIS 1  39.806 0 0
Info: PERIODIC CELL BASIS 2  0 40.42 0
Info: PERIODIC CELL BASIS 3  0 0 40.136
Info: PERIODIC CELL CENTER   0 0 0
Info: WRAPPING WATERS AROUND PERIODIC BOUNDARIES ON OUTPUT.
Info: WRAPPING ALL CLUSTERS AROUND PERIODIC BOUNDARIES ON OUTPUT.
Info: FIRST LDB TIMESTEP     50
Info: LAST LDB TIMESTEP     -1
Info: HOM BACKGROUND SCALING 1
Info: PME BACKGROUND SCALING 1
Info: MIN ATOMS PER PATCH    40
Info: EMPTY PATCH LOAD       40 ATOMS
Info: INITIAL TEMPERATURE    300
Info: CENTER OF MASS MOVING INITIALLY? NO
Info: DIELECTRIC             1
Info: EXCLUDE                SCALED ONE-FOUR
Info: 1-4 ELECTROSTATICS SCALED BY 0.833333
Info: MODIFIED 1-4 VDW PARAMETERS WILL BE USED
Info: DCD FILENAME           mobley_7983227_min.dcd
Info: DCD FREQUENCY          5000
Info: DCD FIRST STEP         5000
Info: DCD FILE WILL CONTAIN UNIT CELL DATA
Info: XST FILENAME           mobley_7983227_min.xst
Info: XST FREQUENCY          5000
Info: NO VELOCITY DCD OUTPUT
Info: NO FORCE DCD OUTPUT
Info: OUTPUT FILENAME        mobley_7983227_min
Info: BINARY OUTPUT FILES WILL BE USED
Info: RESTART FILENAME       mobley_7983227_min.restart
Info: RESTART FREQUENCY      5000
Info: BINARY RESTART FILES WILL BE USED
Info: CUTOFF                 9
Info: PAIRLIST DISTANCE      11
Info: PAIRLIST SHRINK RATE   0.01
Info: PAIRLIST GROW RATE     0.01
Info: PAIRLIST TRIGGER       0.3
Info: PAIRLISTS PER CYCLE    2
Info: PAIRLISTS ENABLED
Info: MARGIN                 8
Info: HYDROGEN GROUP CUTOFF  2.5
Info: PATCH DIMENSION        21.5
Info: ENERGY OUTPUT STEPS    5000
Info: ENERGY EVALUATION STEPS    5000
Info: OUTPUT ENERGY PRECISION 4
Info: CROSSTERM ENERGY INCLUDED IN DIHEDRAL
Info: TIMING OUTPUT STEPS    50000
Info: PRESSURE OUTPUT STEPS  5000
Info: LANGEVIN DYNAMICS ACTIVE
Info: LANGEVIN TEMPERATURE   300
Info: LANGEVIN USING BBK INTEGRATOR
Info: LANGEVIN DAMPING COEFFICIENT IS 1 INVERSE PS
Info: LANGEVIN DYNAMICS APPLIED TO HYDROGENS
Info: LANGEVIN PISTON PRESSURE CONTROL ACTIVE
Info:        TARGET PRESSURE IS 1.01325 BAR
Info:     OSCILLATION PERIOD IS 50 FS
Info:             DECAY TIME IS 25 FS
Info:     PISTON TEMPERATURE IS 300 K
Info:       PRESSURE CONTROL IS GROUP-BASED
Info:    INITIAL STRAIN RATE IS 0 0 0
Info:       CELL FLUCTUATION IS ISOTROPIC
Info: PARTICLE MESH EWALD (PME) ACTIVE
Info: PME TOLERANCE               1e-06
Info: PME EWALD COEFFICIENT       0.348832
Info: PME INTERPOLATION ORDER     4
Info: PME GRID DIMENSIONS         40 44 44
Info: PME MAXIMUM GRID SPACING    1
Info: FULL ELECTROSTATIC EVALUATION FREQUENCY      2
Info: USING VERLET I (r-RESPA) MTS SCHEME.
Info: C1 SPLITTING OF LONG RANGE ELECTROSTATICS
Info: PLACING ATOMS IN PATCHES BY HYDROGEN GROUPS
Info: RIGID BONDS TO HYDROGEN : ALL
Info:         ERROR TOLERANCE : 1e-08
Info:          MAX ITERATIONS : 100
Info: RIGID WATER USING SETTLE ALGORITHM
Info: RANDOM NUMBER SEED     1741393289
Info: USE HYDROGEN BONDS?    NO
Info: Using AMBER format force field!
Info: AMBER PARM FILE        mobley_7983227.prmtop
Info: COORDINATE PDB         mobley_7983227.pdb
Info: Exclusions will be read from PARM file!
Info: SCNB (VDW SCALING)     2
Info: USING ARITHMETIC MEAN TO COMBINE L-J SIGMA PARAMETERS
Info: SUMMARY OF PARAMETERS:
Info: 7 BONDS
Info: 8 ANGLES
Info:   8 HARMONIC
Info:   0 COSINE-BASED
Info: 8 DIHEDRAL
Info: 0 IMPROPER
Info: 0 CROSSTERM
Info: 0 VDW
Info: 28 VDW_PAIRS
Info: 0 NBTHOLE_PAIRS
Info: STRUCTURE SUMMARY:
Info: 4707 ATOMS
Info: 4706 BONDS
Info: 31 ANGLES
Info: 39 DIHEDRALS
Info: 0 IMPROPERS
Info: 0 CROSSTERMS
Info: 4776 EXCLUSIONS
Info: 4701 RIGID BONDS
Info: 9420 DEGREES OF FREEDOM
Info: 1569 HYDROGEN GROUPS
Info: 4 ATOMS IN LARGEST HYDROGEN GROUP
Info: 1569 MIGRATION GROUPS
Info: 4 ATOMS IN LARGEST MIGRATION GROUP
Info: TOTAL MASS = 28247.2 amu
Info: TOTAL CHARGE = -0.000200011 e
Info: MASS DENSITY = 0.726365 g/cm^3
Info: ATOM DENSITY = 0.0728895 atoms/A^3
Info: ADDED 0 IMPLICIT EXCLUSIONS
Info: NONBONDED TABLE R-SQUARED SPACING: 0.0625
Info: NONBONDED TABLE SIZE: 705 POINTS
Info: REMOVING COM VELOCITY -0.00795935 -0.063888 -0.0306094
TCL: Minimizing for 2000 steps
ETITLE: TS BOND ANGLE DIHED IMPRP ELECT VDW BOUNDARY MISC KINETIC TOTAL TEMP POTENTIAL TOTAL3 TEMPAVG PRESSURE GPRESSURE VOLUME PRESSAVG GPRESSAVG
ENERGY: 0 0.0581 0.9262 0.0504 0.0000 -14523.6138 1622.4898 0.0000 0.0000 0.0000 -12900.0893 0.0000 -12900.0893 -12900.0893 0.0000 11004.4272 -15929.0286 64577.1592 11004.4272 -15929.0286
ENERGY: 400 2.0940 2.9535 0.5003 0.0000 -19783.3349 3000.3932 0.0000 0.0000 0.0000 -16777.3938 0.0000 -16777.3938 -16777.3938 0.0000 16504.8950 16318.7445 64577.1592 16504.8950 16318.7445
ENERGY: 800 1.1400 1.7485 0.4969 0.0000 -20840.2951 3431.0938 0.0000 0.0000 0.0000 -17405.8160 0.0000 -17405.8160 -17405.8160 0.0000 18588.8646 18374.9020 64577.1592 18588.8646 18374.9020
ENERGY: 1200 0.6486 1.0063 0.2489 0.0000 -21267.8177 3622.3332 0.0000 0.0000 0.0000 -17643.5806 0.0000 -17643.5806 -17643.5806 0.0000 19575.0186 19349.3106 64577.1592 19575.0186 19349.3106
ENERGY: 1600 0.2168 1.2647 0.2296 0.0000 -21495.3739 3737.9336 0.0000 0.0000 0.0000 -17755.7292 0.0000 -17755.7292 -17755.7292 0.0000 20185.0955 19909.9915 64577.1592 20185.0955 19909.9915
ENERGY: 2000 0.3899 0.9044 0.2188 0.0000 -21614.1672 3789.6089 0.0000 0.0000 0.0000 -17823.0453 0.0000 -17823.0453 -17823.0453 0.0000 20509.2392 20227.6738 64577.1592 20509.2392 20227.6738
TCL: Exiting due to exit command.
Info: NAMD 3.0.1 for Linux-x86_64-multicore
Info: Please visit http://www.ks.uiuc.edu/Research/namd/
Info: for updates, documentation, and support information.
Info: Please cite Phillips et al., J. Chem. Phys. 153:044130 (2020) doi:10.1063/5.0014475
Info: in all publications reporting results obtained with NAMD.
Info: Based on Charm++/Converse 80000 for multicore-linux-x86_64-gcc
Info: Built Mon Oct 14 11:11:06 CDT 2024 by dhardy on athine.ks.uiuc.edu
Info: 1 NAMD  3.0.1  Linux-x86_64-multicore  16    k027  z5358697
Info: Running on 16 processors, 1 nodes, 1 physical nodes.
Info: CPU topology information available.
Info: Charm++/Converse parallel runtime startup completed at 0.00790126 s
Info: 1043.46 MB of memory in use based on /proc/self/stat
Info: Configuration file is mobley_7983227_equil.namd
Info: Working in the current directory /srv/scratch/z5358697/prod_prep_10/7983227
TCL: Running 25000 steps at 30 kelvin.
TCL: Suspending until startup complete.
Info: SIMULATION PARAMETERS:
Info: TIMESTEP               2
Info: NUMBER OF STEPS        0
Info: STEPS PER CYCLE        10
Info: PERIODIC CELL BASIS 1  39.806 0 0
Info: PERIODIC CELL BASIS 2  0 40.42 0
Info: PERIODIC CELL BASIS 3  0 0 40.136
Info: PERIODIC CELL CENTER   0 0 0
Info: WRAPPING WATERS AROUND PERIODIC BOUNDARIES ON OUTPUT.
Info: WRAPPING ALL CLUSTERS AROUND PERIODIC BOUNDARIES ON OUTPUT.
Info: FIRST LDB TIMESTEP     50
Info: LAST LDB TIMESTEP     -1
Info: HOM BACKGROUND SCALING 1
Info: PME BACKGROUND SCALING 1
Info: MIN ATOMS PER PATCH    40
Info: EMPTY PATCH LOAD       40 ATOMS
Info: INITIAL TEMPERATURE    300
Info: CENTER OF MASS MOVING INITIALLY? NO
Info: DIELECTRIC             1
Info: EXCLUDE                SCALED ONE-FOUR
Info: 1-4 ELECTROSTATICS SCALED BY 0.833333
Info: MODIFIED 1-4 VDW PARAMETERS WILL BE USED
Info: DCD FILENAME           mobley_7983227_equil.dcd
Info: DCD FREQUENCY          5000
Info: DCD FIRST STEP         5000
Info: DCD FILE WILL CONTAIN UNIT CELL DATA
Info: XST FILENAME           mobley_7983227_equil.xst
Info: XST FREQUENCY          5000
Info: NO VELOCITY DCD OUTPUT
Info: NO FORCE DCD OUTPUT
Info: OUTPUT FILENAME        mobley_7983227_equil
Info: BINARY OUTPUT FILES WILL BE USED
Info: RESTART FILENAME       mobley_7983227_equil.restart
Info: RESTART FREQUENCY      5000
Info: BINARY RESTART FILES WILL BE USED
Info: CUTOFF                 9
Info: PAIRLIST DISTANCE      11
Info: PAIRLIST SHRINK RATE   0.01
Info: PAIRLIST GROW RATE     0.01
Info: PAIRLIST TRIGGER       0.3
Info: PAIRLISTS PER CYCLE    2
Info: PAIRLISTS ENABLED
Info: MARGIN                 8
Info: HYDROGEN GROUP CUTOFF  2.5
Info: PATCH DIMENSION        21.5
Info: ENERGY OUTPUT STEPS    5000
Info: ENERGY EVALUATION STEPS    5000
Info: OUTPUT ENERGY PRECISION 4
Info: CROSSTERM ENERGY INCLUDED IN DIHEDRAL
Info: TIMING OUTPUT STEPS    50000
Info: PRESSURE OUTPUT STEPS  5000
Info: LANGEVIN DYNAMICS ACTIVE
Info: LANGEVIN TEMPERATURE   30
Info: LANGEVIN USING BBK INTEGRATOR
Info: LANGEVIN DAMPING COEFFICIENT IS 1 INVERSE PS
Info: LANGEVIN DYNAMICS APPLIED TO HYDROGENS
Info: LANGEVIN PISTON PRESSURE CONTROL ACTIVE
Info:        TARGET PRESSURE IS 1.01325 BAR
Info:     OSCILLATION PERIOD IS 50 FS
Info:             DECAY TIME IS 25 FS
Info:     PISTON TEMPERATURE IS 300 K
Info:       PRESSURE CONTROL IS GROUP-BASED
Info:    INITIAL STRAIN RATE IS 0 0 0
Info:       CELL FLUCTUATION IS ISOTROPIC
Info: PARTICLE MESH EWALD (PME) ACTIVE
Info: PME TOLERANCE               1e-06
Info: PME EWALD COEFFICIENT       0.348832
Info: PME INTERPOLATION ORDER     4
Info: PME GRID DIMENSIONS         40 44 44
Info: PME MAXIMUM GRID SPACING    1
Info: FULL ELECTROSTATIC EVALUATION FREQUENCY      2
Info: USING VERLET I (r-RESPA) MTS SCHEME.
Info: C1 SPLITTING OF LONG RANGE ELECTROSTATICS
Info: PLACING ATOMS IN PATCHES BY HYDROGEN GROUPS
Info: RIGID BONDS TO HYDROGEN : ALL
Info:         ERROR TOLERANCE : 1e-08
Info:          MAX ITERATIONS : 100
Info: RIGID WATER USING SETTLE ALGORITHM
Info: RANDOM NUMBER SEED     1741393307
Info: USE HYDROGEN BONDS?    NO
Info: Using AMBER format force field!
Info: AMBER PARM FILE        mobley_7983227.prmtop
Info: COORDINATE PDB         mobley_7983227.pdb
Info: Exclusions will be read from PARM file!
Info: SCNB (VDW SCALING)     2
Info: USING ARITHMETIC MEAN TO COMBINE L-J SIGMA PARAMETERS
Info: BINARY COORDINATES     mobley_7983227_min.coor
Info: SUMMARY OF PARAMETERS:
Info: 7 BONDS
Info: 8 ANGLES
Info: 8 DIHEDRAL
Info: 0 IMPROPER
Info: 0 CROSSTERM
Info: 0 VDW
Info: 28 VDW_PAIRS
Info: 0 NBTHOLE_PAIRS
Info: STRUCTURE SUMMARY:
Info: 4707 ATOMS
Info: 4706 BONDS
Info: 31 ANGLES
Info: 39 DIHEDRALS
Info: 0 IMPROPERS
Info: 0 CROSSTERMS
Info: 4776 EXCLUSIONS
Info: 4701 RIGID BONDS
Info: 9420 DEGREES OF FREEDOM
Info: 1569 HYDROGEN GROUPS
Info: 4 ATOMS IN LARGEST HYDROGEN GROUP
Info: 1569 MIGRATION GROUPS
Info: 4 ATOMS IN LARGEST MIGRATION GROUP
Info: TOTAL MASS = 28247.2 amu
Info: TOTAL CHARGE = -0.000200011 e
Info: MASS DENSITY = 0.726365 g/cm^3
Info: ATOM DENSITY = 0.0728895 atoms/A^3
Info: ADDED 0 IMPLICIT EXCLUSIONS
Info: NONBONDED TABLE R-SQUARED SPACING: 0.0625
Info: NONBONDED TABLE SIZE: 705 POINTS
Info: REMOVING COM VELOCITY -0.00100786 0.0694456 -0.0959861
TCL: Running for 25000 steps
ETITLE: TS BOND ANGLE DIHED IMPRP ELECT VDW BOUNDARY MISC KINETIC TOTAL TEMP POTENTIAL TOTAL3 TEMPAVG PRESSURE GPRESSURE VOLUME PRESSAVG GPRESSAVG
ENERGY: 0 0.3899 0.9044 0.2188 0.0000 -21614.1672 3789.6089 0.0000 0.0000 2828.6663 -14994.3790 302.2186 -17823.0453 -14993.7999 302.2186 490.6261 531.6243 64577.1592 490.6261 531.6243
ENERGY: 5000 0.2634 1.6424 0.3145 0.0000 -22579.9234 3890.1273 0.0000 0.0000 291.9397 -18395.6361 31.1912 -18687.5758 -18394.6066 47.9338 1.7620 53.2498 45393.4070 -3.8322 -3.9618
ENERGY: 10000 0.2467 2.0879 0.2873 0.0000 -22615.0657 3889.8679 0.0000 0.0000 286.3164 -18436.2595 30.5904 -18722.5759 -18435.6257 30.1001 -89.5941 -28.3805 45262.2627 3.5880 3.5787
ENERGY: 15000 0.3346 1.7685 0.4852 0.0000 -22741.3151 3998.6431 0.0000 0.0000 276.2399 -18463.8439 29.5138 -18740.0837 -18463.0661 29.7933 368.6381 441.4777 45254.9870 1.6367 1.5526
ENERGY: 20000 0.3704 1.3787 0.1570 0.0000 -22554.8426 3802.4837 0.0000 0.0000 277.2355 -18473.2171 29.6202 -18750.4526 -18472.5143 30.0690 -680.7787 -628.1225 45495.4364 4.2071 4.4350
ENERGY: 25000 0.4042 1.8033 0.2088 0.0000 -22584.9612 3829.8962 0.0000 0.0000 280.9772 -18471.6716 30.0200 -18752.6487 -18470.7570 29.9536 -556.5347 -495.4129 45429.7443 -0.7749 -0.8986
TCL: Running 25000 steps at 60 kelvin.
TCL: Setting parameter langevinTemp to 60
TCL: Running for 25000 steps
ETITLE: TS BOND ANGLE DIHED IMPRP ELECT VDW BOUNDARY MISC KINETIC TOTAL TEMP POTENTIAL TOTAL3 TEMPAVG PRESSURE GPRESSURE VOLUME PRESSAVG GPRESSAVG
ENERGY: 25000 0.4042 1.8033 0.2088 0.0000 -22584.9612 3829.8962 0.0000 0.0000 280.8365 -18471.8122 30.0050 -18752.6487 -18471.2854 30.0050 -562.7100 -495.2474 45429.7443 -562.7100 -495.2474
ENERGY: 30000 0.9619 2.9677 0.2849 0.0000 -22364.3448 3870.2866 0.0000 0.0000 562.7713 -17927.0722 60.1273 -18489.8436 -17925.5017 57.3176 332.7411 392.4894 45264.4674 5.3717 5.6015
ENERGY: 35000 0.1229 2.3412 0.4800 0.0000 -22411.2519 3870.6254 0.0000 0.0000 561.8384 -17975.8441 60.0276 -18537.6825 -17973.8043 60.1386 271.4342 325.0694 45299.1485 6.0675 6.1924
ENERGY: 40000 0.3018 3.1453 0.4924 0.0000 -22431.1297 3837.1519 0.0000 0.0000 552.5733 -18037.4649 59.0377 -18590.0382 -18036.2942 60.2509 -83.0898 -30.5734 45294.8923 2.6974 2.3986
ENERGY: 45000 0.3486 1.9544 0.7951 0.0000 -22443.7094 3853.6429 0.0000 0.0000 572.0303 -18014.9382 61.1165 -18586.9684 -18013.8382 59.7869 65.2417 122.8408 45137.8019 7.6506 7.6420
ENERGY: 50000 0.3119 2.8627 0.6697 0.0000 -22381.8008 3778.2158 0.0000 0.0000 580.1984 -18019.5424 61.9892 -18599.7408 -18017.9173 60.7739 -328.0075 -245.6848 45044.6648 5.7184 5.5674
TCL: Running 25000 steps at 90 kelvin.
TCL: Setting parameter langevinTemp to 90
TCL: Running for 25000 steps
ETITLE: TS BOND ANGLE DIHED IMPRP ELECT VDW BOUNDARY MISC KINETIC TOTAL TEMP POTENTIAL TOTAL3 TEMPAVG PRESSURE GPRESSURE VOLUME PRESSAVG GPRESSAVG
ENERGY: 50000 0.3119 2.8627 0.6697 0.0000 -22381.8008 3778.2158 0.0000 0.0000 579.9214 -18019.8194 61.9596 -18599.7408 -18018.5861 61.9596 -309.6197 -245.1154 45044.6648 -309.6197 -245.1154
ENERGY: 55000 0.5629 4.7747 0.2650 0.0000 -22015.6241 3698.0882 0.0000 0.0000 867.7798 -17444.1536 92.7148 -18311.9334 -17441.5876 87.1964 -306.7885 -212.9825 45724.6144 -1.2500 -1.3697
ENERGY: 60000 0.4249 3.3593 1.1181 0.0000 -22134.8768 3739.8278 0.0000 0.0000 820.8530 -17569.2938 87.7011 -18390.1467 -17568.3124 90.0598 -171.8337 -100.4031 45528.4019 2.5657 2.6934
ENERGY: 65000 1.2188 1.9639 0.5610 0.0000 -22402.8173 4008.0840 0.0000 0.0000 843.6883 -17547.3015 90.1408 -18390.9898 -17544.9855 89.8341 1160.5282 1247.9749 45237.9939 3.2441 3.4686
ENERGY: 70000 0.7401 3.2128 1.0871 0.0000 -22326.4252 3926.1262 0.0000 0.0000 842.0451 -17553.2139 89.9653 -18395.2590 -17551.1896 90.1257 765.0900 828.3141 45300.7431 6.1582 6.0591
ENERGY: 75000 0.2516 2.1165 0.9821 0.0000 -22376.5665 3932.9950 0.0000 0.0000 859.0150 -17581.2064 91.7783 -18440.2214 -17579.3990 90.3635 718.9337 760.0081 45282.1689 1.9411 2.3378
TCL: Running 25000 steps at 120 kelvin.
TCL: Setting parameter langevinTemp to 120
TCL: Running for 25000 steps
ETITLE: TS BOND ANGLE DIHED IMPRP ELECT VDW BOUNDARY MISC KINETIC TOTAL TEMP POTENTIAL TOTAL3 TEMPAVG PRESSURE GPRESSURE VOLUME PRESSAVG GPRESSAVG
ENERGY: 75000 0.2516 2.1165 0.9821 0.0000 -22376.5665 3932.9950 0.0000 0.0000 858.5948 -17581.6266 91.7335 -18440.2214 -17579.7496 91.7335 701.2395 759.6178 45282.1689 701.2395 759.6178
ENERGY: 80000 0.5970 2.8981 0.8339 0.0000 -21576.5247 3498.3226 0.0000 0.0000 1110.1879 -16963.6851 118.6140 -18073.8730 -16958.9451 116.9912 -793.1484 -731.1173 45995.5210 1.2984 1.1863
ENERGY: 85000 1.0604 5.1973 1.6513 0.0000 -21742.8798 3581.0852 0.0000 0.0000 1120.2265 -17033.6592 119.6865 -18153.8856 -17030.9151 120.8940 -450.2199 -391.9283 45606.6330 0.2493 0.3792
ENERGY: 90000 0.9462 3.9436 1.0128 0.0000 -21978.4825 3790.8360 0.0000 0.0000 1125.6551 -17056.0889 120.2665 -18181.7440 -17054.2608 120.1033 618.8768 687.1230 45308.3725 2.9057 3.2626
ENERGY: 95000 0.8871 5.2155 1.3565 0.0000 -21875.0980 3699.4457 0.0000 0.0000 1117.9365 -17050.2566 119.4419 -18168.1932 -17046.4464 120.3111 228.9133 258.9568 45335.4165 4.5317 4.2769
ENERGY: 100000 1.1268 3.6309 0.4649 0.0000 -21851.1386 3660.3970 0.0000 0.0000 1127.9972 -17057.5218 120.5168 -18185.5190 -17054.3614 120.0655 -164.2383 -103.2174 45701.6643 0.7874 0.5041
TCL: Running 25000 steps at 150 kelvin.
TCL: Setting parameter langevinTemp to 150
TCL: Running for 25000 steps
ETITLE: TS BOND ANGLE DIHED IMPRP ELECT VDW BOUNDARY MISC KINETIC TOTAL TEMP POTENTIAL TOTAL3 TEMPAVG PRESSURE GPRESSURE VOLUME PRESSAVG GPRESSAVG
ENERGY: 100000 1.1268 3.6309 0.4649 0.0000 -21851.1386 3660.3970 0.0000 0.0000 1127.4515 -17058.0675 120.4585 -18185.5190 -17055.4655 120.4585 -165.8281 -103.3848 45701.6643 -165.8281 -103.3848
ENERGY: 105000 0.5753 4.9643 0.5843 0.0000 -21232.8325 3423.5992 0.0000 0.0000 1418.6170 -16384.4924 151.5670 -17803.1094 -16380.6095 146.2822 -414.3794 -343.0734 45932.1289 -0.0447 0.4083
ENERGY: 110000 4.0859 4.6059 0.7425 0.0000 -21378.7222 3525.5070 0.0000 0.0000 1419.8259 -16423.9550 151.6962 -17843.7809 -16420.2724 151.1186 -133.9464 -73.9249 46000.3249 6.1041 6.1644
ENERGY: 115000 1.4069 3.3904 0.8880 0.0000 -21523.6859 3688.3730 0.0000 0.0000 1411.1412 -16418.4864 150.7683 -17829.6276 -16414.3175 151.4291 870.9533 963.6258 45561.3721 3.8489 3.9194
ENERGY: 120000 0.2833 5.2064 0.5449 0.0000 -21503.8919 3611.8576 0.0000 0.0000 1411.6818 -16474.3178 150.8260 -17885.9997 -16471.9944 150.6946 534.5032 545.8387 45547.7088 -1.5759 -1.5543
ENERGY: 125000 1.4833 6.1032 0.7904 0.0000 -21594.6588 3669.8075 0.0000 0.0000 1412.1973 -16504.2771 150.8811 -17916.4743 -16501.7719 149.7000 712.8212 781.3284 45345.6401 3.9246 4.0339
TCL: Running 50000 steps at 180 kelvin.
TCL: Setting parameter langevinTemp to 180
TCL: Running for 50000 steps
ETITLE: TS BOND ANGLE DIHED IMPRP ELECT VDW BOUNDARY MISC KINETIC TOTAL TEMP POTENTIAL TOTAL3 TEMPAVG PRESSURE GPRESSURE VOLUME PRESSAVG GPRESSAVG
ENERGY: 125000 1.4833 6.1032 0.7904 0.0000 -21594.6588 3669.8075 0.0000 0.0000 1411.5129 -16504.9615 150.8080 -17916.4743 -16502.5172 150.8080 716.8884 781.3943 45345.6401 716.8884 781.3943
ENERGY: 135000 1.1803 5.4423 1.2994 0.0000 -20868.8210 3424.1117 0.0000 0.0000 1654.2585 -15782.5287 176.7433 -17436.7872 -15778.4137 179.2582 367.3089 447.2094 45973.2804 3.5945 2.8116
ENERGY: 145000 0.8917 4.9806 0.7313 0.0000 -20892.4709 3391.4278 0.0000 0.0000 1655.3331 -15839.1063 176.8581 -17494.4395 -15833.6771 179.7693 111.5068 163.9656 45888.3929 5.5112 5.7675
ENERGY: 155000 0.6576 4.8318 0.3815 0.0000 -20616.9684 3174.2292 0.0000 0.0000 1689.3815 -15747.4868 180.4958 -17436.8683 -15743.3768 180.0428 -866.8395 -793.2742 46215.9295 3.6451 3.7977
ENERGY: 165000 1.1699 3.8542 0.7198 0.0000 -20986.3098 3415.3636 0.0000 0.0000 1669.0787 -15896.1237 178.3267 -17565.2024 -15892.4907 179.2760 90.1031 115.1371 45904.3225 5.5455 5.3491
ENERGY: 175000 1.6920 7.3371 0.9630 0.0000 -20909.6125 3407.2031 0.0000 0.0000 1665.0890 -15827.3283 177.9004 -17492.4173 -15822.2201 179.4352 188.6412 231.3038 45965.1797 2.0503 1.8799
TCL: Running 50000 steps at 210 kelvin.
TCL: Setting parameter langevinTemp to 210
TCL: Running for 50000 steps
ETITLE: TS BOND ANGLE DIHED IMPRP ELECT VDW BOUNDARY MISC KINETIC TOTAL TEMP POTENTIAL TOTAL3 TEMPAVG PRESSURE GPRESSURE VOLUME PRESSAVG GPRESSAVG
ENERGY: 175000 1.6920 7.3371 0.9630 0.0000 -20909.6125 3407.2031 0.0000 0.0000 1664.2107 -15828.2066 177.8066 -17492.4173 -15825.6835 177.8066 172.5473 232.0465 45965.1797 172.5473 232.0465
ENERGY: 185000 2.5948 4.9451 0.7030 0.0000 -20068.1787 3185.8635 0.0000 0.0000 1952.3660 -14921.7063 208.5935 -16874.0723 -14915.7154 208.2594 519.2360 598.3551 45670.5963 2.1132 2.4463
ENERGY: 195000 1.1999 4.2408 0.8958 0.0000 -19546.7919 2826.1533 0.0000 0.0000 1961.2627 -14753.0393 209.5440 -16714.3021 -14748.7696 211.1415 -1042.6883 -935.3429 45989.5499 -2.4902 -2.5645
ENERGY: 205000 2.5747 9.2311 0.9179 0.0000 -19678.6687 2846.2495 0.0000 0.0000 1950.1605 -14869.5349 208.3578 -16819.6954 -14865.8917 209.4422 -1228.4687 -1137.0900 46145.1131 1.1240 1.2157
ENERGY: 215000 2.1340 8.0647 0.9851 0.0000 -19781.4413 2948.2733 0.0000 0.0000 1943.7844 -14878.1998 207.6766 -16821.9842 -14872.2008 210.8181 -594.6240 -533.9418 46082.6167 2.6127 2.3803
ENERGY: 225000 1.9593 5.5714 1.7871 0.0000 -19838.9729 3016.0840 0.0000 0.0000 1950.0132 -14863.5579 208.3421 -16813.5711 -14861.4396 210.2769 -188.9024 -127.6845 45901.2638 2.5133 2.1175
TCL: Running 50000 steps at 240 kelvin.
TCL: Setting parameter langevinTemp to 240
TCL: Running for 50000 steps
ETITLE: TS BOND ANGLE DIHED IMPRP ELECT VDW BOUNDARY MISC KINETIC TOTAL TEMP POTENTIAL TOTAL3 TEMPAVG PRESSURE GPRESSURE VOLUME PRESSAVG GPRESSAVG
ENERGY: 225000 1.9593 5.5714 1.7871 0.0000 -19838.9729 3016.0840 0.0000 0.0000 1949.0292 -14864.5419 208.2370 -16813.5711 -14860.5255 208.2370 -205.5772 -128.8838 45901.2638 -205.5772 -128.8838
ENERGY: 235000 2.4268 8.0670 1.3178 0.0000 -18649.9763 2611.3402 0.0000 0.0000 2278.7081 -13748.1164 243.4603 -16026.8245 -13744.3415 240.2546 -693.9797 -624.4626 46624.2138 -1.0267 -0.8905
ENERGY: 245000 0.6593 5.3953 2.6099 0.0000 -18916.5616 2749.4336 0.0000 0.0000 2263.3735 -13895.0899 241.8219 -16158.4634 -13888.9544 240.2789 -76.3580 -24.3520 46310.3644 4.8938 5.3635
ENERGY: 255000 2.6999 4.7767 1.3010 0.0000 -18759.6721 2675.5090 0.0000 0.0000 2295.4632 -13779.9224 245.2504 -16075.3856 -13777.1747 239.4885 -541.0157 -375.9498 46648.7344 4.6454 4.4014
ENERGY: 265000 1.3387 7.5601 1.1151 0.0000 -19065.7826 2842.8818 0.0000 0.0000 2245.8841 -13967.0028 239.9534 -16212.8869 -13961.7614 239.0452 298.4870 418.0215 45833.9389 3.8520 3.9624
ENERGY: 275000 1.9102 11.0230 0.7323 0.0000 -18920.1383 2754.5566 0.0000 0.0000 2240.5583 -13911.3578 239.3843 -16151.9161 -13906.3433 239.5377 -119.7005 -70.2915 46258.5963 0.9621 1.3002
TCL: Running 50000 steps at 270 kelvin.
TCL: Setting parameter langevinTemp to 270
TCL: Running for 50000 steps
ETITLE: TS BOND ANGLE DIHED IMPRP ELECT VDW BOUNDARY MISC KINETIC TOTAL TEMP POTENTIAL TOTAL3 TEMPAVG PRESSURE GPRESSURE VOLUME PRESSAVG GPRESSAVG
ENERGY: 275000 1.9102 11.0230 0.7323 0.0000 -18920.1383 2754.5566 0.0000 0.0000 2239.4217 -13912.4944 239.2629 -16151.9161 -13909.0645 239.2629 -147.4182 -69.8989 46258.5963 -147.4182 -69.8989
ENERGY: 285000 1.1970 6.5882 1.8933 0.0000 -18039.5882 2534.6829 0.0000 0.0000 2555.0261 -12940.2007 272.9825 -15495.2268 -12935.8248 269.2723 -133.4504 -0.6429 47358.1383 4.3075 3.9970
ENERGY: 295000 1.1102 8.9675 1.8771 0.0000 -17974.7322 2584.4482 0.0000 0.0000 2574.3796 -12803.9495 275.0503 -15378.3292 -12801.3648 269.8479 454.3124 521.4526 47090.3480 7.4057 7.2730
ENERGY: 305000 1.9538 8.7858 0.6539 0.0000 -17753.8570 2367.2472 0.0000 0.0000 2534.3747 -12840.8417 270.7761 -15375.2164 -12838.6712 271.1046 -596.1196 -540.6301 47374.9741 0.5655 0.6754
ENERGY: 315000 2.3779 10.9277 1.2780 0.0000 -17896.0707 2397.8075 0.0000 0.0000 2512.5526 -12971.1270 268.4446 -15483.6795 -12968.6679 268.3471 -781.0309 -707.4225 47398.0002 2.6598 2.3648
ENERGY: 325000 0.2649 7.8834 1.7813 0.0000 -18019.7689 2447.0924 0.0000 0.0000 2582.7024 -12980.0445 275.9395 -15562.7469 -12973.0754 270.9133 -569.0587 -481.2550 47122.7684 0.6865 1.0529
TCL: Running 1000000 steps at 300 kelvin.
TCL: Setting parameter langevinTemp to 300
TCL: Running for 1000000 steps
ETITLE: TS BOND ANGLE DIHED IMPRP ELECT VDW BOUNDARY MISC KINETIC TOTAL TEMP POTENTIAL TOTAL3 TEMPAVG PRESSURE GPRESSURE VOLUME PRESSAVG GPRESSAVG
ENERGY: 325000 0.2649 7.8834 1.7813 0.0000 -18019.7689 2447.0924 0.0000 0.0000 2581.4634 -12981.2835 275.8071 -15562.7469 -12976.9966 275.8071 -571.2768 -479.9276 47122.7684 -571.2768 -479.9276
ENERGY: 525000 2.5188 9.1756 0.8084 0.0000 -17123.3191 2305.5985 0.0000 0.0000 2768.1229 -12037.0949 295.7501 -14805.2178 -12031.7886 297.8680 -97.1339 5.4914 48310.5238 5.5756 5.1859
ENERGY: 725000 2.3608 9.1945 0.3792 0.0000 -17082.3472 2184.7083 0.0000 0.0000 2723.3254 -12162.3789 290.9638 -14885.7043 -12158.9967 299.4544 -798.5286 -696.5987 48466.6643 3.2556 2.8397
ENERGY: 925000 1.1863 7.6560 1.6665 0.0000 -17078.6127 2202.0553 0.0000 0.0000 2806.5969 -12059.4516 299.8607 -14866.0485 -12054.8157 300.8464 -549.6721 -499.4647 48212.4079 5.6275 6.0549
ENERGY: 1125000 3.6180 5.0317 1.7669 0.0000 -16940.3340 2217.7679 0.0000 0.0000 2817.2170 -11894.9325 300.9953 -14712.1495 -11889.3023 299.2031 -185.3137 -121.8874 48294.8264 2.8486 2.7535
ENERGY: 1325000 1.4902 7.0656 1.6440 0.0000 -17296.0128 2431.2617 0.0000 0.0000 2836.9893 -12017.5620 303.1078 -14854.5513 -12012.8832 301.3809 572.6031 685.6850 47745.0402 4.5107 4.4110
TCL: Exiting due to exit command.
