Info: SIMULATION PARAMETERS:
Info: TIMESTEP               2
Info: NUMBER OF STEPS        0
Info: STEPS PER CYCLE        10
Info: PERIODIC CELL BASIS 1  30 0 0
Info: PERIODIC CELL BASIS 2  0 30 0
Info: PERIODIC CELL BASIS 3  0 0 30
Info: PERIODIC CELL CENTER   0 0 0
Info: WRAPPING ALL CLUSTERS AROUND PERIODIC BOUNDARIES ON OUTPUT.
Info: FIRST LDB TIMESTEP     50
Info: LAST LDB TIMESTEP     -1
Info: HOM BACKGROUND SCALING 1
Info: MIN ATOMS PER PATCH    40
Info: EMPTY PATCH LOAD       40 ATOMS
Info: INITIAL TEMPERATURE    298
Info: CENTER OF MASS MOVING INITIALLY? NO
Info: DIELECTRIC             1
Info: EXCLUDE                SCALED ONE-FOUR
Info: 1-4 ELECTROSTATICS SCALED BY 1
Info: MODIFIED 1-4 VDW PARAMETERS WILL BE USED
Info: DCD FILENAME           output.dcd
Info: DCD FREQUENCY          20000
Info: DCD FIRST STEP         20000
Info: DCD FILE WILL CONTAIN UNIT CELL DATA
Info: NO EXTENDED SYSTEM TRAJECTORY OUTPUT
Info: NO VELOCITY DCD OUTPUT
Info: NO FORCE DCD OUTPUT
Info: OUTPUT FILENAME        output
Info: BINARY OUTPUT FILES WILL BE USED
Info: NO RESTART FILE
Info: SWITCHING ACTIVE
Info: SWITCHING ON           10
Info: SWITCHING OFF          12
Info: PAIRLIST DISTANCE      14
Info: PAIRLIST SHRINK RATE   0.01
Info: PAIRLIST GROW RATE     0.01
Info: PAIRLIST TRIGGER       0.3
Info: PAIRLISTS PER CYCLE    2
Info: PAIRLISTS ENABLED
Info: MARGIN                 0
Info: HYDROGEN GROUP CUTOFF  2.5
Info: PATCH DIMENSION        16.5
Info: ENERGY OUTPUT STEPS    20000
Info: ENERGY EVALUATION STEPS    20000
Info: OUTPUT ENERGY PRECISION 4
Info: CROSSTERM ENERGY INCLUDED IN DIHEDRAL
Info: TIMING OUTPUT STEPS    20000
Info: LANGEVIN DYNAMICS ACTIVE
Info: LANGEVIN TEMPERATURE   298
Info: LANGEVIN USING BBK INTEGRATOR
Info: LANGEVIN DAMPING COEFFICIENT IS 1 INVERSE PS
Info: LANGEVIN DYNAMICS NOT APPLIED TO HYDROGENS
Info: MULTILEVEL SUMMATION METHOD (MSM) FOR ELECTROSTATICS ACTIVE
Info: MSM WITH C1 CUBIC INTERPOLATION AND C2 TAYLOR SPLITTING
Info: FULL ELECTROSTATIC EVALUATION FREQUENCY      2
Info: USING VERLET I (r-RESPA) MTS SCHEME.
Info: C1 SPLITTING OF LONG RANGE ELECTROSTATICS
Info: PLACING ATOMS IN PATCHES BY HYDROGEN GROUPS
Info: RIGID BONDS TO HYDROGEN : ALL
Info:         ERROR TOLERANCE : 1e-08
Info:          MAX ITERATIONS : 100
Info: RIGID WATER USING SETTLE ALGORITHM
Info: RANDOM NUMBER SEED     1740217644
Info: USE HYDROGEN BONDS?    NO
Info: COORDINATE PDB         ionized.pdb
Info: STRUCTURE FILE         ionized.psf
Info: PARAMETER file: CHARMM format!
Info: PARAMETERS             par_all27_prot_lipid.inp
Info: USING ARITHMETIC MEAN TO COMBINE L-J SIGMA PARAMETERS
Info: SUMMARY OF PARAMETERS:
Info: 180 BONDS
Info: 447 ANGLES
Info: 566 DIHEDRAL
Info: 46 IMPROPER
Info: 6 CROSSTERM
Info: 119 VDW
Info: 0 VDW_PAIRS
Info: 0 NBTHOLE_PAIRS
Info: STRUCTURE SUMMARY:
Info: 2476 ATOMS
Info: 1650 BONDS
Info: 825 ANGLES
Info: 0 DIHEDRALS
Info: 0 IMPROPERS
Info: 0 CROSSTERMS
Info: 0 EXCLUSIONS
Info: 2475 RIGID BONDS
Info: 4953 DEGREES OF FREEDOM
Info: 826 HYDROGEN GROUPS
Info: 3 ATOMS IN LARGEST HYDROGEN GROUP
Info: 826 MIGRATION GROUPS
Info: 3 ATOMS IN LARGEST MIGRATION GROUP
Info: TOTAL MASS = 14885.7 amu
Info: TOTAL CHARGE = 1 e
Info: MASS DENSITY = 0.915513 g/cm^3
Info: ATOM DENSITY = 0.0917037 atoms/A^3
Info: ADDED 2475 IMPLICIT EXCLUSIONS
Info: NONBONDED TABLE R-SQUARED SPACING: 0.0625
Info: NONBONDED TABLE SIZE: 769 POINTS
Info: REMOVING COM VELOCITY -0.0472325 0.0727378 0.106998
Info: MSM using C1 cubic interpolation
Info: MSM using C2 Taylor splitting function
Info: MSM block size decomposition along X is 8 grid points
Info: MSM block size decomposition along Y is 8 grid points
Info: MSM block size decomposition along Z is 8 grid points
Info: MSM grid spacing along X is 2.5 A
Info: MSM grid spacing along Y is 2.5 A
Info: MSM grid spacing along Z is 2.5 A
Info: MSM using 3 levels
Info:     level 0:  [0..11] x [0..11] x [0..11]
Info:     level 1:  [0..5] x [0..5] x [0..5]
Info:     level 2:  [0..2] x [0..2] x [0..2]
Info: MSM finished calculating stencils
Info: MSM finished creating map for grid levels
Info: MSM finished creating map for patches
Info: MSM has 9 interpolation / anterpolation objects (one per patch)
Info: MSM grid level 0 decomposed into 8 blocks ( 2 x 2 x 2 )
Info: MSM grid level 1 decomposed into 1 block ( 1 x 1 x 1 )
Info: MSM grid level 2 decomposed into 1 block ( 1 x 1 x 1 )
Info: MSM grid cutoff calculation decomposed into 783 work objects
TCL: Minimizing for 100 steps
ETITLE: TS BOND ANGLE DIHED IMPRP ELECT VDW BOUNDARY MISC KINETIC TOTAL TEMP POTENTIAL TOTAL3 TEMPAVG PRESSURE GPRESSURE VOLUME PRESSAVG GPRESSAVG
ENERGY: 0 0.0000 0.0000 0.0000 0.0000 -7348.6496 6353.7252 0.0000 0.0000 0.0000 -994.9244 0.0000 -994.9244 -994.9244 0.0000 75204.0846 46356.0499 27000.0000 75204.0846 46356.0499
ENERGY: 20 0.0000 0.0000 0.0000 0.0000 -8744.5975 644.7588 0.0000 0.0000 0.0000 -8099.8387 0.0000 -8099.8387 -8099.8387 0.0000 14286.6724 -2608.4244 27000.0000 14286.6724 -2608.4244
ENERGY: 40 0.0000 0.0000 0.0000 0.0000 -9255.3678 673.7887 0.0000 0.0000 0.0000 -8581.5791 0.0000 -8581.5791 -8581.5791 0.0000 14306.7125 -3612.4723 27000.0000 14306.7125 -3612.4723
ENERGY: 60 0.0000 0.0000 0.0000 0.0000 -9570.7004 738.1055 0.0000 0.0000 0.0000 -8832.5949 0.0000 -8832.5949 -8832.5949 0.0000 14889.9945 -3661.0807 27000.0000 14889.9945 -3661.0807
ENERGY: 80 0.0000 0.0000 0.0000 0.0000 -9709.9065 782.3679 0.0000 0.0000 0.0000 -8927.5385 0.0000 -8927.5385 -8927.5385 0.0000 15330.7359 -3519.6473 27000.0000 15330.7359 -3519.6473
ENERGY: 100 0.0000 0.0000 0.0000 0.0000 -9872.7763 825.2777 0.0000 0.0000 0.0000 -9047.4987 0.0000 -9047.4987 -9047.4987 0.0000 15763.6093 15684.6685 27000.0000 15763.6093 15684.6685
TCL: Running for 4000000 steps
ETITLE: TS BOND ANGLE DIHED IMPRP ELECT VDW BOUNDARY MISC KINETIC TOTAL TEMP POTENTIAL TOTAL3 TEMPAVG PRESSURE GPRESSURE VOLUME PRESSAVG GPRESSAVG
ENERGY: 20000 0.0000 0.0000 0.0000 0.0000 -8756.5634 809.0203 0.0000 0.0000 1494.2803 -6453.2628 303.6366 -7947.5431 -6451.1802 290.4180 -1581.3081 -1541.9131 27000.0000 -1408.4916 -1408.4762
ENERGY: 820000 0.0000 0.0000 0.0000 0.0000 -8723.5733 767.1728 0.0000 0.0000 1480.8369 -6475.5636 300.9049 -7956.4005 -6474.0637 297.5042 -1960.4523 -1928.0247 27000.0000 -1315.9986 -1316.1099
ENERGY: 1620000 0.0000 0.0000 0.0000 0.0000 -8771.3934 797.9512 0.0000 0.0000 1454.4745 -6518.9677 295.5481 -7973.4422 -6516.0293 297.8621 -1593.1567 -1562.0054 27000.0000 -1303.5586 -1303.5419
ENERGY: 2400000 0.0000 0.0000 0.0000 0.0000 -8748.6679 823.8741 0.0000 0.0000 1425.0410 -6499.7528 289.5672 -7924.7938 -6495.8314 296.9407 -1268.8939 -1240.5879 27000.0000 -1304.9049 -1304.8433
ENERGY: 3200000 0.0000 0.0000 0.0000 0.0000 -8814.0126 842.6140 0.0000 0.0000 1432.5784 -6538.8202 291.0988 -7971.3986 -6536.4461 293.0297 -1224.7899 -1189.1523 27000.0000 -1374.8823 -1374.8150
ENERGY: 4000000 0.0000 0.0000 0.0000 0.0000 -8793.5797 790.6156 0.0000 0.0000 1533.3970 -6469.5671 311.5851 -8002.9641 -6465.7234 293.7593 -1900.7724 -1870.7389 27000.0000 -1367.3640 -1367.3130
