Info: SIMULATION PARAMETERS:
Info: TIMESTEP               2
Info: NUMBER OF STEPS        0
Info: STEPS PER CYCLE        10
Info: PERIODIC CELL BASIS 1  32.2233 0 0
Info: PERIODIC CELL BASIS 2  0 30.5536 0
Info: PERIODIC CELL BASIS 3  0 0 30.5395
Info: PERIODIC CELL CENTER   0 0 0
Info: WRAPPING WATERS AROUND PERIODIC BOUNDARIES ON OUTPUT.
Info: WRAPPING ALL CLUSTERS AROUND PERIODIC BOUNDARIES ON OUTPUT.
Info: FIRST LDB TIMESTEP     50
Info: LAST LDB TIMESTEP     -1
Info: HOM BACKGROUND SCALING 1
Info: PME BACKGROUND SCALING 1
Info: MIN ATOMS PER PATCH    40
Info: EMPTY PATCH LOAD       40 ATOMS
Info: VELOCITY FILE          mobley_1800170_equil.vel
Info: CENTER OF MASS MOVING INITIALLY? NO
Info: DIELECTRIC             1
Info: EXCLUDE                SCALED ONE-FOUR
Info: 1-4 ELECTROSTATICS SCALED BY 0.833333
Info: MODIFIED 1-4 VDW PARAMETERS WILL BE USED
Info: DCD FILENAME           mobley_1800170_prod.dcd
Info: DCD FREQUENCY          100000
Info: DCD FIRST STEP         100000
Info: DCD FILE WILL CONTAIN UNIT CELL DATA
Info: XST FILENAME           mobley_1800170_prod.xst
Info: XST FREQUENCY          100000
Info: NO VELOCITY DCD OUTPUT
Info: NO FORCE DCD OUTPUT
Info: OUTPUT FILENAME        mobley_1800170_prod
Info: BINARY OUTPUT FILES WILL BE USED
Info: RESTART FILENAME       mobley_1800170_prod.restart
Info: RESTART FREQUENCY      100000
Info: BINARY RESTART FILES WILL BE USED
Info: CUTOFF                 9
Info: PAIRLIST DISTANCE      11
Info: PAIRLIST SHRINK RATE   0.01
Info: PAIRLIST GROW RATE     0.01
Info: PAIRLIST TRIGGER       0.3
Info: PAIRLISTS PER CYCLE    2
Info: PAIRLISTS ENABLED
Info: MARGIN                 2
Info: HYDROGEN GROUP CUTOFF  2.5
Info: PATCH DIMENSION        15.5
Info: ENERGY OUTPUT STEPS    100000
Info: ENERGY EVALUATION STEPS    100000
Info: OUTPUT ENERGY PRECISION 4
Info: CROSSTERM ENERGY INCLUDED IN DIHEDRAL
Info: TIMING OUTPUT STEPS    1000000
Info: PRESSURE OUTPUT STEPS  100000
Info: ALCHEMICAL FEP ON
Info: FEP CURRENT LAMBDA VALUE     1
Info: FEP COMPARISON LAMBDA VALUE  0.95
Info: FEP INTRA-ALCHEMICAL NON-BONDED INTERACTIONS WILL BE RETAINED
Info: FEP INTRA-ALCHEMICAL BONDED INTERACTIONS WILL BE RETAINED
Info: FEP VDW SHIFTING COEFFICIENT 5
Info: FEP ELEC. ACTIVE FOR ANNIHILATED PARTICLES BETWEEN LAMBDA = 0 AND LAMBDA = 0.5
Info: FEP ELEC. ACTIVE FOR EXNIHILATED PARTICLES BETWEEN LAMBDA = 0.5 AND LAMBDA = 1
Info: FEP VDW ACTIVE FOR ANNIHILATED PARTICLES BETWEEN LAMBDA = 0 AND LAMBDA = 1
Info: FEP VDW ACTIVE FOR EXNIHILATED PARTICLES BETWEEN LAMBDA = 0 AND LAMBDA = 1
Info: FEP BOND ACTIVE FOR ANNIHILATED PARTICLES BETWEEN LAMBDA = 1 AND LAMBDA = 1
Info: FEP BOND ACTIVE FOR EXNIHILATED PARTICLES BETWEEN LAMBDA = 0 AND LAMBDA = 0
Info: LANGEVIN DYNAMICS ACTIVE
Info: LANGEVIN TEMPERATURE   300
Info: LANGEVIN USING BBK INTEGRATOR
Info: LANGEVIN DAMPING COEFFICIENT IS 1 INVERSE PS
Info: LANGEVIN DYNAMICS APPLIED TO HYDROGENS
Info: LANGEVIN PISTON PRESSURE CONTROL ACTIVE
Info:        TARGET PRESSURE IS 1.01325 BAR
Info:     OSCILLATION PERIOD IS 50 FS
Info:             DECAY TIME IS 25 FS
Info:     PISTON TEMPERATURE IS 300 K
Info:       PRESSURE CONTROL IS GROUP-BASED
Info:    INITIAL STRAIN RATE IS 0.000338369 0.000338369 0.000338369
Info:       CELL FLUCTUATION IS ISOTROPIC
Info: PARTICLE MESH EWALD (PME) ACTIVE
Info: PME TOLERANCE               1e-06
Info: PME EWALD COEFFICIENT       0.348832
Info: PME INTERPOLATION ORDER     4
Info: PME GRID DIMENSIONS         36 32 32
Info: PME MAXIMUM GRID SPACING    1
Info: PME CALCULATION WILL BE PERFORMED ON GPU
Info: FULL ELECTROSTATIC EVALUATION FREQUENCY      2
Info: USING VERLET I (r-RESPA) MTS SCHEME.
Info: C1 SPLITTING OF LONG RANGE ELECTROSTATICS
Info: PLACING ATOMS IN PATCHES BY HYDROGEN GROUPS
Info: RIGID BONDS TO HYDROGEN : ALL
Info:         ERROR TOLERANCE : 1e-08
Info:          MAX ITERATIONS : 100
Info: RIGID WATER USING SETTLE ALGORITHM
Info: RANDOM NUMBER SEED     1742435872
Info: USE HYDROGEN BONDS?    NO
Info: Using AMBER format force field!
Info: AMBER PARM FILE        mobley_1800170.prmtop
Info: COORDINATE PDB         mobley_1800170.pdb
Info: Exclusions will be read from PARM file!
Info: SCNB (VDW SCALING)     2
Info: USING ARITHMETIC MEAN TO COMBINE L-J SIGMA PARAMETERS
Info: BINARY COORDINATES     mobley_1800170_equil.coor
Info: SUMMARY OF PARAMETERS:
Info: 7 BONDS
Info: 7 ANGLES
Info:   7 HARMONIC
Info:   0 COSINE-BASED
Info: 3 DIHEDRAL
Info: 0 IMPROPER
Info: 0 CROSSTERM
Info: 0 VDW
Info: 28 VDW_PAIRS
Info: 0 NBTHOLE_PAIRS
Info: To read alchdata from file: mobley_1800170.pdb
Info: To read alchflag data from column: 5
Info: STRUCTURE SUMMARY:
Info: 2931 ATOMS
Info: 2930 BONDS
Info: 13 ANGLES
Info: 12 DIHEDRALS
Info: 0 IMPROPERS
Info: 0 CROSSTERMS
Info: 2955 EXCLUSIONS
Info: 2928 RIGID BONDS
Info: ALCH: 0 ATOMS TO DISAPPEAR IN FINAL STATE
Info: ALCH: 9 ATOMS TO APPEAR IN FINAL STATE
Info: 5865 DEGREES OF FREEDOM
Info: 977 HYDROGEN GROUPS
Info: 4 ATOMS IN LARGEST HYDROGEN GROUP
Info: 977 MIGRATION GROUPS
Info: 4 ATOMS IN LARGEST MIGRATION GROUP
Info: TOTAL MASS = 17609.7 amu
Info: TOTAL CHARGE = 1.58325e-08 e
Info: MASS DENSITY = 0.972562 g/cm^3
Info: ATOM DENSITY = 0.0974814 atoms/A^3
Info: ADDED 0 IMPLICIT EXCLUSIONS
Info: NONBONDED TABLE R-SQUARED SPACING: 0.0625
Info: NONBONDED TABLE SIZE: 705 POINTS
Info: REMOVING COM VELOCITY -0.0304988 -0.100145 0.0718534
Info: Use 3D box decompostion in PME FFT.
Info: Updated CUDA force table with 4096 elements.
Info: Updated CUDA LJ table with 7 x 7 elements.
Info: Found 12 unique exclusion lists needing 16 bytes
TCL: Running for 1500000 steps
ETITLE: TS BOND ANGLE DIHED IMPRP ELECT VDW BOUNDARY MISC KINETIC TOTAL TEMP POTENTIAL TOTALAVG TEMPAVG PRESSURE GPRESSURE VOLUME PRESSAVG GPRESSAVG
ENERGY: 0 1.2213 3.2739 1.0282 0.0000 -10546.7354 1414.7757 0.0000 0.0000 1731.5102 -7394.9261 297.1306 -9126.4362 -7394.9261 297.1306 -3.7062 87.6513 30067.2898 -3.7062 87.6513
ENERGY: 300000 0.2629 4.5789 0.0698 0.0000 -10579.0709 1355.8767 0.0000 0.0000 1728.5222 -7489.7604 296.6179 -9218.2826 -7463.5413 298.2194 -387.3634 -308.5825 29737.8538 -52.4735 -2.3714
ENERGY: 600000 0.0998 4.5282 0.1811 0.0000 -10698.9883 1413.3969 0.0000 0.0000 1739.4727 -7541.3095 298.4970 -9280.7822 -7472.1694 299.3507 -124.4806 -68.1966 29816.2238 -26.5304 33.2311
ENERGY: 900000 0.2850 3.5545 0.8570 0.0000 -10604.3935 1378.2188 0.0000 0.0000 1711.7325 -7509.7457 293.7367 -9221.4782 -7471.8045 299.0877 -281.4406 -254.4082 30017.8573 -118.9697 -72.8444
ENERGY: 1200000 0.5868 1.8221 1.6569 0.0000 -10758.3204 1520.1658 0.0000 0.0000 1747.2900 -7486.7989 299.8385 -9234.0888 -7471.0997 298.5763 513.8383 630.2930 30109.5066 -104.7700 -58.9653
ENERGY: 1500000 0.0127 5.2389 0.2730 0.0000 -10627.0622 1390.4948 0.0000 0.0000 1726.0536 -7504.9890 296.1943 -9231.0427 -7472.4377 299.1134 -536.5924 -458.7796 30414.1849 -117.8492 -65.1592
TCL: Running FEP window   2: Lambda1 0.95   Lambda2 0.8999999999999999 [dLambda -0.050000000000000044]
TCL: Setting parameter firsttimestep to 0
TCL: Setting parameter alchLambda to 0.95
Info: NONBONDED TABLE R-SQUARED SPACING: 0.0625
Info: NONBONDED TABLE SIZE: 705 POINTS
TCL: Setting parameter alchLambda2 to 0.8999999999999999
Info: NONBONDED TABLE R-SQUARED SPACING: 0.0625
Info: NONBONDED TABLE SIZE: 705 POINTS
TCL: Running for 1500000 steps
ETITLE: TS BOND ANGLE DIHED IMPRP ELECT VDW BOUNDARY MISC KINETIC TOTAL TEMP POTENTIAL TOTALAVG TEMPAVG PRESSURE GPRESSURE VOLUME PRESSAVG GPRESSAVG
ENERGY: 0 0.0127 5.2389 0.2730 0.0000 -10626.5040 1390.3493 0.0000 0.0000 1725.1443 -7505.4857 296.0382 -9230.6301 -7505.4857 296.0382 -537.5480 -465.9592 30414.1849 -537.5480 -465.9592
ENERGY: 300000 0.9789 2.1398 1.1550 0.0000 -10759.8567 1500.7683 0.0000 0.0000 1813.8107 -7441.0041 311.2536 -9254.8148 -7437.1128 303.5402 569.2342 666.1460 29677.5198 93.1108 173.3872
ENERGY: 600000 0.4571 7.4195 0.3623 0.0000 -10494.8548 1323.3857 0.0000 0.0000 1710.1903 -7453.0399 293.4721 -9163.2302 -7455.3440 300.3456 -572.6040 -474.2815 29952.9829 71.6972 150.2558
ENERGY: 900000 0.5018 2.2063 0.6061 0.0000 -10580.5721 1355.3095 0.0000 0.0000 1750.3582 -7471.5902 300.3650 -9221.9484 -7460.1440 299.8777 -456.1485 -441.8677 30071.6033 16.1617 83.6351
ENERGY: 1200000 1.2138 2.9708 0.6263 0.0000 -10807.4498 1562.7820 0.0000 0.0000 1761.4074 -7478.4495 302.2611 -9239.8569 -7459.9858 300.3772 882.7275 995.2571 30298.8374 87.7740 149.2909
ENERGY: 1500000 1.6386 3.6673 1.5270 0.0000 -10760.5538 1513.4560 0.0000 0.0000 1747.3664 -7492.8985 299.8516 -9240.2649 -7470.3520 300.2437 542.0793 600.8746 30154.0529 28.3862 91.9011
TCL: Running FEP window   3: Lambda1 0.8999999999999999 Lambda2 0.8499999999999999 [dLambda -0.050000000000000044]
TCL: Setting parameter firsttimestep to 0
TCL: Setting parameter alchLambda to 0.8999999999999999
Info: NONBONDED TABLE R-SQUARED SPACING: 0.0625
Info: NONBONDED TABLE SIZE: 705 POINTS
TCL: Setting parameter alchLambda2 to 0.8499999999999999
Info: NONBONDED TABLE R-SQUARED SPACING: 0.0625
Info: NONBONDED TABLE SIZE: 705 POINTS
TCL: Running for 1500000 steps
ETITLE: TS BOND ANGLE DIHED IMPRP ELECT VDW BOUNDARY MISC KINETIC TOTAL TEMP POTENTIAL TOTALAVG TEMPAVG PRESSURE GPRESSURE VOLUME PRESSAVG GPRESSAVG
ENERGY: 0 1.6386 3.6673 1.5270 0.0000 -10760.1124 1513.7905 0.0000 0.0000 1746.5181 -7492.9709 299.7060 -9239.4890 -7492.9709 299.7060 517.9898 597.8349 30154.0529 517.9898 597.8349
ENERGY: 300000 0.1786 4.3802 0.7101 0.0000 -10616.9899 1457.8180 0.0000 0.0000 1745.6562 -7408.2468 299.5581 -9153.9030 -7470.4550 297.7220 611.3623 673.6364 29502.9783 254.8844 338.0788
ENERGY: 600000 1.4849 2.2219 0.5146 0.0000 -10584.1284 1372.4356 0.0000 0.0000 1769.0690 -7438.4025 303.5758 -9207.4715 -7453.0918 301.8617 -231.9562 -87.9762 29660.1419 166.4469 240.5985
ENERGY: 900000 0.1882 1.7141 0.9796 0.0000 -10657.2180 1403.2449 0.0000 0.0000 1788.2325 -7462.8588 306.8643 -9251.0912 -7461.5246 301.3136 -376.3061 -328.9342 30415.3479 70.8181 137.2854
ENERGY: 1200000 0.1117 3.4874 0.0820 0.0000 -10554.6662 1371.6848 0.0000 0.0000 1738.5207 -7440.7796 298.3336 -9179.3003 -7457.9272 301.9360 -557.4609 -449.1892 30618.3812 52.7604 120.4867
ENERGY: 1500000 0.0577 3.4047 0.7645 0.0000 -10634.2443 1468.1638 0.0000 0.0000 1715.7496 -7446.1040 294.4261 -9161.8536 -7461.9031 300.8605 343.7469 436.9877 30181.6460 43.1633 110.6606
TCL: Running FEP window   4: Lambda1 0.8499999999999999 Lambda2 0.7999999999999998 [dLambda -0.050000000000000044]
TCL: Setting parameter firsttimestep to 0
TCL: Setting parameter alchLambda to 0.8499999999999999
Info: NONBONDED TABLE R-SQUARED SPACING: 0.0625
Info: NONBONDED TABLE SIZE: 705 POINTS
TCL: Setting parameter alchLambda2 to 0.7999999999999998
Info: NONBONDED TABLE R-SQUARED SPACING: 0.0625
Info: NONBONDED TABLE SIZE: 705 POINTS
TCL: Running for 1500000 steps
ETITLE: TS BOND ANGLE DIHED IMPRP ELECT VDW BOUNDARY MISC KINETIC TOTAL TEMP POTENTIAL TOTALAVG TEMPAVG PRESSURE GPRESSURE VOLUME PRESSAVG GPRESSAVG
ENERGY: 0 0.0577 3.4047 0.7645 0.0000 -10633.4225 1468.1076 0.0000 0.0000 1714.8600 -7446.2280 294.2734 -9161.0880 -7446.2280 294.2734 347.1847 428.8841 30181.6460 347.1847 428.8841
ENERGY: 300000 0.7025 1.4874 1.2764 0.0000 -10548.7613 1394.2802 0.0000 0.0000 1755.7675 -7395.2472 301.2932 -9151.0148 -7426.2750 299.3372 8.2752 84.5356 30254.9350 -166.3318 -98.3833
ENERGY: 600000 0.1769 3.8216 0.2552 0.0000 -10640.3630 1404.5787 0.0000 0.0000 1769.8788 -7461.6517 303.7148 -9231.5306 -7453.9136 300.8252 -484.8015 -465.4033 30856.8487 -217.8519 -138.9946
ENERGY: 900000 0.3895 4.6644 1.4948 0.0000 -10658.7499 1432.4242 0.0000 0.0000 1701.6646 -7518.1125 292.0091 -9219.7771 -7459.2523 300.6571 145.4027 151.8389 29802.7422 -1.6816 54.2054
ENERGY: 1200000 2.4014 4.1707 0.8226 0.0000 -10639.6055 1491.9309 0.0000 0.0000 1757.3764 -7382.9035 301.5693 -9140.2799 -7456.7646 300.2869 985.3220 1023.8057 29821.8685 -39.6974 16.7645
ENERGY: 1500000 0.9779 3.4285 0.1420 0.0000 -10433.9499 1305.1449 0.0000 0.0000 1656.5168 -7467.7398 284.2616 -9124.2567 -7468.0922 298.7216 -959.5591 -953.3601 30581.9397 -51.0625 0.1124
TCL: Running FEP window   5: Lambda1 0.7999999999999998 Lambda2 0.7499999999999998 [dLambda -0.050000000000000044]
TCL: Setting parameter firsttimestep to 0
TCL: Setting parameter alchLambda to 0.7999999999999998
Info: NONBONDED TABLE R-SQUARED SPACING: 0.0625
Info: NONBONDED TABLE SIZE: 705 POINTS
TCL: Setting parameter alchLambda2 to 0.7499999999999998
Info: NONBONDED TABLE R-SQUARED SPACING: 0.0625
Info: NONBONDED TABLE SIZE: 705 POINTS
TCL: Running for 1500000 steps
ETITLE: TS BOND ANGLE DIHED IMPRP ELECT VDW BOUNDARY MISC KINETIC TOTAL TEMP POTENTIAL TOTALAVG TEMPAVG PRESSURE GPRESSURE VOLUME PRESSAVG GPRESSAVG
ENERGY: 0 0.9779 3.4284 0.1420 0.0000 -10433.4040 1304.9320 0.0000 0.0000 1655.6429 -7468.2808 284.1116 -9123.9236 -7468.2808 284.1116 -1045.0731 -963.3490 30581.9397 -1045.0731 -963.3490
ENERGY: 300000 0.6492 3.4294 1.2367 0.0000 -10579.3433 1418.8798 0.0000 0.0000 1775.1173 -7380.0309 304.6137 -9155.1482 -7439.3707 297.3408 -201.9396 -88.4725 30751.1452 -220.2515 -142.7610
ENERGY: 600000 0.0813 3.4553 0.5501 0.0000 -10678.6557 1461.1263 0.0000 0.0000 1744.5929 -7468.8498 299.3757 -9213.4427 -7439.6760 299.5586 44.7380 97.3273 30796.6330 -83.1410 -5.2776
ENERGY: 900000 0.3083 1.8248 0.8232 0.0000 -10594.8150 1401.0284 0.0000 0.0000 1800.5717 -7390.2586 308.9817 -9190.8303 -7443.5311 300.5442 -216.8427 -142.7214 30189.2828 -150.7875 -74.8895
ENERGY: 1200000 2.3180 5.8803 0.5888 0.0000 -10723.4774 1495.1998 0.0000 0.0000 1664.7212 -7554.7693 285.6695 -9219.4905 -7440.2771 299.7716 484.9076 501.1953 29869.2587 -130.0497 -64.9523
ENERGY: 1500000 0.7890 4.5978 1.0019 0.0000 -10499.6618 1397.9423 0.0000 0.0000 1752.9277 -7342.4031 300.8059 -9095.3308 -7446.7175 298.4454 163.8414 150.1261 30283.1654 -122.2614 -57.2516
TCL: Running FEP window   6: Lambda1 0.7499999999999998 Lambda2 0.6999999999999997 [dLambda -0.050000000000000044]
TCL: Setting parameter firsttimestep to 0
TCL: Setting parameter alchLambda to 0.7499999999999998
Info: NONBONDED TABLE R-SQUARED SPACING: 0.0625
Info: NONBONDED TABLE SIZE: 705 POINTS
TCL: Setting parameter alchLambda2 to 0.6999999999999997
Info: NONBONDED TABLE R-SQUARED SPACING: 0.0625
Info: NONBONDED TABLE SIZE: 705 POINTS
TCL: Running for 1500000 steps
ETITLE: TS BOND ANGLE DIHED IMPRP ELECT VDW BOUNDARY MISC KINETIC TOTAL TEMP POTENTIAL TOTALAVG TEMPAVG PRESSURE GPRESSURE VOLUME PRESSAVG GPRESSAVG
ENERGY: 0 0.7890 4.5978 1.0019 0.0000 -10499.1408 1397.7337 0.0000 0.0000 1752.0362 -7342.9822 300.6529 -9095.0184 -7342.9822 300.6529 63.1886 143.4819 30283.1654 63.1886 143.4819
ENERGY: 300000 1.4343 2.1154 0.2257 0.0000 -10718.0097 1459.4246 0.0000 0.0000 1731.5715 -7523.2382 297.1412 -9254.8098 -7444.7385 297.5425 218.7338 316.4125 29667.7128 61.6492 145.4821
ENERGY: 600000 0.7890 2.6194 0.9356 0.0000 -10789.9770 1574.1150 0.0000 0.0000 1727.9378 -7483.5802 296.5176 -9211.5180 -7472.8989 296.8763 1167.5618 1203.4814 29948.0266 113.9648 189.3291
ENERGY: 900000 0.3029 6.9634 1.0462 0.0000 -10650.5798 1431.0606 0.0000 0.0000 1644.0595 -7567.1472 282.1239 -9211.2067 -7473.8131 296.0856 -242.8326 -129.5373 30369.8426 93.3237 171.6119
ENERGY: 1200000 0.7813 2.2369 0.8588 0.0000 -10614.0637 1401.8856 0.0000 0.0000 1704.8347 -7503.4663 292.5531 -9208.3011 -7478.3010 295.8077 -462.9184 -383.0064 30607.3096 95.8218 175.0878
ENERGY: 1500000 0.3363 4.9798 0.2190 0.0000 -10718.2526 1503.1181 0.0000 0.0000 1799.3224 -7410.2769 308.7673 -9209.5993 -7462.4292 297.7701 611.6093 659.4408 29990.9675 78.4698 157.1649
TCL: Running FEP window   7: Lambda1 0.6999999999999997 Lambda2 0.6499999999999997 [dLambda -0.050000000000000044]
TCL: Setting parameter firsttimestep to 0
TCL: Setting parameter alchLambda to 0.6999999999999997
Info: NONBONDED TABLE R-SQUARED SPACING: 0.0625
Info: NONBONDED TABLE SIZE: 705 POINTS
TCL: Setting parameter alchLambda2 to 0.6499999999999997
Info: NONBONDED TABLE R-SQUARED SPACING: 0.0625
Info: NONBONDED TABLE SIZE: 705 POINTS
TCL: Running for 1500000 steps
ETITLE: TS BOND ANGLE DIHED IMPRP ELECT VDW BOUNDARY MISC KINETIC TOTAL TEMP POTENTIAL TOTALAVG TEMPAVG PRESSURE GPRESSURE VOLUME PRESSAVG GPRESSAVG
ENERGY: 0 0.3363 4.9798 0.2190 0.0000 -10717.6775 1502.3988 0.0000 0.0000 1798.4732 -7411.2703 308.6216 -9209.7436 -7411.2703 308.6216 571.8010 645.4111 29990.9675 571.8010 645.4111
ENERGY: 300000 0.2128 4.0625 0.3947 0.0000 -10709.8477 1484.7833 0.0000 0.0000 1805.4522 -7414.9422 309.8192 -9220.3944 -7420.7837 304.9646 360.2514 404.5941 30163.0950 113.5931 187.0608
ENERGY: 600000 0.7918 3.8039 1.1566 0.0000 -10499.2882 1366.9740 0.0000 0.0000 1704.9750 -7421.5868 292.5771 -9126.5618 -7399.8021 302.8606 -525.2041 -382.1470 30173.4301 -7.0596 57.9651
ENERGY: 900000 0.0421 2.8721 0.3369 0.0000 -10499.6450 1375.8119 0.0000 0.0000 1754.0762 -7366.5058 301.0030 -9120.5820 -7393.3757 302.8923 -276.0204 -223.8890 30393.1290 -13.1464 50.8073
ENERGY: 1200000 0.1542 1.8879 0.7278 0.0000 -10678.3414 1401.2408 0.0000 0.0000 1779.7858 -7494.5449 305.4148 -9274.3307 -7411.3112 302.7037 -297.1851 -290.6703 29863.3701 -158.7834 -96.2002
ENERGY: 1500000 1.1282 4.6776 0.6850 0.0000 -10514.6315 1302.3110 0.0000 0.0000 1756.2505 -7449.5792 301.3761 -9205.8297 -7415.4432 302.5254 -897.3686 -762.4780 30092.7929 -163.3596 -98.1729
TCL: Running FEP window   8: Lambda1 0.6499999999999997 Lambda2 0.5999999999999996 [dLambda -0.050000000000000044]
TCL: Setting parameter firsttimestep to 0
TCL: Setting parameter alchLambda to 0.6499999999999997
Info: NONBONDED TABLE R-SQUARED SPACING: 0.0625
Info: NONBONDED TABLE SIZE: 705 POINTS
TCL: Setting parameter alchLambda2 to 0.5999999999999996
Info: NONBONDED TABLE R-SQUARED SPACING: 0.0625
Info: NONBONDED TABLE SIZE: 705 POINTS
TCL: Running for 1500000 steps
ETITLE: TS BOND ANGLE DIHED IMPRP ELECT VDW BOUNDARY MISC KINETIC TOTAL TEMP POTENTIAL TOTALAVG TEMPAVG PRESSURE GPRESSURE VOLUME PRESSAVG GPRESSAVG
ENERGY: 0 1.1282 4.6776 0.6850 0.0000 -10514.3701 1302.5712 0.0000 0.0000 1755.4202 -7449.8880 301.2336 -9205.3082 -7449.8880 301.2336 -861.6814 -764.0195 30092.7929 -861.6814 -764.0195
ENERGY: 300000 0.5035 7.6719 0.1938 0.0000 -10774.6864 1530.0873 0.0000 0.0000 1794.4216 -7441.8083 307.9264 -9236.2299 -7430.1052 303.9328 688.5654 760.8298 30099.0987 -131.4010 -70.1553
ENERGY: 600000 0.6009 3.0611 0.1440 0.0000 -10679.4579 1470.7686 0.0000 0.0000 1748.1878 -7456.6954 299.9925 -9204.8832 -7442.7575 301.8409 328.7493 398.8088 29957.7279 -46.0978 25.3218
ENERGY: 900000 0.0478 6.0334 0.1756 0.0000 -10799.1785 1490.3892 0.0000 0.0000 1693.1306 -7609.4020 290.5446 -9302.5325 -7454.5080 300.0022 172.4456 222.7939 30080.0354 -127.9161 -53.6273
ENERGY: 1200000 0.3856 3.5756 0.4321 0.0000 -10680.3250 1429.3766 0.0000 0.0000 1726.7353 -7519.8198 296.3112 -9246.5551 -7450.1356 299.9690 -52.5628 31.2165 30110.2425 -62.4768 13.6350
ENERGY: 1500000 0.2565 3.8068 0.3024 0.0000 -10704.8731 1401.0464 0.0000 0.0000 1818.7083 -7480.7528 312.0940 -9299.4610 -7445.6170 300.6939 -296.6702 -221.5965 29933.2209 -154.7205 -75.4809
TCL: Running FEP window   9: Lambda1 0.5999999999999996 Lambda2 0.5499999999999996 [dLambda -0.050000000000000044]
TCL: Setting parameter firsttimestep to 0
TCL: Setting parameter alchLambda to 0.5999999999999996
Info: NONBONDED TABLE R-SQUARED SPACING: 0.0625
Info: NONBONDED TABLE SIZE: 705 POINTS
TCL: Setting parameter alchLambda2 to 0.5499999999999996
Info: NONBONDED TABLE R-SQUARED SPACING: 0.0625
Info: NONBONDED TABLE SIZE: 705 POINTS
TCL: Running for 1500000 steps
ETITLE: TS BOND ANGLE DIHED IMPRP ELECT VDW BOUNDARY MISC KINETIC TOTAL TEMP POTENTIAL TOTALAVG TEMPAVG PRESSURE GPRESSURE VOLUME PRESSAVG GPRESSAVG
ENERGY: 0 0.2565 3.8068 0.3024 0.0000 -10704.5210 1400.9209 0.0000 0.0000 1817.8452 -7481.3892 311.9459 -9299.2344 -7481.3892 311.9459 -313.5725 -228.5259 29933.2209 -313.5725 -228.5259
ENERGY: 300000 0.6830 5.5980 0.6213 0.0000 -10683.8750 1423.5503 0.0000 0.0000 1712.4556 -7540.9669 293.8608 -9253.4224 -7477.2989 301.1958 20.8706 62.3767 29680.3453 -198.2531 -138.7139
ENERGY: 600000 0.2221 3.4870 0.2120 0.0000 -10776.5701 1491.5805 0.0000 0.0000 1803.6306 -7477.4380 309.5066 -9281.0686 -7472.1447 302.4581 208.2384 254.6015 30098.0300 4.9127 54.0015
ENERGY: 900000 1.7488 2.2023 0.0716 0.0000 -10744.7077 1487.2950 0.0000 0.0000 1784.0745 -7469.3154 306.1508 -9253.3899 -7470.3675 301.9513 511.8389 511.6462 29745.0098 -17.0711 36.4481
ENERGY: 1200000 0.4763 1.5422 0.6486 0.0000 -10534.0735 1374.8350 0.0000 0.0000 1694.5909 -7461.9805 290.7952 -9156.5714 -7473.6620 299.7053 -163.1300 -140.6269 29988.7540 -72.7280 -17.2649
ENERGY: 1500000 0.2105 5.1643 1.3593 0.0000 -10567.2261 1412.1087 0.0000 0.0000 1745.5007 -7402.8827 299.5314 -9148.3834 -7468.0586 299.3439 -99.9235 -3.7732 30155.4444 -87.1613 -23.9587
TCL: Running FEP window  10: Lambda1 0.5499999999999996 Lambda2 0.4999999999999996 [dLambda -0.04999999999999999]
TCL: Setting parameter firsttimestep to 0
TCL: Setting parameter alchLambda to 0.5499999999999996
Info: NONBONDED TABLE R-SQUARED SPACING: 0.0625
Info: NONBONDED TABLE SIZE: 705 POINTS
TCL: Setting parameter alchLambda2 to 0.4999999999999996
Info: NONBONDED TABLE R-SQUARED SPACING: 0.0625
Info: NONBONDED TABLE SIZE: 705 POINTS
TCL: Running for 1500000 steps
ETITLE: TS BOND ANGLE DIHED IMPRP ELECT VDW BOUNDARY MISC KINETIC TOTAL TEMP POTENTIAL TOTALAVG TEMPAVG PRESSURE GPRESSURE VOLUME PRESSAVG GPRESSAVG
ENERGY: 0 0.2105 5.1643 1.3593 0.0000 -10567.4006 1412.5154 0.0000 0.0000 1744.6313 -7403.5199 299.3822 -9148.1511 -7403.5199 299.3822 -92.0893 -7.3465 30155.4444 -92.0893 -7.3465
ENERGY: 300000 0.0802 5.1929 0.1546 0.0000 -10617.8110 1419.8413 0.0000 0.0000 1728.3045 -7464.2375 296.5805 -9192.5419 -7484.0202 298.6341 57.6259 105.1682 29968.3824 113.4596 194.2684
ENERGY: 600000 0.5915 3.4255 1.1030 0.0000 -10623.4483 1418.2031 0.0000 0.0000 1788.7228 -7411.4024 306.9484 -9200.1253 -7476.0498 299.6230 -26.3208 39.4391 29948.6432 117.3957 194.6358
ENERGY: 900000 0.1285 4.8787 0.3151 0.0000 -10754.3872 1448.7600 0.0000 0.0000 1739.4417 -7560.8632 298.4917 -9300.3049 -7483.3995 299.7115 61.3427 143.1801 29591.7902 86.5361 149.1036
ENERGY: 1200000 0.1154 1.3751 0.1792 0.0000 -10702.1545 1448.2124 0.0000 0.0000 1747.7452 -7504.5271 299.9166 -9252.2723 -7490.5834 299.3464 -54.8651 -31.0422 30213.1631 1.5866 58.8813
ENERGY: 1500000 1.3785 3.7822 0.2874 0.0000 -10661.6837 1419.1158 0.0000 0.0000 1756.6082 -7480.5116 301.4375 -9237.1198 -7479.2321 299.5603 -199.5420 -149.6496 30006.6179 -38.9113 16.1260
TCL: Running FEP window  11: Lambda1 0.4999999999999996 Lambda2 0.4499999999999996 [dLambda -0.04999999999999999]
TCL: Setting parameter firsttimestep to 0
TCL: Setting parameter alchLambda to 0.4999999999999996
Info: NONBONDED TABLE R-SQUARED SPACING: 0.0625
Info: NONBONDED TABLE SIZE: 705 POINTS
TCL: Setting parameter alchLambda2 to 0.4499999999999996
Info: NONBONDED TABLE R-SQUARED SPACING: 0.0625
Info: NONBONDED TABLE SIZE: 705 POINTS
TCL: Running for 1500000 steps
ETITLE: TS BOND ANGLE DIHED IMPRP ELECT VDW BOUNDARY MISC KINETIC TOTAL TEMP POTENTIAL TOTALAVG TEMPAVG PRESSURE GPRESSURE VOLUME PRESSAVG GPRESSAVG
ENERGY: 0 1.3785 3.7822 0.2874 0.0000 -10661.1403 1418.7027 0.0000 0.0000 1755.7515 -7481.2380 301.2905 -9236.9895 -7481.2380 301.2905 -226.6509 -156.6836 30006.6179 -226.6509 -156.6836
ENERGY: 300000 0.3778 1.5831 0.6370 0.0000 -10505.2604 1336.2705 0.0000 0.0000 1778.8526 -7387.5395 305.2547 -9166.3921 -7448.3019 302.4145 -741.2206 -639.6153 30393.5940 -3.1503 74.5392
ENERGY: 600000 0.6312 2.0411 0.3180 0.0000 -10549.3314 1362.3632 0.0000 0.0000 1726.6751 -7457.3028 296.3009 -9183.9780 -7457.1164 303.0096 -544.1198 -445.8514 30077.5791 11.1739 74.1166
ENERGY: 900000 0.2071 2.9062 0.0975 0.0000 -10601.2766 1413.8338 0.0000 0.0000 1761.6668 -7422.5652 302.3056 -9184.2319 -7441.8907 304.2618 -77.2433 36.5165 30005.5069 -110.8208 -52.2044
ENERGY: 1200000 1.5528 2.7117 0.8963 0.0000 -10548.5023 1409.5726 0.0000 0.0000 1710.5829 -7423.1859 293.5395 -9133.7689 -7436.2010 303.0739 -389.8017 -298.4009 30728.9741 -90.8604 -37.3049
ENERGY: 1500000 0.4846 1.6087 0.9134 0.0000 -10663.9530 1525.7705 0.0000 0.0000 1786.7249 -7348.4508 306.6056 -9135.1757 -7424.4148 302.8508 822.6421 891.2564 30304.6000 7.9623 64.1865
TCL: Running FEP window  12: Lambda1 0.4499999999999996 Lambda2 0.39999999999999963 [dLambda -0.04999999999999999]
TCL: Setting parameter firsttimestep to 0
TCL: Setting parameter alchLambda to 0.4499999999999996
Info: NONBONDED TABLE R-SQUARED SPACING: 0.0625
Info: NONBONDED TABLE SIZE: 705 POINTS
TCL: Setting parameter alchLambda2 to 0.39999999999999963
Info: NONBONDED TABLE R-SQUARED SPACING: 0.0625
Info: NONBONDED TABLE SIZE: 705 POINTS
TCL: Running for 1500000 steps
ETITLE: TS BOND ANGLE DIHED IMPRP ELECT VDW BOUNDARY MISC KINETIC TOTAL TEMP POTENTIAL TOTALAVG TEMPAVG PRESSURE GPRESSURE VOLUME PRESSAVG GPRESSAVG
ENERGY: 0 0.4846 1.6087 0.9134 0.0000 -10663.9545 1525.9888 0.0000 0.0000 1785.8628 -7349.0961 306.4576 -9134.9590 -7349.0961 306.4576 824.5512 888.8613 30304.6000 824.5512 888.8613
ENERGY: 300000 0.1329 4.0558 0.5668 0.0000 -10649.5352 1506.0503 0.0000 0.0000 1696.0849 -7442.6446 291.0516 -9138.7294 -7419.5433 297.7391 412.3527 469.2313 30286.0865 -140.2320 -67.0692
ENERGY: 600000 0.0907 2.9522 0.2000 0.0000 -10667.2126 1442.9819 0.0000 0.0000 1849.1611 -7371.8267 317.3198 -9220.9878 -7437.9476 299.9768 419.5638 430.4362 29709.8247 76.7423 139.6671
ENERGY: 900000 0.0963 1.7212 0.1727 0.0000 -10681.2873 1502.6945 0.0000 0.0000 1772.2059 -7404.3967 304.1141 -9176.6026 -7450.2267 299.3104 558.3767 640.8596 30266.1283 133.1589 202.7640
ENERGY: 1200000 0.1907 5.4384 0.1386 0.0000 -10562.9454 1410.2722 0.0000 0.0000 1733.6635 -7413.2419 297.5001 -9146.9054 -7442.7586 299.0399 -141.9392 -19.1940 30050.7028 133.4301 206.0287
ENERGY: 1500000 0.0190 4.1870 2.8046 0.0000 -10553.6621 1368.5819 0.0000 0.0000 1779.5834 -7398.4863 305.3801 -9178.0697 -7438.6622 300.3553 -354.0331 -246.0181 30100.6580 123.5058 196.5329
TCL: Running FEP window  13: Lambda1 0.39999999999999963 Lambda2 0.34999999999999964 [dLambda -0.04999999999999999]
TCL: Setting parameter firsttimestep to 0
TCL: Setting parameter alchLambda to 0.39999999999999963
Info: NONBONDED TABLE R-SQUARED SPACING: 0.0625
Info: NONBONDED TABLE SIZE: 705 POINTS
TCL: Setting parameter alchLambda2 to 0.34999999999999964
Info: NONBONDED TABLE R-SQUARED SPACING: 0.0625
Info: NONBONDED TABLE SIZE: 705 POINTS
TCL: Running for 1500000 steps
ETITLE: TS BOND ANGLE DIHED IMPRP ELECT VDW BOUNDARY MISC KINETIC TOTAL TEMP POTENTIAL TOTALAVG TEMPAVG PRESSURE GPRESSURE VOLUME PRESSAVG GPRESSAVG
ENERGY: 0 0.0190 4.1870 2.8046 0.0000 -10553.6614 1368.4924 0.0000 0.0000 1778.7431 -7399.4152 305.2359 -9178.1584 -7399.4152 305.2359 -337.2166 -250.4126 30100.6580 -337.2166 -250.4126
ENERGY: 300000 1.0230 3.8044 0.3203 0.0000 -10597.1024 1394.3147 0.0000 0.0000 1746.4886 -7451.1515 299.7010 -9197.6401 -7433.0850 300.4662 -384.0782 -315.8742 30173.6467 42.3596 146.2441
ENERGY: 600000 0.0340 2.9383 1.4586 0.0000 -10621.0048 1449.3983 0.0000 0.0000 1760.9177 -7406.2579 302.1770 -9167.1756 -7451.3211 299.3651 67.7483 148.0181 30335.8633 -70.7036 18.3661
ENERGY: 900000 2.0067 3.1871 0.1809 0.0000 -10785.6982 1517.3601 0.0000 0.0000 1729.8637 -7533.0997 296.8481 -9262.9634 -7446.4361 300.3572 573.4249 631.9498 29841.6291 21.4929 102.2971
ENERGY: 1200000 0.0153 4.2252 0.1972 0.0000 -10597.2213 1469.0459 0.0000 0.0000 1759.4647 -7364.2730 301.9277 -9123.7377 -7444.5742 300.4160 478.2553 573.8655 30028.4940 -9.5906 73.7121
ENERGY: 1500000 0.4932 2.0531 0.4111 0.0000 -10610.0797 1450.2156 0.0000 0.0000 1751.5029 -7405.4038 300.5614 -9156.9068 -7439.0887 300.5852 200.7910 221.9353 30270.8810 -17.4882 60.1169
TCL: Running FEP window  14: Lambda1 0.34999999999999964 Lambda2 0.29999999999999966 [dLambda -0.04999999999999999]
TCL: Setting parameter firsttimestep to 0
TCL: Setting parameter alchLambda to 0.34999999999999964
Info: NONBONDED TABLE R-SQUARED SPACING: 0.0625
Info: NONBONDED TABLE SIZE: 705 POINTS
TCL: Setting parameter alchLambda2 to 0.29999999999999966
Info: NONBONDED TABLE R-SQUARED SPACING: 0.0625
Info: NONBONDED TABLE SIZE: 705 POINTS
TCL: Running for 1500000 steps
ETITLE: TS BOND ANGLE DIHED IMPRP ELECT VDW BOUNDARY MISC KINETIC TOTAL TEMP POTENTIAL TOTALAVG TEMPAVG PRESSURE GPRESSURE VOLUME PRESSAVG GPRESSAVG
ENERGY: 0 0.4932 2.0531 0.4111 0.0000 -10610.0799 1450.4159 0.0000 0.0000 1750.6296 -7406.0770 300.4116 -9156.7066 -7406.0770 300.4116 118.1387 219.7780 30270.8810 118.1387 219.7780
ENERGY: 300000 0.3729 1.9781 0.8889 0.0000 -10519.7570 1371.4605 0.0000 0.0000 1727.9324 -7417.1242 296.5167 -9145.0566 -7398.8491 302.6301 -441.8315 -447.4489 30477.7015 -56.8622 20.8681
ENERGY: 600000 0.9099 2.0473 0.2931 0.0000 -10645.5493 1435.7799 0.0000 0.0000 1711.7041 -7494.8150 293.7319 -9206.5191 -7433.4386 301.3900 94.5844 214.1260 29920.2758 55.8842 138.8435
ENERGY: 900000 0.3695 2.2609 1.1235 0.0000 -10730.5633 1523.7121 0.0000 0.0000 1725.2210 -7477.8763 296.0514 -9203.0973 -7441.8140 301.1276 639.9216 634.0808 30319.5165 42.6195 108.9826
ENERGY: 1200000 0.2560 3.3934 0.2375 0.0000 -10569.1007 1435.1428 0.0000 0.0000 1734.4536 -7395.6174 297.6357 -9130.0710 -7435.3236 300.2172 484.1297 545.5182 29590.3795 24.6869 88.9457
ENERGY: 1500000 0.0622 2.0962 0.2561 0.0000 -10528.0301 1382.2594 0.0000 0.0000 1802.0964 -7341.2599 309.2434 -9143.3563 -7431.4205 300.1482 -575.5529 -472.2488 30859.6409 -61.8894 5.6048
TCL: Running FEP window  15: Lambda1 0.29999999999999966 Lambda2 0.24999999999999967 [dLambda -0.04999999999999999]
TCL: Setting parameter firsttimestep to 0
TCL: Setting parameter alchLambda to 0.29999999999999966
Info: NONBONDED TABLE R-SQUARED SPACING: 0.0625
Info: NONBONDED TABLE SIZE: 705 POINTS
TCL: Setting parameter alchLambda2 to 0.24999999999999967
Info: NONBONDED TABLE R-SQUARED SPACING: 0.0625
Info: NONBONDED TABLE SIZE: 705 POINTS
TCL: Running for 1500000 steps
ETITLE: TS BOND ANGLE DIHED IMPRP ELECT VDW BOUNDARY MISC KINETIC TOTAL TEMP POTENTIAL TOTALAVG TEMPAVG PRESSURE GPRESSURE VOLUME PRESSAVG GPRESSAVG
ENERGY: 0 0.0622 2.0962 0.2561 0.0000 -10528.0320 1382.4373 0.0000 0.0000 1801.2270 -7341.9531 309.0942 -9143.1801 -7341.9531 309.0942 -555.3781 -473.2788 30859.6409 -555.3781 -473.2788
ENERGY: 300000 0.2174 2.9158 0.2296 0.0000 -10726.6028 1469.8814 0.0000 0.0000 1752.7507 -7500.6079 300.7755 -9253.3585 -7415.4664 303.1223 132.8773 137.5556 30097.3552 62.0884 134.1904
ENERGY: 600000 0.4661 1.2850 0.5044 0.0000 -10553.9569 1373.7320 0.0000 0.0000 1681.4613 -7496.5079 288.5421 -9177.9693 -7428.8935 300.0934 -679.0218 -604.2816 30409.8142 -60.2758 17.4387
ENERGY: 900000 1.2530 3.1999 0.4830 0.0000 -10787.5426 1587.0903 0.0000 0.0000 1788.6858 -7406.8305 306.9421 -9195.5163 -7436.5022 300.4936 1139.2551 1253.8708 30224.6621 18.9432 102.7811
ENERGY: 1200000 0.5541 3.1869 3.4623 0.0000 -10699.7871 1445.0208 0.0000 0.0000 1834.9844 -7412.5786 314.8870 -9247.5629 -7426.3348 302.0230 161.8272 209.3186 30065.7775 66.6007 138.8867
ENERGY: 1500000 0.4909 2.8362 1.9747 0.0000 -10606.5722 1485.2794 0.0000 0.0000 1744.6578 -7371.3330 299.3868 -9115.9909 -7424.4458 302.3926 536.4943 684.4811 30245.4830 97.9286 172.4674
TCL: Running FEP window  16: Lambda1 0.24999999999999967 Lambda2 0.19999999999999968 [dLambda -0.04999999999999999]
TCL: Setting parameter firsttimestep to 0
TCL: Setting parameter alchLambda to 0.24999999999999967
Info: NONBONDED TABLE R-SQUARED SPACING: 0.0625
Info: NONBONDED TABLE SIZE: 705 POINTS
TCL: Setting parameter alchLambda2 to 0.19999999999999968
Info: NONBONDED TABLE R-SQUARED SPACING: 0.0625
Info: NONBONDED TABLE SIZE: 705 POINTS
TCL: Running for 1500000 steps
ETITLE: TS BOND ANGLE DIHED IMPRP ELECT VDW BOUNDARY MISC KINETIC TOTAL TEMP POTENTIAL TOTALAVG TEMPAVG PRESSURE GPRESSURE VOLUME PRESSAVG GPRESSAVG
ENERGY: 0 0.4909 2.8362 1.9747 0.0000 -10606.5737 1485.3741 0.0000 0.0000 1743.8072 -7372.0905 299.2408 -9115.8977 -7372.0905 299.2408 605.5819 680.7102 30245.4830 605.5819 680.7102
ENERGY: 300000 0.0359 3.6788 0.2623 0.0000 -10537.2621 1374.9019 0.0000 0.0000 1730.2041 -7428.1789 296.9065 -9158.3830 -7415.5689 301.9276 -346.2648 -317.6961 30431.0224 144.0339 195.4243
ENERGY: 600000 0.6883 4.3943 0.7009 0.0000 -10656.6555 1415.4600 0.0000 0.0000 1781.4878 -7453.9242 305.7069 -9235.4121 -7413.5637 302.8665 -318.3971 -250.4892 30280.3756 153.0035 213.9353
ENERGY: 900000 0.8333 8.4448 0.7411 0.0000 -10604.3619 1480.8165 0.0000 0.0000 1716.9998 -7396.5265 294.6406 -9113.5263 -7419.3110 301.5112 370.9039 428.8597 30489.0675 195.7430 261.7848
ENERGY: 1200000 0.1089 2.3406 1.3137 0.0000 -10691.9344 1483.7511 0.0000 0.0000 1705.5759 -7498.8442 292.6803 -9204.4201 -7438.0135 300.6043 457.4465 578.6451 29811.9644 125.4215 193.0275
ENERGY: 1500000 0.0863 2.1218 0.3475 0.0000 -10682.8291 1444.0236 0.0000 0.0000 1756.5037 -7479.7463 301.4196 -9236.2500 -7433.8921 301.3135 -18.0342 60.8198 30186.4489 10.8089 84.2403
TCL: Running FEP window  17: Lambda1 0.19999999999999968 Lambda2 0.1499999999999997 [dLambda -0.04999999999999999]
TCL: Setting parameter firsttimestep to 0
TCL: Setting parameter alchLambda to 0.19999999999999968
Info: NONBONDED TABLE R-SQUARED SPACING: 0.0625
Info: NONBONDED TABLE SIZE: 705 POINTS
TCL: Setting parameter alchLambda2 to 0.1499999999999997
Info: NONBONDED TABLE R-SQUARED SPACING: 0.0625
Info: NONBONDED TABLE SIZE: 705 POINTS
TCL: Running for 1500000 steps
ETITLE: TS BOND ANGLE DIHED IMPRP ELECT VDW BOUNDARY MISC KINETIC TOTAL TEMP POTENTIAL TOTALAVG TEMPAVG PRESSURE GPRESSURE VOLUME PRESSAVG GPRESSAVG
ENERGY: 0 0.0863 2.1218 0.3475 0.0000 -10682.8303 1444.3422 0.0000 0.0000 1755.6202 -7480.3123 301.2680 -9235.9325 -7480.3123 301.2680 -34.3281 59.7717 30186.4489 -34.3281 59.7717
ENERGY: 300000 2.8734 4.8450 2.0995 0.0000 -10617.9924 1404.9151 0.0000 0.0000 1762.8615 -7440.3979 302.5106 -9203.2594 -7426.4640 302.4715 -416.5484 -391.0541 30177.4824 -51.8964 -8.3000
ENERGY: 600000 0.3830 0.6910 0.8152 0.0000 -10574.7373 1425.6726 0.0000 0.0000 1799.8452 -7347.3302 308.8571 -9147.1754 -7441.4266 301.6913 192.6435 265.5860 30084.0121 -52.9084 10.7036
ENERGY: 900000 0.4816 2.1476 0.1798 0.0000 -10717.9018 1515.0786 0.0000 0.0000 1756.8402 -7443.1742 301.4773 -9200.0144 -7427.8098 302.0706 919.2740 914.5888 29692.3955 182.9159 239.2827
ENERGY: 1200000 1.9657 2.6668 0.3156 0.0000 -10594.9968 1377.8455 0.0000 0.0000 1710.4302 -7501.7730 293.5133 -9212.2032 -7435.0073 301.6284 -293.6100 -255.8380 30043.8122 16.8077 60.0112
ENERGY: 1500000 0.3649 3.6028 0.4126 0.0000 -10720.4413 1495.3358 0.0000 0.0000 1707.8358 -7512.8894 293.0681 -9220.7252 -7440.0764 301.2545 185.0643 300.0683 30153.2249 34.0199 82.7560
TCL: Running FEP window  18: Lambda1 0.1499999999999997 Lambda2 0.09999999999999969 [dLambda -0.05 ]
TCL: Setting parameter firsttimestep to 0
TCL: Setting parameter alchLambda to 0.1499999999999997
Info: NONBONDED TABLE R-SQUARED SPACING: 0.0625
Info: NONBONDED TABLE SIZE: 705 POINTS
TCL: Setting parameter alchLambda2 to 0.09999999999999969
Info: NONBONDED TABLE R-SQUARED SPACING: 0.0625
Info: NONBONDED TABLE SIZE: 705 POINTS
TCL: Running for 1500000 steps
ETITLE: TS BOND ANGLE DIHED IMPRP ELECT VDW BOUNDARY MISC KINETIC TOTAL TEMP POTENTIAL TOTALAVG TEMPAVG PRESSURE GPRESSURE VOLUME PRESSAVG GPRESSAVG
ENERGY: 0 0.3649 3.6028 0.4126 0.0000 -10720.4425 1495.1616 0.0000 0.0000 1706.9598 -7513.9409 292.9177 -9220.9007 -7513.9409 292.9177 207.2373 295.2937 30153.2249 207.2373 295.2937
ENERGY: 300000 0.5154 4.3669 0.2316 0.0000 -10563.1626 1368.8212 0.0000 0.0000 1708.3976 -7480.8300 293.1645 -9189.2276 -7499.4771 295.6624 -597.3885 -510.2430 30101.7450 -209.2641 -163.2984
ENERGY: 600000 0.2035 2.8448 0.0765 0.0000 -10682.7469 1459.5294 0.0000 0.0000 1756.5895 -7463.5031 301.4343 -9220.0927 -7484.7693 298.5434 248.5458 297.8954 29936.7839 -182.1544 -120.9191
ENERGY: 900000 0.5968 1.6993 0.6802 0.0000 -10736.0239 1502.6061 0.0000 0.0000 1749.6182 -7480.8234 300.2380 -9230.4415 -7488.4524 298.9128 475.4853 534.7403 30111.3824 -203.8171 -133.4566
ENERGY: 1200000 0.5233 2.7794 0.5149 0.0000 -10692.3895 1450.0015 0.0000 0.0000 1747.9510 -7490.6193 299.9519 -9238.5703 -7483.4422 298.2226 140.8588 143.3313 29917.7511 -215.4438 -157.2774
ENERGY: 1500000 0.2104 5.0134 0.0973 0.0000 -10688.8370 1440.6962 0.0000 0.0000 1758.5221 -7484.2976 301.7659 -9242.8197 -7484.9625 298.4264 -228.0890 -91.0257 30064.9671 -237.2702 -169.3330
TCL: Running FEP window  19: Lambda1 0.09999999999999969 Lambda2 0.049999999999999684 [dLambda -0.05 ]
TCL: Setting parameter firsttimestep to 0
TCL: Setting parameter alchLambda to 0.09999999999999969
Info: NONBONDED TABLE R-SQUARED SPACING: 0.0625
Info: NONBONDED TABLE SIZE: 705 POINTS
TCL: Setting parameter alchLambda2 to 0.049999999999999684
Info: NONBONDED TABLE R-SQUARED SPACING: 0.0625
Info: NONBONDED TABLE SIZE: 705 POINTS
TCL: Running for 1500000 steps
ETITLE: TS BOND ANGLE DIHED IMPRP ELECT VDW BOUNDARY MISC KINETIC TOTAL TEMP POTENTIAL TOTALAVG TEMPAVG PRESSURE GPRESSURE VOLUME PRESSAVG GPRESSAVG
ENERGY: 0 0.2104 5.0134 0.0973 0.0000 -10688.8362 1440.2709 0.0000 0.0000 1757.6624 -7485.5818 301.6184 -9243.2441 -7485.5818 301.6184 -167.7103 -93.3108 30064.9671 -167.7103 -93.3108
ENERGY: 300000 0.0931 2.8130 1.9458 0.0000 -10662.4764 1472.7643 0.0000 0.0000 1745.7451 -7439.1151 299.5734 -9184.8602 -7445.7332 299.6232 496.8077 543.5943 29969.0718 194.1724 240.1993
ENERGY: 600000 0.2851 2.8822 0.3809 0.0000 -10753.8801 1519.2838 0.0000 0.0000 1775.7067 -7455.3413 304.7148 -9231.0480 -7471.8505 297.9792 548.7937 604.8289 30079.2515 -33.8926 9.0203
ENERGY: 900000 1.6711 1.2308 0.1707 0.0000 -10727.1500 1472.0682 0.0000 0.0000 1751.9582 -7500.0510 300.6396 -9252.0092 -7473.2193 298.6764 99.6775 168.1138 29960.2575 -36.1192 25.4317
ENERGY: 1200000 0.3736 2.9974 0.8988 0.0000 -10761.2016 1524.7191 0.0000 0.0000 1697.3870 -7534.8255 291.2750 -9232.2126 -7473.8532 299.1014 634.1779 680.5842 29853.1116 37.4462 98.7408
ENERGY: 1500000 0.1191 1.5815 1.2153 0.0000 -10632.9840 1461.3637 0.0000 0.0000 1778.8560 -7389.8485 305.2553 -9168.7045 -7457.4026 300.2014 212.1565 291.0472 30039.2404 30.4564 91.7099
TCL: Running FEP window  20: Lambda1 0.049999999999999684 Lambda2 0.0    [dLambda -0.049999999999999684]
TCL: Setting parameter firsttimestep to 0
TCL: Setting parameter alchLambda to 0.049999999999999684
Info: NONBONDED TABLE R-SQUARED SPACING: 0.0625
Info: NONBONDED TABLE SIZE: 705 POINTS
TCL: Setting parameter alchLambda2 to 0.0
Info: NONBONDED TABLE R-SQUARED SPACING: 0.0625
Info: NONBONDED TABLE SIZE: 705 POINTS
TCL: Running for 1500000 steps
ETITLE: TS BOND ANGLE DIHED IMPRP ELECT VDW BOUNDARY MISC KINETIC TOTAL TEMP POTENTIAL TOTALAVG TEMPAVG PRESSURE GPRESSURE VOLUME PRESSAVG GPRESSAVG
ENERGY: 0 0.1191 1.5815 1.2153 0.0000 -10632.9832 1461.0097 0.0000 0.0000 1777.9721 -7391.0855 305.1036 -9169.0576 -7391.0855 305.1036 197.8062 286.8813 30039.2404 197.8062 286.8813
ENERGY: 300000 0.0331 6.2320 1.1337 0.0000 -10628.5934 1485.0797 0.0000 0.0000 1720.9911 -7415.1238 295.3255 -9136.1149 -7422.5674 297.7955 634.8184 793.2926 29830.4775 230.2984 314.7999
ENERGY: 600000 0.2563 5.1153 0.3991 0.0000 -10658.4965 1404.6101 0.0000 0.0000 1746.9159 -7501.1997 299.7743 -9248.1157 -7445.9594 298.1453 -399.6878 -330.2510 30146.8802 54.3325 125.0161
ENERGY: 900000 1.2192 2.9372 0.1718 0.0000 -10558.1595 1355.7017 0.0000 0.0000 1710.3513 -7487.7784 293.4997 -9198.1296 -7448.4268 298.6444 -864.5749 -790.4329 30349.0740 113.2417 177.2627
ENERGY: 1200000 0.6467 2.0587 0.3497 0.0000 -10668.8008 1415.1744 0.0000 0.0000 1743.8952 -7506.6760 299.2559 -9250.5712 -7446.7095 298.7113 -197.6108 -163.3768 30018.0991 137.5881 198.9700
ENERGY: 1500000 1.9087 2.2056 0.9179 0.0000 -10464.6014 1297.3029 0.0000 0.0000 1761.9305 -7400.3359 302.3508 -9162.2664 -7449.5075 298.6733 -1026.5070 -924.1938 30179.7962 61.6401 122.2887
TCL: Exiting due to exit command.
