Info: SIMULATION PARAMETERS:
Info: TIMESTEP               2
Info: NUMBER OF STEPS        0
Info: STEPS PER CYCLE        10
Info: PERIODIC CELL BASIS 1  41.545 0 0
Info: PERIODIC CELL BASIS 2  0 41.086 0
Info: PERIODIC CELL BASIS 3  0 0 45.707
Info: PERIODIC CELL CENTER   0 0 0
Info: WRAPPING WATERS AROUND PERIODIC BOUNDARIES ON OUTPUT.
Info: WRAPPING ALL CLUSTERS AROUND PERIODIC BOUNDARIES ON OUTPUT.
Info: FIRST LDB TIMESTEP     50
Info: LAST LDB TIMESTEP     -1
Info: HOM BACKGROUND SCALING 1
Info: PME BACKGROUND SCALING 1
Info: MIN ATOMS PER PATCH    40
Info: EMPTY PATCH LOAD       40 ATOMS
Info: INITIAL TEMPERATURE    300
Info: CENTER OF MASS MOVING INITIALLY? NO
Info: DIELECTRIC             1
Info: EXCLUDE                SCALED ONE-FOUR
Info: 1-4 ELECTROSTATICS SCALED BY 0.833333
Info: MODIFIED 1-4 VDW PARAMETERS WILL BE USED
Info: DCD FILENAME           mobley_2078467_min.dcd
Info: DCD FREQUENCY          5000
Info: DCD FIRST STEP         5000
Info: DCD FILE WILL CONTAIN UNIT CELL DATA
Info: XST FILENAME           mobley_2078467_min.xst
Info: XST FREQUENCY          5000
Info: NO VELOCITY DCD OUTPUT
Info: NO FORCE DCD OUTPUT
Info: OUTPUT FILENAME        mobley_2078467_min
Info: BINARY OUTPUT FILES WILL BE USED
Info: RESTART FILENAME       mobley_2078467_min.restart
Info: RESTART FREQUENCY      5000
Info: BINARY RESTART FILES WILL BE USED
Info: CUTOFF                 9
Info: PAIRLIST DISTANCE      11
Info: PAIRLIST SHRINK RATE   0.01
Info: PAIRLIST GROW RATE     0.01
Info: PAIRLIST TRIGGER       0.3
Info: PAIRLISTS PER CYCLE    2
Info: PAIRLISTS ENABLED
Info: MARGIN                 8
Info: HYDROGEN GROUP CUTOFF  2.5
Info: PATCH DIMENSION        21.5
Info: ENERGY OUTPUT STEPS    5000
Info: ENERGY EVALUATION STEPS    5000
Info: OUTPUT ENERGY PRECISION 4
Info: CROSSTERM ENERGY INCLUDED IN DIHEDRAL
Info: TIMING OUTPUT STEPS    50000
Info: PRESSURE OUTPUT STEPS  5000
Info: LANGEVIN DYNAMICS ACTIVE
Info: LANGEVIN TEMPERATURE   300
Info: LANGEVIN USING BBK INTEGRATOR
Info: LANGEVIN DAMPING COEFFICIENT IS 1 INVERSE PS
Info: LANGEVIN DYNAMICS APPLIED TO HYDROGENS
Info: LANGEVIN PISTON PRESSURE CONTROL ACTIVE
Info:        TARGET PRESSURE IS 1.01325 BAR
Info:     OSCILLATION PERIOD IS 50 FS
Info:             DECAY TIME IS 25 FS
Info:     PISTON TEMPERATURE IS 300 K
Info:       PRESSURE CONTROL IS GROUP-BASED
Info:    INITIAL STRAIN RATE IS 0 0 0
Info:       CELL FLUCTUATION IS ISOTROPIC
Info: PARTICLE MESH EWALD (PME) ACTIVE
Info: PME TOLERANCE               1e-06
Info: PME EWALD COEFFICIENT       0.348832
Info: PME INTERPOLATION ORDER     4
Info: PME GRID DIMENSIONS         44 44 48
Info: PME MAXIMUM GRID SPACING    1
Info: FULL ELECTROSTATIC EVALUATION FREQUENCY      2
Info: USING VERLET I (r-RESPA) MTS SCHEME.
Info: C1 SPLITTING OF LONG RANGE ELECTROSTATICS
Info: PLACING ATOMS IN PATCHES BY HYDROGEN GROUPS
Info: RIGID BONDS TO HYDROGEN : ALL
Info:         ERROR TOLERANCE : 1e-08
Info:          MAX ITERATIONS : 100
Info: RIGID WATER USING SETTLE ALGORITHM
Info: RANDOM NUMBER SEED     1741338798
Info: USE HYDROGEN BONDS?    NO
Info: Using AMBER format force field!
Info: AMBER PARM FILE        mobley_2078467.prmtop
Info: COORDINATE PDB         mobley_2078467.pdb
Info: Exclusions will be read from PARM file!
Info: SCNB (VDW SCALING)     2
Info: USING ARITHMETIC MEAN TO COMBINE L-J SIGMA PARAMETERS
Info: SUMMARY OF PARAMETERS:
Info: 11 BONDS
Info: 15 ANGLES
Info:   15 HARMONIC
Info:   0 COSINE-BASED
Info: 17 DIHEDRAL
Info: 0 IMPROPER
Info: 0 CROSSTERM
Info: 0 VDW
Info: 45 VDW_PAIRS
Info: 0 NBTHOLE_PAIRS
Info: STRUCTURE SUMMARY:
Info: 5580 ATOMS
Info: 5580 BONDS
Info: 58 ANGLES
Info: 95 DIHEDRALS
Info: 0 IMPROPERS
Info: 0 CROSSTERMS
Info: 5715 EXCLUSIONS
Info: 5565 RIGID BONDS
Info: 11175 DEGREES OF FREEDOM
Info: 1864 HYDROGEN GROUPS
Info: 4 ATOMS IN LARGEST HYDROGEN GROUP
Info: 1864 MIGRATION GROUPS
Info: 4 ATOMS IN LARGEST MIGRATION GROUP
Info: TOTAL MASS = 33517.9 amu
Info: TOTAL CHARGE = -0.000199996 e
Info: MASS DENSITY = 0.713412 g/cm^3
Info: ATOM DENSITY = 0.0715219 atoms/A^3
Info: ADDED 0 IMPLICIT EXCLUSIONS
Info: NONBONDED TABLE R-SQUARED SPACING: 0.0625
Info: NONBONDED TABLE SIZE: 705 POINTS
Info: REMOVING COM VELOCITY 0.0274073 -0.0331183 -0.000190585
TCL: Minimizing for 2000 steps
ETITLE: TS BOND ANGLE DIHED IMPRP ELECT VDW BOUNDARY MISC KINETIC TOTAL TEMP POTENTIAL TOTAL3 TEMPAVG PRESSURE GPRESSURE VOLUME PRESSAVG GPRESSAVG
ENERGY: 0 0.2071 3.0630 6.3720 0.0000 -17235.8996 1900.2720 0.0000 0.0000 0.0000 -15325.9854 0.0000 -15325.9854 -15325.9854 0.0000 10805.1358 -15294.3954 78018.0951 10805.1358 -15294.3954
ENERGY: 400 13.6081 11.5923 5.8584 0.0000 -23238.1351 3313.8126 0.0000 0.0000 0.0000 -19893.2637 0.0000 -19893.2637 -19893.2637 0.0000 15281.2069 9963.3450 78018.0951 15281.2069 9963.3450
ENERGY: 800 22.5653 10.1974 4.9605 0.0000 -24548.4471 3896.3209 0.0000 0.0000 0.0000 -20614.4030 0.0000 -20614.4030 -20614.4030 0.0000 17622.2630 11950.3563 78018.0951 17622.2630 11950.3563
ENERGY: 1200 3.3286 2.9015 4.2270 0.0000 -25076.2062 4146.2818 0.0000 0.0000 0.0000 -20919.4673 0.0000 -20919.4673 -20919.4673 0.0000 18714.5719 12873.7472 78018.0951 18714.5719 12873.7472
ENERGY: 1600 0.7619 1.3133 4.2268 0.0000 -25467.0493 4382.9758 0.0000 0.0000 0.0000 -21077.7715 0.0000 -21077.7715 -21077.7715 0.0000 19784.0302 14046.8224 78018.0951 19784.0302 14046.8224
ENERGY: 2000 0.7541 1.3245 4.2838 0.0000 -25578.8612 4424.3871 0.0000 0.0000 0.0000 -21148.1117 0.0000 -21148.1117 -21148.1117 0.0000 19963.0596 14158.7166 78018.0951 19963.0596 14158.7166
TCL: Exiting due to exit command.
Info: NAMD 3.0.1 for Linux-x86_64-multicore
Info: Please visit http://www.ks.uiuc.edu/Research/namd/
Info: for updates, documentation, and support information.
Info: Please cite Phillips et al., J. Chem. Phys. 153:044130 (2020) doi:10.1063/5.0014475
Info: in all publications reporting results obtained with NAMD.
Info: Based on Charm++/Converse 80000 for multicore-linux-x86_64-gcc
Info: Built Mon Oct 14 11:11:06 CDT 2024 by dhardy on athine.ks.uiuc.edu
Info: 1 NAMD  3.0.1  Linux-x86_64-multicore  16    k010  z5358697
Info: Running on 16 processors, 1 nodes, 1 physical nodes.
Info: CPU topology information available.
Info: Charm++/Converse parallel runtime startup completed at 0.00912983 s
Info: 1043.45 MB of memory in use based on /proc/self/stat
Info: Configuration file is mobley_2078467_equil.namd
Info: Working in the current directory /srv/scratch/z5358697/prod_prep_1/2078467
TCL: Running 25000 steps at 30 kelvin.
TCL: Suspending until startup complete.
Info: SIMULATION PARAMETERS:
Info: TIMESTEP               2
Info: NUMBER OF STEPS        0
Info: STEPS PER CYCLE        10
Info: PERIODIC CELL BASIS 1  41.545 0 0
Info: PERIODIC CELL BASIS 2  0 41.086 0
Info: PERIODIC CELL BASIS 3  0 0 45.707
Info: PERIODIC CELL CENTER   0 0 0
Info: WRAPPING WATERS AROUND PERIODIC BOUNDARIES ON OUTPUT.
Info: WRAPPING ALL CLUSTERS AROUND PERIODIC BOUNDARIES ON OUTPUT.
Info: FIRST LDB TIMESTEP     50
Info: LAST LDB TIMESTEP     -1
Info: HOM BACKGROUND SCALING 1
Info: PME BACKGROUND SCALING 1
Info: MIN ATOMS PER PATCH    40
Info: EMPTY PATCH LOAD       40 ATOMS
Info: INITIAL TEMPERATURE    300
Info: CENTER OF MASS MOVING INITIALLY? NO
Info: DIELECTRIC             1
Info: EXCLUDE                SCALED ONE-FOUR
Info: 1-4 ELECTROSTATICS SCALED BY 0.833333
Info: MODIFIED 1-4 VDW PARAMETERS WILL BE USED
Info: DCD FILENAME           mobley_2078467_equil.dcd
Info: DCD FREQUENCY          5000
Info: DCD FIRST STEP         5000
Info: DCD FILE WILL CONTAIN UNIT CELL DATA
Info: XST FILENAME           mobley_2078467_equil.xst
Info: XST FREQUENCY          5000
Info: NO VELOCITY DCD OUTPUT
Info: NO FORCE DCD OUTPUT
Info: OUTPUT FILENAME        mobley_2078467_equil
Info: BINARY OUTPUT FILES WILL BE USED
Info: RESTART FILENAME       mobley_2078467_equil.restart
Info: RESTART FREQUENCY      5000
Info: BINARY RESTART FILES WILL BE USED
Info: CUTOFF                 9
Info: PAIRLIST DISTANCE      11
Info: PAIRLIST SHRINK RATE   0.01
Info: PAIRLIST GROW RATE     0.01
Info: PAIRLIST TRIGGER       0.3
Info: PAIRLISTS PER CYCLE    2
Info: PAIRLISTS ENABLED
Info: MARGIN                 8
Info: HYDROGEN GROUP CUTOFF  2.5
Info: PATCH DIMENSION        21.5
Info: ENERGY OUTPUT STEPS    5000
Info: ENERGY EVALUATION STEPS    5000
Info: OUTPUT ENERGY PRECISION 4
Info: CROSSTERM ENERGY INCLUDED IN DIHEDRAL
Info: TIMING OUTPUT STEPS    50000
Info: PRESSURE OUTPUT STEPS  5000
Info: LANGEVIN DYNAMICS ACTIVE
Info: LANGEVIN TEMPERATURE   30
Info: LANGEVIN USING BBK INTEGRATOR
Info: LANGEVIN DAMPING COEFFICIENT IS 1 INVERSE PS
Info: LANGEVIN DYNAMICS APPLIED TO HYDROGENS
Info: LANGEVIN PISTON PRESSURE CONTROL ACTIVE
Info:        TARGET PRESSURE IS 1.01325 BAR
Info:     OSCILLATION PERIOD IS 50 FS
Info:             DECAY TIME IS 25 FS
Info:     PISTON TEMPERATURE IS 300 K
Info:       PRESSURE CONTROL IS GROUP-BASED
Info:    INITIAL STRAIN RATE IS 0 0 0
Info:       CELL FLUCTUATION IS ISOTROPIC
Info: PARTICLE MESH EWALD (PME) ACTIVE
Info: PME TOLERANCE               1e-06
Info: PME EWALD COEFFICIENT       0.348832
Info: PME INTERPOLATION ORDER     4
Info: PME GRID DIMENSIONS         44 44 48
Info: PME MAXIMUM GRID SPACING    1
Info: FULL ELECTROSTATIC EVALUATION FREQUENCY      2
Info: USING VERLET I (r-RESPA) MTS SCHEME.
Info: C1 SPLITTING OF LONG RANGE ELECTROSTATICS
Info: PLACING ATOMS IN PATCHES BY HYDROGEN GROUPS
Info: RIGID BONDS TO HYDROGEN : ALL
Info:         ERROR TOLERANCE : 1e-08
Info:          MAX ITERATIONS : 100
Info: RIGID WATER USING SETTLE ALGORITHM
Info: RANDOM NUMBER SEED     1741338821
Info: USE HYDROGEN BONDS?    NO
Info: Using AMBER format force field!
Info: AMBER PARM FILE        mobley_2078467.prmtop
Info: COORDINATE PDB         mobley_2078467.pdb
Info: Exclusions will be read from PARM file!
Info: SCNB (VDW SCALING)     2
Info: USING ARITHMETIC MEAN TO COMBINE L-J SIGMA PARAMETERS
Info: BINARY COORDINATES     mobley_2078467_min.coor
Info: SUMMARY OF PARAMETERS:
Info: 11 BONDS
Info: 15 ANGLES
Info:   15 HARMONIC
Info:   0 COSINE-BASED
Info: 17 DIHEDRAL
Info: 0 IMPROPER
Info: 0 CROSSTERM
Info: 0 VDW
Info: 45 VDW_PAIRS
Info: 0 NBTHOLE_PAIRS
Info: STRUCTURE SUMMARY:
Info: 5580 ATOMS
Info: 5580 BONDS
Info: 58 ANGLES
Info: 95 DIHEDRALS
Info: 0 IMPROPERS
Info: 0 CROSSTERMS
Info: 5715 EXCLUSIONS
Info: 5565 RIGID BONDS
Info: 11175 DEGREES OF FREEDOM
Info: 1864 HYDROGEN GROUPS
Info: 4 ATOMS IN LARGEST HYDROGEN GROUP
Info: 1864 MIGRATION GROUPS
Info: 4 ATOMS IN LARGEST MIGRATION GROUP
Info: TOTAL MASS = 33517.9 amu
Info: TOTAL CHARGE = -0.000199996 e
Info: MASS DENSITY = 0.713412 g/cm^3
Info: ATOM DENSITY = 0.0715219 atoms/A^3
Info: ADDED 0 IMPLICIT EXCLUSIONS
Info: NONBONDED TABLE R-SQUARED SPACING: 0.0625
Info: NONBONDED TABLE SIZE: 705 POINTS
Info: REMOVING COM VELOCITY 0.107136 -0.110187 0.164618
TCL: Running for 25000 steps
ETITLE: TS BOND ANGLE DIHED IMPRP ELECT VDW BOUNDARY MISC KINETIC TOTAL TEMP POTENTIAL TOTAL3 TEMPAVG PRESSURE GPRESSURE VOLUME PRESSAVG GPRESSAVG
ENERGY: 0 0.7541 1.3245 4.2838 0.0000 -25578.8612 4424.3871 0.0000 0.0000 3334.7965 -17813.3152 300.3393 -21148.1117 -17812.6501 300.3393 390.1261 429.8672 78018.0951 390.1261 429.8672
ENERGY: 5000 0.8872 2.4770 4.4584 0.0000 -26675.4122 4593.8551 0.0000 0.0000 338.2586 -21735.4760 30.4643 -22073.7346 -21734.4243 47.4199 28.3814 77.7236 54039.3772 2.7499 2.9000
ENERGY: 10000 0.9808 2.8512 4.6713 0.0000 -26696.8749 4565.6708 0.0000 0.0000 343.0193 -21779.6814 30.8931 -22122.7007 -21778.8384 30.2771 -156.0811 -75.5990 53632.1681 4.0881 4.0409
ENERGY: 15000 1.2737 3.0727 4.7191 0.0000 -26807.7739 4631.7861 0.0000 0.0000 341.7133 -21825.2090 30.7755 -22166.9223 -21824.0465 30.2765 129.1364 193.7937 53288.7452 3.3799 3.4374
ENERGY: 20000 1.6703 3.1344 4.6086 0.0000 -26556.3647 4366.8039 0.0000 0.0000 325.1482 -21854.9993 29.2836 -22180.1475 -21854.1845 29.8543 -1231.2748 -1151.5123 53846.8245 2.3228 2.3895
ENERGY: 25000 1.6890 2.2325 5.2220 0.0000 -26783.3285 4568.0097 0.0000 0.0000 333.9101 -21872.2650 30.0727 -22206.1751 -21871.6008 30.0953 -275.6056 -215.5219 53381.9625 1.4431 1.6544
TCL: Running 25000 steps at 60 kelvin.
TCL: Setting parameter langevinTemp to 60
TCL: Running for 25000 steps
ETITLE: TS BOND ANGLE DIHED IMPRP ELECT VDW BOUNDARY MISC KINETIC TOTAL TEMP POTENTIAL TOTAL3 TEMPAVG PRESSURE GPRESSURE VOLUME PRESSAVG GPRESSAVG
ENERGY: 25000 1.6890 2.2325 5.2220 0.0000 -26783.3285 4568.0097 0.0000 0.0000 333.7446 -21872.4305 30.0578 -22206.1751 -21871.7008 30.0578 -281.3342 -215.5919 53381.9625 -281.3342 -215.5919
ENERGY: 30000 1.6343 2.7369 4.4178 0.0000 -26611.5086 4709.2430 0.0000 0.0000 659.8508 -21233.6258 59.4277 -21893.4766 -21231.4359 57.1428 1087.0190 1172.2596 53047.9173 -0.8837 -0.8862
ENERGY: 35000 1.6198 4.4937 5.4409 0.0000 -26560.2222 4578.2330 0.0000 0.0000 662.9721 -21307.4628 59.7088 -21970.4348 -21305.2350 60.5821 335.0613 395.2845 53254.5566 4.9278 4.8134
ENERGY: 40000 1.0705 4.4725 4.9510 0.0000 -26381.1632 4402.7331 0.0000 0.0000 658.4219 -21309.5142 59.2990 -21967.9361 -21307.9031 60.4725 -455.9811 -392.9149 53497.1800 4.4391 4.2318
ENERGY: 45000 1.9095 3.8354 4.9786 0.0000 -26542.1514 4553.3076 0.0000 0.0000 668.2907 -21309.8296 60.1878 -21978.1203 -21307.4730 60.0543 227.4826 274.1449 53209.4065 3.3190 3.2806
ENERGY: 50000 1.9404 3.5956 5.3175 0.0000 -26408.8961 4398.3700 0.0000 0.0000 662.0921 -21337.5804 59.6295 -21999.6725 -21335.4094 60.5763 -560.0441 -512.4084 53492.0246 4.7095 4.6062
TCL: Running 25000 steps at 90 kelvin.
TCL: Setting parameter langevinTemp to 90
TCL: Running for 25000 steps
ETITLE: TS BOND ANGLE DIHED IMPRP ELECT VDW BOUNDARY MISC KINETIC TOTAL TEMP POTENTIAL TOTAL3 TEMPAVG PRESSURE GPRESSURE VOLUME PRESSAVG GPRESSAVG
ENERGY: 50000 1.9404 3.5956 5.3175 0.0000 -26408.8961 4398.3700 0.0000 0.0000 661.7584 -21337.9141 59.5995 -21999.6725 -21336.5669 59.5995 -578.0351 -512.0381 53492.0246 -578.0351 -512.0381
ENERGY: 55000 1.3322 6.5223 5.3882 0.0000 -26144.8123 4427.5895 0.0000 0.0000 999.6027 -20704.3775 90.0265 -21703.9801 -20701.6136 87.3229 338.5424 360.7852 53319.7437 -4.7963 -4.5856
ENERGY: 60000 2.6250 4.2625 5.1045 0.0000 -26231.6727 4501.0479 0.0000 0.0000 1017.1942 -20701.4386 91.6108 -21718.6328 -20698.6567 90.5302 527.8423 571.4805 53334.3597 2.2948 2.2179
ENERGY: 65000 1.8847 4.3324 4.8744 0.0000 -26075.1619 4317.8038 0.0000 0.0000 1003.4368 -20742.8300 90.3718 -21746.2668 -20740.0362 90.2477 -459.3205 -379.6180 53702.9655 -3.2930 -3.2269
ENERGY: 70000 2.6521 5.0288 6.9966 0.0000 -26375.5656 4585.6634 0.0000 0.0000 979.7339 -20795.4907 88.2371 -21775.2247 -20792.6408 90.2067 740.2586 826.4222 53204.7715 0.9482 0.9070
ENERGY: 75000 2.2620 3.5516 5.0947 0.0000 -26285.2719 4458.7932 0.0000 0.0000 1008.4556 -20807.1147 90.8238 -21815.5703 -20804.3959 90.6688 62.3213 117.5184 53325.7646 5.3794 5.6548
TCL: Running 25000 steps at 120 kelvin.
TCL: Setting parameter langevinTemp to 120
TCL: Running for 25000 steps
ETITLE: TS BOND ANGLE DIHED IMPRP ELECT VDW BOUNDARY MISC KINETIC TOTAL TEMP POTENTIAL TOTAL3 TEMPAVG PRESSURE GPRESSURE VOLUME PRESSAVG GPRESSAVG
ENERGY: 75000 2.2620 3.5516 5.0947 0.0000 -26285.2719 4458.7932 0.0000 0.0000 1007.9720 -20807.5983 90.7802 -21815.5703 -20805.8779 90.7802 53.3082 117.8901 53325.7646 53.3082 117.8901
ENERGY: 80000 3.8271 5.0774 5.9251 0.0000 -25610.8654 4155.3790 0.0000 0.0000 1320.7895 -20119.8673 118.9533 -21440.6568 -20115.9926 116.0435 -673.1038 -624.5467 54047.0575 -0.0325 0.0589
ENERGY: 85000 3.5683 5.7149 6.9816 0.0000 -25951.6702 4500.5510 0.0000 0.0000 1331.6961 -20103.1583 119.9356 -21434.8543 -20099.7178 120.2126 967.6043 996.7449 53605.1524 -0.5151 -0.0147
ENERGY: 90000 2.4294 6.0093 5.3799 0.0000 -25876.2695 4362.8612 0.0000 0.0000 1321.4597 -20178.1299 119.0137 -21499.5897 -20174.3196 120.4276 363.2361 410.1616 53544.8109 2.0309 2.1336
ENERGY: 95000 2.9237 8.0226 5.4833 0.0000 -25807.8188 4290.9526 0.0000 0.0000 1368.1995 -20132.2371 123.2231 -21500.4367 -20128.5146 120.0765 -62.2961 2.8767 53886.0851 3.7238 3.6031
ENERGY: 100000 3.5377 5.1994 5.7857 0.0000 -25659.8332 4133.6938 0.0000 0.0000 1316.0690 -20195.5476 118.5282 -21511.6166 -20190.6726 120.3528 -997.6336 -944.3969 54231.6364 1.2887 1.1306
TCL: Running 25000 steps at 150 kelvin.
TCL: Setting parameter langevinTemp to 150
TCL: Running for 25000 steps
ETITLE: TS BOND ANGLE DIHED IMPRP ELECT VDW BOUNDARY MISC KINETIC TOTAL TEMP POTENTIAL TOTAL3 TEMPAVG PRESSURE GPRESSURE VOLUME PRESSAVG GPRESSAVG
ENERGY: 100000 3.5377 5.1994 5.7857 0.0000 -25659.8332 4133.6938 0.0000 0.0000 1315.4053 -20196.2113 118.4684 -21511.6166 -20193.5621 118.4684 -1002.0392 -943.6446 54231.6364 -1002.0392 -943.6446
ENERGY: 105000 3.5397 8.6588 4.9104 0.0000 -25450.7680 4325.9881 0.0000 0.0000 1663.5259 -19444.1453 149.8209 -21107.6711 -19441.5450 144.8317 841.1919 911.7892 53753.9144 0.0635 0.3551
ENERGY: 110000 4.3734 5.7314 5.3415 0.0000 -25355.8012 4184.1878 0.0000 0.0000 1699.5251 -19456.6420 153.0631 -21156.1672 -19451.5204 149.5480 -96.8070 -14.5902 54330.3781 3.4975 3.3902
ENERGY: 115000 3.0142 5.5936 6.4506 0.0000 -25242.1106 4068.7700 0.0000 0.0000 1667.7442 -19490.5379 150.2008 -21158.2821 -19485.2977 149.5187 -389.4262 -369.1710 54396.8326 0.3343 0.2382
ENERGY: 120000 2.3067 8.4187 5.9865 0.0000 -25511.7698 4300.6997 0.0000 0.0000 1686.2765 -19508.0818 151.8699 -21194.3583 -19502.8142 150.1841 558.7597 669.2755 54032.7361 7.9705 7.3941
ENERGY: 125000 1.3864 9.3389 6.5811 0.0000 -25282.0146 4097.3079 0.0000 0.0000 1666.4479 -19500.9524 150.0841 -21167.4003 -19497.1212 150.1366 -384.4366 -334.2682 54317.8614 4.2802 4.0898
TCL: Running 50000 steps at 180 kelvin.
TCL: Setting parameter langevinTemp to 180
TCL: Running for 50000 steps
ETITLE: TS BOND ANGLE DIHED IMPRP ELECT VDW BOUNDARY MISC KINETIC TOTAL TEMP POTENTIAL TOTAL3 TEMPAVG PRESSURE GPRESSURE VOLUME PRESSAVG GPRESSAVG
ENERGY: 125000 1.3864 9.3389 6.5811 0.0000 -25282.0146 4097.3079 0.0000 0.0000 1665.6347 -19501.7657 150.0108 -21167.4003 -19498.8351 150.0108 -389.4945 -334.1181 54317.8614 -389.4945 -334.1181
ENERGY: 135000 3.4959 11.3664 5.8787 0.0000 -24539.1482 3822.7235 0.0000 0.0000 2002.7506 -18692.9329 180.3723 -20695.6836 -18687.7998 179.0951 -659.1789 -581.3976 54400.6540 7.7159 7.0971
ENERGY: 145000 2.7638 9.0142 5.2434 0.0000 -24646.3873 3953.9971 0.0000 0.0000 2020.5914 -18654.7774 181.9790 -20675.3688 -18651.1125 179.3292 210.4725 251.4752 53994.5009 11.2985 10.9657
ENERGY: 155000 4.3038 9.9450 4.3823 0.0000 -24573.4565 3884.1708 0.0000 0.0000 2042.2856 -18628.3691 183.9329 -20670.6547 -18622.0110 181.1041 -252.3384 -197.7213 54211.1510 -2.1197 -1.5623
ENERGY: 165000 5.1443 8.8806 5.2833 0.0000 -24718.7850 4002.0440 0.0000 0.0000 1974.6125 -18722.8203 177.8381 -20697.4328 -18717.5382 180.8475 111.6762 197.9618 54405.7694 4.4121 4.6870
ENERGY: 175000 4.4551 13.5846 7.4963 0.0000 -24888.4068 4076.8388 0.0000 0.0000 1992.6939 -18793.3382 179.4665 -20786.0320 -18788.3707 179.6082 163.7312 218.7475 54436.3269 1.8654 1.6186
TCL: Running 50000 steps at 210 kelvin.
TCL: Setting parameter langevinTemp to 210
TCL: Running for 50000 steps
ETITLE: TS BOND ANGLE DIHED IMPRP ELECT VDW BOUNDARY MISC KINETIC TOTAL TEMP POTENTIAL TOTAL3 TEMPAVG PRESSURE GPRESSURE VOLUME PRESSAVG GPRESSAVG
ENERGY: 175000 4.4551 13.5846 7.4963 0.0000 -24888.4068 4076.8388 0.0000 0.0000 1991.6919 -18794.3401 179.3763 -20786.0320 -18791.0035 179.3763 151.0198 218.6518 54436.3269 151.0198 218.6518
ENERGY: 185000 4.9635 14.7298 8.0976 0.0000 -23675.6451 3682.8469 0.0000 0.0000 2310.5816 -17654.4257 208.0962 -19965.0073 -17649.3528 210.2411 -26.8749 81.3119 54552.8817 1.0130 1.1484
ENERGY: 195000 3.6531 9.8565 5.4463 0.0000 -23582.8709 3637.6381 0.0000 0.0000 2310.8842 -17615.3927 208.1235 -19926.2770 -17611.6458 209.2430 234.8143 321.6899 54346.2218 4.0021 4.2708
ENERGY: 205000 3.2355 10.5955 8.4647 0.0000 -23475.3412 3595.8919 0.0000 0.0000 2324.1423 -17533.0114 209.3175 -19857.1537 -17529.1075 210.2939 -123.9002 -45.0121 54880.8219 7.2842 7.0179
ENERGY: 215000 6.4056 14.4910 7.5969 0.0000 -23537.0086 3620.8330 0.0000 0.0000 2333.4028 -17554.2791 210.1515 -19887.6819 -17550.6524 211.9674 185.2263 248.4116 54146.1713 -0.0292 -0.0908
ENERGY: 225000 3.7680 8.5525 9.2652 0.0000 -23448.1506 3560.5948 0.0000 0.0000 2391.1875 -17474.7826 215.3558 -19865.9701 -17469.8704 209.6511 -112.4782 -90.9155 54672.6985 2.6543 3.1484
TCL: Running 50000 steps at 240 kelvin.
TCL: Setting parameter langevinTemp to 240
TCL: Running for 50000 steps
ETITLE: TS BOND ANGLE DIHED IMPRP ELECT VDW BOUNDARY MISC KINETIC TOTAL TEMP POTENTIAL TOTAL3 TEMPAVG PRESSURE GPRESSURE VOLUME PRESSAVG GPRESSAVG
ENERGY: 225000 3.7680 8.5525 9.2652 0.0000 -23448.1506 3560.5948 0.0000 0.0000 2390.0391 -17475.9310 215.2523 -19865.9701 -17472.3079 215.2523 -163.8215 -90.5996 54672.6985 -163.8215 -90.5996
ENERGY: 235000 4.1643 13.6819 7.4613 0.0000 -22148.4802 3143.8340 0.0000 0.0000 2648.9762 -16330.3625 238.5728 -18979.3387 -16325.4457 239.6625 -287.9912 -242.5043 54962.0540 8.3575 8.4398
ENERGY: 245000 3.1076 7.8136 8.0375 0.0000 -22045.5591 3080.2380 0.0000 0.0000 2663.0583 -16283.3042 239.8411 -18946.3625 -16277.7663 241.0108 -585.7331 -476.8417 55286.4923 3.5646 3.5798
ENERGY: 255000 4.3152 17.2788 7.0726 0.0000 -22388.8167 3246.8062 0.0000 0.0000 2669.2174 -16444.1265 240.3958 -19113.3439 -16439.1343 240.5824 -217.8538 -123.1049 55284.1649 1.5806 1.3327
ENERGY: 265000 2.7416 11.1212 4.9307 0.0000 -22090.9734 3120.1165 0.0000 0.0000 2600.4851 -16351.5784 234.2056 -18952.0634 -16346.7784 239.6921 -398.8122 -294.8784 54969.2372 2.2917 2.4400
ENERGY: 275000 1.9721 12.5373 14.5717 0.0000 -22324.2963 3280.3884 0.0000 0.0000 2636.7345 -16378.0922 237.4703 -19014.8268 -16371.3755 239.5558 121.9375 203.0235 55142.0792 6.3398 7.3459
TCL: Running 50000 steps at 270 kelvin.
TCL: Setting parameter langevinTemp to 270
TCL: Running for 50000 steps
ETITLE: TS BOND ANGLE DIHED IMPRP ELECT VDW BOUNDARY MISC KINETIC TOTAL TEMP POTENTIAL TOTAL3 TEMPAVG PRESSURE GPRESSURE VOLUME PRESSAVG GPRESSAVG
ENERGY: 275000 1.9721 12.5373 14.5717 0.0000 -22324.2963 3280.3884 0.0000 0.0000 2635.3875 -16379.4393 237.3490 -19014.8268 -16374.5274 237.3490 126.6172 202.5315 55142.0792 126.6172 202.5315
ENERGY: 285000 3.0476 13.8725 6.3902 0.0000 -21136.3213 2854.3560 0.0000 0.0000 3002.0111 -15256.6440 270.3679 -18258.6551 -15251.0875 270.2017 -333.7019 -239.2850 55600.7108 7.2892 6.8830
ENERGY: 295000 4.5881 12.0540 7.1254 0.0000 -21165.5979 2872.8404 0.0000 0.0000 3015.0438 -15253.9463 271.5417 -18268.9901 -15247.4734 268.0157 -387.7377 -336.4236 55945.2407 6.0621 6.3834
ENERGY: 305000 8.7943 17.5989 6.4714 0.0000 -21126.3478 2966.1804 0.0000 0.0000 2944.2230 -15183.0798 265.1634 -18127.3028 -15175.9115 270.3932 136.9955 227.8821 56212.2785 4.9499 4.5618
ENERGY: 315000 3.0713 16.6302 6.2145 0.0000 -21267.3456 3048.6191 0.0000 0.0000 3021.8876 -15170.9228 272.1580 -18192.8104 -15163.5329 269.4822 451.8926 513.5392 56161.2377 5.8220 6.0546
ENERGY: 325000 3.6301 14.5846 6.8767 0.0000 -21285.4485 2988.1800 0.0000 0.0000 2975.7252 -15296.4519 268.0005 -18272.1771 -15291.9232 269.8842 -56.9390 33.2436 56420.2812 2.0128 2.4114
TCL: Running 1000000 steps at 300 kelvin.
TCL: Setting parameter langevinTemp to 300
TCL: Running for 1000000 steps
ETITLE: TS BOND ANGLE DIHED IMPRP ELECT VDW BOUNDARY MISC KINETIC TOTAL TEMP POTENTIAL TOTAL3 TEMPAVG PRESSURE GPRESSURE VOLUME PRESSAVG GPRESSAVG
ENERGY: 325000 3.6301 14.5846 6.8767 0.0000 -21285.4485 2988.1800 0.0000 0.0000 2974.2351 -15297.9420 267.8663 -18272.1771 -15293.7463 267.8663 -52.1528 32.6750 56420.2812 -52.1528 32.6750
ENERGY: 525000 3.4147 12.8434 9.6232 0.0000 -20177.3910 2662.3868 0.0000 0.0000 3283.3478 -14205.7751 295.7057 -17489.1229 -14196.8406 300.5022 -208.2383 -128.1087 57274.9412 2.4551 2.7521
ENERGY: 725000 5.7865 10.5073 11.5913 0.0000 -19958.8353 2527.9081 0.0000 0.0000 3271.6420 -14131.4001 294.6515 -17403.0421 -14128.2938 300.6173 -754.3731 -662.9041 57623.0570 6.0915 6.8080
ENERGY: 925000 3.8147 14.7377 8.1717 0.0000 -20068.6138 2717.4792 0.0000 0.0000 3288.4826 -14035.9280 296.1682 -17324.4106 -14030.4692 299.3441 144.5763 229.6635 58012.2002 4.9025 4.7194
ENERGY: 1125000 4.5221 14.1719 11.6494 0.0000 -20624.1954 2902.7201 0.0000 0.0000 3314.2178 -14376.9140 298.4859 -17691.1318 -14371.4067 299.9673 614.3576 695.6316 57152.4404 4.1423 4.4935
ENERGY: 1325000 5.5141 14.2622 6.7880 0.0000 -20111.9260 2661.1313 0.0000 0.0000 3373.0369 -14051.1935 303.7833 -17424.2304 -14045.1568 300.7533 -120.5331 -34.3237 57247.9198 2.3873 1.4736
TCL: Exiting due to exit command.
