Info: SIMULATION PARAMETERS:
Info: TIMESTEP               2
Info: NUMBER OF STEPS        0
Info: STEPS PER CYCLE        10
Info: PERIODIC CELL BASIS 1  83.3857 0 0
Info: PERIODIC CELL BASIS 2  0 83.3857 0
Info: PERIODIC CELL BASIS 3  0 0 83.3857
Info: PERIODIC CELL CENTER   33.728 33.728 33.728
Info: WRAPPING ALL CLUSTERS AROUND PERIODIC BOUNDARIES ON OUTPUT.
Info: FIRST LDB TIMESTEP     50
Info: LAST LDB TIMESTEP     -1
Info: HOM BACKGROUND SCALING 1
Info: PME BACKGROUND SCALING 1
Info: MIN ATOMS PER PATCH    40
Info: EMPTY PATCH LOAD       40 ATOMS
Info: VELOCITY FILE          mobley_1328465_equilibrated.vel
Info: CENTER OF MASS MOVING INITIALLY? NO
Info: DIELECTRIC             1
Info: EXCLUDE                SCALED ONE-FOUR
Info: 1-4 ELECTROSTATICS SCALED BY 1
Info: MODIFIED 1-4 VDW PARAMETERS WILL BE USED
Info: DCD FILENAME           mobley_1328465_forwards.dcd
Info: DCD FREQUENCY          500
Info: DCD FIRST STEP         500
Info: DCD FILE WILL CONTAIN UNIT CELL DATA
Info: NO EXTENDED SYSTEM TRAJECTORY OUTPUT
Info: NO VELOCITY DCD OUTPUT
Info: NO FORCE DCD OUTPUT
Info: OUTPUT FILENAME        mobley_1328465_forwards
Info: BINARY OUTPUT FILES WILL BE USED
Info: NO RESTART FILE
Info: SWITCHING ACTIVE
Info: SWITCHING ON           10
Info: SWITCHING OFF          12
Info: PAIRLIST DISTANCE      14
Info: PAIRLIST SHRINK RATE   0.01
Info: PAIRLIST GROW RATE     0.01
Info: PAIRLIST TRIGGER       0.3
Info: PAIRLISTS PER CYCLE    2
Info: PAIRLISTS ENABLED
Info: MARGIN                 8
Info: HYDROGEN GROUP CUTOFF  2.5
Info: PATCH DIMENSION        24.5
Info: ENERGY OUTPUT STEPS    500
Info: ENERGY EVALUATION STEPS    500
Info: OUTPUT ENERGY PRECISION 4
Info: CROSSTERM ENERGY INCLUDED IN DIHEDRAL
Info: TIMING OUTPUT STEPS    500
Info: PRESSURE OUTPUT STEPS  500
Info: ALCHEMICAL FEP ON
Info: FEP CURRENT LAMBDA VALUE     0
Info: FEP COMPARISON LAMBDA VALUE  0.0625
Info: FEP INTRA-ALCHEMICAL NON-BONDED INTERACTIONS WILL BE DECOUPLED
Info: FEP INTRA-ALCHEMICAL BONDED INTERACTIONS WILL BE RETAINED
Info: FEP VDW SHIFTING COEFFICIENT 6
Info: FEP ELEC. ACTIVE FOR ANNIHILATED PARTICLES BETWEEN LAMBDA = 0 AND LAMBDA = 0.5
Info: FEP ELEC. ACTIVE FOR EXNIHILATED PARTICLES BETWEEN LAMBDA = 0.5 AND LAMBDA = 1
Info: FEP VDW ACTIVE FOR ANNIHILATED PARTICLES BETWEEN LAMBDA = 0 AND LAMBDA = 1
Info: FEP VDW ACTIVE FOR EXNIHILATED PARTICLES BETWEEN LAMBDA = 0 AND LAMBDA = 1
Info: FEP BOND ACTIVE FOR ANNIHILATED PARTICLES BETWEEN LAMBDA = 1 AND LAMBDA = 1
Info: FEP BOND ACTIVE FOR EXNIHILATED PARTICLES BETWEEN LAMBDA = 0 AND LAMBDA = 0
Info: LANGEVIN DYNAMICS ACTIVE
Info: LANGEVIN TEMPERATURE   298
Info: LANGEVIN USING BBK INTEGRATOR
Info: LANGEVIN DAMPING COEFFICIENT IS 1 INVERSE PS
Info: LANGEVIN DYNAMICS NOT APPLIED TO HYDROGENS
Info: LANGEVIN PISTON PRESSURE CONTROL ACTIVE
Info:        TARGET PRESSURE IS 1.01325 BAR
Info:     OSCILLATION PERIOD IS 100 FS
Info:             DECAY TIME IS 50 FS
Info:     PISTON TEMPERATURE IS 298 K
Info:       PRESSURE CONTROL IS GROUP-BASED
Info:    INITIAL STRAIN RATE IS 0.00014128 0.00014128 0.00014128
Info:       CELL FLUCTUATION IS ISOTROPIC
Info: PARTICLE MESH EWALD (PME) ACTIVE
Info: PME TOLERANCE               1e-05
Info: PME EWALD COEFFICIENT       0.226635
Info: PME INTERPOLATION ORDER     4
Info: PME GRID DIMENSIONS         84 84 84
Info: PME MAXIMUM GRID SPACING    1
Info: FULL ELECTROSTATIC EVALUATION FREQUENCY      1
Info: USING VERLET I (r-RESPA) MTS SCHEME.
Info: C1 SPLITTING OF LONG RANGE ELECTROSTATICS
Info: PLACING ATOMS IN PATCHES BY HYDROGEN GROUPS
Info: RIGID BONDS TO HYDROGEN : ALL
Info:         ERROR TOLERANCE : 1e-08
Info:          MAX ITERATIONS : 100
Info: RIGID WATER USING SETTLE ALGORITHM
Info: RANDOM NUMBER SEED     1740633716
Info: USE HYDROGEN BONDS?    NO
Info: COORDINATE PDB         mobley_1328465.pdb
Info: STRUCTURE FILE         mobley_1328465.psf
Info: PARAMETER file: CHARMM format!
Info: PARAMETERS             ../common/par_all27_prot_lipid.inp
Info: PARAMETERS             mobley_1328465.prm
Info: USING ARITHMETIC MEAN TO COMBINE L-J SIGMA PARAMETERS
Info: BINARY COORDINATES     mobley_1328465_equilibrated.coor
Info: SUMMARY OF PARAMETERS:
Info: 184 BONDS
Info: 454 ANGLES
Info: 572 DIHEDRAL
Info: 46 IMPROPER
Info: 6 CROSSTERM
Info: 123 VDW
Info: 0 VDW_PAIRS
Info: 0 NBTHOLE_PAIRS
Info: To read alchdata from file: mobley_1328465.pdb
Info: To read alchflag data from column: 5
Info: STRUCTURE SUMMARY:
Info: 3707 ATOMS
Info: 2473 BONDS
Info: 1245 ANGLES
Info: 9 DIHEDRALS
Info: 0 IMPROPERS
Info: 0 CROSSTERMS
Info: 0 EXCLUSIONS
Info: 3702 RIGID BONDS
Info: ALCH: 0 ATOMS TO DISAPPEAR IN FINAL STATE
Info: ALCH: 8 ATOMS TO APPEAR IN FINAL STATE
Info: 7419 DEGREES OF FREEDOM
Info: 1238 HYDROGEN GROUPS
Info: 3 ATOMS IN LARGEST HYDROGEN GROUP
Info: 1238 MIGRATION GROUPS
Info: 3 ATOMS IN LARGEST MIGRATION GROUP
Info: TOTAL MASS = 22346.4 amu
Info: TOTAL CHARGE = 1.02445e-08 e
Info: MASS DENSITY = 0.0640017 g/cm^3
Info: ATOM DENSITY = 0.00639363 atoms/A^3
Info: ADDED 3727 IMPLICIT EXCLUSIONS
Info: NONBONDED TABLE R-SQUARED SPACING: 0.0625
Info: NONBONDED TABLE SIZE: 769 POINTS
Info: REMOVING COM VELOCITY 0.0786581 -0.0664456 -0.0955027
TCL: Running for 5000 steps
ETITLE: TS BOND ANGLE DIHED IMPRP ELECT VDW BOUNDARY MISC KINETIC TOTAL TEMP POTENTIAL TOTAL3 TEMPAVG PRESSURE GPRESSURE VOLUME PRESSAVG GPRESSAVG
ENERGY: 0 1.2061 1.9159 2.1328 0.0000 -12823.7200 1326.2686 0.0000 0.0000 2268.7799 -9223.4167 307.7779 -11492.1966 -9219.2533 307.7779 -32.4019 -32.3769 579796.0669 -32.4019 -32.3769
ENERGY: 1000 0.3971 5.1869 1.2682 0.0000 -12757.8147 1378.8571 0.0000 0.0000 2180.0537 -9192.0517 295.7415 -11372.1054 -9188.0566 297.5570 15.0716 15.3071 578765.0470 1.1035 1.0744
ENERGY: 2000 1.4861 3.3082 1.8805 0.0000 -12709.3159 1338.2094 0.0000 0.0000 2216.3187 -9148.1130 300.6611 -11364.4317 -9141.0305 299.0216 -8.6479 -8.7521 602358.0462 -0.1008 -0.1126
ENERGY: 3000 0.5311 4.6284 1.2665 0.0000 -12642.1929 1304.2552 0.0000 0.0000 2215.7800 -9115.7318 300.5880 -11331.5118 -9111.7111 302.0483 -9.4040 -9.5354 595333.9617 2.1003 2.1283
ENERGY: 4000 0.4523 1.4919 1.5287 0.0000 -12800.0514 1411.1816 0.0000 0.0000 2222.6260 -9162.7709 301.5167 -11385.3969 -9157.8399 296.8195 19.9952 20.0847 609965.2774 1.8282 1.8288
ENERGY: 5000 0.6897 2.3973 1.8637 0.0000 -12766.6518 1373.2981 0.0000 0.0000 2273.6674 -9114.7357 308.4409 -11388.4031 -9110.2742 300.7529 23.6626 23.7749 592472.0110 0.7434 0.7130
TCL: Running FEP window   2: Lambda1 0.0625 Lambda2 0.125  [dLambda 0.0625]
TCL: Setting parameter firsttimestep to 0
TCL: Setting parameter alchLambda to 0.0625
Info: NONBONDED TABLE R-SQUARED SPACING: 0.0625
Info: NONBONDED TABLE SIZE: 769 POINTS
TCL: Setting parameter alchLambda2 to 0.125
Info: NONBONDED TABLE R-SQUARED SPACING: 0.0625
Info: NONBONDED TABLE SIZE: 769 POINTS
TCL: Running for 5000 steps
ETITLE: TS BOND ANGLE DIHED IMPRP ELECT VDW BOUNDARY MISC KINETIC TOTAL TEMP POTENTIAL TOTAL3 TEMPAVG PRESSURE GPRESSURE VOLUME PRESSAVG GPRESSAVG
ENERGY: 0 0.6897 2.3973 1.8637 0.0000 -12766.6518 1373.9789 0.0000 0.0000 2273.6034 -9114.1188 308.4322 -11387.7222 -9109.7603 308.4322 23.9029 23.9394 592472.0110 23.9029 23.9394
ENERGY: 1000 6.3438 4.5521 1.4972 0.0000 -12720.9891 1361.2734 0.0000 0.0000 2222.8175 -9124.5053 301.5427 -11347.3227 -9121.5540 300.1729 7.7343 7.1535 568363.4688 2.8341 2.8296
ENERGY: 2000 0.7521 4.8207 1.3502 0.0000 -12687.3391 1302.2417 0.0000 0.0000 2190.4237 -9187.7507 297.1482 -11378.1744 -9184.5957 296.4579 -30.0817 -29.5271 569601.5676 1.7993 1.8111
ENERGY: 3000 2.8718 3.5584 1.2767 0.0000 -12680.1674 1376.2458 0.0000 0.0000 2178.9369 -9117.2778 295.5899 -11296.2147 -9111.9069 301.2911 24.7305 24.6256 578460.8643 1.9095 1.9095
ENERGY: 4000 2.2668 3.5039 1.4279 0.0000 -12643.8880 1315.7263 0.0000 0.0000 2179.3559 -9141.6072 295.6468 -11320.9631 -9138.2847 298.3252 -12.4060 -12.6817 583717.5075 0.9343 0.9311
ENERGY: 5000 3.2525 6.3166 1.3060 0.0000 -12779.2515 1406.0187 0.0000 0.0000 2196.7180 -9165.6396 298.0021 -11362.3576 -9162.5881 297.9849 33.5888 33.5471 552850.2426 2.6174 2.6060
TCL: Running FEP window   3: Lambda1 0.125  Lambda2 0.1875 [dLambda 0.0625]
TCL: Setting parameter firsttimestep to 0
TCL: Setting parameter alchLambda to 0.125
Info: NONBONDED TABLE R-SQUARED SPACING: 0.0625
Info: NONBONDED TABLE SIZE: 769 POINTS
TCL: Setting parameter alchLambda2 to 0.1875
Info: NONBONDED TABLE R-SQUARED SPACING: 0.0625
Info: NONBONDED TABLE SIZE: 769 POINTS
TCL: Running for 5000 steps
ETITLE: TS BOND ANGLE DIHED IMPRP ELECT VDW BOUNDARY MISC KINETIC TOTAL TEMP POTENTIAL TOTAL3 TEMPAVG PRESSURE GPRESSURE VOLUME PRESSAVG GPRESSAVG
ENERGY: 0 3.2525 6.3166 1.3060 0.0000 -12779.2515 1406.2353 0.0000 0.0000 2196.6506 -9165.4905 297.9930 -11362.1411 -9161.6474 297.9930 33.6121 33.5713 552850.2426 33.6121 33.5713
ENERGY: 1000 1.1101 4.8113 2.2816 0.0000 -12781.2665 1352.7112 0.0000 0.0000 2223.7752 -9196.5772 301.6726 -11420.3524 -9191.9021 297.2243 -14.2345 -14.7210 544517.3479 0.4694 0.4791
ENERGY: 2000 1.6025 2.9278 1.5972 0.0000 -12806.0866 1419.4493 0.0000 0.0000 2218.5938 -9161.9160 300.9697 -11380.5098 -9157.5983 298.7666 44.1253 44.4370 543945.5942 2.9620 2.9373
ENERGY: 3000 0.4133 4.8752 1.2552 0.0000 -12806.3083 1435.9703 0.0000 0.0000 2205.1779 -9158.6165 299.1497 -11363.7944 -9156.1141 297.2651 42.5254 41.7727 564237.0925 1.8210 1.8070
ENERGY: 4000 0.8605 4.4567 1.2191 0.0000 -12840.4151 1425.7625 0.0000 0.0000 2285.5026 -9122.6137 310.0464 -11408.1163 -9117.7285 298.2865 46.2619 45.0879 560152.7199 0.6631 0.6277
ENERGY: 5000 0.7482 1.4639 1.7621 0.0000 -12759.4427 1338.2639 0.0000 0.0000 2246.2399 -9170.9647 304.7201 -11417.2046 -9167.1057 299.4365 -8.8164 -8.5487 569409.1347 2.3779 2.3867
TCL: Running FEP window   4: Lambda1 0.1875 Lambda2 0.25   [dLambda 0.0625]
TCL: Setting parameter firsttimestep to 0
TCL: Setting parameter alchLambda to 0.1875
Info: NONBONDED TABLE R-SQUARED SPACING: 0.0625
Info: NONBONDED TABLE SIZE: 769 POINTS
TCL: Setting parameter alchLambda2 to 0.25
Info: NONBONDED TABLE R-SQUARED SPACING: 0.0625
Info: NONBONDED TABLE SIZE: 769 POINTS
TCL: Running for 5000 steps
ETITLE: TS BOND ANGLE DIHED IMPRP ELECT VDW BOUNDARY MISC KINETIC TOTAL TEMP POTENTIAL TOTAL3 TEMPAVG PRESSURE GPRESSURE VOLUME PRESSAVG GPRESSAVG
ENERGY: 0 0.7482 1.4639 1.7621 0.0000 -12759.4427 1338.1345 0.0000 0.0000 2246.1698 -9171.1643 304.7106 -11417.3340 -9166.6573 304.7106 -8.5876 -8.5960 569409.1347 -8.5876 -8.5960
ENERGY: 1000 2.0504 2.1968 1.3917 0.0000 -12698.4809 1306.2363 0.0000 0.0000 2151.7351 -9234.8705 291.8998 -11386.6057 -9231.0980 296.7626 -29.1544 -29.0577 600990.8583 1.1735 1.1697
ENERGY: 2000 1.3747 1.5184 1.3165 0.0000 -12763.6073 1337.5891 0.0000 0.0000 2198.1712 -9223.6373 298.1992 -11421.8085 -9217.4177 296.9214 -3.0553 -3.7545 601176.8647 0.7155 0.7621
ENERGY: 3000 0.9889 2.2510 2.2767 0.0000 -12686.0952 1252.0591 0.0000 0.0000 2179.9153 -9248.6042 295.7227 -11428.5195 -9244.0953 296.0940 -51.6253 -51.4559 607390.4733 0.8786 0.8945
ENERGY: 4000 2.7867 3.2285 2.9416 0.0000 -12836.1659 1338.2005 0.0000 0.0000 2175.3591 -9313.6496 295.1046 -11489.0087 -9306.2758 293.1663 -22.2854 -22.0094 619052.0329 2.1241 2.1194
ENERGY: 5000 2.2901 1.3585 2.4912 0.0000 -12821.2069 1409.2171 0.0000 0.0000 2191.2034 -9214.6466 297.2540 -11405.8500 -9209.2978 295.9862 25.1073 25.1110 628801.5290 0.7849 0.7864
TCL: Running FEP window   5: Lambda1 0.25   Lambda2 0.3125 [dLambda 0.0625]
TCL: Setting parameter firsttimestep to 0
TCL: Setting parameter alchLambda to 0.25
Info: NONBONDED TABLE R-SQUARED SPACING: 0.0625
Info: NONBONDED TABLE SIZE: 769 POINTS
TCL: Setting parameter alchLambda2 to 0.3125
Info: NONBONDED TABLE R-SQUARED SPACING: 0.0625
Info: NONBONDED TABLE SIZE: 769 POINTS
TCL: Running for 5000 steps
ETITLE: TS BOND ANGLE DIHED IMPRP ELECT VDW BOUNDARY MISC KINETIC TOTAL TEMP POTENTIAL TOTAL3 TEMPAVG PRESSURE GPRESSURE VOLUME PRESSAVG GPRESSAVG
ENERGY: 0 2.2901 1.3585 2.4912 0.0000 -12821.2069 1409.1611 0.0000 0.0000 2191.1361 -9214.7699 297.2449 -11405.9059 -9211.0638 297.2449 25.2364 25.1945 628801.5290 25.2364 25.1945
ENERGY: 1000 0.2817 1.7410 1.3396 0.0000 -12752.0514 1324.0497 0.0000 0.0000 2153.7940 -9270.8453 292.1791 -11424.6393 -9264.3525 296.7853 -18.0923 -17.8975 663815.5336 2.8182 2.8306
ENERGY: 2000 0.7067 4.7868 2.3222 0.0000 -12760.3714 1360.6882 0.0000 0.0000 2191.3330 -9200.5345 297.2716 -11391.8675 -9196.4691 296.8886 -7.0265 -6.8690 692196.8614 0.2048 0.2087
ENERGY: 3000 1.2041 1.9826 2.3605 0.0000 -12796.5146 1348.1101 0.0000 0.0000 2233.6740 -9209.1832 303.0155 -11442.8572 -9204.9986 296.2924 -7.2326 -7.3989 698650.9087 0.8454 0.8324
ENERGY: 4000 0.2331 3.9534 2.4620 0.0000 -12660.5644 1375.3711 0.0000 0.0000 2254.2642 -9024.2806 305.8087 -11278.5448 -9018.3797 302.2804 16.3807 16.1036 719918.1078 0.9231 0.9243
ENERGY: 5000 2.0000 2.6017 2.2975 0.0000 -12744.2963 1386.4885 0.0000 0.0000 2239.5544 -9111.3543 303.8132 -11350.9087 -9106.4796 297.9485 4.0753 3.8763 707779.0677 1.3225 1.3222
TCL: Running FEP window   6: Lambda1 0.3125 Lambda2 0.375  [dLambda 0.0625]
TCL: Setting parameter firsttimestep to 0
TCL: Setting parameter alchLambda to 0.3125
Info: NONBONDED TABLE R-SQUARED SPACING: 0.0625
Info: NONBONDED TABLE SIZE: 769 POINTS
TCL: Setting parameter alchLambda2 to 0.375
Info: NONBONDED TABLE R-SQUARED SPACING: 0.0625
Info: NONBONDED TABLE SIZE: 769 POINTS
TCL: Running for 5000 steps
ETITLE: TS BOND ANGLE DIHED IMPRP ELECT VDW BOUNDARY MISC KINETIC TOTAL TEMP POTENTIAL TOTAL3 TEMPAVG PRESSURE GPRESSURE VOLUME PRESSAVG GPRESSAVG
ENERGY: 0 2.0000 2.6017 2.2975 0.0000 -12744.2963 1386.5719 0.0000 0.0000 2239.4864 -9111.3389 303.8040 -11350.8253 -9107.8614 303.8040 3.9398 3.9704 707779.0677 3.9398 3.9704
ENERGY: 1000 0.9384 3.1215 2.5371 0.0000 -12700.1489 1387.0198 0.0000 0.0000 2176.1187 -9130.4135 295.2076 -11306.5322 -9126.3003 299.6052 10.8517 11.1210 690965.9909 1.2196 1.2211
ENERGY: 2000 0.9456 2.3324 2.3430 0.0000 -12555.2971 1281.4079 0.0000 0.0000 2201.9259 -9066.3423 298.7086 -11268.2682 -9061.5319 300.9372 -20.6392 -21.0837 638157.0438 -0.0978 -0.1084
ENERGY: 3000 2.4131 2.9138 2.3695 0.0000 -12583.4172 1324.4046 0.0000 0.0000 2181.5757 -9069.7403 295.9479 -11251.3161 -9065.4003 299.8404 -10.7996 -10.8614 617636.1126 0.9684 0.9595
ENERGY: 4000 2.9638 2.6634 1.2237 0.0000 -12703.2167 1413.4434 0.0000 0.0000 2241.3868 -9041.5356 304.0618 -11282.9224 -9039.8745 302.8042 46.6582 47.3747 601042.8062 2.1723 2.1550
ENERGY: 5000 0.1375 1.5115 2.4569 0.0000 -12616.7024 1347.6016 0.0000 0.0000 2195.9998 -9068.9950 297.9047 -11264.9949 -9064.9979 300.9252 -2.0806 -2.2467 623034.7892 1.7857 1.8113
TCL: Running FEP window   7: Lambda1 0.375  Lambda2 0.4375 [dLambda 0.0625]
TCL: Setting parameter firsttimestep to 0
TCL: Setting parameter alchLambda to 0.375
Info: NONBONDED TABLE R-SQUARED SPACING: 0.0625
Info: NONBONDED TABLE SIZE: 769 POINTS
TCL: Setting parameter alchLambda2 to 0.4375
Info: NONBONDED TABLE R-SQUARED SPACING: 0.0625
Info: NONBONDED TABLE SIZE: 769 POINTS
TCL: Running for 5000 steps
ETITLE: TS BOND ANGLE DIHED IMPRP ELECT VDW BOUNDARY MISC KINETIC TOTAL TEMP POTENTIAL TOTAL3 TEMPAVG PRESSURE GPRESSURE VOLUME PRESSAVG GPRESSAVG
ENERGY: 0 0.1375 1.5115 2.4569 0.0000 -12616.7024 1347.4489 0.0000 0.0000 2195.9328 -9069.2147 297.8956 -11265.1475 -9065.1697 297.8956 -2.2591 -2.2323 623034.7892 -2.2591 -2.2323
ENERGY: 1000 0.5378 5.6354 2.3342 0.0000 -12799.5206 1373.8024 0.0000 0.0000 2247.9438 -9169.2669 304.9513 -11417.2107 -9163.9241 299.3809 3.9584 4.0784 622859.9461 2.5969 2.6100
ENERGY: 2000 0.4282 8.2814 2.2857 0.0000 -12812.4684 1415.4994 0.0000 0.0000 2222.9545 -9163.0193 301.5613 -11385.9738 -9159.9735 296.2564 36.8461 36.0421 592939.0904 1.0957 1.1080
ENERGY: 3000 0.6814 2.0611 2.4937 0.0000 -12717.3051 1371.2051 0.0000 0.0000 2170.0613 -9170.8025 294.3859 -11340.8638 -9168.4385 296.9900 7.4325 7.3686 590556.6874 0.7067 0.7049
ENERGY: 4000 2.4302 1.8929 1.9746 0.0000 -12725.1531 1340.1555 0.0000 0.0000 2217.2109 -9161.4890 300.7821 -11378.6999 -9156.1792 297.6186 -3.7621 -3.7540 586036.2702 0.9276 0.9061
ENERGY: 5000 0.2578 3.2897 1.6226 0.0000 -12822.9089 1387.6307 0.0000 0.0000 2218.1636 -9211.9444 300.9114 -11430.1081 -9208.2248 296.6669 13.6720 13.8701 545322.1682 0.8981 0.9118
TCL: Running FEP window   8: Lambda1 0.4375 Lambda2 0.5    [dLambda 0.0625]
TCL: Setting parameter firsttimestep to 0
TCL: Setting parameter alchLambda to 0.4375
Info: NONBONDED TABLE R-SQUARED SPACING: 0.0625
Info: NONBONDED TABLE SIZE: 769 POINTS
TCL: Setting parameter alchLambda2 to 0.5
Info: NONBONDED TABLE R-SQUARED SPACING: 0.0625
Info: NONBONDED TABLE SIZE: 769 POINTS
TCL: Running for 5000 steps
ETITLE: TS BOND ANGLE DIHED IMPRP ELECT VDW BOUNDARY MISC KINETIC TOTAL TEMP POTENTIAL TOTAL3 TEMPAVG PRESSURE GPRESSURE VOLUME PRESSAVG GPRESSAVG
ENERGY: 0 0.2578 3.2897 1.6226 0.0000 -12822.9089 1387.4744 0.0000 0.0000 2218.0953 -9212.1690 300.9021 -11430.2643 -9208.2025 300.9021 13.9429 13.9449 545322.1682 13.9429 13.9449
ENERGY: 1000 0.8213 2.4983 1.1833 0.0000 -12640.1334 1355.8760 0.0000 0.0000 2178.9085 -9100.8459 295.5861 -11279.7544 -9096.0592 300.4956 6.1586 5.7589 557292.5831 0.4873 0.4605
ENERGY: 2000 0.9240 4.8684 1.4192 0.0000 -12742.8265 1426.6140 0.0000 0.0000 2204.0493 -9104.9515 298.9966 -11309.0008 -9100.3394 298.7966 52.5876 52.0085 542235.8871 1.2222 1.2275
ENERGY: 3000 0.4338 3.6106 2.0654 0.0000 -12794.0509 1413.7109 0.0000 0.0000 2205.1007 -9169.1295 299.1393 -11374.2302 -9164.9562 298.5014 14.4586 14.1441 557545.1501 0.9134 0.9570
ENERGY: 4000 2.2547 2.4300 2.0652 0.0000 -12808.8733 1395.0424 0.0000 0.0000 2158.5544 -9248.5266 292.8249 -11407.0810 -9246.6589 295.1590 22.0432 22.3922 542700.4585 1.5628 1.5559
ENERGY: 5000 1.8474 1.3791 3.1922 0.0000 -12701.1151 1309.1049 0.0000 0.0000 2235.2947 -9150.2968 303.2353 -11385.5915 -9145.6117 298.8344 -17.5470 -17.3170 551181.7798 0.3863 0.4066
TCL: Running FEP window   9: Lambda1 0.5    Lambda2 0.5625 [dLambda 0.0625]
TCL: Setting parameter firsttimestep to 0
TCL: Setting parameter alchLambda to 0.5
Info: NONBONDED TABLE R-SQUARED SPACING: 0.0625
Info: NONBONDED TABLE SIZE: 769 POINTS
TCL: Setting parameter alchLambda2 to 0.5625
Info: NONBONDED TABLE R-SQUARED SPACING: 0.0625
Info: NONBONDED TABLE SIZE: 769 POINTS
TCL: Running for 5000 steps
ETITLE: TS BOND ANGLE DIHED IMPRP ELECT VDW BOUNDARY MISC KINETIC TOTAL TEMP POTENTIAL TOTAL3 TEMPAVG PRESSURE GPRESSURE VOLUME PRESSAVG GPRESSAVG
ENERGY: 0 1.8474 1.3791 3.1922 0.0000 -12701.1151 1309.0798 0.0000 0.0000 2235.2286 -9150.3880 303.2264 -11385.6166 -9146.7320 303.2264 -17.2386 -17.2288 551181.7798 -17.2386 -17.2288
ENERGY: 1000 1.7542 0.6565 2.1694 0.0000 -12757.0972 1441.0723 0.0000 0.0000 2166.8858 -9144.5590 293.9551 -11311.4448 -9139.2679 299.0535 37.7345 38.3279 544846.0675 -0.0610 -0.0438
ENERGY: 2000 0.8125 3.0045 2.2665 0.0000 -12709.4161 1350.0563 0.0000 0.0000 2231.7441 -9121.5322 302.7537 -11353.2763 -9117.8174 299.7345 -5.3698 -6.1577 520499.9745 2.1077 2.0884
ENERGY: 3000 0.3657 1.5454 2.2993 0.0000 -12750.7158 1399.3156 0.0000 0.0000 2218.0856 -9129.1042 300.9008 -11347.1899 -9123.4863 297.4198 18.5981 18.6994 505833.3267 1.6981 1.7182
ENERGY: 4000 0.8541 1.2976 1.2601 0.0000 -12745.1650 1340.9845 0.0000 0.0000 2219.2092 -9181.5595 301.0532 -11400.7687 -9178.3660 300.4788 -7.9589 -6.9208 459163.3865 3.5190 3.5299
ENERGY: 5000 3.4172 2.8954 1.5197 0.0000 -12718.3215 1325.8841 0.0000 0.0000 2214.4215 -9170.1836 300.4037 -11384.6051 -9165.0070 296.9537 -21.4390 -21.5914 459426.9300 1.1911 1.1908
TCL: Running FEP window  10: Lambda1 0.5625 Lambda2 0.625  [dLambda 0.0625]
TCL: Setting parameter firsttimestep to 0
TCL: Setting parameter alchLambda to 0.5625
Info: NONBONDED TABLE R-SQUARED SPACING: 0.0625
Info: NONBONDED TABLE SIZE: 769 POINTS
TCL: Setting parameter alchLambda2 to 0.625
Info: NONBONDED TABLE R-SQUARED SPACING: 0.0625
Info: NONBONDED TABLE SIZE: 769 POINTS
TCL: Running for 5000 steps
ETITLE: TS BOND ANGLE DIHED IMPRP ELECT VDW BOUNDARY MISC KINETIC TOTAL TEMP POTENTIAL TOTAL3 TEMPAVG PRESSURE GPRESSURE VOLUME PRESSAVG GPRESSAVG
ENERGY: 0 3.4172 2.8954 1.5197 0.0000 -12717.9445 1326.2612 0.0000 0.0000 2214.3539 -9169.4971 300.3945 -11383.8510 -9165.6495 300.3945 -21.1040 -21.0924 459426.9300 -21.1040 -21.0924
ENERGY: 1000 0.3779 2.3030 2.4190 0.0000 -12771.3360 1410.3264 0.0000 0.0000 2202.2882 -9153.6215 298.7577 -11355.9097 -9151.4481 298.6605 11.4776 11.1583 460768.0568 0.0194 0.0724
ENERGY: 2000 1.2437 1.6265 1.2922 0.0000 -12867.2867 1405.3902 0.0000 0.0000 2172.6045 -9285.1296 294.7309 -11457.7341 -9281.8849 298.8663 27.3609 26.7006 421952.1586 -0.5111 -0.5296
ENERGY: 3000 4.1194 3.2877 3.3409 0.0000 -12672.8792 1340.6027 0.0000 0.0000 2126.7592 -9194.7693 288.5116 -11321.5285 -9191.4377 297.5399 0.8928 0.1427 427139.8641 0.4219 0.4134
ENERGY: 4000 1.5792 4.2205 1.7542 0.0000 -12632.8646 1302.2469 0.0000 0.0000 2189.2772 -9133.7866 296.9927 -11323.0638 -9129.3968 297.0381 -17.9417 -16.7772 410553.2827 3.4562 3.4316
ENERGY: 5000 0.9741 3.7823 3.1587 0.0000 -12669.7941 1372.5895 0.0000 0.0000 2185.8800 -9103.4095 296.5318 -11289.2895 -9099.4563 296.2983 16.0845 16.3440 404866.3456 -0.3256 -0.3007
TCL: Running FEP window  11: Lambda1 0.625  Lambda2 0.6875 [dLambda 0.0625]
TCL: Setting parameter firsttimestep to 0
TCL: Setting parameter alchLambda to 0.625
Info: NONBONDED TABLE R-SQUARED SPACING: 0.0625
Info: NONBONDED TABLE SIZE: 769 POINTS
TCL: Setting parameter alchLambda2 to 0.6875
Info: NONBONDED TABLE R-SQUARED SPACING: 0.0625
Info: NONBONDED TABLE SIZE: 769 POINTS
TCL: Running for 5000 steps
ETITLE: TS BOND ANGLE DIHED IMPRP ELECT VDW BOUNDARY MISC KINETIC TOTAL TEMP POTENTIAL TOTAL3 TEMPAVG PRESSURE GPRESSURE VOLUME PRESSAVG GPRESSAVG
ENERGY: 0 0.9741 3.7823 3.1587 0.0000 -12669.9931 1372.5695 0.0000 0.0000 2185.8150 -9103.6934 296.5230 -11289.5084 -9100.2355 296.5230 16.3082 16.3958 404866.3456 16.3082 16.3958
ENERGY: 1000 0.6721 2.9263 2.2862 0.0000 -12646.2488 1293.8098 0.0000 0.0000 2226.3635 -9120.1909 302.0237 -11346.5544 -9114.4607 300.1391 -31.2944 -32.0407 433702.2794 2.6350 2.6037
ENERGY: 2000 1.2970 3.2712 2.4905 0.0000 -12717.3308 1368.4632 0.0000 0.0000 2186.4602 -9155.3487 296.6105 -11341.8089 -9151.4324 298.0110 9.1951 9.3656 443981.0171 1.2070 1.2220
ENERGY: 3000 2.0925 3.0987 2.9304 0.0000 -12741.4162 1360.4544 0.0000 0.0000 2205.7132 -9167.1271 299.2224 -11372.8402 -9162.9574 298.9779 -0.4078 -0.0775 432389.8584 0.2758 0.2634
ENERGY: 4000 0.4295 2.6365 2.6554 0.0000 -12702.6125 1326.9650 0.0000 0.0000 2245.8309 -9124.0951 304.6647 -11369.9260 -9121.9283 298.9151 -15.0930 -15.2308 420291.1685 -0.2756 -0.2878
ENERGY: 5000 0.9236 1.2849 2.7219 0.0000 -12744.3269 1359.7263 0.0000 0.0000 2231.9464 -9147.7237 302.7811 -11379.6702 -9143.3086 300.2343 12.7914 13.8408 418925.0021 1.5683 1.5882
TCL: Running FEP window  12: Lambda1 0.6875 Lambda2 0.75   [dLambda 0.0625]
TCL: Setting parameter firsttimestep to 0
TCL: Setting parameter alchLambda to 0.6875
Info: NONBONDED TABLE R-SQUARED SPACING: 0.0625
Info: NONBONDED TABLE SIZE: 769 POINTS
TCL: Setting parameter alchLambda2 to 0.75
Info: NONBONDED TABLE R-SQUARED SPACING: 0.0625
Info: NONBONDED TABLE SIZE: 769 POINTS
TCL: Running for 5000 steps
ETITLE: TS BOND ANGLE DIHED IMPRP ELECT VDW BOUNDARY MISC KINETIC TOTAL TEMP POTENTIAL TOTAL3 TEMPAVG PRESSURE GPRESSURE VOLUME PRESSAVG GPRESSAVG
ENERGY: 0 0.9236 1.2849 2.7219 0.0000 -12744.5001 1359.7087 0.0000 0.0000 2231.8828 -9147.9781 302.7725 -11379.8609 -9144.1260 302.7725 14.0142 13.9590 418925.0021 14.0142 13.9590
ENERGY: 1000 1.1097 1.5244 2.2194 0.0000 -12852.8052 1410.9784 0.0000 0.0000 2205.6121 -9231.3612 299.2086 -11436.9733 -9226.7128 296.5880 -3.8231 -4.1200 421405.0632 1.1958 1.2148
ENERGY: 2000 2.2127 2.8915 2.3827 0.0000 -12808.3264 1385.4122 0.0000 0.0000 2165.5279 -9249.8994 293.7709 -11415.4273 -9244.8516 296.0878 11.8780 11.8486 409882.6658 -0.4629 -0.4522
ENERGY: 3000 1.4378 2.2890 2.1942 0.0000 -12817.4940 1383.5522 0.0000 0.0000 2171.7785 -9256.2422 294.6189 -11428.0207 -9252.1125 294.9372 14.9472 15.7397 400907.4173 1.8127 1.8312
ENERGY: 4000 4.9672 2.0501 2.2985 0.0000 -12802.1380 1344.0629 0.0000 0.0000 2231.3459 -9217.4134 302.6996 -11448.7593 -9213.3250 297.0410 -37.8412 -38.0524 398993.2505 4.2266 4.2201
ENERGY: 5000 1.9568 1.0952 2.2627 0.0000 -12743.4565 1394.3290 0.0000 0.0000 2155.6550 -9188.1578 292.4316 -11343.8128 -9181.8998 295.6118 18.2246 17.2969 387658.1886 -0.8418 -0.8032
TCL: Running FEP window  13: Lambda1 0.75   Lambda2 0.8125 [dLambda 0.0625]
TCL: Setting parameter firsttimestep to 0
TCL: Setting parameter alchLambda to 0.75
Info: NONBONDED TABLE R-SQUARED SPACING: 0.0625
Info: NONBONDED TABLE SIZE: 769 POINTS
TCL: Setting parameter alchLambda2 to 0.8125
Info: NONBONDED TABLE R-SQUARED SPACING: 0.0625
Info: NONBONDED TABLE SIZE: 769 POINTS
TCL: Running for 5000 steps
ETITLE: TS BOND ANGLE DIHED IMPRP ELECT VDW BOUNDARY MISC KINETIC TOTAL TEMP POTENTIAL TOTAL3 TEMPAVG PRESSURE GPRESSURE VOLUME PRESSAVG GPRESSAVG
ENERGY: 0 1.9568 1.0952 2.2627 0.0000 -12743.5833 1394.3306 0.0000 0.0000 2155.5909 -9188.3471 292.4229 -11343.9380 -9184.6084 292.4229 17.6537 17.6155 387658.1886 17.6537 17.6155
ENERGY: 1000 0.1164 6.2382 2.2030 0.0000 -12699.9108 1366.9439 0.0000 0.0000 2175.8061 -9148.6033 295.1652 -11324.4093 -9143.6998 300.2247 -3.3421 -2.4045 376517.9323 -0.7336 -0.6700
ENERGY: 2000 0.2143 2.0420 2.2263 0.0000 -12922.9700 1480.5192 0.0000 0.0000 2250.3797 -9187.5884 305.2817 -11437.9681 -9183.6536 296.4319 123.2669 122.6611 334571.5159 -0.5847 -0.5595
ENERGY: 3000 2.4135 6.3396 1.2515 0.0000 -12694.4959 1350.3022 0.0000 0.0000 2207.0515 -9127.1376 299.4039 -11334.1890 -9123.5269 299.6166 -12.4240 -13.2595 342920.8407 1.5058 1.5440
ENERGY: 4000 0.8665 4.0590 1.3171 0.0000 -12548.3191 1236.8567 0.0000 0.0000 2168.6176 -9136.6023 294.1901 -11305.2199 -9132.0704 298.0668 -101.1095 -98.8753 331783.4917 1.9642 1.9807
ENERGY: 5000 2.6730 2.3287 1.2887 0.0000 -12734.1994 1420.6622 0.0000 0.0000 2196.2801 -9110.9667 297.9427 -11307.2468 -9106.5433 300.4511 66.2010 65.8932 334710.5930 -0.8748 -0.8467
TCL: Running FEP window  14: Lambda1 0.8125 Lambda2 0.875  [dLambda 0.0625]
TCL: Setting parameter firsttimestep to 0
TCL: Setting parameter alchLambda to 0.8125
Info: NONBONDED TABLE R-SQUARED SPACING: 0.0625
Info: NONBONDED TABLE SIZE: 769 POINTS
TCL: Setting parameter alchLambda2 to 0.875
Info: NONBONDED TABLE R-SQUARED SPACING: 0.0625
Info: NONBONDED TABLE SIZE: 769 POINTS
TCL: Running for 5000 steps
ETITLE: TS BOND ANGLE DIHED IMPRP ELECT VDW BOUNDARY MISC KINETIC TOTAL TEMP POTENTIAL TOTAL3 TEMPAVG PRESSURE GPRESSURE VOLUME PRESSAVG GPRESSAVG
ENERGY: 0 2.6730 2.3287 1.2887 0.0000 -12734.1719 1420.7312 0.0000 0.0000 2196.2099 -9110.9404 297.9332 -11307.1503 -9106.9150 297.9332 66.1586 66.0581 334710.5930 66.1586 66.0581
ENERGY: 1000 0.6707 1.0497 1.2407 0.0000 -12656.3678 1382.3616 0.0000 0.0000 2181.0735 -9089.9717 295.8798 -11271.0451 -9085.0371 299.9586 41.9635 42.6960 349554.2409 4.1737 4.2383
ENERGY: 2000 1.9553 1.5490 1.5054 0.0000 -12872.6345 1419.3945 0.0000 0.0000 2326.7521 -9121.4781 315.6423 -11448.2303 -9118.6305 301.3693 15.2697 16.5287 350007.4697 2.2526 2.2174
ENERGY: 3000 3.8058 3.8234 1.2391 0.0000 -12689.7279 1324.8813 0.0000 0.0000 2224.1648 -9131.8135 301.7255 -11355.9783 -9127.5356 299.5980 18.5508 19.1258 322456.0059 3.4880 3.4290
ENERGY: 4000 1.2809 3.8212 1.6100 0.0000 -12905.6848 1433.4300 0.0000 0.0000 2179.7186 -9285.8242 295.6960 -11465.5428 -9283.0213 296.5440 48.7194 47.2423 309999.4717 -1.3624 -1.3680
ENERGY: 5000 0.8259 1.1229 1.3144 0.0000 -12726.9118 1340.3375 0.0000 0.0000 2168.6798 -9214.6313 294.1985 -11383.3110 -9210.4523 296.0878 -0.7456 -0.6926 314948.2025 -1.4028 -1.3481
TCL: Running FEP window  15: Lambda1 0.875  Lambda2 0.9375 [dLambda 0.0625]
TCL: Setting parameter firsttimestep to 0
TCL: Setting parameter alchLambda to 0.875
Info: NONBONDED TABLE R-SQUARED SPACING: 0.0625
Info: NONBONDED TABLE SIZE: 769 POINTS
TCL: Setting parameter alchLambda2 to 0.9375
Info: NONBONDED TABLE R-SQUARED SPACING: 0.0625
Info: NONBONDED TABLE SIZE: 769 POINTS
TCL: Running for 5000 steps
ETITLE: TS BOND ANGLE DIHED IMPRP ELECT VDW BOUNDARY MISC KINETIC TOTAL TEMP POTENTIAL TOTAL3 TEMPAVG PRESSURE GPRESSURE VOLUME PRESSAVG GPRESSAVG
ENERGY: 0 0.8259 1.1229 1.3144 0.0000 -12726.8960 1340.4695 0.0000 0.0000 2168.6140 -9214.5492 294.1896 -11383.1633 -9210.2618 294.1896 -0.5762 -0.5257 314948.2025 -0.5762 -0.5257
ENERGY: 1000 0.0729 1.3984 1.2414 0.0000 -12826.3249 1404.1228 0.0000 0.0000 2257.5596 -9161.9297 306.2557 -11419.4893 -9157.4624 295.8580 29.1773 28.8938 310824.8904 0.3335 0.3396
ENERGY: 2000 1.1024 2.8122 1.7084 0.0000 -12814.1196 1397.8804 0.0000 0.0000 2190.8029 -9219.8133 297.1997 -11410.6162 -9214.8792 295.6302 9.3444 10.7104 299076.9071 0.3086 0.3980
ENERGY: 3000 1.1593 1.9036 1.2558 0.0000 -12894.4168 1434.9436 0.0000 0.0000 2237.0946 -9218.0598 303.4795 -11455.1544 -9212.5773 296.2976 29.9340 29.9281 283119.6435 1.0731 1.0834
ENERGY: 4000 3.5408 2.1053 1.3473 0.0000 -12874.0162 1383.5734 0.0000 0.0000 2220.2890 -9263.1604 301.1997 -11483.4494 -9259.2311 295.7361 1.3945 1.1242 264634.8089 1.9629 1.9691
ENERGY: 5000 2.0365 3.9689 1.4412 0.0000 -12852.4519 1418.2155 0.0000 0.0000 2130.0220 -9296.7678 288.9543 -11426.7898 -9293.0651 291.8527 47.5335 45.8360 256191.1810 1.5409 1.6050
TCL: Running FEP window  16: Lambda1 0.9375 Lambda2 1.0    [dLambda 0.0625]
TCL: Setting parameter firsttimestep to 0
TCL: Setting parameter alchLambda to 0.9375
Info: NONBONDED TABLE R-SQUARED SPACING: 0.0625
Info: NONBONDED TABLE SIZE: 769 POINTS
TCL: Setting parameter alchLambda2 to 1.0
Info: NONBONDED TABLE R-SQUARED SPACING: 0.0625
Info: NONBONDED TABLE SIZE: 769 POINTS
TCL: Running for 5000 steps
ETITLE: TS BOND ANGLE DIHED IMPRP ELECT VDW BOUNDARY MISC KINETIC TOTAL TEMP POTENTIAL TOTAL3 TEMPAVG PRESSURE GPRESSURE VOLUME PRESSAVG GPRESSAVG
ENERGY: 0 2.0365 3.9689 1.4412 0.0000 -12852.5729 1418.4315 0.0000 0.0000 2129.9536 -9296.7413 288.9450 -11426.6948 -9292.9386 288.9450 46.4154 46.3998 256191.1810 46.4154 46.3998
ENERGY: 1000 0.6474 2.6780 1.1976 0.0000 -12813.7050 1338.5551 0.0000 0.0000 2168.7914 -9301.8355 294.2136 -11470.6270 -9299.1272 290.9585 -12.3623 -12.7510 247730.5865 -0.4705 -0.4564
ENERGY: 2000 1.2987 3.8853 2.5597 0.0000 -12796.2158 1313.0499 0.0000 0.0000 2114.5632 -9360.8591 286.8572 -11475.4223 -9359.3257 291.2294 -66.7919 -67.4805 251937.0834 0.9100 0.8731
ENERGY: 3000 0.8704 6.7726 1.6301 0.0000 -12795.6580 1393.5530 0.0000 0.0000 2154.1284 -9238.7037 292.2245 -11392.8321 -9235.1276 294.0987 49.5226 48.2614 253470.5826 0.4149 0.4206
ENERGY: 4000 1.1748 5.6790 1.2073 0.0000 -12883.6367 1397.3370 0.0000 0.0000 2250.6148 -9227.6239 305.3136 -11478.2387 -9223.6155 297.3901 28.4629 28.0849 250913.4859 0.3847 0.3715
ENERGY: 5000 1.4682 2.5630 1.3511 0.0000 -12812.3278 1362.4064 0.0000 0.0000 2186.4355 -9258.1036 296.6072 -11444.5391 -9254.2662 295.4005 -15.4061 -16.7067 249241.3174 2.1905 2.1233
