Info: SIMULATION PARAMETERS:
Info: TIMESTEP               2
Info: NUMBER OF STEPS        0
Info: STEPS PER CYCLE        10
Info: PERIODIC CELL BASIS 1  31.9533 0 0
Info: PERIODIC CELL BASIS 2  0 30.4047 0
Info: PERIODIC CELL BASIS 3  0 0 32.1255
Info: PERIODIC CELL CENTER   0 0 0
Info: WRAPPING WATERS AROUND PERIODIC BOUNDARIES ON OUTPUT.
Info: WRAPPING ALL CLUSTERS AROUND PERIODIC BOUNDARIES ON OUTPUT.
Info: FIRST LDB TIMESTEP     50
Info: LAST LDB TIMESTEP     -1
Info: HOM BACKGROUND SCALING 1
Info: PME BACKGROUND SCALING 1
Info: MIN ATOMS PER PATCH    40
Info: EMPTY PATCH LOAD       40 ATOMS
Info: VELOCITY FILE          mobley_296847_equil.vel
Info: CENTER OF MASS MOVING INITIALLY? NO
Info: DIELECTRIC             1
Info: EXCLUDE                SCALED ONE-FOUR
Info: 1-4 ELECTROSTATICS SCALED BY 0.833333
Info: MODIFIED 1-4 VDW PARAMETERS WILL BE USED
Info: DCD FILENAME           mobley_296847_prod.dcd
Info: DCD FREQUENCY          100000
Info: DCD FIRST STEP         100000
Info: DCD FILE WILL CONTAIN UNIT CELL DATA
Info: XST FILENAME           mobley_296847_prod.xst
Info: XST FREQUENCY          100000
Info: NO VELOCITY DCD OUTPUT
Info: NO FORCE DCD OUTPUT
Info: OUTPUT FILENAME        mobley_296847_prod
Info: BINARY OUTPUT FILES WILL BE USED
Info: RESTART FILENAME       mobley_296847_prod.restart
Info: RESTART FREQUENCY      100000
Info: BINARY RESTART FILES WILL BE USED
Info: CUTOFF                 9
Info: PAIRLIST DISTANCE      11
Info: PAIRLIST SHRINK RATE   0.01
Info: PAIRLIST GROW RATE     0.01
Info: PAIRLIST TRIGGER       0.3
Info: PAIRLISTS PER CYCLE    2
Info: PAIRLISTS ENABLED
Info: MARGIN                 2
Info: HYDROGEN GROUP CUTOFF  2.5
Info: PATCH DIMENSION        15.5
Info: ENERGY OUTPUT STEPS    100000
Info: ENERGY EVALUATION STEPS    100000
Info: OUTPUT ENERGY PRECISION 4
Info: CROSSTERM ENERGY INCLUDED IN DIHEDRAL
Info: TIMING OUTPUT STEPS    1000000
Info: PRESSURE OUTPUT STEPS  100000
Info: ALCHEMICAL FEP ON
Info: FEP CURRENT LAMBDA VALUE     1
Info: FEP COMPARISON LAMBDA VALUE  0.95
Info: FEP INTRA-ALCHEMICAL NON-BONDED INTERACTIONS WILL BE RETAINED
Info: FEP INTRA-ALCHEMICAL BONDED INTERACTIONS WILL BE RETAINED
Info: FEP VDW SHIFTING COEFFICIENT 5
Info: FEP ELEC. ACTIVE FOR ANNIHILATED PARTICLES BETWEEN LAMBDA = 0 AND LAMBDA = 0.5
Info: FEP ELEC. ACTIVE FOR EXNIHILATED PARTICLES BETWEEN LAMBDA = 0.5 AND LAMBDA = 1
Info: FEP VDW ACTIVE FOR ANNIHILATED PARTICLES BETWEEN LAMBDA = 0 AND LAMBDA = 1
Info: FEP VDW ACTIVE FOR EXNIHILATED PARTICLES BETWEEN LAMBDA = 0 AND LAMBDA = 1
Info: FEP BOND ACTIVE FOR ANNIHILATED PARTICLES BETWEEN LAMBDA = 1 AND LAMBDA = 1
Info: FEP BOND ACTIVE FOR EXNIHILATED PARTICLES BETWEEN LAMBDA = 0 AND LAMBDA = 0
Info: LANGEVIN DYNAMICS ACTIVE
Info: LANGEVIN TEMPERATURE   300
Info: LANGEVIN USING BBK INTEGRATOR
Info: LANGEVIN DAMPING COEFFICIENT IS 1 INVERSE PS
Info: LANGEVIN DYNAMICS APPLIED TO HYDROGENS
Info: LANGEVIN PISTON PRESSURE CONTROL ACTIVE
Info:        TARGET PRESSURE IS 1.01325 BAR
Info:     OSCILLATION PERIOD IS 50 FS
Info:             DECAY TIME IS 25 FS
Info:     PISTON TEMPERATURE IS 300 K
Info:       PRESSURE CONTROL IS GROUP-BASED
Info:    INITIAL STRAIN RATE IS 3.8173e-05 3.8173e-05 3.8173e-05
Info:       CELL FLUCTUATION IS ISOTROPIC
Info: PARTICLE MESH EWALD (PME) ACTIVE
Info: PME TOLERANCE               1e-06
Info: PME EWALD COEFFICIENT       0.348832
Info: PME INTERPOLATION ORDER     4
Info: PME GRID DIMENSIONS         32 32 36
Info: PME MAXIMUM GRID SPACING    1
Info: PME CALCULATION WILL BE PERFORMED ON GPU
Info: FULL ELECTROSTATIC EVALUATION FREQUENCY      2
Info: USING VERLET I (r-RESPA) MTS SCHEME.
Info: C1 SPLITTING OF LONG RANGE ELECTROSTATICS
Info: PLACING ATOMS IN PATCHES BY HYDROGEN GROUPS
Info: RIGID BONDS TO HYDROGEN : ALL
Info:         ERROR TOLERANCE : 1e-08
Info:          MAX ITERATIONS : 100
Info: RIGID WATER USING SETTLE ALGORITHM
Info: RANDOM NUMBER SEED     1742127072
Info: USE HYDROGEN BONDS?    NO
Info: Using AMBER format force field!
Info: AMBER PARM FILE        mobley_296847.prmtop
Info: COORDINATE PDB         mobley_296847.pdb
Info: Exclusions will be read from PARM file!
Info: SCNB (VDW SCALING)     2
Info: USING ARITHMETIC MEAN TO COMBINE L-J SIGMA PARAMETERS
Info: BINARY COORDINATES     mobley_296847_equil.coor
Info: SUMMARY OF PARAMETERS:
Info: 6 BONDS
Info: 6 ANGLES
Info:   6 HARMONIC
Info:   0 COSINE-BASED
Info: 3 DIHEDRAL
Info: 0 IMPROPER
Info: 0 CROSSTERM
Info: 0 VDW
Info: 21 VDW_PAIRS
Info: 0 NBTHOLE_PAIRS
Info: To read alchdata from file: mobley_296847.pdb
Info: To read alchflag data from column: 5
Info: STRUCTURE SUMMARY:
Info: 2972 ATOMS
Info: 2972 BONDS
Info: 16 ANGLES
Info: 23 DIHEDRALS
Info: 0 IMPROPERS
Info: 0 CROSSTERMS
Info: 3005 EXCLUSIONS
Info: 2966 RIGID BONDS
Info: ALCH: 0 ATOMS TO DISAPPEAR IN FINAL STATE
Info: ALCH: 11 ATOMS TO APPEAR IN FINAL STATE
Info: 5950 DEGREES OF FREEDOM
Info: 993 HYDROGEN GROUPS
Info: 3 ATOMS IN LARGEST HYDROGEN GROUP
Info: 993 MIGRATION GROUPS
Info: 3 ATOMS IN LARGEST MIGRATION GROUP
Info: TOTAL MASS = 17860.9 amu
Info: TOTAL CHARGE = -0.000199944 e
Info: MASS DENSITY = 0.95029 g/cm^3
Info: ATOM DENSITY = 0.0952232 atoms/A^3
Info: ADDED 0 IMPLICIT EXCLUSIONS
Info: NONBONDED TABLE R-SQUARED SPACING: 0.0625
Info: NONBONDED TABLE SIZE: 705 POINTS
Info: REMOVING COM VELOCITY -0.0120487 -0.159707 -0.0378703
Info: Use 3D box decompostion in PME FFT.
Info: Updated CUDA force table with 4096 elements.
Info: Updated CUDA LJ table with 6 x 6 elements.
Info: Found 12 unique exclusion lists needing 20 bytes
TCL: Running for 1500000 steps
ETITLE: TS BOND ANGLE DIHED IMPRP ELECT VDW BOUNDARY MISC KINETIC TOTAL TEMP POTENTIAL TOTALAVG TEMPAVG PRESSURE GPRESSURE VOLUME PRESSAVG GPRESSAVG
ENERGY: 0 0.5283 2.9154 3.2612 0.0000 -10659.5347 1326.2186 0.0000 0.0000 1783.2992 -7543.3121 301.6460 -9326.6112 -7543.3121 301.6460 -1136.4767 -1050.7719 31210.8821 -1136.4767 -1050.7719
ENERGY: 300000 0.8545 3.0867 1.3037 0.0000 -10832.9814 1443.0479 0.0000 0.0000 1775.4233 -7609.2654 300.3138 -9384.6887 -7545.6589 303.4638 -281.8516 -124.9020 30669.8682 -526.1394 -423.9343
ENERGY: 600000 3.1073 2.2999 2.2713 0.0000 -10837.4764 1465.3353 0.0000 0.0000 1781.8723 -7582.5903 301.4047 -9364.4626 -7577.5203 302.7554 122.3437 138.1339 30360.4763 -343.3411 -255.5338
ENERGY: 900000 1.8241 1.2515 1.2721 0.0000 -10765.7847 1415.1445 0.0000 0.0000 1769.3994 -7576.8932 299.2949 -9346.2926 -7585.6301 301.2133 -199.9217 -126.9124 30544.7192 -175.5562 -100.8292
ENERGY: 1200000 1.7948 3.0744 2.9375 0.0000 -10796.8599 1478.0623 0.0000 0.0000 1748.6334 -7562.3576 295.7823 -9310.9910 -7577.6105 300.2672 557.1251 651.5141 30344.5682 -103.9958 -33.8344
ENERGY: 1500000 3.0818 2.7563 2.5995 0.0000 -10879.8660 1498.6413 0.0000 0.0000 1751.1646 -7621.6225 296.2105 -9372.7871 -7582.5964 300.1156 0.6699 123.6808 30755.9549 -82.7952 -12.8623
TCL: Running FEP window   2: Lambda1 0.95   Lambda2 0.8999999999999999 [dLambda -0.050000000000000044]
TCL: Setting parameter firsttimestep to 0
TCL: Setting parameter alchLambda to 0.95
Info: NONBONDED TABLE R-SQUARED SPACING: 0.0625
Info: NONBONDED TABLE SIZE: 705 POINTS
TCL: Setting parameter alchLambda2 to 0.8999999999999999
Info: NONBONDED TABLE R-SQUARED SPACING: 0.0625
Info: NONBONDED TABLE SIZE: 705 POINTS
TCL: Running for 1500000 steps
ETITLE: TS BOND ANGLE DIHED IMPRP ELECT VDW BOUNDARY MISC KINETIC TOTAL TEMP POTENTIAL TOTALAVG TEMPAVG PRESSURE GPRESSURE VOLUME PRESSAVG GPRESSAVG
ENERGY: 0 3.0818 2.7563 2.5995 0.0000 -10879.3102 1497.7588 0.0000 0.0000 1750.2423 -7622.8716 296.0544 -9373.1139 -7622.8716 296.0544 17.8515 102.5375 30755.9549 17.8515 102.5375
ENERGY: 300000 1.5121 2.6041 2.7822 0.0000 -10751.0890 1334.7984 0.0000 0.0000 1786.3005 -7623.0917 302.1537 -9409.3921 -7598.0746 299.1448 -1126.7124 -1084.2561 30947.1789 -459.8289 -384.2023
ENERGY: 600000 1.0643 1.4880 0.6837 0.0000 -10761.5744 1403.6579 0.0000 0.0000 1818.7291 -7535.9513 307.6390 -9354.6805 -7581.9819 299.5601 -204.1869 -98.4483 30229.7526 -324.8196 -240.5703
ENERGY: 900000 0.5470 3.9966 2.0100 0.0000 -10896.7085 1510.6561 0.0000 0.0000 1752.6847 -7626.8141 296.4676 -9379.4989 -7582.2476 299.5399 590.1066 632.1857 30130.1744 -127.7804 -58.7136
ENERGY: 1200000 3.1219 0.9874 1.8893 0.0000 -10750.0818 1486.7049 0.0000 0.0000 1807.4425 -7449.9358 305.7299 -9257.3784 -7563.0607 300.2986 461.7618 449.4334 30950.9198 -58.3538 5.4360
ENERGY: 1500000 4.0879 1.7639 1.3946 0.0000 -10791.4513 1435.3303 0.0000 0.0000 1821.8828 -7526.9918 308.1725 -9348.8746 -7558.3610 300.8733 277.2872 364.3890 30101.2345 -54.6616 11.1651
TCL: Running FEP window   3: Lambda1 0.8999999999999999 Lambda2 0.8499999999999999 [dLambda -0.050000000000000044]
TCL: Setting parameter firsttimestep to 0
TCL: Setting parameter alchLambda to 0.8999999999999999
Info: NONBONDED TABLE R-SQUARED SPACING: 0.0625
Info: NONBONDED TABLE SIZE: 705 POINTS
TCL: Setting parameter alchLambda2 to 0.8499999999999999
Info: NONBONDED TABLE R-SQUARED SPACING: 0.0625
Info: NONBONDED TABLE SIZE: 705 POINTS
TCL: Running for 1500000 steps
ETITLE: TS BOND ANGLE DIHED IMPRP ELECT VDW BOUNDARY MISC KINETIC TOTAL TEMP POTENTIAL TOTALAVG TEMPAVG PRESSURE GPRESSURE VOLUME PRESSAVG GPRESSAVG
ENERGY: 0 4.0879 1.7639 1.3946 0.0000 -10790.4449 1434.5592 0.0000 0.0000 1820.9691 -7527.6702 308.0179 -9348.6392 -7527.6702 308.0179 251.0805 342.7337 30101.2345 251.0805 342.7337
ENERGY: 300000 1.9207 1.2625 1.5478 0.0000 -10862.2403 1475.7981 0.0000 0.0000 1776.2447 -7605.4665 300.4528 -9381.7113 -7605.7224 301.8853 34.7790 86.5391 30726.8757 508.3179 575.0794
ENERGY: 600000 2.0534 1.5436 1.2218 0.0000 -10935.9749 1523.9285 0.0000 0.0000 1749.9922 -7657.2354 296.0121 -9407.2276 -7608.8354 299.6770 422.7026 465.1309 30531.3807 394.5687 452.9843
ENERGY: 900000 0.4349 0.8767 1.3389 0.0000 -10590.1158 1312.9965 0.0000 0.0000 1775.2486 -7499.2202 300.2843 -9274.4688 -7582.3675 298.6995 -959.6348 -895.4010 30932.5208 -11.0765 46.3801
ENERGY: 1200000 3.1824 1.4465 1.8746 0.0000 -10939.5900 1478.3466 0.0000 0.0000 1745.6128 -7709.1271 295.2714 -9454.7399 -7599.5036 298.7824 -118.1720 -80.1979 30273.6289 -46.8564 4.1924
ENERGY: 1500000 1.0910 1.2258 5.4429 0.0000 -10836.2390 1483.4935 0.0000 0.0000 1785.6103 -7559.3756 302.0370 -9344.9859 -7588.7313 299.4463 376.8038 373.1701 30539.8668 64.2712 115.5956
TCL: Running FEP window   4: Lambda1 0.8499999999999999 Lambda2 0.7999999999999998 [dLambda -0.050000000000000044]
TCL: Setting parameter firsttimestep to 0
TCL: Setting parameter alchLambda to 0.8499999999999999
Info: NONBONDED TABLE R-SQUARED SPACING: 0.0625
Info: NONBONDED TABLE SIZE: 705 POINTS
TCL: Setting parameter alchLambda2 to 0.7999999999999998
Info: NONBONDED TABLE R-SQUARED SPACING: 0.0625
Info: NONBONDED TABLE SIZE: 705 POINTS
TCL: Running for 1500000 steps
ETITLE: TS BOND ANGLE DIHED IMPRP ELECT VDW BOUNDARY MISC KINETIC TOTAL TEMP POTENTIAL TOTALAVG TEMPAVG PRESSURE GPRESSURE VOLUME PRESSAVG GPRESSAVG
ENERGY: 0 1.0910 1.2258 5.4429 0.0000 -10834.9312 1482.8590 0.0000 0.0000 1784.7366 -7559.5760 301.8892 -9344.3126 -7559.5760 301.8892 281.9429 358.2250 30539.8668 281.9429 358.2250
ENERGY: 300000 4.9751 2.4430 0.7776 0.0000 -10864.3363 1508.9219 0.0000 0.0000 1791.5427 -7555.6759 303.0404 -9347.2187 -7516.4624 300.8060 778.3799 797.0577 30368.5109 78.6428 134.3029
ENERGY: 600000 0.6628 1.1231 2.3406 0.0000 -10696.1591 1428.8291 0.0000 0.0000 1790.9490 -7472.2544 302.9400 -9263.2035 -7530.6108 300.4430 -199.5751 -130.6439 31138.4729 19.5662 68.1469
ENERGY: 900000 0.8617 0.6564 2.5168 0.0000 -10826.1842 1431.1748 0.0000 0.0000 1790.9386 -7600.0357 302.9383 -9390.9744 -7545.6865 301.7091 -264.0202 -174.1985 30629.2467 -54.9637 -7.2023
ENERGY: 1200000 1.0441 1.9463 1.3609 0.0000 -10797.1467 1443.3843 0.0000 0.0000 1820.4609 -7528.9502 307.9320 -9349.4112 -7541.6516 302.5964 -36.2130 51.8313 30489.8606 -64.0350 -9.5267
ENERGY: 1500000 2.7001 1.9205 1.3032 0.0000 -10761.8815 1462.9629 0.0000 0.0000 1807.5958 -7485.3991 305.7558 -9292.9948 -7542.9993 302.4778 347.5705 374.3982 30516.9942 -65.8771 -7.8108
TCL: Running FEP window   5: Lambda1 0.7999999999999998 Lambda2 0.7499999999999998 [dLambda -0.050000000000000044]
TCL: Setting parameter firsttimestep to 0
TCL: Setting parameter alchLambda to 0.7999999999999998
Info: NONBONDED TABLE R-SQUARED SPACING: 0.0625
Info: NONBONDED TABLE SIZE: 705 POINTS
TCL: Setting parameter alchLambda2 to 0.7499999999999998
Info: NONBONDED TABLE R-SQUARED SPACING: 0.0625
Info: NONBONDED TABLE SIZE: 705 POINTS
TCL: Running for 1500000 steps
ETITLE: TS BOND ANGLE DIHED IMPRP ELECT VDW BOUNDARY MISC KINETIC TOTAL TEMP POTENTIAL TOTALAVG TEMPAVG PRESSURE GPRESSURE VOLUME PRESSAVG GPRESSAVG
ENERGY: 0 2.7001 1.9205 1.3032 0.0000 -10760.7435 1462.1117 0.0000 0.0000 1806.7252 -7485.9829 305.6086 -9292.7081 -7485.9829 305.6086 290.6825 361.4284 30516.9942 290.6825 361.4284
ENERGY: 300000 0.9413 3.2331 2.3748 0.0000 -10804.6925 1480.8328 0.0000 0.0000 1805.3738 -7511.9368 305.3800 -9317.3106 -7519.4941 302.3022 415.7110 474.3778 30520.5342 17.4192 111.8576
ENERGY: 600000 1.5835 1.8208 2.4755 0.0000 -10823.6875 1431.1116 0.0000 0.0000 1780.6059 -7606.0901 301.1905 -9386.6961 -7560.8583 300.7975 -231.5592 -195.1091 30745.7159 70.5137 163.2291
ENERGY: 900000 0.2290 4.6003 2.6788 0.0000 -10927.2251 1535.1032 0.0000 0.0000 1799.4245 -7585.1894 304.3736 -9384.6139 -7578.5913 298.5814 545.2408 632.7698 30435.5799 11.0570 98.3916
ENERGY: 1200000 1.5506 3.2457 1.6233 0.0000 -10715.1903 1409.6598 0.0000 0.0000 1786.7486 -7512.3623 302.2295 -9299.1108 -7580.5055 298.5976 45.8669 68.7034 30399.6827 85.1635 169.1312
ENERGY: 1500000 2.3715 3.1664 2.0311 0.0000 -10950.0262 1542.0778 0.0000 0.0000 1729.0682 -7671.3112 292.4728 -9400.3793 -7596.3855 298.3545 583.9116 663.1620 30338.6496 102.3591 182.4563
TCL: Running FEP window   6: Lambda1 0.7499999999999998 Lambda2 0.6999999999999997 [dLambda -0.050000000000000044]
TCL: Setting parameter firsttimestep to 0
TCL: Setting parameter alchLambda to 0.7499999999999998
Info: NONBONDED TABLE R-SQUARED SPACING: 0.0625
Info: NONBONDED TABLE SIZE: 705 POINTS
TCL: Setting parameter alchLambda2 to 0.6999999999999997
Info: NONBONDED TABLE R-SQUARED SPACING: 0.0625
Info: NONBONDED TABLE SIZE: 705 POINTS
TCL: Running for 1500000 steps
ETITLE: TS BOND ANGLE DIHED IMPRP ELECT VDW BOUNDARY MISC KINETIC TOTAL TEMP POTENTIAL TOTALAVG TEMPAVG PRESSURE GPRESSURE VOLUME PRESSAVG GPRESSAVG
ENERGY: 0 2.3715 3.1664 2.0311 0.0000 -10949.7037 1541.3503 0.0000 0.0000 1728.1803 -7672.6041 292.3226 -9400.7844 -7672.6041 292.3226 560.7328 648.7284 30338.6496 560.7328 648.7284
ENERGY: 300000 1.7505 2.4722 1.4433 0.0000 -10958.7934 1538.0972 0.0000 0.0000 1751.6506 -7663.3796 296.2927 -9415.0302 -7652.0619 295.2790 623.8515 678.6686 30291.7515 666.4936 714.5593
ENERGY: 600000 0.9483 2.8365 4.0280 0.0000 -10937.9196 1596.1395 0.0000 0.0000 1792.5239 -7541.4434 303.2064 -9333.9674 -7631.3962 295.9654 1198.9238 1261.9063 30429.5746 623.7326 675.2424
ENERGY: 900000 3.4494 1.6969 1.7252 0.0000 -10696.5226 1367.9328 0.0000 0.0000 1745.8178 -7575.9005 295.3060 -9321.7183 -7616.1962 296.5358 -804.7639 -661.6565 30909.3215 324.3077 389.3195
ENERGY: 1200000 1.2078 4.5244 1.8071 0.0000 -10760.9538 1374.0356 0.0000 0.0000 1761.7181 -7617.6607 297.9956 -9379.3788 -7609.6259 297.9996 -803.0223 -741.6171 30744.9827 146.3622 212.2756
ENERGY: 1500000 2.6634 2.9382 1.7617 0.0000 -10846.5153 1472.5071 0.0000 0.0000 1749.5129 -7617.1320 295.9311 -9366.6449 -7606.3147 298.1155 182.7817 243.1278 30626.8198 98.5204 161.7195
TCL: Running FEP window   7: Lambda1 0.6999999999999997 Lambda2 0.6499999999999997 [dLambda -0.050000000000000044]
TCL: Setting parameter firsttimestep to 0
TCL: Setting parameter alchLambda to 0.6999999999999997
Info: NONBONDED TABLE R-SQUARED SPACING: 0.0625
Info: NONBONDED TABLE SIZE: 705 POINTS
TCL: Setting parameter alchLambda2 to 0.6499999999999997
Info: NONBONDED TABLE R-SQUARED SPACING: 0.0625
Info: NONBONDED TABLE SIZE: 705 POINTS
TCL: Running for 1500000 steps
ETITLE: TS BOND ANGLE DIHED IMPRP ELECT VDW BOUNDARY MISC KINETIC TOTAL TEMP POTENTIAL TOTALAVG TEMPAVG PRESSURE GPRESSURE VOLUME PRESSAVG GPRESSAVG
ENERGY: 0 2.6634 2.9382 1.7617 0.0000 -10845.1509 1472.2299 0.0000 0.0000 1748.6299 -7616.9279 295.7817 -9365.5577 -7616.9279 295.7817 145.4266 237.0057 30626.8198 145.4266 237.0057
ENERGY: 300000 2.3276 3.6078 1.6652 0.0000 -10798.5566 1461.5628 0.0000 0.0000 1778.1140 -7551.2792 300.7690 -9329.3932 -7569.5521 300.5877 -29.0881 75.4953 30776.6024 -149.3802 -65.7769
ENERGY: 600000 1.2238 2.5788 1.4166 0.0000 -10817.0154 1531.6762 0.0000 0.0000 1744.4396 -7535.6805 295.0729 -9280.1201 -7567.9776 299.8396 419.5538 537.5842 30992.1772 -41.5241 47.0782
ENERGY: 900000 0.5250 1.6634 1.6979 0.0000 -10874.4572 1490.1967 0.0000 0.0000 1771.2069 -7609.1672 299.6006 -9380.3742 -7565.3097 301.3946 326.9033 353.4017 30484.5645 124.4552 208.5512
ENERGY: 1200000 1.4216 4.5537 4.1069 0.0000 -10798.1976 1512.4245 0.0000 0.0000 1814.1579 -7461.5330 306.8658 -9275.6909 -7554.1621 301.8472 502.5040 533.6728 30786.3358 113.2470 193.9057
ENERGY: 1500000 0.1423 3.2966 2.1051 0.0000 -10743.0342 1389.2168 0.0000 0.0000 1754.5114 -7593.7620 296.7766 -9348.2734 -7548.2068 301.8242 -438.3692 -412.0073 30592.9829 -20.1566 50.1804
TCL: Running FEP window   8: Lambda1 0.6499999999999997 Lambda2 0.5999999999999996 [dLambda -0.050000000000000044]
TCL: Setting parameter firsttimestep to 0
TCL: Setting parameter alchLambda to 0.6499999999999997
Info: NONBONDED TABLE R-SQUARED SPACING: 0.0625
Info: NONBONDED TABLE SIZE: 705 POINTS
TCL: Setting parameter alchLambda2 to 0.5999999999999996
Info: NONBONDED TABLE R-SQUARED SPACING: 0.0625
Info: NONBONDED TABLE SIZE: 705 POINTS
TCL: Running for 1500000 steps
ETITLE: TS BOND ANGLE DIHED IMPRP ELECT VDW BOUNDARY MISC KINETIC TOTAL TEMP POTENTIAL TOTALAVG TEMPAVG PRESSURE GPRESSURE VOLUME PRESSAVG GPRESSAVG
ENERGY: 0 0.1423 3.2966 2.1051 0.0000 -10742.9057 1389.0471 0.0000 0.0000 1753.5977 -7594.7169 296.6220 -9348.3146 -7594.7169 296.6220 -502.2256 -419.1081 30592.9829 -502.2256 -419.1081
ENERGY: 300000 1.3197 3.6970 6.0013 0.0000 -10849.5812 1502.6279 0.0000 0.0000 1777.4109 -7558.5245 300.6500 -9335.9354 -7577.8130 299.3989 341.4458 303.4697 30878.6858 85.5103 146.5607
ENERGY: 600000 3.0709 2.8302 2.5244 0.0000 -10807.2651 1482.4215 0.0000 0.0000 1768.0689 -7548.3492 299.0698 -9316.4181 -7572.7385 299.3107 344.8911 472.3067 30440.1522 188.0893 256.7511
ENERGY: 900000 1.2373 2.5916 2.6801 0.0000 -10844.1792 1451.0699 0.0000 0.0000 1753.5326 -7633.0677 296.6110 -9386.6003 -7573.3611 298.9442 -483.9423 -381.5572 30795.6734 -71.9316 -7.6665
ENERGY: 1200000 2.0379 2.2624 1.7570 0.0000 -10681.8833 1351.2255 0.0000 0.0000 1763.0393 -7561.5612 298.2191 -9324.6005 -7574.2224 298.5253 -1209.6668 -1164.5154 31352.2990 -107.9105 -52.6919
ENERGY: 1500000 1.7802 2.5964 2.7149 0.0000 -10773.8315 1472.0538 0.0000 0.0000 1739.5442 -7555.1421 294.2449 -9294.6862 -7569.6221 298.1890 322.6326 400.2572 30599.9104 -140.6011 -86.0717
TCL: Running FEP window   9: Lambda1 0.5999999999999996 Lambda2 0.5499999999999996 [dLambda -0.050000000000000044]
TCL: Setting parameter firsttimestep to 0
TCL: Setting parameter alchLambda to 0.5999999999999996
Info: NONBONDED TABLE R-SQUARED SPACING: 0.0625
Info: NONBONDED TABLE SIZE: 705 POINTS
TCL: Setting parameter alchLambda2 to 0.5499999999999996
Info: NONBONDED TABLE R-SQUARED SPACING: 0.0625
Info: NONBONDED TABLE SIZE: 705 POINTS
TCL: Running for 1500000 steps
ETITLE: TS BOND ANGLE DIHED IMPRP ELECT VDW BOUNDARY MISC KINETIC TOTAL TEMP POTENTIAL TOTALAVG TEMPAVG PRESSURE GPRESSURE VOLUME PRESSAVG GPRESSAVG
ENERGY: 0 1.7802 2.5964 2.7149 0.0000 -10773.7052 1472.3561 0.0000 0.0000 1738.6654 -7555.5923 294.0962 -9294.2577 -7555.5923 294.0962 321.4301 398.9274 30599.9104 321.4301 398.9274
ENERGY: 300000 2.5480 1.7192 2.6204 0.0000 -10761.2900 1427.6332 0.0000 0.0000 1795.1203 -7531.6490 303.6456 -9326.7693 -7538.6136 301.2825 -150.7384 -118.4993 30842.7992 -224.9385 -167.4486
ENERGY: 600000 1.3907 2.2489 3.2229 0.0000 -10726.3308 1356.3100 0.0000 0.0000 1733.7364 -7629.4219 293.2625 -9363.1583 -7596.0194 298.7532 -602.2493 -547.7695 30324.6083 -312.4503 -244.2191
ENERGY: 900000 2.1698 1.8152 4.8143 0.0000 -10819.1952 1434.6145 0.0000 0.0000 1788.2356 -7587.5457 302.4810 -9375.7813 -7573.4126 300.3933 -128.6619 -81.0179 30577.4477 -219.5777 -141.8654
ENERGY: 1200000 3.6609 2.7496 3.2756 0.0000 -10838.6113 1477.6289 0.0000 0.0000 1776.2052 -7575.0911 300.4461 -9351.2962 -7578.1640 301.0401 -1.0545 128.1476 30538.1425 -152.5831 -74.6570
ENERGY: 1500000 3.1379 2.2960 1.8189 0.0000 -10774.8614 1431.7659 0.0000 0.0000 1805.7564 -7530.0864 305.4447 -9335.8428 -7574.3296 301.2254 -262.0297 -187.1553 30908.6665 -191.6537 -111.2798
TCL: Running FEP window  10: Lambda1 0.5499999999999996 Lambda2 0.4999999999999996 [dLambda -0.04999999999999999]
TCL: Setting parameter firsttimestep to 0
TCL: Setting parameter alchLambda to 0.5499999999999996
Info: NONBONDED TABLE R-SQUARED SPACING: 0.0625
Info: NONBONDED TABLE SIZE: 705 POINTS
TCL: Setting parameter alchLambda2 to 0.4999999999999996
Info: NONBONDED TABLE R-SQUARED SPACING: 0.0625
Info: NONBONDED TABLE SIZE: 705 POINTS
TCL: Running for 1500000 steps
ETITLE: TS BOND ANGLE DIHED IMPRP ELECT VDW BOUNDARY MISC KINETIC TOTAL TEMP POTENTIAL TOTALAVG TEMPAVG PRESSURE GPRESSURE VOLUME PRESSAVG GPRESSAVG
ENERGY: 0 3.1379 2.2960 1.8189 0.0000 -10774.4067 1432.2183 0.0000 0.0000 1804.8758 -7530.0599 305.2957 -9334.9357 -7530.0599 305.2957 -254.7647 -184.8316 30908.6665 -254.7647 -184.8316
ENERGY: 300000 3.1673 1.9208 2.7752 0.0000 -10975.6669 1533.1074 0.0000 0.0000 1847.5857 -7587.1105 312.5201 -9434.6962 -7564.9948 307.2934 568.4551 667.2807 30137.2996 57.3333 129.0184
ENERGY: 600000 0.5120 3.6320 2.6839 0.0000 -10813.0964 1450.2391 0.0000 0.0000 1785.9697 -7570.0597 302.0978 -9356.0294 -7569.3368 305.6379 -32.5262 25.8508 30473.1522 190.8133 256.1940
ENERGY: 900000 1.5364 3.7647 0.9599 0.0000 -10838.6256 1442.5227 0.0000 0.0000 1810.3020 -7579.5398 306.2136 -9389.8418 -7578.7892 304.6840 -97.4963 -57.3024 30399.8647 33.5068 85.8569
ENERGY: 1200000 1.9023 4.1606 1.4404 0.0000 -10827.8030 1437.3155 0.0000 0.0000 1819.3639 -7563.6202 307.7464 -9382.9841 -7572.3513 303.9272 -355.7986 -343.8583 30835.1404 -75.8117 -24.0935
ENERGY: 1500000 1.6629 5.5015 1.4831 0.0000 -10737.6274 1444.1245 0.0000 0.0000 1812.3649 -7472.4906 306.5625 -9284.8554 -7559.4012 303.6706 244.7465 278.9937 30233.7396 -81.9266 -31.3865
TCL: Running FEP window  11: Lambda1 0.4999999999999996 Lambda2 0.4499999999999996 [dLambda -0.04999999999999999]
TCL: Setting parameter firsttimestep to 0
TCL: Setting parameter alchLambda to 0.4999999999999996
Info: NONBONDED TABLE R-SQUARED SPACING: 0.0625
Info: NONBONDED TABLE SIZE: 705 POINTS
TCL: Setting parameter alchLambda2 to 0.4499999999999996
Info: NONBONDED TABLE R-SQUARED SPACING: 0.0625
Info: NONBONDED TABLE SIZE: 705 POINTS
TCL: Running for 1500000 steps
ETITLE: TS BOND ANGLE DIHED IMPRP ELECT VDW BOUNDARY MISC KINETIC TOTAL TEMP POTENTIAL TOTALAVG TEMPAVG PRESSURE GPRESSURE VOLUME PRESSAVG GPRESSAVG
ENERGY: 0 1.6629 5.5015 1.4831 0.0000 -10737.6548 1444.1721 0.0000 0.0000 1811.5036 -7473.3317 306.4168 -9284.8353 -7473.3317 306.4168 184.2119 273.1961 30233.7396 184.2119 273.1961
ENERGY: 300000 3.5920 2.0165 3.4530 0.0000 -10956.2859 1567.7716 0.0000 0.0000 1732.1650 -7647.2877 292.9967 -9379.4527 -7579.3947 298.5217 778.2575 849.9928 30198.0512 408.7980 476.0950
ENERGY: 600000 2.4532 1.8780 0.9033 0.0000 -10923.0931 1487.2006 0.0000 0.0000 1804.8911 -7625.7669 305.2983 -9430.6580 -7574.3720 299.4906 21.6873 69.4821 30296.2377 254.1715 327.0076
ENERGY: 900000 2.3410 3.9443 3.4554 0.0000 -10834.4989 1513.9915 0.0000 0.0000 1769.0067 -7541.7599 299.2285 -9310.7666 -7557.6365 301.7319 551.1569 629.6137 30459.9037 218.2160 292.5241
ENERGY: 1200000 1.4800 1.9057 3.6153 0.0000 -10818.4966 1454.3576 0.0000 0.0000 1734.0641 -7623.0739 293.3179 -9357.1380 -7567.1728 300.3336 -117.9991 -73.1782 30682.9649 90.0793 158.8544
ENERGY: 1500000 1.6862 2.7092 2.2571 0.0000 -10918.1189 1534.4560 0.0000 0.0000 1806.5404 -7570.4700 305.5773 -9377.0104 -7563.1567 300.5274 542.1846 610.4660 30535.5471 151.8011 224.3088
TCL: Running FEP window  12: Lambda1 0.4499999999999996 Lambda2 0.39999999999999963 [dLambda -0.04999999999999999]
TCL: Setting parameter firsttimestep to 0
TCL: Setting parameter alchLambda to 0.4499999999999996
Info: NONBONDED TABLE R-SQUARED SPACING: 0.0625
Info: NONBONDED TABLE SIZE: 705 POINTS
TCL: Setting parameter alchLambda2 to 0.39999999999999963
Info: NONBONDED TABLE R-SQUARED SPACING: 0.0625
Info: NONBONDED TABLE SIZE: 705 POINTS
TCL: Running for 1500000 steps
ETITLE: TS BOND ANGLE DIHED IMPRP ELECT VDW BOUNDARY MISC KINETIC TOTAL TEMP POTENTIAL TOTALAVG TEMPAVG PRESSURE GPRESSURE VOLUME PRESSAVG GPRESSAVG
ENERGY: 0 1.6862 2.7092 2.2571 0.0000 -10918.1206 1534.4735 0.0000 0.0000 1805.6699 -7571.3246 305.4301 -9376.9946 -7571.3246 305.4301 527.4580 604.9077 30535.5471 527.4580 604.9077
ENERGY: 300000 1.8180 2.3060 0.5915 0.0000 -10825.7430 1467.6962 0.0000 0.0000 1732.0933 -7621.2379 292.9845 -9353.3312 -7589.2686 299.9228 -6.6273 50.1831 30466.7292 291.0250 348.8266
ENERGY: 600000 1.7956 3.3873 3.8882 0.0000 -10762.6231 1369.6648 0.0000 0.0000 1731.8846 -7652.0026 292.9492 -9383.8872 -7601.6195 296.2832 -938.8261 -889.6893 30713.5179 -29.4072 27.0693
ENERGY: 900000 0.4427 1.8587 0.7768 0.0000 -10826.3035 1471.7864 0.0000 0.0000 1850.2009 -7501.2381 312.9625 -9351.4389 -7595.7515 297.0831 340.2014 406.2679 30438.3834 105.4304 167.3704
ENERGY: 1200000 1.0100 1.2823 1.4016 0.0000 -10808.7269 1437.0198 0.0000 0.0000 1845.3508 -7522.6623 312.1421 -9368.0131 -7571.5870 298.7689 -281.5314 -189.0877 30771.4803 89.9191 151.2593
ENERGY: 1500000 1.0119 4.5601 2.9241 0.0000 -10846.5405 1463.8304 0.0000 0.0000 1789.1275 -7585.0864 302.6319 -9374.2139 -7565.8949 299.6626 90.8752 131.7561 30455.7647 78.0409 141.7718
TCL: Running FEP window  13: Lambda1 0.39999999999999963 Lambda2 0.34999999999999964 [dLambda -0.04999999999999999]
TCL: Setting parameter firsttimestep to 0
TCL: Setting parameter alchLambda to 0.39999999999999963
Info: NONBONDED TABLE R-SQUARED SPACING: 0.0625
Info: NONBONDED TABLE SIZE: 705 POINTS
TCL: Setting parameter alchLambda2 to 0.34999999999999964
Info: NONBONDED TABLE R-SQUARED SPACING: 0.0625
Info: NONBONDED TABLE SIZE: 705 POINTS
TCL: Running for 1500000 steps
ETITLE: TS BOND ANGLE DIHED IMPRP ELECT VDW BOUNDARY MISC KINETIC TOTAL TEMP POTENTIAL TOTALAVG TEMPAVG PRESSURE GPRESSURE VOLUME PRESSAVG GPRESSAVG
ENERGY: 0 1.0119 4.5601 2.9241 0.0000 -10846.5400 1464.2399 0.0000 0.0000 1788.2670 -7585.5370 302.4864 -9373.8040 -7585.5370 302.4864 53.9001 130.8620 30455.7647 53.9001 130.8620
ENERGY: 300000 4.3058 2.5726 1.2781 0.0000 -10777.6317 1483.9917 0.0000 0.0000 1818.7979 -7466.6856 307.6507 -9285.4836 -7530.2976 303.9275 131.5214 244.8570 30929.3131 -81.2064 5.8456
ENERGY: 600000 2.9080 2.5452 1.6501 0.0000 -10765.4912 1385.5969 0.0000 0.0000 1796.5855 -7576.2054 303.8934 -9372.7909 -7536.1922 304.8840 -752.9166 -732.7734 30753.8512 -155.5488 -83.6294
ENERGY: 900000 0.3804 1.5363 2.3235 0.0000 -10818.3970 1498.6824 0.0000 0.0000 1789.5655 -7525.9089 302.7060 -9315.4744 -7537.9504 304.2704 515.9765 564.0617 30355.5781 -55.4188 12.2919
ENERGY: 1200000 0.5794 4.3699 8.8950 0.0000 -10661.2584 1378.5579 0.0000 0.0000 1787.5867 -7481.2695 302.3713 -9268.8563 -7530.8475 304.5349 -456.3364 -382.6424 30554.8032 -41.0159 31.9894
ENERGY: 1500000 1.2008 2.5144 3.7189 0.0000 -10661.5350 1395.1709 0.0000 0.0000 1756.3918 -7502.5381 297.0946 -9258.9300 -7527.4936 303.7265 -647.7507 -606.1822 31350.8779 -108.9560 -40.7438
TCL: Running FEP window  14: Lambda1 0.34999999999999964 Lambda2 0.29999999999999966 [dLambda -0.04999999999999999]
TCL: Setting parameter firsttimestep to 0
TCL: Setting parameter alchLambda to 0.34999999999999964
Info: NONBONDED TABLE R-SQUARED SPACING: 0.0625
Info: NONBONDED TABLE SIZE: 705 POINTS
TCL: Setting parameter alchLambda2 to 0.29999999999999966
Info: NONBONDED TABLE R-SQUARED SPACING: 0.0625
Info: NONBONDED TABLE SIZE: 705 POINTS
TCL: Running for 1500000 steps
ETITLE: TS BOND ANGLE DIHED IMPRP ELECT VDW BOUNDARY MISC KINETIC TOTAL TEMP POTENTIAL TOTALAVG TEMPAVG PRESSURE GPRESSURE VOLUME PRESSAVG GPRESSAVG
ENERGY: 0 1.2008 2.5144 3.7188 0.0000 -10661.5358 1395.3232 0.0000 0.0000 1755.4808 -7503.2977 296.9405 -9258.7784 -7503.2977 296.9405 -690.3170 -608.9473 31350.8779 -690.3170 -608.9473
ENERGY: 300000 0.7942 1.6151 3.3648 0.0000 -10685.4839 1439.7690 0.0000 0.0000 1755.2863 -7484.6546 296.9076 -9239.9408 -7567.1491 296.9516 63.9780 139.5539 30608.1333 -101.7484 -31.5058
ENERGY: 600000 1.6215 2.2605 2.1251 0.0000 -10877.4939 1512.0781 0.0000 0.0000 1729.3592 -7630.0495 292.5221 -9359.4087 -7578.7795 297.1121 474.1527 557.5197 30384.1353 57.4258 126.4068
ENERGY: 900000 1.3026 4.6156 2.0835 0.0000 -10861.1156 1472.5895 0.0000 0.0000 1771.5105 -7609.0139 299.6520 -9380.5244 -7579.8531 297.3457 49.7168 151.4736 30278.4904 99.8829 163.4066
ENERGY: 1200000 3.3374 4.5124 2.6697 0.0000 -10700.2436 1381.0983 0.0000 0.0000 1789.4158 -7519.2100 302.6807 -9308.6258 -7583.1655 297.4549 -613.2072 -564.0601 30712.0533 1.8935 61.9148
ENERGY: 1500000 2.4854 1.1885 2.3231 0.0000 -10753.2230 1420.0252 0.0000 0.0000 1776.5590 -7550.6419 300.5059 -9327.2008 -7579.6778 297.8483 -428.8225 -334.1053 30565.4073 -7.4202 58.4341
TCL: Running FEP window  15: Lambda1 0.29999999999999966 Lambda2 0.24999999999999967 [dLambda -0.04999999999999999]
TCL: Setting parameter firsttimestep to 0
TCL: Setting parameter alchLambda to 0.29999999999999966
Info: NONBONDED TABLE R-SQUARED SPACING: 0.0625
Info: NONBONDED TABLE SIZE: 705 POINTS
TCL: Setting parameter alchLambda2 to 0.24999999999999967
Info: NONBONDED TABLE R-SQUARED SPACING: 0.0625
Info: NONBONDED TABLE SIZE: 705 POINTS
TCL: Running for 1500000 steps
ETITLE: TS BOND ANGLE DIHED IMPRP ELECT VDW BOUNDARY MISC KINETIC TOTAL TEMP POTENTIAL TOTALAVG TEMPAVG PRESSURE GPRESSURE VOLUME PRESSAVG GPRESSAVG
ENERGY: 0 2.4854 1.1885 2.3231 0.0000 -10753.2233 1420.2667 0.0000 0.0000 1775.6577 -7551.3019 300.3535 -9326.9596 -7551.3019 300.3535 -412.7168 -334.8936 30565.4073 -412.7168 -334.8936
ENERGY: 300000 2.5676 1.0011 1.2435 0.0000 -10707.8389 1395.4707 0.0000 0.0000 1792.1897 -7515.3663 303.1499 -9307.5560 -7553.1465 300.6821 -477.5332 -390.9971 30515.7759 -194.0166 -98.5087
ENERGY: 600000 2.4865 1.7275 2.2116 0.0000 -10754.0272 1458.8803 0.0000 0.0000 1757.3413 -7531.3801 297.2552 -9288.7214 -7545.9552 298.7928 163.5704 202.6835 30459.0548 -75.7586 -5.6688
ENERGY: 900000 1.7691 2.4973 4.2071 0.0000 -10769.0429 1420.4830 0.0000 0.0000 1779.2210 -7560.8655 300.9562 -9340.0865 -7556.1150 299.1899 -151.3728 -113.1298 30361.8029 -114.6981 -46.3554
ENERGY: 1200000 0.8909 1.4155 4.7410 0.0000 -10738.5231 1401.9524 0.0000 0.0000 1777.6587 -7551.8645 300.6920 -9329.5232 -7565.3926 299.2276 -365.4938 -326.7326 30521.5262 -86.4688 -21.5492
ENERGY: 1500000 1.7059 2.5479 4.6194 0.0000 -10912.5771 1562.9865 0.0000 0.0000 1714.4124 -7626.3050 289.9938 -9340.7173 -7565.1437 299.1838 1041.2873 1161.1307 29783.6845 115.7841 183.6791
TCL: Running FEP window  16: Lambda1 0.24999999999999967 Lambda2 0.19999999999999968 [dLambda -0.04999999999999999]
TCL: Setting parameter firsttimestep to 0
TCL: Setting parameter alchLambda to 0.24999999999999967
Info: NONBONDED TABLE R-SQUARED SPACING: 0.0625
Info: NONBONDED TABLE SIZE: 705 POINTS
TCL: Setting parameter alchLambda2 to 0.19999999999999968
Info: NONBONDED TABLE R-SQUARED SPACING: 0.0625
Info: NONBONDED TABLE SIZE: 705 POINTS
TCL: Running for 1500000 steps
ETITLE: TS BOND ANGLE DIHED IMPRP ELECT VDW BOUNDARY MISC KINETIC TOTAL TEMP POTENTIAL TOTALAVG TEMPAVG PRESSURE GPRESSURE VOLUME PRESSAVG GPRESSAVG
ENERGY: 0 1.7059 2.5479 4.6194 0.0000 -10912.5772 1562.6445 0.0000 0.0000 1713.5383 -7627.5212 289.8459 -9341.0595 -7627.5212 289.8459 1052.2007 1154.1994 29783.6845 1052.2007 1154.1994
ENERGY: 300000 3.9020 1.3266 1.5203 0.0000 -10724.4349 1465.6253 0.0000 0.0000 1764.9344 -7487.1262 298.5396 -9252.0606 -7571.0241 296.8684 216.4816 252.8107 30461.1671 348.4046 419.0598
ENERGY: 600000 1.0727 2.1884 1.9005 0.0000 -10880.1470 1479.2014 0.0000 0.0000 1768.0381 -7627.7459 299.0646 -9395.7840 -7561.5530 297.3789 138.8327 171.6684 30400.3484 182.5172 238.5473
ENERGY: 900000 1.4805 1.0783 6.2841 0.0000 -10830.4546 1491.8010 0.0000 0.0000 1774.8821 -7554.9285 300.2223 -9329.8106 -7554.0256 298.3715 265.4028 342.8031 30817.5691 124.9148 187.5721
ENERGY: 1200000 2.0654 0.6814 2.3992 0.0000 -10804.5892 1453.6725 0.0000 0.0000 1760.4603 -7585.3104 297.7828 -9345.7707 -7560.4639 297.9886 -126.0046 -17.8731 30519.2032 93.1001 156.8551
ENERGY: 1500000 1.2029 4.6417 0.8816 0.0000 -10808.0030 1481.4173 0.0000 0.0000 1750.6860 -7569.1736 296.1295 -9319.8596 -7560.6365 298.5194 16.2774 127.2756 31033.5172 83.5578 151.6939
TCL: Running FEP window  17: Lambda1 0.19999999999999968 Lambda2 0.1499999999999997 [dLambda -0.04999999999999999]
TCL: Setting parameter firsttimestep to 0
TCL: Setting parameter alchLambda to 0.19999999999999968
Info: NONBONDED TABLE R-SQUARED SPACING: 0.0625
Info: NONBONDED TABLE SIZE: 705 POINTS
TCL: Setting parameter alchLambda2 to 0.1499999999999997
Info: NONBONDED TABLE R-SQUARED SPACING: 0.0625
Info: NONBONDED TABLE SIZE: 705 POINTS
TCL: Running for 1500000 steps
ETITLE: TS BOND ANGLE DIHED IMPRP ELECT VDW BOUNDARY MISC KINETIC TOTAL TEMP POTENTIAL TOTALAVG TEMPAVG PRESSURE GPRESSURE VOLUME PRESSAVG GPRESSAVG
ENERGY: 0 1.2029 4.6417 0.8816 0.0000 -10808.0020 1481.4839 0.0000 0.0000 1749.8187 -7569.9732 295.9828 -9319.7919 -7569.9732 295.9828 38.5392 127.5842 31033.5172 38.5392 127.5842
ENERGY: 300000 1.5878 2.9424 1.1749 0.0000 -10924.1902 1538.4100 0.0000 0.0000 1763.7554 -7616.3198 298.3402 -9380.0752 -7600.8383 297.4424 415.0354 506.3960 30433.3992 121.7616 188.4503
ENERGY: 600000 0.3319 2.6325 3.4075 0.0000 -10849.2559 1482.8576 0.0000 0.0000 1750.3646 -7609.6617 296.0751 -9360.0264 -7585.3638 298.1364 177.2288 184.4735 30427.4933 159.7583 208.0687
ENERGY: 900000 2.1825 1.9178 2.6959 0.0000 -10699.7288 1418.0527 0.0000 0.0000 1738.3151 -7536.5649 294.0370 -9274.8800 -7564.9510 299.2556 -207.5895 -123.1538 30665.4717 112.8382 163.0912
ENERGY: 1200000 0.6287 2.3174 1.2164 0.0000 -10672.1802 1371.5943 0.0000 0.0000 1814.0481 -7482.3751 306.8472 -9296.4232 -7562.7781 299.2573 -270.5779 -240.4290 30457.2061 29.5306 81.3960
ENERGY: 1500000 1.8234 2.3688 3.8772 0.0000 -10878.7975 1518.8723 0.0000 0.0000 1777.3691 -7574.4869 300.6430 -9351.8560 -7551.4043 300.4505 476.6812 564.7220 30424.6235 74.5667 130.6093
TCL: Running FEP window  18: Lambda1 0.1499999999999997 Lambda2 0.09999999999999969 [dLambda -0.05 ]
TCL: Setting parameter firsttimestep to 0
TCL: Setting parameter alchLambda to 0.1499999999999997
Info: NONBONDED TABLE R-SQUARED SPACING: 0.0625
Info: NONBONDED TABLE SIZE: 705 POINTS
TCL: Setting parameter alchLambda2 to 0.09999999999999969
Info: NONBONDED TABLE R-SQUARED SPACING: 0.0625
Info: NONBONDED TABLE SIZE: 705 POINTS
TCL: Running for 1500000 steps
ETITLE: TS BOND ANGLE DIHED IMPRP ELECT VDW BOUNDARY MISC KINETIC TOTAL TEMP POTENTIAL TOTALAVG TEMPAVG PRESSURE GPRESSURE VOLUME PRESSAVG GPRESSAVG
ENERGY: 0 1.8234 2.3688 3.8772 0.0000 -10878.7979 1518.8001 0.0000 0.0000 1776.4647 -7575.4638 300.4900 -9351.9285 -7575.4638 300.4900 483.0048 562.9150 30424.6235 483.0048 562.9150
ENERGY: 300000 1.6917 3.5884 3.3163 0.0000 -10731.4199 1436.4052 0.0000 0.0000 1826.7053 -7459.7129 308.9882 -9286.4182 -7503.2873 307.2603 -239.2826 -169.9110 31007.9320 284.8657 340.8091
ENERGY: 600000 1.3798 2.0514 2.8942 0.0000 -10714.8056 1433.4717 0.0000 0.0000 1781.9635 -7493.0449 301.4201 -9275.0084 -7505.6719 305.4814 93.6666 120.7179 30314.0383 176.0402 233.1652
ENERGY: 900000 0.8548 1.3305 4.5376 0.0000 -10814.9733 1433.0820 0.0000 0.0000 1789.7699 -7585.3985 302.7406 -9375.1684 -7521.5153 304.1453 -167.3678 -86.9051 30389.8040 149.9629 203.8300
ENERGY: 1200000 3.2464 2.8159 1.8222 0.0000 -10701.1976 1447.2417 0.0000 0.0000 1793.5969 -7452.4745 303.3879 -9246.0714 -7512.3825 304.0985 304.7554 357.7054 30501.4444 175.1191 230.8668
ENERGY: 1500000 2.1887 3.8300 3.5363 0.0000 -10765.0907 1436.0258 0.0000 0.0000 1823.0185 -7496.4913 308.3646 -9319.5099 -7519.4349 302.5350 -181.5899 -206.8006 30636.4422 55.0368 101.4163
TCL: Running FEP window  19: Lambda1 0.09999999999999969 Lambda2 0.049999999999999684 [dLambda -0.05 ]
TCL: Setting parameter firsttimestep to 0
TCL: Setting parameter alchLambda to 0.09999999999999969
Info: NONBONDED TABLE R-SQUARED SPACING: 0.0625
Info: NONBONDED TABLE SIZE: 705 POINTS
TCL: Setting parameter alchLambda2 to 0.049999999999999684
Info: NONBONDED TABLE R-SQUARED SPACING: 0.0625
Info: NONBONDED TABLE SIZE: 705 POINTS
TCL: Running for 1500000 steps
ETITLE: TS BOND ANGLE DIHED IMPRP ELECT VDW BOUNDARY MISC KINETIC TOTAL TEMP POTENTIAL TOTALAVG TEMPAVG PRESSURE GPRESSURE VOLUME PRESSAVG GPRESSAVG
ENERGY: 0 2.1887 3.8300 3.5363 0.0000 -10765.0898 1435.6584 0.0000 0.0000 1822.1486 -7497.7277 308.2174 -9319.8763 -7497.7277 308.2174 -294.8987 -213.2214 30636.4422 -294.8987 -213.2214
ENERGY: 300000 2.1424 2.2451 0.7476 0.0000 -10805.2556 1494.2398 0.0000 0.0000 1735.8234 -7570.0574 293.6155 -9305.8808 -7524.5120 300.5642 218.8194 313.1621 30727.3088 48.1561 125.7894
ENERGY: 600000 1.5041 0.9213 1.9175 0.0000 -10899.6750 1539.0963 0.0000 0.0000 1774.4009 -7581.8349 300.1409 -9356.2358 -7535.5454 300.2142 700.0769 736.4950 30251.1676 42.1437 113.8882
ENERGY: 900000 0.7920 3.0026 1.1778 0.0000 -10843.5548 1548.0522 0.0000 0.0000 1738.3965 -7552.1337 294.0507 -9290.5302 -7549.8781 299.0709 980.8439 1091.1129 30185.9253 83.6767 155.9398
ENERGY: 1200000 0.7595 3.2459 2.6745 0.0000 -10730.0006 1366.8603 0.0000 0.0000 1800.1376 -7556.3228 304.4943 -9356.4604 -7529.2590 301.2026 -651.9745 -577.7022 30469.6856 47.8256 112.9068
ENERGY: 1500000 0.7980 2.9608 1.8538 0.0000 -10726.0451 1379.2174 0.0000 0.0000 1797.2403 -7543.9748 304.0042 -9341.2151 -7528.0424 301.2591 -396.3467 -408.3042 30441.6827 51.6205 110.1551
TCL: Running FEP window  20: Lambda1 0.049999999999999684 Lambda2 0.0    [dLambda -0.049999999999999684]
TCL: Setting parameter firsttimestep to 0
TCL: Setting parameter alchLambda to 0.049999999999999684
Info: NONBONDED TABLE R-SQUARED SPACING: 0.0625
Info: NONBONDED TABLE SIZE: 705 POINTS
TCL: Setting parameter alchLambda2 to 0.0
Info: NONBONDED TABLE R-SQUARED SPACING: 0.0625
Info: NONBONDED TABLE SIZE: 705 POINTS
TCL: Running for 1500000 steps
ETITLE: TS BOND ANGLE DIHED IMPRP ELECT VDW BOUNDARY MISC KINETIC TOTAL TEMP POTENTIAL TOTALAVG TEMPAVG PRESSURE GPRESSURE VOLUME PRESSAVG GPRESSAVG
ENERGY: 0 0.7980 2.9608 1.8538 0.0000 -10726.0443 1378.9610 0.0000 0.0000 1796.3813 -7545.0894 303.8589 -9341.4707 -7545.0894 303.8589 -496.0448 -412.4720 30441.6827 -496.0448 -412.4720
ENERGY: 300000 1.6413 3.0279 4.1262 0.0000 -10879.0013 1436.3619 0.0000 0.0000 1771.3121 -7662.5318 299.6184 -9433.8439 -7582.7888 302.5580 -377.8621 -350.3997 30398.5116 -604.8722 -550.5159
ENERGY: 600000 3.0978 2.2065 1.5442 0.0000 -10763.7707 1458.1982 0.0000 0.0000 1747.1737 -7551.5502 295.5354 -9298.7239 -7567.5763 300.8369 -206.3335 -143.7672 30829.3319 -418.9895 -346.5391
ENERGY: 900000 1.1113 3.9402 3.8234 0.0000 -10780.1772 1451.4132 0.0000 0.0000 1793.7097 -7526.1794 303.4070 -9319.8891 -7563.4463 301.3217 -29.2384 29.6984 30701.2832 -224.1375 -171.0382
ENERGY: 1200000 0.9173 3.3298 2.8785 0.0000 -10726.4879 1380.8844 0.0000 0.0000 1803.1358 -7535.3420 305.0014 -9338.4778 -7554.3695 301.3262 -484.5107 -430.7004 30140.2296 -321.1108 -271.4504
ENERGY: 1500000 2.6744 2.1319 1.8004 0.0000 -10694.8940 1376.7121 0.0000 0.0000 1813.9182 -7497.6571 306.8253 -9311.5753 -7549.6959 301.6900 -702.5657 -633.4055 30640.3984 -260.5586 -217.5398
TCL: Exiting due to exit command.
