Info: SIMULATION PARAMETERS:
Info: TIMESTEP               2
Info: NUMBER OF STEPS        0
Info: STEPS PER CYCLE        10
Info: PERIODIC CELL BASIS 1  30.8617 0 0
Info: PERIODIC CELL BASIS 2  0 31.2366 0
Info: PERIODIC CELL BASIS 3  0 0 31.5118
Info: PERIODIC CELL CENTER   0 0 0
Info: WRAPPING WATERS AROUND PERIODIC BOUNDARIES ON OUTPUT.
Info: WRAPPING ALL CLUSTERS AROUND PERIODIC BOUNDARIES ON OUTPUT.
Info: FIRST LDB TIMESTEP     50
Info: LAST LDB TIMESTEP     -1
Info: HOM BACKGROUND SCALING 1
Info: PME BACKGROUND SCALING 1
Info: MIN ATOMS PER PATCH    40
Info: EMPTY PATCH LOAD       40 ATOMS
Info: VELOCITY FILE          mobley_3682850_equil.vel
Info: CENTER OF MASS MOVING INITIALLY? NO
Info: DIELECTRIC             1
Info: EXCLUDE                SCALED ONE-FOUR
Info: 1-4 ELECTROSTATICS SCALED BY 0.833333
Info: MODIFIED 1-4 VDW PARAMETERS WILL BE USED
Info: DCD FILENAME           mobley_3682850_prod.dcd
Info: DCD FREQUENCY          100000
Info: DCD FIRST STEP         100000
Info: DCD FILE WILL CONTAIN UNIT CELL DATA
Info: XST FILENAME           mobley_3682850_prod.xst
Info: XST FREQUENCY          100000
Info: NO VELOCITY DCD OUTPUT
Info: NO FORCE DCD OUTPUT
Info: OUTPUT FILENAME        mobley_3682850_prod
Info: BINARY OUTPUT FILES WILL BE USED
Info: RESTART FILENAME       mobley_3682850_prod.restart
Info: RESTART FREQUENCY      100000
Info: BINARY RESTART FILES WILL BE USED
Info: CUTOFF                 9
Info: PAIRLIST DISTANCE      11
Info: PAIRLIST SHRINK RATE   0.01
Info: PAIRLIST GROW RATE     0.01
Info: PAIRLIST TRIGGER       0.3
Info: PAIRLISTS PER CYCLE    2
Info: PAIRLISTS ENABLED
Info: MARGIN                 2
Info: HYDROGEN GROUP CUTOFF  2.5
Info: PATCH DIMENSION        15.5
Info: ENERGY OUTPUT STEPS    100000
Info: ENERGY EVALUATION STEPS    100000
Info: OUTPUT ENERGY PRECISION 4
Info: CROSSTERM ENERGY INCLUDED IN DIHEDRAL
Info: TIMING OUTPUT STEPS    1000000
Info: PRESSURE OUTPUT STEPS  100000
Info: ALCHEMICAL FEP ON
Info: FEP CURRENT LAMBDA VALUE     1
Info: FEP COMPARISON LAMBDA VALUE  0.95
Info: FEP INTRA-ALCHEMICAL NON-BONDED INTERACTIONS WILL BE RETAINED
Info: FEP INTRA-ALCHEMICAL BONDED INTERACTIONS WILL BE RETAINED
Info: FEP VDW SHIFTING COEFFICIENT 5
Info: FEP ELEC. ACTIVE FOR ANNIHILATED PARTICLES BETWEEN LAMBDA = 0 AND LAMBDA = 0.5
Info: FEP ELEC. ACTIVE FOR EXNIHILATED PARTICLES BETWEEN LAMBDA = 0.5 AND LAMBDA = 1
Info: FEP VDW ACTIVE FOR ANNIHILATED PARTICLES BETWEEN LAMBDA = 0 AND LAMBDA = 1
Info: FEP VDW ACTIVE FOR EXNIHILATED PARTICLES BETWEEN LAMBDA = 0 AND LAMBDA = 1
Info: FEP BOND ACTIVE FOR ANNIHILATED PARTICLES BETWEEN LAMBDA = 1 AND LAMBDA = 1
Info: FEP BOND ACTIVE FOR EXNIHILATED PARTICLES BETWEEN LAMBDA = 0 AND LAMBDA = 0
Info: LANGEVIN DYNAMICS ACTIVE
Info: LANGEVIN TEMPERATURE   300
Info: LANGEVIN USING BBK INTEGRATOR
Info: LANGEVIN DAMPING COEFFICIENT IS 1 INVERSE PS
Info: LANGEVIN DYNAMICS APPLIED TO HYDROGENS
Info: LANGEVIN PISTON PRESSURE CONTROL ACTIVE
Info:        TARGET PRESSURE IS 1.01325 BAR
Info:     OSCILLATION PERIOD IS 50 FS
Info:             DECAY TIME IS 25 FS
Info:     PISTON TEMPERATURE IS 300 K
Info:       PRESSURE CONTROL IS GROUP-BASED
Info:    INITIAL STRAIN RATE IS -0.000669939 -0.000669939 -0.000669939
Info:       CELL FLUCTUATION IS ISOTROPIC
Info: PARTICLE MESH EWALD (PME) ACTIVE
Info: PME TOLERANCE               1e-06
Info: PME EWALD COEFFICIENT       0.348832
Info: PME INTERPOLATION ORDER     4
Info: PME GRID DIMENSIONS         32 32 32
Info: PME MAXIMUM GRID SPACING    1
Info: PME CALCULATION WILL BE PERFORMED ON GPU
Info: FULL ELECTROSTATIC EVALUATION FREQUENCY      2
Info: USING VERLET I (r-RESPA) MTS SCHEME.
Info: C1 SPLITTING OF LONG RANGE ELECTROSTATICS
Info: PLACING ATOMS IN PATCHES BY HYDROGEN GROUPS
Info: RIGID BONDS TO HYDROGEN : ALL
Info:         ERROR TOLERANCE : 1e-08
Info:          MAX ITERATIONS : 100
Info: RIGID WATER USING SETTLE ALGORITHM
Info: RANDOM NUMBER SEED     1742381003
Info: USE HYDROGEN BONDS?    NO
Info: Using AMBER format force field!
Info: AMBER PARM FILE        mobley_3682850.prmtop
Info: COORDINATE PDB         mobley_3682850.pdb
Info: Exclusions will be read from PARM file!
Info: SCNB (VDW SCALING)     2
Info: USING ARITHMETIC MEAN TO COMBINE L-J SIGMA PARAMETERS
Info: BINARY COORDINATES     mobley_3682850_equil.coor
Info: SUMMARY OF PARAMETERS:
Info: 6 BONDS
Info: 7 ANGLES
Info:   7 HARMONIC
Info:   0 COSINE-BASED
Info: 15 DIHEDRAL
Info: 0 IMPROPER
Info: 0 CROSSTERM
Info: 0 VDW
Info: 21 VDW_PAIRS
Info: 0 NBTHOLE_PAIRS
Info: To read alchdata from file: mobley_3682850.pdb
Info: To read alchflag data from column: 5
Info: STRUCTURE SUMMARY:
Info: 2927 ATOMS
Info: 2927 BONDS
Info: 33 ANGLES
Info: 61 DIHEDRALS
Info: 0 IMPROPERS
Info: 0 CROSSTERMS
Info: 3005 EXCLUSIONS
Info: 2920 RIGID BONDS
Info: ALCH: 0 ATOMS TO DISAPPEAR IN FINAL STATE
Info: ALCH: 17 ATOMS TO APPEAR IN FINAL STATE
Info: 5861 DEGREES OF FREEDOM
Info: 977 HYDROGEN GROUPS
Info: 3 ATOMS IN LARGEST HYDROGEN GROUP
Info: 977 MIGRATION GROUPS
Info: 3 ATOMS IN LARGEST MIGRATION GROUP
Info: TOTAL MASS = 17573.7 amu
Info: TOTAL CHARGE = 0.000299945 e
Info: MASS DENSITY = 0.960651 g/cm^3
Info: ATOM DENSITY = 0.0963533 atoms/A^3
Info: ADDED 0 IMPLICIT EXCLUSIONS
Info: NONBONDED TABLE R-SQUARED SPACING: 0.0625
Info: NONBONDED TABLE SIZE: 705 POINTS
Info: REMOVING COM VELOCITY -0.0315074 0.0548148 0.308474
Info: Use 3D box decompostion in PME FFT.
Info: Updated CUDA force table with 4096 elements.
Info: Updated CUDA LJ table with 6 x 6 elements.
Info: Found 20 unique exclusion lists needing 52 bytes
TCL: Running for 1500000 steps
ETITLE: TS BOND ANGLE DIHED IMPRP ELECT VDW BOUNDARY MISC KINETIC TOTAL TEMP POTENTIAL TOTALAVG TEMPAVG PRESSURE GPRESSURE VOLUME PRESSAVG GPRESSAVG
ENERGY: 0 2.8419 10.9984 30.5828 0.0000 -10695.9282 1429.5880 0.0000 0.0000 1713.5807 -7508.3363 294.2546 -9221.9170 -7508.3363 294.2546 -492.3739 -413.8097 30377.7803 -492.3739 -413.8097
ENERGY: 300000 0.7431 7.8922 30.2267 0.0000 -10463.9255 1355.2935 0.0000 0.0000 1694.9626 -7374.8073 291.0575 -9069.7699 -7447.1432 297.7946 -174.7791 -140.1982 30226.4584 -168.6002 -104.7269
ENERGY: 600000 3.5894 7.9051 28.8774 0.0000 -10311.8968 1244.8806 0.0000 0.0000 1732.7205 -7293.9239 297.5412 -9026.6443 -7441.7429 297.9639 -1083.3951 -986.2198 30494.5916 -243.2480 -172.3929
ENERGY: 900000 1.9945 6.7077 32.2479 0.0000 -10615.4598 1439.1844 0.0000 0.0000 1725.2918 -7410.0336 296.2656 -9135.3253 -7428.2026 297.9985 487.3306 468.1976 29697.8667 -143.4325 -80.4983
ENERGY: 1200000 1.5019 7.5636 28.9116 0.0000 -10667.1849 1508.6569 0.0000 0.0000 1823.6394 -7296.9115 313.1538 -9120.5509 -7413.0692 300.3066 693.2531 759.4356 30098.3004 -65.0870 -6.7153
ENERGY: 1500000 2.8291 11.0045 30.4208 0.0000 -10616.2893 1446.3874 0.0000 0.0000 1744.4259 -7381.2216 299.5513 -9125.6475 -7407.5727 300.0820 213.8800 261.7103 30144.5987 -124.6249 -60.3302
TCL: Running FEP window   2: Lambda1 0.95   Lambda2 0.8999999999999999 [dLambda -0.050000000000000044]
TCL: Setting parameter firsttimestep to 0
TCL: Setting parameter alchLambda to 0.95
Info: NONBONDED TABLE R-SQUARED SPACING: 0.0625
Info: NONBONDED TABLE SIZE: 705 POINTS
TCL: Setting parameter alchLambda2 to 0.8999999999999999
Info: NONBONDED TABLE R-SQUARED SPACING: 0.0625
Info: NONBONDED TABLE SIZE: 705 POINTS
TCL: Running for 1500000 steps
ETITLE: TS BOND ANGLE DIHED IMPRP ELECT VDW BOUNDARY MISC KINETIC TOTAL TEMP POTENTIAL TOTALAVG TEMPAVG PRESSURE GPRESSURE VOLUME PRESSAVG GPRESSAVG
ENERGY: 0 2.8291 11.0045 30.4208 0.0000 -10615.5540 1447.0130 0.0000 0.0000 1743.5708 -7380.7159 299.4044 -9124.2866 -7380.7159 299.4044 166.9828 259.4239 30144.5987 166.9828 259.4239
ENERGY: 300000 4.4534 6.2790 30.3632 0.0000 -10715.8778 1501.8046 0.0000 0.0000 1721.9646 -7451.0130 295.6943 -9172.9776 -7371.8996 300.6206 290.2720 322.3121 30287.4611 194.8982 256.0729
ENERGY: 600000 2.4240 6.1034 32.0828 0.0000 -10548.4835 1369.7658 0.0000 0.0000 1773.2346 -7364.8728 304.4983 -9138.1074 -7392.4082 299.0927 -298.7931 -241.9093 30039.0106 20.5344 80.8827
ENERGY: 900000 1.3293 9.0830 32.5593 0.0000 -10723.0242 1480.0972 0.0000 0.0000 1797.9965 -7401.9588 308.7504 -9199.9553 -7389.2126 299.9988 507.6497 555.4161 29800.5481 -6.2326 57.6498
ENERGY: 1200000 0.5973 6.2706 28.4884 0.0000 -10578.1704 1447.0699 0.0000 0.0000 1751.2843 -7344.4598 300.7290 -9095.7441 -7384.6994 300.2927 14.4629 92.9088 30646.6794 -49.1686 20.0725
ENERGY: 1500000 2.5599 4.9100 35.7390 0.0000 -10472.3201 1324.3406 0.0000 0.0000 1721.3096 -7383.4610 295.5818 -9104.7706 -7381.3734 300.1112 -620.2471 -568.6829 30156.7346 -54.2804 15.0592
TCL: Running FEP window   3: Lambda1 0.8999999999999999 Lambda2 0.8499999999999999 [dLambda -0.050000000000000044]
TCL: Setting parameter firsttimestep to 0
TCL: Setting parameter alchLambda to 0.8999999999999999
Info: NONBONDED TABLE R-SQUARED SPACING: 0.0625
Info: NONBONDED TABLE SIZE: 705 POINTS
TCL: Setting parameter alchLambda2 to 0.8499999999999999
Info: NONBONDED TABLE R-SQUARED SPACING: 0.0625
Info: NONBONDED TABLE SIZE: 705 POINTS
TCL: Running for 1500000 steps
ETITLE: TS BOND ANGLE DIHED IMPRP ELECT VDW BOUNDARY MISC KINETIC TOTAL TEMP POTENTIAL TOTALAVG TEMPAVG PRESSURE GPRESSURE VOLUME PRESSAVG GPRESSAVG
ENERGY: 0 2.5599 4.9100 35.7390 0.0000 -10471.4758 1324.0032 0.0000 0.0000 1720.4293 -7383.8345 295.4306 -9104.2637 -7383.8345 295.4306 -660.6071 -588.2027 30156.7346 -660.6071 -588.2027
ENERGY: 300000 1.9260 6.9175 30.5595 0.0000 -10606.4116 1477.4619 0.0000 0.0000 1779.7298 -7309.8168 305.6136 -9089.5465 -7385.6496 300.1112 569.6867 663.4566 29995.5536 31.5389 77.8239
ENERGY: 600000 2.4268 10.3729 27.4085 0.0000 -10623.1756 1409.5255 0.0000 0.0000 1758.3784 -7415.0636 301.9472 -9173.4419 -7390.5735 300.6269 -254.0329 -237.7418 30271.8083 -60.8869 -11.5150
ENERGY: 900000 1.4431 11.6693 30.5273 0.0000 -10587.2340 1453.6944 0.0000 0.0000 1733.9848 -7355.9151 297.7583 -9089.8999 -7383.1639 301.0339 398.0985 492.0009 30071.1633 -27.4615 27.3015
ENERGY: 1200000 0.5773 10.3722 29.3051 0.0000 -10572.9095 1360.2403 0.0000 0.0000 1800.1446 -7372.2699 309.1193 -9172.4146 -7389.3546 301.5585 -593.9596 -491.6856 30173.9219 -31.5865 27.8156
ENERGY: 1500000 1.8803 10.3633 30.3065 0.0000 -10471.9168 1382.3151 0.0000 0.0000 1730.7754 -7316.2760 297.2072 -9047.0515 -7385.3019 301.2009 59.7522 98.2933 30109.8132 -13.3877 42.5420
TCL: Running FEP window   4: Lambda1 0.8499999999999999 Lambda2 0.7999999999999998 [dLambda -0.050000000000000044]
TCL: Setting parameter firsttimestep to 0
TCL: Setting parameter alchLambda to 0.8499999999999999
Info: NONBONDED TABLE R-SQUARED SPACING: 0.0625
Info: NONBONDED TABLE SIZE: 705 POINTS
TCL: Setting parameter alchLambda2 to 0.7999999999999998
Info: NONBONDED TABLE R-SQUARED SPACING: 0.0625
Info: NONBONDED TABLE SIZE: 705 POINTS
TCL: Running for 1500000 steps
ETITLE: TS BOND ANGLE DIHED IMPRP ELECT VDW BOUNDARY MISC KINETIC TOTAL TEMP POTENTIAL TOTALAVG TEMPAVG PRESSURE GPRESSURE VOLUME PRESSAVG GPRESSAVG
ENERGY: 0 1.8803 10.3633 30.3065 0.0000 -10470.6963 1382.6638 0.0000 0.0000 1729.8888 -7315.5936 297.0550 -9045.4824 -7315.5936 297.0550 9.8314 98.1803 30109.8132 9.8314 98.1803
ENERGY: 300000 2.4346 7.0910 31.5696 0.0000 -10593.7484 1416.8720 0.0000 0.0000 1808.9803 -7326.8009 310.6365 -9135.7812 -7373.0175 301.8271 -117.0199 -48.9669 30287.6060 -334.4987 -250.4086
ENERGY: 600000 3.7579 6.8761 29.2656 0.0000 -10709.9469 1487.1881 0.0000 0.0000 1688.8871 -7493.9720 290.0142 -9182.8591 -7405.1737 298.4605 436.6212 509.6592 30014.1814 -230.4088 -156.7423
ENERGY: 900000 2.7859 12.0572 29.7109 0.0000 -10661.2501 1426.8313 0.0000 0.0000 1760.7981 -7429.0667 302.3627 -9189.8648 -7395.1591 299.9938 -263.1068 -155.9729 30170.3324 -222.7093 -150.3239
ENERGY: 1200000 0.8078 6.3394 31.2034 0.0000 -10642.6501 1418.2457 0.0000 0.0000 1715.9289 -7470.1249 294.6578 -9186.0539 -7403.7255 298.9889 -89.9442 -30.1685 29933.4701 -124.8774 -53.1664
ENERGY: 1500000 1.4898 8.3354 29.8689 0.0000 -10502.2912 1418.3571 0.0000 0.0000 1719.8975 -7324.3425 295.3393 -9044.2400 -7398.2588 298.3731 133.2628 181.8284 30479.4331 -152.0704 -75.8838
TCL: Running FEP window   5: Lambda1 0.7999999999999998 Lambda2 0.7499999999999998 [dLambda -0.050000000000000044]
TCL: Setting parameter firsttimestep to 0
TCL: Setting parameter alchLambda to 0.7999999999999998
Info: NONBONDED TABLE R-SQUARED SPACING: 0.0625
Info: NONBONDED TABLE SIZE: 705 POINTS
TCL: Setting parameter alchLambda2 to 0.7499999999999998
Info: NONBONDED TABLE R-SQUARED SPACING: 0.0625
Info: NONBONDED TABLE SIZE: 705 POINTS
TCL: Running for 1500000 steps
ETITLE: TS BOND ANGLE DIHED IMPRP ELECT VDW BOUNDARY MISC KINETIC TOTAL TEMP POTENTIAL TOTALAVG TEMPAVG PRESSURE GPRESSURE VOLUME PRESSAVG GPRESSAVG
ENERGY: 0 1.4898 8.3354 29.8689 0.0000 -10500.9179 1418.5090 0.0000 0.0000 1719.0549 -7323.6599 295.1946 -9042.7148 -7323.6599 295.1946 88.6035 174.0190 30479.4331 88.6035 174.0190
ENERGY: 300000 4.3286 7.9008 29.3115 0.0000 -10581.1336 1413.0248 0.0000 0.0000 1831.2283 -7295.3397 314.4569 -9126.5680 -7338.5612 300.5452 -89.3870 -63.0097 30468.6431 -165.3640 -130.4217
ENERGY: 600000 2.5534 9.1486 31.7782 0.0000 -10622.4977 1421.1998 0.0000 0.0000 1815.0383 -7342.7793 311.6768 -9157.8176 -7353.3275 301.5552 -349.6711 -264.2971 30899.2104 -193.6056 -152.8919
ENERGY: 900000 2.1150 9.2524 31.6918 0.0000 -10601.4877 1408.0989 0.0000 0.0000 1744.8236 -7405.5060 299.6196 -9150.3296 -7382.3128 299.7286 -119.2127 -48.6373 30196.6974 -54.7376 -2.7930
ENERGY: 1200000 1.6493 8.7991 28.5616 0.0000 -10497.6675 1379.8982 0.0000 0.0000 1731.1311 -7347.6282 297.2683 -9078.7593 -7389.5012 298.8425 -271.0811 -204.0940 30230.6095 0.8193 51.2909
ENERGY: 1500000 3.3079 8.6732 31.5043 0.0000 -10428.0901 1356.9451 0.0000 0.0000 1723.9308 -7303.7288 296.0319 -9027.6596 -7386.2967 298.4313 -63.6453 -7.2865 30030.9299 25.3775 80.0648
TCL: Running FEP window   6: Lambda1 0.7499999999999998 Lambda2 0.6999999999999997 [dLambda -0.050000000000000044]
TCL: Setting parameter firsttimestep to 0
TCL: Setting parameter alchLambda to 0.7499999999999998
Info: NONBONDED TABLE R-SQUARED SPACING: 0.0625
Info: NONBONDED TABLE SIZE: 705 POINTS
TCL: Setting parameter alchLambda2 to 0.6999999999999997
Info: NONBONDED TABLE R-SQUARED SPACING: 0.0625
Info: NONBONDED TABLE SIZE: 705 POINTS
TCL: Running for 1500000 steps
ETITLE: TS BOND ANGLE DIHED IMPRP ELECT VDW BOUNDARY MISC KINETIC TOTAL TEMP POTENTIAL TOTALAVG TEMPAVG PRESSURE GPRESSURE VOLUME PRESSAVG GPRESSAVG
ENERGY: 0 3.3080 8.6732 31.5043 0.0000 -10427.7425 1357.2024 0.0000 0.0000 1723.0553 -7303.9994 295.8815 -9027.0546 -7303.9994 295.8815 -101.0041 -13.9512 30030.9299 -101.0041 -13.9512
ENERGY: 300000 4.5958 6.8260 35.3438 0.0000 -10460.2409 1343.9508 0.0000 0.0000 1733.5659 -7335.9587 297.6864 -9069.5245 -7382.5325 297.7663 -468.3133 -415.4202 30299.3427 -76.7303 -26.4345
ENERGY: 600000 1.1763 9.1268 30.6381 0.0000 -10544.1812 1347.8685 0.0000 0.0000 1765.3581 -7390.0133 303.1458 -9155.3714 -7384.0318 299.5357 -861.6712 -821.6751 30625.8664 -110.7408 -52.0577
ENERGY: 900000 2.7865 9.7524 30.6817 0.0000 -10712.7006 1471.9553 0.0000 0.0000 1763.4070 -7434.1176 302.8107 -9197.5246 -7387.3178 300.0354 190.5395 246.1769 30118.4295 -48.8731 11.2207
ENERGY: 1200000 3.4278 9.8785 31.9628 0.0000 -10578.2650 1413.3168 0.0000 0.0000 1724.5245 -7395.1547 296.1338 -9119.6792 -7406.8372 298.0393 177.5146 305.9481 29638.5539 -18.8100 54.1101
ENERGY: 1500000 2.8341 4.7011 30.7550 0.0000 -10377.4876 1314.3255 0.0000 0.0000 1791.5288 -7233.3430 307.6398 -9024.8719 -7394.1578 298.4866 -589.9782 -583.9034 30561.9886 -51.0641 16.6806
TCL: Running FEP window   7: Lambda1 0.6999999999999997 Lambda2 0.6499999999999997 [dLambda -0.050000000000000044]
TCL: Setting parameter firsttimestep to 0
TCL: Setting parameter alchLambda to 0.6999999999999997
Info: NONBONDED TABLE R-SQUARED SPACING: 0.0625
Info: NONBONDED TABLE SIZE: 705 POINTS
TCL: Setting parameter alchLambda2 to 0.6499999999999997
Info: NONBONDED TABLE R-SQUARED SPACING: 0.0625
Info: NONBONDED TABLE SIZE: 705 POINTS
TCL: Running for 1500000 steps
ETITLE: TS BOND ANGLE DIHED IMPRP ELECT VDW BOUNDARY MISC KINETIC TOTAL TEMP POTENTIAL TOTALAVG TEMPAVG PRESSURE GPRESSURE VOLUME PRESSAVG GPRESSAVG
ENERGY: 0 2.8341 4.7011 30.7550 0.0000 -10376.2778 1313.9088 0.0000 0.0000 1790.6409 -7233.4379 307.4873 -9024.0788 -7233.4379 307.4873 -665.0830 -593.0163 30561.9886 -665.0830 -593.0163
ENERGY: 300000 0.6374 5.9810 30.6345 0.0000 -10466.5791 1312.2054 0.0000 0.0000 1729.3618 -7387.7590 296.9645 -9117.1208 -7331.0355 304.4502 -1042.2310 -970.5181 30632.5334 -447.2906 -362.9646
ENERGY: 600000 2.2747 10.6283 30.2112 0.0000 -10729.8630 1535.0122 0.0000 0.0000 1834.2059 -7317.5307 314.9682 -9151.7366 -7333.7654 303.5723 1187.1055 1235.9092 29686.6051 -168.2929 -91.5035
ENERGY: 900000 1.9960 9.1362 31.8185 0.0000 -10557.0416 1411.5624 0.0000 0.0000 1747.4842 -7355.0445 300.0765 -9102.5287 -7366.4911 300.4144 -150.1459 -89.9902 30238.7065 -223.8601 -145.5353
ENERGY: 1200000 1.7514 10.9140 30.4119 0.0000 -10712.7467 1452.4454 0.0000 0.0000 1703.8860 -7513.3380 292.5898 -9217.2240 -7374.2954 300.6197 44.7400 104.5260 29861.0266 -130.7535 -58.7309
ENERGY: 1500000 1.1231 11.3511 30.6706 0.0000 -10612.1711 1418.4633 0.0000 0.0000 1776.5837 -7373.9793 305.0734 -9150.5630 -7375.9050 300.9454 29.2607 7.3294 30224.6275 -92.4903 -25.1143
TCL: Running FEP window   8: Lambda1 0.6499999999999997 Lambda2 0.5999999999999996 [dLambda -0.050000000000000044]
TCL: Setting parameter firsttimestep to 0
TCL: Setting parameter alchLambda to 0.6499999999999997
Info: NONBONDED TABLE R-SQUARED SPACING: 0.0625
Info: NONBONDED TABLE SIZE: 705 POINTS
TCL: Setting parameter alchLambda2 to 0.5999999999999996
Info: NONBONDED TABLE R-SQUARED SPACING: 0.0625
Info: NONBONDED TABLE SIZE: 705 POINTS
TCL: Running for 1500000 steps
ETITLE: TS BOND ANGLE DIHED IMPRP ELECT VDW BOUNDARY MISC KINETIC TOTAL TEMP POTENTIAL TOTALAVG TEMPAVG PRESSURE GPRESSURE VOLUME PRESSAVG GPRESSAVG
ENERGY: 0 1.1231 11.3511 30.6706 0.0000 -10611.7494 1418.3027 0.0000 0.0000 1775.6865 -7374.6155 304.9193 -9150.3020 -7374.6155 304.9193 -84.9563 -2.0684 30224.6275 -84.9563 -2.0684
ENERGY: 300000 1.6384 7.8086 35.5709 0.0000 -10580.3145 1417.6951 0.0000 0.0000 1732.8888 -7384.7127 297.5701 -9117.6015 -7373.6791 299.9269 -6.1145 12.6683 30323.7041 -481.8967 -441.5053
ENERGY: 600000 3.0516 10.1748 29.5287 0.0000 -10612.4412 1382.5351 0.0000 0.0000 1757.1024 -7430.0487 301.7281 -9187.1510 -7384.4318 300.1883 -326.4948 -279.0782 29792.7441 -365.4204 -325.8001
ENERGY: 900000 1.1192 9.4114 29.0838 0.0000 -10576.5272 1451.4479 0.0000 0.0000 1729.4397 -7356.0253 296.9779 -9085.4650 -7383.7995 300.2033 359.5807 391.5508 30176.7547 -174.3430 -129.6292
ENERGY: 1200000 3.0327 10.1448 31.9171 0.0000 -10481.6052 1368.7117 0.0000 0.0000 1752.7195 -7315.0794 300.9755 -9067.7989 -7377.5197 300.8516 -411.3286 -343.4233 30472.7621 -143.6112 -91.2308
ENERGY: 1500000 1.5217 5.4103 32.2530 0.0000 -10629.9372 1466.3110 0.0000 0.0000 1750.9977 -7373.4434 300.6798 -9124.4411 -7378.9160 301.5609 -121.3875 -2.0418 30910.9358 -127.4767 -69.2267
TCL: Running FEP window   9: Lambda1 0.5999999999999996 Lambda2 0.5499999999999996 [dLambda -0.050000000000000044]
TCL: Setting parameter firsttimestep to 0
TCL: Setting parameter alchLambda to 0.5999999999999996
Info: NONBONDED TABLE R-SQUARED SPACING: 0.0625
Info: NONBONDED TABLE SIZE: 705 POINTS
TCL: Setting parameter alchLambda2 to 0.5499999999999996
Info: NONBONDED TABLE R-SQUARED SPACING: 0.0625
Info: NONBONDED TABLE SIZE: 705 POINTS
TCL: Running for 1500000 steps
ETITLE: TS BOND ANGLE DIHED IMPRP ELECT VDW BOUNDARY MISC KINETIC TOTAL TEMP POTENTIAL TOTALAVG TEMPAVG PRESSURE GPRESSURE VOLUME PRESSAVG GPRESSAVG
ENERGY: 0 1.5217 5.4103 32.2530 0.0000 -10630.0083 1466.7463 0.0000 0.0000 1750.1150 -7373.9620 300.5282 -9124.0770 -7373.9620 300.5282 -100.5554 -5.1127 30910.9358 -100.5554 -5.1127
ENERGY: 300000 2.2481 9.4461 30.1335 0.0000 -10591.7258 1375.3266 0.0000 0.0000 1748.9852 -7425.5861 300.3342 -9174.5714 -7396.4177 300.4090 -411.6534 -370.7355 30167.5389 -278.9401 -201.1574
ENERGY: 600000 1.3842 8.2259 31.9013 0.0000 -10563.0116 1418.7219 0.0000 0.0000 1774.5760 -7328.2023 304.7286 -9102.7784 -7357.2329 302.6271 -181.3497 -14.7472 30158.5927 -291.2625 -204.4858
ENERGY: 900000 2.1094 9.6826 31.3668 0.0000 -10562.1026 1413.4603 0.0000 0.0000 1739.3517 -7366.1317 298.6800 -9105.4834 -7368.3029 300.7954 -135.8900 -81.2132 30349.4400 -211.0449 -136.7408
ENERGY: 1200000 2.2005 6.5846 32.5379 0.0000 -10610.0361 1452.8846 0.0000 0.0000 1745.6753 -7370.1534 299.7658 -9115.8286 -7379.1606 299.5525 125.1746 145.9768 30261.3024 -183.0728 -116.1143
ENERGY: 1500000 1.8901 6.7152 32.2201 0.0000 -10725.4920 1475.0545 0.0000 0.0000 1725.6389 -7483.9733 296.3252 -9209.6122 -7377.2630 299.4819 284.9649 338.9691 29968.7566 -194.0280 -126.9176
TCL: Running FEP window  10: Lambda1 0.5499999999999996 Lambda2 0.4999999999999996 [dLambda -0.04999999999999999]
TCL: Setting parameter firsttimestep to 0
TCL: Setting parameter alchLambda to 0.5499999999999996
Info: NONBONDED TABLE R-SQUARED SPACING: 0.0625
Info: NONBONDED TABLE SIZE: 705 POINTS
TCL: Setting parameter alchLambda2 to 0.4999999999999996
Info: NONBONDED TABLE R-SQUARED SPACING: 0.0625
Info: NONBONDED TABLE SIZE: 705 POINTS
TCL: Running for 1500000 steps
ETITLE: TS BOND ANGLE DIHED IMPRP ELECT VDW BOUNDARY MISC KINETIC TOTAL TEMP POTENTIAL TOTALAVG TEMPAVG PRESSURE GPRESSURE VOLUME PRESSAVG GPRESSAVG
ENERGY: 0 1.8901 6.7152 32.2201 0.0000 -10725.3767 1474.6021 0.0000 0.0000 1724.7326 -7485.2167 296.1696 -9209.9493 -7485.2167 296.1696 259.7626 324.8246 29968.7566 259.7626 324.8246
ENERGY: 300000 1.3381 14.7758 29.7453 0.0000 -10550.6065 1398.9701 0.0000 0.0000 1726.8979 -7378.8793 296.5414 -9105.7773 -7431.0841 296.5282 -191.3922 -119.9584 30103.0593 -61.3002 11.2718
ENERGY: 600000 2.3295 5.3975 30.2906 0.0000 -10588.5808 1367.0379 0.0000 0.0000 1719.5724 -7463.9530 295.2835 -9183.5254 -7430.3945 295.7845 -863.6200 -846.6666 30340.2962 -82.4297 -35.3272
ENERGY: 900000 4.6242 9.4289 29.3559 0.0000 -10579.4010 1399.1688 0.0000 0.0000 1768.9793 -7367.8439 303.7676 -9136.8232 -7406.2323 297.3580 -12.3862 51.2861 29591.2864 -132.8878 -81.3049
ENERGY: 1200000 2.7885 9.0748 30.7298 0.0000 -10593.2637 1382.9365 0.0000 0.0000 1796.7933 -7370.9409 308.5438 -9167.7341 -7394.2434 299.1431 -268.9115 -204.0787 30114.2879 -134.1682 -76.9432
ENERGY: 1500000 4.8185 7.3005 30.0126 0.0000 -10695.5657 1461.9901 0.0000 0.0000 1728.9839 -7462.4600 296.8996 -9191.4439 -7391.9935 299.6015 53.2748 84.6625 30024.8428 -121.7102 -68.2084
TCL: Running FEP window  11: Lambda1 0.4999999999999996 Lambda2 0.4499999999999996 [dLambda -0.04999999999999999]
TCL: Setting parameter firsttimestep to 0
TCL: Setting parameter alchLambda to 0.4999999999999996
Info: NONBONDED TABLE R-SQUARED SPACING: 0.0625
Info: NONBONDED TABLE SIZE: 705 POINTS
TCL: Setting parameter alchLambda2 to 0.4499999999999996
Info: NONBONDED TABLE R-SQUARED SPACING: 0.0625
Info: NONBONDED TABLE SIZE: 705 POINTS
TCL: Running for 1500000 steps
ETITLE: TS BOND ANGLE DIHED IMPRP ELECT VDW BOUNDARY MISC KINETIC TOTAL TEMP POTENTIAL TOTALAVG TEMPAVG PRESSURE GPRESSURE VOLUME PRESSAVG GPRESSAVG
ENERGY: 0 4.8185 7.3005 30.0126 0.0000 -10694.7622 1461.9797 0.0000 0.0000 1728.1048 -7462.5462 296.7486 -9190.6510 -7462.5462 296.7486 -7.9725 80.8471 30024.8428 -7.9725 80.8471
ENERGY: 300000 2.5430 10.1489 31.6461 0.0000 -10613.9527 1428.8216 0.0000 0.0000 1726.8785 -7413.9147 296.5381 -9140.7932 -7404.4667 298.5680 10.0744 91.2831 30153.3216 -223.6362 -157.5413
ENERGY: 600000 5.6291 11.6586 30.6534 0.0000 -10715.4943 1522.0080 0.0000 0.0000 1728.2318 -7417.3134 296.7704 -9145.5451 -7395.7371 298.8402 586.7082 645.6332 30195.1577 -114.5470 -41.3603
ENERGY: 900000 0.4453 12.6133 28.4435 0.0000 -10592.0198 1410.6427 0.0000 0.0000 1782.6460 -7357.2290 306.1144 -9139.8750 -7407.1135 298.9549 -16.5307 8.8928 30014.9279 -84.8976 -21.9509
ENERGY: 1200000 0.7669 2.7862 31.9922 0.0000 -10542.1673 1374.1198 0.0000 0.0000 1689.4993 -7443.0028 290.1193 -9132.5021 -7409.3448 297.8108 -481.1413 -392.3805 30282.6447 -20.9325 31.2749
ENERGY: 1500000 1.3338 11.0606 29.1092 0.0000 -10592.6301 1396.1812 0.0000 0.0000 1777.1286 -7377.8166 305.1670 -9154.9453 -7404.7159 298.5170 2.0624 2.1043 29728.2972 -87.9693 -28.9688
TCL: Running FEP window  12: Lambda1 0.4499999999999996 Lambda2 0.39999999999999963 [dLambda -0.04999999999999999]
TCL: Setting parameter firsttimestep to 0
TCL: Setting parameter alchLambda to 0.4499999999999996
Info: NONBONDED TABLE R-SQUARED SPACING: 0.0625
Info: NONBONDED TABLE SIZE: 705 POINTS
TCL: Setting parameter alchLambda2 to 0.39999999999999963
Info: NONBONDED TABLE R-SQUARED SPACING: 0.0625
Info: NONBONDED TABLE SIZE: 705 POINTS
TCL: Running for 1500000 steps
ETITLE: TS BOND ANGLE DIHED IMPRP ELECT VDW BOUNDARY MISC KINETIC TOTAL TEMP POTENTIAL TOTALAVG TEMPAVG PRESSURE GPRESSURE VOLUME PRESSAVG GPRESSAVG
ENERGY: 0 1.3338 11.0606 29.1092 0.0000 -10592.6302 1396.5707 0.0000 0.0000 1776.2771 -7378.2788 305.0207 -9154.5559 -7378.2788 305.0207 -81.9095 -5.0804 29728.2972 -81.9095 -5.0804
ENERGY: 300000 1.6969 7.9044 30.9688 0.0000 -10619.9870 1416.7106 0.0000 0.0000 1792.4192 -7370.2870 307.7927 -9162.7063 -7402.9500 301.2972 -54.4706 12.9481 29771.6804 -140.2470 -66.9821
ENERGY: 600000 2.5341 7.8695 31.0117 0.0000 -10618.7818 1456.6930 0.0000 0.0000 1741.1656 -7379.5079 298.9914 -9120.6734 -7389.7554 300.7413 39.6525 144.8540 30436.7116 -252.0983 -173.2583
ENERGY: 900000 1.9741 9.0561 27.4210 0.0000 -10555.8995 1428.0542 0.0000 0.0000 1700.5798 -7388.8144 292.0221 -9089.3942 -7390.1051 299.3875 -26.8092 44.5678 30472.0693 -129.6198 -51.0443
ENERGY: 1200000 1.1997 9.3305 31.3712 0.0000 -10528.1582 1359.1227 0.0000 0.0000 1768.0797 -7359.0544 303.6131 -9127.1341 -7385.2870 300.1073 -591.9999 -464.9583 30119.0359 -128.6865 -37.2031
ENERGY: 1500000 3.4847 5.0289 31.1530 0.0000 -10666.2166 1453.3561 0.0000 0.0000 1711.3750 -7461.8189 293.8758 -9173.1939 -7393.1396 299.4499 105.2516 130.1585 29915.9680 -109.0701 -21.2974
TCL: Running FEP window  13: Lambda1 0.39999999999999963 Lambda2 0.34999999999999964 [dLambda -0.04999999999999999]
TCL: Setting parameter firsttimestep to 0
TCL: Setting parameter alchLambda to 0.39999999999999963
Info: NONBONDED TABLE R-SQUARED SPACING: 0.0625
Info: NONBONDED TABLE SIZE: 705 POINTS
TCL: Setting parameter alchLambda2 to 0.34999999999999964
Info: NONBONDED TABLE R-SQUARED SPACING: 0.0625
Info: NONBONDED TABLE SIZE: 705 POINTS
TCL: Running for 1500000 steps
ETITLE: TS BOND ANGLE DIHED IMPRP ELECT VDW BOUNDARY MISC KINETIC TOTAL TEMP POTENTIAL TOTALAVG TEMPAVG PRESSURE GPRESSURE VOLUME PRESSAVG GPRESSAVG
ENERGY: 0 3.4847 5.0289 31.1530 0.0000 -10666.2168 1453.8281 0.0000 0.0000 1710.4611 -7462.2609 293.7189 -9172.7220 -7462.2609 293.7189 35.5576 126.8341 29915.9680 35.5576 126.8341
ENERGY: 300000 2.1339 5.5573 30.4405 0.0000 -10726.1216 1528.7561 0.0000 0.0000 1781.5502 -7377.6837 305.9262 -9159.2338 -7413.5893 300.2479 898.4442 920.4837 29947.6551 -7.0373 60.1000
ENERGY: 600000 5.9300 6.3103 31.6897 0.0000 -10672.4143 1474.0403 0.0000 0.0000 1749.5652 -7404.8788 300.4338 -9154.4440 -7407.8106 300.1733 415.7130 466.8650 29979.8298 29.1127 87.2774
ENERGY: 900000 1.7199 10.6644 31.7220 0.0000 -10653.1036 1458.1794 0.0000 0.0000 1791.2830 -7359.5348 307.5975 -9150.8178 -7396.4405 301.1689 144.8202 200.9245 30078.0635 18.7608 71.0742
ENERGY: 1200000 1.0974 7.4578 30.1518 0.0000 -10600.6398 1405.3367 0.0000 0.0000 1693.4611 -7463.1350 290.7997 -9156.5961 -7407.6372 299.3920 -607.6329 -512.9345 30564.9763 81.0568 132.3759
ENERGY: 1500000 2.0535 7.9831 30.1689 0.0000 -10502.9534 1345.2882 0.0000 0.0000 1754.4938 -7362.9660 301.2801 -9117.4599 -7403.1468 300.4984 -410.2580 -366.3687 29882.6693 29.4679 90.5259
TCL: Running FEP window  14: Lambda1 0.34999999999999964 Lambda2 0.29999999999999966 [dLambda -0.04999999999999999]
TCL: Setting parameter firsttimestep to 0
TCL: Setting parameter alchLambda to 0.34999999999999964
Info: NONBONDED TABLE R-SQUARED SPACING: 0.0625
Info: NONBONDED TABLE SIZE: 705 POINTS
TCL: Setting parameter alchLambda2 to 0.29999999999999966
Info: NONBONDED TABLE R-SQUARED SPACING: 0.0625
Info: NONBONDED TABLE SIZE: 705 POINTS
TCL: Running for 1500000 steps
ETITLE: TS BOND ANGLE DIHED IMPRP ELECT VDW BOUNDARY MISC KINETIC TOTAL TEMP POTENTIAL TOTALAVG TEMPAVG PRESSURE GPRESSURE VOLUME PRESSAVG GPRESSAVG
ENERGY: 0 2.0535 7.9831 30.1689 0.0000 -10502.9525 1345.1525 0.0000 0.0000 1753.5832 -7364.0114 301.1238 -9117.5946 -7364.0114 301.1238 -454.6517 -371.6379 29882.6693 -454.6517 -371.6379
ENERGY: 300000 4.5321 6.7514 32.6626 0.0000 -10688.6568 1459.4601 0.0000 0.0000 1764.4745 -7420.7762 302.9940 -9185.2507 -7364.6057 299.8378 -63.7510 -11.6876 30175.9143 30.4615 124.3224
ENERGY: 600000 2.0753 8.6890 32.8136 0.0000 -10514.9240 1392.2219 0.0000 0.0000 1785.3181 -7293.8061 306.5733 -9079.1243 -7353.7348 299.6207 -113.5451 -69.2688 30056.1917 61.8104 139.0146
ENERGY: 900000 1.7074 9.4105 27.8324 0.0000 -10704.1375 1415.8669 0.0000 0.0000 1731.4341 -7517.8862 297.3204 -9249.3203 -7367.7369 299.8838 -380.9311 -290.1913 29775.3460 -123.4549 -52.1889
ENERGY: 1200000 0.9251 5.8201 32.4273 0.0000 -10615.6839 1420.6404 0.0000 0.0000 1680.1092 -7475.7619 288.5069 -9155.8710 -7376.2648 298.6201 -124.2887 -62.7448 30168.1206 -180.5147 -110.8802
ENERGY: 1500000 2.0337 10.3204 30.7697 0.0000 -10657.8737 1487.6245 0.0000 0.0000 1767.8606 -7359.2648 303.5755 -9127.1254 -7379.3787 299.0369 505.0333 595.2120 29990.0283 -111.3822 -35.8073
TCL: Running FEP window  15: Lambda1 0.29999999999999966 Lambda2 0.24999999999999967 [dLambda -0.04999999999999999]
TCL: Setting parameter firsttimestep to 0
TCL: Setting parameter alchLambda to 0.29999999999999966
Info: NONBONDED TABLE R-SQUARED SPACING: 0.0625
Info: NONBONDED TABLE SIZE: 705 POINTS
TCL: Setting parameter alchLambda2 to 0.24999999999999967
Info: NONBONDED TABLE R-SQUARED SPACING: 0.0625
Info: NONBONDED TABLE SIZE: 705 POINTS
TCL: Running for 1500000 steps
ETITLE: TS BOND ANGLE DIHED IMPRP ELECT VDW BOUNDARY MISC KINETIC TOTAL TEMP POTENTIAL TOTALAVG TEMPAVG PRESSURE GPRESSURE VOLUME PRESSAVG GPRESSAVG
ENERGY: 0 2.0337 10.3204 30.7697 0.0000 -10657.8730 1487.8485 0.0000 0.0000 1767.0248 -7359.8759 303.4320 -9126.9007 -7359.8759 303.4320 489.2769 591.6821 29990.0283 489.2769 591.6821
ENERGY: 300000 3.3437 5.4833 33.0516 0.0000 -10614.4086 1433.8644 0.0000 0.0000 1703.1882 -7435.4774 292.4700 -9138.6657 -7383.9143 297.9370 -282.3918 -185.1082 30411.5737 167.2103 225.7627
ENERGY: 600000 1.0540 8.0097 32.7128 0.0000 -10643.6305 1400.4300 0.0000 0.0000 1802.3739 -7399.0501 309.5021 -9201.4240 -7385.0803 301.4432 -276.1581 -145.3961 29759.2658 188.8945 257.4037
ENERGY: 900000 2.0892 11.4198 29.2473 0.0000 -10603.7421 1412.1964 0.0000 0.0000 1714.8262 -7433.9631 294.4685 -9148.7894 -7400.0850 300.8445 -332.7994 -291.1571 30223.6129 36.7774 110.3309
ENERGY: 1200000 4.9091 11.1300 34.1532 0.0000 -10533.3766 1368.0682 0.0000 0.0000 1783.9439 -7331.1722 306.3373 -9115.1161 -7391.2471 300.6334 -521.7193 -456.6459 30255.8249 -46.7703 22.5794
ENERGY: 1500000 1.3636 11.9215 30.7060 0.0000 -10797.4239 1521.3794 0.0000 0.0000 1691.5008 -7540.5526 290.4630 -9232.0535 -7407.1927 300.1065 638.9865 679.6500 29489.6891 7.8866 75.2916
TCL: Running FEP window  16: Lambda1 0.24999999999999967 Lambda2 0.19999999999999968 [dLambda -0.04999999999999999]
TCL: Setting parameter firsttimestep to 0
TCL: Setting parameter alchLambda to 0.24999999999999967
Info: NONBONDED TABLE R-SQUARED SPACING: 0.0625
Info: NONBONDED TABLE SIZE: 705 POINTS
TCL: Setting parameter alchLambda2 to 0.19999999999999968
Info: NONBONDED TABLE R-SQUARED SPACING: 0.0625
Info: NONBONDED TABLE SIZE: 705 POINTS
TCL: Running for 1500000 steps
ETITLE: TS BOND ANGLE DIHED IMPRP ELECT VDW BOUNDARY MISC KINETIC TOTAL TEMP POTENTIAL TOTALAVG TEMPAVG PRESSURE GPRESSURE VOLUME PRESSAVG GPRESSAVG
ENERGY: 0 1.3636 11.9215 30.7060 0.0000 -10797.4237 1521.6816 0.0000 0.0000 1690.6460 -7541.1051 290.3162 -9231.7511 -7541.1051 290.3162 588.0247 676.3645 29489.6891 588.0247 676.3645
ENERGY: 300000 3.0993 5.4615 31.8098 0.0000 -10553.3245 1423.8281 0.0000 0.0000 1741.1868 -7347.9389 298.9951 -9089.1257 -7400.9111 295.9770 80.8705 71.7042 30098.5437 423.6713 476.2687
ENERGY: 600000 2.1635 8.5442 30.0646 0.0000 -10580.5070 1504.5281 0.0000 0.0000 1757.9513 -7277.2552 301.8739 -9035.2065 -7367.6942 298.1959 765.1384 839.1048 30213.2765 325.4800 385.0792
ENERGY: 900000 2.1686 4.5769 30.6098 0.0000 -10652.1356 1445.8598 0.0000 0.0000 1712.6096 -7456.3109 294.0878 -9168.9205 -7380.2728 299.2188 -43.4368 34.8017 30174.0873 120.4206 179.0900
ENERGY: 1200000 2.1339 11.0703 32.6701 0.0000 -10469.4953 1376.3448 0.0000 0.0000 1737.2392 -7310.0369 298.3172 -9047.2761 -7373.7738 299.8330 -3.0092 54.4201 29884.6977 -1.1360 52.0081
ENERGY: 1500000 1.9338 9.3622 31.1218 0.0000 -10431.6356 1300.1340 0.0000 0.0000 1768.3920 -7320.6919 303.6667 -9089.0839 -7381.2975 300.6323 -1031.2243 -975.3040 30437.3407 -42.7485 5.6280
TCL: Running FEP window  17: Lambda1 0.19999999999999968 Lambda2 0.1499999999999997 [dLambda -0.04999999999999999]
TCL: Setting parameter firsttimestep to 0
TCL: Setting parameter alchLambda to 0.19999999999999968
Info: NONBONDED TABLE R-SQUARED SPACING: 0.0625
Info: NONBONDED TABLE SIZE: 705 POINTS
TCL: Setting parameter alchLambda2 to 0.1499999999999997
Info: NONBONDED TABLE R-SQUARED SPACING: 0.0625
Info: NONBONDED TABLE SIZE: 705 POINTS
TCL: Running for 1500000 steps
ETITLE: TS BOND ANGLE DIHED IMPRP ELECT VDW BOUNDARY MISC KINETIC TOTAL TEMP POTENTIAL TOTALAVG TEMPAVG PRESSURE GPRESSURE VOLUME PRESSAVG GPRESSAVG
ENERGY: 0 1.9338 9.3622 31.1218 0.0000 -10431.6350 1300.1662 0.0000 0.0000 1767.5483 -7321.5028 303.5218 -9089.0510 -7321.5028 303.5218 -1047.3194 -978.6585 30437.3407 -1047.3194 -978.6585
ENERGY: 300000 3.2307 10.8987 30.7394 0.0000 -10808.0721 1594.6120 0.0000 0.0000 1703.9773 -7464.6141 292.6055 -9168.5914 -7377.1762 298.2798 1505.6329 1561.2982 29441.4698 190.0062 262.6509
ENERGY: 600000 3.8827 12.3552 27.6573 0.0000 -10608.6810 1496.1307 0.0000 0.0000 1780.1363 -7288.5188 305.6834 -9068.6551 -7385.8569 299.6535 479.5984 482.4708 30230.4261 163.4725 222.7600
ENERGY: 900000 1.3966 8.1194 31.0741 0.0000 -10513.4081 1405.8373 0.0000 0.0000 1793.0585 -7273.9221 307.9024 -9066.9807 -7384.2064 300.6545 -169.8228 -107.7893 30326.8485 19.2888 79.9761
ENERGY: 1200000 3.0546 7.7556 32.5026 0.0000 -10470.0842 1360.0346 0.0000 0.0000 1724.5846 -7342.1522 296.1442 -9066.7368 -7390.4574 299.3174 -253.3007 -167.1960 29833.8002 -120.6230 -55.9479
ENERGY: 1500000 2.8104 4.0480 30.4926 0.0000 -10676.4285 1493.2391 0.0000 0.0000 1747.2645 -7398.5739 300.0387 -9145.8384 -7390.4825 300.1124 687.1716 671.3749 29588.0077 -15.4609 42.3038
TCL: Running FEP window  18: Lambda1 0.1499999999999997 Lambda2 0.09999999999999969 [dLambda -0.05 ]
TCL: Setting parameter firsttimestep to 0
TCL: Setting parameter alchLambda to 0.1499999999999997
Info: NONBONDED TABLE R-SQUARED SPACING: 0.0625
Info: NONBONDED TABLE SIZE: 705 POINTS
TCL: Setting parameter alchLambda2 to 0.09999999999999969
Info: NONBONDED TABLE R-SQUARED SPACING: 0.0625
Info: NONBONDED TABLE SIZE: 705 POINTS
TCL: Running for 1500000 steps
ETITLE: TS BOND ANGLE DIHED IMPRP ELECT VDW BOUNDARY MISC KINETIC TOTAL TEMP POTENTIAL TOTALAVG TEMPAVG PRESSURE GPRESSURE VOLUME PRESSAVG GPRESSAVG
ENERGY: 0 2.8104 4.0480 30.4926 0.0000 -10676.4269 1492.7950 0.0000 0.0000 1746.4102 -7399.8707 299.8920 -9146.2809 -7399.8707 299.8920 584.4902 667.4853 29588.0077 584.4902 667.4853
ENERGY: 300000 1.4012 8.0761 30.2782 0.0000 -10817.4656 1533.8270 0.0000 0.0000 1700.8800 -7543.0031 292.0736 -9243.8831 -7435.4102 298.5192 811.5113 836.8990 29399.9032 513.2842 562.8399
ENERGY: 600000 2.0360 7.8279 29.1401 0.0000 -10610.8720 1488.9910 0.0000 0.0000 1764.0358 -7318.8412 302.9187 -9082.8770 -7406.1931 299.4762 701.2295 799.6867 30052.6874 380.1812 437.3909
ENERGY: 900000 0.9344 8.5161 30.7558 0.0000 -10595.9106 1369.5026 0.0000 0.0000 1767.8986 -7418.3031 303.5820 -9186.2018 -7411.9230 298.6177 -497.0323 -436.4193 29765.0491 288.7131 347.8997
ENERGY: 1200000 1.4523 11.3025 30.6774 0.0000 -10606.0448 1484.0575 0.0000 0.0000 1755.0057 -7323.5495 301.3680 -9078.5552 -7403.4406 299.0142 473.9067 554.7491 30324.9604 211.0357 277.6425
ENERGY: 1500000 2.3819 9.0222 30.3475 0.0000 -10714.7770 1509.0938 0.0000 0.0000 1765.9580 -7397.9736 303.2488 -9163.9316 -7410.2416 298.8789 701.5152 773.3310 29748.6181 194.1424 262.1967
TCL: Running FEP window  19: Lambda1 0.09999999999999969 Lambda2 0.049999999999999684 [dLambda -0.05 ]
TCL: Setting parameter firsttimestep to 0
TCL: Setting parameter alchLambda to 0.09999999999999969
Info: NONBONDED TABLE R-SQUARED SPACING: 0.0625
Info: NONBONDED TABLE SIZE: 705 POINTS
TCL: Setting parameter alchLambda2 to 0.049999999999999684
Info: NONBONDED TABLE R-SQUARED SPACING: 0.0625
Info: NONBONDED TABLE SIZE: 705 POINTS
TCL: Running for 1500000 steps
ETITLE: TS BOND ANGLE DIHED IMPRP ELECT VDW BOUNDARY MISC KINETIC TOTAL TEMP POTENTIAL TOTALAVG TEMPAVG PRESSURE GPRESSURE VOLUME PRESSAVG GPRESSAVG
ENERGY: 0 2.3819 9.0222 30.3475 0.0000 -10714.7778 1509.2155 0.0000 0.0000 1765.1180 -7398.6928 303.1045 -9163.8108 -7398.6928 303.1045 697.1691 771.2459 29748.6181 697.1691 771.2459
ENERGY: 300000 1.1825 5.5691 30.3116 0.0000 -10643.1865 1430.5796 0.0000 0.0000 1756.5517 -7418.9921 301.6335 -9175.5437 -7363.6705 305.1797 -272.1771 -165.2788 30420.9019 181.6454 269.5165
ENERGY: 600000 2.2835 9.5611 30.3295 0.0000 -10686.7162 1470.3429 0.0000 0.0000 1706.8897 -7467.3094 293.1056 -9174.1992 -7360.8501 302.8684 292.3466 296.1981 29731.4772 131.0588 204.5142
ENERGY: 900000 2.2652 9.3184 31.7014 0.0000 -10709.0121 1511.6458 0.0000 0.0000 1737.3306 -7416.7507 298.3329 -9154.0813 -7353.7018 303.8718 701.3237 749.5951 29432.5273 243.9840 308.0417
ENERGY: 1200000 1.0012 9.8069 28.3947 0.0000 -10546.5882 1350.4033 0.0000 0.0000 1690.5263 -7466.4557 290.2957 -9156.9821 -7362.8616 302.4666 -896.6565 -748.1029 29969.0086 111.5618 174.6598
ENERGY: 1500000 1.6722 9.3345 31.6951 0.0000 -10492.7516 1392.8604 0.0000 0.0000 1740.6864 -7316.5029 298.9091 -9057.1893 -7364.4525 301.4893 1.8053 24.4450 30313.8064 119.7395 182.6576
TCL: Running FEP window  20: Lambda1 0.049999999999999684 Lambda2 0.0    [dLambda -0.049999999999999684]
TCL: Setting parameter firsttimestep to 0
TCL: Setting parameter alchLambda to 0.049999999999999684
Info: NONBONDED TABLE R-SQUARED SPACING: 0.0625
Info: NONBONDED TABLE SIZE: 705 POINTS
TCL: Setting parameter alchLambda2 to 0.0
Info: NONBONDED TABLE R-SQUARED SPACING: 0.0625
Info: NONBONDED TABLE SIZE: 705 POINTS
TCL: Running for 1500000 steps
ETITLE: TS BOND ANGLE DIHED IMPRP ELECT VDW BOUNDARY MISC KINETIC TOTAL TEMP POTENTIAL TOTALAVG TEMPAVG PRESSURE GPRESSURE VOLUME PRESSAVG GPRESSAVG
ENERGY: 0 1.6722 9.3345 31.6951 0.0000 -10492.7516 1393.1958 0.0000 0.0000 1739.7977 -7317.0562 298.7565 -9056.8539 -7317.0562 298.7565 -45.2821 23.1740 30313.8064 -45.2821 23.1740
ENERGY: 300000 1.9692 7.2887 30.8616 0.0000 -10561.5152 1415.4402 0.0000 0.0000 1790.7226 -7315.2330 307.5013 -9105.9556 -7352.8759 302.8537 0.0861 39.9909 29896.5276 1.3242 60.2564
ENERGY: 600000 2.5972 5.9975 31.3300 0.0000 -10524.4716 1402.9828 0.0000 0.0000 1727.6833 -7353.8807 296.6763 -9081.5640 -7361.3087 301.0640 -449.1948 -421.7699 30698.8173 50.0050 93.0223
ENERGY: 900000 2.3381 6.9560 30.4533 0.0000 -10572.6777 1425.9812 0.0000 0.0000 1758.9253 -7348.0239 302.0411 -9106.9491 -7345.5297 302.3164 468.5666 365.0586 29597.4736 187.4946 215.5309
ENERGY: 1200000 3.1677 10.6412 27.2873 0.0000 -10492.8796 1328.7874 0.0000 0.0000 1716.0672 -7406.9288 294.6816 -9122.9960 -7359.8110 301.8270 -795.5568 -721.7592 30002.5474 43.7739 75.1413
ENERGY: 1500000 0.5730 5.9505 28.9689 0.0000 -10585.1130 1449.1292 0.0000 0.0000 1748.1350 -7352.3563 300.1882 -9100.4913 -7360.9375 302.1475 156.9420 225.0763 30088.4757 44.2897 86.6124
TCL: Exiting due to exit command.
