Info: SIMULATION PARAMETERS:
Info: TIMESTEP               2
Info: NUMBER OF STEPS        0
Info: STEPS PER CYCLE        10
Info: PERIODIC CELL BASIS 1  31.6558 0 0
Info: PERIODIC CELL BASIS 2  0 30.0769 0
Info: PERIODIC CELL BASIS 3  0 0 32.267
Info: PERIODIC CELL CENTER   0 0 0
Info: WRAPPING WATERS AROUND PERIODIC BOUNDARIES ON OUTPUT.
Info: WRAPPING ALL CLUSTERS AROUND PERIODIC BOUNDARIES ON OUTPUT.
Info: FIRST LDB TIMESTEP     50
Info: LAST LDB TIMESTEP     -1
Info: HOM BACKGROUND SCALING 1
Info: PME BACKGROUND SCALING 1
Info: MIN ATOMS PER PATCH    40
Info: EMPTY PATCH LOAD       40 ATOMS
Info: VELOCITY FILE          mobley_3053621_equil.vel
Info: CENTER OF MASS MOVING INITIALLY? NO
Info: DIELECTRIC             1
Info: EXCLUDE                SCALED ONE-FOUR
Info: 1-4 ELECTROSTATICS SCALED BY 0.833333
Info: MODIFIED 1-4 VDW PARAMETERS WILL BE USED
Info: DCD FILENAME           mobley_3053621_prod.dcd
Info: DCD FREQUENCY          100000
Info: DCD FIRST STEP         100000
Info: DCD FILE WILL CONTAIN UNIT CELL DATA
Info: XST FILENAME           mobley_3053621_prod.xst
Info: XST FREQUENCY          100000
Info: NO VELOCITY DCD OUTPUT
Info: NO FORCE DCD OUTPUT
Info: OUTPUT FILENAME        mobley_3053621_prod
Info: BINARY OUTPUT FILES WILL BE USED
Info: RESTART FILENAME       mobley_3053621_prod.restart
Info: RESTART FREQUENCY      100000
Info: BINARY RESTART FILES WILL BE USED
Info: CUTOFF                 9
Info: PAIRLIST DISTANCE      11
Info: PAIRLIST SHRINK RATE   0.01
Info: PAIRLIST GROW RATE     0.01
Info: PAIRLIST TRIGGER       0.3
Info: PAIRLISTS PER CYCLE    2
Info: PAIRLISTS ENABLED
Info: MARGIN                 2
Info: HYDROGEN GROUP CUTOFF  2.5
Info: PATCH DIMENSION        15.5
Info: ENERGY OUTPUT STEPS    100000
Info: ENERGY EVALUATION STEPS    100000
Info: OUTPUT ENERGY PRECISION 4
Info: CROSSTERM ENERGY INCLUDED IN DIHEDRAL
Info: TIMING OUTPUT STEPS    1000000
Info: PRESSURE OUTPUT STEPS  100000
Info: ALCHEMICAL FEP ON
Info: FEP CURRENT LAMBDA VALUE     1
Info: FEP COMPARISON LAMBDA VALUE  0.95
Info: FEP INTRA-ALCHEMICAL NON-BONDED INTERACTIONS WILL BE RETAINED
Info: FEP INTRA-ALCHEMICAL BONDED INTERACTIONS WILL BE RETAINED
Info: FEP VDW SHIFTING COEFFICIENT 5
Info: FEP ELEC. ACTIVE FOR ANNIHILATED PARTICLES BETWEEN LAMBDA = 0 AND LAMBDA = 0.5
Info: FEP ELEC. ACTIVE FOR EXNIHILATED PARTICLES BETWEEN LAMBDA = 0.5 AND LAMBDA = 1
Info: FEP VDW ACTIVE FOR ANNIHILATED PARTICLES BETWEEN LAMBDA = 0 AND LAMBDA = 1
Info: FEP VDW ACTIVE FOR EXNIHILATED PARTICLES BETWEEN LAMBDA = 0 AND LAMBDA = 1
Info: FEP BOND ACTIVE FOR ANNIHILATED PARTICLES BETWEEN LAMBDA = 1 AND LAMBDA = 1
Info: FEP BOND ACTIVE FOR EXNIHILATED PARTICLES BETWEEN LAMBDA = 0 AND LAMBDA = 0
Info: LANGEVIN DYNAMICS ACTIVE
Info: LANGEVIN TEMPERATURE   300
Info: LANGEVIN USING BBK INTEGRATOR
Info: LANGEVIN DAMPING COEFFICIENT IS 1 INVERSE PS
Info: LANGEVIN DYNAMICS APPLIED TO HYDROGENS
Info: LANGEVIN PISTON PRESSURE CONTROL ACTIVE
Info:        TARGET PRESSURE IS 1.01325 BAR
Info:     OSCILLATION PERIOD IS 50 FS
Info:             DECAY TIME IS 25 FS
Info:     PISTON TEMPERATURE IS 300 K
Info:       PRESSURE CONTROL IS GROUP-BASED
Info:    INITIAL STRAIN RATE IS 0.0003359 0.0003359 0.0003359
Info:       CELL FLUCTUATION IS ISOTROPIC
Info: PARTICLE MESH EWALD (PME) ACTIVE
Info: PME TOLERANCE               1e-06
Info: PME EWALD COEFFICIENT       0.348832
Info: PME INTERPOLATION ORDER     4
Info: PME GRID DIMENSIONS         32 32 36
Info: PME MAXIMUM GRID SPACING    1
Info: PME CALCULATION WILL BE PERFORMED ON GPU
Info: FULL ELECTROSTATIC EVALUATION FREQUENCY      2
Info: USING VERLET I (r-RESPA) MTS SCHEME.
Info: C1 SPLITTING OF LONG RANGE ELECTROSTATICS
Info: PLACING ATOMS IN PATCHES BY HYDROGEN GROUPS
Info: RIGID BONDS TO HYDROGEN : ALL
Info:         ERROR TOLERANCE : 1e-08
Info:          MAX ITERATIONS : 100
Info: RIGID WATER USING SETTLE ALGORITHM
Info: RANDOM NUMBER SEED     1742170494
Info: USE HYDROGEN BONDS?    NO
Info: Using AMBER format force field!
Info: AMBER PARM FILE        mobley_3053621.prmtop
Info: COORDINATE PDB         mobley_3053621.pdb
Info: Exclusions will be read from PARM file!
Info: SCNB (VDW SCALING)     2
Info: USING ARITHMETIC MEAN TO COMBINE L-J SIGMA PARAMETERS
Info: BINARY COORDINATES     mobley_3053621_equil.coor
Info: SUMMARY OF PARAMETERS:
Info: 4 BONDS
Info: 2 ANGLES
Info:   2 HARMONIC
Info:   0 COSINE-BASED
Info: 2 DIHEDRAL
Info: 0 IMPROPER
Info: 0 CROSSTERM
Info: 0 VDW
Info: 10 VDW_PAIRS
Info: 0 NBTHOLE_PAIRS
Info: To read alchdata from file: mobley_3053621.pdb
Info: To read alchflag data from column: 5
Info: STRUCTURE SUMMARY:
Info: 2976 ATOMS
Info: 2976 BONDS
Info: 18 ANGLES
Info: 30 DIHEDRALS
Info: 0 IMPROPERS
Info: 0 CROSSTERMS
Info: 3015 EXCLUSIONS
Info: 2970 RIGID BONDS
Info: ALCH: 0 ATOMS TO DISAPPEAR IN FINAL STATE
Info: ALCH: 12 ATOMS TO APPEAR IN FINAL STATE
Info: 5958 DEGREES OF FREEDOM
Info: 994 HYDROGEN GROUPS
Info: 3 ATOMS IN LARGEST HYDROGEN GROUP
Info: 994 MIGRATION GROUPS
Info: 3 ATOMS IN LARGEST MIGRATION GROUP
Info: TOTAL MASS = 17877.9 amu
Info: TOTAL CHARGE = -0.000100002 e
Info: MASS DENSITY = 0.966342 g/cm^3
Info: ATOM DENSITY = 0.0968696 atoms/A^3
Info: ADDED 0 IMPLICIT EXCLUSIONS
Info: NONBONDED TABLE R-SQUARED SPACING: 0.0625
Info: NONBONDED TABLE SIZE: 705 POINTS
Info: REMOVING COM VELOCITY 0.172457 0.154857 -0.0440523
Info: Use 3D box decompostion in PME FFT.
Info: Updated CUDA force table with 4096 elements.
Info: Updated CUDA LJ table with 4 x 4 elements.
Info: Found 11 unique exclusion lists needing 20 bytes
TCL: Running for 1500000 steps
ETITLE: TS BOND ANGLE DIHED IMPRP ELECT VDW BOUNDARY MISC KINETIC TOTAL TEMP POTENTIAL TOTALAVG TEMPAVG PRESSURE GPRESSURE VOLUME PRESSAVG GPRESSAVG
ENERGY: 0 2.9794 1.5866 2.4637 0.0000 -10673.7880 1397.8801 0.0000 0.0000 1764.3914 -7504.4867 298.0471 -9268.8782 -7504.4867 298.0471 -260.9979 -181.5960 30721.7077 -260.9979 -181.5960
ENERGY: 300000 0.9696 1.4998 1.5020 0.0000 -10661.6956 1404.2240 0.0000 0.0000 1785.4772 -7468.0231 301.6089 -9253.5003 -7514.9463 300.6290 -318.7689 -260.6975 31305.0166 -166.2909 -84.7335
ENERGY: 600000 1.7081 2.9808 2.8665 0.0000 -10709.1681 1400.1863 0.0000 0.0000 1744.0703 -7557.3562 294.6143 -9301.4264 -7542.4238 299.1477 -431.9683 -358.9867 31221.1798 -91.3667 -2.4807
ENERGY: 900000 0.9608 2.2126 1.0073 0.0000 -10763.8203 1473.1962 0.0000 0.0000 1751.8468 -7534.5967 295.9280 -9286.4435 -7543.6644 298.0944 -235.9920 -151.1749 31384.5832 -101.1169 -20.0527
ENERGY: 1200000 0.7597 2.7445 1.7280 0.0000 -10959.1583 1582.1345 0.0000 0.0000 1706.5551 -7665.2365 288.2771 -9371.7916 -7552.6157 297.2862 873.3338 870.9330 30616.4744 -41.4943 33.4523
ENERGY: 1500000 0.5792 1.9930 2.8280 0.0000 -10808.4017 1499.6172 0.0000 0.0000 1756.2955 -7547.0888 296.6795 -9303.3843 -7551.8035 297.9468 406.9383 487.8435 30694.2624 -32.4659 43.6768
TCL: Running FEP window   2: Lambda1 0.95   Lambda2 0.8999999999999999 [dLambda -0.050000000000000044]
TCL: Setting parameter firsttimestep to 0
TCL: Setting parameter alchLambda to 0.95
Info: NONBONDED TABLE R-SQUARED SPACING: 0.0625
Info: NONBONDED TABLE SIZE: 705 POINTS
TCL: Setting parameter alchLambda2 to 0.8999999999999999
Info: NONBONDED TABLE R-SQUARED SPACING: 0.0625
Info: NONBONDED TABLE SIZE: 705 POINTS
TCL: Running for 1500000 steps
ETITLE: TS BOND ANGLE DIHED IMPRP ELECT VDW BOUNDARY MISC KINETIC TOTAL TEMP POTENTIAL TOTALAVG TEMPAVG PRESSURE GPRESSURE VOLUME PRESSAVG GPRESSAVG
ENERGY: 0 0.5792 1.9930 2.8280 0.0000 -10807.7727 1499.9643 0.0000 0.0000 1755.4298 -7546.9783 296.5332 -9302.4081 -7546.9783 296.5332 411.5816 482.7537 30694.2624 411.5816 482.7537
ENERGY: 300000 1.2367 2.1711 1.1644 0.0000 -10857.6161 1533.0584 0.0000 0.0000 1781.6253 -7538.3602 300.9582 -9319.9855 -7526.0408 300.3590 683.9829 778.7893 30408.8951 133.0101 232.1064
ENERGY: 600000 3.2145 1.8853 2.5319 0.0000 -10808.5902 1460.3050 0.0000 0.0000 1753.2456 -7587.4080 296.1643 -9340.6536 -7538.4095 302.1764 25.3633 76.9182 30521.9098 343.9030 415.7982
ENERGY: 900000 0.2774 1.3787 2.7956 0.0000 -10615.2365 1394.2979 0.0000 0.0000 1743.8301 -7472.6567 294.5738 -9216.4868 -7544.7180 300.1018 -89.8944 -53.1241 30781.6392 241.3893 306.7491
ENERGY: 1200000 2.6275 1.3628 2.8042 0.0000 -10817.1131 1430.6963 0.0000 0.0000 1819.6059 -7560.0164 307.3741 -9379.6223 -7543.3932 300.6695 -153.9796 -189.3676 30611.6500 133.9624 186.1583
ENERGY: 1500000 2.4394 4.3962 1.3357 0.0000 -10857.2064 1507.2880 0.0000 0.0000 1767.3935 -7574.3536 298.5542 -9341.7471 -7548.7331 300.6550 290.5510 359.7347 30616.8356 119.7740 177.6126
TCL: Running FEP window   3: Lambda1 0.8999999999999999 Lambda2 0.8499999999999999 [dLambda -0.050000000000000044]
TCL: Setting parameter firsttimestep to 0
TCL: Setting parameter alchLambda to 0.8999999999999999
Info: NONBONDED TABLE R-SQUARED SPACING: 0.0625
Info: NONBONDED TABLE SIZE: 705 POINTS
TCL: Setting parameter alchLambda2 to 0.8499999999999999
Info: NONBONDED TABLE R-SQUARED SPACING: 0.0625
Info: NONBONDED TABLE SIZE: 705 POINTS
TCL: Running for 1500000 steps
ETITLE: TS BOND ANGLE DIHED IMPRP ELECT VDW BOUNDARY MISC KINETIC TOTAL TEMP POTENTIAL TOTALAVG TEMPAVG PRESSURE GPRESSURE VOLUME PRESSAVG GPRESSAVG
ENERGY: 0 2.4394 4.3962 1.3357 0.0000 -10856.8821 1507.5711 0.0000 0.0000 1766.4849 -7574.6547 298.4007 -9341.1396 -7574.6547 298.4007 277.6167 359.1864 30616.8356 277.6167 359.1864
ENERGY: 300000 1.3713 0.8212 2.3530 0.0000 -10615.3316 1343.1471 0.0000 0.0000 1777.0210 -7490.6180 300.1805 -9267.6390 -7557.8396 300.0555 -590.8747 -530.6229 30506.3138 -46.0311 10.6249
ENERGY: 600000 0.6782 3.2640 1.0376 0.0000 -10750.0190 1386.4066 0.0000 0.0000 1744.6526 -7613.9801 294.7127 -9358.6326 -7572.7719 299.1364 -642.6912 -599.5790 30989.3009 -170.0550 -113.0013
ENERGY: 900000 1.8805 3.0831 1.5077 0.0000 -10745.7139 1416.2604 0.0000 0.0000 1750.6197 -7572.3626 295.7207 -9322.9823 -7559.2724 300.1801 -531.2313 -462.6402 31165.3669 -183.4811 -124.6643
ENERGY: 1200000 1.4019 4.5889 5.1261 0.0000 -10720.9636 1357.3454 0.0000 0.0000 1784.1662 -7568.3351 301.3875 -9352.5013 -7562.0409 300.1229 -582.9532 -559.2885 30624.7408 -161.0583 -99.9685
ENERGY: 1500000 1.1685 3.5847 1.5857 0.0000 -10715.6375 1419.2701 0.0000 0.0000 1778.6244 -7511.4042 300.4513 -9290.0285 -7552.8110 300.7356 -318.3643 -239.6988 30795.9468 -93.6397 -28.2355
TCL: Running FEP window   4: Lambda1 0.8499999999999999 Lambda2 0.7999999999999998 [dLambda -0.050000000000000044]
TCL: Setting parameter firsttimestep to 0
TCL: Setting parameter alchLambda to 0.8499999999999999
Info: NONBONDED TABLE R-SQUARED SPACING: 0.0625
Info: NONBONDED TABLE SIZE: 705 POINTS
TCL: Setting parameter alchLambda2 to 0.7999999999999998
Info: NONBONDED TABLE R-SQUARED SPACING: 0.0625
Info: NONBONDED TABLE SIZE: 705 POINTS
TCL: Running for 1500000 steps
ETITLE: TS BOND ANGLE DIHED IMPRP ELECT VDW BOUNDARY MISC KINETIC TOTAL TEMP POTENTIAL TOTALAVG TEMPAVG PRESSURE GPRESSURE VOLUME PRESSAVG GPRESSAVG
ENERGY: 0 1.1685 3.5847 1.5857 0.0000 -10714.8372 1418.5494 0.0000 0.0000 1777.7295 -7512.2193 300.3002 -9289.9488 -7512.2193 300.3002 -337.3686 -255.0330 30795.9468 -337.3686 -255.0330
ENERGY: 300000 2.3119 1.5167 2.4099 0.0000 -10666.5314 1424.5960 0.0000 0.0000 1831.4186 -7404.2783 309.3695 -9235.6969 -7510.6108 300.1906 25.2538 66.4204 30963.7217 -196.6385 -105.8840
ENERGY: 600000 1.1644 2.8061 1.7977 0.0000 -10831.2949 1473.5895 0.0000 0.0000 1777.6310 -7574.3064 300.2835 -9351.9374 -7527.4966 300.0098 116.5191 199.2237 30435.6117 -107.6773 -24.3583
ENERGY: 900000 1.0290 1.9315 3.5522 0.0000 -10694.5366 1357.5402 0.0000 0.0000 1736.9315 -7593.5522 293.4084 -9330.4837 -7533.5972 299.7977 -738.3953 -703.9661 30767.1187 -122.6495 -54.0753
ENERGY: 1200000 1.2420 1.7031 3.7899 0.0000 -10792.2453 1454.8307 0.0000 0.0000 1766.6859 -7563.9937 298.4346 -9330.6796 -7541.0798 300.1044 -9.8422 59.1320 30675.5402 -103.7132 -46.0557
ENERGY: 1500000 1.7692 2.6372 1.4217 0.0000 -10694.5015 1415.2004 0.0000 0.0000 1724.6546 -7548.8184 291.3346 -9273.4731 -7540.8720 299.7062 -122.5763 -55.7361 30708.1814 -105.7927 -45.0921
TCL: Running FEP window   5: Lambda1 0.7999999999999998 Lambda2 0.7499999999999998 [dLambda -0.050000000000000044]
TCL: Setting parameter firsttimestep to 0
TCL: Setting parameter alchLambda to 0.7999999999999998
Info: NONBONDED TABLE R-SQUARED SPACING: 0.0625
Info: NONBONDED TABLE SIZE: 705 POINTS
TCL: Setting parameter alchLambda2 to 0.7499999999999998
Info: NONBONDED TABLE R-SQUARED SPACING: 0.0625
Info: NONBONDED TABLE SIZE: 705 POINTS
TCL: Running for 1500000 steps
ETITLE: TS BOND ANGLE DIHED IMPRP ELECT VDW BOUNDARY MISC KINETIC TOTAL TEMP POTENTIAL TOTALAVG TEMPAVG PRESSURE GPRESSURE VOLUME PRESSAVG GPRESSAVG
ENERGY: 0 1.7692 2.6372 1.4217 0.0000 -10694.1503 1415.0136 0.0000 0.0000 1723.7736 -7549.5350 291.1857 -9273.3085 -7549.5350 291.1857 -160.8610 -67.4801 30708.1814 -160.8610 -67.4801
ENERGY: 300000 1.7354 1.8891 2.1001 0.0000 -10805.6897 1452.6100 0.0000 0.0000 1762.4780 -7584.8771 297.7238 -9347.3551 -7587.0948 295.4830 -44.7341 1.5544 30426.2832 191.7049 257.6597
ENERGY: 600000 2.1290 1.7777 2.4674 0.0000 -10802.7565 1447.3843 0.0000 0.0000 1804.0466 -7544.9516 304.7457 -9348.9981 -7574.9778 298.6751 -75.9338 10.6448 30486.3266 77.2900 135.5787
ENERGY: 900000 2.1268 3.1434 2.8865 0.0000 -10883.5118 1533.6182 0.0000 0.0000 1803.0009 -7538.7360 304.5691 -9341.7369 -7563.6078 300.1430 395.5493 421.9092 30829.0215 185.1509 235.3378
ENERGY: 1200000 1.5068 3.1561 2.1030 0.0000 -10878.8792 1540.5683 0.0000 0.0000 1771.5573 -7559.9877 299.2575 -9331.5450 -7559.6838 299.9492 520.7245 650.1537 30628.6383 105.4570 163.7908
ENERGY: 1500000 1.3136 2.7769 3.1639 0.0000 -10926.3931 1539.2509 0.0000 0.0000 1774.1662 -7605.7216 299.6982 -9379.8878 -7552.6885 300.0748 572.6243 659.6130 30380.7946 51.7427 116.1486
TCL: Running FEP window   6: Lambda1 0.7499999999999998 Lambda2 0.6999999999999997 [dLambda -0.050000000000000044]
TCL: Setting parameter firsttimestep to 0
TCL: Setting parameter alchLambda to 0.7499999999999998
Info: NONBONDED TABLE R-SQUARED SPACING: 0.0625
Info: NONBONDED TABLE SIZE: 705 POINTS
TCL: Setting parameter alchLambda2 to 0.6999999999999997
Info: NONBONDED TABLE R-SQUARED SPACING: 0.0625
Info: NONBONDED TABLE SIZE: 705 POINTS
TCL: Running for 1500000 steps
ETITLE: TS BOND ANGLE DIHED IMPRP ELECT VDW BOUNDARY MISC KINETIC TOTAL TEMP POTENTIAL TOTALAVG TEMPAVG PRESSURE GPRESSURE VOLUME PRESSAVG GPRESSAVG
ENERGY: 0 1.3136 2.7769 3.1639 0.0000 -10925.6898 1539.0754 0.0000 0.0000 1773.2937 -7606.0664 299.5508 -9379.3601 -7606.0664 299.5508 565.3969 650.2761 30380.7946 565.3969 650.2761
ENERGY: 300000 2.0932 3.3352 0.8450 0.0000 -10924.9446 1598.4554 0.0000 0.0000 1769.2923 -7550.9235 298.8749 -9320.2158 -7565.2842 299.0393 1211.3492 1250.3582 30295.8670 368.4369 426.7877
ENERGY: 600000 1.0193 2.9369 2.2974 0.0000 -10719.9987 1434.0511 0.0000 0.0000 1767.7736 -7511.9204 298.6184 -9279.6940 -7538.7216 298.9895 -129.0826 -98.7759 30955.8057 170.6647 228.1336
ENERGY: 900000 1.4242 0.6885 2.9201 0.0000 -10770.3675 1401.7999 0.0000 0.0000 1771.4032 -7592.1316 299.2315 -9363.5348 -7547.7918 297.9911 -504.4932 -450.3167 30659.1103 128.1183 189.6348
ENERGY: 1200000 2.7290 2.5046 4.6389 0.0000 -10726.8486 1451.7395 0.0000 0.0000 1744.6611 -7520.5757 294.7141 -9265.2367 -7548.6593 297.4943 53.4419 142.2040 31099.4759 19.4569 89.4736
ENERGY: 1500000 2.1429 1.4441 3.6284 0.0000 -10935.8284 1502.8237 0.0000 0.0000 1789.1312 -7636.6581 302.2262 -9425.7892 -7545.1152 298.2058 87.6579 102.3206 30571.2565 97.8442 157.9367
TCL: Running FEP window   7: Lambda1 0.6999999999999997 Lambda2 0.6499999999999997 [dLambda -0.050000000000000044]
TCL: Setting parameter firsttimestep to 0
TCL: Setting parameter alchLambda to 0.6999999999999997
Info: NONBONDED TABLE R-SQUARED SPACING: 0.0625
Info: NONBONDED TABLE SIZE: 705 POINTS
TCL: Setting parameter alchLambda2 to 0.6499999999999997
Info: NONBONDED TABLE R-SQUARED SPACING: 0.0625
Info: NONBONDED TABLE SIZE: 705 POINTS
TCL: Running for 1500000 steps
ETITLE: TS BOND ANGLE DIHED IMPRP ELECT VDW BOUNDARY MISC KINETIC TOTAL TEMP POTENTIAL TOTALAVG TEMPAVG PRESSURE GPRESSURE VOLUME PRESSAVG GPRESSAVG
ENERGY: 0 2.1429 1.4441 3.6284 0.0000 -10935.0873 1502.8562 0.0000 0.0000 1788.2630 -7636.7526 302.0795 -9425.0156 -7636.7526 302.0795 5.4040 96.2348 30571.2565 5.4040 96.2348
ENERGY: 300000 1.5798 1.0279 2.8920 0.0000 -10712.8263 1422.7580 0.0000 0.0000 1796.3023 -7488.2663 303.4375 -9284.5686 -7579.8312 300.2065 -124.1238 -46.8631 30876.0596 -337.7840 -274.5152
ENERGY: 600000 1.6702 1.1800 2.8245 0.0000 -10855.5459 1490.2959 0.0000 0.0000 1758.8809 -7600.6945 297.1162 -9359.5754 -7581.1651 298.8101 32.4610 54.4282 30839.9816 -212.3842 -159.3127
ENERGY: 900000 6.3599 2.5657 2.4245 0.0000 -10727.9546 1375.6791 0.0000 0.0000 1842.6596 -7498.2658 311.2684 -9340.9254 -7551.3686 302.0568 -907.7273 -784.2272 30650.8255 -211.9188 -152.7388
ENERGY: 1200000 1.3396 0.6452 2.6035 0.0000 -10790.5581 1392.1536 0.0000 0.0000 1769.0519 -7624.7643 298.8343 -9393.8163 -7573.5828 300.4852 -526.6522 -439.9875 30465.4662 -297.5107 -239.6562
ENERGY: 1500000 1.0869 1.7591 4.2188 0.0000 -10797.5041 1444.9939 0.0000 0.0000 1762.2929 -7583.1524 297.6926 -9345.4453 -7573.4164 299.6341 -198.5539 -174.0704 30994.2153 -291.2340 -240.0836
TCL: Running FEP window   8: Lambda1 0.6499999999999997 Lambda2 0.5999999999999996 [dLambda -0.050000000000000044]
TCL: Setting parameter firsttimestep to 0
TCL: Setting parameter alchLambda to 0.6499999999999997
Info: NONBONDED TABLE R-SQUARED SPACING: 0.0625
Info: NONBONDED TABLE SIZE: 705 POINTS
TCL: Setting parameter alchLambda2 to 0.5999999999999996
Info: NONBONDED TABLE R-SQUARED SPACING: 0.0625
Info: NONBONDED TABLE SIZE: 705 POINTS
TCL: Running for 1500000 steps
ETITLE: TS BOND ANGLE DIHED IMPRP ELECT VDW BOUNDARY MISC KINETIC TOTAL TEMP POTENTIAL TOTALAVG TEMPAVG PRESSURE GPRESSURE VOLUME PRESSAVG GPRESSAVG
ENERGY: 0 1.0869 1.7591 4.2188 0.0000 -10797.4434 1445.2512 0.0000 0.0000 1761.4133 -7583.7141 297.5440 -9345.1274 -7583.7141 297.5440 -251.4210 -176.8296 30994.2153 -251.4210 -176.8296
ENERGY: 300000 1.7567 6.1334 2.5405 0.0000 -10834.1687 1458.4248 0.0000 0.0000 1699.9371 -7665.3763 287.1592 -9365.3134 -7592.3296 296.4089 -125.5816 -51.9802 30659.2702 -125.0920 -60.8996
ENERGY: 600000 0.3291 2.9834 2.7948 0.0000 -10788.5003 1463.0834 0.0000 0.0000 1777.9143 -7541.3954 300.3314 -9319.3096 -7563.2246 299.4910 -85.4965 19.8047 31006.4703 -102.2362 -38.4746
ENERGY: 900000 3.8938 2.1199 3.9858 0.0000 -10631.7178 1386.3496 0.0000 0.0000 1819.8028 -7415.5660 307.4073 -9235.3688 -7538.7028 301.1542 -399.8439 -344.1294 30906.7549 -145.9529 -88.9635
ENERGY: 1200000 3.6948 3.2107 2.7724 0.0000 -10738.9899 1464.7955 0.0000 0.0000 1766.3350 -7498.1816 298.3754 -9264.5166 -7541.0161 300.3278 -32.5115 65.6885 31038.8992 -174.0999 -116.8120
ENERGY: 1500000 5.1620 1.0006 2.7135 0.0000 -10968.0718 1581.7205 0.0000 0.0000 1723.7461 -7653.7290 291.1811 -9377.4751 -7557.3649 298.6128 1100.8976 1200.7385 29907.0093 -114.1629 -53.0875
TCL: Running FEP window   9: Lambda1 0.5999999999999996 Lambda2 0.5499999999999996 [dLambda -0.050000000000000044]
TCL: Setting parameter firsttimestep to 0
TCL: Setting parameter alchLambda to 0.5999999999999996
Info: NONBONDED TABLE R-SQUARED SPACING: 0.0625
Info: NONBONDED TABLE SIZE: 705 POINTS
TCL: Setting parameter alchLambda2 to 0.5499999999999996
Info: NONBONDED TABLE R-SQUARED SPACING: 0.0625
Info: NONBONDED TABLE SIZE: 705 POINTS
TCL: Running for 1500000 steps
ETITLE: TS BOND ANGLE DIHED IMPRP ELECT VDW BOUNDARY MISC KINETIC TOTAL TEMP POTENTIAL TOTALAVG TEMPAVG PRESSURE GPRESSURE VOLUME PRESSAVG GPRESSAVG
ENERGY: 0 5.1620 1.0006 2.7135 0.0000 -10967.9763 1581.4876 0.0000 0.0000 1722.8789 -7654.7336 291.0346 -9377.6126 -7654.7336 291.0346 1102.6836 1193.1436 29907.0093 1102.6836 1193.1436
ENERGY: 300000 2.0963 2.5193 3.9591 0.0000 -10790.8982 1472.8873 0.0000 0.0000 1763.7708 -7545.6656 297.9422 -9309.4363 -7538.1339 299.7048 222.1256 321.4260 30499.6707 441.1770 529.8144
ENERGY: 600000 2.6682 1.9611 3.2860 0.0000 -10842.8560 1498.7294 0.0000 0.0000 1763.2528 -7572.9585 297.8547 -9336.2113 -7553.1133 299.0464 349.1974 454.9053 30322.0201 261.1833 354.8329
ENERGY: 900000 1.1537 1.4897 1.5579 0.0000 -10759.8587 1447.4342 0.0000 0.0000 1725.7093 -7582.5139 291.5127 -9308.2232 -7555.5436 298.7482 -14.9504 50.7701 30662.0666 183.9370 265.1649
ENERGY: 1200000 1.6830 2.8103 1.1152 0.0000 -10835.3894 1462.4407 0.0000 0.0000 1857.8082 -7509.5321 313.8273 -9367.3403 -7546.7765 299.4686 -197.6373 -108.3696 30924.7171 96.1831 175.7657
ENERGY: 1500000 1.4941 4.7249 2.0413 0.0000 -10828.1080 1484.7686 0.0000 0.0000 1783.4916 -7551.5876 301.2735 -9335.0792 -7558.4517 298.1723 251.6575 317.3379 30472.3184 116.6866 193.1885
TCL: Running FEP window  10: Lambda1 0.5499999999999996 Lambda2 0.4999999999999996 [dLambda -0.04999999999999999]
TCL: Setting parameter firsttimestep to 0
TCL: Setting parameter alchLambda to 0.5499999999999996
Info: NONBONDED TABLE R-SQUARED SPACING: 0.0625
Info: NONBONDED TABLE SIZE: 705 POINTS
TCL: Setting parameter alchLambda2 to 0.4999999999999996
Info: NONBONDED TABLE R-SQUARED SPACING: 0.0625
Info: NONBONDED TABLE SIZE: 705 POINTS
TCL: Running for 1500000 steps
ETITLE: TS BOND ANGLE DIHED IMPRP ELECT VDW BOUNDARY MISC KINETIC TOTAL TEMP POTENTIAL TOTALAVG TEMPAVG PRESSURE GPRESSURE VOLUME PRESSAVG GPRESSAVG
ENERGY: 0 1.4941 4.7249 2.0413 0.0000 -10828.1061 1484.7689 0.0000 0.0000 1782.6250 -7552.4520 301.1271 -9335.0770 -7552.4520 301.1271 236.3485 313.5697 30472.3184 236.3485 313.5697
ENERGY: 300000 0.4769 4.6290 1.5949 0.0000 -10729.3653 1433.9090 0.0000 0.0000 1774.0513 -7514.7041 299.6788 -9288.7554 -7541.1303 300.1615 -6.7931 77.2272 30460.6949 -94.1453 -29.1520
ENERGY: 600000 1.2877 2.6562 2.2575 0.0000 -10805.8321 1505.6244 0.0000 0.0000 1721.6177 -7572.3887 290.8216 -9294.0064 -7539.2470 300.1456 301.7435 358.7029 30844.8189 8.6531 76.3310
ENERGY: 900000 3.7257 1.8355 3.6314 0.0000 -10763.9766 1452.8141 0.0000 0.0000 1768.1528 -7533.8170 298.6824 -9301.9698 -7540.8456 299.6927 52.7673 53.9577 30631.9948 116.2863 173.5422
ENERGY: 1200000 0.8906 1.6695 0.7959 0.0000 -10726.9497 1405.3077 0.0000 0.0000 1782.0609 -7536.2252 301.0318 -9318.2860 -7540.9705 300.5145 -564.4923 -492.9344 31160.3633 7.5584 68.8497
ENERGY: 1500000 2.4518 1.1649 3.5614 0.0000 -10776.1690 1411.1048 0.0000 0.0000 1785.1431 -7572.7431 301.5525 -9357.8862 -7528.8945 301.1525 -287.7422 -268.2115 30640.4794 40.5392 99.1107
TCL: Running FEP window  11: Lambda1 0.4999999999999996 Lambda2 0.4499999999999996 [dLambda -0.04999999999999999]
TCL: Setting parameter firsttimestep to 0
TCL: Setting parameter alchLambda to 0.4999999999999996
Info: NONBONDED TABLE R-SQUARED SPACING: 0.0625
Info: NONBONDED TABLE SIZE: 705 POINTS
TCL: Setting parameter alchLambda2 to 0.4499999999999996
Info: NONBONDED TABLE R-SQUARED SPACING: 0.0625
Info: NONBONDED TABLE SIZE: 705 POINTS
TCL: Running for 1500000 steps
ETITLE: TS BOND ANGLE DIHED IMPRP ELECT VDW BOUNDARY MISC KINETIC TOTAL TEMP POTENTIAL TOTALAVG TEMPAVG PRESSURE GPRESSURE VOLUME PRESSAVG GPRESSAVG
ENERGY: 0 2.4518 1.1649 3.5614 0.0000 -10776.0893 1411.3870 0.0000 0.0000 1784.2904 -7573.2339 301.4085 -9357.5243 -7573.2339 301.4085 -345.4933 -270.2564 30640.4794 -345.4933 -270.2564
ENERGY: 300000 0.8005 4.5829 4.1507 0.0000 -10750.3140 1463.3926 0.0000 0.0000 1752.2008 -7525.1864 295.9878 -9277.3872 -7556.8530 296.9891 165.2870 216.5727 30591.7195 367.7901 416.4482
ENERGY: 600000 1.6794 2.6470 4.8701 0.0000 -10808.5291 1522.0985 0.0000 0.0000 1824.1327 -7453.1014 308.1388 -9277.2342 -7526.0224 299.1640 555.6081 622.5075 30754.1840 159.7381 199.3855
ENERGY: 900000 1.8531 3.7147 2.1424 0.0000 -10896.8673 1512.3676 0.0000 0.0000 1805.3220 -7571.4674 304.9612 -9376.7894 -7534.9146 299.8865 447.8386 514.2449 30261.1424 129.3060 181.1360
ENERGY: 1200000 1.1582 2.7311 1.7940 0.0000 -10775.4770 1403.8010 0.0000 0.0000 1707.7024 -7658.2904 288.4709 -9365.9927 -7546.1798 299.2932 -497.8400 -419.1408 30470.7784 17.3891 72.6968
ENERGY: 1500000 0.9628 2.7591 2.6475 0.0000 -10660.4263 1366.2185 0.0000 0.0000 1761.6945 -7526.1439 297.5915 -9287.8384 -7542.6198 299.4907 -671.0335 -548.8499 30766.7841 -45.1889 19.2151
TCL: Running FEP window  12: Lambda1 0.4499999999999996 Lambda2 0.39999999999999963 [dLambda -0.04999999999999999]
TCL: Setting parameter firsttimestep to 0
TCL: Setting parameter alchLambda to 0.4499999999999996
Info: NONBONDED TABLE R-SQUARED SPACING: 0.0625
Info: NONBONDED TABLE SIZE: 705 POINTS
TCL: Setting parameter alchLambda2 to 0.39999999999999963
Info: NONBONDED TABLE R-SQUARED SPACING: 0.0625
Info: NONBONDED TABLE SIZE: 705 POINTS
TCL: Running for 1500000 steps
ETITLE: TS BOND ANGLE DIHED IMPRP ELECT VDW BOUNDARY MISC KINETIC TOTAL TEMP POTENTIAL TOTALAVG TEMPAVG PRESSURE GPRESSURE VOLUME PRESSAVG GPRESSAVG
ENERGY: 0 0.9628 2.7591 2.6475 0.0000 -10660.4254 1365.5550 0.0000 0.0000 1760.7573 -7527.7437 297.4332 -9288.5010 -7527.7437 297.4332 -629.0861 -558.5989 30766.7841 -629.0861 -558.5989
ENERGY: 300000 2.2353 1.2716 1.6881 0.0000 -10785.3269 1420.9674 0.0000 0.0000 1768.8938 -7590.2707 298.8076 -9359.1645 -7564.5068 297.4354 -295.3311 -298.8568 30469.8555 -453.7636 -440.7673
ENERGY: 600000 0.7803 5.0100 3.0316 0.0000 -10743.1544 1469.3035 0.0000 0.0000 1726.0850 -7538.9441 291.5762 -9265.0291 -7555.6423 295.8966 280.1962 285.1446 30483.3164 -60.8884 -27.6844
ENERGY: 900000 1.8541 2.2538 4.1740 0.0000 -10689.7697 1416.2631 0.0000 0.0000 1808.1936 -7457.0311 305.4463 -9265.2247 -7557.4364 296.4798 -240.4097 -200.2025 30853.8174 -86.4838 -42.6798
ENERGY: 1200000 0.8327 5.3666 1.4976 0.0000 -10835.7455 1470.9639 0.0000 0.0000 1796.7478 -7560.3369 303.5128 -9357.0846 -7563.2938 297.7379 104.8703 185.0357 30409.4374 -142.5791 -96.1566
ENERGY: 1500000 2.1569 3.5868 2.6727 0.0000 -10728.8746 1421.9363 0.0000 0.0000 1767.1664 -7531.3556 298.5158 -9298.5220 -7556.7772 298.3975 -345.5242 -268.2935 30721.9641 -160.9293 -117.5543
TCL: Running FEP window  13: Lambda1 0.39999999999999963 Lambda2 0.34999999999999964 [dLambda -0.04999999999999999]
TCL: Setting parameter firsttimestep to 0
TCL: Setting parameter alchLambda to 0.39999999999999963
Info: NONBONDED TABLE R-SQUARED SPACING: 0.0625
Info: NONBONDED TABLE SIZE: 705 POINTS
TCL: Setting parameter alchLambda2 to 0.34999999999999964
Info: NONBONDED TABLE R-SQUARED SPACING: 0.0625
Info: NONBONDED TABLE SIZE: 705 POINTS
TCL: Running for 1500000 steps
ETITLE: TS BOND ANGLE DIHED IMPRP ELECT VDW BOUNDARY MISC KINETIC TOTAL TEMP POTENTIAL TOTALAVG TEMPAVG PRESSURE GPRESSURE VOLUME PRESSAVG GPRESSAVG
ENERGY: 0 2.1569 3.5868 2.6727 0.0000 -10728.8736 1421.6007 0.0000 0.0000 1766.2864 -7532.5701 298.3672 -9298.8565 -7532.5701 298.3672 -355.8549 -275.1904 30721.9641 -355.8549 -275.1904
ENERGY: 300000 2.5356 5.5759 3.2094 0.0000 -10668.5257 1390.1034 0.0000 0.0000 1736.4012 -7530.7004 293.3188 -9267.1016 -7576.1199 295.3175 -567.4976 -531.1198 30979.8837 -225.1806 -173.6057
ENERGY: 600000 4.1511 3.5661 3.5113 0.0000 -10741.0671 1447.1858 0.0000 0.0000 1738.4904 -7544.1624 293.6718 -9282.6528 -7538.1010 297.8490 33.9073 121.9366 30422.1397 -217.2594 -148.1989
ENERGY: 900000 1.7756 2.0288 2.4068 0.0000 -10872.9008 1491.7880 0.0000 0.0000 1789.3685 -7585.5331 302.2663 -9374.9017 -7552.3411 299.1053 192.7185 235.2209 30454.8535 -254.0891 -192.4631
ENERGY: 1200000 1.0588 3.2788 2.2183 0.0000 -10590.8215 1367.5652 0.0000 0.0000 1821.7105 -7394.9899 307.7296 -9216.7004 -7547.7551 299.5080 -361.2521 -298.0937 30740.9967 -199.5112 -141.8112
ENERGY: 1500000 1.0536 3.9677 2.0039 0.0000 -10733.6642 1431.5164 0.0000 0.0000 1743.5256 -7551.5969 294.5223 -9295.1225 -7546.9850 298.8653 -320.0201 -230.1716 30741.4047 -171.1517 -112.1215
TCL: Running FEP window  14: Lambda1 0.34999999999999964 Lambda2 0.29999999999999966 [dLambda -0.04999999999999999]
TCL: Setting parameter firsttimestep to 0
TCL: Setting parameter alchLambda to 0.34999999999999964
Info: NONBONDED TABLE R-SQUARED SPACING: 0.0625
Info: NONBONDED TABLE SIZE: 705 POINTS
TCL: Setting parameter alchLambda2 to 0.29999999999999966
Info: NONBONDED TABLE R-SQUARED SPACING: 0.0625
Info: NONBONDED TABLE SIZE: 705 POINTS
TCL: Running for 1500000 steps
ETITLE: TS BOND ANGLE DIHED IMPRP ELECT VDW BOUNDARY MISC KINETIC TOTAL TEMP POTENTIAL TOTALAVG TEMPAVG PRESSURE GPRESSURE VOLUME PRESSAVG GPRESSAVG
ENERGY: 0 1.0536 3.9677 2.0039 0.0000 -10733.6639 1431.8485 0.0000 0.0000 1742.5756 -7552.2146 294.3618 -9294.7902 -7552.2146 294.3618 -307.8134 -231.0830 30741.4047 -307.8134 -231.0830
ENERGY: 300000 1.1255 3.5857 2.0225 0.0000 -10843.6483 1512.1775 0.0000 0.0000 1829.3392 -7495.3979 309.0183 -9324.7371 -7519.1135 302.9921 906.9689 915.4283 29864.0586 103.4388 147.4709
ENERGY: 600000 1.1941 2.4953 0.5226 0.0000 -10727.4257 1413.2106 0.0000 0.0000 1781.4510 -7528.5520 300.9288 -9310.0030 -7535.2822 301.2733 -47.4194 103.9681 30195.3448 60.3035 127.8142
ENERGY: 900000 0.9550 1.6592 2.5752 0.0000 -10765.7186 1412.4993 0.0000 0.0000 1812.6896 -7535.3404 306.2057 -9348.0300 -7542.0654 302.1951 -387.8036 -297.6799 30440.9160 28.0644 100.6068
ENERGY: 1200000 1.3376 2.9927 1.4086 0.0000 -10675.3727 1417.9428 0.0000 0.0000 1729.6709 -7522.0201 292.1819 -9251.6910 -7530.1434 301.2729 -109.3393 -60.1491 30563.2843 -89.4608 -15.3580
ENERGY: 1500000 2.9254 2.0331 1.7984 0.0000 -10725.3560 1428.7949 0.0000 0.0000 1740.0473 -7549.7569 293.9348 -9289.8042 -7540.7682 300.1203 -509.9885 -427.1344 31244.1446 -92.0798 -18.8606
TCL: Running FEP window  15: Lambda1 0.29999999999999966 Lambda2 0.24999999999999967 [dLambda -0.04999999999999999]
TCL: Setting parameter firsttimestep to 0
TCL: Setting parameter alchLambda to 0.29999999999999966
Info: NONBONDED TABLE R-SQUARED SPACING: 0.0625
Info: NONBONDED TABLE SIZE: 705 POINTS
TCL: Setting parameter alchLambda2 to 0.24999999999999967
Info: NONBONDED TABLE R-SQUARED SPACING: 0.0625
Info: NONBONDED TABLE SIZE: 705 POINTS
TCL: Running for 1500000 steps
ETITLE: TS BOND ANGLE DIHED IMPRP ELECT VDW BOUNDARY MISC KINETIC TOTAL TEMP POTENTIAL TOTALAVG TEMPAVG PRESSURE GPRESSURE VOLUME PRESSAVG GPRESSAVG
ENERGY: 0 2.9254 2.0331 1.7984 0.0000 -10725.3562 1428.6130 0.0000 0.0000 1739.1252 -7550.8611 293.7790 -9289.9863 -7550.8611 293.7790 -507.0869 -430.4286 31244.1446 -507.0869 -430.4286
ENERGY: 300000 1.2353 2.9935 2.2856 0.0000 -10820.0084 1456.2503 0.0000 0.0000 1783.5567 -7573.6870 301.2845 -9357.2437 -7546.9310 299.9777 -54.6340 10.1906 30688.7541 -407.2506 -346.1450
ENERGY: 600000 0.4321 3.5787 1.7419 0.0000 -10751.6729 1431.0334 0.0000 0.0000 1787.3084 -7527.5785 301.9183 -9314.8869 -7565.7692 298.0298 -282.9230 -212.7674 30831.6374 -391.5347 -331.5697
ENERGY: 900000 1.5571 2.7121 5.2030 0.0000 -10694.2406 1359.9619 0.0000 0.0000 1774.9642 -7549.8423 299.8330 -9324.8065 -7564.6527 298.8527 -985.7210 -878.0297 30795.0175 -372.8598 -312.5518
ENERGY: 1200000 1.0050 1.2052 2.4728 0.0000 -10685.1474 1433.2175 0.0000 0.0000 1753.4526 -7493.7943 296.1992 -9247.2469 -7567.3662 299.5588 -255.9288 -151.8702 31082.0569 -354.1700 -294.4394
ENERGY: 1500000 2.6765 2.7442 2.5077 0.0000 -10860.3564 1486.1567 0.0000 0.0000 1796.4064 -7569.8649 303.4551 -9366.2713 -7556.1954 300.3333 -12.4662 56.2984 30757.0552 -307.7229 -238.8049
TCL: Running FEP window  16: Lambda1 0.24999999999999967 Lambda2 0.19999999999999968 [dLambda -0.04999999999999999]
TCL: Setting parameter firsttimestep to 0
TCL: Setting parameter alchLambda to 0.24999999999999967
Info: NONBONDED TABLE R-SQUARED SPACING: 0.0625
Info: NONBONDED TABLE SIZE: 705 POINTS
TCL: Setting parameter alchLambda2 to 0.19999999999999968
Info: NONBONDED TABLE R-SQUARED SPACING: 0.0625
Info: NONBONDED TABLE SIZE: 705 POINTS
TCL: Running for 1500000 steps
ETITLE: TS BOND ANGLE DIHED IMPRP ELECT VDW BOUNDARY MISC KINETIC TOTAL TEMP POTENTIAL TOTALAVG TEMPAVG PRESSURE GPRESSURE VOLUME PRESSAVG GPRESSAVG
ENERGY: 0 2.6765 2.7442 2.5077 0.0000 -10860.3567 1486.2569 0.0000 0.0000 1795.5214 -7570.6499 303.3056 -9366.1713 -7570.6499 303.3056 -33.7117 52.6437 30757.0552 -33.7117 52.6437
ENERGY: 300000 1.3795 2.7937 3.5822 0.0000 -10712.3984 1431.5248 0.0000 0.0000 1749.0648 -7524.0534 295.4580 -9273.1182 -7520.1740 302.4018 -27.7761 4.9944 30691.8550 -99.9441 -42.3734
ENERGY: 600000 3.9851 1.6343 2.4806 0.0000 -10695.8705 1380.6326 0.0000 0.0000 1779.6464 -7527.4915 300.6240 -9307.1379 -7515.6068 302.2158 -791.2715 -669.4341 30890.1562 -383.2543 -326.7246
ENERGY: 900000 0.9402 2.6850 1.9614 0.0000 -10994.5868 1578.7563 0.0000 0.0000 1725.8042 -7684.4397 291.5288 -9410.2439 -7530.8006 301.9696 990.7464 1040.2574 29751.5555 -196.8257 -140.8096
ENERGY: 1200000 2.8578 1.5363 5.2217 0.0000 -10689.6365 1368.1255 0.0000 0.0000 1747.8535 -7564.0418 295.2534 -9311.8952 -7540.1474 300.2248 -682.0467 -660.6728 30520.2451 -216.6391 -161.8215
ENERGY: 1500000 1.5645 1.0821 5.2205 0.0000 -10798.1482 1488.9416 0.0000 0.0000 1742.1610 -7559.1786 294.2918 -9301.3396 -7548.7980 299.8619 259.7290 357.0786 30499.4029 -69.3612 -12.9244
TCL: Running FEP window  17: Lambda1 0.19999999999999968 Lambda2 0.1499999999999997 [dLambda -0.04999999999999999]
TCL: Setting parameter firsttimestep to 0
TCL: Setting parameter alchLambda to 0.19999999999999968
Info: NONBONDED TABLE R-SQUARED SPACING: 0.0625
Info: NONBONDED TABLE SIZE: 705 POINTS
TCL: Setting parameter alchLambda2 to 0.1499999999999997
Info: NONBONDED TABLE R-SQUARED SPACING: 0.0625
Info: NONBONDED TABLE SIZE: 705 POINTS
TCL: Running for 1500000 steps
ETITLE: TS BOND ANGLE DIHED IMPRP ELECT VDW BOUNDARY MISC KINETIC TOTAL TEMP POTENTIAL TOTALAVG TEMPAVG PRESSURE GPRESSURE VOLUME PRESSAVG GPRESSAVG
ENERGY: 0 1.5645 1.0821 5.2205 0.0000 -10798.1474 1488.4689 0.0000 0.0000 1741.2867 -7560.5247 294.1441 -9301.8114 -7560.5247 294.1441 253.7629 353.7359 30499.4029 253.7629 353.7359
ENERGY: 300000 1.7658 2.9670 1.8322 0.0000 -10797.5620 1443.7817 0.0000 0.0000 1776.1401 -7571.0751 300.0317 -9347.2152 -7557.4692 299.4054 -158.9455 -122.6092 30581.4512 -17.7619 35.1965
ENERGY: 600000 2.6580 3.0734 4.3218 0.0000 -10778.9447 1424.1056 0.0000 0.0000 1805.7173 -7539.0686 305.0280 -9344.7859 -7550.3204 301.4966 -344.6155 -284.0775 30744.0857 -259.1728 -198.3594
ENERGY: 900000 1.1542 2.1498 2.0609 0.0000 -10767.3478 1461.9817 0.0000 0.0000 1771.6327 -7528.3685 299.2703 -9300.0013 -7539.5996 301.2517 245.3749 312.6656 30281.7964 10.4422 66.3237
ENERGY: 1200000 4.3481 5.5845 0.8631 0.0000 -10948.5611 1564.2316 0.0000 0.0000 1761.3194 -7612.2145 297.5281 -9373.5339 -7548.4419 300.8091 669.0761 688.8471 30326.4125 81.3306 132.6083
ENERGY: 1500000 0.8624 1.7049 0.7997 0.0000 -10721.4171 1436.9240 0.0000 0.0000 1735.7482 -7545.3780 293.2085 -9281.1261 -7543.2096 300.6901 -179.0278 -131.5735 30819.2916 -10.3356 41.3971
TCL: Running FEP window  18: Lambda1 0.1499999999999997 Lambda2 0.09999999999999969 [dLambda -0.05 ]
TCL: Setting parameter firsttimestep to 0
TCL: Setting parameter alchLambda to 0.1499999999999997
Info: NONBONDED TABLE R-SQUARED SPACING: 0.0625
Info: NONBONDED TABLE SIZE: 705 POINTS
TCL: Setting parameter alchLambda2 to 0.09999999999999969
Info: NONBONDED TABLE R-SQUARED SPACING: 0.0625
Info: NONBONDED TABLE SIZE: 705 POINTS
TCL: Running for 1500000 steps
ETITLE: TS BOND ANGLE DIHED IMPRP ELECT VDW BOUNDARY MISC KINETIC TOTAL TEMP POTENTIAL TOTALAVG TEMPAVG PRESSURE GPRESSURE VOLUME PRESSAVG GPRESSAVG
ENERGY: 0 0.8624 1.7049 0.7997 0.0000 -10721.4173 1436.7804 0.0000 0.0000 1734.8480 -7546.4220 293.0565 -9281.2700 -7546.4220 293.0565 -213.0302 -137.7601 30819.2916 -213.0302 -137.7601
ENERGY: 300000 0.7023 2.6008 6.6470 0.0000 -10761.2404 1435.4974 0.0000 0.0000 1747.3128 -7568.4801 295.1621 -9315.7929 -7562.5426 297.3791 -60.1254 -54.4389 30421.7505 114.3467 181.2867
ENERGY: 600000 4.5492 4.9000 4.6520 0.0000 -10930.5039 1549.1247 0.0000 0.0000 1742.9461 -7624.3319 294.4244 -9367.2780 -7562.7500 297.2013 540.4522 533.6822 30359.2434 -151.4121 -84.8643
ENERGY: 900000 2.0053 3.8430 5.1321 0.0000 -10834.4569 1449.3772 0.0000 0.0000 1786.6237 -7587.4757 301.8026 -9374.0993 -7571.0215 298.2573 -377.7178 -309.5179 30896.9219 76.9005 143.5239
ENERGY: 1200000 1.7380 2.3744 2.6993 0.0000 -10826.6791 1510.8787 0.0000 0.0000 1773.4019 -7535.5867 299.5691 -9308.9886 -7563.8083 299.2648 637.8297 708.7856 30404.3999 98.4577 168.6612
ENERGY: 1500000 3.2064 2.5677 2.8401 0.0000 -10690.1066 1457.3742 0.0000 0.0000 1766.5429 -7457.5753 298.4105 -9224.1182 -7554.2912 299.0580 -1.3807 70.3228 30776.0067 40.2003 108.7947
TCL: Running FEP window  19: Lambda1 0.09999999999999969 Lambda2 0.049999999999999684 [dLambda -0.05 ]
TCL: Setting parameter firsttimestep to 0
TCL: Setting parameter alchLambda to 0.09999999999999969
Info: NONBONDED TABLE R-SQUARED SPACING: 0.0625
Info: NONBONDED TABLE SIZE: 705 POINTS
TCL: Setting parameter alchLambda2 to 0.049999999999999684
Info: NONBONDED TABLE R-SQUARED SPACING: 0.0625
Info: NONBONDED TABLE SIZE: 705 POINTS
TCL: Running for 1500000 steps
ETITLE: TS BOND ANGLE DIHED IMPRP ELECT VDW BOUNDARY MISC KINETIC TOTAL TEMP POTENTIAL TOTALAVG TEMPAVG PRESSURE GPRESSURE VOLUME PRESSAVG GPRESSAVG
ENERGY: 0 3.2063 2.5677 2.8401 0.0000 -10690.1061 1455.9423 0.0000 0.0000 1765.6649 -7459.8847 298.2622 -9225.5496 -7459.8847 298.2622 -23.1141 62.5349 30776.0067 -23.1141 62.5349
ENERGY: 300000 0.1486 5.5792 2.5517 0.0000 -10899.1206 1509.6779 0.0000 0.0000 1767.6319 -7613.5313 298.5944 -9381.1632 -7554.8066 299.7247 127.4015 214.6018 30627.5654 -55.3089 -9.0711
ENERGY: 600000 1.5958 3.2743 1.3586 0.0000 -10788.8652 1487.2495 0.0000 0.0000 1782.6441 -7512.7428 301.1304 -9295.3869 -7530.8991 302.0628 349.3393 409.9408 30304.4954 -143.3092 -90.5565
ENERGY: 900000 0.8796 2.4701 1.2190 0.0000 -10851.9534 1505.7994 0.0000 0.0000 1721.5618 -7620.0236 290.8121 -9341.5854 -7557.3181 300.4161 381.6841 432.0479 30247.5047 -4.6555 50.2344
ENERGY: 1200000 1.0349 2.1116 1.1166 0.0000 -10764.9848 1368.9591 0.0000 0.0000 1761.3284 -7630.4342 297.5296 -9391.7626 -7561.6902 299.4738 -882.9182 -851.5114 30628.1155 -26.2765 25.5019
ENERGY: 1500000 2.7572 2.7804 1.0996 0.0000 -10907.2729 1564.8406 0.0000 0.0000 1774.3410 -7561.4540 299.7278 -9335.7950 -7561.3897 299.9074 1020.0462 1048.3100 30163.7394 22.0120 73.6451
TCL: Running FEP window  20: Lambda1 0.049999999999999684 Lambda2 0.0    [dLambda -0.049999999999999684]
TCL: Setting parameter firsttimestep to 0
TCL: Setting parameter alchLambda to 0.049999999999999684
Info: NONBONDED TABLE R-SQUARED SPACING: 0.0625
Info: NONBONDED TABLE SIZE: 705 POINTS
TCL: Setting parameter alchLambda2 to 0.0
Info: NONBONDED TABLE R-SQUARED SPACING: 0.0625
Info: NONBONDED TABLE SIZE: 705 POINTS
TCL: Running for 1500000 steps
ETITLE: TS BOND ANGLE DIHED IMPRP ELECT VDW BOUNDARY MISC KINETIC TOTAL TEMP POTENTIAL TOTALAVG TEMPAVG PRESSURE GPRESSURE VOLUME PRESSAVG GPRESSAVG
ENERGY: 0 2.7572 2.7804 1.0996 0.0000 -10907.2733 1564.3640 0.0000 0.0000 1773.5062 -7562.7659 299.5867 -9336.2721 -7562.7659 299.5867 963.1385 1046.5502 30163.7394 963.1385 1046.5502
ENERGY: 300000 3.7678 4.7010 2.8513 0.0000 -10671.6210 1316.1589 0.0000 0.0000 1800.6047 -7543.5373 304.1643 -9344.1420 -7537.9049 300.9086 -1148.7234 -1057.4535 30488.3119 9.4158 58.8823
ENERGY: 600000 0.9749 3.8387 2.7142 0.0000 -10671.2132 1414.4110 0.0000 0.0000 1778.3648 -7470.9096 300.4075 -9249.2744 -7531.2206 299.4643 -563.0400 -502.5978 31470.9469 100.7140 137.5188
ENERGY: 900000 2.3976 4.7390 3.9094 0.0000 -10883.9480 1501.4557 0.0000 0.0000 1760.0435 -7611.4027 297.3126 -9371.4463 -7541.7539 299.6003 296.0880 340.1334 30098.3713 159.2784 204.8468
ENERGY: 1200000 3.2936 2.0196 4.8572 0.0000 -10611.0764 1368.7891 0.0000 0.0000 1764.6785 -7467.4385 298.0955 -9232.1169 -7541.2459 298.9234 -431.2461 -368.6680 30629.1942 116.1880 171.3102
ENERGY: 1500000 1.2357 2.4915 5.7787 0.0000 -10734.5929 1404.4356 0.0000 0.0000 1806.8309 -7513.8205 305.2161 -9320.6514 -7541.3250 299.5358 -612.0588 -530.0797 30814.6690 46.7711 105.7080
TCL: Exiting due to exit command.
