Info: SIMULATION PARAMETERS:
Info: TIMESTEP               2
Info: NUMBER OF STEPS        0
Info: STEPS PER CYCLE        10
Info: PERIODIC CELL BASIS 1  42.812 0 0
Info: PERIODIC CELL BASIS 2  0 45.083 0
Info: PERIODIC CELL BASIS 3  0 0 38.379
Info: PERIODIC CELL CENTER   0 0 0
Info: WRAPPING WATERS AROUND PERIODIC BOUNDARIES ON OUTPUT.
Info: WRAPPING ALL CLUSTERS AROUND PERIODIC BOUNDARIES ON OUTPUT.
Info: FIRST LDB TIMESTEP     50
Info: LAST LDB TIMESTEP     -1
Info: HOM BACKGROUND SCALING 1
Info: PME BACKGROUND SCALING 1
Info: MIN ATOMS PER PATCH    40
Info: EMPTY PATCH LOAD       40 ATOMS
Info: INITIAL TEMPERATURE    300
Info: CENTER OF MASS MOVING INITIALLY? NO
Info: DIELECTRIC             1
Info: EXCLUDE                SCALED ONE-FOUR
Info: 1-4 ELECTROSTATICS SCALED BY 0.833333
Info: MODIFIED 1-4 VDW PARAMETERS WILL BE USED
Info: DCD FILENAME           mobley_637522_min.dcd
Info: DCD FREQUENCY          5000
Info: DCD FIRST STEP         5000
Info: DCD FILE WILL CONTAIN UNIT CELL DATA
Info: XST FILENAME           mobley_637522_min.xst
Info: XST FREQUENCY          5000
Info: NO VELOCITY DCD OUTPUT
Info: NO FORCE DCD OUTPUT
Info: OUTPUT FILENAME        mobley_637522_min
Info: BINARY OUTPUT FILES WILL BE USED
Info: RESTART FILENAME       mobley_637522_min.restart
Info: RESTART FREQUENCY      5000
Info: BINARY RESTART FILES WILL BE USED
Info: CUTOFF                 9
Info: PAIRLIST DISTANCE      11
Info: PAIRLIST SHRINK RATE   0.01
Info: PAIRLIST GROW RATE     0.01
Info: PAIRLIST TRIGGER       0.3
Info: PAIRLISTS PER CYCLE    2
Info: PAIRLISTS ENABLED
Info: MARGIN                 8
Info: HYDROGEN GROUP CUTOFF  2.5
Info: PATCH DIMENSION        21.5
Info: ENERGY OUTPUT STEPS    5000
Info: ENERGY EVALUATION STEPS    5000
Info: OUTPUT ENERGY PRECISION 4
Info: CROSSTERM ENERGY INCLUDED IN DIHEDRAL
Info: TIMING OUTPUT STEPS    50000
Info: PRESSURE OUTPUT STEPS  5000
Info: LANGEVIN DYNAMICS ACTIVE
Info: LANGEVIN TEMPERATURE   300
Info: LANGEVIN USING BBK INTEGRATOR
Info: LANGEVIN DAMPING COEFFICIENT IS 1 INVERSE PS
Info: LANGEVIN DYNAMICS APPLIED TO HYDROGENS
Info: LANGEVIN PISTON PRESSURE CONTROL ACTIVE
Info:        TARGET PRESSURE IS 1.01325 BAR
Info:     OSCILLATION PERIOD IS 50 FS
Info:             DECAY TIME IS 25 FS
Info:     PISTON TEMPERATURE IS 300 K
Info:       PRESSURE CONTROL IS GROUP-BASED
Info:    INITIAL STRAIN RATE IS 0 0 0
Info:       CELL FLUCTUATION IS ISOTROPIC
Info: PARTICLE MESH EWALD (PME) ACTIVE
Info: PME TOLERANCE               1e-06
Info: PME EWALD COEFFICIENT       0.348832
Info: PME INTERPOLATION ORDER     4
Info: PME GRID DIMENSIONS         44 48 40
Info: PME MAXIMUM GRID SPACING    1
Info: FULL ELECTROSTATIC EVALUATION FREQUENCY      2
Info: USING VERLET I (r-RESPA) MTS SCHEME.
Info: C1 SPLITTING OF LONG RANGE ELECTROSTATICS
Info: PLACING ATOMS IN PATCHES BY HYDROGEN GROUPS
Info: RIGID BONDS TO HYDROGEN : ALL
Info:         ERROR TOLERANCE : 1e-08
Info:          MAX ITERATIONS : 100
Info: RIGID WATER USING SETTLE ALGORITHM
Info: RANDOM NUMBER SEED     1741382349
Info: USE HYDROGEN BONDS?    NO
Info: Using AMBER format force field!
Info: AMBER PARM FILE        mobley_637522.prmtop
Info: COORDINATE PDB         mobley_637522.pdb
Info: Exclusions will be read from PARM file!
Info: SCNB (VDW SCALING)     2
Info: USING ARITHMETIC MEAN TO COMBINE L-J SIGMA PARAMETERS
Info: SUMMARY OF PARAMETERS:
Info: 4 BONDS
Info: 2 ANGLES
Info:   2 HARMONIC
Info:   0 COSINE-BASED
Info: 2 DIHEDRAL
Info: 0 IMPROPER
Info: 0 CROSSTERM
Info: 0 VDW
Info: 10 VDW_PAIRS
Info: 0 NBTHOLE_PAIRS
Info: STRUCTURE SUMMARY:
Info: 5265 ATOMS
Info: 5267 BONDS
Info: 42 ANGLES
Info: 74 DIHEDRALS
Info: 0 IMPROPERS
Info: 0 CROSSTERMS
Info: 5364 EXCLUSIONS
Info: 5251 RIGID BONDS
Info: 10544 DEGREES OF FREEDOM
Info: 1761 HYDROGEN GROUPS
Info: 3 ATOMS IN LARGEST HYDROGEN GROUP
Info: 1761 MIGRATION GROUPS
Info: 3 ATOMS IN LARGEST MIGRATION GROUP
Info: TOTAL MASS = 31652.2 amu
Info: TOTAL CHARGE = -2.98023e-08 e
Info: MASS DENSITY = 0.709563 g/cm^3
Info: ATOM DENSITY = 0.0710766 atoms/A^3
Info: ADDED 0 IMPLICIT EXCLUSIONS
Info: NONBONDED TABLE R-SQUARED SPACING: 0.0625
Info: NONBONDED TABLE SIZE: 705 POINTS
Info: REMOVING COM VELOCITY 0.050164 0.132195 0.0668041
TCL: Minimizing for 2000 steps
ETITLE: TS BOND ANGLE DIHED IMPRP ELECT VDW BOUNDARY MISC KINETIC TOTAL TEMP POTENTIAL TOTAL3 TEMPAVG PRESSURE GPRESSURE VOLUME PRESSAVG GPRESSAVG
ENERGY: 0 0.3033 0.4455 0.0002 0.0000 -16249.8913 1808.5263 0.0000 0.0000 0.0000 -14440.6159 0.0000 -14440.6159 -14440.6159 0.0000 10680.2182 -15107.5539 74075.0544 10680.2182 -15107.5539
ENERGY: 400 12.9246 5.5158 0.3035 0.0000 -22113.9626 3316.9880 0.0000 0.0000 0.0000 -18778.2307 0.0000 -18778.2307 -18778.2307 0.0000 15926.7903 11025.5980 74075.0544 15926.7903 11025.5980
ENERGY: 800 3.5827 1.0108 0.1095 0.0000 -23254.0759 3825.1073 0.0000 0.0000 0.0000 -19424.2655 0.0000 -19424.2655 -19424.2655 0.0000 18045.4721 12553.2759 74075.0544 18045.4721 12553.2759
ENERGY: 1200 0.9434 0.2186 0.0758 0.0000 -23642.9910 3984.9980 0.0000 0.0000 0.0000 -19656.7551 0.0000 -19656.7551 -19656.7551 0.0000 18749.2864 13333.1125 74075.0544 18749.2864 13333.1125
ENERGY: 1600 1.7387 0.5298 0.1287 0.0000 -23925.4976 4139.5886 0.0000 0.0000 0.0000 -19783.5118 0.0000 -19783.5118 -19783.5118 0.0000 19497.0893 14056.2861 74075.0544 19497.0893 14056.2861
ENERGY: 2000 0.4653 0.0862 0.1347 0.0000 -24054.0726 4181.9336 0.0000 0.0000 0.0000 -19871.4527 0.0000 -19871.4527 -19871.4527 0.0000 19681.3666 14193.0577 74075.0544 19681.3666 14193.0577
TCL: Exiting due to exit command.
Info: NAMD 3.0.1 for Linux-x86_64-multicore
Info: Please visit http://www.ks.uiuc.edu/Research/namd/
Info: for updates, documentation, and support information.
Info: Please cite Phillips et al., J. Chem. Phys. 153:044130 (2020) doi:10.1063/5.0014475
Info: in all publications reporting results obtained with NAMD.
Info: Based on Charm++/Converse 80000 for multicore-linux-x86_64-gcc
Info: Built Mon Oct 14 11:11:06 CDT 2024 by dhardy on athine.ks.uiuc.edu
Info: 1 NAMD  3.0.1  Linux-x86_64-multicore  16    k002  z5358697
Info: Running on 16 processors, 1 nodes, 1 physical nodes.
Info: CPU topology information available.
Info: Charm++/Converse parallel runtime startup completed at 0.00664435 s
Info: 1043.46 MB of memory in use based on /proc/self/stat
Info: Configuration file is mobley_637522_equil.namd
Info: Working in the current directory /srv/scratch/z5358697/prod_prep_8/637522
TCL: Running 25000 steps at 30 kelvin.
TCL: Suspending until startup complete.
Info: SIMULATION PARAMETERS:
Info: TIMESTEP               2
Info: NUMBER OF STEPS        0
Info: STEPS PER CYCLE        10
Info: PERIODIC CELL BASIS 1  42.812 0 0
Info: PERIODIC CELL BASIS 2  0 45.083 0
Info: PERIODIC CELL BASIS 3  0 0 38.379
Info: PERIODIC CELL CENTER   0 0 0
Info: WRAPPING WATERS AROUND PERIODIC BOUNDARIES ON OUTPUT.
Info: WRAPPING ALL CLUSTERS AROUND PERIODIC BOUNDARIES ON OUTPUT.
Info: FIRST LDB TIMESTEP     50
Info: LAST LDB TIMESTEP     -1
Info: HOM BACKGROUND SCALING 1
Info: PME BACKGROUND SCALING 1
Info: MIN ATOMS PER PATCH    40
Info: EMPTY PATCH LOAD       40 ATOMS
Info: INITIAL TEMPERATURE    300
Info: CENTER OF MASS MOVING INITIALLY? NO
Info: DIELECTRIC             1
Info: EXCLUDE                SCALED ONE-FOUR
Info: 1-4 ELECTROSTATICS SCALED BY 0.833333
Info: MODIFIED 1-4 VDW PARAMETERS WILL BE USED
Info: DCD FILENAME           mobley_637522_equil.dcd
Info: DCD FREQUENCY          5000
Info: DCD FIRST STEP         5000
Info: DCD FILE WILL CONTAIN UNIT CELL DATA
Info: XST FILENAME           mobley_637522_equil.xst
Info: XST FREQUENCY          5000
Info: NO VELOCITY DCD OUTPUT
Info: NO FORCE DCD OUTPUT
Info: OUTPUT FILENAME        mobley_637522_equil
Info: BINARY OUTPUT FILES WILL BE USED
Info: RESTART FILENAME       mobley_637522_equil.restart
Info: RESTART FREQUENCY      5000
Info: BINARY RESTART FILES WILL BE USED
Info: CUTOFF                 9
Info: PAIRLIST DISTANCE      11
Info: PAIRLIST SHRINK RATE   0.01
Info: PAIRLIST GROW RATE     0.01
Info: PAIRLIST TRIGGER       0.3
Info: PAIRLISTS PER CYCLE    2
Info: PAIRLISTS ENABLED
Info: MARGIN                 8
Info: HYDROGEN GROUP CUTOFF  2.5
Info: PATCH DIMENSION        21.5
Info: ENERGY OUTPUT STEPS    5000
Info: ENERGY EVALUATION STEPS    5000
Info: OUTPUT ENERGY PRECISION 4
Info: CROSSTERM ENERGY INCLUDED IN DIHEDRAL
Info: TIMING OUTPUT STEPS    50000
Info: PRESSURE OUTPUT STEPS  5000
Info: LANGEVIN DYNAMICS ACTIVE
Info: LANGEVIN TEMPERATURE   30
Info: LANGEVIN USING BBK INTEGRATOR
Info: LANGEVIN DAMPING COEFFICIENT IS 1 INVERSE PS
Info: LANGEVIN DYNAMICS APPLIED TO HYDROGENS
Info: LANGEVIN PISTON PRESSURE CONTROL ACTIVE
Info:        TARGET PRESSURE IS 1.01325 BAR
Info:     OSCILLATION PERIOD IS 50 FS
Info:             DECAY TIME IS 25 FS
Info:     PISTON TEMPERATURE IS 300 K
Info:       PRESSURE CONTROL IS GROUP-BASED
Info:    INITIAL STRAIN RATE IS 0 0 0
Info:       CELL FLUCTUATION IS ISOTROPIC
Info: PARTICLE MESH EWALD (PME) ACTIVE
Info: PME TOLERANCE               1e-06
Info: PME EWALD COEFFICIENT       0.348832
Info: PME INTERPOLATION ORDER     4
Info: PME GRID DIMENSIONS         44 48 40
Info: PME MAXIMUM GRID SPACING    1
Info: FULL ELECTROSTATIC EVALUATION FREQUENCY      2
Info: USING VERLET I (r-RESPA) MTS SCHEME.
Info: C1 SPLITTING OF LONG RANGE ELECTROSTATICS
Info: PLACING ATOMS IN PATCHES BY HYDROGEN GROUPS
Info: RIGID BONDS TO HYDROGEN : ALL
Info:         ERROR TOLERANCE : 1e-08
Info:          MAX ITERATIONS : 100
Info: RIGID WATER USING SETTLE ALGORITHM
Info: RANDOM NUMBER SEED     1741382368
Info: USE HYDROGEN BONDS?    NO
Info: Using AMBER format force field!
Info: AMBER PARM FILE        mobley_637522.prmtop
Info: COORDINATE PDB         mobley_637522.pdb
Info: Exclusions will be read from PARM file!
Info: SCNB (VDW SCALING)     2
Info: USING ARITHMETIC MEAN TO COMBINE L-J SIGMA PARAMETERS
Info: BINARY COORDINATES     mobley_637522_min.coor
Info: SUMMARY OF PARAMETERS:
Info: 4 BONDS
Info: 2 ANGLES
Info:   2 HARMONIC
Info:   0 COSINE-BASED
Info: 2 DIHEDRAL
Info: 0 IMPROPER
Info: 0 CROSSTERM
Info: 0 VDW
Info: 10 VDW_PAIRS
Info: 0 NBTHOLE_PAIRS
Info: STRUCTURE SUMMARY:
Info: 5265 ATOMS
Info: 5267 BONDS
Info: 42 ANGLES
Info: 74 DIHEDRALS
Info: 0 IMPROPERS
Info: 0 CROSSTERMS
Info: 5364 EXCLUSIONS
Info: 5251 RIGID BONDS
Info: 10544 DEGREES OF FREEDOM
Info: 1761 HYDROGEN GROUPS
Info: 3 ATOMS IN LARGEST HYDROGEN GROUP
Info: 1761 MIGRATION GROUPS
Info: 3 ATOMS IN LARGEST MIGRATION GROUP
Info: TOTAL MASS = 31652.2 amu
Info: TOTAL CHARGE = -2.98023e-08 e
Info: MASS DENSITY = 0.709563 g/cm^3
Info: ATOM DENSITY = 0.0710766 atoms/A^3
Info: ADDED 0 IMPLICIT EXCLUSIONS
Info: NONBONDED TABLE R-SQUARED SPACING: 0.0625
Info: NONBONDED TABLE SIZE: 705 POINTS
Info: REMOVING COM VELOCITY 0.0371726 -0.147468 0.0103025
TCL: Running for 25000 steps
ETITLE: TS BOND ANGLE DIHED IMPRP ELECT VDW BOUNDARY MISC KINETIC TOTAL TEMP POTENTIAL TOTAL3 TEMPAVG PRESSURE GPRESSURE VOLUME PRESSAVG GPRESSAVG
ENERGY: 0 0.4653 0.0862 0.1347 0.0000 -24054.0726 4181.9336 0.0000 0.0000 3119.3446 -16752.1081 297.7476 -19871.4527 -16751.4772 297.7476 251.2311 289.7135 74075.0544 251.2311 289.7135
ENERGY: 5000 2.1982 0.4445 0.9294 0.0000 -25077.4622 4272.3167 0.0000 0.0000 326.0616 -20475.5118 31.1232 -20801.5734 -20474.8121 47.4994 -386.8716 -336.7244 51617.1194 -1.4254 -1.3939
ENERGY: 10000 0.8760 0.7064 0.7797 0.0000 -25164.8879 4321.7002 0.0000 0.0000 310.2487 -20530.5770 29.6139 -20840.8257 -20529.7427 30.2545 -137.5689 -79.2783 51312.2208 3.1975 3.0869
ENERGY: 15000 0.6639 0.4812 1.0929 0.0000 -25261.2667 4402.1758 0.0000 0.0000 305.7161 -20551.1367 29.1812 -20856.8528 -20550.2305 30.0385 213.9399 281.3973 51140.8799 4.4437 4.6562
ENERGY: 20000 1.0341 0.4941 0.8586 0.0000 -25318.2441 4448.2905 0.0000 0.0000 315.4201 -20552.1467 30.1075 -20867.5668 -20551.0642 30.0322 437.4243 497.2662 51058.8097 1.4320 1.6121
ENERGY: 25000 1.0935 0.7353 0.8535 0.0000 -25261.9714 4383.7092 0.0000 0.0000 308.7580 -20566.8219 29.4716 -20875.5799 -20566.0545 30.1529 58.0061 107.7936 51163.4920 1.5548 1.5138
TCL: Running 25000 steps at 60 kelvin.
TCL: Setting parameter langevinTemp to 60
TCL: Running for 25000 steps
ETITLE: TS BOND ANGLE DIHED IMPRP ELECT VDW BOUNDARY MISC KINETIC TOTAL TEMP POTENTIAL TOTAL3 TEMPAVG PRESSURE GPRESSURE VOLUME PRESSAVG GPRESSAVG
ENERGY: 25000 1.0935 0.7353 0.8535 0.0000 -25261.9714 4383.7092 0.0000 0.0000 308.6009 -20566.9790 29.4566 -20875.5799 -20566.2936 29.4566 58.9524 107.8036 51163.4920 58.9524 107.8036
ENERGY: 30000 0.8395 1.1513 1.5794 0.0000 -24932.2295 4344.4928 0.0000 0.0000 623.3643 -19960.8022 59.5014 -20584.1665 -19959.1480 57.5566 544.0444 628.7512 51249.8058 -2.3954 -2.4328
ENERGY: 35000 1.3180 1.1916 1.7827 0.0000 -24967.5795 4321.5417 0.0000 0.0000 617.5868 -20024.1588 58.9499 -20641.7455 -20023.1413 59.8067 284.4565 319.6437 51311.1108 5.3528 5.5190
ENERGY: 40000 0.4469 0.8349 1.7345 0.0000 -24883.7273 4236.7115 0.0000 0.0000 631.8170 -20012.1825 60.3082 -20643.9995 -20010.0653 60.4214 -91.8466 -25.1717 51203.3148 4.6949 4.7244
ENERGY: 45000 1.9046 1.4304 1.8287 0.0000 -24903.5287 4203.2248 0.0000 0.0000 635.7480 -20059.3922 60.6834 -20695.1403 -20057.7816 60.3679 -315.8683 -259.3304 51144.6501 3.2892 2.9634
ENERGY: 50000 2.6350 0.7369 1.3672 0.0000 -24849.3107 4157.1049 0.0000 0.0000 620.8232 -20066.6436 59.2588 -20687.4668 -20065.4419 60.0395 -545.3409 -491.2636 51108.8475 2.3832 2.4707
TCL: Running 25000 steps at 90 kelvin.
TCL: Setting parameter langevinTemp to 90
TCL: Running for 25000 steps
ETITLE: TS BOND ANGLE DIHED IMPRP ELECT VDW BOUNDARY MISC KINETIC TOTAL TEMP POTENTIAL TOTAL3 TEMPAVG PRESSURE GPRESSURE VOLUME PRESSAVG GPRESSAVG
ENERGY: 50000 2.6350 0.7369 1.3672 0.0000 -24849.3107 4157.1049 0.0000 0.0000 620.5095 -20066.9573 59.2289 -20687.4668 -20065.5954 59.2289 -547.5337 -491.5859 51108.8475 -547.5337 -491.5859
ENERGY: 55000 2.2039 1.4420 1.9210 0.0000 -24443.2061 4048.2659 0.0000 0.0000 940.0174 -19449.3558 89.7265 -20389.3732 -19447.7205 86.5142 -468.5092 -432.9881 51493.9664 0.0050 0.4575
ENERGY: 60000 1.7382 2.2839 2.6675 0.0000 -24723.8770 4255.5951 0.0000 0.0000 940.4829 -19521.1094 89.7710 -20461.5923 -19517.7250 90.6336 408.1448 440.3497 51009.8679 2.1572 2.3918
ENERGY: 65000 2.4048 1.7609 1.8048 0.0000 -24675.2110 4166.9156 0.0000 0.0000 941.9840 -19560.3408 89.9142 -20502.3248 -19558.8583 90.1335 -187.3246 -140.3289 51304.2393 -0.4984 -0.3588
ENERGY: 70000 1.3057 1.5418 1.4562 0.0000 -24840.3436 4315.3986 0.0000 0.0000 968.7903 -19551.8510 92.4730 -20520.6413 -19548.6676 90.6340 529.5081 592.7323 50814.6595 3.1608 2.8376
ENERGY: 75000 1.2513 2.0362 2.4707 0.0000 -24998.5131 4433.0055 0.0000 0.0000 929.7046 -19630.0447 88.7422 -20559.7493 -19628.3106 90.1831 1076.1443 1161.4492 50521.6862 0.7841 0.7082
TCL: Running 25000 steps at 120 kelvin.
TCL: Setting parameter langevinTemp to 120
TCL: Running for 25000 steps
ETITLE: TS BOND ANGLE DIHED IMPRP ELECT VDW BOUNDARY MISC KINETIC TOTAL TEMP POTENTIAL TOTAL3 TEMPAVG PRESSURE GPRESSURE VOLUME PRESSAVG GPRESSAVG
ENERGY: 75000 1.2513 2.0362 2.4707 0.0000 -24998.5131 4433.0055 0.0000 0.0000 929.2299 -19630.5194 88.6968 -20559.7493 -19628.6624 88.6968 1093.8391 1161.2724 50521.6862 1093.8391 1161.2724
ENERGY: 80000 3.8323 3.2144 2.2290 0.0000 -24131.5054 3939.8943 0.0000 0.0000 1276.9416 -18905.3938 121.8866 -20182.3354 -18900.9312 116.2650 -576.1457 -498.6429 51430.8752 3.0006 2.9388
ENERGY: 85000 2.9020 2.2138 1.8822 0.0000 -24168.7444 3952.9145 0.0000 0.0000 1264.7138 -18944.1180 120.7194 -20208.8317 -18941.7813 120.6631 -537.4084 -464.8805 51292.1381 1.1475 1.2941
ENERGY: 90000 1.2571 2.3863 2.1073 0.0000 -24405.1588 4145.4086 0.0000 0.0000 1269.2644 -18984.7352 121.1538 -20253.9995 -18983.0782 120.5030 380.5727 413.1861 51160.7773 3.8361 4.0654
ENERGY: 95000 2.5336 3.1812 2.6176 0.0000 -24356.3435 4095.8638 0.0000 0.0000 1234.2519 -19017.8954 117.8118 -20252.1473 -19014.6351 120.6009 155.8119 211.9805 50865.7892 3.8950 3.5286
ENERGY: 100000 1.1756 1.5418 1.8426 0.0000 -24565.9824 4254.0192 0.0000 0.0000 1239.3515 -19068.0516 118.2986 -20307.4031 -19066.0156 119.5126 731.2559 788.4557 50991.8783 2.7190 2.5383
TCL: Running 25000 steps at 150 kelvin.
TCL: Setting parameter langevinTemp to 150
TCL: Running for 25000 steps
ETITLE: TS BOND ANGLE DIHED IMPRP ELECT VDW BOUNDARY MISC KINETIC TOTAL TEMP POTENTIAL TOTAL3 TEMPAVG PRESSURE GPRESSURE VOLUME PRESSAVG GPRESSAVG
ENERGY: 100000 1.1756 1.5418 1.8426 0.0000 -24565.9824 4254.0192 0.0000 0.0000 1238.7489 -19068.6542 118.2410 -20307.4031 -19066.5539 118.2410 724.4231 787.7153 50991.8783 724.4231 787.7153
ENERGY: 105000 3.6206 2.7569 2.6106 0.0000 -23806.6558 3916.3212 0.0000 0.0000 1592.5507 -18288.7959 152.0121 -19881.3466 -18285.4878 146.6372 -58.4332 11.4153 51447.7880 -0.9919 -0.9950
ENERGY: 110000 2.8376 2.9200 1.9906 0.0000 -24128.7017 4149.3041 0.0000 0.0000 1569.7778 -18401.8717 149.8384 -19971.6495 -18398.3063 150.4401 1006.0029 1020.9524 51375.3206 3.0348 3.0645
ENERGY: 115000 3.6807 2.8170 4.2822 0.0000 -23859.0163 3863.5175 0.0000 0.0000 1580.5754 -18404.1435 150.8691 -19984.7189 -18400.5518 150.2550 -618.4563 -551.0434 51998.3876 -1.7876 -1.9990
ENERGY: 120000 2.3607 1.9804 2.6515 0.0000 -23930.5578 3930.7336 0.0000 0.0000 1613.0458 -18379.7859 153.9684 -19992.8316 -18373.1930 149.9302 -284.8215 -225.8419 52230.2731 2.1280 1.8927
ENERGY: 125000 2.2574 1.8417 2.2299 0.0000 -24012.9544 4040.2543 0.0000 0.0000 1605.8391 -18360.5319 153.2805 -19966.3711 -18355.4778 150.9252 252.4119 346.8108 51771.4340 4.1431 4.3325
TCL: Running 50000 steps at 180 kelvin.
TCL: Setting parameter langevinTemp to 180
TCL: Running for 50000 steps
ETITLE: TS BOND ANGLE DIHED IMPRP ELECT VDW BOUNDARY MISC KINETIC TOTAL TEMP POTENTIAL TOTAL3 TEMPAVG PRESSURE GPRESSURE VOLUME PRESSAVG GPRESSAVG
ENERGY: 125000 2.2574 1.8417 2.2299 0.0000 -24012.9544 4040.2543 0.0000 0.0000 1605.0480 -18361.3231 153.2050 -19966.3711 -18358.3669 153.2050 290.2535 347.3598 51771.4340 290.2535 347.3598
ENERGY: 135000 3.1303 2.2186 3.5804 0.0000 -23117.6625 3617.2165 0.0000 0.0000 1905.1073 -17586.4094 181.8463 -19491.5167 -17582.2389 179.7346 -770.3250 -724.2635 52196.1561 4.9819 4.6257
ENERGY: 145000 3.1726 4.1059 4.1876 0.0000 -23337.8034 3768.8905 0.0000 0.0000 1874.2954 -17683.1515 178.9052 -19557.4469 -17679.4070 181.1880 -154.4252 -102.5504 51810.8079 4.2749 3.8531
ENERGY: 155000 2.5886 1.9225 5.5109 0.0000 -23303.9985 3748.6348 0.0000 0.0000 1874.4677 -17670.8741 178.9217 -19545.3417 -17664.1833 180.6281 -234.3681 -185.1771 51830.1790 4.1088 4.5096
ENERGY: 165000 3.4358 3.7405 5.2747 0.0000 -23293.9194 3737.7771 0.0000 0.0000 1909.9542 -17633.7371 182.3089 -19543.6912 -17628.8324 179.5226 -219.7032 -162.0195 51653.4599 -0.4730 -0.3623
ENERGY: 175000 3.6925 4.0940 4.9432 0.0000 -23242.3510 3656.5156 0.0000 0.0000 1900.3224 -17672.7832 181.3896 -19573.1057 -17669.2411 179.9103 -750.3083 -682.7666 52050.7942 2.4482 2.7836
TCL: Running 50000 steps at 210 kelvin.
TCL: Setting parameter langevinTemp to 210
TCL: Running for 50000 steps
ETITLE: TS BOND ANGLE DIHED IMPRP ELECT VDW BOUNDARY MISC KINETIC TOTAL TEMP POTENTIAL TOTAL3 TEMPAVG PRESSURE GPRESSURE VOLUME PRESSAVG GPRESSAVG
ENERGY: 175000 3.6925 4.0940 4.9432 0.0000 -23242.3510 3656.5156 0.0000 0.0000 1899.3775 -17673.7282 181.2994 -19573.1057 -17669.9632 181.2994 -744.7860 -682.4373 52050.7942 -744.7860 -682.4373
ENERGY: 185000 3.7612 5.2463 3.2891 0.0000 -22271.2265 3470.4476 0.0000 0.0000 2198.2815 -16590.2008 209.8303 -18788.4823 -16584.9652 209.8625 263.1430 358.6976 51352.9426 1.4217 1.4708
ENERGY: 195000 4.5471 4.6531 2.9248 0.0000 -22238.5822 3414.4793 0.0000 0.0000 2237.2827 -16574.6953 213.5531 -18811.9780 -16569.7122 208.9586 -125.5722 -44.8931 51807.8473 2.6204 3.0007
ENERGY: 205000 3.3090 3.6795 4.2839 0.0000 -22250.2280 3467.5717 0.0000 0.0000 2211.4027 -16559.9811 211.0828 -18771.3838 -16555.2198 211.4230 306.7647 345.1310 51536.9707 2.6244 2.6097
ENERGY: 215000 5.1103 4.2787 3.1444 0.0000 -22118.8927 3370.4547 0.0000 0.0000 2221.3030 -16514.6018 212.0278 -18735.9048 -16511.1418 211.4067 -245.6061 -133.1319 51487.9982 -0.7213 -0.7936
ENERGY: 225000 2.8418 5.4807 4.0483 0.0000 -22189.5625 3489.3621 0.0000 0.0000 2211.0587 -16476.7708 211.0500 -18687.8295 -16471.2429 209.9661 591.9524 662.3395 51193.6575 7.1518 6.8570
TCL: Running 50000 steps at 240 kelvin.
TCL: Setting parameter langevinTemp to 240
TCL: Running for 50000 steps
ETITLE: TS BOND ANGLE DIHED IMPRP ELECT VDW BOUNDARY MISC KINETIC TOTAL TEMP POTENTIAL TOTAL3 TEMPAVG PRESSURE GPRESSURE VOLUME PRESSAVG GPRESSAVG
ENERGY: 225000 2.8418 5.4807 4.0483 0.0000 -22189.5625 3489.3621 0.0000 0.0000 2209.9533 -16477.8762 210.9444 -18687.8295 -16474.8041 210.9444 574.6097 663.1149 51193.6575 574.6097 663.1149
ENERGY: 235000 4.5968 5.7944 7.4231 0.0000 -21038.5450 3027.7951 0.0000 0.0000 2536.5483 -15456.3872 242.1186 -17992.9355 -15451.6871 240.0121 -150.2485 -59.0457 51593.8855 0.2937 0.3402
ENERGY: 245000 3.3431 3.4493 5.3377 0.0000 -21024.1724 3048.3929 0.0000 0.0000 2556.5307 -15407.1186 244.0259 -17963.6493 -15399.9827 239.7264 -79.4886 -0.6324 51730.6922 -0.3705 -0.2632
ENERGY: 255000 3.4332 6.8867 4.1800 0.0000 -21085.6101 3049.8172 0.0000 0.0000 2492.9395 -15528.3535 237.9560 -18021.2930 -15524.8650 240.8795 -239.7039 -128.2983 51879.1192 -0.6955 0.0298
ENERGY: 265000 2.7261 9.7836 4.1562 0.0000 -21251.7915 3196.8572 0.0000 0.0000 2553.0910 -15485.1774 243.6976 -18038.2684 -15479.1384 239.9651 559.5570 645.0003 51450.5898 3.0244 2.7628
ENERGY: 275000 4.5148 5.9696 5.1605 0.0000 -21271.4180 3183.0374 0.0000 0.0000 2529.7775 -15542.9582 241.4723 -18072.7357 -15537.7304 240.3672 309.9649 408.5072 51667.2205 2.5287 2.4953
TCL: Running 50000 steps at 270 kelvin.
TCL: Setting parameter langevinTemp to 270
TCL: Running for 50000 steps
ETITLE: TS BOND ANGLE DIHED IMPRP ELECT VDW BOUNDARY MISC KINETIC TOTAL TEMP POTENTIAL TOTAL3 TEMPAVG PRESSURE GPRESSURE VOLUME PRESSAVG GPRESSAVG
ENERGY: 275000 4.5148 5.9696 5.1605 0.0000 -21271.4180 3183.0374 0.0000 0.0000 2528.5288 -15544.2069 241.3531 -18072.7357 -15539.6188 241.3531 324.3034 409.6675 51667.2205 324.3034 409.6675
ENERGY: 285000 4.3873 4.5363 7.2465 0.0000 -19805.0678 2685.0705 0.0000 0.0000 2839.1337 -14264.6935 271.0010 -17103.8273 -14259.7863 271.6235 -342.6871 -273.3486 52995.9966 5.8687 5.2286
ENERGY: 295000 4.4986 4.5959 3.4743 0.0000 -20054.5604 2812.7928 0.0000 0.0000 2904.1593 -14325.0394 277.2078 -17229.1987 -14317.4174 269.6142 -64.1508 -9.6288 53232.7888 4.8964 5.0186
ENERGY: 305000 3.2764 5.5350 5.3575 0.0000 -19808.3101 2649.3011 0.0000 0.0000 2817.6273 -14327.2129 268.9481 -17144.8401 -14323.5543 269.8088 -629.9036 -568.7385 53494.5478 5.6333 5.9317
ENERGY: 315000 2.9205 5.4242 6.6797 0.0000 -19950.1185 2797.6740 0.0000 0.0000 2814.0004 -14323.4197 268.6019 -17137.4201 -14316.2179 271.2629 153.0359 251.1473 52645.8708 2.1094 1.6223
ENERGY: 325000 2.4097 8.8184 5.8835 0.0000 -20163.8367 2885.4981 0.0000 0.0000 2805.5270 -14455.7000 267.7931 -17261.2270 -14450.4566 271.4806 220.7389 330.5815 52917.1666 4.8159 4.6127
TCL: Running 1000000 steps at 300 kelvin.
TCL: Setting parameter langevinTemp to 300
TCL: Running for 1000000 steps
ETITLE: TS BOND ANGLE DIHED IMPRP ELECT VDW BOUNDARY MISC KINETIC TOTAL TEMP POTENTIAL TOTAL3 TEMPAVG PRESSURE GPRESSURE VOLUME PRESSAVG GPRESSAVG
ENERGY: 325000 2.4097 8.8184 5.8835 0.0000 -20163.8367 2885.4981 0.0000 0.0000 2804.0999 -14457.1271 267.6569 -17261.2270 -14452.5723 267.6569 248.8982 330.3200 52917.1666 248.8982 330.3200
ENERGY: 525000 3.9854 4.4378 7.9759 0.0000 -19092.3745 2527.4213 0.0000 0.0000 3090.3032 -13458.2509 294.9756 -16548.5541 -13455.5043 298.6597 -301.4389 -231.6930 54207.1980 1.8402 2.1555
ENERGY: 725000 1.9924 5.9536 6.4783 0.0000 -19152.6597 2580.4331 0.0000 0.0000 3118.6951 -13439.1072 297.6857 -16557.8023 -13433.9156 299.8610 211.9029 243.0042 53702.8706 3.8454 3.4248
ENERGY: 925000 8.6014 6.3384 3.6969 0.0000 -19037.2762 2590.7623 0.0000 0.0000 3129.2404 -13298.6368 298.6922 -16427.8772 -13293.5587 301.3563 135.9404 219.4551 54320.8880 3.6936 3.7018
ENERGY: 1125000 8.8914 6.0392 8.8729 0.0000 -19135.0433 2605.4843 0.0000 0.0000 3212.8356 -13292.9200 306.6715 -16505.7555 -13286.3645 299.1784 -71.2818 -4.3893 54654.9283 -1.4894 -0.7961
ENERGY: 1325000 4.0985 6.3877 6.9750 0.0000 -19000.1809 2530.4264 0.0000 0.0000 3113.2465 -13339.0467 297.1656 -16452.2932 -13335.7962 300.8745 -266.1788 -152.4681 54597.5228 1.1588 0.4813
TCL: Exiting due to exit command.
