Info: SIMULATION PARAMETERS:
Info: TIMESTEP               2
Info: NUMBER OF STEPS        0
Info: STEPS PER CYCLE        10
Info: PERIODIC CELL BASIS 1  34.207 0 0
Info: PERIODIC CELL BASIS 2  0 35.847 0
Info: PERIODIC CELL BASIS 3  0 0 36.199
Info: PERIODIC CELL CENTER   0 0 0
Info: WRAPPING WATERS AROUND PERIODIC BOUNDARIES ON OUTPUT.
Info: WRAPPING ALL CLUSTERS AROUND PERIODIC BOUNDARIES ON OUTPUT.
Info: FIRST LDB TIMESTEP     50
Info: LAST LDB TIMESTEP     -1
Info: HOM BACKGROUND SCALING 1
Info: PME BACKGROUND SCALING 1
Info: MIN ATOMS PER PATCH    40
Info: EMPTY PATCH LOAD       40 ATOMS
Info: INITIAL TEMPERATURE    300
Info: CENTER OF MASS MOVING INITIALLY? NO
Info: DIELECTRIC             1
Info: EXCLUDE                SCALED ONE-FOUR
Info: 1-4 ELECTROSTATICS SCALED BY 0.833333
Info: MODIFIED 1-4 VDW PARAMETERS WILL BE USED
Info: DCD FILENAME           mobley_6239320_equil.dcd
Info: DCD FREQUENCY          100000
Info: DCD FIRST STEP         100000
Info: DCD FILE WILL CONTAIN UNIT CELL DATA
Info: XST FILENAME           mobley_6239320_equil.xst
Info: XST FREQUENCY          100000
Info: NO VELOCITY DCD OUTPUT
Info: NO FORCE DCD OUTPUT
Info: OUTPUT FILENAME        mobley_6239320_equil
Info: BINARY OUTPUT FILES WILL BE USED
Info: RESTART FILENAME       mobley_6239320_equil.restart
Info: RESTART FREQUENCY      100000
Info: BINARY RESTART FILES WILL BE USED
Info: CUTOFF                 9
Info: PAIRLIST DISTANCE      11
Info: PAIRLIST SHRINK RATE   0.01
Info: PAIRLIST GROW RATE     0.01
Info: PAIRLIST TRIGGER       0.3
Info: PAIRLISTS PER CYCLE    2
Info: PAIRLISTS ENABLED
Info: MARGIN                 8
Info: HYDROGEN GROUP CUTOFF  2.5
Info: PATCH DIMENSION        21.5
Info: ENERGY OUTPUT STEPS    100000
Info: ENERGY EVALUATION STEPS    100000
Info: OUTPUT ENERGY PRECISION 4
Info: CROSSTERM ENERGY INCLUDED IN DIHEDRAL
Info: TIMING OUTPUT STEPS    1000000
Info: PRESSURE OUTPUT STEPS  100000
Info: LANGEVIN DYNAMICS ACTIVE
Info: LANGEVIN TEMPERATURE   30
Info: LANGEVIN USING BBK INTEGRATOR
Info: LANGEVIN DAMPING COEFFICIENT IS 1 INVERSE PS
Info: LANGEVIN DYNAMICS APPLIED TO HYDROGENS
Info: LANGEVIN PISTON PRESSURE CONTROL ACTIVE
Info:        TARGET PRESSURE IS 1.01325 BAR
Info:     OSCILLATION PERIOD IS 50 FS
Info:             DECAY TIME IS 25 FS
Info:     PISTON TEMPERATURE IS 300 K
Info:       PRESSURE CONTROL IS GROUP-BASED
Info:    INITIAL STRAIN RATE IS 0 0 0
Info:       CELL FLUCTUATION IS ISOTROPIC
Info: PARTICLE MESH EWALD (PME) ACTIVE
Info: PME TOLERANCE               1e-06
Info: PME EWALD COEFFICIENT       0.348832
Info: PME INTERPOLATION ORDER     4
Info: PME GRID DIMENSIONS         36 36 40
Info: PME MAXIMUM GRID SPACING    1
Info: FULL ELECTROSTATIC EVALUATION FREQUENCY      2
Info: USING VERLET I (r-RESPA) MTS SCHEME.
Info: C1 SPLITTING OF LONG RANGE ELECTROSTATICS
Info: PLACING ATOMS IN PATCHES BY HYDROGEN GROUPS
Info: RIGID BONDS TO HYDROGEN : ALL
Info:         ERROR TOLERANCE : 1e-08
Info:          MAX ITERATIONS : 100
Info: RIGID WATER USING SETTLE ALGORITHM
Info: RANDOM NUMBER SEED     1742143935
Info: USE HYDROGEN BONDS?    NO
Info: Using AMBER format force field!
Info: AMBER PARM FILE        mobley_6239320.prmtop
Info: COORDINATE PDB         mobley_6239320.pdb
Info: Exclusions will be read from PARM file!
Info: SCNB (VDW SCALING)     2
Info: USING ARITHMETIC MEAN TO COMBINE L-J SIGMA PARAMETERS
Info: BINARY COORDINATES     mobley_6239320_min.coor
Info: SUMMARY OF PARAMETERS:
Info: 5 BONDS
Info: 4 ANGLES
Info:   4 HARMONIC
Info:   0 COSINE-BASED
Info: 4 DIHEDRAL
Info: 0 IMPROPER
Info: 0 CROSSTERM
Info: 0 VDW
Info: 21 VDW_PAIRS
Info: 0 NBTHOLE_PAIRS
Info: STRUCTURE SUMMARY:
Info: 2997 ATOMS
Info: 2997 BONDS
Info: 18 ANGLES
Info: 36 DIHEDRALS
Info: 0 IMPROPERS
Info: 0 CROSSTERMS
Info: 3036 EXCLUSIONS
Info: 2988 RIGID BONDS
Info: 6003 DEGREES OF FREEDOM
Info: 1004 HYDROGEN GROUPS
Info: 3 ATOMS IN LARGEST HYDROGEN GROUP
Info: 1004 MIGRATION GROUPS
Info: 3 ATOMS IN LARGEST MIGRATION GROUP
Info: TOTAL MASS = 18055 amu
Info: TOTAL CHARGE = 0.000199944 e
Info: MASS DENSITY = 0.675449 g/cm^3
Info: ATOM DENSITY = 0.0675184 atoms/A^3
Info: ADDED 0 IMPLICIT EXCLUSIONS
Info: NONBONDED TABLE R-SQUARED SPACING: 0.0625
Info: NONBONDED TABLE SIZE: 705 POINTS
Info: REMOVING COM VELOCITY 0.146381 0.0953647 0.103095
TCL: Running for 100000 steps
ETITLE: TS BOND ANGLE DIHED IMPRP ELECT VDW BOUNDARY MISC KINETIC TOTAL TEMP POTENTIAL TOTAL3 TEMPAVG PRESSURE GPRESSURE VOLUME PRESSAVG GPRESSAVG
ENERGY: 0 4.2872 0.2922 24.1568 0.0000 -14379.4838 2481.6562 0.0000 0.0000 1795.0303 -10074.0611 300.9496 -11869.0914 -10073.7055 300.9496 607.0486 635.4325 44387.8773 607.0486 635.4325
ENERGY: 100000 5.7755 0.3841 25.0142 0.0000 -15057.7294 2691.0393 0.0000 0.0000 173.4611 -12162.0552 29.0820 -12335.5163 -12161.6554 30.9430 1621.6943 1668.9363 28781.5599 3.4188 3.4557
TCL: Running 100000 steps at 60 kelvin.
TCL: Setting parameter langevinTemp to 60
TCL: Running for 100000 steps
ETITLE: TS BOND ANGLE DIHED IMPRP ELECT VDW BOUNDARY MISC KINETIC TOTAL TEMP POTENTIAL TOTAL3 TEMPAVG PRESSURE GPRESSURE VOLUME PRESSAVG GPRESSAVG
ENERGY: 100000 5.7755 0.3841 25.0142 0.0000 -15057.7294 2691.0393 0.0000 0.0000 173.3754 -12162.1409 29.0676 -12335.5163 -12161.8509 29.0676 1613.4367 1669.0625 28781.5599 1613.4367 1669.0625
ENERGY: 200000 4.4919 0.7595 25.1692 0.0000 -14616.2079 2324.7404 0.0000 0.0000 358.2577 -11902.7892 60.0645 -12261.0469 -11901.6765 59.8887 -1090.9469 -1027.6093 28940.6551 4.0818 4.1527
TCL: Running 100000 steps at 90 kelvin.
TCL: Setting parameter langevinTemp to 90
TCL: Running for 100000 steps
ETITLE: TS BOND ANGLE DIHED IMPRP ELECT VDW BOUNDARY MISC KINETIC TOTAL TEMP POTENTIAL TOTAL3 TEMPAVG PRESSURE GPRESSURE VOLUME PRESSAVG GPRESSAVG
ENERGY: 200000 4.4919 0.7595 25.1692 0.0000 -14616.2079 2324.7404 0.0000 0.0000 358.0798 -11902.9671 60.0346 -12261.0470 -11902.2320 60.0346 -1095.6142 -1027.6823 28940.6551 -1095.6142 -1027.6823
ENERGY: 300000 7.4774 0.9945 24.6491 0.0000 -14741.7461 2488.2432 0.0000 0.0000 536.6566 -11683.7254 89.9743 -12220.3820 -11683.5840 90.0596 650.2005 706.3586 28510.3288 4.6316 4.5520
TCL: Running 100000 steps at 120 kelvin.
TCL: Setting parameter langevinTemp to 120
TCL: Running for 100000 steps
ETITLE: TS BOND ANGLE DIHED IMPRP ELECT VDW BOUNDARY MISC KINETIC TOTAL TEMP POTENTIAL TOTAL3 TEMPAVG PRESSURE GPRESSURE VOLUME PRESSAVG GPRESSAVG
ENERGY: 300000 7.4774 0.9945 24.6491 0.0000 -14741.7461 2488.2432 0.0000 0.0000 536.3971 -11683.9849 89.9308 -12220.3820 -11682.9083 89.9308 648.8584 705.0921 28510.3288 648.8584 705.0921
ENERGY: 400000 5.8540 1.4389 24.7112 0.0000 -14460.2016 2369.4466 0.0000 0.0000 704.7045 -11354.0464 118.1487 -12058.7509 -11351.9880 119.7626 101.0004 150.3804 28838.1949 3.5685 3.5032
TCL: Running 100000 steps at 150 kelvin.
TCL: Setting parameter langevinTemp to 150
TCL: Running for 100000 steps
ETITLE: TS BOND ANGLE DIHED IMPRP ELECT VDW BOUNDARY MISC KINETIC TOTAL TEMP POTENTIAL TOTAL3 TEMPAVG PRESSURE GPRESSURE VOLUME PRESSAVG GPRESSAVG
ENERGY: 400000 5.8540 1.4389 24.7112 0.0000 -14460.2016 2369.4466 0.0000 0.0000 704.3454 -11354.4056 118.0885 -12058.7509 -11353.2679 118.0885 99.8622 150.9636 28838.1949 99.8622 150.9636
ENERGY: 500000 3.2125 0.7423 24.9185 0.0000 -14185.4163 2313.6562 0.0000 0.0000 882.5262 -10960.3606 147.9618 -11842.8868 -10959.0611 150.2761 365.2910 454.9336 28795.9017 3.7926 3.8772
TCL: Running 100000 steps at 180 kelvin.
TCL: Setting parameter langevinTemp to 180
TCL: Running for 100000 steps
ETITLE: TS BOND ANGLE DIHED IMPRP ELECT VDW BOUNDARY MISC KINETIC TOTAL TEMP POTENTIAL TOTAL3 TEMPAVG PRESSURE GPRESSURE VOLUME PRESSAVG GPRESSAVG
ENERGY: 500000 3.2125 0.7423 24.9185 0.0000 -14185.4163 2313.6562 0.0000 0.0000 882.0919 -10960.7949 147.8890 -11842.8868 -10959.1883 147.8890 408.1526 454.8200 28795.9017 408.1526 454.8200
ENERGY: 600000 5.4384 2.8044 26.2942 0.0000 -13733.4519 2137.6857 0.0000 0.0000 1099.4946 -10461.7347 184.3381 -11561.2293 -10460.9944 180.0426 7.4464 36.7057 29191.4664 2.4812 2.5923
TCL: Running 100000 steps at 210 kelvin.
TCL: Setting parameter langevinTemp to 210
TCL: Running for 100000 steps
ETITLE: TS BOND ANGLE DIHED IMPRP ELECT VDW BOUNDARY MISC KINETIC TOTAL TEMP POTENTIAL TOTAL3 TEMPAVG PRESSURE GPRESSURE VOLUME PRESSAVG GPRESSAVG
ENERGY: 600000 5.4384 2.8044 26.2942 0.0000 -13733.4519 2137.6857 0.0000 0.0000 1098.9585 -10462.2708 184.2482 -11561.2293 -10460.5142 184.2482 -16.0320 36.7724 29191.4664 -16.0320 36.7724
ENERGY: 700000 8.0048 1.2633 27.1324 0.0000 -13153.6906 2039.6913 0.0000 0.0000 1217.9503 -9859.6485 204.1981 -11077.5988 -9859.5786 209.8762 1039.5684 1119.2200 28940.9080 3.3356 3.3398
TCL: Running 100000 steps at 240 kelvin.
TCL: Setting parameter langevinTemp to 240
TCL: Running for 100000 steps
ETITLE: TS BOND ANGLE DIHED IMPRP ELECT VDW BOUNDARY MISC KINETIC TOTAL TEMP POTENTIAL TOTAL3 TEMPAVG PRESSURE GPRESSURE VOLUME PRESSAVG GPRESSAVG
ENERGY: 700000 8.0048 1.2633 27.1324 0.0000 -13153.6906 2039.6913 0.0000 0.0000 1217.3126 -9860.2861 204.0912 -11077.5988 -9858.5310 204.0912 1046.2637 1117.1126 28940.9080 1046.2637 1117.1126
ENERGY: 800000 10.5543 2.5399 25.7175 0.0000 -12393.1641 1740.6095 0.0000 0.0000 1429.7849 -9183.9580 239.7136 -10613.7429 -9181.2074 239.8075 106.2771 118.4872 29474.2235 2.6671 2.8505
TCL: Running 100000 steps at 270 kelvin.
TCL: Setting parameter langevinTemp to 270
TCL: Running for 100000 steps
ETITLE: TS BOND ANGLE DIHED IMPRP ELECT VDW BOUNDARY MISC KINETIC TOTAL TEMP POTENTIAL TOTAL3 TEMPAVG PRESSURE GPRESSURE VOLUME PRESSAVG GPRESSAVG
ENERGY: 800000 10.5543 2.5399 25.7175 0.0000 -12393.1641 1740.6095 0.0000 0.0000 1429.0868 -9184.6561 239.5966 -10613.7429 -9182.0661 239.5966 41.7549 117.7573 29474.2235 41.7549 117.7573
ENERGY: 900000 8.0712 4.8327 25.2365 0.0000 -11870.8546 1632.9328 0.0000 0.0000 1669.0031 -8530.7783 279.8203 -10199.7814 -8527.5983 270.0247 19.3101 126.7279 30627.6363 3.3394 3.2742
TCL: Running 1000000 steps at 300 kelvin.
TCL: Setting parameter langevinTemp to 300
TCL: Running for 1000000 steps
ETITLE: TS BOND ANGLE DIHED IMPRP ELECT VDW BOUNDARY MISC KINETIC TOTAL TEMP POTENTIAL TOTAL3 TEMPAVG PRESSURE GPRESSURE VOLUME PRESSAVG GPRESSAVG
ENERGY: 900000 8.0712 4.8327 25.2365 0.0000 -11870.8546 1632.9328 0.0000 0.0000 1668.2031 -8531.5783 279.6862 -10199.7814 -8529.8531 279.6862 46.6097 126.4664 30627.6363 46.6097 126.4664
ENERGY: 1100000 7.9504 3.2477 26.4721 0.0000 -11349.9224 1496.7694 0.0000 0.0000 1830.0022 -7985.4805 306.8129 -9815.4827 -7982.7424 300.9883 244.3915 321.3953 30954.0374 1.5611 1.5211
ENERGY: 1300000 4.7483 5.4432 27.9461 0.0000 -11229.8151 1443.7532 0.0000 0.0000 1749.3331 -7998.5911 293.2882 -9747.9242 -7996.7944 300.6973 -115.6801 -31.2537 31026.2854 1.8205 1.7494
ENERGY: 1500000 7.1470 2.7403 25.7723 0.0000 -11216.1479 1440.8086 0.0000 0.0000 1854.9860 -7884.6937 311.0016 -9739.6797 -7879.7056 299.8426 124.0506 221.9643 30878.9806 4.0399 3.8428
ENERGY: 1700000 4.9619 3.0952 25.6049 0.0000 -11246.0389 1463.7600 0.0000 0.0000 1760.8558 -7987.7611 295.2200 -9748.6168 -7983.6594 299.9688 453.1034 515.9861 30394.8310 2.2630 2.3577
ENERGY: 1900000 6.7897 2.0572 29.0443 0.0000 -11175.5843 1381.3491 0.0000 0.0000 1796.4945 -7959.8496 301.1951 -9756.3441 -7955.9604 300.5730 -851.2776 -799.1357 31607.8236 2.7413 2.7742
TCL: Exiting due to exit command.
