Info: SIMULATION PARAMETERS:
Info: TIMESTEP               2
Info: NUMBER OF STEPS        0
Info: STEPS PER CYCLE        10
Info: PERIODIC CELL BASIS 1  38.861 0 0
Info: PERIODIC CELL BASIS 2  0 40.343 0
Info: PERIODIC CELL BASIS 3  0 0 40.136
Info: PERIODIC CELL CENTER   0 0 0
Info: WRAPPING WATERS AROUND PERIODIC BOUNDARIES ON OUTPUT.
Info: WRAPPING ALL CLUSTERS AROUND PERIODIC BOUNDARIES ON OUTPUT.
Info: FIRST LDB TIMESTEP     50
Info: LAST LDB TIMESTEP     -1
Info: HOM BACKGROUND SCALING 1
Info: PME BACKGROUND SCALING 1
Info: MIN ATOMS PER PATCH    40
Info: EMPTY PATCH LOAD       40 ATOMS
Info: INITIAL TEMPERATURE    300
Info: CENTER OF MASS MOVING INITIALLY? NO
Info: DIELECTRIC             1
Info: EXCLUDE                SCALED ONE-FOUR
Info: 1-4 ELECTROSTATICS SCALED BY 0.833333
Info: MODIFIED 1-4 VDW PARAMETERS WILL BE USED
Info: DCD FILENAME           mobley_3395921_min.dcd
Info: DCD FREQUENCY          5000
Info: DCD FIRST STEP         5000
Info: DCD FILE WILL CONTAIN UNIT CELL DATA
Info: XST FILENAME           mobley_3395921_min.xst
Info: XST FREQUENCY          5000
Info: NO VELOCITY DCD OUTPUT
Info: NO FORCE DCD OUTPUT
Info: OUTPUT FILENAME        mobley_3395921_min
Info: BINARY OUTPUT FILES WILL BE USED
Info: RESTART FILENAME       mobley_3395921_min.restart
Info: RESTART FREQUENCY      5000
Info: BINARY RESTART FILES WILL BE USED
Info: CUTOFF                 9
Info: PAIRLIST DISTANCE      11
Info: PAIRLIST SHRINK RATE   0.01
Info: PAIRLIST GROW RATE     0.01
Info: PAIRLIST TRIGGER       0.3
Info: PAIRLISTS PER CYCLE    2
Info: PAIRLISTS ENABLED
Info: MARGIN                 8
Info: HYDROGEN GROUP CUTOFF  2.5
Info: PATCH DIMENSION        21.5
Info: ENERGY OUTPUT STEPS    5000
Info: ENERGY EVALUATION STEPS    5000
Info: OUTPUT ENERGY PRECISION 4
Info: CROSSTERM ENERGY INCLUDED IN DIHEDRAL
Info: TIMING OUTPUT STEPS    50000
Info: PRESSURE OUTPUT STEPS  5000
Info: LANGEVIN DYNAMICS ACTIVE
Info: LANGEVIN TEMPERATURE   300
Info: LANGEVIN USING BBK INTEGRATOR
Info: LANGEVIN DAMPING COEFFICIENT IS 1 INVERSE PS
Info: LANGEVIN DYNAMICS APPLIED TO HYDROGENS
Info: LANGEVIN PISTON PRESSURE CONTROL ACTIVE
Info:        TARGET PRESSURE IS 1.01325 BAR
Info:     OSCILLATION PERIOD IS 50 FS
Info:             DECAY TIME IS 25 FS
Info:     PISTON TEMPERATURE IS 300 K
Info:       PRESSURE CONTROL IS GROUP-BASED
Info:    INITIAL STRAIN RATE IS 0 0 0
Info:       CELL FLUCTUATION IS ISOTROPIC
Info: PARTICLE MESH EWALD (PME) ACTIVE
Info: PME TOLERANCE               1e-06
Info: PME EWALD COEFFICIENT       0.348832
Info: PME INTERPOLATION ORDER     4
Info: PME GRID DIMENSIONS         40 44 44
Info: PME MAXIMUM GRID SPACING    1
Info: FULL ELECTROSTATIC EVALUATION FREQUENCY      2
Info: USING VERLET I (r-RESPA) MTS SCHEME.
Info: C1 SPLITTING OF LONG RANGE ELECTROSTATICS
Info: PLACING ATOMS IN PATCHES BY HYDROGEN GROUPS
Info: RIGID BONDS TO HYDROGEN : ALL
Info:         ERROR TOLERANCE : 1e-08
Info:          MAX ITERATIONS : 100
Info: RIGID WATER USING SETTLE ALGORITHM
Info: RANDOM NUMBER SEED     1741330945
Info: USE HYDROGEN BONDS?    NO
Info: Using AMBER format force field!
Info: AMBER PARM FILE        mobley_3395921.prmtop
Info: COORDINATE PDB         mobley_3395921.pdb
Info: Exclusions will be read from PARM file!
Info: SCNB (VDW SCALING)     2
Info: USING ARITHMETIC MEAN TO COMBINE L-J SIGMA PARAMETERS
Info: SUMMARY OF PARAMETERS:
Info: 6 BONDS
Info: 8 ANGLES
Info:   8 HARMONIC
Info:   0 COSINE-BASED
Info: 10 DIHEDRAL
Info: 0 IMPROPER
Info: 0 CROSSTERM
Info: 0 VDW
Info: 21 VDW_PAIRS
Info: 0 NBTHOLE_PAIRS
Info: STRUCTURE SUMMARY:
Info: 4609 ATOMS
Info: 4609 BONDS
Info: 31 ANGLES
Info: 50 DIHEDRALS
Info: 0 IMPROPERS
Info: 0 CROSSTERMS
Info: 4679 EXCLUSIONS
Info: 4603 RIGID BONDS
Info: 9224 DEGREES OF FREEDOM
Info: 1537 HYDROGEN GROUPS
Info: 3 ATOMS IN LARGEST HYDROGEN GROUP
Info: 1537 MIGRATION GROUPS
Info: 3 ATOMS IN LARGEST MIGRATION GROUP
Info: TOTAL MASS = 27668.6 amu
Info: TOTAL CHARGE = -0.000300013 e
Info: MASS DENSITY = 0.730181 g/cm^3
Info: ATOM DENSITY = 0.0732471 atoms/A^3
Info: ADDED 0 IMPLICIT EXCLUSIONS
Info: NONBONDED TABLE R-SQUARED SPACING: 0.0625
Info: NONBONDED TABLE SIZE: 705 POINTS
Info: REMOVING COM VELOCITY -0.00753403 0.108842 0.0163094
TCL: Minimizing for 2000 steps
ETITLE: TS BOND ANGLE DIHED IMPRP ELECT VDW BOUNDARY MISC KINETIC TOTAL TEMP POTENTIAL TOTAL3 TEMPAVG PRESSURE GPRESSURE VOLUME PRESSAVG GPRESSAVG
ENERGY: 0 0.1184 1.1758 2.0724 0.0000 -14415.4499 1648.3182 0.0000 0.0000 0.0000 -12763.7650 0.0000 -12763.7650 -12763.7650 0.0000 11304.5495 -16094.0917 62923.9895 11304.5495 -16094.0917
ENERGY: 400 2.5810 3.1085 2.2473 0.0000 -19263.0489 2761.1578 0.0000 0.0000 0.0000 -16493.9543 0.0000 -16493.9543 -16493.9543 0.0000 15705.5234 15834.1178 62923.9895 15705.5234 15834.1178
ENERGY: 800 0.8335 1.0850 2.1946 0.0000 -20599.6809 3451.3491 0.0000 0.0000 0.0000 -17144.2188 0.0000 -17144.2188 -17144.2188 0.0000 19154.3885 19286.8717 62923.9895 19154.3885 19286.8717
ENERGY: 1200 0.5341 0.6583 1.8856 0.0000 -20909.4603 3576.3237 0.0000 0.0000 0.0000 -17330.0586 0.0000 -17330.0586 -17330.0586 0.0000 19835.2228 19945.4912 62923.9895 19835.2228 19945.4912
ENERGY: 1600 0.4435 0.4278 1.9721 0.0000 -21134.5248 3687.3086 0.0000 0.0000 0.0000 -17444.3728 0.0000 -17444.3728 -17444.3728 0.0000 20440.4885 20549.3554 62923.9895 20440.4885 20549.3554
ENERGY: 2000 0.2295 0.3865 2.0499 0.0000 -21232.4902 3723.5931 0.0000 0.0000 0.0000 -17506.2312 0.0000 -17506.2312 -17506.2312 0.0000 20644.6667 20741.4208 62923.9895 20644.6667 20741.4208
TCL: Exiting due to exit command.
Info: NAMD 3.0.1 for Linux-x86_64-multicore
Info: Please visit http://www.ks.uiuc.edu/Research/namd/
Info: for updates, documentation, and support information.
Info: Please cite Phillips et al., J. Chem. Phys. 153:044130 (2020) doi:10.1063/5.0014475
Info: in all publications reporting results obtained with NAMD.
Info: Based on Charm++/Converse 80000 for multicore-linux-x86_64-gcc
Info: Built Mon Oct 14 11:11:06 CDT 2024 by dhardy on athine.ks.uiuc.edu
Info: 1 NAMD  3.0.1  Linux-x86_64-multicore  16    k029  z5358697
Info: Running on 16 processors, 1 nodes, 1 physical nodes.
Info: CPU topology information available.
Info: Charm++/Converse parallel runtime startup completed at 0.00552821 s
Info: 1043.45 MB of memory in use based on /proc/self/stat
Info: Configuration file is mobley_3395921_equil.namd
Info: Working in the current directory /srv/scratch/z5358697/prod_prep_4/3395921
TCL: Running 25000 steps at 30 kelvin.
TCL: Suspending until startup complete.
Info: SIMULATION PARAMETERS:
Info: TIMESTEP               2
Info: NUMBER OF STEPS        0
Info: STEPS PER CYCLE        10
Info: PERIODIC CELL BASIS 1  38.861 0 0
Info: PERIODIC CELL BASIS 2  0 40.343 0
Info: PERIODIC CELL BASIS 3  0 0 40.136
Info: PERIODIC CELL CENTER   0 0 0
Info: WRAPPING WATERS AROUND PERIODIC BOUNDARIES ON OUTPUT.
Info: WRAPPING ALL CLUSTERS AROUND PERIODIC BOUNDARIES ON OUTPUT.
Info: FIRST LDB TIMESTEP     50
Info: LAST LDB TIMESTEP     -1
Info: HOM BACKGROUND SCALING 1
Info: PME BACKGROUND SCALING 1
Info: MIN ATOMS PER PATCH    40
Info: EMPTY PATCH LOAD       40 ATOMS
Info: INITIAL TEMPERATURE    300
Info: CENTER OF MASS MOVING INITIALLY? NO
Info: DIELECTRIC             1
Info: EXCLUDE                SCALED ONE-FOUR
Info: 1-4 ELECTROSTATICS SCALED BY 0.833333
Info: MODIFIED 1-4 VDW PARAMETERS WILL BE USED
Info: DCD FILENAME           mobley_3395921_equil.dcd
Info: DCD FREQUENCY          5000
Info: DCD FIRST STEP         5000
Info: DCD FILE WILL CONTAIN UNIT CELL DATA
Info: XST FILENAME           mobley_3395921_equil.xst
Info: XST FREQUENCY          5000
Info: NO VELOCITY DCD OUTPUT
Info: NO FORCE DCD OUTPUT
Info: OUTPUT FILENAME        mobley_3395921_equil
Info: BINARY OUTPUT FILES WILL BE USED
Info: RESTART FILENAME       mobley_3395921_equil.restart
Info: RESTART FREQUENCY      5000
Info: BINARY RESTART FILES WILL BE USED
Info: CUTOFF                 9
Info: PAIRLIST DISTANCE      11
Info: PAIRLIST SHRINK RATE   0.01
Info: PAIRLIST GROW RATE     0.01
Info: PAIRLIST TRIGGER       0.3
Info: PAIRLISTS PER CYCLE    2
Info: PAIRLISTS ENABLED
Info: MARGIN                 8
Info: HYDROGEN GROUP CUTOFF  2.5
Info: PATCH DIMENSION        21.5
Info: ENERGY OUTPUT STEPS    5000
Info: ENERGY EVALUATION STEPS    5000
Info: OUTPUT ENERGY PRECISION 4
Info: CROSSTERM ENERGY INCLUDED IN DIHEDRAL
Info: TIMING OUTPUT STEPS    50000
Info: PRESSURE OUTPUT STEPS  5000
Info: LANGEVIN DYNAMICS ACTIVE
Info: LANGEVIN TEMPERATURE   30
Info: LANGEVIN USING BBK INTEGRATOR
Info: LANGEVIN DAMPING COEFFICIENT IS 1 INVERSE PS
Info: LANGEVIN DYNAMICS APPLIED TO HYDROGENS
Info: LANGEVIN PISTON PRESSURE CONTROL ACTIVE
Info:        TARGET PRESSURE IS 1.01325 BAR
Info:     OSCILLATION PERIOD IS 50 FS
Info:             DECAY TIME IS 25 FS
Info:     PISTON TEMPERATURE IS 300 K
Info:       PRESSURE CONTROL IS GROUP-BASED
Info:    INITIAL STRAIN RATE IS 0 0 0
Info:       CELL FLUCTUATION IS ISOTROPIC
Info: PARTICLE MESH EWALD (PME) ACTIVE
Info: PME TOLERANCE               1e-06
Info: PME EWALD COEFFICIENT       0.348832
Info: PME INTERPOLATION ORDER     4
Info: PME GRID DIMENSIONS         40 44 44
Info: PME MAXIMUM GRID SPACING    1
Info: FULL ELECTROSTATIC EVALUATION FREQUENCY      2
Info: USING VERLET I (r-RESPA) MTS SCHEME.
Info: C1 SPLITTING OF LONG RANGE ELECTROSTATICS
Info: PLACING ATOMS IN PATCHES BY HYDROGEN GROUPS
Info: RIGID BONDS TO HYDROGEN : ALL
Info:         ERROR TOLERANCE : 1e-08
Info:          MAX ITERATIONS : 100
Info: RIGID WATER USING SETTLE ALGORITHM
Info: RANDOM NUMBER SEED     1741330961
Info: USE HYDROGEN BONDS?    NO
Info: Using AMBER format force field!
Info: AMBER PARM FILE        mobley_3395921.prmtop
Info: COORDINATE PDB         mobley_3395921.pdb
Info: Exclusions will be read from PARM file!
Info: SCNB (VDW SCALING)     2
Info: USING ARITHMETIC MEAN TO COMBINE L-J SIGMA PARAMETERS
Info: BINARY COORDINATES     mobley_3395921_min.coor
Info: SUMMARY OF PARAMETERS:
Info: 6 BONDS
Info: 8 ANGLES
Info:   8 HARMONIC
Info:   0 COSINE-BASED
Info: 10 DIHEDRAL
Info: 0 IMPROPER
Info: 0 CROSSTERM
Info: 0 VDW
Info: 21 VDW_PAIRS
Info: 0 NBTHOLE_PAIRS
Info: STRUCTURE SUMMARY:
Info: 4609 ATOMS
Info: 4609 BONDS
Info: 31 ANGLES
Info: 50 DIHEDRALS
Info: 0 IMPROPERS
Info: 0 CROSSTERMS
Info: 4679 EXCLUSIONS
Info: 4603 RIGID BONDS
Info: 9224 DEGREES OF FREEDOM
Info: 1537 HYDROGEN GROUPS
Info: 3 ATOMS IN LARGEST HYDROGEN GROUP
Info: 1537 MIGRATION GROUPS
Info: 3 ATOMS IN LARGEST MIGRATION GROUP
Info: TOTAL MASS = 27668.6 amu
Info: TOTAL CHARGE = -0.000300013 e
Info: MASS DENSITY = 0.730181 g/cm^3
Info: ATOM DENSITY = 0.0732471 atoms/A^3
Info: ADDED 0 IMPLICIT EXCLUSIONS
Info: NONBONDED TABLE R-SQUARED SPACING: 0.0625
Info: NONBONDED TABLE SIZE: 705 POINTS
Info: REMOVING COM VELOCITY 0.0814134 -0.0270806 -0.164622
TCL: Running for 25000 steps
ETITLE: TS BOND ANGLE DIHED IMPRP ELECT VDW BOUNDARY MISC KINETIC TOTAL TEMP POTENTIAL TOTAL3 TEMPAVG PRESSURE GPRESSURE VOLUME PRESSAVG GPRESSAVG
ENERGY: 0 0.2295 0.3865 2.0499 0.0000 -21232.4902 3723.5931 0.0000 0.0000 2762.1593 -14744.0719 301.3837 -17506.2312 -14743.5016 301.3837 422.9489 458.0343 62923.9895 422.9489 458.0343
ENERGY: 5000 0.5914 0.6971 2.1010 0.0000 -22166.0192 3867.1061 0.0000 0.0000 274.4987 -18021.0249 29.9510 -18295.5236 -18020.2071 47.7652 -8.8202 54.9979 44995.3631 6.8066 6.6377
ENERGY: 10000 0.5470 0.8063 2.2756 0.0000 -22274.7097 3938.3750 0.0000 0.0000 275.9732 -18056.7327 30.1119 -18332.7059 -18055.8966 30.0713 302.0129 340.9131 44887.3746 6.1240 6.0533
ENERGY: 15000 0.4918 0.9762 2.0785 0.0000 -22031.4624 3691.0054 0.0000 0.0000 275.4237 -18061.4868 30.0519 -18336.9105 -18060.8048 29.9946 -1097.5804 -1028.6607 45295.7905 7.7203 7.7478
ENERGY: 20000 0.5790 0.7648 2.0933 0.0000 -22240.1337 3893.4953 0.0000 0.0000 280.3655 -18062.8359 30.5911 -18343.2014 -18061.9390 30.1781 30.3442 80.7173 45035.3022 7.9879 8.1547
ENERGY: 25000 0.5987 0.8110 2.2462 0.0000 -22141.9993 3793.1708 0.0000 0.0000 279.1032 -18066.0696 30.4534 -18345.1727 -18065.3113 30.1199 -477.1689 -439.9436 45055.2554 4.1966 4.0562
TCL: Running 25000 steps at 60 kelvin.
TCL: Setting parameter langevinTemp to 60
TCL: Running for 25000 steps
ETITLE: TS BOND ANGLE DIHED IMPRP ELECT VDW BOUNDARY MISC KINETIC TOTAL TEMP POTENTIAL TOTAL3 TEMPAVG PRESSURE GPRESSURE VOLUME PRESSAVG GPRESSAVG
ENERGY: 25000 0.5987 0.8110 2.2462 0.0000 -22141.9993 3793.1708 0.0000 0.0000 278.9671 -18066.2057 30.4386 -18345.1727 -18065.6054 30.4386 -489.1868 -439.8412 45055.2554 -489.1868 -439.8412
ENERGY: 30000 1.1416 1.2578 1.8580 0.0000 -21721.7751 3643.5432 0.0000 0.0000 558.4830 -17515.4915 60.9370 -18073.9745 -17514.6235 56.9775 -680.5867 -650.6803 45357.2480 3.3360 3.2544
ENERGY: 35000 0.2497 0.9291 2.1232 0.0000 -21986.4689 3843.7716 0.0000 0.0000 553.2044 -17586.1909 60.3610 -18139.3953 -17585.1690 60.1653 358.3556 390.5509 45044.7409 8.9181 8.8887
ENERGY: 40000 0.5091 2.3109 2.2897 0.0000 -22060.6388 3877.8932 0.0000 0.0000 554.4489 -17623.1870 60.4968 -18177.6359 -17621.3313 60.0901 334.2291 371.2771 45141.3536 3.4751 3.6872
ENERGY: 45000 0.4549 1.3105 2.2949 0.0000 -22051.4006 3835.0080 0.0000 0.0000 556.4713 -17655.8611 60.7175 -18212.3324 -17654.5666 60.2089 34.9321 89.9019 45091.6936 0.7480 0.5073
ENERGY: 50000 0.8060 2.0798 2.1326 0.0000 -22193.1224 3977.8706 0.0000 0.0000 549.5216 -17660.7119 59.9592 -18210.2335 -17659.2452 59.8064 863.6434 895.4908 44772.9154 5.1434 4.7551
TCL: Running 25000 steps at 90 kelvin.
TCL: Setting parameter langevinTemp to 90
TCL: Running for 25000 steps
ETITLE: TS BOND ANGLE DIHED IMPRP ELECT VDW BOUNDARY MISC KINETIC TOTAL TEMP POTENTIAL TOTAL3 TEMPAVG PRESSURE GPRESSURE VOLUME PRESSAVG GPRESSAVG
ENERGY: 50000 0.8060 2.0798 2.1326 0.0000 -22193.1224 3977.8706 0.0000 0.0000 549.2482 -17660.9853 59.9294 -18210.2335 -17659.9627 59.9294 848.8373 895.6689 44772.9154 848.8373 895.6689
ENERGY: 55000 0.2230 2.3111 2.5582 0.0000 -21677.3383 3767.6293 0.0000 0.0000 826.5879 -17078.0288 90.1904 -17904.6167 -17075.7923 87.1698 512.4179 531.9741 45184.9148 4.1791 4.2409
ENERGY: 60000 1.7371 2.5074 2.0378 0.0000 -21514.5981 3565.2731 0.0000 0.0000 812.0572 -17130.9855 88.6049 -17943.0428 -17128.5279 89.6018 -727.2583 -708.7641 45450.2967 3.4813 3.6863
ENERGY: 65000 1.2662 2.1758 2.3957 0.0000 -21658.3345 3666.8400 0.0000 0.0000 831.0575 -17154.5991 90.6781 -17985.6567 -17151.2605 90.4800 -208.4201 -168.6186 45113.3232 2.3176 2.0276
ENERGY: 70000 0.6540 4.0920 2.5583 0.0000 -21556.0791 3571.0409 0.0000 0.0000 820.1616 -17157.5724 89.4892 -17977.7340 -17155.3681 90.8444 -775.9098 -742.2752 45460.3421 2.9674 3.2111
ENERGY: 75000 0.0501 2.4996 2.5273 0.0000 -21871.5793 3857.4648 0.0000 0.0000 849.3925 -17159.6451 92.6786 -18009.0376 -17157.5217 90.0187 750.5613 812.2447 44906.3541 4.1646 4.3452
TCL: Running 25000 steps at 120 kelvin.
TCL: Setting parameter langevinTemp to 120
TCL: Running for 25000 steps
ETITLE: TS BOND ANGLE DIHED IMPRP ELECT VDW BOUNDARY MISC KINETIC TOTAL TEMP POTENTIAL TOTAL3 TEMPAVG PRESSURE GPRESSURE VOLUME PRESSAVG GPRESSAVG
ENERGY: 75000 0.0501 2.4996 2.5273 0.0000 -21871.5793 3857.4648 0.0000 0.0000 848.9687 -17160.0690 92.6324 -18009.0376 -17158.5093 92.6324 763.4069 812.6966 44906.3541 763.4069 812.6966
ENERGY: 80000 0.8185 2.0872 2.4492 0.0000 -21234.0458 3521.1245 0.0000 0.0000 1129.9574 -16577.6090 123.2915 -17707.5663 -16575.0637 116.7577 -388.3811 -331.8720 45618.7253 5.4799 5.0817
ENERGY: 85000 0.8142 2.6370 1.9712 0.0000 -21310.1256 3542.3819 0.0000 0.0000 1096.6762 -16665.6452 119.6601 -17762.3215 -16662.0803 120.7126 -490.2754 -450.3946 45599.1073 4.8259 4.7936
ENERGY: 90000 0.3150 3.0633 2.0509 0.0000 -21339.8693 3563.4955 0.0000 0.0000 1095.5393 -16675.4052 119.5361 -17770.9445 -16671.3421 119.2189 -308.1351 -242.6296 45380.3641 7.6788 7.7331
ENERGY: 95000 1.1317 3.5213 2.0266 0.0000 -21387.7189 3588.4044 0.0000 0.0000 1104.5158 -16688.1192 120.5155 -17792.6350 -16685.4749 119.7954 -177.9782 -137.3845 45367.5297 -1.8087 -1.5357
ENERGY: 100000 0.9504 3.8466 2.5456 0.0000 -21289.6081 3496.6604 0.0000 0.0000 1112.7877 -16672.8174 121.4181 -17785.6051 -16670.8417 119.3863 -598.6157 -538.6621 45240.5321 1.9999 1.9297
TCL: Running 25000 steps at 150 kelvin.
TCL: Setting parameter langevinTemp to 150
TCL: Running for 25000 steps
ETITLE: TS BOND ANGLE DIHED IMPRP ELECT VDW BOUNDARY MISC KINETIC TOTAL TEMP POTENTIAL TOTAL3 TEMPAVG PRESSURE GPRESSURE VOLUME PRESSAVG GPRESSAVG
ENERGY: 100000 0.9504 3.8466 2.5456 0.0000 -21289.6081 3496.6604 0.0000 0.0000 1112.2328 -16673.3723 121.3575 -17785.6051 -16671.2601 121.3575 -589.2015 -539.0286 45240.5321 -589.2015 -539.0286
ENERGY: 105000 0.8746 2.5019 1.8955 0.0000 -20926.8415 3535.7991 0.0000 0.0000 1338.9027 -16046.8677 146.0899 -17385.7704 -16044.5358 147.8228 437.0561 520.7821 45336.1149 -3.4031 -3.1053
ENERGY: 110000 0.9985 2.4944 2.0975 0.0000 -20877.6491 3419.2676 0.0000 0.0000 1401.4711 -16051.3200 152.9168 -17452.7911 -16048.5578 149.9670 -217.5438 -168.6290 45233.8968 2.5495 2.6873
ENERGY: 115000 0.4240 4.2963 2.1433 0.0000 -20929.2302 3414.3721 0.0000 0.0000 1409.5660 -16098.4284 153.8001 -17507.9944 -16094.0089 151.9446 -468.1096 -363.4541 45204.1297 6.5830 6.4113
ENERGY: 120000 1.5428 3.8877 2.2265 0.0000 -20835.0623 3336.6618 0.0000 0.0000 1395.8777 -16094.8657 152.3065 -17490.7435 -16092.1416 150.4182 -629.4654 -539.1122 44773.7099 3.2713 3.3474
ENERGY: 125000 1.7193 5.5670 1.9725 0.0000 -20977.4692 3502.9322 0.0000 0.0000 1380.3832 -16084.8950 150.6159 -17465.2781 -16082.5490 150.9966 207.8081 313.5808 44882.6957 1.8853 1.7105
TCL: Running 50000 steps at 180 kelvin.
TCL: Setting parameter langevinTemp to 180
TCL: Running for 50000 steps
ETITLE: TS BOND ANGLE DIHED IMPRP ELECT VDW BOUNDARY MISC KINETIC TOTAL TEMP POTENTIAL TOTAL3 TEMPAVG PRESSURE GPRESSURE VOLUME PRESSAVG GPRESSAVG
ENERGY: 125000 1.7193 5.5670 1.9725 0.0000 -20977.4692 3502.9322 0.0000 0.0000 1379.6976 -16085.5806 150.5411 -17465.2782 -16083.3058 150.5411 236.5160 313.2028 44882.6957 236.5160 313.2028
ENERGY: 135000 2.9807 4.4890 1.9978 0.0000 -20371.1440 3278.0427 0.0000 0.0000 1668.0110 -15415.6229 181.9994 -17083.6339 -15412.2405 180.2106 -148.4675 -94.3058 45237.4807 1.1527 1.4190
ENERGY: 145000 3.5612 5.0813 2.0308 0.0000 -20424.2235 3285.6537 0.0000 0.0000 1612.9172 -15514.9794 175.9880 -17127.8965 -15511.5640 179.7830 -249.4873 -183.6447 45349.3102 6.4778 6.6842
ENERGY: 155000 1.8847 4.6970 2.6843 0.0000 -20447.6885 3318.4097 0.0000 0.0000 1638.5553 -15481.4574 178.7855 -17120.0128 -15478.2429 180.1364 11.0090 58.9058 45088.7960 2.1223 1.5978
ENERGY: 165000 1.9232 5.3125 3.0049 0.0000 -20484.1275 3327.8483 0.0000 0.0000 1646.5366 -15499.5019 179.6563 -17146.0385 -15495.0023 180.6051 -97.5283 -34.2753 45223.3639 -2.2230 -2.4907
ENERGY: 175000 2.3820 6.7789 2.1422 0.0000 -20313.1440 3161.9877 0.0000 0.0000 1622.8153 -15517.0380 177.0680 -17139.8533 -15511.8656 181.6226 -898.4150 -820.7193 45493.6673 7.0263 7.2028
TCL: Running 50000 steps at 210 kelvin.
TCL: Setting parameter langevinTemp to 210
TCL: Running for 50000 steps
ETITLE: TS BOND ANGLE DIHED IMPRP ELECT VDW BOUNDARY MISC KINETIC TOTAL TEMP POTENTIAL TOTAL3 TEMPAVG PRESSURE GPRESSURE VOLUME PRESSAVG GPRESSAVG
ENERGY: 175000 2.3820 6.7789 2.1422 0.0000 -20313.1440 3161.9877 0.0000 0.0000 1621.9656 -15517.8877 176.9753 -17139.8533 -15514.7442 176.9753 -887.1134 -819.6359 45493.6673 -887.1134 -819.6359
ENERGY: 185000 1.6587 3.6752 2.3162 0.0000 -19514.6113 3045.9238 0.0000 0.0000 1905.5376 -14555.4998 207.9163 -16461.0373 -14549.7763 210.0813 207.9988 321.3454 45028.4464 -0.0254 -0.1612
ENERGY: 195000 1.4853 7.5951 2.3016 0.0000 -19449.4445 2922.2579 0.0000 0.0000 1932.9525 -14582.8521 210.9076 -16515.8046 -14577.8279 209.3996 -260.5088 -164.4178 44645.2894 1.1058 0.6635
ENERGY: 205000 1.4968 4.1974 2.7547 0.0000 -19404.1308 2964.4189 0.0000 0.0000 1890.2409 -14541.0223 206.2473 -16431.2632 -14538.2708 210.5687 56.4994 94.5187 44805.7092 -0.8378 -0.5999
ENERGY: 215000 0.4079 7.8581 2.7301 0.0000 -19391.3724 2957.6115 0.0000 0.0000 1879.0581 -14543.7067 205.0271 -16422.7648 -14539.6282 209.8951 -88.0729 25.8253 44933.1570 2.7461 2.6748
ENERGY: 225000 1.2483 3.1871 1.9813 0.0000 -19574.5090 3078.6417 0.0000 0.0000 1943.3674 -14546.0831 212.0440 -16489.4505 -14543.4868 210.2182 674.0883 681.3654 44545.7672 1.5861 1.4079
TCL: Running 50000 steps at 240 kelvin.
TCL: Setting parameter langevinTemp to 240
TCL: Running for 50000 steps
ETITLE: TS BOND ANGLE DIHED IMPRP ELECT VDW BOUNDARY MISC KINETIC TOTAL TEMP POTENTIAL TOTAL3 TEMPAVG PRESSURE GPRESSURE VOLUME PRESSAVG GPRESSAVG
ENERGY: 225000 1.2483 3.1871 1.9813 0.0000 -19574.5090 3078.6417 0.0000 0.0000 1942.4215 -14547.0290 211.9408 -16489.4505 -14543.5168 211.9408 599.5887 680.8968 44545.7672 599.5887 680.8968
ENERGY: 235000 2.7981 5.0679 2.0635 0.0000 -18748.4631 2980.9298 0.0000 0.0000 2171.5328 -13586.0710 236.9395 -15757.6038 -13582.1655 238.3043 1397.2176 1474.1061 45174.2536 1.0895 0.5380
ENERGY: 245000 2.3001 6.3447 2.8473 0.0000 -18533.4105 2760.0127 0.0000 0.0000 2193.2001 -13568.7056 239.3037 -15761.9056 -13564.5032 240.2371 290.6841 370.0454 45212.9272 5.3969 4.8990
ENERGY: 255000 0.1988 8.3630 2.3255 0.0000 -18612.2998 2765.8742 0.0000 0.0000 2185.3164 -13650.2220 238.4435 -15835.5384 -13646.8369 240.4198 75.1024 168.7177 45685.0486 0.8790 0.9028
ENERGY: 265000 1.2292 6.4233 2.3476 0.0000 -18477.3251 2676.0192 0.0000 0.0000 2205.8760 -13585.4298 240.6868 -15791.3058 -13579.4667 239.2733 -42.3205 39.2371 45189.0523 4.7905 4.7631
ENERGY: 275000 0.6417 3.9349 2.5270 0.0000 -18645.2861 2801.4378 0.0000 0.0000 2218.8389 -13617.9058 242.1012 -15836.7447 -13611.8853 238.1760 505.7861 621.5635 45049.3174 5.9791 5.5204
TCL: Running 50000 steps at 270 kelvin.
TCL: Setting parameter langevinTemp to 270
TCL: Running for 50000 steps
ETITLE: TS BOND ANGLE DIHED IMPRP ELECT VDW BOUNDARY MISC KINETIC TOTAL TEMP POTENTIAL TOTAL3 TEMPAVG PRESSURE GPRESSURE VOLUME PRESSAVG GPRESSAVG
ENERGY: 275000 0.6417 3.9349 2.5270 0.0000 -18645.2861 2801.4378 0.0000 0.0000 2217.7434 -13619.0013 241.9816 -15836.7447 -13615.6409 241.9816 545.6270 622.5652 45049.3174 545.6270 622.5652
ENERGY: 285000 0.9898 5.7978 2.4309 0.0000 -17471.5180 2411.4861 0.0000 0.0000 2517.5212 -12533.2922 274.6909 -15050.8134 -12531.7239 271.6171 -99.3588 -25.2622 46177.4871 -2.6107 -2.9914
ENERGY: 295000 1.0165 5.7202 2.3358 0.0000 -17521.7072 2392.2192 0.0000 0.0000 2428.9902 -12691.4253 265.0311 -15120.4155 -12685.2966 269.3356 -332.9160 -242.0815 46021.9072 4.6599 4.7707
ENERGY: 305000 0.7171 5.8955 3.2764 0.0000 -17344.6495 2302.5064 0.0000 0.0000 2464.9505 -12567.3035 268.9548 -15032.2541 -12560.8025 272.0661 -755.0927 -691.9991 46455.5396 -2.0279 -2.0429
ENERGY: 315000 3.2622 7.0174 2.5365 0.0000 -17658.6859 2483.1197 0.0000 0.0000 2484.6040 -12678.1461 271.0992 -15162.7501 -12675.8318 269.5941 165.1988 297.5339 45774.9814 5.8830 5.2853
ENERGY: 325000 3.5011 5.1097 2.4827 0.0000 -17495.5366 2465.1007 0.0000 0.0000 2486.3799 -12532.9625 271.2930 -15019.3424 -12527.5481 270.8006 16.1718 115.2394 46757.0980 0.1068 -0.2399
TCL: Running 1000000 steps at 300 kelvin.
TCL: Setting parameter langevinTemp to 300
TCL: Running for 1000000 steps
ETITLE: TS BOND ANGLE DIHED IMPRP ELECT VDW BOUNDARY MISC KINETIC TOTAL TEMP POTENTIAL TOTAL3 TEMPAVG PRESSURE GPRESSURE VOLUME PRESSAVG GPRESSAVG
ENERGY: 325000 3.5011 5.1097 2.4827 0.0000 -17495.5366 2465.1007 0.0000 0.0000 2485.1706 -12534.1718 271.1610 -15019.3424 -12529.7016 271.1610 33.7618 115.4694 46757.0980 33.7618 115.4694
ENERGY: 525000 2.7613 7.6816 3.7598 0.0000 -16689.5324 2156.4943 0.0000 0.0000 2750.2286 -11768.6067 300.0820 -14518.8353 -11764.0675 300.1744 -476.1553 -410.4140 47310.9717 1.0332 1.1842
ENERGY: 725000 1.2217 6.7973 2.6752 0.0000 -16702.5731 2119.0914 0.0000 0.0000 2718.0765 -11854.7109 296.5738 -14572.7875 -11847.6964 301.4067 -782.1926 -722.8888 47208.6099 -0.2219 0.5484
ENERGY: 925000 3.9306 6.7039 3.8463 0.0000 -16917.0902 2329.0843 0.0000 0.0000 2705.3708 -11868.1543 295.1874 -14573.5251 -11863.2326 300.4194 138.2683 191.3793 47639.9892 3.9673 3.3679
ENERGY: 1125000 2.7470 8.8067 2.5684 0.0000 -16653.8437 2234.7238 0.0000 0.0000 2748.1740 -11656.8237 299.8578 -14404.9977 -11652.6083 298.2422 -63.2103 31.3421 47607.4487 4.3895 4.8221
ENERGY: 1325000 4.2366 6.0279 2.4364 0.0000 -16689.9075 2237.9307 0.0000 0.0000 2716.1552 -11723.1207 296.3642 -14439.2759 -11720.8869 299.8673 -219.6988 -128.5074 47858.3968 1.3624 0.8565
TCL: Exiting due to exit command.
