Info: SIMULATION PARAMETERS:
Info: TIMESTEP               2
Info: NUMBER OF STEPS        0
Info: STEPS PER CYCLE        10
Info: PERIODIC CELL BASIS 1  34.207 0 0
Info: PERIODIC CELL BASIS 2  0 35.267 0
Info: PERIODIC CELL BASIS 3  0 0 35.856
Info: PERIODIC CELL CENTER   0 0 0
Info: WRAPPING WATERS AROUND PERIODIC BOUNDARIES ON OUTPUT.
Info: WRAPPING ALL CLUSTERS AROUND PERIODIC BOUNDARIES ON OUTPUT.
Info: FIRST LDB TIMESTEP     50
Info: LAST LDB TIMESTEP     -1
Info: HOM BACKGROUND SCALING 1
Info: PME BACKGROUND SCALING 1
Info: MIN ATOMS PER PATCH    40
Info: EMPTY PATCH LOAD       40 ATOMS
Info: INITIAL TEMPERATURE    300
Info: CENTER OF MASS MOVING INITIALLY? NO
Info: DIELECTRIC             1
Info: EXCLUDE                SCALED ONE-FOUR
Info: 1-4 ELECTROSTATICS SCALED BY 0.833333
Info: MODIFIED 1-4 VDW PARAMETERS WILL BE USED
Info: DCD FILENAME           mobley_9557440_equil.dcd
Info: DCD FREQUENCY          100000
Info: DCD FIRST STEP         100000
Info: DCD FILE WILL CONTAIN UNIT CELL DATA
Info: XST FILENAME           mobley_9557440_equil.xst
Info: XST FREQUENCY          100000
Info: NO VELOCITY DCD OUTPUT
Info: NO FORCE DCD OUTPUT
Info: OUTPUT FILENAME        mobley_9557440_equil
Info: BINARY OUTPUT FILES WILL BE USED
Info: RESTART FILENAME       mobley_9557440_equil.restart
Info: RESTART FREQUENCY      100000
Info: BINARY RESTART FILES WILL BE USED
Info: CUTOFF                 9
Info: PAIRLIST DISTANCE      11
Info: PAIRLIST SHRINK RATE   0.01
Info: PAIRLIST GROW RATE     0.01
Info: PAIRLIST TRIGGER       0.3
Info: PAIRLISTS PER CYCLE    2
Info: PAIRLISTS ENABLED
Info: MARGIN                 8
Info: HYDROGEN GROUP CUTOFF  2.5
Info: PATCH DIMENSION        21.5
Info: ENERGY OUTPUT STEPS    100000
Info: ENERGY EVALUATION STEPS    100000
Info: OUTPUT ENERGY PRECISION 4
Info: CROSSTERM ENERGY INCLUDED IN DIHEDRAL
Info: TIMING OUTPUT STEPS    1000000
Info: PRESSURE OUTPUT STEPS  100000
Info: FIXED ATOMS ACTIVE
Info: LANGEVIN DYNAMICS ACTIVE
Info: LANGEVIN TEMPERATURE   30
Info: LANGEVIN USING BBK INTEGRATOR
Info: LANGEVIN DAMPING COEFFICIENT IS 1 INVERSE PS
Info: LANGEVIN DYNAMICS APPLIED TO HYDROGENS
Info: LANGEVIN PISTON PRESSURE CONTROL ACTIVE
Info:        TARGET PRESSURE IS 1.01325 BAR
Info:     OSCILLATION PERIOD IS 50 FS
Info:             DECAY TIME IS 25 FS
Info:     PISTON TEMPERATURE IS 300 K
Info:       PRESSURE CONTROL IS GROUP-BASED
Info:    INITIAL STRAIN RATE IS 0 0 0
Info:       CELL FLUCTUATION IS ISOTROPIC
Info: PARTICLE MESH EWALD (PME) ACTIVE
Info: PME TOLERANCE               1e-06
Info: PME EWALD COEFFICIENT       0.348832
Info: PME INTERPOLATION ORDER     4
Info: PME GRID DIMENSIONS         36 36 36
Info: PME MAXIMUM GRID SPACING    1
Info: FULL ELECTROSTATIC EVALUATION FREQUENCY      2
Info: USING VERLET I (r-RESPA) MTS SCHEME.
Info: C1 SPLITTING OF LONG RANGE ELECTROSTATICS
Info: PLACING ATOMS IN PATCHES BY HYDROGEN GROUPS
Info: RIGID BONDS TO HYDROGEN : ALL
Info:         ERROR TOLERANCE : 1e-08
Info:          MAX ITERATIONS : 100
Info: RIGID WATER USING SETTLE ALGORITHM
Info: RANDOM NUMBER SEED     1742206002
Info: USE HYDROGEN BONDS?    NO
Info: Using AMBER format force field!
Info: AMBER PARM FILE        mobley_9557440.prmtop
Info: COORDINATE PDB         mobley_9557440.pdb
Info: Exclusions will be read from PARM file!
Info: SCNB (VDW SCALING)     2
Info: USING ARITHMETIC MEAN TO COMBINE L-J SIGMA PARAMETERS
Info: BINARY COORDINATES     mobley_9557440_min.coor
Info: SUMMARY OF PARAMETERS:
Info: 10 BONDS
Info: 14 ANGLES
Info:   14 HARMONIC
Info:   0 COSINE-BASED
Info: 7 DIHEDRAL
Info: 0 IMPROPER
Info: 0 CROSSTERM
Info: 0 VDW
Info: 36 VDW_PAIRS
Info: 0 NBTHOLE_PAIRS
Info: STRUCTURE SUMMARY:
Info: 2925 ATOMS
Info: 2925 BONDS
Info: 18 ANGLES
Info: 31 DIHEDRALS
Info: 0 IMPROPERS
Info: 0 CROSSTERMS
Info: 2964 EXCLUSIONS
Info: 12 FIXED ATOMS
Info: 2916 RIGID BONDS
Info: 3 RIGID BONDS BETWEEN FIXED ATOMS
Info: 5826 DEGREES OF FREEDOM
Info: 980 HYDROGEN GROUPS
Info: 3 ATOMS IN LARGEST HYDROGEN GROUP
Info: 980 MIGRATION GROUPS
Info: 3 ATOMS IN LARGEST MIGRATION GROUP
Info: 9 HYDROGEN GROUPS WITH ALL ATOMS FIXED
Info: TOTAL MASS = 17640.1 amu
Info: TOTAL CHARGE = 0.000100046 e
Info: MASS DENSITY = 0.677196 g/cm^3
Info: ATOM DENSITY = 0.0676208 atoms/A^3
Info: ADDED 0 IMPLICIT EXCLUSIONS
Info: NONBONDED TABLE R-SQUARED SPACING: 0.0625
Info: NONBONDED TABLE SIZE: 705 POINTS
Info: REMOVING COM VELOCITY -0.256053 0.216259 0.0237642
TCL: Running for 100000 steps
ETITLE: TS BOND ANGLE DIHED IMPRP ELECT VDW BOUNDARY MISC KINETIC TOTAL TEMP POTENTIAL TOTAL3 TEMPAVG PRESSURE GPRESSURE VOLUME PRESSAVG GPRESSAVG
ENERGY: 0 0.0000 0.0000 0.0000 0.0000 -13722.2266 2340.3312 0.0000 0.0000 1768.2893 -9613.6061 305.4733 -11381.8954 -9613.2817 305.4733 237.4141 271.5018 43255.8992 237.4141 271.5018
ENERGY: 100000 0.0000 0.0000 0.0000 0.0000 -14089.4812 2260.8916 0.0000 0.0000 178.1013 -11650.4883 30.7671 -11828.5896 -11649.9644 30.9491 -1482.6714 -1419.8290 29375.8148 3.8976 3.8913
TCL: Running 100000 steps at 60 kelvin.
TCL: Setting parameter langevinTemp to 60
TCL: Running for 100000 steps
ETITLE: TS BOND ANGLE DIHED IMPRP ELECT VDW BOUNDARY MISC KINETIC TOTAL TEMP POTENTIAL TOTAL3 TEMPAVG PRESSURE GPRESSURE VOLUME PRESSAVG GPRESSAVG
ENERGY: 100000 0.0000 0.0000 0.0000 0.0000 -14089.4812 2260.8916 0.0000 0.0000 178.0118 -11650.5779 30.7517 -11828.5896 -11650.1241 30.7517 -1483.9991 -1419.9181 29375.8148 -1483.9991 -1419.9181
ENERGY: 200000 0.0000 0.0000 0.0000 0.0000 -14162.2365 2400.8573 0.0000 0.0000 352.2303 -11409.1489 60.8480 -11761.3792 -11408.2623 59.9127 212.1504 263.9432 28452.9777 4.3390 4.2655
TCL: Running 100000 steps at 90 kelvin.
TCL: Setting parameter langevinTemp to 90
TCL: Running for 100000 steps
ETITLE: TS BOND ANGLE DIHED IMPRP ELECT VDW BOUNDARY MISC KINETIC TOTAL TEMP POTENTIAL TOTAL3 TEMPAVG PRESSURE GPRESSURE VOLUME PRESSAVG GPRESSAVG
ENERGY: 200000 0.0000 0.0000 0.0000 0.0000 -14162.2365 2400.8573 0.0000 0.0000 352.0572 -11409.3219 60.8181 -11761.3792 -11408.7782 60.8181 199.0923 264.1086 28452.9777 199.0923 264.1086
ENERGY: 300000 0.0000 0.0000 0.0000 0.0000 -14056.4073 2378.8487 0.0000 0.0000 526.1869 -11151.3717 90.8992 -11677.5586 -11150.0841 89.9336 291.6028 333.6400 28405.4812 4.3434 4.2956
TCL: Running 100000 steps at 120 kelvin.
TCL: Setting parameter langevinTemp to 120
TCL: Running for 100000 steps
ETITLE: TS BOND ANGLE DIHED IMPRP ELECT VDW BOUNDARY MISC KINETIC TOTAL TEMP POTENTIAL TOTAL3 TEMPAVG PRESSURE GPRESSURE VOLUME PRESSAVG GPRESSAVG
ENERGY: 300000 0.0000 0.0000 0.0000 0.0000 -14056.4073 2378.8487 0.0000 0.0000 525.9187 -11151.6399 90.8528 -11677.5586 -11150.5126 90.8528 279.9625 332.9413 28405.4812 279.9625 332.9413
ENERGY: 400000 0.0000 0.0000 0.0000 0.0000 -13801.2167 2265.2395 0.0000 0.0000 677.2613 -10858.7159 116.9974 -11535.9772 -10857.0194 119.8693 -230.9909 -153.1852 28606.0372 4.8167 4.8581
TCL: Running 100000 steps at 150 kelvin.
TCL: Setting parameter langevinTemp to 150
TCL: Running for 100000 steps
ETITLE: TS BOND ANGLE DIHED IMPRP ELECT VDW BOUNDARY MISC KINETIC TOTAL TEMP POTENTIAL TOTAL3 TEMPAVG PRESSURE GPRESSURE VOLUME PRESSAVG GPRESSAVG
ENERGY: 400000 0.0000 0.0000 0.0000 0.0000 -13801.2167 2265.2395 0.0000 0.0000 676.9186 -10859.0586 116.9382 -11535.9772 -10857.8921 116.9382 -207.5881 -152.8800 28606.0372 -207.5881 -152.8800
ENERGY: 500000 0.0000 0.0000 0.0000 0.0000 -13535.2715 2169.6659 0.0000 0.0000 850.8637 -10514.7418 146.9873 -11365.6056 -10512.6235 149.8502 -345.5308 -266.1034 28532.7474 3.8808 3.7742
TCL: Running 100000 steps at 180 kelvin.
TCL: Setting parameter langevinTemp to 180
TCL: Running for 100000 steps
ETITLE: TS BOND ANGLE DIHED IMPRP ELECT VDW BOUNDARY MISC KINETIC TOTAL TEMP POTENTIAL TOTAL3 TEMPAVG PRESSURE GPRESSURE VOLUME PRESSAVG GPRESSAVG
ENERGY: 500000 0.0000 0.0000 0.0000 0.0000 -13535.2715 2169.6659 0.0000 0.0000 850.4250 -10515.1806 146.9115 -11365.6056 -10513.2820 146.9115 -321.3656 -265.5776 28532.7474 -321.3656 -265.5776
ENERGY: 600000 0.0000 0.0000 0.0000 0.0000 -13134.0412 2038.0665 0.0000 0.0000 1046.0553 -10049.9194 180.7068 -11095.9747 -10046.2294 180.0488 -322.5076 -269.4789 28339.6409 4.2604 4.2075
TCL: Running 100000 steps at 210 kelvin.
TCL: Setting parameter langevinTemp to 210
TCL: Running for 100000 steps
ETITLE: TS BOND ANGLE DIHED IMPRP ELECT VDW BOUNDARY MISC KINETIC TOTAL TEMP POTENTIAL TOTAL3 TEMPAVG PRESSURE GPRESSURE VOLUME PRESSAVG GPRESSAVG
ENERGY: 600000 0.0000 0.0000 0.0000 0.0000 -13134.0412 2038.0665 0.0000 0.0000 1045.5243 -10050.4504 180.6151 -11095.9747 -10048.3642 180.6151 -339.9677 -267.9529 28339.6409 -339.9677 -267.9529
ENERGY: 700000 0.0000 0.0000 0.0000 0.0000 -12466.6624 1912.2130 0.0000 0.0000 1217.4528 -9336.9966 210.3159 -10554.4494 -9336.8055 210.1540 764.8694 816.6438 28235.2679 4.3309 4.4754
TCL: Running 100000 steps at 240 kelvin.
TCL: Setting parameter langevinTemp to 240
TCL: Running for 100000 steps
ETITLE: TS BOND ANGLE DIHED IMPRP ELECT VDW BOUNDARY MISC KINETIC TOTAL TEMP POTENTIAL TOTAL3 TEMPAVG PRESSURE GPRESSURE VOLUME PRESSAVG GPRESSAVG
ENERGY: 700000 0.0000 0.0000 0.0000 0.0000 -12466.6624 1912.2130 0.0000 0.0000 1216.8475 -9337.6019 210.2113 -10554.4494 -9335.8698 210.2113 748.6771 814.2786 28235.2679 748.6771 814.2786
ENERGY: 800000 0.0000 0.0000 0.0000 0.0000 -11762.1776 1608.9911 0.0000 0.0000 1362.7037 -8790.4828 235.4081 -10153.1865 -8787.5755 240.0577 -700.8061 -618.6599 28761.6661 4.3115 4.1913
TCL: Running 100000 steps at 270 kelvin.
TCL: Setting parameter langevinTemp to 270
TCL: Running for 100000 steps
ETITLE: TS BOND ANGLE DIHED IMPRP ELECT VDW BOUNDARY MISC KINETIC TOTAL TEMP POTENTIAL TOTAL3 TEMPAVG PRESSURE GPRESSURE VOLUME PRESSAVG GPRESSAVG
ENERGY: 800000 0.0000 0.0000 0.0000 0.0000 -11762.1776 1608.9911 0.0000 0.0000 1362.0429 -8791.1436 235.2939 -10153.1865 -8789.0365 235.2939 -702.4192 -619.0357 28761.6661 -702.4192 -619.0357
ENERGY: 900000 0.0000 0.0000 0.0000 0.0000 -11434.3159 1617.9198 0.0000 0.0000 1552.7879 -8263.6082 268.2452 -9816.3961 -8260.2582 270.0150 625.2487 750.9761 28966.5149 2.5131 2.2748
TCL: Running 1000000 steps at 300 kelvin.
TCL: Setting parameter langevinTemp to 300
TCL: Running for 1000000 steps
ETITLE: TS BOND ANGLE DIHED IMPRP ELECT VDW BOUNDARY MISC KINETIC TOTAL TEMP POTENTIAL TOTAL3 TEMPAVG PRESSURE GPRESSURE VOLUME PRESSAVG GPRESSAVG
ENERGY: 900000 0.0000 0.0000 0.0000 0.0000 -11434.3159 1617.9198 0.0000 0.0000 1552.0098 -8264.3863 268.1108 -9816.3961 -8262.1922 268.1108 656.5726 751.2172 28966.5149 656.5726 751.2172
ENERGY: 1100000 0.0000 0.0000 0.0000 0.0000 -10638.2088 1307.9315 0.0000 0.0000 1750.5191 -7579.7582 302.4035 -9330.2773 -7576.2454 300.7595 -838.8313 -727.8792 30209.3204 2.2986 2.1693
ENERGY: 1300000 0.0000 0.0000 0.0000 0.0000 -10699.1078 1382.2244 0.0000 0.0000 1679.1326 -7637.7508 290.0714 -9316.8834 -7635.7482 300.3707 -406.9542 -295.3090 30510.3113 2.9485 2.9031
ENERGY: 1500000 0.0000 0.0000 0.0000 0.0000 -10758.5834 1413.6671 0.0000 0.0000 1742.5399 -7602.3764 301.0251 -9344.9164 -7599.9682 300.2223 -222.6287 -149.3193 30486.0221 3.0723 3.2027
ENERGY: 1700000 0.0000 0.0000 0.0000 0.0000 -10789.6199 1383.7619 0.0000 0.0000 1781.0487 -7624.8093 307.6775 -9405.8580 -7622.2642 298.7094 -452.4845 -416.6114 30575.4378 2.8589 2.9139
ENERGY: 1900000 0.0000 0.0000 0.0000 0.0000 -10710.3985 1328.0488 0.0000 0.0000 1684.5950 -7697.7547 291.0150 -9382.3497 -7691.8333 300.5947 -868.5306 -800.4524 30224.3141 2.1155 2.3070
TCL: Exiting due to exit command.
