Info: SIMULATION PARAMETERS:
Info: TIMESTEP               1
Info: NUMBER OF STEPS        0
Info: STEPS PER CYCLE        10
Info: PERIODIC CELL BASIS 1  30 0 0
Info: PERIODIC CELL BASIS 2  0 30 0
Info: PERIODIC CELL BASIS 3  0 0 30
Info: PERIODIC CELL CENTER   0 0 0
Info: WRAPPING ALL CLUSTERS AROUND PERIODIC BOUNDARIES ON OUTPUT.
Info: FIRST LDB TIMESTEP     50
Info: LAST LDB TIMESTEP     -1
Info: HOM BACKGROUND SCALING 1
Info: MIN ATOMS PER PATCH    40
Info: EMPTY PATCH LOAD       40 ATOMS
Info: INITIAL TEMPERATURE    298
Info: CENTER OF MASS MOVING INITIALLY? NO
Info: DIELECTRIC             1
Info: EXCLUDE                SCALED ONE-FOUR
Info: 1-4 ELECTROSTATICS SCALED BY 1
Info: MODIFIED 1-4 VDW PARAMETERS WILL BE USED
Info: DCD FILENAME           output.dcd
Info: DCD FREQUENCY          2500
Info: DCD FIRST STEP         2500
Info: DCD FILE WILL CONTAIN UNIT CELL DATA
Info: NO EXTENDED SYSTEM TRAJECTORY OUTPUT
Info: NO VELOCITY DCD OUTPUT
Info: NO FORCE DCD OUTPUT
Info: OUTPUT FILENAME        output
Info: BINARY OUTPUT FILES WILL BE USED
Info: NO RESTART FILE
Info: SWITCHING ACTIVE
Info: SWITCHING ON           10
Info: SWITCHING OFF          12
Info: PAIRLIST DISTANCE      14
Info: PAIRLIST SHRINK RATE   0.01
Info: PAIRLIST GROW RATE     0.01
Info: PAIRLIST TRIGGER       0.3
Info: PAIRLISTS PER CYCLE    2
Info: PAIRLISTS ENABLED
Info: MARGIN                 0
Info: HYDROGEN GROUP CUTOFF  2.5
Info: PATCH DIMENSION        16.5
Info: ENERGY OUTPUT STEPS    2500
Info: ENERGY EVALUATION STEPS    2500
Info: OUTPUT ENERGY PRECISION 4
Info: CROSSTERM ENERGY INCLUDED IN DIHEDRAL
Info: TIMING OUTPUT STEPS    2500
Info: LANGEVIN DYNAMICS ACTIVE
Info: LANGEVIN TEMPERATURE   298
Info: LANGEVIN USING BBK INTEGRATOR
Info: LANGEVIN DAMPING COEFFICIENT IS 0.25 INVERSE PS
Info: LANGEVIN DYNAMICS NOT APPLIED TO HYDROGENS
Info: MULTILEVEL SUMMATION METHOD (MSM) FOR ELECTROSTATICS ACTIVE
Info: MSM WITH C1 CUBIC INTERPOLATION AND C2 TAYLOR SPLITTING
Info: FULL ELECTROSTATIC EVALUATION FREQUENCY      1
Info: USING VERLET I (r-RESPA) MTS SCHEME.
Info: C1 SPLITTING OF LONG RANGE ELECTROSTATICS
Info: PLACING ATOMS IN PATCHES BY HYDROGEN GROUPS
Info: RIGID BONDS TO HYDROGEN : ALL
Info:         ERROR TOLERANCE : 1e-08
Info:          MAX ITERATIONS : 100
Info: RIGID WATER USING SETTLE ALGORITHM
Info: RANDOM NUMBER SEED     1740237433
Info: USE HYDROGEN BONDS?    NO
Info: COORDINATE PDB         ionized.pdb
Info: STRUCTURE FILE         ionized.psf
Info: PARAMETER file: CHARMM format!
Info: PARAMETERS             par_all27_prot_lipid.inp
Info: USING ARITHMETIC MEAN TO COMBINE L-J SIGMA PARAMETERS
Info: SUMMARY OF PARAMETERS:
Info: 180 BONDS
Info: 447 ANGLES
Info: 566 DIHEDRAL
Info: 46 IMPROPER
Info: 6 CROSSTERM
Info: 119 VDW
Info: 0 VDW_PAIRS
Info: 0 NBTHOLE_PAIRS
Info: STRUCTURE SUMMARY:
Info: 2476 ATOMS
Info: 1650 BONDS
Info: 825 ANGLES
Info: 0 DIHEDRALS
Info: 0 IMPROPERS
Info: 0 CROSSTERMS
Info: 0 EXCLUSIONS
Info: 2475 RIGID BONDS
Info: 4953 DEGREES OF FREEDOM
Info: 826 HYDROGEN GROUPS
Info: 3 ATOMS IN LARGEST HYDROGEN GROUP
Info: 826 MIGRATION GROUPS
Info: 3 ATOMS IN LARGEST MIGRATION GROUP
Info: TOTAL MASS = 14885.7 amu
Info: TOTAL CHARGE = 1 e
Info: MASS DENSITY = 0.915513 g/cm^3
Info: ATOM DENSITY = 0.0917037 atoms/A^3
Info: ADDED 2475 IMPLICIT EXCLUSIONS
Info: NONBONDED TABLE R-SQUARED SPACING: 0.0625
Info: NONBONDED TABLE SIZE: 769 POINTS
Info: REMOVING COM VELOCITY -0.00335536 -0.015787 -0.361541
Info: MSM using C1 cubic interpolation
Info: MSM using C2 Taylor splitting function
Info: MSM block size decomposition along X is 8 grid points
Info: MSM block size decomposition along Y is 8 grid points
Info: MSM block size decomposition along Z is 8 grid points
Info: MSM grid spacing along X is 2.5 A
Info: MSM grid spacing along Y is 2.5 A
Info: MSM grid spacing along Z is 2.5 A
Info: MSM using 3 levels
Info:     level 0:  [0..11] x [0..11] x [0..11]
Info:     level 1:  [0..5] x [0..5] x [0..5]
Info:     level 2:  [0..2] x [0..2] x [0..2]
Info: MSM finished calculating stencils
Info: MSM finished creating map for grid levels
Info: MSM finished creating map for patches
Info: MSM has 9 interpolation / anterpolation objects (one per patch)
Info: MSM grid level 0 decomposed into 8 blocks ( 2 x 2 x 2 )
Info: MSM grid level 1 decomposed into 1 block ( 1 x 1 x 1 )
Info: MSM grid level 2 decomposed into 1 block ( 1 x 1 x 1 )
Info: MSM grid cutoff calculation decomposed into 783 work objects
TCL: Minimizing for 100 steps
ETITLE: TS BOND ANGLE DIHED IMPRP ELECT VDW BOUNDARY MISC KINETIC TOTAL TEMP POTENTIAL TOTAL3 TEMPAVG PRESSURE GPRESSURE VOLUME PRESSAVG GPRESSAVG
ENERGY: 0 0.0000 0.0000 0.0000 0.0000 -7348.6496 6353.7252 0.0000 0.0000 0.0000 -994.9244 0.0000 -994.9244 -994.9244 0.0000 75204.0846 46356.0498 27000.0000 75204.0846 46356.0498
ENERGY: 20 0.0000 0.0000 0.0000 0.0000 -8744.5976 644.7588 0.0000 0.0000 0.0000 -8099.8388 0.0000 -8099.8388 -8099.8388 0.0000 14286.6720 -2608.4250 27000.0000 14286.6720 -2608.4250
ENERGY: 40 0.0000 0.0000 0.0000 0.0000 -9255.3680 673.7887 0.0000 0.0000 0.0000 -8581.5793 0.0000 -8581.5793 -8581.5793 0.0000 14306.7125 -3612.4726 27000.0000 14306.7125 -3612.4726
ENERGY: 60 0.0000 0.0000 0.0000 0.0000 -9570.7008 738.1056 0.0000 0.0000 0.0000 -8832.5953 0.0000 -8832.5953 -8832.5953 0.0000 14889.9953 -3661.0808 27000.0000 14889.9953 -3661.0808
ENERGY: 80 0.0000 0.0000 0.0000 0.0000 -9709.8946 782.3627 0.0000 0.0000 0.0000 -8927.5319 0.0000 -8927.5319 -8927.5319 0.0000 15330.6827 -3519.6737 27000.0000 15330.6827 -3519.6737
ENERGY: 100 0.0000 0.0000 0.0000 0.0000 -9872.7652 825.2695 0.0000 0.0000 0.0000 -9047.4957 0.0000 -9047.4957 -9047.4957 0.0000 15763.5225 15685.6599 27000.0000 15763.5225 15685.6599
TCL: Running for 500000 steps
ETITLE: TS BOND ANGLE DIHED IMPRP ELECT VDW BOUNDARY MISC KINETIC TOTAL TEMP POTENTIAL TOTAL3 TEMPAVG PRESSURE GPRESSURE VOLUME PRESSAVG GPRESSAVG
ENERGY: 2500 0.0000 0.0000 0.0000 0.0000 -9529.7149 979.8961 0.0000 0.0000 1154.0857 -7395.7331 234.5093 -8549.8188 -7395.5612 224.3492 -2002.7821 -1999.5701 27000.0000 -2032.2452 -2032.2868
ENERGY: 102500 0.0000 0.0000 0.0000 0.0000 -8847.6154 844.8731 0.0000 0.0000 1493.0335 -6509.7088 303.3833 -8002.7424 -6509.0347 295.8783 -1187.0125 -1172.7089 27000.0000 -1401.2721 -1401.1060
ENERGY: 202500 0.0000 0.0000 0.0000 0.0000 -8854.6126 910.5057 0.0000 0.0000 1476.9246 -6467.1823 300.1099 -7944.1069 -6466.6409 299.8460 -465.8480 -468.2993 27000.0000 -1193.2935 -1193.4275
ENERGY: 300000 0.0000 0.0000 0.0000 0.0000 -8760.2882 811.9208 0.0000 0.0000 1465.1362 -6483.2313 297.7145 -7948.3675 -6482.3042 301.0649 -1522.7677 -1526.5293 27000.0000 -1288.4316 -1288.2734
ENERGY: 400000 0.0000 0.0000 0.0000 0.0000 -8756.7264 780.2614 0.0000 0.0000 1433.6654 -6542.7997 291.3197 -7976.4650 -6542.1496 294.9602 -1794.4183 -1786.6569 27000.0000 -1309.7989 -1309.8587
ENERGY: 500000 0.0000 0.0000 0.0000 0.0000 -8782.4957 806.9167 0.0000 0.0000 1538.4824 -6437.0966 312.6184 -7975.5790 -6436.5071 300.0315 -1445.0658 -1436.0641 27000.0000 -1100.5024 -1100.4664
