Info: SIMULATION PARAMETERS:
Info: TIMESTEP               2
Info: NUMBER OF STEPS        0
Info: STEPS PER CYCLE        10
Info: PERIODIC CELL BASIS 1  82.0244 0 0
Info: PERIODIC CELL BASIS 2  0 82.0244 0
Info: PERIODIC CELL BASIS 3  0 0 82.0244
Info: PERIODIC CELL CENTER   36.096 36.096 36.096
Info: WRAPPING ALL CLUSTERS AROUND PERIODIC BOUNDARIES ON OUTPUT.
Info: FIRST LDB TIMESTEP     50
Info: LAST LDB TIMESTEP     -1
Info: HOM BACKGROUND SCALING 1
Info: PME BACKGROUND SCALING 1
Info: MIN ATOMS PER PATCH    40
Info: EMPTY PATCH LOAD       40 ATOMS
Info: VELOCITY FILE          mobley_9246215_equilibrated.vel
Info: CENTER OF MASS MOVING INITIALLY? NO
Info: DIELECTRIC             1
Info: EXCLUDE                SCALED ONE-FOUR
Info: 1-4 ELECTROSTATICS SCALED BY 1
Info: MODIFIED 1-4 VDW PARAMETERS WILL BE USED
Info: DCD FILENAME           mobley_9246215_forwards.dcd
Info: DCD FREQUENCY          500
Info: DCD FIRST STEP         500
Info: DCD FILE WILL CONTAIN UNIT CELL DATA
Info: NO EXTENDED SYSTEM TRAJECTORY OUTPUT
Info: NO VELOCITY DCD OUTPUT
Info: NO FORCE DCD OUTPUT
Info: OUTPUT FILENAME        mobley_9246215_forwards
Info: BINARY OUTPUT FILES WILL BE USED
Info: NO RESTART FILE
Info: SWITCHING ACTIVE
Info: SWITCHING ON           10
Info: SWITCHING OFF          12
Info: PAIRLIST DISTANCE      14
Info: PAIRLIST SHRINK RATE   0.01
Info: PAIRLIST GROW RATE     0.01
Info: PAIRLIST TRIGGER       0.3
Info: PAIRLISTS PER CYCLE    2
Info: PAIRLISTS ENABLED
Info: MARGIN                 8
Info: HYDROGEN GROUP CUTOFF  2.5
Info: PATCH DIMENSION        24.5
Info: ENERGY OUTPUT STEPS    500
Info: ENERGY EVALUATION STEPS    500
Info: OUTPUT ENERGY PRECISION 4
Info: CROSSTERM ENERGY INCLUDED IN DIHEDRAL
Info: TIMING OUTPUT STEPS    500
Info: PRESSURE OUTPUT STEPS  500
Info: ALCHEMICAL FEP ON
Info: FEP CURRENT LAMBDA VALUE     0
Info: FEP COMPARISON LAMBDA VALUE  0.0625
Info: FEP INTRA-ALCHEMICAL NON-BONDED INTERACTIONS WILL BE DECOUPLED
Info: FEP INTRA-ALCHEMICAL BONDED INTERACTIONS WILL BE RETAINED
Info: FEP VDW SHIFTING COEFFICIENT 6
Info: FEP ELEC. ACTIVE FOR ANNIHILATED PARTICLES BETWEEN LAMBDA = 0 AND LAMBDA = 0.5
Info: FEP ELEC. ACTIVE FOR EXNIHILATED PARTICLES BETWEEN LAMBDA = 0.5 AND LAMBDA = 1
Info: FEP VDW ACTIVE FOR ANNIHILATED PARTICLES BETWEEN LAMBDA = 0 AND LAMBDA = 1
Info: FEP VDW ACTIVE FOR EXNIHILATED PARTICLES BETWEEN LAMBDA = 0 AND LAMBDA = 1
Info: FEP BOND ACTIVE FOR ANNIHILATED PARTICLES BETWEEN LAMBDA = 1 AND LAMBDA = 1
Info: FEP BOND ACTIVE FOR EXNIHILATED PARTICLES BETWEEN LAMBDA = 0 AND LAMBDA = 0
Info: LANGEVIN DYNAMICS ACTIVE
Info: LANGEVIN TEMPERATURE   298
Info: LANGEVIN USING BBK INTEGRATOR
Info: LANGEVIN DAMPING COEFFICIENT IS 1 INVERSE PS
Info: LANGEVIN DYNAMICS NOT APPLIED TO HYDROGENS
Info: LANGEVIN PISTON PRESSURE CONTROL ACTIVE
Info:        TARGET PRESSURE IS 1.01325 BAR
Info:     OSCILLATION PERIOD IS 100 FS
Info:             DECAY TIME IS 50 FS
Info:     PISTON TEMPERATURE IS 298 K
Info:       PRESSURE CONTROL IS GROUP-BASED
Info:    INITIAL STRAIN RATE IS -2.86109e-08 -2.86109e-08 -2.86109e-08
Info:       CELL FLUCTUATION IS ISOTROPIC
Info: PARTICLE MESH EWALD (PME) ACTIVE
Info: PME TOLERANCE               1e-05
Info: PME EWALD COEFFICIENT       0.226635
Info: PME INTERPOLATION ORDER     4
Info: PME GRID DIMENSIONS         84 84 84
Info: PME MAXIMUM GRID SPACING    1
Info: FULL ELECTROSTATIC EVALUATION FREQUENCY      1
Info: USING VERLET I (r-RESPA) MTS SCHEME.
Info: C1 SPLITTING OF LONG RANGE ELECTROSTATICS
Info: PLACING ATOMS IN PATCHES BY HYDROGEN GROUPS
Info: RIGID BONDS TO HYDROGEN : ALL
Info:         ERROR TOLERANCE : 1e-08
Info:          MAX ITERATIONS : 100
Info: RIGID WATER USING SETTLE ALGORITHM
Info: RANDOM NUMBER SEED     1740653363
Info: USE HYDROGEN BONDS?    NO
Info: COORDINATE PDB         mobley_9246215.pdb
Info: STRUCTURE FILE         mobley_9246215.psf
Info: PARAMETER file: CHARMM format!
Info: PARAMETERS             ../common/par_all27_prot_lipid.inp
Info: PARAMETERS             mobley_9246215.prm
Info: USING ARITHMETIC MEAN TO COMBINE L-J SIGMA PARAMETERS
Info: BINARY COORDINATES     mobley_9246215_equilibrated.coor
Info: SUMMARY OF PARAMETERS:
Info: 184 BONDS
Info: 454 ANGLES
Info: 573 DIHEDRAL
Info: 48 IMPROPER
Info: 6 CROSSTERM
Info: 123 VDW
Info: 0 VDW_PAIRS
Info: 0 NBTHOLE_PAIRS
Info: To read alchdata from file: mobley_9246215.pdb
Info: To read alchflag data from column: 5
Info: STRUCTURE SUMMARY:
Info: 4492 ATOMS
Info: 2998 BONDS
Info: 1511 ANGLES
Info: 20 DIHEDRALS
Info: 4 IMPROPERS
Info: 0 CROSSTERMS
Info: 0 EXCLUSIONS
Info: 4487 RIGID BONDS
Info: ALCH: 0 ATOMS TO DISAPPEAR IN FINAL STATE
Info: ALCH: 13 ATOMS TO APPEAR IN FINAL STATE
Info: 8989 DEGREES OF FREEDOM
Info: 1498 HYDROGEN GROUPS
Info: 3 ATOMS IN LARGEST HYDROGEN GROUP
Info: 1498 MIGRATION GROUPS
Info: 3 ATOMS IN LARGEST MIGRATION GROUP
Info: TOTAL MASS = 26965.1 amu
Info: TOTAL CHARGE = 2.23517e-08 e
Info: MASS DENSITY = 0.0811396 g/cm^3
Info: ATOM DENSITY = 0.00813975 atoms/A^3
Info: ADDED 4529 IMPLICIT EXCLUSIONS
Info: NONBONDED TABLE R-SQUARED SPACING: 0.0625
Info: NONBONDED TABLE SIZE: 769 POINTS
Info: REMOVING COM VELOCITY 0.010856 0.144151 0.100568
TCL: Running for 5000 steps
ETITLE: TS BOND ANGLE DIHED IMPRP ELECT VDW BOUNDARY MISC KINETIC TOTAL TEMP POTENTIAL TOTAL3 TEMPAVG PRESSURE GPRESSURE VOLUME PRESSAVG GPRESSAVG
ENERGY: 0 0.8683 2.8023 7.0887 0.1544 -15566.2521 1655.1537 0.0000 0.0000 2674.7061 -11225.4786 299.4712 -13900.1847 -11220.1971 299.4712 9.5004 9.5630 551859.4605 9.5004 9.5630
ENERGY: 1000 1.2827 4.3810 4.6479 0.0717 -15597.3044 1695.4650 0.0000 0.0000 2653.5986 -11237.8575 297.1079 -13891.4561 -11232.6905 296.4641 36.8505 37.0595 548768.5422 1.3724 1.3534
ENERGY: 2000 2.3122 2.2690 5.2303 0.2118 -15499.6922 1620.1825 0.0000 0.0000 2633.5539 -11235.9325 294.8636 -13869.4864 -11230.0975 295.5137 -12.2595 -12.2652 557868.5943 1.3459 1.3402
ENERGY: 3000 0.6266 4.5891 5.2461 0.0741 -15595.5124 1737.7770 0.0000 0.0000 2606.3264 -11240.8731 291.8151 -13847.1995 -11237.6251 296.2314 46.9278 46.8836 577225.8124 1.8430 1.8473
ENERGY: 4000 4.1841 3.2460 4.2564 0.1966 -15457.6414 1604.0700 0.0000 0.0000 2709.6389 -11132.0493 303.3824 -13841.6883 -11129.2243 296.5121 -19.3328 -18.5840 589921.1194 2.2641 2.2603
ENERGY: 5000 2.1611 3.1137 5.9550 0.3261 -15272.0421 1492.7244 0.0000 0.0000 2703.5538 -11064.2079 302.7011 -13767.7617 -11057.6284 299.3063 -55.4534 -55.1477 623100.0569 1.3351 1.3178
TCL: Running FEP window   2: Lambda1 0.0625 Lambda2 0.125  [dLambda 0.0625]
TCL: Setting parameter firsttimestep to 0
TCL: Setting parameter alchLambda to 0.0625
Info: NONBONDED TABLE R-SQUARED SPACING: 0.0625
Info: NONBONDED TABLE SIZE: 769 POINTS
TCL: Setting parameter alchLambda2 to 0.125
Info: NONBONDED TABLE R-SQUARED SPACING: 0.0625
Info: NONBONDED TABLE SIZE: 769 POINTS
TCL: Running for 5000 steps
ETITLE: TS BOND ANGLE DIHED IMPRP ELECT VDW BOUNDARY MISC KINETIC TOTAL TEMP POTENTIAL TOTAL3 TEMPAVG PRESSURE GPRESSURE VOLUME PRESSAVG GPRESSAVG
ENERGY: 0 2.1611 3.1137 5.9550 0.3261 -15272.0421 1492.8361 0.0000 0.0000 2703.4736 -11064.1764 302.6921 -13767.6500 -11058.2741 302.6921 -54.9629 -55.0360 623100.0569 -54.9629 -55.0360
ENERGY: 1000 1.7114 6.5906 4.1782 0.2076 -15418.9391 1632.7483 0.0000 0.0000 2641.1474 -11132.3557 295.7138 -13773.5031 -11126.5141 300.1035 -7.9030 -7.6803 636790.3933 2.8597 2.8538
ENERGY: 2000 2.9588 3.6761 4.7888 0.2050 -15369.3885 1607.7602 0.0000 0.0000 2630.3722 -11119.6273 294.5074 -13749.9996 -11115.1957 298.1923 -8.0824 -7.5846 632055.9907 0.0282 0.0265
ENERGY: 3000 1.3928 4.8932 5.5812 0.0944 -15440.5687 1631.7585 0.0000 0.0000 2768.2698 -11028.5787 309.9470 -13796.8485 -11025.0869 301.2095 4.1564 4.7027 607544.2348 0.4590 0.4859
ENERGY: 4000 1.2971 7.1221 5.3293 0.1129 -15411.1186 1564.0306 0.0000 0.0000 2729.5742 -11103.6523 305.6145 -13833.2265 -11098.1197 303.5461 -40.5793 -40.5296 601481.7252 0.6570 0.6544
ENERGY: 5000 1.7486 4.1457 6.3721 0.3183 -15557.5620 1739.7422 0.0000 0.0000 2727.0402 -11078.1948 305.3308 -13805.2351 -11072.7380 302.2965 55.8130 55.8846 572677.9724 0.3750 0.3481
TCL: Running FEP window   3: Lambda1 0.125  Lambda2 0.1875 [dLambda 0.0625]
TCL: Setting parameter firsttimestep to 0
TCL: Setting parameter alchLambda to 0.125
Info: NONBONDED TABLE R-SQUARED SPACING: 0.0625
Info: NONBONDED TABLE SIZE: 769 POINTS
TCL: Setting parameter alchLambda2 to 0.1875
Info: NONBONDED TABLE R-SQUARED SPACING: 0.0625
Info: NONBONDED TABLE SIZE: 769 POINTS
TCL: Running for 5000 steps
ETITLE: TS BOND ANGLE DIHED IMPRP ELECT VDW BOUNDARY MISC KINETIC TOTAL TEMP POTENTIAL TOTAL3 TEMPAVG PRESSURE GPRESSURE VOLUME PRESSAVG GPRESSAVG
ENERGY: 0 1.7486 4.1457 6.3721 0.3183 -15557.5620 1739.6632 0.0000 0.0000 2726.9608 -11078.3533 305.3219 -13805.3141 -11072.9819 305.3219 55.8937 55.8538 572677.9724 55.8937 55.8538
ENERGY: 1000 1.2586 4.7191 8.3467 0.3054 -15463.2632 1714.1452 0.0000 0.0000 2652.4026 -11082.0855 296.9740 -13734.4881 -11077.8943 301.4530 45.7873 45.7919 576322.0184 0.7893 0.7947
ENERGY: 2000 2.0296 4.6211 6.3002 0.2434 -15403.0976 1594.4175 0.0000 0.0000 2663.9987 -11131.4870 298.2724 -13795.4858 -11126.0193 298.0333 -30.2091 -30.5680 592190.3601 1.8269 1.7945
ENERGY: 3000 2.3842 5.3460 3.9399 0.1529 -15304.4488 1562.8358 0.0000 0.0000 2641.0240 -11088.7660 295.7000 -13729.7900 -11083.8050 300.1142 -25.6272 -26.4246 598470.6528 -0.0898 -0.1028
ENERGY: 4000 1.5504 5.9113 4.5639 0.1519 -15345.0469 1564.5488 0.0000 0.0000 2605.4790 -11162.8415 291.7202 -13768.3205 -11157.6822 297.7073 -33.7775 -32.5415 587732.6559 1.6521 1.6621
ENERGY: 5000 2.7651 5.7024 5.4599 0.2356 -15600.7578 1717.6242 0.0000 0.0000 2680.1208 -11188.8499 300.0775 -13868.9706 -11183.3865 295.8743 18.6352 18.7438 576744.9098 2.5350 2.5466
TCL: Running FEP window   4: Lambda1 0.1875 Lambda2 0.25   [dLambda 0.0625]
TCL: Setting parameter firsttimestep to 0
TCL: Setting parameter alchLambda to 0.1875
Info: NONBONDED TABLE R-SQUARED SPACING: 0.0625
Info: NONBONDED TABLE SIZE: 769 POINTS
TCL: Setting parameter alchLambda2 to 0.25
Info: NONBONDED TABLE R-SQUARED SPACING: 0.0625
Info: NONBONDED TABLE SIZE: 769 POINTS
TCL: Running for 5000 steps
ETITLE: TS BOND ANGLE DIHED IMPRP ELECT VDW BOUNDARY MISC KINETIC TOTAL TEMP POTENTIAL TOTAL3 TEMPAVG PRESSURE GPRESSURE VOLUME PRESSAVG GPRESSAVG
ENERGY: 0 2.7651 5.7024 5.4599 0.2356 -15600.7578 1717.5657 0.0000 0.0000 2680.0359 -11188.9932 300.0680 -13869.0291 -11183.8537 300.0680 18.8153 18.7504 576744.9098 18.8153 18.7504
ENERGY: 1000 1.0544 4.2001 5.2208 0.3814 -15500.2737 1616.8652 0.0000 0.0000 2672.6218 -11199.9301 299.2378 -13872.5519 -11193.8413 295.5450 -14.5390 -14.8412 604511.1177 -0.7617 -0.7876
ENERGY: 2000 0.6962 1.6514 4.7196 0.2712 -15514.6682 1672.2566 0.0000 0.0000 2672.5084 -11162.5647 299.2251 -13835.0732 -11156.6656 298.1305 14.3822 14.4511 627754.3300 1.2811 1.2895
ENERGY: 3000 1.0930 4.0398 4.6422 0.0556 -15472.7990 1599.0202 0.0000 0.0000 2639.8140 -11224.1342 295.5645 -13863.9483 -11219.3873 296.7117 -20.1242 -20.0818 605665.7131 0.1534 0.1758
ENERGY: 4000 0.3568 4.3450 3.2516 0.0622 -15568.0646 1668.8820 0.0000 0.0000 2649.9017 -11241.2652 296.6940 -13891.1669 -11236.1129 292.5068 9.9917 10.0037 599948.0673 0.2164 0.2338
ENERGY: 5000 0.2049 3.7741 3.4285 0.1213 -15616.6855 1707.4109 0.0000 0.0000 2652.4136 -11249.3322 296.9752 -13901.7458 -11241.4230 294.3263 13.9663 13.6291 579836.3133 -1.0036 -1.0039
TCL: Running FEP window   5: Lambda1 0.25   Lambda2 0.3125 [dLambda 0.0625]
TCL: Setting parameter firsttimestep to 0
TCL: Setting parameter alchLambda to 0.25
Info: NONBONDED TABLE R-SQUARED SPACING: 0.0625
Info: NONBONDED TABLE SIZE: 769 POINTS
TCL: Setting parameter alchLambda2 to 0.3125
Info: NONBONDED TABLE R-SQUARED SPACING: 0.0625
Info: NONBONDED TABLE SIZE: 769 POINTS
TCL: Running for 5000 steps
ETITLE: TS BOND ANGLE DIHED IMPRP ELECT VDW BOUNDARY MISC KINETIC TOTAL TEMP POTENTIAL TOTAL3 TEMPAVG PRESSURE GPRESSURE VOLUME PRESSAVG GPRESSAVG
ENERGY: 0 0.2049 3.7741 3.4285 0.1213 -15616.6855 1707.4596 0.0000 0.0000 2652.3303 -11249.3668 296.9659 -13901.6971 -11244.8243 296.9659 14.0605 13.9572 579836.3133 14.0605 13.9572
ENERGY: 1000 2.7190 3.4745 4.7602 0.0307 -15659.4816 1752.7094 0.0000 0.0000 2599.1836 -11296.6041 291.0154 -13895.7878 -11290.9564 292.3757 29.1934 29.4537 594592.8226 -0.0962 -0.0849
ENERGY: 2000 0.5789 2.9686 3.4469 0.0624 -15524.9243 1661.9624 0.0000 0.0000 2630.6603 -11225.2447 294.5397 -13855.9050 -11221.0088 293.6403 15.0820 14.9806 572046.0270 1.2260 1.2053
ENERGY: 3000 0.5356 3.1923 4.7096 0.1905 -15494.3281 1657.2432 0.0000 0.0000 2689.8666 -11138.5904 301.1686 -13828.4570 -11132.6816 295.9862 9.2833 8.8574 550132.4568 0.2512 0.2455
ENERGY: 4000 0.6656 3.8951 6.5204 0.4023 -15456.1663 1560.8138 0.0000 0.0000 2687.2796 -11196.5896 300.8790 -13883.8691 -11191.9199 298.1215 -44.2018 -43.8035 523586.7673 1.8048 1.7713
ENERGY: 5000 1.1886 4.1373 4.7933 0.2792 -15404.8078 1583.1472 0.0000 0.0000 2658.0604 -11153.2017 297.6075 -13811.2621 -11151.0738 296.1025 -11.0941 -10.9757 495917.7511 2.2465 2.2323
TCL: Running FEP window   6: Lambda1 0.3125 Lambda2 0.375  [dLambda 0.0625]
TCL: Setting parameter firsttimestep to 0
TCL: Setting parameter alchLambda to 0.3125
Info: NONBONDED TABLE R-SQUARED SPACING: 0.0625
Info: NONBONDED TABLE SIZE: 769 POINTS
TCL: Setting parameter alchLambda2 to 0.375
Info: NONBONDED TABLE R-SQUARED SPACING: 0.0625
Info: NONBONDED TABLE SIZE: 769 POINTS
TCL: Running for 5000 steps
ETITLE: TS BOND ANGLE DIHED IMPRP ELECT VDW BOUNDARY MISC KINETIC TOTAL TEMP POTENTIAL TOTAL3 TEMPAVG PRESSURE GPRESSURE VOLUME PRESSAVG GPRESSAVG
ENERGY: 0 1.1886 4.1373 4.7933 0.2792 -15404.8078 1583.2586 0.0000 0.0000 2657.9794 -11153.1713 297.5984 -13811.1507 -11147.6759 297.5984 -11.0296 -11.1754 495917.7511 -11.0296 -11.1754
ENERGY: 1000 2.3349 5.7149 3.4104 0.0991 -15479.6659 1618.0212 0.0000 0.0000 2655.1006 -11194.9848 297.2761 -13850.0854 -11190.1008 297.8586 -0.6202 0.3161 467132.2814 0.7062 0.6825
ENERGY: 2000 0.8384 6.0075 5.4981 0.0482 -15578.2708 1712.1244 0.0000 0.0000 2660.6615 -11193.0926 297.8987 -13853.7541 -11187.4925 297.9286 34.5265 34.2259 465393.6029 1.2269 1.2583
ENERGY: 3000 0.1426 3.8069 6.6437 0.0924 -15572.1255 1745.0977 0.0000 0.0000 2624.0027 -11192.3395 293.7942 -13816.3422 -11187.8353 297.6689 72.7578 73.4694 448795.1345 3.3512 3.3975
ENERGY: 4000 2.2582 1.7541 5.3928 0.2971 -15475.5106 1619.9531 0.0000 0.0000 2701.3455 -11144.5099 302.4539 -13845.8554 -11138.5980 299.3058 -22.0699 -22.4811 458202.8082 1.5689 1.5622
ENERGY: 5000 0.5386 2.4203 5.3539 0.0409 -15467.9347 1637.2980 0.0000 0.0000 2676.0309 -11146.2520 299.6195 -13822.2829 -11140.4612 298.0670 2.2092 2.2574 463302.5348 -0.3500 -0.3802
TCL: Running FEP window   7: Lambda1 0.375  Lambda2 0.4375 [dLambda 0.0625]
TCL: Setting parameter firsttimestep to 0
TCL: Setting parameter alchLambda to 0.375
Info: NONBONDED TABLE R-SQUARED SPACING: 0.0625
Info: NONBONDED TABLE SIZE: 769 POINTS
TCL: Setting parameter alchLambda2 to 0.4375
Info: NONBONDED TABLE R-SQUARED SPACING: 0.0625
Info: NONBONDED TABLE SIZE: 769 POINTS
TCL: Running for 5000 steps
ETITLE: TS BOND ANGLE DIHED IMPRP ELECT VDW BOUNDARY MISC KINETIC TOTAL TEMP POTENTIAL TOTAL3 TEMPAVG PRESSURE GPRESSURE VOLUME PRESSAVG GPRESSAVG
ENERGY: 0 0.5386 2.4203 5.3539 0.0409 -15467.9347 1637.2614 0.0000 0.0000 2675.9543 -11146.3653 299.6110 -13822.3196 -11141.2632 299.6110 2.2335 2.3013 463302.5348 2.2335 2.3013
ENERGY: 1000 1.3405 2.1742 5.3204 0.1223 -15548.4928 1710.8353 0.0000 0.0000 2686.9394 -11141.7608 300.8409 -13828.7002 -11135.8233 297.5516 32.2558 31.9353 480124.9734 0.3347 0.3107
ENERGY: 2000 1.9043 4.8750 4.1287 0.1739 -15405.7228 1628.6100 0.0000 0.0000 2674.5526 -11091.4783 299.4540 -13766.0309 -11086.1908 300.3921 -24.8528 -25.2275 498379.8246 1.7507 1.7728
ENERGY: 3000 1.9042 2.6220 5.0327 0.1554 -15549.2009 1709.7277 0.0000 0.0000 2689.6500 -11140.1088 301.1444 -13829.7588 -11135.0333 299.6182 24.9972 24.8714 502784.7587 0.6469 0.6555
ENERGY: 4000 1.7556 5.6931 4.9011 0.2056 -15502.2640 1685.5822 0.0000 0.0000 2671.1859 -11132.9405 299.0771 -13804.1264 -11127.9083 297.4084 21.5753 21.5724 510168.6054 0.9977 0.9957
ENERGY: 5000 0.6629 6.8071 6.5965 0.1592 -15323.0321 1545.2314 0.0000 0.0000 2749.5378 -11014.0372 307.8497 -13763.5750 -11007.5694 301.3381 -26.6830 -27.1176 525456.3659 0.6897 0.6628
TCL: Running FEP window   8: Lambda1 0.4375 Lambda2 0.5    [dLambda 0.0625]
TCL: Setting parameter firsttimestep to 0
TCL: Setting parameter alchLambda to 0.4375
Info: NONBONDED TABLE R-SQUARED SPACING: 0.0625
Info: NONBONDED TABLE SIZE: 769 POINTS
TCL: Setting parameter alchLambda2 to 0.5
Info: NONBONDED TABLE R-SQUARED SPACING: 0.0625
Info: NONBONDED TABLE SIZE: 769 POINTS
TCL: Running for 5000 steps
ETITLE: TS BOND ANGLE DIHED IMPRP ELECT VDW BOUNDARY MISC KINETIC TOTAL TEMP POTENTIAL TOTAL3 TEMPAVG PRESSURE GPRESSURE VOLUME PRESSAVG GPRESSAVG
ENERGY: 0 0.6629 6.8071 6.5965 0.1592 -15323.0321 1545.1943 0.0000 0.0000 2749.4575 -11014.1546 307.8407 -13763.6121 -11008.6369 307.8407 -26.8842 -27.0691 525456.3659 -26.8842 -27.0691
ENERGY: 1000 0.4257 3.4740 6.9795 0.2128 -15285.7885 1664.5240 0.0000 0.0000 2675.2376 -10934.9350 299.5307 -13610.1726 -10929.8138 306.5595 30.3320 31.2582 552517.4757 0.9414 0.9478
ENERGY: 2000 0.3556 2.6136 3.1528 0.0209 -15452.5618 1714.0686 0.0000 0.0000 2660.5584 -11071.7918 297.8872 -13732.3502 -11065.3540 301.6144 49.5234 48.6530 546534.6764 0.2466 0.2435
ENERGY: 3000 0.7465 5.1983 2.6969 0.0448 -15399.4824 1594.9181 0.0000 0.0000 2789.2888 -11006.5890 312.3004 -13795.8778 -11000.6344 301.7990 -22.5673 -21.3464 553701.5887 0.6025 0.5797
ENERGY: 4000 1.7201 1.8524 5.4796 0.1011 -15353.2841 1616.1380 0.0000 0.0000 2633.1585 -11094.8344 294.8194 -13727.9929 -11090.4074 301.7986 4.5191 3.4274 559270.2695 1.5570 1.5332
ENERGY: 5000 1.0795 2.7026 5.7872 0.0853 -15412.6816 1543.1751 0.0000 0.0000 2680.2782 -11179.5738 300.0951 -13859.8520 -11171.8940 295.8113 -56.8406 -55.9323 547413.3336 0.5932 0.6233
TCL: Running FEP window   9: Lambda1 0.5    Lambda2 0.5625 [dLambda 0.0625]
TCL: Setting parameter firsttimestep to 0
TCL: Setting parameter alchLambda to 0.5
Info: NONBONDED TABLE R-SQUARED SPACING: 0.0625
Info: NONBONDED TABLE SIZE: 769 POINTS
TCL: Setting parameter alchLambda2 to 0.5625
Info: NONBONDED TABLE R-SQUARED SPACING: 0.0625
Info: NONBONDED TABLE SIZE: 769 POINTS
TCL: Running for 5000 steps
ETITLE: TS BOND ANGLE DIHED IMPRP ELECT VDW BOUNDARY MISC KINETIC TOTAL TEMP POTENTIAL TOTAL3 TEMPAVG PRESSURE GPRESSURE VOLUME PRESSAVG GPRESSAVG
ENERGY: 0 1.0795 2.7026 5.7872 0.0853 -15412.6816 1543.1717 0.0000 0.0000 2680.1972 -11179.6582 300.0860 -13859.8554 -11175.0241 300.0860 -55.6368 -55.6241 547413.3336 -55.6368 -55.6241
ENERGY: 1000 0.2927 7.4925 5.7087 0.1481 -15417.4680 1606.0366 0.0000 0.0000 2746.2197 -11051.5697 307.4782 -13797.7894 -11044.0223 299.6330 -1.2585 -1.1574 539522.1093 -0.0770 -0.0593
ENERGY: 2000 0.2038 9.1064 3.9655 0.0124 -15447.3044 1622.5297 0.0000 0.0000 2767.0444 -11044.4421 309.8098 -13811.4865 -11037.3360 301.6671 -0.1437 -0.1388 532620.3148 1.1080 1.1520
ENERGY: 3000 0.5763 9.5684 6.1891 0.2333 -15372.2435 1601.5023 0.0000 0.0000 2683.8894 -11070.2847 300.4994 -13754.1741 -11063.8366 303.6395 -6.7015 -6.1732 509625.3479 0.4831 0.4747
ENERGY: 4000 2.1791 6.1419 5.3999 0.2544 -15365.9004 1625.3268 0.0000 0.0000 2665.5794 -11061.0188 298.4493 -13726.5983 -11056.2110 300.7723 9.6244 9.2610 496786.9166 1.2833 1.3020
ENERGY: 5000 0.5578 5.1057 5.4816 0.0436 -15447.2335 1606.1607 0.0000 0.0000 2672.0577 -11157.8264 299.1747 -13829.8840 -11152.1683 300.9190 -10.1629 -10.6741 493083.2240 2.4820 2.4491
TCL: Running FEP window  10: Lambda1 0.5625 Lambda2 0.625  [dLambda 0.0625]
TCL: Setting parameter firsttimestep to 0
TCL: Setting parameter alchLambda to 0.5625
Info: NONBONDED TABLE R-SQUARED SPACING: 0.0625
Info: NONBONDED TABLE SIZE: 769 POINTS
TCL: Setting parameter alchLambda2 to 0.625
Info: NONBONDED TABLE R-SQUARED SPACING: 0.0625
Info: NONBONDED TABLE SIZE: 769 POINTS
TCL: Running for 5000 steps
ETITLE: TS BOND ANGLE DIHED IMPRP ELECT VDW BOUNDARY MISC KINETIC TOTAL TEMP POTENTIAL TOTAL3 TEMPAVG PRESSURE GPRESSURE VOLUME PRESSAVG GPRESSAVG
ENERGY: 0 0.5578 5.1057 5.4816 0.0436 -15446.5469 1606.1796 0.0000 0.0000 2671.9767 -11157.2019 299.1656 -13829.1785 -11151.8435 299.1656 -10.7218 -10.6120 493083.2240 -10.7218 -10.6120
ENERGY: 1000 1.6380 3.5721 5.9673 0.1950 -15427.6259 1598.3862 0.0000 0.0000 2675.1709 -11142.6965 299.5232 -13817.8674 -11138.8260 296.3207 -34.7256 -34.4250 485083.6361 1.1457 1.1588
ENERGY: 2000 1.4162 3.7068 6.9869 0.2286 -15402.4335 1566.4074 0.0000 0.0000 2600.6701 -11223.0176 291.1818 -13823.6877 -11217.5125 297.7626 -30.8033 -29.9575 448305.3215 1.1393 1.1481
ENERGY: 3000 0.7921 3.2358 6.8738 0.2598 -15687.5460 1723.9151 0.0000 0.0000 2641.6558 -11310.8135 295.7708 -13952.4693 -11305.2857 293.3285 43.5538 44.5121 424389.1774 2.1744 2.1502
ENERGY: 4000 1.0337 5.1386 9.3630 0.2213 -15700.8723 1731.3523 0.0000 0.0000 2698.6285 -11255.1348 302.1497 -13953.7633 -11249.4321 294.4462 49.2747 48.2933 402683.3533 1.0179 1.0019
ENERGY: 5000 2.3356 3.6378 5.8704 0.2544 -15606.0419 1676.8443 0.0000 0.0000 2622.3304 -11294.7690 293.6070 -13917.0994 -11290.5038 292.9297 2.4948 2.7360 390719.3893 -0.5585 -0.5460
TCL: Running FEP window  11: Lambda1 0.625  Lambda2 0.6875 [dLambda 0.0625]
TCL: Setting parameter firsttimestep to 0
TCL: Setting parameter alchLambda to 0.625
Info: NONBONDED TABLE R-SQUARED SPACING: 0.0625
Info: NONBONDED TABLE SIZE: 769 POINTS
TCL: Setting parameter alchLambda2 to 0.6875
Info: NONBONDED TABLE R-SQUARED SPACING: 0.0625
Info: NONBONDED TABLE SIZE: 769 POINTS
TCL: Running for 5000 steps
ETITLE: TS BOND ANGLE DIHED IMPRP ELECT VDW BOUNDARY MISC KINETIC TOTAL TEMP POTENTIAL TOTAL3 TEMPAVG PRESSURE GPRESSURE VOLUME PRESSAVG GPRESSAVG
ENERGY: 0 2.3356 3.6378 5.8704 0.2544 -15605.3708 1676.8391 0.0000 0.0000 2622.2502 -11294.1833 293.5980 -13916.4335 -11288.9108 293.5980 2.5766 2.6827 390719.3893 2.5766 2.6827
ENERGY: 1000 0.6616 2.7064 5.5945 0.1658 -15403.2794 1539.5501 0.0000 0.0000 2638.7792 -11215.8218 295.4487 -13854.6010 -11210.4252 294.5956 -70.0200 -69.5228 384493.7794 -0.0071 0.0120
ENERGY: 2000 1.5578 4.0445 5.3768 0.1234 -15447.9901 1628.3178 0.0000 0.0000 2597.4488 -11211.1212 290.8212 -13808.5699 -11205.2885 295.9767 -17.0534 -17.8390 393606.2736 0.9776 1.0049
ENERGY: 3000 1.3272 6.6262 4.6446 0.0082 -15500.7749 1676.6185 0.0000 0.0000 2628.3872 -11183.1630 294.2852 -13811.5502 -11178.0217 293.8819 42.1540 41.9612 385458.9788 2.5128 2.5284
ENERGY: 4000 0.2367 2.6350 6.4818 0.1118 -15464.7405 1668.0497 0.0000 0.0000 2681.2615 -11105.9639 300.2052 -13787.2254 -11102.8134 298.4139 19.7759 19.6156 379044.5643 1.6766 1.6835
ENERGY: 5000 0.6856 4.0137 4.5172 0.0464 -15342.1958 1531.5106 0.0000 0.0000 2666.4261 -11134.9963 298.5441 -13801.4224 -11130.2192 298.4396 -87.0043 -87.1796 370470.0456 0.0966 0.0743
TCL: Running FEP window  12: Lambda1 0.6875 Lambda2 0.75   [dLambda 0.0625]
TCL: Setting parameter firsttimestep to 0
TCL: Setting parameter alchLambda to 0.6875
Info: NONBONDED TABLE R-SQUARED SPACING: 0.0625
Info: NONBONDED TABLE SIZE: 769 POINTS
TCL: Setting parameter alchLambda2 to 0.75
Info: NONBONDED TABLE R-SQUARED SPACING: 0.0625
Info: NONBONDED TABLE SIZE: 769 POINTS
TCL: Running for 5000 steps
ETITLE: TS BOND ANGLE DIHED IMPRP ELECT VDW BOUNDARY MISC KINETIC TOTAL TEMP POTENTIAL TOTAL3 TEMPAVG PRESSURE GPRESSURE VOLUME PRESSAVG GPRESSAVG
ENERGY: 0 0.6856 4.0137 4.5172 0.0464 -15341.5229 1531.5192 0.0000 0.0000 2666.3407 -11134.4002 298.5346 -13800.7409 -11129.1100 298.5346 -87.3628 -87.1200 370470.0456 -87.3628 -87.1200
ENERGY: 1000 1.0955 4.0865 6.2445 0.0496 -15485.0252 1648.9735 0.0000 0.0000 2706.1062 -11118.4695 302.9869 -13824.5757 -11111.3073 297.3687 19.1248 19.4727 364699.8179 0.0408 0.0393
ENERGY: 2000 1.1426 4.8224 6.5813 0.1623 -15347.9705 1622.0847 0.0000 0.0000 2678.8734 -11034.3037 299.9378 -13713.1771 -11029.9314 302.2936 -11.6340 -12.0182 371446.5929 2.0259 2.0120
ENERGY: 3000 2.2938 2.3141 8.2037 0.1430 -15356.6100 1611.8327 0.0000 0.0000 2614.4891 -11117.3336 292.7291 -13731.8227 -11113.1549 298.2732 -25.7102 -25.1715 390317.8353 0.2731 0.2532
ENERGY: 4000 1.0971 9.3760 5.6664 0.0146 -15389.2276 1582.5657 0.0000 0.0000 2637.6580 -11152.8499 295.3231 -13790.5079 -11147.1837 296.4773 -55.3003 -54.1719 391797.9340 1.2938 1.2877
ENERGY: 5000 2.0665 3.1401 7.4649 0.1368 -15538.9105 1697.7304 0.0000 0.0000 2713.7037 -11114.6681 303.8375 -13828.3718 -11109.0930 297.8351 64.9439 65.8293 374756.7055 3.9551 3.9486
TCL: Running FEP window  13: Lambda1 0.75   Lambda2 0.8125 [dLambda 0.0625]
TCL: Setting parameter firsttimestep to 0
TCL: Setting parameter alchLambda to 0.75
Info: NONBONDED TABLE R-SQUARED SPACING: 0.0625
Info: NONBONDED TABLE SIZE: 769 POINTS
TCL: Setting parameter alchLambda2 to 0.8125
Info: NONBONDED TABLE R-SQUARED SPACING: 0.0625
Info: NONBONDED TABLE SIZE: 769 POINTS
TCL: Running for 5000 steps
ETITLE: TS BOND ANGLE DIHED IMPRP ELECT VDW BOUNDARY MISC KINETIC TOTAL TEMP POTENTIAL TOTAL3 TEMPAVG PRESSURE GPRESSURE VOLUME PRESSAVG GPRESSAVG
ENERGY: 0 2.0665 3.1401 7.4649 0.1368 -15538.2497 1697.7391 0.0000 0.0000 2713.6244 -11114.0779 303.8287 -13827.7023 -11109.5491 303.8287 65.9703 66.0682 374756.7055 65.9703 66.0682
ENERGY: 1000 0.8588 4.0516 6.3516 0.1801 -15374.3392 1588.5512 0.0000 0.0000 2722.8736 -11051.4723 304.8642 -13774.3459 -11046.0853 300.6339 -36.5169 -36.6147 380629.1336 1.8422 1.8620
ENERGY: 2000 2.5471 4.2951 5.9222 0.1060 -15203.7542 1551.9108 0.0000 0.0000 2671.7158 -10967.2573 299.1364 -13638.9731 -10961.7166 302.8208 -33.9929 -34.0723 392569.9089 -0.7850 -0.7560
ENERGY: 3000 0.2856 2.9996 7.5198 0.1885 -15447.8267 1656.7578 0.0000 0.0000 2620.1786 -11159.8968 293.3661 -13780.0754 -11154.2836 299.6380 22.0531 21.8808 386823.1436 1.7984 1.7765
ENERGY: 4000 0.2791 4.6620 5.4320 0.0929 -15409.8650 1561.8868 0.0000 0.0000 2654.5381 -11182.9741 297.2131 -13837.5121 -11177.5234 296.6735 -61.2778 -61.9558 389643.7392 0.5635 0.5570
ENERGY: 5000 0.4899 5.2076 7.1127 0.2898 -15568.1205 1648.0862 0.0000 0.0000 2664.9393 -11241.9950 298.3777 -13906.9343 -11238.7690 297.6097 -2.1086 -2.4121 391441.2781 2.7930 2.7865
TCL: Running FEP window  14: Lambda1 0.8125 Lambda2 0.875  [dLambda 0.0625]
TCL: Setting parameter firsttimestep to 0
TCL: Setting parameter alchLambda to 0.8125
Info: NONBONDED TABLE R-SQUARED SPACING: 0.0625
Info: NONBONDED TABLE SIZE: 769 POINTS
TCL: Setting parameter alchLambda2 to 0.875
Info: NONBONDED TABLE R-SQUARED SPACING: 0.0625
Info: NONBONDED TABLE SIZE: 769 POINTS
TCL: Running for 5000 steps
ETITLE: TS BOND ANGLE DIHED IMPRP ELECT VDW BOUNDARY MISC KINETIC TOTAL TEMP POTENTIAL TOTAL3 TEMPAVG PRESSURE GPRESSURE VOLUME PRESSAVG GPRESSAVG
ENERGY: 0 0.4899 5.2076 7.1127 0.2898 -15567.4786 1648.2998 0.0000 0.0000 2664.8610 -11241.2177 298.3689 -13906.0787 -11236.0184 298.3689 -2.3099 -2.3889 391441.2781 -2.3099 -2.3889
ENERGY: 1000 2.3813 2.6214 5.8166 0.1500 -15529.2830 1660.9970 0.0000 0.0000 2682.3686 -11174.9480 300.3291 -13857.3166 -11166.6575 297.7916 8.6320 7.5927 397404.8385 -1.2816 -1.2995
ENERGY: 2000 0.9806 2.5877 8.0252 0.2206 -15494.9101 1575.8615 0.0000 0.0000 2655.0806 -11252.1539 297.2738 -13907.2344 -11247.0734 295.5199 -45.2608 -45.5793 394679.2680 -1.1029 -1.0872
ENERGY: 3000 0.1440 1.1348 5.2704 0.1054 -15493.1027 1658.0797 0.0000 0.0000 2598.1708 -11230.1975 290.9020 -13828.3684 -11224.5395 293.7059 8.7537 9.4637 383808.9502 1.4443 1.4548
ENERGY: 4000 0.3866 2.5066 5.0920 0.0661 -15435.6067 1592.7112 0.0000 0.0000 2588.6367 -11246.2075 289.8345 -13834.8441 -11240.4644 292.9498 -70.0680 -70.4221 373959.6723 -1.5077 -1.5516
ENERGY: 5000 0.7017 2.7381 6.8416 0.2114 -15496.6935 1658.5723 0.0000 0.0000 2639.6049 -11188.0234 295.5411 -13827.6284 -11183.2922 296.1382 13.8928 12.7898 366003.4426 1.4429 1.4498
TCL: Running FEP window  15: Lambda1 0.875  Lambda2 0.9375 [dLambda 0.0625]
TCL: Setting parameter firsttimestep to 0
TCL: Setting parameter alchLambda to 0.875
Info: NONBONDED TABLE R-SQUARED SPACING: 0.0625
Info: NONBONDED TABLE SIZE: 769 POINTS
TCL: Setting parameter alchLambda2 to 0.9375
Info: NONBONDED TABLE R-SQUARED SPACING: 0.0625
Info: NONBONDED TABLE SIZE: 769 POINTS
TCL: Running for 5000 steps
ETITLE: TS BOND ANGLE DIHED IMPRP ELECT VDW BOUNDARY MISC KINETIC TOTAL TEMP POTENTIAL TOTAL3 TEMPAVG PRESSURE GPRESSURE VOLUME PRESSAVG GPRESSAVG
ENERGY: 0 0.7017 2.7381 6.8416 0.2114 -15496.0407 1658.7938 0.0000 0.0000 2639.5227 -11187.2313 295.5319 -13826.7540 -11182.3707 295.5319 13.1063 13.0048 366003.4426 13.1063 13.0048
ENERGY: 1000 0.7473 3.0713 4.8201 0.0350 -15546.4737 1740.7515 0.0000 0.0000 2627.4236 -11169.6250 294.1773 -13797.0486 -11163.7253 299.0697 64.2625 64.0511 354996.4790 2.0772 2.1299
ENERGY: 2000 3.7143 1.6204 5.9707 0.0158 -15456.2682 1608.1465 0.0000 0.0000 2639.2059 -11197.5946 295.4965 -13836.8005 -11192.1274 297.8773 -24.8518 -26.2026 357751.1545 2.3136 2.3163
ENERGY: 3000 0.6073 3.0884 5.3019 0.0537 -15608.5848 1748.0887 0.0000 0.0000 2611.0655 -11240.3794 292.3457 -13851.4449 -11234.7878 295.2275 56.5574 57.8337 368788.5211 2.8225 2.8528
ENERGY: 4000 1.5423 3.2751 7.2010 0.0530 -15442.8977 1664.2442 0.0000 0.0000 2607.6321 -11158.9501 291.9613 -13766.5822 -11153.5569 295.9047 40.5370 40.4039 376978.7169 1.5137 1.5126
ENERGY: 5000 1.0825 3.9242 4.5173 0.0205 -15481.4451 1643.7742 0.0000 0.0000 2673.0108 -11155.1155 299.2814 -13828.1263 -11152.5714 298.1058 -0.9110 -0.2785 376409.6173 0.9061 0.9190
TCL: Running FEP window  16: Lambda1 0.9375 Lambda2 1.0    [dLambda 0.0625]
TCL: Setting parameter firsttimestep to 0
TCL: Setting parameter alchLambda to 0.9375
Info: NONBONDED TABLE R-SQUARED SPACING: 0.0625
Info: NONBONDED TABLE SIZE: 769 POINTS
TCL: Setting parameter alchLambda2 to 1.0
Info: NONBONDED TABLE R-SQUARED SPACING: 0.0625
Info: NONBONDED TABLE SIZE: 769 POINTS
TCL: Running for 5000 steps
ETITLE: TS BOND ANGLE DIHED IMPRP ELECT VDW BOUNDARY MISC KINETIC TOTAL TEMP POTENTIAL TOTAL3 TEMPAVG PRESSURE GPRESSURE VOLUME PRESSAVG GPRESSAVG
ENERGY: 0 1.0825 3.9242 4.5173 0.0205 -15480.7641 1644.5759 0.0000 0.0000 2672.9267 -11153.7170 299.2720 -13826.6437 -11147.9272 299.2720 0.4802 0.4503 376409.6173 0.4802 0.4503
ENERGY: 1000 0.5817 3.4009 6.0415 0.2177 -15459.1691 1597.6190 0.0000 0.0000 2694.9795 -11156.3288 301.7411 -13851.3084 -11149.6867 296.1778 -44.2251 -45.0628 378681.8879 -0.5537 -0.5404
ENERGY: 2000 0.9679 2.4487 8.5221 0.1670 -15448.4128 1634.3652 0.0000 0.0000 2594.6081 -11207.3339 290.5031 -13801.9419 -11201.4773 294.0096 -12.9707 -13.4971 370215.0674 2.5164 2.5595
ENERGY: 3000 0.8731 3.5621 4.4941 0.0099 -15461.8965 1602.1206 0.0000 0.0000 2677.7717 -11173.0649 299.8144 -13850.8366 -11166.4195 294.2119 -13.9360 -13.7890 374458.3859 -0.4791 -0.4396
ENERGY: 4000 0.7337 3.5522 7.1831 0.1428 -15612.9569 1704.4821 0.0000 0.0000 2711.0677 -11185.7953 303.5424 -13896.8630 -11180.0046 298.4905 24.8616 25.5062 382295.8942 4.0229 4.0104
ENERGY: 5000 0.7036 3.1909 6.4001 0.2516 -15366.7969 1504.3855 0.0000 0.0000 2720.2390 -11131.6263 304.5693 -13851.8652 -11125.3334 297.7233 -114.1694 -114.4264 382959.2206 -0.6343 -0.6611
