Info: SIMULATION PARAMETERS:
Info: TIMESTEP               2
Info: NUMBER OF STEPS        0
Info: STEPS PER CYCLE        10
Info: PERIODIC CELL BASIS 1  36.281 0 0
Info: PERIODIC CELL BASIS 2  0 34.1 0
Info: PERIODIC CELL BASIS 3  0 0 36.199
Info: PERIODIC CELL CENTER   0 0 0
Info: WRAPPING WATERS AROUND PERIODIC BOUNDARIES ON OUTPUT.
Info: WRAPPING ALL CLUSTERS AROUND PERIODIC BOUNDARIES ON OUTPUT.
Info: FIRST LDB TIMESTEP     50
Info: LAST LDB TIMESTEP     -1
Info: HOM BACKGROUND SCALING 1
Info: PME BACKGROUND SCALING 1
Info: MIN ATOMS PER PATCH    40
Info: EMPTY PATCH LOAD       40 ATOMS
Info: INITIAL TEMPERATURE    300
Info: CENTER OF MASS MOVING INITIALLY? NO
Info: DIELECTRIC             1
Info: EXCLUDE                SCALED ONE-FOUR
Info: 1-4 ELECTROSTATICS SCALED BY 0.833333
Info: MODIFIED 1-4 VDW PARAMETERS WILL BE USED
Info: DCD FILENAME           mobley_2681549_equil.dcd
Info: DCD FREQUENCY          100000
Info: DCD FIRST STEP         100000
Info: DCD FILE WILL CONTAIN UNIT CELL DATA
Info: XST FILENAME           mobley_2681549_equil.xst
Info: XST FREQUENCY          100000
Info: NO VELOCITY DCD OUTPUT
Info: NO FORCE DCD OUTPUT
Info: OUTPUT FILENAME        mobley_2681549_equil
Info: BINARY OUTPUT FILES WILL BE USED
Info: RESTART FILENAME       mobley_2681549_equil.restart
Info: RESTART FREQUENCY      100000
Info: BINARY RESTART FILES WILL BE USED
Info: CUTOFF                 9
Info: PAIRLIST DISTANCE      11
Info: PAIRLIST SHRINK RATE   0.01
Info: PAIRLIST GROW RATE     0.01
Info: PAIRLIST TRIGGER       0.3
Info: PAIRLISTS PER CYCLE    2
Info: PAIRLISTS ENABLED
Info: MARGIN                 8
Info: HYDROGEN GROUP CUTOFF  2.5
Info: PATCH DIMENSION        21.5
Info: ENERGY OUTPUT STEPS    100000
Info: ENERGY EVALUATION STEPS    100000
Info: OUTPUT ENERGY PRECISION 4
Info: CROSSTERM ENERGY INCLUDED IN DIHEDRAL
Info: TIMING OUTPUT STEPS    1000000
Info: PRESSURE OUTPUT STEPS  100000
Info: FIXED ATOMS ACTIVE
Info: LANGEVIN DYNAMICS ACTIVE
Info: LANGEVIN TEMPERATURE   30
Info: LANGEVIN USING BBK INTEGRATOR
Info: LANGEVIN DAMPING COEFFICIENT IS 1 INVERSE PS
Info: LANGEVIN DYNAMICS APPLIED TO HYDROGENS
Info: LANGEVIN PISTON PRESSURE CONTROL ACTIVE
Info:        TARGET PRESSURE IS 1.01325 BAR
Info:     OSCILLATION PERIOD IS 50 FS
Info:             DECAY TIME IS 25 FS
Info:     PISTON TEMPERATURE IS 300 K
Info:       PRESSURE CONTROL IS GROUP-BASED
Info:    INITIAL STRAIN RATE IS 0 0 0
Info:       CELL FLUCTUATION IS ISOTROPIC
Info: PARTICLE MESH EWALD (PME) ACTIVE
Info: PME TOLERANCE               1e-06
Info: PME EWALD COEFFICIENT       0.348832
Info: PME INTERPOLATION ORDER     4
Info: PME GRID DIMENSIONS         40 36 40
Info: PME MAXIMUM GRID SPACING    1
Info: FULL ELECTROSTATIC EVALUATION FREQUENCY      2
Info: USING VERLET I (r-RESPA) MTS SCHEME.
Info: C1 SPLITTING OF LONG RANGE ELECTROSTATICS
Info: PLACING ATOMS IN PATCHES BY HYDROGEN GROUPS
Info: RIGID BONDS TO HYDROGEN : ALL
Info:         ERROR TOLERANCE : 1e-08
Info:          MAX ITERATIONS : 100
Info: RIGID WATER USING SETTLE ALGORITHM
Info: RANDOM NUMBER SEED     1742141111
Info: USE HYDROGEN BONDS?    NO
Info: Using AMBER format force field!
Info: AMBER PARM FILE        mobley_2681549.prmtop
Info: COORDINATE PDB         mobley_2681549.pdb
Info: Exclusions will be read from PARM file!
Info: SCNB (VDW SCALING)     2
Info: USING ARITHMETIC MEAN TO COMBINE L-J SIGMA PARAMETERS
Info: BINARY COORDINATES     mobley_2681549_min.coor
Info: SUMMARY OF PARAMETERS:
Info: 5 BONDS
Info: 3 ANGLES
Info:   3 HARMONIC
Info:   0 COSINE-BASED
Info: 2 DIHEDRAL
Info: 0 IMPROPER
Info: 0 CROSSTERM
Info: 0 VDW
Info: 15 VDW_PAIRS
Info: 0 NBTHOLE_PAIRS
Info: STRUCTURE SUMMARY:
Info: 2991 ATOMS
Info: 2991 BONDS
Info: 18 ANGLES
Info: 30 DIHEDRALS
Info: 0 IMPROPERS
Info: 0 CROSSTERMS
Info: 3030 EXCLUSIONS
Info: 12 FIXED ATOMS
Info: 2982 RIGID BONDS
Info: 3 RIGID BONDS BETWEEN FIXED ATOMS
Info: 5958 DEGREES OF FREEDOM
Info: 1002 HYDROGEN GROUPS
Info: 3 ATOMS IN LARGEST HYDROGEN GROUP
Info: 1002 MIGRATION GROUPS
Info: 3 ATOMS IN LARGEST MIGRATION GROUP
Info: 9 HYDROGEN GROUPS WITH ALL ATOMS FIXED
Info: TOTAL MASS = 18071.3 amu
Info: TOTAL CHARGE = 0.000199992 e
Info: MASS DENSITY = 0.670068 g/cm^3
Info: ATOM DENSITY = 0.0667861 atoms/A^3
Info: ADDED 0 IMPLICIT EXCLUSIONS
Info: NONBONDED TABLE R-SQUARED SPACING: 0.0625
Info: NONBONDED TABLE SIZE: 705 POINTS
Info: REMOVING COM VELOCITY 0.088691 -0.00368398 -0.0299969
TCL: Running for 100000 steps
ETITLE: TS BOND ANGLE DIHED IMPRP ELECT VDW BOUNDARY MISC KINETIC TOTAL TEMP POTENTIAL TOTAL3 TEMPAVG PRESSURE GPRESSURE VOLUME PRESSAVG GPRESSAVG
ENERGY: 0 0.0000 0.0000 0.0000 0.0000 -13934.8404 2411.4734 0.0000 0.0000 1782.1058 -9741.2612 301.0394 -11523.3670 -9740.9002 301.0394 149.6337 194.9189 44784.7548 149.6337 194.9189
ENERGY: 100000 0.0000 0.0000 0.0000 0.0000 -14378.5754 2523.7216 0.0000 0.0000 180.3422 -11674.5116 30.4640 -11854.8538 -11674.3114 30.8562 37.8324 81.4838 30696.3423 3.9562 4.0337
TCL: Running 100000 steps at 60 kelvin.
TCL: Setting parameter langevinTemp to 60
TCL: Running for 100000 steps
ETITLE: TS BOND ANGLE DIHED IMPRP ELECT VDW BOUNDARY MISC KINETIC TOTAL TEMP POTENTIAL TOTAL3 TEMPAVG PRESSURE GPRESSURE VOLUME PRESSAVG GPRESSAVG
ENERGY: 100000 0.0000 0.0000 0.0000 0.0000 -14378.5754 2523.7216 0.0000 0.0000 180.2495 -11674.6043 30.4484 -11854.8537 -11674.1867 30.4484 34.8561 81.2540 30696.3423 34.8561 81.2540
ENERGY: 200000 0.0000 0.0000 0.0000 0.0000 -14216.1876 2401.8455 0.0000 0.0000 354.2492 -11460.0929 59.8410 -11814.3421 -11459.3412 59.9434 -643.9180 -620.9372 30268.7752 3.1119 3.1329
TCL: Running 100000 steps at 90 kelvin.
TCL: Setting parameter langevinTemp to 90
TCL: Running for 100000 steps
ETITLE: TS BOND ANGLE DIHED IMPRP ELECT VDW BOUNDARY MISC KINETIC TOTAL TEMP POTENTIAL TOTAL3 TEMPAVG PRESSURE GPRESSURE VOLUME PRESSAVG GPRESSAVG
ENERGY: 200000 0.0000 0.0000 0.0000 0.0000 -14216.1876 2401.8455 0.0000 0.0000 354.0757 -11460.2664 59.8117 -11814.3421 -11459.5571 59.8117 -672.9197 -621.2459 30268.7752 -672.9197 -621.2459
ENERGY: 300000 0.0000 0.0000 0.0000 0.0000 -14118.8483 2421.2993 0.0000 0.0000 558.1697 -11139.3794 94.2879 -11697.5490 -11138.0027 90.1803 172.5997 194.2731 29809.3284 2.9854 3.0651
TCL: Running 100000 steps at 120 kelvin.
TCL: Setting parameter langevinTemp to 120
TCL: Running for 100000 steps
ETITLE: TS BOND ANGLE DIHED IMPRP ELECT VDW BOUNDARY MISC KINETIC TOTAL TEMP POTENTIAL TOTAL3 TEMPAVG PRESSURE GPRESSURE VOLUME PRESSAVG GPRESSAVG
ENERGY: 300000 0.0000 0.0000 0.0000 0.0000 -14118.8483 2421.2993 0.0000 0.0000 557.9236 -11139.6254 94.2464 -11697.5490 -11138.4245 94.2464 132.7227 194.0332 29809.3284 132.7227 194.0332
ENERGY: 400000 0.0000 0.0000 0.0000 0.0000 -14008.3541 2389.8491 0.0000 0.0000 700.0164 -10918.4886 118.2492 -11618.5050 -10916.5850 119.8954 223.6582 295.3703 29365.4146 4.4223 4.5222
TCL: Running 100000 steps at 150 kelvin.
TCL: Setting parameter langevinTemp to 150
TCL: Running for 100000 steps
ETITLE: TS BOND ANGLE DIHED IMPRP ELECT VDW BOUNDARY MISC KINETIC TOTAL TEMP POTENTIAL TOTAL3 TEMPAVG PRESSURE GPRESSURE VOLUME PRESSAVG GPRESSAVG
ENERGY: 400000 0.0000 0.0000 0.0000 0.0000 -14008.3541 2389.8491 0.0000 0.0000 699.6618 -10918.8432 118.1893 -11618.5050 -10917.0911 118.1893 240.2177 294.4724 29365.4146 240.2177 294.4724
ENERGY: 500000 0.0000 0.0000 0.0000 0.0000 -13820.1101 2338.1690 0.0000 0.0000 904.4766 -10577.4645 152.7873 -11481.9411 -10575.3120 149.8718 203.8588 237.9366 29446.0729 3.7183 3.6198
TCL: Running 100000 steps at 180 kelvin.
TCL: Setting parameter langevinTemp to 180
TCL: Running for 100000 steps
ETITLE: TS BOND ANGLE DIHED IMPRP ELECT VDW BOUNDARY MISC KINETIC TOTAL TEMP POTENTIAL TOTAL3 TEMPAVG PRESSURE GPRESSURE VOLUME PRESSAVG GPRESSAVG
ENERGY: 500000 0.0000 0.0000 0.0000 0.0000 -13820.1101 2338.1690 0.0000 0.0000 904.0177 -10577.9234 152.7098 -11481.9411 -10576.1559 152.7098 189.1619 237.4898 29446.0729 189.1619 237.4898
ENERGY: 600000 0.0000 0.0000 0.0000 0.0000 -13396.6581 2175.5068 0.0000 0.0000 1037.7334 -10183.4179 175.2975 -11221.1513 -10180.2381 180.2664 -40.3846 -17.3179 29324.5580 3.0314 3.0919
TCL: Running 100000 steps at 210 kelvin.
TCL: Setting parameter langevinTemp to 210
TCL: Running for 100000 steps
ETITLE: TS BOND ANGLE DIHED IMPRP ELECT VDW BOUNDARY MISC KINETIC TOTAL TEMP POTENTIAL TOTAL3 TEMPAVG PRESSURE GPRESSURE VOLUME PRESSAVG GPRESSAVG
ENERGY: 600000 0.0000 0.0000 0.0000 0.0000 -13396.6581 2175.5068 0.0000 0.0000 1037.2284 -10183.9228 175.2122 -11221.1513 -10181.8494 175.2122 -67.5341 -17.5932 29324.5580 -67.5341 -17.5932
ENERGY: 700000 0.0000 0.0000 0.0000 0.0000 -12564.7734 1907.5803 0.0000 0.0000 1218.0331 -9439.1600 205.7543 -10657.1932 -9436.0429 210.0170 -112.0479 0.9054 29137.1795 3.0047 3.0265
TCL: Running 100000 steps at 240 kelvin.
TCL: Setting parameter langevinTemp to 240
TCL: Running for 100000 steps
ETITLE: TS BOND ANGLE DIHED IMPRP ELECT VDW BOUNDARY MISC KINETIC TOTAL TEMP POTENTIAL TOTAL3 TEMPAVG PRESSURE GPRESSURE VOLUME PRESSAVG GPRESSAVG
ENERGY: 700000 0.0000 0.0000 0.0000 0.0000 -12564.7734 1907.5803 0.0000 0.0000 1217.4072 -9439.7860 205.6486 -10657.1932 -9437.5916 205.6486 -86.2002 3.7565 29137.1795 -86.2002 3.7565
ENERGY: 800000 0.0000 0.0000 0.0000 0.0000 -11934.1846 1735.5619 0.0000 0.0000 1385.8579 -8812.7648 234.1039 -10198.6227 -8811.3767 239.7487 34.0368 59.2935 29620.5662 3.7111 3.4422
TCL: Running 100000 steps at 270 kelvin.
TCL: Setting parameter langevinTemp to 270
TCL: Running for 100000 steps
ETITLE: TS BOND ANGLE DIHED IMPRP ELECT VDW BOUNDARY MISC KINETIC TOTAL TEMP POTENTIAL TOTAL3 TEMPAVG PRESSURE GPRESSURE VOLUME PRESSAVG GPRESSAVG
ENERGY: 800000 0.0000 0.0000 0.0000 0.0000 -11934.1846 1735.5619 0.0000 0.0000 1385.1497 -8813.4730 233.9842 -10198.6227 -8811.7500 233.9842 -11.6548 59.5557 29620.5662 -11.6548 59.5557
ENERGY: 900000 0.0000 0.0000 0.0000 0.0000 -11455.4492 1624.9694 0.0000 0.0000 1624.6502 -8205.8297 274.4415 -9830.4798 -8203.2630 269.9791 119.8515 245.7203 30270.5874 3.4324 3.4572
TCL: Running 1000000 steps at 300 kelvin.
TCL: Setting parameter langevinTemp to 300
TCL: Running for 1000000 steps
ETITLE: TS BOND ANGLE DIHED IMPRP ELECT VDW BOUNDARY MISC KINETIC TOTAL TEMP POTENTIAL TOTAL3 TEMPAVG PRESSURE GPRESSURE VOLUME PRESSAVG GPRESSAVG
ENERGY: 900000 0.0000 0.0000 0.0000 0.0000 -11455.4492 1624.9694 0.0000 0.0000 1623.8319 -8206.6480 274.3032 -9830.4798 -8204.4272 274.3032 176.1309 244.6860 30270.5874 176.1309 244.6860
ENERGY: 1100000 0.0000 0.0000 0.0000 0.0000 -10872.0551 1455.5295 0.0000 0.0000 1775.0588 -7641.4668 299.8490 -9416.5255 -7636.4037 299.6013 229.5609 353.6593 30235.3822 3.6072 3.6804
ENERGY: 1300000 0.0000 0.0000 0.0000 0.0000 -10918.8101 1449.2537 0.0000 0.0000 1727.8984 -7741.6580 291.8825 -9469.5564 -7738.2642 299.4601 -180.5046 -167.1883 30835.3668 2.8642 2.9527
ENERGY: 1500000 0.0000 0.0000 0.0000 0.0000 -10920.3121 1481.8616 0.0000 0.0000 1764.9693 -7673.4811 298.1447 -9438.4505 -7667.9829 300.4942 -208.2445 -98.3272 31538.0423 3.0965 2.9865
ENERGY: 1700000 0.0000 0.0000 0.0000 0.0000 -10889.3769 1484.7271 0.0000 0.0000 1796.9645 -7607.6853 303.5494 -9404.6498 -7602.6522 299.7060 184.8524 221.8639 30932.9960 2.4824 2.5085
ENERGY: 1900000 0.0000 0.0000 0.0000 0.0000 -10797.3365 1379.9668 0.0000 0.0000 1808.1175 -7609.2521 305.4334 -9417.3697 -7606.9767 299.8172 -784.6313 -652.0476 31113.8466 3.3955 3.3165
TCL: Exiting due to exit command.
