Info: SIMULATION PARAMETERS:
Info: TIMESTEP               2
Info: NUMBER OF STEPS        0
Info: STEPS PER CYCLE        10
Info: PERIODIC CELL BASIS 1  68.9898 0 0
Info: PERIODIC CELL BASIS 2  0 68.9898 0
Info: PERIODIC CELL BASIS 3  0 0 68.9898
Info: PERIODIC CELL CENTER   35.398 35.398 35.398
Info: WRAPPING ALL CLUSTERS AROUND PERIODIC BOUNDARIES ON OUTPUT.
Info: FIRST LDB TIMESTEP     50
Info: LAST LDB TIMESTEP     -1
Info: HOM BACKGROUND SCALING 1
Info: PME BACKGROUND SCALING 1
Info: MIN ATOMS PER PATCH    40
Info: EMPTY PATCH LOAD       40 ATOMS
Info: VELOCITY FILE          mobley_337666_equilibrated.vel
Info: CENTER OF MASS MOVING INITIALLY? NO
Info: DIELECTRIC             1
Info: EXCLUDE                SCALED ONE-FOUR
Info: 1-4 ELECTROSTATICS SCALED BY 1
Info: MODIFIED 1-4 VDW PARAMETERS WILL BE USED
Info: DCD FILENAME           mobley_337666_forwards.dcd
Info: DCD FREQUENCY          500
Info: DCD FIRST STEP         500
Info: DCD FILE WILL CONTAIN UNIT CELL DATA
Info: NO EXTENDED SYSTEM TRAJECTORY OUTPUT
Info: NO VELOCITY DCD OUTPUT
Info: NO FORCE DCD OUTPUT
Info: OUTPUT FILENAME        mobley_337666_forwards
Info: BINARY OUTPUT FILES WILL BE USED
Info: NO RESTART FILE
Info: SWITCHING ACTIVE
Info: SWITCHING ON           10
Info: SWITCHING OFF          12
Info: PAIRLIST DISTANCE      14
Info: PAIRLIST SHRINK RATE   0.01
Info: PAIRLIST GROW RATE     0.01
Info: PAIRLIST TRIGGER       0.3
Info: PAIRLISTS PER CYCLE    2
Info: PAIRLISTS ENABLED
Info: MARGIN                 8
Info: HYDROGEN GROUP CUTOFF  2.5
Info: PATCH DIMENSION        24.5
Info: ENERGY OUTPUT STEPS    500
Info: ENERGY EVALUATION STEPS    500
Info: OUTPUT ENERGY PRECISION 4
Info: CROSSTERM ENERGY INCLUDED IN DIHEDRAL
Info: TIMING OUTPUT STEPS    500
Info: PRESSURE OUTPUT STEPS  500
Info: ALCHEMICAL FEP ON
Info: FEP CURRENT LAMBDA VALUE     0
Info: FEP COMPARISON LAMBDA VALUE  0.0625
Info: FEP INTRA-ALCHEMICAL NON-BONDED INTERACTIONS WILL BE DECOUPLED
Info: FEP INTRA-ALCHEMICAL BONDED INTERACTIONS WILL BE RETAINED
Info: FEP VDW SHIFTING COEFFICIENT 6
Info: FEP ELEC. ACTIVE FOR ANNIHILATED PARTICLES BETWEEN LAMBDA = 0 AND LAMBDA = 0.5
Info: FEP ELEC. ACTIVE FOR EXNIHILATED PARTICLES BETWEEN LAMBDA = 0.5 AND LAMBDA = 1
Info: FEP VDW ACTIVE FOR ANNIHILATED PARTICLES BETWEEN LAMBDA = 0 AND LAMBDA = 1
Info: FEP VDW ACTIVE FOR EXNIHILATED PARTICLES BETWEEN LAMBDA = 0 AND LAMBDA = 1
Info: FEP BOND ACTIVE FOR ANNIHILATED PARTICLES BETWEEN LAMBDA = 1 AND LAMBDA = 1
Info: FEP BOND ACTIVE FOR EXNIHILATED PARTICLES BETWEEN LAMBDA = 0 AND LAMBDA = 0
Info: LANGEVIN DYNAMICS ACTIVE
Info: LANGEVIN TEMPERATURE   298
Info: LANGEVIN USING BBK INTEGRATOR
Info: LANGEVIN DAMPING COEFFICIENT IS 1 INVERSE PS
Info: LANGEVIN DYNAMICS NOT APPLIED TO HYDROGENS
Info: LANGEVIN PISTON PRESSURE CONTROL ACTIVE
Info:        TARGET PRESSURE IS 1.01325 BAR
Info:     OSCILLATION PERIOD IS 100 FS
Info:             DECAY TIME IS 50 FS
Info:     PISTON TEMPERATURE IS 298 K
Info:       PRESSURE CONTROL IS GROUP-BASED
Info:    INITIAL STRAIN RATE IS 1.41982e-05 1.41982e-05 1.41982e-05
Info:       CELL FLUCTUATION IS ISOTROPIC
Info: PARTICLE MESH EWALD (PME) ACTIVE
Info: PME TOLERANCE               1e-05
Info: PME EWALD COEFFICIENT       0.226635
Info: PME INTERPOLATION ORDER     4
Info: PME GRID DIMENSIONS         72 72 72
Info: PME MAXIMUM GRID SPACING    1
Info: FULL ELECTROSTATIC EVALUATION FREQUENCY      1
Info: USING VERLET I (r-RESPA) MTS SCHEME.
Info: C1 SPLITTING OF LONG RANGE ELECTROSTATICS
Info: PLACING ATOMS IN PATCHES BY HYDROGEN GROUPS
Info: RIGID BONDS TO HYDROGEN : ALL
Info:         ERROR TOLERANCE : 1e-08
Info:          MAX ITERATIONS : 100
Info: RIGID WATER USING SETTLE ALGORITHM
Info: RANDOM NUMBER SEED     1740640455
Info: USE HYDROGEN BONDS?    NO
Info: COORDINATE PDB         mobley_337666.pdb
Info: STRUCTURE FILE         mobley_337666.psf
Info: PARAMETER file: CHARMM format!
Info: PARAMETERS             ../common/par_all27_prot_lipid.inp
Info: PARAMETERS             mobley_337666.prm
Info: USING ARITHMETIC MEAN TO COMBINE L-J SIGMA PARAMETERS
Info: BINARY COORDINATES     mobley_337666_equilibrated.coor
Info: SUMMARY OF PARAMETERS:
Info: 188 BONDS
Info: 461 ANGLES
Info: 587 DIHEDRAL
Info: 52 IMPROPER
Info: 6 CROSSTERM
Info: 127 VDW
Info: 0 VDW_PAIRS
Info: 0 NBTHOLE_PAIRS
Info: To read alchdata from file: mobley_337666.pdb
Info: To read alchflag data from column: 5
Info: STRUCTURE SUMMARY:
Info: 4242 ATOMS
Info: 2832 BONDS
Info: 1428 ANGLES
Info: 24 DIHEDRALS
Info: 6 IMPROPERS
Info: 0 CROSSTERMS
Info: 0 EXCLUSIONS
Info: 4233 RIGID BONDS
Info: ALCH: 0 ATOMS TO DISAPPEAR IN FINAL STATE
Info: ALCH: 12 ATOMS TO APPEAR IN FINAL STATE
Info: 8493 DEGREES OF FREEDOM
Info: 1419 HYDROGEN GROUPS
Info: 3 ATOMS IN LARGEST HYDROGEN GROUP
Info: 1419 MIGRATION GROUPS
Info: 3 ATOMS IN LARGEST MIGRATION GROUP
Info: TOTAL MASS = 25531.8 amu
Info: TOTAL CHARGE = -9.78704e-07 e
Info: MASS DENSITY = 0.129118 g/cm^3
Info: ATOM DENSITY = 0.0129186 atoms/A^3
Info: ADDED 4281 IMPLICIT EXCLUSIONS
Info: NONBONDED TABLE R-SQUARED SPACING: 0.0625
Info: NONBONDED TABLE SIZE: 769 POINTS
Info: REMOVING COM VELOCITY -0.19696 -0.166304 0.0123578
TCL: Running for 5000 steps
ETITLE: TS BOND ANGLE DIHED IMPRP ELECT VDW BOUNDARY MISC KINETIC TOTAL TEMP POTENTIAL TOTAL3 TEMPAVG PRESSURE GPRESSURE VOLUME PRESSAVG GPRESSAVG
ENERGY: 0 4.1946 5.6612 12.9725 0.2228 -14637.5287 1624.9202 0.0000 0.0000 2491.7050 -10497.8525 295.2745 -12989.5574 -10492.8411 295.2745 72.2288 72.2288 328363.0959 72.2288 72.2288
ENERGY: 1000 2.1726 2.7832 13.9460 0.6095 -14669.3324 1629.7309 0.0000 0.0000 2538.2928 -10481.7974 300.7953 -13020.0902 -10477.4339 299.0513 62.0746 62.7270 339057.5849 1.4011 1.4235
ENERGY: 2000 1.2961 3.5291 13.2839 0.3669 -14558.4446 1502.0240 0.0000 0.0000 2549.9585 -10487.9862 302.1777 -13037.9446 -10484.6983 295.8927 -42.9428 -44.1609 354876.3441 0.5898 0.5932
ENERGY: 3000 3.8497 3.5318 13.4319 0.2277 -14552.6534 1507.4878 0.0000 0.0000 2514.6636 -10509.4610 297.9951 -13024.1245 -10505.9690 298.2696 -17.2583 -16.2213 347408.0969 2.9759 2.9796
ENERGY: 4000 2.5094 2.2165 14.4034 0.4483 -14679.7310 1611.1708 0.0000 0.0000 2533.4519 -10515.5306 300.2216 -13048.9825 -10511.1772 296.7086 39.9025 38.1889 364800.4886 -0.5568 -0.5888
ENERGY: 5000 0.4675 2.3188 12.8967 0.2758 -14575.6270 1517.6963 0.0000 0.0000 2471.5937 -10570.3782 292.8912 -13041.9720 -10564.8673 297.2831 -7.3563 -6.9113 348300.5693 0.5390 0.5162
TCL: Running FEP window   2: Lambda1 0.0625 Lambda2 0.125  [dLambda 0.0625]
TCL: Setting parameter firsttimestep to 0
TCL: Setting parameter alchLambda to 0.0625
Info: NONBONDED TABLE R-SQUARED SPACING: 0.0625
Info: NONBONDED TABLE SIZE: 769 POINTS
TCL: Setting parameter alchLambda2 to 0.125
Info: NONBONDED TABLE R-SQUARED SPACING: 0.0625
Info: NONBONDED TABLE SIZE: 769 POINTS
TCL: Running for 5000 steps
ETITLE: TS BOND ANGLE DIHED IMPRP ELECT VDW BOUNDARY MISC KINETIC TOTAL TEMP POTENTIAL TOTAL3 TEMPAVG PRESSURE GPRESSURE VOLUME PRESSAVG GPRESSAVG
ENERGY: 0 0.4675 2.3188 12.8967 0.2758 -14575.6270 1518.2244 0.0000 0.0000 2471.5148 -10569.9291 292.8819 -13041.4439 -10565.2132 292.8819 -6.7640 -6.7640 348300.5693 -6.7640 -6.7640
ENERGY: 1000 1.7587 2.2694 13.5191 0.8351 -14744.7445 1686.8069 0.0000 0.0000 2520.4424 -10519.1129 298.6799 -13039.5553 -10513.8692 298.0288 97.2521 96.4574 346693.4365 4.2912 4.2737
ENERGY: 2000 0.9892 3.3612 12.8099 0.1362 -14711.5006 1592.1280 0.0000 0.0000 2584.4941 -10517.5820 306.2702 -13102.0760 -10512.6360 298.0243 9.6903 10.0043 350320.2487 1.5162 1.5174
ENERGY: 3000 1.8236 2.1768 14.4763 0.8519 -14675.0141 1619.9961 0.0000 0.0000 2546.2408 -10489.4485 301.7371 -13035.6893 -10484.0112 298.2725 33.4123 33.2992 357594.5926 2.4734 2.4951
ENERGY: 4000 4.0666 4.9065 12.8119 0.3905 -14519.2509 1516.4525 0.0000 0.0000 2490.8810 -10489.7418 295.1768 -12980.6228 -10485.1355 296.8604 -17.0611 -16.9037 358708.2040 1.6827 1.6367
ENERGY: 5000 1.5696 0.9934 14.0045 0.5725 -14540.9365 1597.2382 0.0000 0.0000 2509.4322 -10417.1262 297.3752 -12926.5584 -10412.5155 301.4457 37.4635 37.8840 363902.5410 0.1964 0.2047
TCL: Running FEP window   3: Lambda1 0.125  Lambda2 0.1875 [dLambda 0.0625]
TCL: Setting parameter firsttimestep to 0
TCL: Setting parameter alchLambda to 0.125
Info: NONBONDED TABLE R-SQUARED SPACING: 0.0625
Info: NONBONDED TABLE SIZE: 769 POINTS
TCL: Setting parameter alchLambda2 to 0.1875
Info: NONBONDED TABLE R-SQUARED SPACING: 0.0625
Info: NONBONDED TABLE SIZE: 769 POINTS
TCL: Running for 5000 steps
ETITLE: TS BOND ANGLE DIHED IMPRP ELECT VDW BOUNDARY MISC KINETIC TOTAL TEMP POTENTIAL TOTAL3 TEMPAVG PRESSURE GPRESSURE VOLUME PRESSAVG GPRESSAVG
ENERGY: 0 1.5696 0.9934 14.0045 0.5725 -14540.9365 1597.1210 0.0000 0.0000 2509.3541 -10417.3215 297.3659 -12926.6756 -10412.0943 297.3659 37.9678 37.9678 363902.5410 37.9678 37.9678
ENERGY: 1000 3.2441 3.1085 14.8987 0.5313 -14464.9181 1509.7006 0.0000 0.0000 2563.9835 -10369.4514 303.8397 -12933.4349 -10365.2369 302.1383 -4.3685 -4.0795 383674.6849 -0.6904 -0.6875
ENERGY: 2000 2.4242 2.0408 14.0377 0.3238 -14553.2750 1585.8112 0.0000 0.0000 2561.8509 -10386.7865 303.5870 -12948.6374 -10382.1979 302.8196 54.5338 54.3992 383683.8797 5.5642 5.6317
ENERGY: 3000 1.9165 2.9725 14.4256 0.5261 -14615.3942 1590.8726 0.0000 0.0000 2565.7698 -10438.9111 304.0514 -13004.6809 -10434.8912 299.5315 3.3054 3.3141 407118.1625 -0.8020 -0.8238
ENERGY: 4000 1.3082 3.7861 15.2405 4.4847 -14610.8078 1587.0265 0.0000 0.0000 2503.2272 -10495.7346 296.6399 -12998.9618 -10491.2652 298.8978 24.0799 24.8725 401084.2620 -0.6732 -0.6557
ENERGY: 5000 1.1194 3.9459 15.0336 0.3544 -14599.8131 1514.0187 0.0000 0.0000 2561.1032 -10504.2379 303.4984 -13065.3412 -10498.4416 300.3111 -38.5478 -38.1258 391197.6406 0.0341 0.0192
TCL: Running FEP window   4: Lambda1 0.1875 Lambda2 0.25   [dLambda 0.0625]
TCL: Setting parameter firsttimestep to 0
TCL: Setting parameter alchLambda to 0.1875
Info: NONBONDED TABLE R-SQUARED SPACING: 0.0625
Info: NONBONDED TABLE SIZE: 769 POINTS
TCL: Setting parameter alchLambda2 to 0.25
Info: NONBONDED TABLE R-SQUARED SPACING: 0.0625
Info: NONBONDED TABLE SIZE: 769 POINTS
TCL: Running for 5000 steps
ETITLE: TS BOND ANGLE DIHED IMPRP ELECT VDW BOUNDARY MISC KINETIC TOTAL TEMP POTENTIAL TOTAL3 TEMPAVG PRESSURE GPRESSURE VOLUME PRESSAVG GPRESSAVG
ENERGY: 0 1.1194 3.9459 15.0336 0.3544 -14599.8131 1518.0238 0.0000 0.0000 2561.0243 -10500.3117 303.4890 -13061.3360 -10495.1913 303.4890 -37.0933 -37.0933 391197.6406 -37.0933 -37.0933
ENERGY: 1000 1.2079 1.3672 13.3138 0.2901 -14470.6650 1537.3382 0.0000 0.0000 2508.0107 -10409.1372 297.2067 -12917.1479 -10405.0747 300.3191 7.4045 7.5495 391248.8467 3.0494 3.0684
ENERGY: 2000 2.4308 2.4645 13.0477 0.1636 -14502.8768 1554.9955 0.0000 0.0000 2501.1578 -10428.6169 296.3946 -12929.7747 -10422.2136 300.2826 2.6811 3.1561 393299.0598 0.0601 0.0479
ENERGY: 3000 2.2092 2.1258 15.9377 0.4678 -14539.8908 1531.4109 0.0000 0.0000 2551.4450 -10436.2942 302.3538 -12987.7393 -10432.5218 297.9906 -47.3398 -47.9733 385534.6108 1.0445 1.0479
ENERGY: 4000 1.6794 1.8348 13.3106 0.5845 -14515.6401 1532.0109 0.0000 0.0000 2514.1604 -10452.0594 297.9355 -12966.2199 -10447.3309 300.5051 2.3442 2.8155 385456.2182 1.4309 1.4532
ENERGY: 5000 3.8433 2.9080 14.3685 0.9530 -14722.0185 1655.3577 0.0000 0.0000 2464.2176 -10580.3704 292.0171 -13044.5880 -10574.4362 295.4106 41.2865 40.3115 393018.5266 -0.5930 -0.6102
TCL: Running FEP window   5: Lambda1 0.25   Lambda2 0.3125 [dLambda 0.0625]
TCL: Setting parameter firsttimestep to 0
TCL: Setting parameter alchLambda to 0.25
Info: NONBONDED TABLE R-SQUARED SPACING: 0.0625
Info: NONBONDED TABLE SIZE: 769 POINTS
TCL: Setting parameter alchLambda2 to 0.3125
Info: NONBONDED TABLE R-SQUARED SPACING: 0.0625
Info: NONBONDED TABLE SIZE: 769 POINTS
TCL: Running for 5000 steps
ETITLE: TS BOND ANGLE DIHED IMPRP ELECT VDW BOUNDARY MISC KINETIC TOTAL TEMP POTENTIAL TOTAL3 TEMPAVG PRESSURE GPRESSURE VOLUME PRESSAVG GPRESSAVG
ENERGY: 0 3.8433 2.9080 14.3685 0.9530 -14722.0185 1654.7109 0.0000 0.0000 2464.1414 -10581.0934 292.0081 -13045.2348 -10576.6820 292.0081 40.5437 40.5437 393018.5266 40.5437 40.5437
ENERGY: 1000 4.8464 2.2411 14.8102 0.6755 -14689.0914 1581.9890 0.0000 0.0000 2466.6819 -10617.8474 292.3091 -13084.5293 -10613.6803 294.5103 33.0750 33.0648 371231.1200 3.5225 3.5682
ENERGY: 2000 1.5407 3.2158 13.1273 0.4279 -14715.1435 1550.1724 0.0000 0.0000 2510.0102 -10636.6492 297.4437 -13146.6595 -10630.7686 294.7267 -10.1166 -9.0195 371829.5605 2.4982 2.4726
ENERGY: 3000 1.5551 6.9853 12.7201 0.0937 -14597.3918 1566.3171 0.0000 0.0000 2451.1746 -10558.5459 290.4715 -13009.7205 -10552.5761 295.1162 7.9176 8.7961 379782.4642 1.9820 2.0186
ENERGY: 4000 1.9708 1.6098 15.6573 0.7891 -14631.4997 1514.9005 0.0000 0.0000 2535.8029 -10560.7692 300.5002 -13096.5721 -10553.8951 295.9506 -37.8352 -36.8229 372845.3198 2.1799 2.2026
ENERGY: 5000 6.4184 4.1436 14.6538 0.4500 -14488.9834 1453.6074 0.0000 0.0000 2398.1432 -10611.5669 284.1871 -13009.7101 -10606.8750 295.6493 -79.8009 -80.1110 381005.0056 -3.1449 -3.1413
TCL: Running FEP window   6: Lambda1 0.3125 Lambda2 0.375  [dLambda 0.0625]
TCL: Setting parameter firsttimestep to 0
TCL: Setting parameter alchLambda to 0.3125
Info: NONBONDED TABLE R-SQUARED SPACING: 0.0625
Info: NONBONDED TABLE SIZE: 769 POINTS
TCL: Setting parameter alchLambda2 to 0.375
Info: NONBONDED TABLE R-SQUARED SPACING: 0.0625
Info: NONBONDED TABLE SIZE: 769 POINTS
TCL: Running for 5000 steps
ETITLE: TS BOND ANGLE DIHED IMPRP ELECT VDW BOUNDARY MISC KINETIC TOTAL TEMP POTENTIAL TOTAL3 TEMPAVG PRESSURE GPRESSURE VOLUME PRESSAVG GPRESSAVG
ENERGY: 0 6.4184 4.1436 14.6538 0.4500 -14488.9834 1453.3043 0.0000 0.0000 2398.0690 -10611.9442 284.1783 -13010.0132 -10607.1157 284.1783 -79.7768 -79.7768 381005.0056 -79.7768 -79.7768
ENERGY: 1000 0.7207 4.8601 14.9559 0.9328 -14678.5026 1540.7394 0.0000 0.0000 2467.5162 -10648.7776 292.4080 -13116.2938 -10644.8826 296.0241 -3.2660 -3.5278 385158.0022 -0.2191 -0.1845
ENERGY: 2000 2.0953 2.0968 14.4399 0.5423 -14799.1033 1662.2776 0.0000 0.0000 2535.4928 -10582.1587 300.4635 -13117.6516 -10578.3795 294.3802 60.9373 61.3675 383898.9679 4.0315 4.0537
ENERGY: 3000 4.0326 3.0265 14.7149 0.4688 -14624.5867 1575.1777 0.0000 0.0000 2494.1654 -10533.0009 295.5660 -13027.1663 -10529.3935 296.1485 14.1833 13.4063 373140.3044 1.6375 1.6790
ENERGY: 4000 4.6967 1.7157 14.2098 0.7190 -14414.0288 1427.9727 0.0000 0.0000 2505.7482 -10458.9667 296.9386 -12964.7150 -10456.9611 299.5364 -75.9069 -76.6472 357521.3541 3.1087 3.1407
ENERGY: 5000 4.0272 4.2265 12.8120 0.1076 -14622.3479 1588.4802 0.0000 0.0000 2534.7262 -10477.9682 300.3726 -13012.6944 -10475.1306 298.8552 30.3671 29.5592 338236.0818 -3.5427 -3.5275
TCL: Running FEP window   7: Lambda1 0.375  Lambda2 0.4375 [dLambda 0.0625]
TCL: Setting parameter firsttimestep to 0
TCL: Setting parameter alchLambda to 0.375
Info: NONBONDED TABLE R-SQUARED SPACING: 0.0625
Info: NONBONDED TABLE SIZE: 769 POINTS
TCL: Setting parameter alchLambda2 to 0.4375
Info: NONBONDED TABLE R-SQUARED SPACING: 0.0625
Info: NONBONDED TABLE SIZE: 769 POINTS
TCL: Running for 5000 steps
ETITLE: TS BOND ANGLE DIHED IMPRP ELECT VDW BOUNDARY MISC KINETIC TOTAL TEMP POTENTIAL TOTAL3 TEMPAVG PRESSURE GPRESSURE VOLUME PRESSAVG GPRESSAVG
ENERGY: 0 4.0272 4.2265 12.8120 0.1076 -14622.3479 1588.4496 0.0000 0.0000 2534.6478 -10478.0773 300.3633 -13012.7251 -10474.0134 300.3633 29.8824 29.8824 338236.0818 29.8824 29.8824
ENERGY: 1000 2.4293 3.9248 14.7293 0.5710 -14626.2890 1559.4491 0.0000 0.0000 2562.3700 -10482.8156 303.6485 -13045.1856 -10478.1198 300.2000 6.8740 9.7393 319009.3404 -0.0775 -0.1425
ENERGY: 2000 2.5969 2.6554 13.6191 0.4029 -14504.8686 1485.7139 0.0000 0.0000 2505.3562 -10494.5243 296.8922 -12999.8805 -10490.0485 298.1247 -51.0059 -51.7769 320692.5159 -1.5007 -1.5117
ENERGY: 3000 6.0292 2.4864 13.8860 0.6511 -14528.7555 1509.0724 0.0000 0.0000 2513.8125 -10482.8179 297.8943 -12996.6304 -10478.7432 297.9526 -15.0764 -15.6614 320330.1205 -2.4970 -2.5206
ENERGY: 4000 2.2082 1.8016 14.4929 0.6555 -14731.0020 1553.0540 0.0000 0.0000 2541.8391 -10616.9507 301.2155 -13158.7898 -10611.7351 293.2351 -28.2691 -29.0018 326707.6573 -2.9289 -2.9771
ENERGY: 5000 2.0614 3.3379 13.3341 0.3148 -14585.0306 1512.7762 0.0000 0.0000 2479.7135 -10573.4928 293.8534 -13053.2063 -10567.6731 295.4658 -44.5312 -44.3262 324643.4696 -0.7753 -0.7694
TCL: Running FEP window   8: Lambda1 0.4375 Lambda2 0.5    [dLambda 0.0625]
TCL: Setting parameter firsttimestep to 0
TCL: Setting parameter alchLambda to 0.4375
Info: NONBONDED TABLE R-SQUARED SPACING: 0.0625
Info: NONBONDED TABLE SIZE: 769 POINTS
TCL: Setting parameter alchLambda2 to 0.5
Info: NONBONDED TABLE R-SQUARED SPACING: 0.0625
Info: NONBONDED TABLE SIZE: 769 POINTS
TCL: Running for 5000 steps
ETITLE: TS BOND ANGLE DIHED IMPRP ELECT VDW BOUNDARY MISC KINETIC TOTAL TEMP POTENTIAL TOTAL3 TEMPAVG PRESSURE GPRESSURE VOLUME PRESSAVG GPRESSAVG
ENERGY: 0 2.0614 3.3379 13.3341 0.3148 -14585.0306 1512.7973 0.0000 0.0000 2479.6359 -10573.5493 293.8442 -13053.1853 -10568.3439 293.8442 -43.6290 -43.6290 324643.4696 -43.6290 -43.6290
ENERGY: 1000 2.0526 3.2201 16.7912 1.4800 -14630.4411 1585.7338 0.0000 0.0000 2531.3494 -10489.8138 299.9724 -13021.1633 -10483.7313 298.8408 44.6717 42.7149 318635.5663 0.1278 0.1190
ENERGY: 2000 7.5745 3.4062 13.3730 0.1099 -14564.0883 1546.6763 0.0000 0.0000 2464.8136 -10528.1349 292.0877 -12992.9484 -10524.5273 296.4779 -1.8801 -2.6253 324581.1797 0.0365 0.0091
ENERGY: 3000 2.3867 4.1446 13.5029 1.2247 -14586.8358 1520.2133 0.0000 0.0000 2482.1320 -10563.2316 294.1400 -13045.3636 -10556.9147 296.1486 -14.0068 -13.5490 334530.4586 -1.1544 -1.2107
ENERGY: 4000 2.4416 2.2459 14.0859 0.4254 -14583.2664 1550.5211 0.0000 0.0000 2479.3905 -10534.1561 293.8151 -13013.5465 -10529.3811 296.5604 11.9160 10.7532 336232.6229 -0.6031 -0.6184
ENERGY: 5000 3.8535 2.4936 13.5924 0.7507 -14568.4455 1596.5520 0.0000 0.0000 2498.2052 -10452.9983 296.0447 -12951.2034 -10447.5157 297.8258 39.1322 39.0912 360407.3082 1.4711 1.4860
TCL: Running FEP window   9: Lambda1 0.5    Lambda2 0.5625 [dLambda 0.0625]
TCL: Setting parameter firsttimestep to 0
TCL: Setting parameter alchLambda to 0.5
Info: NONBONDED TABLE R-SQUARED SPACING: 0.0625
Info: NONBONDED TABLE SIZE: 769 POINTS
TCL: Setting parameter alchLambda2 to 0.5625
Info: NONBONDED TABLE R-SQUARED SPACING: 0.0625
Info: NONBONDED TABLE SIZE: 769 POINTS
TCL: Running for 5000 steps
ETITLE: TS BOND ANGLE DIHED IMPRP ELECT VDW BOUNDARY MISC KINETIC TOTAL TEMP POTENTIAL TOTAL3 TEMPAVG PRESSURE GPRESSURE VOLUME PRESSAVG GPRESSAVG
ENERGY: 0 3.8535 2.4936 13.5924 0.7507 -14568.4455 1596.2543 0.0000 0.0000 2498.1339 -10453.3673 296.0363 -12951.5012 -10449.1790 296.0363 39.3054 39.3054 360407.3082 39.3054 39.3054
ENERGY: 1000 1.3113 3.1827 13.7883 0.2455 -14688.3741 1618.4026 0.0000 0.0000 2483.9876 -10567.4561 294.3599 -13051.4437 -10563.9107 296.7660 50.7734 50.4649 372554.3856 3.4839 3.4446
ENERGY: 2000 1.0746 2.6584 14.0690 1.0747 -14646.6355 1558.3806 0.0000 0.0000 2439.9689 -10629.4093 289.1436 -13069.3781 -10622.5764 293.9033 4.3186 4.5510 375503.6357 0.2613 0.2669
ENERGY: 3000 3.2197 4.0257 15.2061 0.8075 -14773.6998 1614.5718 0.0000 0.0000 2476.5185 -10659.3503 293.4748 -13135.8688 -10655.2162 293.6814 17.7172 18.7303 373660.1662 1.0975 1.0987
ENERGY: 4000 2.1357 4.5308 14.6069 0.2455 -14692.4491 1607.9908 0.0000 0.0000 2547.1007 -10515.8387 301.8390 -13062.9394 -10510.0409 296.4667 50.9468 48.8863 353872.0042 3.0743 3.0418
ENERGY: 5000 4.5085 3.8153 14.7359 0.5926 -14625.2192 1543.3023 0.0000 0.0000 2484.4515 -10573.8132 294.4149 -13058.2647 -10567.6509 296.7876 -6.9945 -6.8755 349686.8635 3.4198 3.4010
TCL: Running FEP window  10: Lambda1 0.5625 Lambda2 0.625  [dLambda 0.0625]
TCL: Setting parameter firsttimestep to 0
TCL: Setting parameter alchLambda to 0.5625
Info: NONBONDED TABLE R-SQUARED SPACING: 0.0625
Info: NONBONDED TABLE SIZE: 769 POINTS
TCL: Setting parameter alchLambda2 to 0.625
Info: NONBONDED TABLE R-SQUARED SPACING: 0.0625
Info: NONBONDED TABLE SIZE: 769 POINTS
TCL: Running for 5000 steps
ETITLE: TS BOND ANGLE DIHED IMPRP ELECT VDW BOUNDARY MISC KINETIC TOTAL TEMP POTENTIAL TOTAL3 TEMPAVG PRESSURE GPRESSURE VOLUME PRESSAVG GPRESSAVG
ENERGY: 0 4.5085 3.8153 14.7359 0.5926 -14645.9222 1543.0369 0.0000 0.0000 2484.3751 -10594.8579 294.4058 -13079.2331 -10589.8262 294.4058 -7.9487 -7.9487 349686.8635 -7.9487 -7.9487
ENERGY: 1000 2.9898 3.1911 12.9036 0.2443 -14678.8305 1618.4649 0.0000 0.0000 2506.4794 -10534.5575 297.0253 -13041.0369 -10530.5508 297.7190 89.8601 88.9570 334084.9778 1.5642 1.5321
ENERGY: 2000 3.7213 2.5618 13.9600 0.5836 -14537.2877 1539.3836 0.0000 0.0000 2487.5723 -10489.5050 294.7847 -12977.0773 -10484.9673 299.3432 11.5503 12.1459 332595.2040 2.2450 2.2325
ENERGY: 3000 2.5625 3.3066 13.9990 0.2393 -14643.4672 1558.9887 0.0000 0.0000 2485.8942 -10578.4769 294.5859 -13064.3711 -10574.4570 296.8842 0.1278 -0.5440 330735.4675 -1.0103 -0.9559
ENERGY: 4000 3.0281 7.7707 12.6950 0.0764 -14691.8964 1557.9585 0.0000 0.0000 2597.9583 -10512.4094 307.8658 -13110.3677 -10506.6062 299.2696 0.8950 0.5755 323983.9553 0.1463 0.1550
ENERGY: 5000 5.9563 3.3127 12.9351 0.2613 -14507.0523 1474.1580 0.0000 0.0000 2556.3153 -10454.1136 302.9310 -13010.4289 -10447.7648 298.1095 -20.7065 -20.9434 308146.7738 0.3206 0.2372
TCL: Running FEP window  11: Lambda1 0.625  Lambda2 0.6875 [dLambda 0.0625]
TCL: Setting parameter firsttimestep to 0
TCL: Setting parameter alchLambda to 0.625
Info: NONBONDED TABLE R-SQUARED SPACING: 0.0625
Info: NONBONDED TABLE SIZE: 769 POINTS
TCL: Setting parameter alchLambda2 to 0.6875
Info: NONBONDED TABLE R-SQUARED SPACING: 0.0625
Info: NONBONDED TABLE SIZE: 769 POINTS
TCL: Running for 5000 steps
ETITLE: TS BOND ANGLE DIHED IMPRP ELECT VDW BOUNDARY MISC KINETIC TOTAL TEMP POTENTIAL TOTAL3 TEMPAVG PRESSURE GPRESSURE VOLUME PRESSAVG GPRESSAVG
ENERGY: 0 5.9563 3.3127 12.9351 0.2613 -14528.2169 1474.1031 0.0000 0.0000 2556.2423 -10475.4060 302.9223 -13031.6483 -10470.2403 302.9223 -22.0753 -22.0753 308146.7738 -22.0753 -22.0753
ENERGY: 1000 2.1892 3.5806 12.8366 0.1343 -14514.0168 1558.8951 0.0000 0.0000 2518.0109 -10418.3703 298.3918 -12936.3811 -10413.2134 302.3219 62.8189 62.0538 295684.7228 2.8639 2.8490
ENERGY: 2000 3.6707 4.3296 13.4575 0.3669 -14602.7951 1547.6317 0.0000 0.0000 2536.5832 -10496.7554 300.5927 -13033.3386 -10491.1862 301.0089 -6.9188 -7.9534 289274.5785 -0.4549 -0.4212
ENERGY: 3000 1.3264 2.7423 15.9414 0.5151 -14627.5175 1555.7357 0.0000 0.0000 2512.1197 -10539.1370 297.6937 -13051.2566 -10535.7327 300.3976 -10.3089 -9.7978 278079.8413 -1.7291 -1.7087
ENERGY: 4000 1.0485 2.1498 13.9105 0.5962 -14650.3290 1553.4615 0.0000 0.0000 2515.4226 -10563.7399 298.0851 -13079.1625 -10557.2111 297.9778 -12.5616 -11.9627 266807.7279 4.6539 4.6091
ENERGY: 5000 2.4491 3.5735 14.6777 0.8904 -14552.1004 1491.6317 0.0000 0.0000 2522.4886 -10516.3894 298.9224 -13038.8781 -10513.6230 299.7231 -3.0921 -4.0252 240538.2976 -3.0344 -3.0579
TCL: Running FEP window  12: Lambda1 0.6875 Lambda2 0.75   [dLambda 0.0625]
TCL: Setting parameter firsttimestep to 0
TCL: Setting parameter alchLambda to 0.6875
Info: NONBONDED TABLE R-SQUARED SPACING: 0.0625
Info: NONBONDED TABLE SIZE: 769 POINTS
TCL: Setting parameter alchLambda2 to 0.75
Info: NONBONDED TABLE R-SQUARED SPACING: 0.0625
Info: NONBONDED TABLE SIZE: 769 POINTS
TCL: Running for 5000 steps
ETITLE: TS BOND ANGLE DIHED IMPRP ELECT VDW BOUNDARY MISC KINETIC TOTAL TEMP POTENTIAL TOTAL3 TEMPAVG PRESSURE GPRESSURE VOLUME PRESSAVG GPRESSAVG
ENERGY: 0 2.4491 3.5735 14.6777 0.8904 -14575.4195 1492.6098 0.0000 0.0000 2522.4150 -10538.8040 298.9137 -13061.2190 -10534.0688 298.9137 -5.2744 -5.2744 240538.2976 -5.2744 -5.2744
ENERGY: 1000 3.5051 7.2809 13.7003 0.9631 -14694.4460 1552.8056 0.0000 0.0000 2528.3924 -10587.7986 299.6220 -13116.1910 -10582.5037 298.6050 -16.1917 -16.5650 227202.7041 0.8740 0.8937
ENERGY: 2000 2.8814 6.0938 15.5467 0.5922 -14749.6867 1597.8437 0.0000 0.0000 2522.6094 -10604.1194 298.9367 -13126.7289 -10599.0050 297.7293 21.6577 20.7310 220741.8415 2.7527 2.7536
ENERGY: 3000 2.7277 6.1142 13.0740 0.2404 -14816.1411 1616.2320 0.0000 0.0000 2540.2492 -10637.5036 301.0271 -13177.7528 -10629.5284 297.3688 98.4934 98.5873 221464.6847 3.6545 3.7184
ENERGY: 4000 1.6551 3.3936 15.1110 1.2813 -14669.2482 1575.5518 0.0000 0.0000 2517.5602 -10554.6953 298.3384 -13072.2554 -10548.1425 298.5603 47.6591 48.6381 235187.0159 1.3010 1.3028
ENERGY: 5000 5.8688 2.4105 15.2418 0.3356 -14667.0289 1545.7787 0.0000 0.0000 2453.9589 -10643.4347 290.8014 -13097.3936 -10637.0655 297.1010 -25.6714 -24.1143 241135.9628 -0.3308 -0.3623
TCL: Running FEP window  13: Lambda1 0.75   Lambda2 0.8125 [dLambda 0.0625]
TCL: Setting parameter firsttimestep to 0
TCL: Setting parameter alchLambda to 0.75
Info: NONBONDED TABLE R-SQUARED SPACING: 0.0625
Info: NONBONDED TABLE SIZE: 769 POINTS
TCL: Setting parameter alchLambda2 to 0.8125
Info: NONBONDED TABLE R-SQUARED SPACING: 0.0625
Info: NONBONDED TABLE SIZE: 769 POINTS
TCL: Running for 5000 steps
ETITLE: TS BOND ANGLE DIHED IMPRP ELECT VDW BOUNDARY MISC KINETIC TOTAL TEMP POTENTIAL TOTAL3 TEMPAVG PRESSURE GPRESSURE VOLUME PRESSAVG GPRESSAVG
ENERGY: 0 5.8688 2.4105 15.2418 0.3356 -14690.1568 1547.6358 0.0000 0.0000 2453.8871 -10664.7772 290.7929 -13118.6643 -10659.8340 290.7929 -23.1402 -23.1402 241135.9628 -23.1402 -23.1402
ENERGY: 1000 4.1214 6.8622 14.3981 0.7973 -14859.2810 1571.4249 0.0000 0.0000 2471.4609 -10790.2161 292.8755 -13261.6771 -10786.2112 292.7200 -1.2086 -3.8432 238681.0857 2.6579 2.6907
ENERGY: 2000 4.5307 5.1939 12.8939 0.5187 -14880.5292 1623.8328 0.0000 0.0000 2440.7905 -10792.7688 289.2409 -13233.5593 -10788.3852 289.9982 43.7101 43.5514 236118.2913 1.2071 1.1760
ENERGY: 3000 7.3063 1.4643 14.1085 0.5154 -14894.1899 1638.6588 0.0000 0.0000 2503.3743 -10728.7624 296.6573 -13232.1367 -10724.5395 295.1678 130.6554 130.0967 232943.1861 1.9597 2.0894
ENERGY: 4000 2.2056 4.2879 13.8410 0.1989 -14839.8234 1620.4641 0.0000 0.0000 2482.8050 -10716.0209 294.2198 -13198.8259 -10711.5201 292.3833 79.4300 80.0117 236682.5429 1.8895 1.8641
ENERGY: 5000 2.5258 6.0049 13.4354 0.3991 -14710.7639 1519.3630 0.0000 0.0000 2502.6349 -10666.4009 296.5697 -13169.0358 -10661.4698 297.1756 -27.9558 -28.7043 237276.2538 2.3026 2.3094
TCL: Running FEP window  14: Lambda1 0.8125 Lambda2 0.875  [dLambda 0.0625]
TCL: Setting parameter firsttimestep to 0
TCL: Setting parameter alchLambda to 0.8125
Info: NONBONDED TABLE R-SQUARED SPACING: 0.0625
Info: NONBONDED TABLE SIZE: 769 POINTS
TCL: Setting parameter alchLambda2 to 0.875
Info: NONBONDED TABLE R-SQUARED SPACING: 0.0625
Info: NONBONDED TABLE SIZE: 769 POINTS
TCL: Running for 5000 steps
ETITLE: TS BOND ANGLE DIHED IMPRP ELECT VDW BOUNDARY MISC KINETIC TOTAL TEMP POTENTIAL TOTAL3 TEMPAVG PRESSURE GPRESSURE VOLUME PRESSAVG GPRESSAVG
ENERGY: 0 2.5258 6.0049 13.4354 0.3991 -14736.0675 1522.8784 0.0000 0.0000 2502.5554 -10688.2686 296.5603 -13190.8240 -10683.2020 296.5603 -26.7177 -26.7177 237276.2538 -26.7177 -26.7177
ENERGY: 1000 2.8230 2.5812 14.0068 0.7790 -14760.2373 1548.8535 0.0000 0.0000 2489.1292 -10702.0647 294.9692 -13191.1938 -10697.6635 297.7749 0.1157 -0.2458 223729.3215 -4.4415 -4.4876
ENERGY: 2000 3.1763 2.1213 15.4098 1.3059 -14788.0714 1654.8629 0.0000 0.0000 2431.3925 -10679.8026 288.1272 -13111.1951 -10675.7836 296.7210 117.0875 118.9691 224790.2703 2.5866 2.5633
ENERGY: 3000 3.1549 2.8223 12.9906 0.2696 -14599.8669 1449.4094 0.0000 0.0000 2473.9384 -10657.2817 293.1691 -13131.2200 -10654.1141 297.9652 -98.7498 -98.8239 209593.1494 5.1266 5.2167
ENERGY: 4000 2.0086 2.7288 14.2342 0.5700 -14638.7004 1517.2963 0.0000 0.0000 2480.2117 -10621.6507 293.9125 -13101.8624 -10617.8520 295.4176 -64.8367 -63.9969 199540.3903 0.0682 0.0951
ENERGY: 5000 2.4029 3.1070 13.6708 0.6169 -14806.9893 1619.8325 0.0000 0.0000 2549.7479 -10617.6113 302.1527 -13167.3591 -10614.5641 297.4380 94.0336 93.3295 202634.3130 0.2554 0.3177
TCL: Running FEP window  15: Lambda1 0.875  Lambda2 0.9375 [dLambda 0.0625]
TCL: Setting parameter firsttimestep to 0
TCL: Setting parameter alchLambda to 0.875
Info: NONBONDED TABLE R-SQUARED SPACING: 0.0625
Info: NONBONDED TABLE SIZE: 769 POINTS
TCL: Setting parameter alchLambda2 to 0.9375
Info: NONBONDED TABLE R-SQUARED SPACING: 0.0625
Info: NONBONDED TABLE SIZE: 769 POINTS
TCL: Running for 5000 steps
ETITLE: TS BOND ANGLE DIHED IMPRP ELECT VDW BOUNDARY MISC KINETIC TOTAL TEMP POTENTIAL TOTAL3 TEMPAVG PRESSURE GPRESSURE VOLUME PRESSAVG GPRESSAVG
ENERGY: 0 2.4029 3.1070 13.6708 0.6169 -14831.4342 1623.9266 0.0000 0.0000 2549.6721 -10638.0379 302.1437 -13187.7100 -10633.0036 302.1437 97.3297 97.3297 202634.3130 97.3297 97.3297
ENERGY: 1000 2.2750 3.1894 15.6853 0.6904 -14767.7623 1546.3714 0.0000 0.0000 2529.9070 -10669.6437 299.8015 -13199.5507 -10664.5080 299.0204 38.6352 40.0671 203190.8076 0.7401 0.7116
ENERGY: 2000 2.4429 3.2545 12.9067 0.4444 -14560.1147 1426.3465 0.0000 0.0000 2487.8909 -10626.8287 294.8225 -13114.7196 -10619.4465 297.7821 -145.2626 -145.2188 204970.9698 1.6470 1.5404
ENERGY: 3000 1.7332 2.5981 13.1237 0.4852 -14697.5716 1536.5786 0.0000 0.0000 2483.9083 -10659.1446 294.3505 -13143.0530 -10656.5344 298.1697 -12.3770 -13.3471 198631.5390 1.1448 1.2074
ENERGY: 4000 5.7078 6.2950 14.1735 0.3593 -14828.4583 1552.9654 0.0000 0.0000 2481.0945 -10767.8628 294.0171 -13248.9573 -10762.1018 294.5969 43.3886 42.6015 194197.9971 -0.6161 -0.5781
ENERGY: 5000 2.9774 3.0426 16.4623 1.7825 -14862.6349 1586.5501 0.0000 0.0000 2499.8664 -10751.9537 296.2416 -13251.8201 -10747.9150 295.4938 50.8542 51.0894 198956.5742 5.0798 5.0619
TCL: Running FEP window  16: Lambda1 0.9375 Lambda2 1.0    [dLambda 0.0625]
TCL: Setting parameter firsttimestep to 0
TCL: Setting parameter alchLambda to 0.9375
Info: NONBONDED TABLE R-SQUARED SPACING: 0.0625
Info: NONBONDED TABLE SIZE: 769 POINTS
TCL: Setting parameter alchLambda2 to 1.0
Info: NONBONDED TABLE R-SQUARED SPACING: 0.0625
Info: NONBONDED TABLE SIZE: 769 POINTS
TCL: Running for 5000 steps
ETITLE: TS BOND ANGLE DIHED IMPRP ELECT VDW BOUNDARY MISC KINETIC TOTAL TEMP POTENTIAL TOTAL3 TEMPAVG PRESSURE GPRESSURE VOLUME PRESSAVG GPRESSAVG
ENERGY: 0 2.9774 3.0426 16.4623 1.7825 -14888.9828 1590.6945 0.0000 0.0000 2499.7904 -10774.2331 296.2326 -13274.0235 -10768.8801 296.2326 56.0984 56.0984 198956.5742 56.0984 56.0984
ENERGY: 1000 4.3445 5.0116 13.5607 0.2717 -14786.5890 1563.6515 0.0000 0.0000 2509.3987 -10690.3502 297.3712 -13199.7489 -10686.8505 298.0011 22.7374 23.8518 209530.0144 1.7163 1.6791
ENERGY: 2000 3.5015 1.7938 15.7533 0.8266 -14872.2568 1569.3095 0.0000 0.0000 2485.5766 -10795.4955 294.5482 -13281.0721 -10790.4931 294.6063 -5.8349 -9.5797 218522.1333 -0.3931 -0.3534
ENERGY: 3000 2.6311 5.8957 14.1161 0.4182 -14914.9764 1641.2893 0.0000 0.0000 2492.6549 -10757.9711 295.3870 -13250.6261 -10754.6848 295.7379 88.4005 87.7280 229500.2875 0.7936 0.8211
ENERGY: 4000 1.6593 3.8067 14.6683 0.5450 -14930.5097 1585.0843 0.0000 0.0000 2524.6283 -10800.1178 299.1760 -13324.7460 -10795.2973 294.2470 19.1086 19.0238 229238.9814 -1.0220 -0.9795
ENERGY: 5000 5.1012 5.2423 13.4552 0.2849 -14686.0644 1456.0067 0.0000 0.0000 2547.0405 -10658.9335 301.8319 -13205.9740 -10653.5649 296.4655 -77.5730 -77.0731 241203.1185 2.1607 2.3104
