Info: SIMULATION PARAMETERS:
Info: TIMESTEP               2
Info: NUMBER OF STEPS        0
Info: STEPS PER CYCLE        10
Info: PERIODIC CELL BASIS 1  34.986 0 0
Info: PERIODIC CELL BASIS 2  0 34.26 0
Info: PERIODIC CELL BASIS 3  0 0 36.199
Info: PERIODIC CELL CENTER   0 0 0
Info: WRAPPING WATERS AROUND PERIODIC BOUNDARIES ON OUTPUT.
Info: WRAPPING ALL CLUSTERS AROUND PERIODIC BOUNDARIES ON OUTPUT.
Info: FIRST LDB TIMESTEP     50
Info: LAST LDB TIMESTEP     -1
Info: HOM BACKGROUND SCALING 1
Info: PME BACKGROUND SCALING 1
Info: MIN ATOMS PER PATCH    40
Info: EMPTY PATCH LOAD       40 ATOMS
Info: INITIAL TEMPERATURE    300
Info: CENTER OF MASS MOVING INITIALLY? NO
Info: DIELECTRIC             1
Info: EXCLUDE                SCALED ONE-FOUR
Info: 1-4 ELECTROSTATICS SCALED BY 0.833333
Info: MODIFIED 1-4 VDW PARAMETERS WILL BE USED
Info: DCD FILENAME           mobley_9246351_equil.dcd
Info: DCD FREQUENCY          100000
Info: DCD FIRST STEP         100000
Info: DCD FILE WILL CONTAIN UNIT CELL DATA
Info: XST FILENAME           mobley_9246351_equil.xst
Info: XST FREQUENCY          100000
Info: NO VELOCITY DCD OUTPUT
Info: NO FORCE DCD OUTPUT
Info: OUTPUT FILENAME        mobley_9246351_equil
Info: BINARY OUTPUT FILES WILL BE USED
Info: RESTART FILENAME       mobley_9246351_equil.restart
Info: RESTART FREQUENCY      100000
Info: BINARY RESTART FILES WILL BE USED
Info: CUTOFF                 9
Info: PAIRLIST DISTANCE      11
Info: PAIRLIST SHRINK RATE   0.01
Info: PAIRLIST GROW RATE     0.01
Info: PAIRLIST TRIGGER       0.3
Info: PAIRLISTS PER CYCLE    2
Info: PAIRLISTS ENABLED
Info: MARGIN                 8
Info: HYDROGEN GROUP CUTOFF  2.5
Info: PATCH DIMENSION        21.5
Info: ENERGY OUTPUT STEPS    100000
Info: ENERGY EVALUATION STEPS    100000
Info: OUTPUT ENERGY PRECISION 4
Info: CROSSTERM ENERGY INCLUDED IN DIHEDRAL
Info: TIMING OUTPUT STEPS    1000000
Info: PRESSURE OUTPUT STEPS  100000
Info: FIXED ATOMS ACTIVE
Info: LANGEVIN DYNAMICS ACTIVE
Info: LANGEVIN TEMPERATURE   30
Info: LANGEVIN USING BBK INTEGRATOR
Info: LANGEVIN DAMPING COEFFICIENT IS 1 INVERSE PS
Info: LANGEVIN DYNAMICS APPLIED TO HYDROGENS
Info: LANGEVIN PISTON PRESSURE CONTROL ACTIVE
Info:        TARGET PRESSURE IS 1.01325 BAR
Info:     OSCILLATION PERIOD IS 50 FS
Info:             DECAY TIME IS 25 FS
Info:     PISTON TEMPERATURE IS 300 K
Info:       PRESSURE CONTROL IS GROUP-BASED
Info:    INITIAL STRAIN RATE IS 0 0 0
Info:       CELL FLUCTUATION IS ISOTROPIC
Info: PARTICLE MESH EWALD (PME) ACTIVE
Info: PME TOLERANCE               1e-06
Info: PME EWALD COEFFICIENT       0.348832
Info: PME INTERPOLATION ORDER     4
Info: PME GRID DIMENSIONS         36 36 40
Info: PME MAXIMUM GRID SPACING    1
Info: FULL ELECTROSTATIC EVALUATION FREQUENCY      2
Info: USING VERLET I (r-RESPA) MTS SCHEME.
Info: C1 SPLITTING OF LONG RANGE ELECTROSTATICS
Info: PLACING ATOMS IN PATCHES BY HYDROGEN GROUPS
Info: RIGID BONDS TO HYDROGEN : ALL
Info:         ERROR TOLERANCE : 1e-08
Info:          MAX ITERATIONS : 100
Info: RIGID WATER USING SETTLE ALGORITHM
Info: RANDOM NUMBER SEED     1741923601
Info: USE HYDROGEN BONDS?    NO
Info: Using AMBER format force field!
Info: AMBER PARM FILE        mobley_9246351.prmtop
Info: COORDINATE PDB         mobley_9246351.pdb
Info: Exclusions will be read from PARM file!
Info: SCNB (VDW SCALING)     2
Info: USING ARITHMETIC MEAN TO COMBINE L-J SIGMA PARAMETERS
Info: BINARY COORDINATES     mobley_9246351_min.coor
Info: SUMMARY OF PARAMETERS:
Info: 4 BONDS
Info: 3 ANGLES
Info:   3 HARMONIC
Info:   0 COSINE-BASED
Info: 0 DIHEDRAL
Info: 0 IMPROPER
Info: 0 CROSSTERM
Info: 0 VDW
Info: 15 VDW_PAIRS
Info: 0 NBTHOLE_PAIRS
Info: STRUCTURE SUMMARY:
Info: 2906 ATOMS
Info: 2905 BONDS
Info: 6 ANGLES
Info: 0 DIHEDRALS
Info: 0 IMPROPERS
Info: 0 CROSSTERMS
Info: 2911 EXCLUSIONS
Info: 5 FIXED ATOMS
Info: 2903 RIGID BONDS
Info: 2 RIGID BONDS BETWEEN FIXED ATOMS
Info: 5802 DEGREES OF FREEDOM
Info: 970 HYDROGEN GROUPS
Info: 3 ATOMS IN LARGEST HYDROGEN GROUP
Info: 970 MIGRATION GROUPS
Info: 3 ATOMS IN LARGEST MIGRATION GROUP
Info: 3 HYDROGEN GROUPS WITH ALL ATOMS FIXED
Info: TOTAL MASS = 17595.3 amu
Info: TOTAL CHARGE = -0.000100001 e
Info: MASS DENSITY = 0.673407 g/cm^3
Info: ATOM DENSITY = 0.0669757 atoms/A^3
Info: ADDED 0 IMPLICIT EXCLUSIONS
Info: NONBONDED TABLE R-SQUARED SPACING: 0.0625
Info: NONBONDED TABLE SIZE: 705 POINTS
Info: REMOVING COM VELOCITY 0.0511225 -0.166142 -0.234419
TCL: Running for 100000 steps
ETITLE: TS BOND ANGLE DIHED IMPRP ELECT VDW BOUNDARY MISC KINETIC TOTAL TEMP POTENTIAL TOTAL3 TEMPAVG PRESSURE GPRESSURE VOLUME PRESSAVG GPRESSAVG
ENERGY: 0 0.0000 0.0000 0.0000 0.0000 -13496.0945 2356.2276 0.0000 0.0000 1747.2679 -9392.5990 303.0904 -11139.8669 -9392.2802 303.0904 307.7826 347.5521 43388.8584 307.7826 347.5521
ENERGY: 100000 0.0000 0.0000 0.0000 0.0000 -13968.4732 2386.9320 0.0000 0.0000 170.3603 -11411.1809 29.5516 -11581.5412 -11410.7638 30.9391 -577.5577 -533.3445 29374.8852 3.4833 3.5194
TCL: Running 100000 steps at 60 kelvin.
TCL: Setting parameter langevinTemp to 60
TCL: Running for 100000 steps
ETITLE: TS BOND ANGLE DIHED IMPRP ELECT VDW BOUNDARY MISC KINETIC TOTAL TEMP POTENTIAL TOTAL3 TEMPAVG PRESSURE GPRESSURE VOLUME PRESSAVG GPRESSAVG
ENERGY: 100000 0.0000 0.0000 0.0000 0.0000 -13968.4732 2386.9320 0.0000 0.0000 170.2749 -11411.2663 29.5368 -11581.5412 -11410.8385 29.5368 -587.5758 -533.6068 29374.8852 -587.5758 -533.6068
ENERGY: 200000 0.0000 0.0000 0.0000 0.0000 -13938.0770 2432.6295 0.0000 0.0000 343.4152 -11162.0323 59.5706 -11505.4475 -11161.3179 59.8483 121.6820 173.4549 28958.6613 3.5861 3.5439
TCL: Running 100000 steps at 90 kelvin.
TCL: Setting parameter langevinTemp to 90
TCL: Running for 100000 steps
ETITLE: TS BOND ANGLE DIHED IMPRP ELECT VDW BOUNDARY MISC KINETIC TOTAL TEMP POTENTIAL TOTAL3 TEMPAVG PRESSURE GPRESSURE VOLUME PRESSAVG GPRESSAVG
ENERGY: 200000 0.0000 0.0000 0.0000 0.0000 -13938.0770 2432.6295 0.0000 0.0000 343.2449 -11162.2027 59.5411 -11505.4475 -11161.5185 59.5411 106.4320 173.6048 28958.6613 106.4320 173.6048
ENERGY: 300000 0.0000 0.0000 0.0000 0.0000 -13824.6995 2415.5973 0.0000 0.0000 516.8568 -10892.2454 89.6567 -11409.1022 -10890.1813 89.9839 439.4456 457.6632 28807.9066 4.7439 4.6329
TCL: Running 100000 steps at 120 kelvin.
TCL: Setting parameter langevinTemp to 120
TCL: Running for 100000 steps
ETITLE: TS BOND ANGLE DIHED IMPRP ELECT VDW BOUNDARY MISC KINETIC TOTAL TEMP POTENTIAL TOTAL3 TEMPAVG PRESSURE GPRESSURE VOLUME PRESSAVG GPRESSAVG
ENERGY: 300000 0.0000 0.0000 0.0000 0.0000 -13824.6995 2415.5973 0.0000 0.0000 516.6094 -10892.4928 89.6138 -11409.1022 -10891.1598 89.6138 403.0753 458.3427 28807.9066 403.0753 458.3427
ENERGY: 400000 0.0000 0.0000 0.0000 0.0000 -13544.5058 2246.0979 0.0000 0.0000 676.4263 -10621.9816 117.3365 -11298.4079 -10620.1922 119.8518 -712.4552 -660.2236 29086.0971 4.4743 4.4622
TCL: Running 100000 steps at 150 kelvin.
TCL: Setting parameter langevinTemp to 150
TCL: Running for 100000 steps
ETITLE: TS BOND ANGLE DIHED IMPRP ELECT VDW BOUNDARY MISC KINETIC TOTAL TEMP POTENTIAL TOTAL3 TEMPAVG PRESSURE GPRESSURE VOLUME PRESSAVG GPRESSAVG
ENERGY: 400000 0.0000 0.0000 0.0000 0.0000 -13544.5058 2246.0979 0.0000 0.0000 676.0867 -10622.3211 117.2776 -11298.4079 -10620.7557 117.2776 -715.6961 -659.9966 29086.0971 -715.6961 -659.9966
ENERGY: 500000 0.0000 0.0000 0.0000 0.0000 -13432.9215 2256.5857 0.0000 0.0000 836.8649 -10339.4709 145.1670 -11176.3358 -10337.3217 149.5826 -68.8348 -33.7533 28777.5014 4.7480 4.7364
TCL: Running 100000 steps at 180 kelvin.
TCL: Setting parameter langevinTemp to 180
TCL: Running for 100000 steps
ETITLE: TS BOND ANGLE DIHED IMPRP ELECT VDW BOUNDARY MISC KINETIC TOTAL TEMP POTENTIAL TOTAL3 TEMPAVG PRESSURE GPRESSURE VOLUME PRESSAVG GPRESSAVG
ENERGY: 500000 0.0000 0.0000 0.0000 0.0000 -13432.9215 2256.5857 0.0000 0.0000 836.4266 -10339.9092 145.0910 -11176.3358 -10338.3227 145.0910 -90.3954 -34.4732 28777.5014 -90.3954 -34.4732
ENERGY: 600000 0.0000 0.0000 0.0000 0.0000 -13018.4754 2153.0840 0.0000 0.0000 1016.1016 -9849.2899 176.2584 -10865.3915 -9847.3451 179.9127 416.4678 471.8519 28383.7913 3.0140 2.9127
TCL: Running 100000 steps at 210 kelvin.
TCL: Setting parameter langevinTemp to 210
TCL: Running for 100000 steps
ETITLE: TS BOND ANGLE DIHED IMPRP ELECT VDW BOUNDARY MISC KINETIC TOTAL TEMP POTENTIAL TOTAL3 TEMPAVG PRESSURE GPRESSURE VOLUME PRESSAVG GPRESSAVG
ENERGY: 600000 0.0000 0.0000 0.0000 0.0000 -13018.4754 2153.0840 0.0000 0.0000 1015.5807 -9849.8108 176.1680 -10865.3915 -9847.7476 176.1680 418.7478 472.3705 28383.7913 418.7478 472.3705
ENERGY: 700000 0.0000 0.0000 0.0000 0.0000 -12364.7178 1964.6984 0.0000 0.0000 1214.9018 -9185.1176 210.7433 -10400.0194 -9182.4434 210.4124 714.5244 778.0437 28350.3535 3.7913 3.7845
TCL: Running 100000 steps at 240 kelvin.
TCL: Setting parameter langevinTemp to 240
TCL: Running for 100000 steps
ETITLE: TS BOND ANGLE DIHED IMPRP ELECT VDW BOUNDARY MISC KINETIC TOTAL TEMP POTENTIAL TOTAL3 TEMPAVG PRESSURE GPRESSURE VOLUME PRESSAVG GPRESSAVG
ENERGY: 700000 0.0000 0.0000 0.0000 0.0000 -12364.7178 1964.6984 0.0000 0.0000 1214.3040 -9185.7154 210.6396 -10400.0194 -9183.4249 210.6396 701.5985 779.2005 28350.3535 701.5985 779.2005
ENERGY: 800000 0.0000 0.0000 0.0000 0.0000 -11592.7164 1695.2880 0.0000 0.0000 1372.4437 -8524.9847 238.0714 -9897.4284 -8522.6343 239.8295 224.7010 311.3027 28564.6467 4.2310 4.1712
TCL: Running 100000 steps at 270 kelvin.
TCL: Setting parameter langevinTemp to 270
TCL: Running for 100000 steps
ETITLE: TS BOND ANGLE DIHED IMPRP ELECT VDW BOUNDARY MISC KINETIC TOTAL TEMP POTENTIAL TOTAL3 TEMPAVG PRESSURE GPRESSURE VOLUME PRESSAVG GPRESSAVG
ENERGY: 800000 0.0000 0.0000 0.0000 0.0000 -11592.7164 1695.2880 0.0000 0.0000 1371.7684 -8525.6599 237.9543 -9897.4284 -8524.2090 237.9543 240.4605 311.0673 28564.6467 240.4605 311.0673
ENERGY: 900000 0.0000 0.0000 0.0000 0.0000 -11055.5815 1467.5217 0.0000 0.0000 1512.2084 -8075.8514 262.3157 -9588.0598 -8071.1432 270.0892 -910.5137 -829.6370 29332.7425 4.2225 4.1731
TCL: Running 1000000 steps at 300 kelvin.
TCL: Setting parameter langevinTemp to 300
TCL: Running for 1000000 steps
ETITLE: TS BOND ANGLE DIHED IMPRP ELECT VDW BOUNDARY MISC KINETIC TOTAL TEMP POTENTIAL TOTAL3 TEMPAVG PRESSURE GPRESSURE VOLUME PRESSAVG GPRESSAVG
ENERGY: 900000 0.0000 0.0000 0.0000 0.0000 -11055.5815 1467.5217 0.0000 0.0000 1511.4581 -8076.6017 262.1856 -9588.0598 -8073.6676 262.1856 -917.8189 -827.5458 29332.7425 -917.8189 -827.5458
ENERGY: 1100000 0.0000 0.0000 0.0000 0.0000 -10693.0940 1480.6926 0.0000 0.0000 1720.2230 -7492.1783 298.3990 -9212.4014 -7487.5420 300.1607 318.0485 443.9732 29824.1318 4.0959 4.0203
ENERGY: 1300000 0.0000 0.0000 0.0000 0.0000 -10618.0418 1444.5942 0.0000 0.0000 1733.9634 -7439.4843 300.7825 -9173.4476 -7433.4541 300.5577 137.4627 243.2402 29757.3026 2.9692 2.9233
ENERGY: 1500000 0.0000 0.0000 0.0000 0.0000 -10667.9559 1430.8976 0.0000 0.0000 1709.3600 -7527.6984 296.5147 -9237.0584 -7522.6883 300.3020 -238.3955 -128.9474 29935.4838 3.0510 3.0654
ENERGY: 1700000 0.0000 0.0000 0.0000 0.0000 -10636.0597 1420.4864 0.0000 0.0000 1738.0446 -7477.5287 301.4905 -9215.5733 -7475.0806 300.1246 -76.7266 20.6853 29743.9000 3.9279 3.7999
ENERGY: 1900000 0.0000 0.0000 0.0000 0.0000 -10531.2952 1397.5684 0.0000 0.0000 1701.9816 -7431.7452 295.2348 -9133.7268 -7430.1205 300.5453 -203.2264 -98.6727 30014.2369 3.7670 3.6769
TCL: Exiting due to exit command.
