Info: SIMULATION PARAMETERS:
Info: TIMESTEP               2
Info: NUMBER OF STEPS        0
Info: STEPS PER CYCLE        10
Info: PERIODIC CELL BASIS 1  44.537 0 0
Info: PERIODIC CELL BASIS 2  0 41.086 0
Info: PERIODIC CELL BASIS 3  0 0 39.527
Info: PERIODIC CELL CENTER   0 0 0
Info: WRAPPING WATERS AROUND PERIODIC BOUNDARIES ON OUTPUT.
Info: WRAPPING ALL CLUSTERS AROUND PERIODIC BOUNDARIES ON OUTPUT.
Info: FIRST LDB TIMESTEP     50
Info: LAST LDB TIMESTEP     -1
Info: HOM BACKGROUND SCALING 1
Info: PME BACKGROUND SCALING 1
Info: MIN ATOMS PER PATCH    40
Info: EMPTY PATCH LOAD       40 ATOMS
Info: INITIAL TEMPERATURE    300
Info: CENTER OF MASS MOVING INITIALLY? NO
Info: DIELECTRIC             1
Info: EXCLUDE                SCALED ONE-FOUR
Info: 1-4 ELECTROSTATICS SCALED BY 0.833333
Info: MODIFIED 1-4 VDW PARAMETERS WILL BE USED
Info: DCD FILENAME           mobley_6861308_min.dcd
Info: DCD FREQUENCY          5000
Info: DCD FIRST STEP         5000
Info: DCD FILE WILL CONTAIN UNIT CELL DATA
Info: XST FILENAME           mobley_6861308_min.xst
Info: XST FREQUENCY          5000
Info: NO VELOCITY DCD OUTPUT
Info: NO FORCE DCD OUTPUT
Info: OUTPUT FILENAME        mobley_6861308_min
Info: BINARY OUTPUT FILES WILL BE USED
Info: RESTART FILENAME       mobley_6861308_min.restart
Info: RESTART FREQUENCY      5000
Info: BINARY RESTART FILES WILL BE USED
Info: CUTOFF                 9
Info: PAIRLIST DISTANCE      11
Info: PAIRLIST SHRINK RATE   0.01
Info: PAIRLIST GROW RATE     0.01
Info: PAIRLIST TRIGGER       0.3
Info: PAIRLISTS PER CYCLE    2
Info: PAIRLISTS ENABLED
Info: MARGIN                 8
Info: HYDROGEN GROUP CUTOFF  2.5
Info: PATCH DIMENSION        21.5
Info: ENERGY OUTPUT STEPS    5000
Info: ENERGY EVALUATION STEPS    5000
Info: OUTPUT ENERGY PRECISION 4
Info: CROSSTERM ENERGY INCLUDED IN DIHEDRAL
Info: TIMING OUTPUT STEPS    50000
Info: PRESSURE OUTPUT STEPS  5000
Info: LANGEVIN DYNAMICS ACTIVE
Info: LANGEVIN TEMPERATURE   300
Info: LANGEVIN USING BBK INTEGRATOR
Info: LANGEVIN DAMPING COEFFICIENT IS 1 INVERSE PS
Info: LANGEVIN DYNAMICS APPLIED TO HYDROGENS
Info: LANGEVIN PISTON PRESSURE CONTROL ACTIVE
Info:        TARGET PRESSURE IS 1.01325 BAR
Info:     OSCILLATION PERIOD IS 50 FS
Info:             DECAY TIME IS 25 FS
Info:     PISTON TEMPERATURE IS 300 K
Info:       PRESSURE CONTROL IS GROUP-BASED
Info:    INITIAL STRAIN RATE IS 0 0 0
Info:       CELL FLUCTUATION IS ISOTROPIC
Info: PARTICLE MESH EWALD (PME) ACTIVE
Info: PME TOLERANCE               1e-06
Info: PME EWALD COEFFICIENT       0.348832
Info: PME INTERPOLATION ORDER     4
Info: PME GRID DIMENSIONS         48 44 40
Info: PME MAXIMUM GRID SPACING    1
Info: FULL ELECTROSTATIC EVALUATION FREQUENCY      2
Info: USING VERLET I (r-RESPA) MTS SCHEME.
Info: C1 SPLITTING OF LONG RANGE ELECTROSTATICS
Info: PLACING ATOMS IN PATCHES BY HYDROGEN GROUPS
Info: RIGID BONDS TO HYDROGEN : ALL
Info:         ERROR TOLERANCE : 1e-08
Info:          MAX ITERATIONS : 100
Info: RIGID WATER USING SETTLE ALGORITHM
Info: RANDOM NUMBER SEED     1741384846
Info: USE HYDROGEN BONDS?    NO
Info: Using AMBER format force field!
Info: AMBER PARM FILE        mobley_6861308.prmtop
Info: COORDINATE PDB         mobley_6861308.pdb
Info: Exclusions will be read from PARM file!
Info: SCNB (VDW SCALING)     2
Info: USING ARITHMETIC MEAN TO COMBINE L-J SIGMA PARAMETERS
Info: SUMMARY OF PARAMETERS:
Info: 10 BONDS
Info: 12 ANGLES
Info:   12 HARMONIC
Info:   0 COSINE-BASED
Info: 9 DIHEDRAL
Info: 0 IMPROPER
Info: 0 CROSSTERM
Info: 0 VDW
Info: 45 VDW_PAIRS
Info: 0 NBTHOLE_PAIRS
Info: STRUCTURE SUMMARY:
Info: 5193 ATOMS
Info: 5193 BONDS
Info: 39 ANGLES
Info: 57 DIHEDRALS
Info: 0 IMPROPERS
Info: 0 CROSSTERMS
Info: 5277 EXCLUSIONS
Info: 5181 RIGID BONDS
Info: 10398 DEGREES OF FREEDOM
Info: 1735 HYDROGEN GROUPS
Info: 4 ATOMS IN LARGEST HYDROGEN GROUP
Info: 1735 MIGRATION GROUPS
Info: 4 ATOMS IN LARGEST MIGRATION GROUP
Info: TOTAL MASS = 31205.8 amu
Info: TOTAL CHARGE = 0.000199981 e
Info: MASS DENSITY = 0.716449 g/cm^3
Info: ATOM DENSITY = 0.0717976 atoms/A^3
Info: ADDED 0 IMPLICIT EXCLUSIONS
Info: NONBONDED TABLE R-SQUARED SPACING: 0.0625
Info: NONBONDED TABLE SIZE: 705 POINTS
Info: REMOVING COM VELOCITY -0.112471 -0.0475148 0.0438167
TCL: Minimizing for 2000 steps
ETITLE: TS BOND ANGLE DIHED IMPRP ELECT VDW BOUNDARY MISC KINETIC TOTAL TEMP POTENTIAL TOTAL3 TEMPAVG PRESSURE GPRESSURE VOLUME PRESSAVG GPRESSAVG
ENERGY: 0 0.2601 1.8344 4.3560 0.0000 -16036.6677 1781.7911 0.0000 0.0000 0.0000 -14248.4261 0.0000 -14248.4261 -14248.4261 0.0000 10791.7766 -15316.1132 72328.3696 10791.7766 -15316.1132
ENERGY: 400 2.0075 4.4074 1.1850 0.0000 -21647.7564 3200.3383 0.0000 0.0000 0.0000 -18439.8182 0.0000 -18439.8182 -18439.8182 0.0000 15805.0668 15878.3890 72328.3696 15805.0668 15878.3890
ENERGY: 800 2.7292 2.4540 1.5896 0.0000 -22627.1415 3567.1837 0.0000 0.0000 0.0000 -19053.1851 0.0000 -19053.1851 -19053.1851 0.0000 17400.1901 17457.5144 72328.3696 17400.1901 17457.5144
ENERGY: 1200 1.0094 1.9846 1.1768 0.0000 -23110.8806 3765.1806 0.0000 0.0000 0.0000 -19341.5293 0.0000 -19341.5293 -19341.5293 0.0000 18277.9360 18338.2363 72328.3696 18277.9360 18338.2363
ENERGY: 1600 0.5754 1.3716 1.8326 0.0000 -23488.8195 3973.7277 0.0000 0.0000 0.0000 -19511.3123 0.0000 -19511.3123 -19511.3123 0.0000 19271.2641 19310.3098 72328.3696 19271.2641 19310.3098
ENERGY: 2000 0.4364 1.7407 1.3996 0.0000 -23631.9812 4023.0573 0.0000 0.0000 0.0000 -19605.3473 0.0000 -19605.3473 -19605.3473 0.0000 19483.7169 19529.6144 72328.3696 19483.7169 19529.6144
TCL: Exiting due to exit command.
Info: NAMD 3.0.1 for Linux-x86_64-multicore
Info: Please visit http://www.ks.uiuc.edu/Research/namd/
Info: for updates, documentation, and support information.
Info: Please cite Phillips et al., J. Chem. Phys. 153:044130 (2020) doi:10.1063/5.0014475
Info: in all publications reporting results obtained with NAMD.
Info: Based on Charm++/Converse 80000 for multicore-linux-x86_64-gcc
Info: Built Mon Oct 14 11:11:06 CDT 2024 by dhardy on athine.ks.uiuc.edu
Info: 1 NAMD  3.0.1  Linux-x86_64-multicore  16    k026  z5358697
Info: Running on 16 processors, 1 nodes, 1 physical nodes.
Info: CPU topology information available.
Info: Charm++/Converse parallel runtime startup completed at 0.0343481 s
Info: 1043.46 MB of memory in use based on /proc/self/stat
Info: Configuration file is mobley_6861308_equil.namd
Info: Working in the current directory /srv/scratch/z5358697/prod_prep_8/6861308
TCL: Running 25000 steps at 30 kelvin.
TCL: Suspending until startup complete.
Info: SIMULATION PARAMETERS:
Info: TIMESTEP               2
Info: NUMBER OF STEPS        0
Info: STEPS PER CYCLE        10
Info: PERIODIC CELL BASIS 1  44.537 0 0
Info: PERIODIC CELL BASIS 2  0 41.086 0
Info: PERIODIC CELL BASIS 3  0 0 39.527
Info: PERIODIC CELL CENTER   0 0 0
Info: WRAPPING WATERS AROUND PERIODIC BOUNDARIES ON OUTPUT.
Info: WRAPPING ALL CLUSTERS AROUND PERIODIC BOUNDARIES ON OUTPUT.
Info: FIRST LDB TIMESTEP     50
Info: LAST LDB TIMESTEP     -1
Info: HOM BACKGROUND SCALING 1
Info: PME BACKGROUND SCALING 1
Info: MIN ATOMS PER PATCH    40
Info: EMPTY PATCH LOAD       40 ATOMS
Info: INITIAL TEMPERATURE    300
Info: CENTER OF MASS MOVING INITIALLY? NO
Info: DIELECTRIC             1
Info: EXCLUDE                SCALED ONE-FOUR
Info: 1-4 ELECTROSTATICS SCALED BY 0.833333
Info: MODIFIED 1-4 VDW PARAMETERS WILL BE USED
Info: DCD FILENAME           mobley_6861308_equil.dcd
Info: DCD FREQUENCY          5000
Info: DCD FIRST STEP         5000
Info: DCD FILE WILL CONTAIN UNIT CELL DATA
Info: XST FILENAME           mobley_6861308_equil.xst
Info: XST FREQUENCY          5000
Info: NO VELOCITY DCD OUTPUT
Info: NO FORCE DCD OUTPUT
Info: OUTPUT FILENAME        mobley_6861308_equil
Info: BINARY OUTPUT FILES WILL BE USED
Info: RESTART FILENAME       mobley_6861308_equil.restart
Info: RESTART FREQUENCY      5000
Info: BINARY RESTART FILES WILL BE USED
Info: CUTOFF                 9
Info: PAIRLIST DISTANCE      11
Info: PAIRLIST SHRINK RATE   0.01
Info: PAIRLIST GROW RATE     0.01
Info: PAIRLIST TRIGGER       0.3
Info: PAIRLISTS PER CYCLE    2
Info: PAIRLISTS ENABLED
Info: MARGIN                 8
Info: HYDROGEN GROUP CUTOFF  2.5
Info: PATCH DIMENSION        21.5
Info: ENERGY OUTPUT STEPS    5000
Info: ENERGY EVALUATION STEPS    5000
Info: OUTPUT ENERGY PRECISION 4
Info: CROSSTERM ENERGY INCLUDED IN DIHEDRAL
Info: TIMING OUTPUT STEPS    50000
Info: PRESSURE OUTPUT STEPS  5000
Info: LANGEVIN DYNAMICS ACTIVE
Info: LANGEVIN TEMPERATURE   30
Info: LANGEVIN USING BBK INTEGRATOR
Info: LANGEVIN DAMPING COEFFICIENT IS 1 INVERSE PS
Info: LANGEVIN DYNAMICS APPLIED TO HYDROGENS
Info: LANGEVIN PISTON PRESSURE CONTROL ACTIVE
Info:        TARGET PRESSURE IS 1.01325 BAR
Info:     OSCILLATION PERIOD IS 50 FS
Info:             DECAY TIME IS 25 FS
Info:     PISTON TEMPERATURE IS 300 K
Info:       PRESSURE CONTROL IS GROUP-BASED
Info:    INITIAL STRAIN RATE IS 0 0 0
Info:       CELL FLUCTUATION IS ISOTROPIC
Info: PARTICLE MESH EWALD (PME) ACTIVE
Info: PME TOLERANCE               1e-06
Info: PME EWALD COEFFICIENT       0.348832
Info: PME INTERPOLATION ORDER     4
Info: PME GRID DIMENSIONS         48 44 40
Info: PME MAXIMUM GRID SPACING    1
Info: FULL ELECTROSTATIC EVALUATION FREQUENCY      2
Info: USING VERLET I (r-RESPA) MTS SCHEME.
Info: C1 SPLITTING OF LONG RANGE ELECTROSTATICS
Info: PLACING ATOMS IN PATCHES BY HYDROGEN GROUPS
Info: RIGID BONDS TO HYDROGEN : ALL
Info:         ERROR TOLERANCE : 1e-08
Info:          MAX ITERATIONS : 100
Info: RIGID WATER USING SETTLE ALGORITHM
Info: RANDOM NUMBER SEED     1741384873
Info: USE HYDROGEN BONDS?    NO
Info: Using AMBER format force field!
Info: AMBER PARM FILE        mobley_6861308.prmtop
Info: COORDINATE PDB         mobley_6861308.pdb
Info: Exclusions will be read from PARM file!
Info: SCNB (VDW SCALING)     2
Info: USING ARITHMETIC MEAN TO COMBINE L-J SIGMA PARAMETERS
Info: BINARY COORDINATES     mobley_6861308_min.coor
Info: SUMMARY OF PARAMETERS:
Info: 10 BONDS
Info: 12 ANGLES
Info:   12 HARMONIC
Info:   0 COSINE-BASED
Info: 9 DIHEDRAL
Info: 0 IMPROPER
Info: 0 CROSSTERM
Info: 0 VDW
Info: 45 VDW_PAIRS
Info: 0 NBTHOLE_PAIRS
Info: STRUCTURE SUMMARY:
Info: 5193 ATOMS
Info: 5193 BONDS
Info: 39 ANGLES
Info: 57 DIHEDRALS
Info: 0 IMPROPERS
Info: 0 CROSSTERMS
Info: 5277 EXCLUSIONS
Info: 5181 RIGID BONDS
Info: 10398 DEGREES OF FREEDOM
Info: 1735 HYDROGEN GROUPS
Info: 4 ATOMS IN LARGEST HYDROGEN GROUP
Info: 1735 MIGRATION GROUPS
Info: 4 ATOMS IN LARGEST MIGRATION GROUP
Info: TOTAL MASS = 31205.8 amu
Info: TOTAL CHARGE = 0.000199981 e
Info: MASS DENSITY = 0.716449 g/cm^3
Info: ATOM DENSITY = 0.0717976 atoms/A^3
Info: ADDED 0 IMPLICIT EXCLUSIONS
Info: NONBONDED TABLE R-SQUARED SPACING: 0.0625
Info: NONBONDED TABLE SIZE: 705 POINTS
Info: REMOVING COM VELOCITY -0.027853 -0.143286 0.0182779
TCL: Running for 25000 steps
ETITLE: TS BOND ANGLE DIHED IMPRP ELECT VDW BOUNDARY MISC KINETIC TOTAL TEMP POTENTIAL TOTAL3 TEMPAVG PRESSURE GPRESSURE VOLUME PRESSAVG GPRESSAVG
ENERGY: 0 0.4364 1.7407 1.3996 0.0000 -23631.9812 4023.0573 0.0000 0.0000 3184.1715 -16421.1758 308.2031 -19605.3473 -16420.5039 308.2031 47.2870 84.0927 72328.3696 47.2870 84.0927
ENERGY: 5000 0.8275 3.6956 0.8089 0.0000 -25123.1495 4479.6451 0.0000 0.0000 312.2648 -20325.9075 30.2248 -20638.1723 -20325.1089 48.3931 966.7132 1031.7197 49999.7549 4.6709 4.5254
ENERGY: 10000 0.5446 3.4271 1.5178 0.0000 -24929.0665 4272.4823 0.0000 0.0000 309.4860 -20341.6088 29.9558 -20651.0948 -20340.8500 30.4297 -86.4402 -21.2301 50113.1082 2.8183 2.6845
ENERGY: 15000 0.8975 4.4680 0.9735 0.0000 -24811.5631 4115.6033 0.0000 0.0000 308.5505 -20381.0704 29.8653 -20689.6209 -20380.0783 30.1561 -1016.7420 -962.6162 50584.8016 1.5962 1.4259
ENERGY: 20000 0.8054 4.7333 0.6896 0.0000 -24932.6180 4199.0415 0.0000 0.0000 302.7896 -20424.5586 29.3077 -20727.3482 -20423.5856 30.0817 -626.7998 -549.4325 50034.0590 4.1801 4.1400
ENERGY: 25000 0.5961 5.2014 1.4285 0.0000 -25059.6531 4325.2774 0.0000 0.0000 314.3354 -20412.8144 30.4252 -20727.1498 -20411.6890 29.9217 -14.3061 47.5721 49926.3898 -1.1720 -1.3437
TCL: Running 25000 steps at 60 kelvin.
TCL: Setting parameter langevinTemp to 60
TCL: Running for 25000 steps
ETITLE: TS BOND ANGLE DIHED IMPRP ELECT VDW BOUNDARY MISC KINETIC TOTAL TEMP POTENTIAL TOTAL3 TEMPAVG PRESSURE GPRESSURE VOLUME PRESSAVG GPRESSAVG
ENERGY: 25000 0.5961 5.2014 1.4285 0.0000 -25059.6531 4325.2774 0.0000 0.0000 314.1866 -20412.9632 30.4108 -20727.1498 -20412.3234 30.4108 -15.4285 47.8246 49926.3898 -15.4285 47.8246
ENERGY: 30000 0.9478 4.1824 1.1729 0.0000 -24595.7265 4134.3697 0.0000 0.0000 629.8131 -19825.2406 60.9610 -20455.0537 -19823.6185 57.9299 -341.3061 -247.7558 50266.6470 5.0074 4.9214
ENERGY: 35000 1.2053 3.9027 1.8029 0.0000 -24547.1706 4054.1931 0.0000 0.0000 614.2616 -19871.8050 59.4558 -20486.0666 -19870.3226 59.8492 -841.5648 -792.5832 50602.4529 6.2027 6.2088
ENERGY: 40000 0.9452 3.4053 1.6405 0.0000 -24733.4458 4192.5486 0.0000 0.0000 633.5957 -19901.3105 61.3272 -20534.9062 -19899.4600 59.3340 -185.2287 -112.4865 50077.2914 6.0806 6.0669
ENERGY: 45000 0.4254 3.7799 1.0743 0.0000 -24664.2567 4108.5336 0.0000 0.0000 622.5201 -19927.9234 60.2551 -20550.4435 -19926.7881 59.9028 -594.8883 -526.0551 50200.9647 5.4053 5.4887
ENERGY: 50000 0.6680 4.4987 1.2187 0.0000 -24571.2497 4030.9399 0.0000 0.0000 626.7295 -19907.1949 60.6626 -20533.9244 -19905.7773 60.1841 -997.0507 -930.9369 50272.0710 3.9841 3.9627
TCL: Running 25000 steps at 90 kelvin.
TCL: Setting parameter langevinTemp to 90
TCL: Running for 25000 steps
ETITLE: TS BOND ANGLE DIHED IMPRP ELECT VDW BOUNDARY MISC KINETIC TOTAL TEMP POTENTIAL TOTAL3 TEMPAVG PRESSURE GPRESSURE VOLUME PRESSAVG GPRESSAVG
ENERGY: 50000 0.6680 4.4987 1.2187 0.0000 -24571.2497 4030.9399 0.0000 0.0000 626.4238 -19907.5006 60.6330 -20533.9244 -19906.0401 60.6330 -985.6382 -930.8120 50272.0710 -985.6382 -930.8120
ENERGY: 55000 1.2874 4.6850 0.9444 0.0000 -24286.7166 4040.9881 0.0000 0.0000 931.9482 -19306.8634 90.2054 -20238.8116 -19303.5579 87.1553 -240.7308 -183.0218 50274.5555 -0.5782 -0.6608
ENERGY: 60000 0.7927 7.7765 2.5050 0.0000 -24438.8395 4147.3802 0.0000 0.0000 956.2739 -19324.1111 92.5599 -20280.3850 -19321.8549 90.8884 218.4074 265.4318 50256.1743 -3.5747 -3.6167
ENERGY: 65000 2.5103 5.6709 2.5287 0.0000 -24315.3560 4005.3091 0.0000 0.0000 922.1311 -19377.2059 89.2551 -20299.3370 -19375.0313 90.1939 -693.3164 -600.2971 50389.9162 5.8301 5.8718
ENERGY: 70000 3.1442 4.1164 1.8107 0.0000 -24363.1615 4017.4676 0.0000 0.0000 942.2906 -19394.3319 91.2064 -20336.6226 -19393.4110 90.1470 -666.0882 -598.0407 50321.7603 -1.2271 -1.6207
ENERGY: 75000 1.6384 4.8535 1.5025 0.0000 -24593.3694 4241.0278 0.0000 0.0000 937.0772 -19407.2701 90.7018 -20344.3473 -19405.2283 89.9239 636.8431 696.1144 49820.1270 0.9611 0.7795
TCL: Running 25000 steps at 120 kelvin.
TCL: Setting parameter langevinTemp to 120
TCL: Running for 25000 steps
ETITLE: TS BOND ANGLE DIHED IMPRP ELECT VDW BOUNDARY MISC KINETIC TOTAL TEMP POTENTIAL TOTAL3 TEMPAVG PRESSURE GPRESSURE VOLUME PRESSAVG GPRESSAVG
ENERGY: 75000 1.6384 4.8535 1.5025 0.0000 -24593.3694 4241.0278 0.0000 0.0000 936.6198 -19407.7275 90.6575 -20344.3473 -19405.9064 90.6575 631.7639 696.0752 49820.1270 631.7639 696.0752
ENERGY: 80000 2.0954 4.4672 3.0870 0.0000 -23958.8988 3966.2638 0.0000 0.0000 1226.9701 -18756.0152 118.7612 -19982.9854 -18753.6678 116.7631 36.6180 98.9503 50322.7836 0.3536 -0.2813
ENERGY: 85000 1.3473 3.9475 2.1981 0.0000 -24097.8835 4083.9397 0.0000 0.0000 1245.6009 -18760.8499 120.5645 -20006.4509 -18758.3213 120.4374 410.3378 483.8516 50185.1818 -0.1281 0.0507
ENERGY: 90000 2.1732 5.3958 2.8454 0.0000 -23922.6694 3870.1013 0.0000 0.0000 1264.6914 -18777.4623 122.4123 -20042.1537 -18772.8106 120.1470 -646.7676 -586.8925 50558.3396 3.5456 3.4179
ENERGY: 95000 3.4787 7.3225 2.3791 0.0000 -24125.9595 4019.9092 0.0000 0.0000 1228.8162 -18864.0538 118.9399 -20092.8700 -18860.1716 121.0020 -39.5960 24.9765 50097.9799 -0.2267 -0.1357
ENERGY: 100000 1.8900 2.8409 4.4299 0.0000 -24236.5413 4151.2497 0.0000 0.0000 1270.6816 -18805.4492 122.9921 -20076.1308 -18802.0229 121.2423 818.6650 869.8784 49837.6882 4.4967 4.5863
TCL: Running 25000 steps at 150 kelvin.
TCL: Setting parameter langevinTemp to 150
TCL: Running for 25000 steps
ETITLE: TS BOND ANGLE DIHED IMPRP ELECT VDW BOUNDARY MISC KINETIC TOTAL TEMP POTENTIAL TOTAL3 TEMPAVG PRESSURE GPRESSURE VOLUME PRESSAVG GPRESSAVG
ENERGY: 100000 1.8900 2.8409 4.4299 0.0000 -24236.5413 4151.2497 0.0000 0.0000 1270.0674 -18806.0634 122.9327 -20076.1308 -18803.8986 122.9327 812.6599 869.9770 49837.6882 812.6599 869.9770
ENERGY: 105000 1.4782 6.8329 2.9291 0.0000 -23586.7933 3870.5681 0.0000 0.0000 1500.9027 -18204.0824 145.2757 -19704.9851 -18200.1029 145.9845 218.6456 250.6248 50188.0858 2.5568 2.7176
ENERGY: 110000 1.1698 5.5316 3.1988 0.0000 -23657.3628 3918.9543 0.0000 0.0000 1533.7167 -18194.7917 148.4519 -19728.5083 -18190.7567 149.5503 348.2514 411.7802 50251.3789 2.3343 1.9471
ENERGY: 115000 2.2686 4.0552 3.6683 0.0000 -23483.6898 3743.4019 0.0000 0.0000 1515.8472 -18214.4485 146.7223 -19730.2957 -18211.0571 150.2578 -751.0708 -662.6093 50691.8691 4.9715 5.0680
ENERGY: 120000 3.4749 6.0123 5.6044 0.0000 -23617.2781 3818.1860 0.0000 0.0000 1558.7321 -18225.2684 150.8732 -19784.0005 -18222.4122 149.9255 -359.1023 -300.5982 50492.2980 -0.4230 -1.0805
ENERGY: 125000 3.3926 4.5673 2.8173 0.0000 -23696.1698 3945.6066 0.0000 0.0000 1524.9638 -18214.8220 147.6047 -19739.7858 -18209.9926 151.0800 122.0429 194.5669 50714.9725 2.6070 2.8981
TCL: Running 50000 steps at 180 kelvin.
TCL: Setting parameter langevinTemp to 180
TCL: Running for 50000 steps
ETITLE: TS BOND ANGLE DIHED IMPRP ELECT VDW BOUNDARY MISC KINETIC TOTAL TEMP POTENTIAL TOTAL3 TEMPAVG PRESSURE GPRESSURE VOLUME PRESSAVG GPRESSAVG
ENERGY: 125000 3.3926 4.5673 2.8173 0.0000 -23696.1698 3945.6066 0.0000 0.0000 1524.1974 -18215.5884 147.5305 -19739.7858 -18212.6776 147.5305 134.4992 194.8784 50714.9725 134.4992 194.8784
ENERGY: 135000 3.0301 5.5313 4.6925 0.0000 -22940.4435 3676.5709 0.0000 0.0000 1868.5113 -17382.1073 180.8574 -19250.6186 -17379.7675 181.6815 -137.6210 -88.4546 51106.4716 4.1847 4.5084
ENERGY: 145000 2.9922 5.1821 4.9406 0.0000 -23068.7623 3704.9152 0.0000 0.0000 1817.0176 -17533.7146 175.8732 -19350.7322 -17528.3402 181.0157 -97.3883 -89.4929 50893.4003 5.7023 5.8450
ENERGY: 155000 1.2977 5.0730 4.0310 0.0000 -23014.6549 3610.4110 0.0000 0.0000 1839.5447 -17554.2975 178.0537 -19393.8422 -17548.7100 181.0949 -554.0749 -470.1984 50850.2704 2.3792 2.5764
ENERGY: 165000 2.4639 9.0645 6.3334 0.0000 -23057.5930 3737.0379 0.0000 0.0000 1890.7919 -17411.9015 183.0140 -19302.6933 -17405.7076 180.6430 351.0308 433.1901 50370.3092 0.7294 0.7711
ENERGY: 175000 2.7829 5.2008 7.2572 0.0000 -23240.0119 3837.4810 0.0000 0.0000 1828.9012 -17558.3888 177.0235 -19387.2900 -17555.1737 178.9929 606.1605 649.2307 50401.3077 2.7951 3.1095
TCL: Running 50000 steps at 210 kelvin.
TCL: Setting parameter langevinTemp to 210
TCL: Running for 50000 steps
ETITLE: TS BOND ANGLE DIHED IMPRP ELECT VDW BOUNDARY MISC KINETIC TOTAL TEMP POTENTIAL TOTAL3 TEMPAVG PRESSURE GPRESSURE VOLUME PRESSAVG GPRESSAVG
ENERGY: 175000 2.7829 5.2008 7.2572 0.0000 -23240.0119 3837.4810 0.0000 0.0000 1827.9665 -17559.3236 176.9330 -19387.2900 -17556.1118 176.9330 589.2004 648.0566 50401.3077 589.2004 648.0566
ENERGY: 185000 4.2387 7.8736 7.8594 0.0000 -21982.0545 3317.7970 0.0000 0.0000 2160.0548 -16484.2310 209.0766 -18644.2858 -16480.5124 210.8253 -341.7991 -240.7235 50396.4734 -1.8209 -2.0406
ENERGY: 195000 4.4460 3.7920 4.7265 0.0000 -21749.8368 3218.3781 0.0000 0.0000 2173.7678 -16344.7264 210.4039 -18518.4942 -16340.5726 210.0611 -571.4441 -518.9665 50925.5996 2.7541 2.8322
ENERGY: 205000 4.0066 10.4081 6.9650 0.0000 -21837.1776 3278.1218 0.0000 0.0000 2139.5609 -16398.1152 207.0929 -18537.6760 -16393.2786 210.4629 -379.1090 -306.7986 50897.1731 2.8698 2.6135
ENERGY: 215000 1.7486 5.8015 4.6185 0.0000 -22066.4010 3465.8473 0.0000 0.0000 2154.8223 -16433.5627 208.5701 -18588.3850 -16429.1735 210.9029 766.9740 796.1285 50293.7510 4.9058 4.1527
ENERGY: 225000 2.2221 6.5566 2.6797 0.0000 -22005.7416 3365.4261 0.0000 0.0000 2145.4986 -16483.3586 207.6676 -18628.8571 -16478.3480 207.4547 83.0755 121.2223 50451.2820 0.9504 1.3681
TCL: Running 50000 steps at 240 kelvin.
TCL: Setting parameter langevinTemp to 240
TCL: Running for 50000 steps
ETITLE: TS BOND ANGLE DIHED IMPRP ELECT VDW BOUNDARY MISC KINETIC TOTAL TEMP POTENTIAL TOTAL3 TEMPAVG PRESSURE GPRESSURE VOLUME PRESSAVG GPRESSAVG
ENERGY: 225000 2.2221 6.5566 2.6797 0.0000 -22005.7416 3365.4261 0.0000 0.0000 2144.4198 -16484.4374 207.5632 -18628.8571 -16480.5133 207.5632 54.3752 121.8921 50451.2820 54.3752 121.8921
ENERGY: 235000 2.7324 6.7707 1.6237 0.0000 -20649.9129 2993.0385 0.0000 0.0000 2472.4499 -15173.2976 239.3140 -17645.7475 -15173.2732 239.8628 148.9419 167.5107 51263.1770 2.3456 2.1380
ENERGY: 245000 1.5982 5.7838 7.8915 0.0000 -20988.1681 3176.4101 0.0000 0.0000 2465.7338 -15330.7507 238.6639 -17796.4846 -15320.8834 239.3039 753.4254 838.3372 50728.6224 3.7981 3.6358
ENERGY: 255000 2.9066 4.9534 6.9424 0.0000 -20868.1190 3017.8186 0.0000 0.0000 2487.3373 -15348.1608 240.7550 -17835.4981 -15341.7864 240.2206 -23.1474 10.4580 50943.3527 3.1751 3.0038
ENERGY: 265000 2.1760 8.9958 5.1993 0.0000 -20622.4317 2850.9951 0.0000 0.0000 2482.7199 -15272.3457 240.3080 -17755.0656 -15268.3596 240.4859 -776.2731 -678.3250 51105.9473 2.1550 2.8023
ENERGY: 275000 1.5258 5.9609 4.3565 0.0000 -21040.4948 3149.3258 0.0000 0.0000 2509.1574 -15370.1682 242.8670 -17879.3257 -15365.5538 239.7864 435.8264 481.8294 51073.7624 1.3996 1.2236
TCL: Running 50000 steps at 270 kelvin.
TCL: Setting parameter langevinTemp to 270
TCL: Running for 50000 steps
ETITLE: TS BOND ANGLE DIHED IMPRP ELECT VDW BOUNDARY MISC KINETIC TOTAL TEMP POTENTIAL TOTAL3 TEMPAVG PRESSURE GPRESSURE VOLUME PRESSAVG GPRESSAVG
ENERGY: 275000 1.5258 5.9609 4.3565 0.0000 -21040.4948 3149.3258 0.0000 0.0000 2507.8935 -15371.4322 242.7446 -17879.3257 -15366.3498 242.7446 401.4404 481.3421 51073.7624 401.4404 481.3421
ENERGY: 285000 4.3822 7.0765 3.5451 0.0000 -19866.4457 2781.9542 0.0000 0.0000 2797.4596 -14272.0280 270.7724 -17069.4876 -14269.6527 270.0250 97.1981 157.3786 52132.5172 5.7507 6.1337
ENERGY: 295000 3.8530 6.5966 8.4717 0.0000 -19807.4696 2713.1048 0.0000 0.0000 2848.5761 -14226.8673 275.7201 -17075.4435 -14221.1873 272.2080 -278.3248 -217.3178 52095.8030 -0.0482 0.3495
ENERGY: 305000 5.7756 5.1217 6.3774 0.0000 -19921.6396 2798.2037 0.0000 0.0000 2825.1013 -14281.0598 273.4479 -17106.1611 -14276.1193 272.4120 -134.8649 34.9574 52029.0100 7.5092 7.4787
ENERGY: 315000 2.8493 5.0545 3.3011 0.0000 -19805.8072 2794.7542 0.0000 0.0000 2831.8269 -14168.0212 274.0989 -16999.8482 -14162.8905 271.7674 334.5602 406.6233 52256.2821 2.5534 2.2232
ENERGY: 325000 3.3558 8.8647 4.9611 0.0000 -19816.9144 2781.2365 0.0000 0.0000 2792.0237 -14226.4727 270.2463 -17018.4964 -14219.9699 270.1075 -48.5314 37.1927 52828.4224 1.9461 2.5414
TCL: Running 1000000 steps at 300 kelvin.
TCL: Setting parameter langevinTemp to 300
TCL: Running for 1000000 steps
ETITLE: TS BOND ANGLE DIHED IMPRP ELECT VDW BOUNDARY MISC KINETIC TOTAL TEMP POTENTIAL TOTAL3 TEMPAVG PRESSURE GPRESSURE VOLUME PRESSAVG GPRESSAVG
ENERGY: 325000 3.3558 8.8647 4.9611 0.0000 -19816.9144 2781.2365 0.0000 0.0000 2790.6599 -14227.8365 270.1142 -17018.4964 -14223.1841 270.1142 -42.6951 37.2552 52828.4224 -42.6951 37.2552
ENERGY: 525000 3.0428 7.4797 7.7389 0.0000 -18977.0044 2594.8394 0.0000 0.0000 3153.4697 -13210.4340 305.2314 -16363.9037 -13203.5699 298.9610 183.7523 306.9509 53483.3412 1.7832 2.0999
ENERGY: 725000 2.9382 7.3945 8.4409 0.0000 -18925.7392 2540.6307 0.0000 0.0000 3149.0202 -13217.3148 304.8007 -16366.3350 -13210.8252 299.1118 271.5506 306.8844 53287.3918 1.3019 2.1343
ENERGY: 925000 3.8225 8.3201 6.8896 0.0000 -19004.0188 2621.2818 0.0000 0.0000 3136.6028 -13227.1020 303.5988 -16363.7048 -13220.0464 300.5469 503.2862 663.7608 52614.4066 1.2346 0.9736
ENERGY: 1125000 3.1627 8.5977 7.2841 0.0000 -18899.9513 2555.0548 0.0000 0.0000 3044.1693 -13281.6827 294.6520 -16325.8520 -13276.3314 299.6484 76.7530 156.0622 53493.8370 3.3097 2.1833
ENERGY: 1325000 4.6897 10.3239 3.3141 0.0000 -19117.4231 2698.1007 0.0000 0.0000 3024.6575 -13376.3372 292.7634 -16400.9946 -13367.4485 299.6187 505.7654 590.0141 53246.1768 1.0285 1.1665
TCL: Exiting due to exit command.
