Info: SIMULATION PARAMETERS:
Info: TIMESTEP               2
Info: NUMBER OF STEPS        0
Info: STEPS PER CYCLE        10
Info: PERIODIC CELL BASIS 1  41.545 0 0
Info: PERIODIC CELL BASIS 2  0 39.303 0
Info: PERIODIC CELL BASIS 3  0 0 41.374
Info: PERIODIC CELL CENTER   0 0 0
Info: WRAPPING WATERS AROUND PERIODIC BOUNDARIES ON OUTPUT.
Info: WRAPPING ALL CLUSTERS AROUND PERIODIC BOUNDARIES ON OUTPUT.
Info: FIRST LDB TIMESTEP     50
Info: LAST LDB TIMESTEP     -1
Info: HOM BACKGROUND SCALING 1
Info: PME BACKGROUND SCALING 1
Info: MIN ATOMS PER PATCH    40
Info: EMPTY PATCH LOAD       40 ATOMS
Info: INITIAL TEMPERATURE    300
Info: CENTER OF MASS MOVING INITIALLY? NO
Info: DIELECTRIC             1
Info: EXCLUDE                SCALED ONE-FOUR
Info: 1-4 ELECTROSTATICS SCALED BY 0.833333
Info: MODIFIED 1-4 VDW PARAMETERS WILL BE USED
Info: DCD FILENAME           mobley_6353617_min.dcd
Info: DCD FREQUENCY          5000
Info: DCD FIRST STEP         5000
Info: DCD FILE WILL CONTAIN UNIT CELL DATA
Info: XST FILENAME           mobley_6353617_min.xst
Info: XST FREQUENCY          5000
Info: NO VELOCITY DCD OUTPUT
Info: NO FORCE DCD OUTPUT
Info: OUTPUT FILENAME        mobley_6353617_min
Info: BINARY OUTPUT FILES WILL BE USED
Info: RESTART FILENAME       mobley_6353617_min.restart
Info: RESTART FREQUENCY      5000
Info: BINARY RESTART FILES WILL BE USED
Info: CUTOFF                 9
Info: PAIRLIST DISTANCE      11
Info: PAIRLIST SHRINK RATE   0.01
Info: PAIRLIST GROW RATE     0.01
Info: PAIRLIST TRIGGER       0.3
Info: PAIRLISTS PER CYCLE    2
Info: PAIRLISTS ENABLED
Info: MARGIN                 8
Info: HYDROGEN GROUP CUTOFF  2.5
Info: PATCH DIMENSION        21.5
Info: ENERGY OUTPUT STEPS    5000
Info: ENERGY EVALUATION STEPS    5000
Info: OUTPUT ENERGY PRECISION 4
Info: CROSSTERM ENERGY INCLUDED IN DIHEDRAL
Info: TIMING OUTPUT STEPS    50000
Info: PRESSURE OUTPUT STEPS  5000
Info: LANGEVIN DYNAMICS ACTIVE
Info: LANGEVIN TEMPERATURE   300
Info: LANGEVIN USING BBK INTEGRATOR
Info: LANGEVIN DAMPING COEFFICIENT IS 1 INVERSE PS
Info: LANGEVIN DYNAMICS APPLIED TO HYDROGENS
Info: LANGEVIN PISTON PRESSURE CONTROL ACTIVE
Info:        TARGET PRESSURE IS 1.01325 BAR
Info:     OSCILLATION PERIOD IS 50 FS
Info:             DECAY TIME IS 25 FS
Info:     PISTON TEMPERATURE IS 300 K
Info:       PRESSURE CONTROL IS GROUP-BASED
Info:    INITIAL STRAIN RATE IS 0 0 0
Info:       CELL FLUCTUATION IS ISOTROPIC
Info: PARTICLE MESH EWALD (PME) ACTIVE
Info: PME TOLERANCE               1e-06
Info: PME EWALD COEFFICIENT       0.348832
Info: PME INTERPOLATION ORDER     4
Info: PME GRID DIMENSIONS         44 40 44
Info: PME MAXIMUM GRID SPACING    1
Info: FULL ELECTROSTATIC EVALUATION FREQUENCY      2
Info: USING VERLET I (r-RESPA) MTS SCHEME.
Info: C1 SPLITTING OF LONG RANGE ELECTROSTATICS
Info: PLACING ATOMS IN PATCHES BY HYDROGEN GROUPS
Info: RIGID BONDS TO HYDROGEN : ALL
Info:         ERROR TOLERANCE : 1e-08
Info:          MAX ITERATIONS : 100
Info: RIGID WATER USING SETTLE ALGORITHM
Info: RANDOM NUMBER SEED     1741382349
Info: USE HYDROGEN BONDS?    NO
Info: Using AMBER format force field!
Info: AMBER PARM FILE        mobley_6353617.prmtop
Info: COORDINATE PDB         mobley_6353617.pdb
Info: Exclusions will be read from PARM file!
Info: SCNB (VDW SCALING)     2
Info: USING ARITHMETIC MEAN TO COMBINE L-J SIGMA PARAMETERS
Info: SUMMARY OF PARAMETERS:
Info: 10 BONDS
Info: 12 ANGLES
Info:   12 HARMONIC
Info:   0 COSINE-BASED
Info: 9 DIHEDRAL
Info: 0 IMPROPER
Info: 0 CROSSTERM
Info: 0 VDW
Info: 45 VDW_PAIRS
Info: 0 NBTHOLE_PAIRS
Info: STRUCTURE SUMMARY:
Info: 4969 ATOMS
Info: 4969 BONDS
Info: 25 ANGLES
Info: 36 DIHEDRALS
Info: 0 IMPROPERS
Info: 0 CROSSTERMS
Info: 5021 EXCLUSIONS
Info: 4960 RIGID BONDS
Info: 9947 DEGREES OF FREEDOM
Info: 1660 HYDROGEN GROUPS
Info: 4 ATOMS IN LARGEST HYDROGEN GROUP
Info: 1660 MIGRATION GROUPS
Info: 4 ATOMS IN LARGEST MIGRATION GROUP
Info: TOTAL MASS = 29865.6 amu
Info: TOTAL CHARGE = 1.30385e-08 e
Info: MASS DENSITY = 0.734104 g/cm^3
Info: ATOM DENSITY = 0.0735524 atoms/A^3
Info: ADDED 0 IMPLICIT EXCLUSIONS
Info: NONBONDED TABLE R-SQUARED SPACING: 0.0625
Info: NONBONDED TABLE SIZE: 705 POINTS
Info: REMOVING COM VELOCITY 0.131092 0.0344698 -0.059699
TCL: Minimizing for 2000 steps
ETITLE: TS BOND ANGLE DIHED IMPRP ELECT VDW BOUNDARY MISC KINETIC TOTAL TEMP POTENTIAL TOTAL3 TEMPAVG PRESSURE GPRESSURE VOLUME PRESSAVG GPRESSAVG
ENERGY: 0 0.9533 2.0969 24.7118 0.0000 -15595.1922 1765.1553 0.0000 0.0000 0.0000 -13802.2748 0.0000 -13802.2748 -13802.2748 0.0000 11392.3648 -16072.0721 67557.2519 11392.3648 -16072.0721
ENERGY: 400 1.7473 2.5958 21.9364 0.0000 -20975.7250 3039.3324 0.0000 0.0000 0.0000 -17910.1132 0.0000 -17910.1132 -17910.1132 0.0000 16083.9601 16218.6976 67557.2519 16083.9601 16218.6976
ENERGY: 800 0.4732 1.1453 23.1820 0.0000 -21977.3358 3526.0400 0.0000 0.0000 0.0000 -18426.4952 0.0000 -18426.4952 -18426.4952 0.0000 18320.5923 18433.3850 67557.2519 18320.5923 18433.3850
ENERGY: 1200 0.5372 1.6695 21.9650 0.0000 -22443.4482 3747.4135 0.0000 0.0000 0.0000 -18671.8631 0.0000 -18671.8631 -18671.8631 0.0000 19373.1228 19477.1559 67557.2519 19373.1228 19477.1559
ENERGY: 1600 0.5304 1.6224 21.7538 0.0000 -22639.9416 3831.1723 0.0000 0.0000 0.0000 -18784.8627 0.0000 -18784.8627 -18784.8627 0.0000 19818.6511 19909.0449 67557.2519 19818.6511 19909.0449
ENERGY: 2000 0.2937 1.1780 22.1760 0.0000 -22729.0310 3862.1443 0.0000 0.0000 0.0000 -18843.2390 0.0000 -18843.2390 -18843.2390 0.0000 20037.0141 20127.4746 67557.2519 20037.0141 20127.4746
TCL: Exiting due to exit command.
Info: NAMD 3.0.1 for Linux-x86_64-multicore
Info: Please visit http://www.ks.uiuc.edu/Research/namd/
Info: for updates, documentation, and support information.
Info: Please cite Phillips et al., J. Chem. Phys. 153:044130 (2020) doi:10.1063/5.0014475
Info: in all publications reporting results obtained with NAMD.
Info: Based on Charm++/Converse 80000 for multicore-linux-x86_64-gcc
Info: Built Mon Oct 14 11:11:06 CDT 2024 by dhardy on athine.ks.uiuc.edu
Info: 1 NAMD  3.0.1  Linux-x86_64-multicore  16    k010  z5358697
Info: Running on 16 processors, 1 nodes, 1 physical nodes.
Info: CPU topology information available.
Info: Charm++/Converse parallel runtime startup completed at 0.00823825 s
Info: 1043.45 MB of memory in use based on /proc/self/stat
Info: Configuration file is mobley_6353617_equil.namd
Info: Working in the current directory /srv/scratch/z5358697/prod_prep_8/6353617
TCL: Running 25000 steps at 30 kelvin.
TCL: Suspending until startup complete.
Info: SIMULATION PARAMETERS:
Info: TIMESTEP               2
Info: NUMBER OF STEPS        0
Info: STEPS PER CYCLE        10
Info: PERIODIC CELL BASIS 1  41.545 0 0
Info: PERIODIC CELL BASIS 2  0 39.303 0
Info: PERIODIC CELL BASIS 3  0 0 41.374
Info: PERIODIC CELL CENTER   0 0 0
Info: WRAPPING WATERS AROUND PERIODIC BOUNDARIES ON OUTPUT.
Info: WRAPPING ALL CLUSTERS AROUND PERIODIC BOUNDARIES ON OUTPUT.
Info: FIRST LDB TIMESTEP     50
Info: LAST LDB TIMESTEP     -1
Info: HOM BACKGROUND SCALING 1
Info: PME BACKGROUND SCALING 1
Info: MIN ATOMS PER PATCH    40
Info: EMPTY PATCH LOAD       40 ATOMS
Info: INITIAL TEMPERATURE    300
Info: CENTER OF MASS MOVING INITIALLY? NO
Info: DIELECTRIC             1
Info: EXCLUDE                SCALED ONE-FOUR
Info: 1-4 ELECTROSTATICS SCALED BY 0.833333
Info: MODIFIED 1-4 VDW PARAMETERS WILL BE USED
Info: DCD FILENAME           mobley_6353617_equil.dcd
Info: DCD FREQUENCY          5000
Info: DCD FIRST STEP         5000
Info: DCD FILE WILL CONTAIN UNIT CELL DATA
Info: XST FILENAME           mobley_6353617_equil.xst
Info: XST FREQUENCY          5000
Info: NO VELOCITY DCD OUTPUT
Info: NO FORCE DCD OUTPUT
Info: OUTPUT FILENAME        mobley_6353617_equil
Info: BINARY OUTPUT FILES WILL BE USED
Info: RESTART FILENAME       mobley_6353617_equil.restart
Info: RESTART FREQUENCY      5000
Info: BINARY RESTART FILES WILL BE USED
Info: CUTOFF                 9
Info: PAIRLIST DISTANCE      11
Info: PAIRLIST SHRINK RATE   0.01
Info: PAIRLIST GROW RATE     0.01
Info: PAIRLIST TRIGGER       0.3
Info: PAIRLISTS PER CYCLE    2
Info: PAIRLISTS ENABLED
Info: MARGIN                 8
Info: HYDROGEN GROUP CUTOFF  2.5
Info: PATCH DIMENSION        21.5
Info: ENERGY OUTPUT STEPS    5000
Info: ENERGY EVALUATION STEPS    5000
Info: OUTPUT ENERGY PRECISION 4
Info: CROSSTERM ENERGY INCLUDED IN DIHEDRAL
Info: TIMING OUTPUT STEPS    50000
Info: PRESSURE OUTPUT STEPS  5000
Info: LANGEVIN DYNAMICS ACTIVE
Info: LANGEVIN TEMPERATURE   30
Info: LANGEVIN USING BBK INTEGRATOR
Info: LANGEVIN DAMPING COEFFICIENT IS 1 INVERSE PS
Info: LANGEVIN DYNAMICS APPLIED TO HYDROGENS
Info: LANGEVIN PISTON PRESSURE CONTROL ACTIVE
Info:        TARGET PRESSURE IS 1.01325 BAR
Info:     OSCILLATION PERIOD IS 50 FS
Info:             DECAY TIME IS 25 FS
Info:     PISTON TEMPERATURE IS 300 K
Info:       PRESSURE CONTROL IS GROUP-BASED
Info:    INITIAL STRAIN RATE IS 0 0 0
Info:       CELL FLUCTUATION IS ISOTROPIC
Info: PARTICLE MESH EWALD (PME) ACTIVE
Info: PME TOLERANCE               1e-06
Info: PME EWALD COEFFICIENT       0.348832
Info: PME INTERPOLATION ORDER     4
Info: PME GRID DIMENSIONS         44 40 44
Info: PME MAXIMUM GRID SPACING    1
Info: FULL ELECTROSTATIC EVALUATION FREQUENCY      2
Info: USING VERLET I (r-RESPA) MTS SCHEME.
Info: C1 SPLITTING OF LONG RANGE ELECTROSTATICS
Info: PLACING ATOMS IN PATCHES BY HYDROGEN GROUPS
Info: RIGID BONDS TO HYDROGEN : ALL
Info:         ERROR TOLERANCE : 1e-08
Info:          MAX ITERATIONS : 100
Info: RIGID WATER USING SETTLE ALGORITHM
Info: RANDOM NUMBER SEED     1741382365
Info: USE HYDROGEN BONDS?    NO
Info: Using AMBER format force field!
Info: AMBER PARM FILE        mobley_6353617.prmtop
Info: COORDINATE PDB         mobley_6353617.pdb
Info: Exclusions will be read from PARM file!
Info: SCNB (VDW SCALING)     2
Info: USING ARITHMETIC MEAN TO COMBINE L-J SIGMA PARAMETERS
Info: BINARY COORDINATES     mobley_6353617_min.coor
Info: SUMMARY OF PARAMETERS:
Info: 10 BONDS
Info: 12 ANGLES
Info:   12 HARMONIC
Info:   0 COSINE-BASED
Info: 9 DIHEDRAL
Info: 0 IMPROPER
Info: 0 CROSSTERM
Info: 0 VDW
Info: 45 VDW_PAIRS
Info: 0 NBTHOLE_PAIRS
Info: STRUCTURE SUMMARY:
Info: 4969 ATOMS
Info: 4969 BONDS
Info: 25 ANGLES
Info: 36 DIHEDRALS
Info: 0 IMPROPERS
Info: 0 CROSSTERMS
Info: 5021 EXCLUSIONS
Info: 4960 RIGID BONDS
Info: 9947 DEGREES OF FREEDOM
Info: 1660 HYDROGEN GROUPS
Info: 4 ATOMS IN LARGEST HYDROGEN GROUP
Info: 1660 MIGRATION GROUPS
Info: 4 ATOMS IN LARGEST MIGRATION GROUP
Info: TOTAL MASS = 29865.6 amu
Info: TOTAL CHARGE = 1.30385e-08 e
Info: MASS DENSITY = 0.734104 g/cm^3
Info: ATOM DENSITY = 0.0735524 atoms/A^3
Info: ADDED 0 IMPLICIT EXCLUSIONS
Info: NONBONDED TABLE R-SQUARED SPACING: 0.0625
Info: NONBONDED TABLE SIZE: 705 POINTS
Info: REMOVING COM VELOCITY 0.0305128 0.00160701 -0.128371
TCL: Running for 25000 steps
ETITLE: TS BOND ANGLE DIHED IMPRP ELECT VDW BOUNDARY MISC KINETIC TOTAL TEMP POTENTIAL TOTAL3 TEMPAVG PRESSURE GPRESSURE VOLUME PRESSAVG GPRESSAVG
ENERGY: 0 0.2937 1.1780 22.1760 0.0000 -22729.0310 3862.1443 0.0000 0.0000 2902.6812 -15940.5578 293.6957 -18843.2390 -15939.9874 293.6957 -1.2819 37.0636 67557.2519 -1.2819 37.0636
ENERGY: 5000 0.7367 1.9283 21.9582 0.0000 -23782.2453 3979.5506 0.0000 0.0000 299.4169 -19478.6547 30.2953 -19778.0715 -19477.9071 47.8473 -579.5902 -527.9795 47827.5897 0.1280 0.1001
ENERGY: 10000 0.6648 2.1629 22.0344 0.0000 -23982.7361 4128.3266 0.0000 0.0000 296.6948 -19532.8526 30.0198 -19829.5474 -19532.4781 30.2227 39.5675 94.2938 47660.3189 3.3783 3.3390
ENERGY: 15000 0.2185 1.4450 22.9460 0.0000 -23913.4338 4029.3501 0.0000 0.0000 292.3699 -19567.1042 29.5822 -19859.4741 -19566.3603 30.1239 -522.6489 -462.5912 47661.3763 7.3624 7.3946
ENERGY: 20000 0.5116 1.7530 23.3177 0.0000 -23974.0585 4068.4062 0.0000 0.0000 298.5156 -19581.5544 30.2041 -19880.0700 -19580.9623 30.2705 -368.1573 -310.9158 47567.2355 6.5476 6.6724
ENERGY: 25000 0.1958 1.2096 23.5214 0.0000 -24128.2606 4213.3422 0.0000 0.0000 296.9818 -19593.0098 30.0489 -19889.9916 -19592.1761 30.2002 344.4742 395.1664 47410.3919 -0.6665 -0.4793
TCL: Running 25000 steps at 60 kelvin.
TCL: Setting parameter langevinTemp to 60
TCL: Running for 25000 steps
ETITLE: TS BOND ANGLE DIHED IMPRP ELECT VDW BOUNDARY MISC KINETIC TOTAL TEMP POTENTIAL TOTAL3 TEMPAVG PRESSURE GPRESSURE VOLUME PRESSAVG GPRESSAVG
ENERGY: 25000 0.1958 1.2096 23.5214 0.0000 -24128.2606 4213.3422 0.0000 0.0000 296.8334 -19593.1582 30.0339 -19889.9916 -19592.5269 30.0339 337.8321 395.2122 47410.3919 337.8321 395.2122
ENERGY: 30000 0.5374 2.0508 23.3404 0.0000 -23573.0812 3946.4627 0.0000 0.0000 588.3066 -19012.3832 59.5253 -19600.6898 -19010.7765 57.0761 -386.9826 -305.1848 47788.0105 0.0092 0.1935
ENERGY: 35000 0.3246 2.0035 24.0413 0.0000 -23570.8770 3904.0909 0.0000 0.0000 586.8885 -19053.5283 59.3819 -19640.4168 -19052.2018 60.2061 -655.1375 -623.7364 47830.7996 2.4000 2.7369
ENERGY: 40000 0.4095 3.0882 23.2480 0.0000 -23817.8235 4119.7892 0.0000 0.0000 592.2831 -19079.0055 59.9277 -19671.2886 -19077.8588 60.3843 400.7882 458.1974 47457.8325 0.7715 0.4616
ENERGY: 45000 0.2905 2.3787 23.8323 0.0000 -23682.9149 3966.8497 0.0000 0.0000 596.4958 -19093.0680 60.3539 -19689.5638 -19091.1858 59.4153 -388.6475 -339.0293 47683.8424 1.5614 1.3228
ENERGY: 50000 0.8559 1.5356 23.1380 0.0000 -23809.2505 4081.2000 0.0000 0.0000 596.6625 -19105.8585 60.3708 -19702.5209 -19104.3214 60.2943 155.4415 192.9741 47558.7609 2.2254 2.1182
TCL: Running 25000 steps at 90 kelvin.
TCL: Setting parameter langevinTemp to 90
TCL: Running for 25000 steps
ETITLE: TS BOND ANGLE DIHED IMPRP ELECT VDW BOUNDARY MISC KINETIC TOTAL TEMP POTENTIAL TOTAL3 TEMPAVG PRESSURE GPRESSURE VOLUME PRESSAVG GPRESSAVG
ENERGY: 50000 0.8559 1.5356 23.1380 0.0000 -23809.2505 4081.2000 0.0000 0.0000 596.3706 -19106.1504 60.3413 -19702.5209 -19105.1446 60.3413 135.6498 193.2101 47558.7609 135.6498 193.2101
ENERGY: 55000 1.0955 2.1207 21.6867 0.0000 -23508.1456 4054.2661 0.0000 0.0000 887.7535 -18541.2229 89.8236 -19428.9764 -18538.7530 86.9255 563.5940 606.0767 47821.2906 4.2108 4.2146
ENERGY: 60000 1.8615 1.9738 23.7033 0.0000 -23478.8935 4025.4466 0.0000 0.0000 919.0505 -18506.8578 92.9903 -19425.9083 -18503.6914 90.1015 418.5583 461.1516 47807.8436 1.8796 1.8322
ENERGY: 65000 0.7089 3.8703 23.0590 0.0000 -23387.6277 3900.5682 0.0000 0.0000 903.2284 -18556.1928 91.3894 -19459.4212 -18554.3090 90.2502 -300.3426 -241.9902 47933.2789 4.7849 4.5887
ENERGY: 70000 0.2725 3.3931 23.1678 0.0000 -23644.6167 4129.0377 0.0000 0.0000 892.4801 -18596.2653 90.3019 -19488.7455 -18593.4859 89.9885 895.6548 931.6144 47551.8409 9.4987 9.4022
ENERGY: 75000 0.2536 3.3797 23.6069 0.0000 -23442.8859 3891.0573 0.0000 0.0000 890.0504 -18634.5380 90.0560 -19524.5884 -18631.4990 90.1114 -440.2455 -404.3268 47989.8609 5.8512 6.0488
TCL: Running 25000 steps at 120 kelvin.
TCL: Setting parameter langevinTemp to 120
TCL: Running for 25000 steps
ETITLE: TS BOND ANGLE DIHED IMPRP ELECT VDW BOUNDARY MISC KINETIC TOTAL TEMP POTENTIAL TOTAL3 TEMPAVG PRESSURE GPRESSURE VOLUME PRESSAVG GPRESSAVG
ENERGY: 75000 0.2536 3.3797 23.6069 0.0000 -23442.8859 3891.0573 0.0000 0.0000 889.6210 -18634.9674 90.0126 -19524.5884 -18632.8755 90.0126 -447.1635 -403.9850 47989.8609 -447.1635 -403.9850
ENERGY: 80000 1.1835 2.4866 24.1759 0.0000 -23032.1527 3841.2220 0.0000 0.0000 1163.7206 -17999.3641 117.7462 -19163.0846 -17995.9712 117.1232 80.2728 145.3196 47915.0825 5.4106 5.1130
ENERGY: 85000 1.3193 2.1387 24.4168 0.0000 -23175.8221 3981.0057 0.0000 0.0000 1218.8590 -17948.0826 123.3252 -19166.9416 -17944.5149 119.5005 840.5368 859.8592 47786.6142 -0.4446 0.0838
ENERGY: 90000 1.6632 2.8286 24.1300 0.0000 -23155.5450 3969.1997 0.0000 0.0000 1202.5795 -17955.1441 121.6780 -19157.7236 -17953.5974 120.7505 742.7673 805.5708 47768.8051 4.2624 4.5151
ENERGY: 95000 1.6254 4.9409 21.4470 0.0000 -22892.9764 3651.8550 0.0000 0.0000 1206.4919 -18006.6163 122.0739 -19213.1082 -18003.7833 119.8944 -1006.4879 -959.1783 48221.4104 4.3859 4.3940
ENERGY: 100000 0.8144 2.4434 22.5787 0.0000 -23188.8095 3940.3133 0.0000 0.0000 1178.5107 -18044.1490 119.2427 -19222.6597 -18041.8410 120.1937 512.5708 565.0980 47725.9819 1.4911 1.9248
TCL: Running 25000 steps at 150 kelvin.
TCL: Setting parameter langevinTemp to 150
TCL: Running for 25000 steps
ETITLE: TS BOND ANGLE DIHED IMPRP ELECT VDW BOUNDARY MISC KINETIC TOTAL TEMP POTENTIAL TOTAL3 TEMPAVG PRESSURE GPRESSURE VOLUME PRESSAVG GPRESSAVG
ENERGY: 100000 0.8144 2.4434 22.5787 0.0000 -23188.8095 3940.3133 0.0000 0.0000 1177.9206 -18044.7391 119.1830 -19222.6597 -18042.5735 119.1830 511.9402 564.7855 47725.9819 511.9402 564.7855
ENERGY: 105000 1.5079 3.3297 24.1406 0.0000 -22493.7915 3650.6718 0.0000 0.0000 1526.1583 -17287.9833 154.4180 -18814.1416 -17285.8132 146.5624 -121.0259 -72.6781 48352.5928 7.1470 7.3122
ENERGY: 110000 0.7782 3.2267 23.3865 0.0000 -22663.7720 3781.2688 0.0000 0.0000 1479.2991 -17375.8125 149.6767 -18855.1117 -17372.3739 150.6460 570.1875 613.6991 48079.0471 3.3284 2.9837
ENERGY: 115000 1.1338 2.9254 24.4134 0.0000 -22588.9886 3691.6802 0.0000 0.0000 1504.0513 -17364.7845 152.1812 -18868.8358 -17361.7073 150.6837 -23.6548 62.7411 48049.8096 -0.4213 -0.1584
ENERGY: 120000 2.2879 4.2781 24.1830 0.0000 -22643.6898 3778.1183 0.0000 0.0000 1522.6990 -17312.1234 154.0680 -18834.8224 -17309.4524 149.7372 429.7353 483.6463 48034.1464 2.1271 2.0480
ENERGY: 125000 1.1005 4.1138 23.0910 0.0000 -22638.4588 3725.7938 0.0000 0.0000 1479.3838 -17404.9759 149.6853 -18884.3597 -17403.0860 151.6016 127.6278 190.6123 48073.6084 6.2986 6.4140
TCL: Running 50000 steps at 180 kelvin.
TCL: Setting parameter langevinTemp to 180
TCL: Running for 50000 steps
ETITLE: TS BOND ANGLE DIHED IMPRP ELECT VDW BOUNDARY MISC KINETIC TOTAL TEMP POTENTIAL TOTAL3 TEMPAVG PRESSURE GPRESSURE VOLUME PRESSAVG GPRESSAVG
ENERGY: 125000 1.1005 4.1138 23.0910 0.0000 -22638.4588 3725.7938 0.0000 0.0000 1478.6507 -17405.7090 149.6111 -18884.3597 -17402.6921 149.6111 140.1725 190.1206 48073.6084 140.1725 190.1206
ENERGY: 135000 1.0727 3.4755 27.0194 0.0000 -22105.1496 3603.2448 0.0000 0.0000 1809.9436 -16660.3936 183.1316 -18470.3372 -16655.5198 180.6291 422.9159 462.0229 48344.0050 -0.5796 -0.3974
ENERGY: 145000 2.7824 7.3231 23.0768 0.0000 -22048.9894 3520.9507 0.0000 0.0000 1790.5405 -16704.3159 181.1684 -18494.8563 -16699.6820 179.5423 -169.3117 -148.1029 48890.2140 5.4413 5.0373
ENERGY: 155000 1.3975 4.5122 24.4348 0.0000 -22069.9204 3556.5933 0.0000 0.0000 1779.2118 -16703.7709 180.0221 -18482.9827 -16697.4858 179.5008 -189.3642 -79.8098 48764.2499 4.4665 4.2784
ENERGY: 165000 2.2133 2.9078 24.7320 0.0000 -22066.5197 3563.5546 0.0000 0.0000 1784.9345 -16688.1776 180.6012 -18473.1120 -16684.6560 180.7991 195.0094 258.5801 48393.2618 1.8265 2.1894
ENERGY: 175000 0.9579 7.0490 24.3418 0.0000 -22146.8752 3569.4184 0.0000 0.0000 1794.4013 -16750.7068 181.5590 -18545.1081 -16746.4619 180.2332 131.5731 227.5747 48098.5588 1.7432 1.8840
TCL: Running 50000 steps at 210 kelvin.
TCL: Setting parameter langevinTemp to 210
TCL: Running for 50000 steps
ETITLE: TS BOND ANGLE DIHED IMPRP ELECT VDW BOUNDARY MISC KINETIC TOTAL TEMP POTENTIAL TOTAL3 TEMPAVG PRESSURE GPRESSURE VOLUME PRESSAVG GPRESSAVG
ENERGY: 175000 0.9579 7.0490 24.3418 0.0000 -22146.8752 3569.4184 0.0000 0.0000 1793.5097 -16751.5984 181.4688 -18545.1081 -16747.8404 181.4688 162.6961 227.1430 48098.5588 162.6961 227.1430
ENERGY: 185000 1.4765 4.2696 24.6122 0.0000 -21137.2570 3236.7506 0.0000 0.0000 2068.5241 -15801.6239 209.2950 -17870.1480 -15795.8354 210.1887 -237.7915 -153.0032 48747.4799 5.8101 6.2033
ENERGY: 195000 2.8583 3.5116 24.3429 0.0000 -20900.3771 3127.1726 0.0000 0.0000 2089.1555 -15653.3362 211.3825 -17742.4917 -15648.2787 210.8040 -548.1633 -433.1848 48709.9279 2.5557 2.5285
ENERGY: 205000 2.8519 3.9885 25.5300 0.0000 -20905.8272 3182.3756 0.0000 0.0000 2102.9854 -15588.0959 212.7818 -17691.0812 -15583.4837 210.8212 62.1675 125.2660 48437.6408 -0.5604 -0.4633
ENERGY: 215000 0.8363 3.0582 24.7981 0.0000 -20970.6218 3204.3678 0.0000 0.0000 2111.3835 -15626.1777 213.6316 -17737.5613 -15622.8074 208.6986 59.9070 173.8672 48150.8732 1.6578 1.3269
ENERGY: 225000 1.7766 4.3978 24.3078 0.0000 -21046.6682 3283.9280 0.0000 0.0000 2092.5457 -15639.7123 211.7255 -17732.2580 -15634.7620 209.4814 642.4604 747.8793 48025.3015 1.5080 1.0095
TCL: Running 50000 steps at 240 kelvin.
TCL: Setting parameter langevinTemp to 240
TCL: Running for 50000 steps
ETITLE: TS BOND ANGLE DIHED IMPRP ELECT VDW BOUNDARY MISC KINETIC TOTAL TEMP POTENTIAL TOTAL3 TEMPAVG PRESSURE GPRESSURE VOLUME PRESSAVG GPRESSAVG
ENERGY: 225000 1.7766 4.3978 24.3078 0.0000 -21046.6682 3283.9280 0.0000 0.0000 2091.5187 -15640.7393 211.6216 -17732.2580 -15638.2693 211.6216 673.0214 748.0720 48025.3015 673.0214 748.0720
ENERGY: 235000 4.0362 5.7146 24.6085 0.0000 -19716.2368 2696.4784 0.0000 0.0000 2427.5462 -14557.8530 245.6212 -16985.3992 -14554.2318 239.9715 -1202.2990 -1070.8432 49563.2692 2.9653 3.3063
ENERGY: 245000 2.0932 4.5288 25.4863 0.0000 -19830.3472 2812.9278 0.0000 0.0000 2361.3849 -14623.9262 238.9269 -16985.3111 -14618.6106 239.0121 -573.9561 -520.8229 49523.2656 -0.6746 -0.6555
ENERGY: 255000 2.5186 2.3027 25.6358 0.0000 -20109.5974 2981.0109 0.0000 0.0000 2428.9658 -14669.1636 245.7648 -17098.1293 -14665.0644 239.3830 51.2485 103.4763 49206.3229 1.6722 0.8548
ENERGY: 265000 3.2021 5.3225 24.8176 0.0000 -20241.4942 3038.3472 0.0000 0.0000 2417.3090 -14752.4959 244.5853 -17169.8049 -14752.1913 238.5592 456.3038 545.0169 48563.8681 -3.3898 -3.5571
ENERGY: 275000 1.6598 3.8673 27.2975 0.0000 -19827.7531 2849.2259 0.0000 0.0000 2342.2422 -14603.4604 236.9900 -16945.7027 -14599.4808 240.9311 -147.4581 -77.3753 49049.1218 -0.4224 -0.5541
TCL: Running 50000 steps at 270 kelvin.
TCL: Setting parameter langevinTemp to 270
TCL: Running for 50000 steps
ETITLE: TS BOND ANGLE DIHED IMPRP ELECT VDW BOUNDARY MISC KINETIC TOTAL TEMP POTENTIAL TOTAL3 TEMPAVG PRESSURE GPRESSURE VOLUME PRESSAVG GPRESSAVG
ENERGY: 275000 1.6598 3.8673 27.2975 0.0000 -19827.7531 2849.2259 0.0000 0.0000 2341.0752 -14604.6274 236.8719 -16945.7027 -14601.0677 236.8719 -157.7053 -77.2488 49049.1218 -157.7053 -77.2488
ENERGY: 285000 2.2141 5.9481 25.4903 0.0000 -18996.4864 2599.8278 0.0000 0.0000 2692.3514 -13670.6547 272.4144 -16363.0061 -13664.1614 269.4517 -223.7960 -120.9906 49458.8225 -0.6328 0.1114
ENERGY: 295000 3.5343 4.0674 22.9395 0.0000 -18785.9980 2613.9542 0.0000 0.0000 2674.3142 -13467.1885 270.5893 -16141.5026 -13466.1954 270.5652 -93.9717 -46.7595 50588.7045 0.2501 -0.4504
ENERGY: 305000 3.3912 3.6239 29.0629 0.0000 -19025.2083 2745.0541 0.0000 0.0000 2673.3223 -13570.7538 270.4890 -16244.0762 -13565.0907 270.7179 682.9664 718.5705 49785.4998 3.6450 3.1853
ENERGY: 315000 3.9451 6.0850 25.2599 0.0000 -19033.6588 2618.5461 0.0000 0.0000 2720.9011 -13658.9216 275.3030 -16379.8227 -13652.5872 270.6184 -252.0089 -223.4122 50066.2229 7.9739 7.3161
ENERGY: 325000 2.4471 4.8858 25.3672 0.0000 -18957.2501 2599.0653 0.0000 0.0000 2662.6848 -13662.8000 269.4127 -16325.4847 -13656.9288 270.5642 -264.1309 -211.2538 49827.3010 1.6716 1.7638
TCL: Running 1000000 steps at 300 kelvin.
TCL: Setting parameter langevinTemp to 300
TCL: Running for 1000000 steps
ETITLE: TS BOND ANGLE DIHED IMPRP ELECT VDW BOUNDARY MISC KINETIC TOTAL TEMP POTENTIAL TOTAL3 TEMPAVG PRESSURE GPRESSURE VOLUME PRESSAVG GPRESSAVG
ENERGY: 325000 2.4471 4.8858 25.3672 0.0000 -18957.2501 2599.0653 0.0000 0.0000 2661.3432 -13664.1416 269.2769 -16325.4847 -13660.7611 269.2769 -296.7226 -210.7766 49827.3010 -296.7226 -210.7766
ENERGY: 525000 3.8834 4.7569 26.7578 0.0000 -18140.8845 2458.3950 0.0000 0.0000 2988.3376 -12658.7538 302.3625 -15647.0914 -12654.2709 301.0095 120.2459 199.0762 50872.9626 6.8575 6.1562
ENERGY: 725000 1.5893 6.2507 26.0614 0.0000 -17968.3306 2390.9895 0.0000 0.0000 3006.8672 -12536.5726 304.2373 -15543.4397 -12529.5696 299.0389 -62.5609 26.3625 51490.2641 0.1479 -0.0813
ENERGY: 925000 1.6312 5.6067 26.4329 0.0000 -18160.3642 2495.2098 0.0000 0.0000 2944.1374 -12687.3463 297.8903 -15631.4837 -12681.5656 299.8735 494.4128 604.4356 50516.6846 2.6721 3.0527
ENERGY: 1125000 2.6088 4.7190 24.6588 0.0000 -18142.4652 2460.0214 0.0000 0.0000 2911.8118 -12738.6454 294.6196 -15650.4571 -12730.7310 301.4574 226.0286 358.9805 50868.0394 6.8343 7.1674
ENERGY: 1325000 1.5612 3.0233 25.0247 0.0000 -18034.3077 2406.8271 0.0000 0.0000 2918.0807 -12679.7907 295.2538 -15597.8714 -12671.6155 301.1872 -220.1543 -139.7927 51895.5141 5.3503 6.4220
TCL: Exiting due to exit command.
