Info: SIMULATION PARAMETERS:
Info: TIMESTEP               2
Info: NUMBER OF STEPS        0
Info: STEPS PER CYCLE        10
Info: PERIODIC CELL BASIS 1  39.512 0 0
Info: PERIODIC CELL BASIS 2  0 41.432 0
Info: PERIODIC CELL BASIS 3  0 0 42.009
Info: PERIODIC CELL CENTER   0 0 0
Info: WRAPPING WATERS AROUND PERIODIC BOUNDARIES ON OUTPUT.
Info: WRAPPING ALL CLUSTERS AROUND PERIODIC BOUNDARIES ON OUTPUT.
Info: FIRST LDB TIMESTEP     50
Info: LAST LDB TIMESTEP     -1
Info: HOM BACKGROUND SCALING 1
Info: PME BACKGROUND SCALING 1
Info: MIN ATOMS PER PATCH    40
Info: EMPTY PATCH LOAD       40 ATOMS
Info: INITIAL TEMPERATURE    300
Info: CENTER OF MASS MOVING INITIALLY? NO
Info: DIELECTRIC             1
Info: EXCLUDE                SCALED ONE-FOUR
Info: 1-4 ELECTROSTATICS SCALED BY 0.833333
Info: MODIFIED 1-4 VDW PARAMETERS WILL BE USED
Info: DCD FILENAME           mobley_7455579_min.dcd
Info: DCD FREQUENCY          5000
Info: DCD FIRST STEP         5000
Info: DCD FILE WILL CONTAIN UNIT CELL DATA
Info: XST FILENAME           mobley_7455579_min.xst
Info: XST FREQUENCY          5000
Info: NO VELOCITY DCD OUTPUT
Info: NO FORCE DCD OUTPUT
Info: OUTPUT FILENAME        mobley_7455579_min
Info: BINARY OUTPUT FILES WILL BE USED
Info: RESTART FILENAME       mobley_7455579_min.restart
Info: RESTART FREQUENCY      5000
Info: BINARY RESTART FILES WILL BE USED
Info: CUTOFF                 9
Info: PAIRLIST DISTANCE      11
Info: PAIRLIST SHRINK RATE   0.01
Info: PAIRLIST GROW RATE     0.01
Info: PAIRLIST TRIGGER       0.3
Info: PAIRLISTS PER CYCLE    2
Info: PAIRLISTS ENABLED
Info: MARGIN                 8
Info: HYDROGEN GROUP CUTOFF  2.5
Info: PATCH DIMENSION        21.5
Info: ENERGY OUTPUT STEPS    5000
Info: ENERGY EVALUATION STEPS    5000
Info: OUTPUT ENERGY PRECISION 4
Info: CROSSTERM ENERGY INCLUDED IN DIHEDRAL
Info: TIMING OUTPUT STEPS    50000
Info: PRESSURE OUTPUT STEPS  5000
Info: LANGEVIN DYNAMICS ACTIVE
Info: LANGEVIN TEMPERATURE   300
Info: LANGEVIN USING BBK INTEGRATOR
Info: LANGEVIN DAMPING COEFFICIENT IS 1 INVERSE PS
Info: LANGEVIN DYNAMICS APPLIED TO HYDROGENS
Info: LANGEVIN PISTON PRESSURE CONTROL ACTIVE
Info:        TARGET PRESSURE IS 1.01325 BAR
Info:     OSCILLATION PERIOD IS 50 FS
Info:             DECAY TIME IS 25 FS
Info:     PISTON TEMPERATURE IS 300 K
Info:       PRESSURE CONTROL IS GROUP-BASED
Info:    INITIAL STRAIN RATE IS 0 0 0
Info:       CELL FLUCTUATION IS ISOTROPIC
Info: PARTICLE MESH EWALD (PME) ACTIVE
Info: PME TOLERANCE               1e-06
Info: PME EWALD COEFFICIENT       0.348832
Info: PME INTERPOLATION ORDER     4
Info: PME GRID DIMENSIONS         40 44 44
Info: PME MAXIMUM GRID SPACING    1
Info: FULL ELECTROSTATIC EVALUATION FREQUENCY      2
Info: USING VERLET I (r-RESPA) MTS SCHEME.
Info: C1 SPLITTING OF LONG RANGE ELECTROSTATICS
Info: PLACING ATOMS IN PATCHES BY HYDROGEN GROUPS
Info: RIGID BONDS TO HYDROGEN : ALL
Info:         ERROR TOLERANCE : 1e-08
Info:          MAX ITERATIONS : 100
Info: RIGID WATER USING SETTLE ALGORITHM
Info: RANDOM NUMBER SEED     1741388251
Info: USE HYDROGEN BONDS?    NO
Info: Using AMBER format force field!
Info: AMBER PARM FILE        mobley_7455579.prmtop
Info: COORDINATE PDB         mobley_7455579.pdb
Info: Exclusions will be read from PARM file!
Info: SCNB (VDW SCALING)     2
Info: USING ARITHMETIC MEAN TO COMBINE L-J SIGMA PARAMETERS
Info: SUMMARY OF PARAMETERS:
Info: 9 BONDS
Info: 11 ANGLES
Info:   11 HARMONIC
Info:   0 COSINE-BASED
Info: 11 DIHEDRAL
Info: 0 IMPROPER
Info: 0 CROSSTERM
Info: 0 VDW
Info: 45 VDW_PAIRS
Info: 0 NBTHOLE_PAIRS
Info: STRUCTURE SUMMARY:
Info: 4907 ATOMS
Info: 4906 BONDS
Info: 28 ANGLES
Info: 36 DIHEDRALS
Info: 0 IMPROPERS
Info: 0 CROSSTERMS
Info: 4966 EXCLUSIONS
Info: 4900 RIGID BONDS
Info: 9821 DEGREES OF FREEDOM
Info: 1637 HYDROGEN GROUPS
Info: 4 ATOMS IN LARGEST HYDROGEN GROUP
Info: 1637 MIGRATION GROUPS
Info: 4 ATOMS IN LARGEST MIGRATION GROUP
Info: TOTAL MASS = 29468.2 amu
Info: TOTAL CHARGE = 0.000199918 e
Info: MASS DENSITY = 0.711551 g/cm^3
Info: ATOM DENSITY = 0.0713524 atoms/A^3
Info: ADDED 0 IMPLICIT EXCLUSIONS
Info: NONBONDED TABLE R-SQUARED SPACING: 0.0625
Info: NONBONDED TABLE SIZE: 705 POINTS
Info: REMOVING COM VELOCITY -0.0163867 -0.0551581 0.0669394
TCL: Minimizing for 2000 steps
ETITLE: TS BOND ANGLE DIHED IMPRP ELECT VDW BOUNDARY MISC KINETIC TOTAL TEMP POTENTIAL TOTAL3 TEMPAVG PRESSURE GPRESSURE VOLUME PRESSAVG GPRESSAVG
ENERGY: 0 0.0389 1.6209 2.0038 0.0000 -15260.8938 1729.0618 0.0000 0.0000 0.0000 -13528.1684 0.0000 -13528.1684 -13528.1684 0.0000 11013.9882 -15543.0516 68771.3033 11013.9882 -15543.0516
ENERGY: 400 1.9867 2.1139 3.2737 0.0000 -20231.4514 2900.5718 0.0000 0.0000 0.0000 -17323.5054 0.0000 -17323.5054 -17323.5054 0.0000 15212.4124 15349.4884 68771.3033 15212.4124 15349.4884
ENERGY: 800 0.6550 0.9726 2.4128 0.0000 -21368.6519 3403.4435 0.0000 0.0000 0.0000 -17961.1680 0.0000 -17961.1680 -17961.1680 0.0000 17459.6718 17572.0254 68771.3033 17459.6718 17572.0254
ENERGY: 1200 0.8937 0.9669 2.4609 0.0000 -21832.4730 3590.7030 0.0000 0.0000 0.0000 -18237.4485 0.0000 -18237.4485 -18237.4485 0.0000 18343.9553 18461.3063 68771.3033 18343.9553 18461.3063
ENERGY: 1600 0.5902 0.6138 2.3544 0.0000 -22153.6418 3740.2428 0.0000 0.0000 0.0000 -18409.8405 0.0000 -18409.8405 -18409.8405 0.0000 19073.7810 19182.1653 68771.3033 19073.7810 19182.1653
ENERGY: 2000 0.3049 0.6788 2.2249 0.0000 -22307.9898 3801.3346 0.0000 0.0000 0.0000 -18503.4467 0.0000 -18503.4467 -18503.4467 0.0000 19441.8847 19538.8000 68771.3033 19441.8847 19538.8000
TCL: Exiting due to exit command.
Info: NAMD 3.0.1 for Linux-x86_64-multicore
Info: Please visit http://www.ks.uiuc.edu/Research/namd/
Info: for updates, documentation, and support information.
Info: Please cite Phillips et al., J. Chem. Phys. 153:044130 (2020) doi:10.1063/5.0014475
Info: in all publications reporting results obtained with NAMD.
Info: Based on Charm++/Converse 80000 for multicore-linux-x86_64-gcc
Info: Built Mon Oct 14 11:11:06 CDT 2024 by dhardy on athine.ks.uiuc.edu
Info: 1 NAMD  3.0.1  Linux-x86_64-multicore  16    k014  z5358697
Info: Running on 16 processors, 1 nodes, 1 physical nodes.
Info: CPU topology information available.
Info: Charm++/Converse parallel runtime startup completed at 0.00952595 s
Info: 1043.45 MB of memory in use based on /proc/self/stat
Info: Configuration file is mobley_7455579_equil.namd
Info: Working in the current directory /srv/scratch/z5358697/prod_prep_9/7455579
TCL: Running 25000 steps at 30 kelvin.
TCL: Suspending until startup complete.
Info: SIMULATION PARAMETERS:
Info: TIMESTEP               2
Info: NUMBER OF STEPS        0
Info: STEPS PER CYCLE        10
Info: PERIODIC CELL BASIS 1  39.512 0 0
Info: PERIODIC CELL BASIS 2  0 41.432 0
Info: PERIODIC CELL BASIS 3  0 0 42.009
Info: PERIODIC CELL CENTER   0 0 0
Info: WRAPPING WATERS AROUND PERIODIC BOUNDARIES ON OUTPUT.
Info: WRAPPING ALL CLUSTERS AROUND PERIODIC BOUNDARIES ON OUTPUT.
Info: FIRST LDB TIMESTEP     50
Info: LAST LDB TIMESTEP     -1
Info: HOM BACKGROUND SCALING 1
Info: PME BACKGROUND SCALING 1
Info: MIN ATOMS PER PATCH    40
Info: EMPTY PATCH LOAD       40 ATOMS
Info: INITIAL TEMPERATURE    300
Info: CENTER OF MASS MOVING INITIALLY? NO
Info: DIELECTRIC             1
Info: EXCLUDE                SCALED ONE-FOUR
Info: 1-4 ELECTROSTATICS SCALED BY 0.833333
Info: MODIFIED 1-4 VDW PARAMETERS WILL BE USED
Info: DCD FILENAME           mobley_7455579_equil.dcd
Info: DCD FREQUENCY          5000
Info: DCD FIRST STEP         5000
Info: DCD FILE WILL CONTAIN UNIT CELL DATA
Info: XST FILENAME           mobley_7455579_equil.xst
Info: XST FREQUENCY          5000
Info: NO VELOCITY DCD OUTPUT
Info: NO FORCE DCD OUTPUT
Info: OUTPUT FILENAME        mobley_7455579_equil
Info: BINARY OUTPUT FILES WILL BE USED
Info: RESTART FILENAME       mobley_7455579_equil.restart
Info: RESTART FREQUENCY      5000
Info: BINARY RESTART FILES WILL BE USED
Info: CUTOFF                 9
Info: PAIRLIST DISTANCE      11
Info: PAIRLIST SHRINK RATE   0.01
Info: PAIRLIST GROW RATE     0.01
Info: PAIRLIST TRIGGER       0.3
Info: PAIRLISTS PER CYCLE    2
Info: PAIRLISTS ENABLED
Info: MARGIN                 8
Info: HYDROGEN GROUP CUTOFF  2.5
Info: PATCH DIMENSION        21.5
Info: ENERGY OUTPUT STEPS    5000
Info: ENERGY EVALUATION STEPS    5000
Info: OUTPUT ENERGY PRECISION 4
Info: CROSSTERM ENERGY INCLUDED IN DIHEDRAL
Info: TIMING OUTPUT STEPS    50000
Info: PRESSURE OUTPUT STEPS  5000
Info: LANGEVIN DYNAMICS ACTIVE
Info: LANGEVIN TEMPERATURE   30
Info: LANGEVIN USING BBK INTEGRATOR
Info: LANGEVIN DAMPING COEFFICIENT IS 1 INVERSE PS
Info: LANGEVIN DYNAMICS APPLIED TO HYDROGENS
Info: LANGEVIN PISTON PRESSURE CONTROL ACTIVE
Info:        TARGET PRESSURE IS 1.01325 BAR
Info:     OSCILLATION PERIOD IS 50 FS
Info:             DECAY TIME IS 25 FS
Info:     PISTON TEMPERATURE IS 300 K
Info:       PRESSURE CONTROL IS GROUP-BASED
Info:    INITIAL STRAIN RATE IS 0 0 0
Info:       CELL FLUCTUATION IS ISOTROPIC
Info: PARTICLE MESH EWALD (PME) ACTIVE
Info: PME TOLERANCE               1e-06
Info: PME EWALD COEFFICIENT       0.348832
Info: PME INTERPOLATION ORDER     4
Info: PME GRID DIMENSIONS         40 44 44
Info: PME MAXIMUM GRID SPACING    1
Info: FULL ELECTROSTATIC EVALUATION FREQUENCY      2
Info: USING VERLET I (r-RESPA) MTS SCHEME.
Info: C1 SPLITTING OF LONG RANGE ELECTROSTATICS
Info: PLACING ATOMS IN PATCHES BY HYDROGEN GROUPS
Info: RIGID BONDS TO HYDROGEN : ALL
Info:         ERROR TOLERANCE : 1e-08
Info:          MAX ITERATIONS : 100
Info: RIGID WATER USING SETTLE ALGORITHM
Info: RANDOM NUMBER SEED     1741388268
Info: USE HYDROGEN BONDS?    NO
Info: Using AMBER format force field!
Info: AMBER PARM FILE        mobley_7455579.prmtop
Info: COORDINATE PDB         mobley_7455579.pdb
Info: Exclusions will be read from PARM file!
Info: SCNB (VDW SCALING)     2
Info: USING ARITHMETIC MEAN TO COMBINE L-J SIGMA PARAMETERS
Info: BINARY COORDINATES     mobley_7455579_min.coor
Info: SUMMARY OF PARAMETERS:
Info: 9 BONDS
Info: 11 ANGLES
Info:   11 HARMONIC
Info:   0 COSINE-BASED
Info: 11 DIHEDRAL
Info: 0 IMPROPER
Info: 0 CROSSTERM
Info: 0 VDW
Info: 45 VDW_PAIRS
Info: 0 NBTHOLE_PAIRS
Info: STRUCTURE SUMMARY:
Info: 4907 ATOMS
Info: 4906 BONDS
Info: 28 ANGLES
Info: 36 DIHEDRALS
Info: 0 IMPROPERS
Info: 0 CROSSTERMS
Info: 4966 EXCLUSIONS
Info: 4900 RIGID BONDS
Info: 9821 DEGREES OF FREEDOM
Info: 1637 HYDROGEN GROUPS
Info: 4 ATOMS IN LARGEST HYDROGEN GROUP
Info: 1637 MIGRATION GROUPS
Info: 4 ATOMS IN LARGEST MIGRATION GROUP
Info: TOTAL MASS = 29468.2 amu
Info: TOTAL CHARGE = 0.000199918 e
Info: MASS DENSITY = 0.711551 g/cm^3
Info: ATOM DENSITY = 0.0713524 atoms/A^3
Info: ADDED 0 IMPLICIT EXCLUSIONS
Info: NONBONDED TABLE R-SQUARED SPACING: 0.0625
Info: NONBONDED TABLE SIZE: 705 POINTS
Info: REMOVING COM VELOCITY -0.171808 -0.0728335 -0.0208878
TCL: Running for 25000 steps
ETITLE: TS BOND ANGLE DIHED IMPRP ELECT VDW BOUNDARY MISC KINETIC TOTAL TEMP POTENTIAL TOTAL3 TEMPAVG PRESSURE GPRESSURE VOLUME PRESSAVG GPRESSAVG
ENERGY: 0 0.3049 0.6788 2.2249 0.0000 -22307.9898 3801.3346 0.0000 0.0000 2838.3787 -15665.0680 290.8741 -18503.4467 -15664.4943 290.8741 60.1069 97.6596 68771.3033 60.1069 97.6596
ENERGY: 5000 0.5766 1.5336 2.7705 0.0000 -23382.1151 3915.0056 0.0000 0.0000 297.7018 -19164.5270 30.5082 -19462.2288 -19164.0374 48.1397 -674.9643 -625.8174 47444.6081 3.8189 3.9261
ENERGY: 10000 0.0445 0.8749 2.2386 0.0000 -23546.4263 4042.9855 0.0000 0.0000 293.0309 -19207.2518 30.0295 -19500.2828 -19206.1384 30.1179 -89.8733 -22.5448 47336.8347 2.6385 2.4842
ENERGY: 15000 0.5555 1.2211 2.0323 0.0000 -23561.1061 4036.8068 0.0000 0.0000 291.9872 -19228.5031 29.9225 -19520.4903 -19227.5447 29.9526 -165.7635 -111.1511 47301.5767 0.3564 0.6146
ENERGY: 20000 0.4917 1.4227 2.1367 0.0000 -23596.5580 4060.9272 0.0000 0.0000 289.8905 -19241.6891 29.7077 -19531.5796 -19240.8250 30.0725 -100.1241 -63.5228 47367.6738 0.6692 0.7014
ENERGY: 25000 0.0127 1.2797 2.1305 0.0000 -23643.0218 4091.6867 0.0000 0.0000 291.7001 -19256.2121 29.8931 -19547.9122 -19255.2414 30.2534 175.5396 228.4345 46965.8522 -1.4193 -1.2202
TCL: Running 25000 steps at 60 kelvin.
TCL: Setting parameter langevinTemp to 60
TCL: Running for 25000 steps
ETITLE: TS BOND ANGLE DIHED IMPRP ELECT VDW BOUNDARY MISC KINETIC TOTAL TEMP POTENTIAL TOTAL3 TEMPAVG PRESSURE GPRESSURE VOLUME PRESSAVG GPRESSAVG
ENERGY: 25000 0.0127 1.2797 2.1305 0.0000 -23643.0218 4091.6867 0.0000 0.0000 291.5555 -19256.3567 29.8783 -19547.9122 -19255.7499 29.8783 174.7249 228.6230 46965.8522 174.7249 228.6230
ENERGY: 30000 0.3417 1.9818 2.1651 0.0000 -23204.8230 3926.9612 0.0000 0.0000 593.5059 -18679.8673 60.8219 -19273.3732 -18677.4735 56.7265 -106.1196 -78.6781 47398.7177 8.4307 8.3180
ENERGY: 35000 0.7383 1.4868 2.5296 0.0000 -23275.5906 3961.0984 0.0000 0.0000 586.6226 -18723.1149 60.1165 -19309.7374 -18721.4469 60.4235 -32.5554 23.9693 47287.6521 3.2921 3.0399
ENERGY: 40000 0.4306 1.4472 2.1803 0.0000 -23259.9010 3897.6103 0.0000 0.0000 589.7594 -18768.4733 60.4379 -19358.2326 -18766.5594 60.3580 -441.5759 -398.7986 47374.1717 0.6658 0.5772
ENERGY: 45000 0.0222 1.3279 2.2295 0.0000 -23489.1995 4103.8839 0.0000 0.0000 587.7220 -18794.0140 60.2291 -19381.7360 -18792.3019 59.8318 575.2023 638.2635 47138.0384 -1.8453 -1.8312
ENERGY: 50000 0.1011 1.8011 2.3129 0.0000 -23381.6395 4003.4953 0.0000 0.0000 571.5718 -18802.3573 58.5741 -19373.9291 -18800.9428 59.9852 71.5995 109.0310 47247.3221 1.1208 0.7435
TCL: Running 25000 steps at 90 kelvin.
TCL: Setting parameter langevinTemp to 90
TCL: Running for 25000 steps
ETITLE: TS BOND ANGLE DIHED IMPRP ELECT VDW BOUNDARY MISC KINETIC TOTAL TEMP POTENTIAL TOTAL3 TEMPAVG PRESSURE GPRESSURE VOLUME PRESSAVG GPRESSAVG
ENERGY: 50000 0.1011 1.8011 2.3129 0.0000 -23381.6395 4003.4953 0.0000 0.0000 571.2890 -18802.6402 58.5451 -19373.9291 -18801.5073 58.5451 53.3123 108.8045 47247.3221 53.3123 108.8045
ENERGY: 55000 0.2533 2.7592 2.8535 0.0000 -23165.9914 4064.2992 0.0000 0.0000 865.3112 -18230.5150 88.6762 -19095.8262 -18228.5474 86.7803 1040.2552 1048.6102 47229.8160 8.9092 8.9922
ENERGY: 60000 0.5033 2.7112 2.3824 0.0000 -22974.2531 3835.0202 0.0000 0.0000 868.4810 -18265.1551 89.0010 -19133.6361 -18262.5529 90.0146 -417.4555 -363.4132 47818.5837 4.4306 4.5048
ENERGY: 65000 0.5359 2.1239 3.0432 0.0000 -23064.0259 3940.5855 0.0000 0.0000 878.2793 -18239.4581 90.0051 -19117.7374 -18236.0306 89.9311 225.9873 290.6759 47580.8018 7.3422 7.7000
ENERGY: 70000 0.3562 2.5501 2.1528 0.0000 -22940.8777 3760.0701 0.0000 0.0000 857.9392 -18317.8093 87.9207 -19175.7485 -18315.1398 90.6393 -897.2819 -832.6359 47812.0883 -0.0764 -0.0907
ENERGY: 75000 1.1280 1.8655 2.4639 0.0000 -23189.8041 4000.7865 0.0000 0.0000 882.9868 -18300.5735 90.4876 -19183.5603 -18297.9976 90.5265 358.0852 413.8122 47429.2466 3.7340 3.5514
TCL: Running 25000 steps at 120 kelvin.
TCL: Setting parameter langevinTemp to 120
TCL: Running for 25000 steps
ETITLE: TS BOND ANGLE DIHED IMPRP ELECT VDW BOUNDARY MISC KINETIC TOTAL TEMP POTENTIAL TOTAL3 TEMPAVG PRESSURE GPRESSURE VOLUME PRESSAVG GPRESSAVG
ENERGY: 75000 1.1280 1.8655 2.4639 0.0000 -23189.8041 4000.7865 0.0000 0.0000 882.5693 -18300.9910 90.4448 -19183.5603 -18299.2015 90.4448 360.8229 413.6609 47429.2466 360.8229 413.6609
ENERGY: 80000 0.8696 3.4486 2.9195 0.0000 -22616.1180 3751.5092 0.0000 0.0000 1223.6923 -17633.6788 125.4027 -18857.3710 -17630.1214 117.1183 -203.8393 -138.6955 47806.8649 -1.3081 -0.9944
ENERGY: 85000 1.2719 3.4963 2.3929 0.0000 -22887.9164 3961.7176 0.0000 0.0000 1164.6371 -17754.4005 119.3508 -18919.0376 -17751.6884 120.5054 751.5387 820.3589 47476.6642 2.9514 3.1602
ENERGY: 90000 0.9958 2.9559 3.0947 0.0000 -22630.6461 3693.5971 0.0000 0.0000 1164.7599 -17765.2428 119.3634 -18930.0026 -17760.9831 120.0196 -578.7230 -537.4068 47969.4842 1.3367 1.4496
ENERGY: 95000 1.4304 3.7844 2.4247 0.0000 -22896.3859 3950.6456 0.0000 0.0000 1159.4055 -17778.6954 118.8147 -18938.1009 -17775.9124 119.6521 725.3730 760.4494 47499.1768 -2.1719 -2.4038
ENERGY: 100000 1.3361 4.0234 2.8266 0.0000 -22725.4928 3756.7676 0.0000 0.0000 1172.7717 -17787.7675 120.1844 -18960.5392 -17785.8131 119.4293 -355.6043 -290.4368 47718.4301 0.3901 0.9127
TCL: Running 25000 steps at 150 kelvin.
TCL: Setting parameter langevinTemp to 150
TCL: Running for 25000 steps
ETITLE: TS BOND ANGLE DIHED IMPRP ELECT VDW BOUNDARY MISC KINETIC TOTAL TEMP POTENTIAL TOTAL3 TEMPAVG PRESSURE GPRESSURE VOLUME PRESSAVG GPRESSAVG
ENERGY: 100000 1.3361 4.0234 2.8266 0.0000 -22725.4928 3756.7676 0.0000 0.0000 1172.1872 -17788.3520 120.1245 -18960.5392 -17786.0460 120.1245 -339.0618 -291.4342 47718.4301 -339.0618 -291.4342
ENERGY: 105000 1.7429 5.2678 2.2307 0.0000 -22307.9617 3706.3439 0.0000 0.0000 1476.9682 -17115.4082 151.3582 -18592.3764 -17111.3562 146.8338 273.7274 311.2118 47654.4156 10.1611 10.1574
ENERGY: 110000 0.5195 3.3128 3.3915 0.0000 -22120.3135 3507.7831 0.0000 0.0000 1475.8490 -17129.4575 151.2435 -18605.3066 -17124.7516 150.3441 -992.1927 -902.2942 48424.8610 -1.8879 -1.9182
ENERGY: 115000 1.4283 4.2183 2.5840 0.0000 -22464.5579 3855.3239 0.0000 0.0000 1468.2684 -17132.7350 150.4666 -18601.0034 -17130.4834 150.1574 849.1173 957.6549 47835.6424 -0.1738 0.0324
ENERGY: 120000 0.4937 2.0440 2.5120 0.0000 -22398.7676 3696.5477 0.0000 0.0000 1420.3872 -17276.7829 145.5598 -18697.1701 -17273.0557 149.6434 -60.5455 -28.6966 47899.1035 6.6128 5.9855
ENERGY: 125000 0.6486 3.2629 2.6129 0.0000 -22404.4800 3690.4312 0.0000 0.0000 1446.7239 -17260.8005 148.2587 -18707.5244 -17257.9985 148.6892 -304.8850 -239.9396 48273.2245 1.8285 2.1584
TCL: Running 50000 steps at 180 kelvin.
TCL: Setting parameter langevinTemp to 180
TCL: Running for 50000 steps
ETITLE: TS BOND ANGLE DIHED IMPRP ELECT VDW BOUNDARY MISC KINETIC TOTAL TEMP POTENTIAL TOTAL3 TEMPAVG PRESSURE GPRESSURE VOLUME PRESSAVG GPRESSAVG
ENERGY: 125000 0.6486 3.2629 2.6129 0.0000 -22404.4800 3690.4312 0.0000 0.0000 1445.9826 -17261.5418 148.1828 -18707.5244 -17258.0593 148.1828 -295.0922 -240.5117 48273.2245 -295.0922 -240.5117
ENERGY: 135000 0.7993 4.4352 2.4373 0.0000 -21722.2733 3496.9550 0.0000 0.0000 1790.2303 -16427.4162 183.4609 -18217.6465 -16422.0435 179.8631 -111.0162 -78.4028 48606.8179 1.4327 1.4568
ENERGY: 145000 0.2570 3.9876 2.3103 0.0000 -21708.9117 3488.1989 0.0000 0.0000 1759.7255 -16454.4323 180.3348 -18214.1578 -16451.4571 180.4106 -233.2995 -167.2981 48550.1723 3.0316 2.8848
ENERGY: 155000 1.9596 5.3632 3.2130 0.0000 -21952.4088 3650.5360 0.0000 0.0000 1810.2621 -16481.0748 185.5138 -18291.3369 -16477.1166 179.1988 475.7230 554.7290 48030.6758 3.5578 3.6612
ENERGY: 165000 1.4981 3.2283 2.4794 0.0000 -21659.0029 3481.0581 0.0000 0.0000 1768.8166 -16401.9224 181.2665 -18170.7390 -16399.8328 180.6695 68.9287 148.3997 47749.1746 2.6937 2.9349
ENERGY: 175000 2.1917 4.4911 3.3531 0.0000 -21871.6259 3562.7346 0.0000 0.0000 1739.2831 -16559.5723 178.2399 -18298.8554 -16556.2160 180.2571 269.6459 355.1634 47646.0257 4.1381 3.7362
TCL: Running 50000 steps at 210 kelvin.
TCL: Setting parameter langevinTemp to 210
TCL: Running for 50000 steps
ETITLE: TS BOND ANGLE DIHED IMPRP ELECT VDW BOUNDARY MISC KINETIC TOTAL TEMP POTENTIAL TOTAL3 TEMPAVG PRESSURE GPRESSURE VOLUME PRESSAVG GPRESSAVG
ENERGY: 175000 2.1917 4.4911 3.3531 0.0000 -21871.6259 3562.7346 0.0000 0.0000 1738.3927 -16560.4627 178.1487 -18298.8554 -16557.0913 178.1487 287.7792 354.4760 47646.0257 287.7792 354.4760
ENERGY: 185000 1.7983 8.8517 2.7333 0.0000 -20762.5676 3216.2701 0.0000 0.0000 2050.7603 -15482.1539 210.1598 -17532.9142 -15476.4086 209.7050 220.0948 280.0103 47887.5804 -2.7054 -2.7600
ENERGY: 195000 1.6739 4.7307 3.5617 0.0000 -20442.7703 3027.8171 0.0000 0.0000 2006.2723 -15398.7146 205.6007 -17404.9869 -15394.6420 210.8975 -722.6426 -664.4148 48583.5838 0.2294 0.2090
ENERGY: 205000 2.2206 2.8843 3.3277 0.0000 -20674.4532 3191.4307 0.0000 0.0000 2024.8955 -15449.6944 207.5092 -17474.5899 -15446.8539 207.6412 458.8229 546.4029 47189.2655 2.1415 1.5182
ENERGY: 215000 1.2084 4.5716 4.5427 0.0000 -20682.6480 3184.9228 0.0000 0.0000 2061.1548 -15426.2477 211.2250 -17487.4025 -15420.9560 208.7462 98.7474 167.0148 47754.6087 -0.3066 -0.4806
ENERGY: 225000 1.1819 3.2767 5.0171 0.0000 -20647.3854 3182.2804 0.0000 0.0000 2019.6096 -15436.0197 206.9675 -17455.6293 -15431.7558 210.6077 147.5697 202.4518 47980.0528 0.3003 0.1510
TCL: Running 50000 steps at 240 kelvin.
TCL: Setting parameter langevinTemp to 240
TCL: Running for 50000 steps
ETITLE: TS BOND ANGLE DIHED IMPRP ELECT VDW BOUNDARY MISC KINETIC TOTAL TEMP POTENTIAL TOTAL3 TEMPAVG PRESSURE GPRESSURE VOLUME PRESSAVG GPRESSAVG
ENERGY: 225000 1.1819 3.2767 5.0171 0.0000 -20647.3854 3182.2804 0.0000 0.0000 2018.5747 -15437.0546 206.8614 -17455.6293 -15433.9715 206.8614 124.0812 201.8156 47980.0528 124.0812 201.8156
ENERGY: 235000 0.5694 5.6217 4.6634 0.0000 -19648.9664 2834.1458 0.0000 0.0000 2356.3952 -14447.5710 241.4809 -16803.9662 -14443.3767 241.0529 -7.4519 69.1769 47891.4757 2.3284 2.4423
ENERGY: 245000 1.9756 6.9137 4.0663 0.0000 -19580.9429 2829.0780 0.0000 0.0000 2319.1406 -14419.7687 237.6631 -16738.9093 -14415.8452 240.0340 -296.6652 -213.5996 48615.9969 3.1968 3.1150
ENERGY: 255000 0.9058 4.9404 3.3141 0.0000 -19573.3474 2832.0487 0.0000 0.0000 2343.1562 -14388.9821 240.1242 -16732.1383 -14383.9581 240.3070 -177.1369 -112.8082 48395.5055 -0.7793 -0.8429
ENERGY: 265000 2.8667 4.3163 2.9983 0.0000 -19657.0392 2862.0224 0.0000 0.0000 2330.8997 -14453.9359 238.8682 -16784.8355 -14449.0986 238.6686 -120.7671 -49.1493 48289.2147 -0.7169 0.0508
ENERGY: 275000 1.5401 6.9518 3.2881 0.0000 -19743.1851 2869.1039 0.0000 0.0000 2396.7018 -14465.5994 245.6115 -16862.3012 -14461.3506 239.8466 -169.7095 -37.8553 48229.4376 -3.7100 -4.2936
TCL: Running 50000 steps at 270 kelvin.
TCL: Setting parameter langevinTemp to 270
TCL: Running for 50000 steps
ETITLE: TS BOND ANGLE DIHED IMPRP ELECT VDW BOUNDARY MISC KINETIC TOTAL TEMP POTENTIAL TOTAL3 TEMPAVG PRESSURE GPRESSURE VOLUME PRESSAVG GPRESSAVG
ENERGY: 275000 1.5401 6.9518 3.2881 0.0000 -19743.1851 2869.1039 0.0000 0.0000 2395.5175 -14466.7837 245.4901 -16862.3012 -14463.6085 245.4901 -124.3936 -36.1254 48229.4376 -124.3936 -36.1254
ENERGY: 285000 1.5987 6.8887 1.9754 0.0000 -18637.5753 2544.7117 0.0000 0.0000 2689.0826 -13393.3182 275.5744 -16082.4008 -13387.0767 268.9721 -406.6128 -325.8944 49300.8595 -0.7195 -0.1932
ENERGY: 295000 2.9596 4.5431 2.7561 0.0000 -18691.7328 2613.4029 0.0000 0.0000 2626.5418 -13441.5293 269.1653 -16068.0711 -13435.9299 268.7363 -41.7827 48.0293 49104.4904 3.7563 3.7537
ENERGY: 305000 0.5444 4.9829 3.7149 0.0000 -18753.1156 2641.2531 0.0000 0.0000 2681.4662 -13421.1540 274.7938 -16102.6203 -13416.0300 272.1938 12.6159 40.0338 49459.9407 5.4844 5.5642
ENERGY: 315000 0.9717 5.1763 3.7207 0.0000 -18724.2430 2573.8244 0.0000 0.0000 2646.3071 -13494.2429 271.1908 -16140.5499 -13486.9649 268.6473 -401.0974 -289.3291 49353.2268 4.1072 3.9103
ENERGY: 325000 0.3028 4.3806 3.2627 0.0000 -18818.3908 2664.6232 0.0000 0.0000 2624.7979 -13521.0236 268.9865 -16145.8215 -13515.1137 269.2277 61.5034 117.4451 49515.9823 5.6447 5.6186
TCL: Running 1000000 steps at 300 kelvin.
TCL: Setting parameter langevinTemp to 300
TCL: Running for 1000000 steps
ETITLE: TS BOND ANGLE DIHED IMPRP ELECT VDW BOUNDARY MISC KINETIC TOTAL TEMP POTENTIAL TOTAL3 TEMPAVG PRESSURE GPRESSURE VOLUME PRESSAVG GPRESSAVG
ENERGY: 325000 0.3028 4.3806 3.2627 0.0000 -18818.3908 2664.6232 0.0000 0.0000 2623.4583 -13522.3632 268.8493 -16145.8215 -13519.1923 268.8493 33.4325 117.0906 49515.9823 33.4325 117.0906
ENERGY: 525000 1.4608 10.3748 2.9514 0.0000 -17703.0428 2364.4800 0.0000 0.0000 2859.9367 -12463.8392 293.0833 -15323.7759 -12458.4840 300.9480 -169.8772 -18.3974 50708.9584 0.8668 0.6151
ENERGY: 725000 2.9071 6.7785 3.9206 0.0000 -17820.4159 2337.4334 0.0000 0.0000 2830.5586 -12638.8177 290.0727 -15469.3763 -12633.1532 300.1055 -440.1724 -363.3482 50781.1065 4.0017 3.6863
ENERGY: 925000 1.2906 6.5273 4.1270 0.0000 -17591.7246 2233.4659 0.0000 0.0000 2899.9193 -12446.3945 297.1807 -15346.3138 -12437.4406 300.8756 -865.7033 -791.4620 51183.7402 1.0516 1.1562
ENERGY: 1125000 2.4530 7.9362 3.5527 0.0000 -17952.4559 2476.1927 0.0000 0.0000 2941.3358 -12520.9855 301.4250 -15462.3213 -12519.4056 299.7253 199.0316 267.2078 50437.6217 3.3741 3.6006
ENERGY: 1325000 2.2232 6.5931 3.3835 0.0000 -17764.8750 2391.9772 0.0000 0.0000 2928.3634 -12432.3346 300.0956 -15360.6980 -12424.8227 302.4979 88.7205 161.9575 50357.4220 1.8030 1.1618
TCL: Exiting due to exit command.
