Info: SIMULATION PARAMETERS:
Info: TIMESTEP               2
Info: NUMBER OF STEPS        0
Info: STEPS PER CYCLE        10
Info: PERIODIC CELL BASIS 1  41.123 0 0
Info: PERIODIC CELL BASIS 2  0 37.835 0
Info: PERIODIC CELL BASIS 3  0 0 44.966
Info: PERIODIC CELL CENTER   0 0 0
Info: WRAPPING WATERS AROUND PERIODIC BOUNDARIES ON OUTPUT.
Info: WRAPPING ALL CLUSTERS AROUND PERIODIC BOUNDARIES ON OUTPUT.
Info: FIRST LDB TIMESTEP     50
Info: LAST LDB TIMESTEP     -1
Info: HOM BACKGROUND SCALING 1
Info: PME BACKGROUND SCALING 1
Info: MIN ATOMS PER PATCH    40
Info: EMPTY PATCH LOAD       40 ATOMS
Info: INITIAL TEMPERATURE    300
Info: CENTER OF MASS MOVING INITIALLY? NO
Info: DIELECTRIC             1
Info: EXCLUDE                SCALED ONE-FOUR
Info: 1-4 ELECTROSTATICS SCALED BY 0.833333
Info: MODIFIED 1-4 VDW PARAMETERS WILL BE USED
Info: DCD FILENAME           mobley_4609460_min.dcd
Info: DCD FREQUENCY          5000
Info: DCD FIRST STEP         5000
Info: DCD FILE WILL CONTAIN UNIT CELL DATA
Info: XST FILENAME           mobley_4609460_min.xst
Info: XST FREQUENCY          5000
Info: NO VELOCITY DCD OUTPUT
Info: NO FORCE DCD OUTPUT
Info: OUTPUT FILENAME        mobley_4609460_min
Info: BINARY OUTPUT FILES WILL BE USED
Info: RESTART FILENAME       mobley_4609460_min.restart
Info: RESTART FREQUENCY      5000
Info: BINARY RESTART FILES WILL BE USED
Info: CUTOFF                 9
Info: PAIRLIST DISTANCE      11
Info: PAIRLIST SHRINK RATE   0.01
Info: PAIRLIST GROW RATE     0.01
Info: PAIRLIST TRIGGER       0.3
Info: PAIRLISTS PER CYCLE    2
Info: PAIRLISTS ENABLED
Info: MARGIN                 8
Info: HYDROGEN GROUP CUTOFF  2.5
Info: PATCH DIMENSION        21.5
Info: ENERGY OUTPUT STEPS    5000
Info: ENERGY EVALUATION STEPS    5000
Info: OUTPUT ENERGY PRECISION 4
Info: CROSSTERM ENERGY INCLUDED IN DIHEDRAL
Info: TIMING OUTPUT STEPS    50000
Info: PRESSURE OUTPUT STEPS  5000
Info: LANGEVIN DYNAMICS ACTIVE
Info: LANGEVIN TEMPERATURE   300
Info: LANGEVIN USING BBK INTEGRATOR
Info: LANGEVIN DAMPING COEFFICIENT IS 1 INVERSE PS
Info: LANGEVIN DYNAMICS APPLIED TO HYDROGENS
Info: LANGEVIN PISTON PRESSURE CONTROL ACTIVE
Info:        TARGET PRESSURE IS 1.01325 BAR
Info:     OSCILLATION PERIOD IS 50 FS
Info:             DECAY TIME IS 25 FS
Info:     PISTON TEMPERATURE IS 300 K
Info:       PRESSURE CONTROL IS GROUP-BASED
Info:    INITIAL STRAIN RATE IS 0 0 0
Info:       CELL FLUCTUATION IS ISOTROPIC
Info: PARTICLE MESH EWALD (PME) ACTIVE
Info: PME TOLERANCE               1e-06
Info: PME EWALD COEFFICIENT       0.348832
Info: PME INTERPOLATION ORDER     4
Info: PME GRID DIMENSIONS         44 40 48
Info: PME MAXIMUM GRID SPACING    1
Info: FULL ELECTROSTATIC EVALUATION FREQUENCY      2
Info: USING VERLET I (r-RESPA) MTS SCHEME.
Info: C1 SPLITTING OF LONG RANGE ELECTROSTATICS
Info: PLACING ATOMS IN PATCHES BY HYDROGEN GROUPS
Info: RIGID BONDS TO HYDROGEN : ALL
Info:         ERROR TOLERANCE : 1e-08
Info:          MAX ITERATIONS : 100
Info: RIGID WATER USING SETTLE ALGORITHM
Info: RANDOM NUMBER SEED     1741334151
Info: USE HYDROGEN BONDS?    NO
Info: Using AMBER format force field!
Info: AMBER PARM FILE        mobley_4609460.prmtop
Info: COORDINATE PDB         mobley_4609460.pdb
Info: Exclusions will be read from PARM file!
Info: SCNB (VDW SCALING)     2
Info: USING ARITHMETIC MEAN TO COMBINE L-J SIGMA PARAMETERS
Info: SUMMARY OF PARAMETERS:
Info: 13 BONDS
Info: 15 ANGLES
Info:   15 HARMONIC
Info:   0 COSINE-BASED
Info: 17 DIHEDRAL
Info: 0 IMPROPER
Info: 0 CROSSTERM
Info: 0 VDW
Info: 66 VDW_PAIRS
Info: 0 NBTHOLE_PAIRS
Info: STRUCTURE SUMMARY:
Info: 5080 ATOMS
Info: 5080 BONDS
Info: 35 ANGLES
Info: 56 DIHEDRALS
Info: 0 IMPROPERS
Info: 0 CROSSTERMS
Info: 5156 EXCLUSIONS
Info: 5068 RIGID BONDS
Info: 10172 DEGREES OF FREEDOM
Info: 1698 HYDROGEN GROUPS
Info: 4 ATOMS IN LARGEST HYDROGEN GROUP
Info: 1698 MIGRATION GROUPS
Info: 4 ATOMS IN LARGEST MIGRATION GROUP
Info: TOTAL MASS = 30541.1 amu
Info: TOTAL CHARGE = 5.96046e-08 e
Info: MASS DENSITY = 0.724906 g/cm^3
Info: ATOM DENSITY = 0.0726108 atoms/A^3
Info: ADDED 0 IMPLICIT EXCLUSIONS
Info: NONBONDED TABLE R-SQUARED SPACING: 0.0625
Info: NONBONDED TABLE SIZE: 705 POINTS
Info: REMOVING COM VELOCITY 0.0972259 0.125185 -0.0793005
TCL: Minimizing for 2000 steps
ETITLE: TS BOND ANGLE DIHED IMPRP ELECT VDW BOUNDARY MISC KINETIC TOTAL TEMP POTENTIAL TOTAL3 TEMPAVG PRESSURE GPRESSURE VOLUME PRESSAVG GPRESSAVG
ENERGY: 0 0.4955 0.7320 7.1373 0.0000 -15658.0086 1767.2986 0.0000 0.0000 0.0000 -13882.3452 0.0000 -13882.3452 -13882.3452 0.0000 11085.6351 -15472.5363 69962.0915 11085.6351 -15472.5363
ENERGY: 400 10.3745 3.5669 6.4119 0.0000 -21089.2492 2981.6416 0.0000 0.0000 0.0000 -18087.2543 0.0000 -18087.2543 -18087.2543 0.0000 15307.2796 10036.8320 69962.0915 15307.2796 10036.8320
ENERGY: 800 1.0984 0.9368 6.4901 0.0000 -22352.7815 3619.3287 0.0000 0.0000 0.0000 -18724.9274 0.0000 -18724.9274 -18724.9274 0.0000 18156.8624 12374.4576 69962.0915 18156.8624 12374.4576
ENERGY: 1200 0.8111 0.7116 5.8406 0.0000 -22755.1058 3770.0168 0.0000 0.0000 0.0000 -18977.7257 0.0000 -18977.7257 -18977.7257 0.0000 18831.0803 12927.7719 69962.0915 18831.0803 12927.7719
ENERGY: 1600 1.0583 0.8575 5.6543 0.0000 -23056.8907 3894.7402 0.0000 0.0000 0.0000 -19154.5805 0.0000 -19154.5805 -19154.5805 0.0000 19458.4688 13401.1321 69962.0915 19458.4688 13401.1321
ENERGY: 2000 0.4887 0.4420 5.7060 0.0000 -23191.1861 3944.4477 0.0000 0.0000 0.0000 -19240.1018 0.0000 -19240.1018 -19240.1018 0.0000 19707.7449 13662.2538 69962.0915 19707.7449 13662.2538
TCL: Exiting due to exit command.
Info: NAMD 3.0.1 for Linux-x86_64-multicore
Info: Please visit http://www.ks.uiuc.edu/Research/namd/
Info: for updates, documentation, and support information.
Info: Please cite Phillips et al., J. Chem. Phys. 153:044130 (2020) doi:10.1063/5.0014475
Info: in all publications reporting results obtained with NAMD.
Info: Based on Charm++/Converse 80000 for multicore-linux-x86_64-gcc
Info: Built Mon Oct 14 11:11:06 CDT 2024 by dhardy on athine.ks.uiuc.edu
Info: 1 NAMD  3.0.1  Linux-x86_64-multicore  16    k068  z5358697
Info: Running on 16 processors, 1 nodes, 1 physical nodes.
Info: CPU topology information available.
Info: Charm++/Converse parallel runtime startup completed at 0.00559752 s
Info: 1043.48 MB of memory in use based on /proc/self/stat
Info: Configuration file is mobley_4609460_equil.namd
Info: Working in the current directory /srv/scratch/z5358697/prod_prep_5/4609460
TCL: Running 25000 steps at 30 kelvin.
TCL: Suspending until startup complete.
Info: SIMULATION PARAMETERS:
Info: TIMESTEP               2
Info: NUMBER OF STEPS        0
Info: STEPS PER CYCLE        10
Info: PERIODIC CELL BASIS 1  41.123 0 0
Info: PERIODIC CELL BASIS 2  0 37.835 0
Info: PERIODIC CELL BASIS 3  0 0 44.966
Info: PERIODIC CELL CENTER   0 0 0
Info: WRAPPING WATERS AROUND PERIODIC BOUNDARIES ON OUTPUT.
Info: WRAPPING ALL CLUSTERS AROUND PERIODIC BOUNDARIES ON OUTPUT.
Info: FIRST LDB TIMESTEP     50
Info: LAST LDB TIMESTEP     -1
Info: HOM BACKGROUND SCALING 1
Info: PME BACKGROUND SCALING 1
Info: MIN ATOMS PER PATCH    40
Info: EMPTY PATCH LOAD       40 ATOMS
Info: INITIAL TEMPERATURE    300
Info: CENTER OF MASS MOVING INITIALLY? NO
Info: DIELECTRIC             1
Info: EXCLUDE                SCALED ONE-FOUR
Info: 1-4 ELECTROSTATICS SCALED BY 0.833333
Info: MODIFIED 1-4 VDW PARAMETERS WILL BE USED
Info: DCD FILENAME           mobley_4609460_equil.dcd
Info: DCD FREQUENCY          5000
Info: DCD FIRST STEP         5000
Info: DCD FILE WILL CONTAIN UNIT CELL DATA
Info: XST FILENAME           mobley_4609460_equil.xst
Info: XST FREQUENCY          5000
Info: NO VELOCITY DCD OUTPUT
Info: NO FORCE DCD OUTPUT
Info: OUTPUT FILENAME        mobley_4609460_equil
Info: BINARY OUTPUT FILES WILL BE USED
Info: RESTART FILENAME       mobley_4609460_equil.restart
Info: RESTART FREQUENCY      5000
Info: BINARY RESTART FILES WILL BE USED
Info: CUTOFF                 9
Info: PAIRLIST DISTANCE      11
Info: PAIRLIST SHRINK RATE   0.01
Info: PAIRLIST GROW RATE     0.01
Info: PAIRLIST TRIGGER       0.3
Info: PAIRLISTS PER CYCLE    2
Info: PAIRLISTS ENABLED
Info: MARGIN                 8
Info: HYDROGEN GROUP CUTOFF  2.5
Info: PATCH DIMENSION        21.5
Info: ENERGY OUTPUT STEPS    5000
Info: ENERGY EVALUATION STEPS    5000
Info: OUTPUT ENERGY PRECISION 4
Info: CROSSTERM ENERGY INCLUDED IN DIHEDRAL
Info: TIMING OUTPUT STEPS    50000
Info: PRESSURE OUTPUT STEPS  5000
Info: LANGEVIN DYNAMICS ACTIVE
Info: LANGEVIN TEMPERATURE   30
Info: LANGEVIN USING BBK INTEGRATOR
Info: LANGEVIN DAMPING COEFFICIENT IS 1 INVERSE PS
Info: LANGEVIN DYNAMICS APPLIED TO HYDROGENS
Info: LANGEVIN PISTON PRESSURE CONTROL ACTIVE
Info:        TARGET PRESSURE IS 1.01325 BAR
Info:     OSCILLATION PERIOD IS 50 FS
Info:             DECAY TIME IS 25 FS
Info:     PISTON TEMPERATURE IS 300 K
Info:       PRESSURE CONTROL IS GROUP-BASED
Info:    INITIAL STRAIN RATE IS 0 0 0
Info:       CELL FLUCTUATION IS ISOTROPIC
Info: PARTICLE MESH EWALD (PME) ACTIVE
Info: PME TOLERANCE               1e-06
Info: PME EWALD COEFFICIENT       0.348832
Info: PME INTERPOLATION ORDER     4
Info: PME GRID DIMENSIONS         44 40 48
Info: PME MAXIMUM GRID SPACING    1
Info: FULL ELECTROSTATIC EVALUATION FREQUENCY      2
Info: USING VERLET I (r-RESPA) MTS SCHEME.
Info: C1 SPLITTING OF LONG RANGE ELECTROSTATICS
Info: PLACING ATOMS IN PATCHES BY HYDROGEN GROUPS
Info: RIGID BONDS TO HYDROGEN : ALL
Info:         ERROR TOLERANCE : 1e-08
Info:          MAX ITERATIONS : 100
Info: RIGID WATER USING SETTLE ALGORITHM
Info: RANDOM NUMBER SEED     1741334172
Info: USE HYDROGEN BONDS?    NO
Info: Using AMBER format force field!
Info: AMBER PARM FILE        mobley_4609460.prmtop
Info: COORDINATE PDB         mobley_4609460.pdb
Info: Exclusions will be read from PARM file!
Info: SCNB (VDW SCALING)     2
Info: USING ARITHMETIC MEAN TO COMBINE L-J SIGMA PARAMETERS
Info: BINARY COORDINATES     mobley_4609460_min.coor
Info: SUMMARY OF PARAMETERS:
Info: 13 BONDS
Info: 15 ANGLES
Info:   15 HARMONIC
Info:   0 COSINE-BASED
Info: 17 DIHEDRAL
Info: 0 IMPROPER
Info: 0 CROSSTERM
Info: 0 VDW
Info: 66 VDW_PAIRS
Info: 0 NBTHOLE_PAIRS
Info: STRUCTURE SUMMARY:
Info: 5080 ATOMS
Info: 5080 BONDS
Info: 35 ANGLES
Info: 56 DIHEDRALS
Info: 0 IMPROPERS
Info: 0 CROSSTERMS
Info: 5156 EXCLUSIONS
Info: 5068 RIGID BONDS
Info: 10172 DEGREES OF FREEDOM
Info: 1698 HYDROGEN GROUPS
Info: 4 ATOMS IN LARGEST HYDROGEN GROUP
Info: 1698 MIGRATION GROUPS
Info: 4 ATOMS IN LARGEST MIGRATION GROUP
Info: TOTAL MASS = 30541.1 amu
Info: TOTAL CHARGE = 5.96046e-08 e
Info: MASS DENSITY = 0.724906 g/cm^3
Info: ATOM DENSITY = 0.0726108 atoms/A^3
Info: ADDED 0 IMPLICIT EXCLUSIONS
Info: NONBONDED TABLE R-SQUARED SPACING: 0.0625
Info: NONBONDED TABLE SIZE: 705 POINTS
Info: REMOVING COM VELOCITY -0.0739123 -0.0490342 0.0533184
TCL: Running for 25000 steps
ETITLE: TS BOND ANGLE DIHED IMPRP ELECT VDW BOUNDARY MISC KINETIC TOTAL TEMP POTENTIAL TOTAL3 TEMPAVG PRESSURE GPRESSURE VOLUME PRESSAVG GPRESSAVG
ENERGY: 0 0.4887 0.4420 5.7060 0.0000 -23191.1861 3944.4477 0.0000 0.0000 3066.0776 -16174.0242 303.3662 -19240.1018 -16173.3829 303.3662 -56.0119 -7.3914 69962.0915 -56.0119 -7.3914
ENERGY: 5000 0.2454 0.7752 6.7054 0.0000 -24472.2512 4330.1154 0.0000 0.0000 308.4899 -19825.9199 30.5228 -20134.4098 -19825.1656 47.9429 686.1334 724.4016 49052.2170 -1.0842 -1.2551
ENERGY: 10000 1.1915 0.8937 6.3753 0.0000 -24398.3053 4217.5036 0.0000 0.0000 305.5729 -19866.7684 30.2342 -20172.3413 -19866.2622 30.2319 -51.8061 -5.8416 49166.6808 3.6037 3.2448
ENERGY: 15000 1.1314 1.0632 6.6059 0.0000 -24289.1428 4087.6627 0.0000 0.0000 304.1084 -19888.5711 30.0893 -20192.6796 -19887.7395 30.1427 -763.7854 -708.3706 49269.9995 0.5843 0.4585
ENERGY: 20000 0.7741 0.8560 6.3672 0.0000 -24437.4270 4217.6771 0.0000 0.0000 304.3350 -19907.4175 30.1117 -20211.7525 -19906.8469 30.0971 -70.3334 -33.3495 48983.9451 7.3587 7.4383
ENERGY: 25000 0.7529 0.7889 6.1093 0.0000 -24468.9528 4234.7576 0.0000 0.0000 293.0308 -19933.5133 28.9933 -20226.5442 -19932.8730 29.9164 -7.3306 49.0013 48958.7469 0.7456 0.8479
TCL: Running 25000 steps at 60 kelvin.
TCL: Setting parameter langevinTemp to 60
TCL: Running for 25000 steps
ETITLE: TS BOND ANGLE DIHED IMPRP ELECT VDW BOUNDARY MISC KINETIC TOTAL TEMP POTENTIAL TOTAL3 TEMPAVG PRESSURE GPRESSURE VOLUME PRESSAVG GPRESSAVG
ENERGY: 25000 0.7529 0.7889 6.1093 0.0000 -24468.9528 4234.7576 0.0000 0.0000 292.8744 -19933.6698 28.9778 -20226.5442 -19932.9214 28.9778 -0.9440 48.9819 48958.7469 -0.9440 48.9819
ENERGY: 30000 0.9712 1.4586 6.8808 0.0000 -24252.6312 4251.3002 0.0000 0.0000 600.1514 -19391.8689 59.3806 -19992.0203 -19390.2544 56.7416 716.2680 761.3741 48792.5866 2.5004 2.2054
ENERGY: 35000 1.1203 1.1946 7.4781 0.0000 -24234.9680 4182.3394 0.0000 0.0000 611.8115 -19431.0241 60.5343 -20042.8356 -19429.9636 60.0439 277.8161 329.5726 48706.9115 3.2994 3.4915
ENERGY: 40000 1.5851 1.7066 6.2688 0.0000 -24056.3887 3973.3408 0.0000 0.0000 611.5903 -19461.8972 60.5124 -20073.4875 -19460.6623 59.9681 -953.3949 -899.7253 49019.8166 7.0115 6.8122
ENERGY: 45000 0.8739 1.8060 6.6564 0.0000 -24300.5874 4181.5726 0.0000 0.0000 621.0696 -19488.6090 61.4503 -20109.6786 -19486.5346 60.3880 67.9902 123.3662 48744.8756 1.3058 1.6063
ENERGY: 50000 1.9954 2.8176 6.1883 0.0000 -24208.3447 4086.5251 0.0000 0.0000 595.5766 -19515.2418 58.9280 -20110.8184 -19513.4135 60.0950 -424.4378 -383.2550 49024.7128 5.1107 5.0276
TCL: Running 25000 steps at 90 kelvin.
TCL: Setting parameter langevinTemp to 90
TCL: Running for 25000 steps
ETITLE: TS BOND ANGLE DIHED IMPRP ELECT VDW BOUNDARY MISC KINETIC TOTAL TEMP POTENTIAL TOTAL3 TEMPAVG PRESSURE GPRESSURE VOLUME PRESSAVG GPRESSAVG
ENERGY: 50000 1.9954 2.8176 6.1883 0.0000 -24208.3447 4086.5251 0.0000 0.0000 595.2800 -19515.5384 58.8986 -20110.8184 -19514.3445 58.8986 -433.4785 -382.8531 49024.7128 -433.4785 -382.8531
ENERGY: 55000 1.4356 1.6197 7.2372 0.0000 -23607.2819 3816.9293 0.0000 0.0000 919.2865 -18860.7736 90.9567 -19780.0601 -18858.9842 86.8008 -1078.1674 -1047.4709 49534.9754 3.5142 3.3547
ENERGY: 60000 1.0664 2.4507 7.1601 0.0000 -23975.0941 4089.8157 0.0000 0.0000 890.7937 -18983.8075 88.1376 -19874.6012 -18981.1214 90.2793 155.0287 211.7540 48947.7615 0.7280 0.4989
ENERGY: 65000 1.4465 2.2043 8.3032 0.0000 -23877.8810 3984.5308 0.0000 0.0000 907.4903 -18973.9059 89.7896 -19881.3962 -18971.2480 90.4312 -360.7994 -278.5201 49037.1840 6.2827 5.8289
ENERGY: 70000 1.8298 1.4834 7.2012 0.0000 -24299.5632 4372.5184 0.0000 0.0000 896.4308 -19020.0996 88.6953 -19916.5305 -19018.1667 90.3081 1619.1883 1680.2647 48314.9795 4.3615 4.0461
ENERGY: 75000 1.8797 2.5179 6.0227 0.0000 -24106.9879 4184.4562 0.0000 0.0000 900.8578 -19011.2536 89.1334 -19912.1114 -19008.5080 89.5524 606.7783 654.3150 48751.4125 0.6752 0.8654
TCL: Running 25000 steps at 120 kelvin.
TCL: Setting parameter langevinTemp to 120
TCL: Running for 25000 steps
ETITLE: TS BOND ANGLE DIHED IMPRP ELECT VDW BOUNDARY MISC KINETIC TOTAL TEMP POTENTIAL TOTAL3 TEMPAVG PRESSURE GPRESSURE VOLUME PRESSAVG GPRESSAVG
ENERGY: 75000 1.8797 2.5179 6.0227 0.0000 -24106.9879 4184.4562 0.0000 0.0000 900.4003 -19011.7111 89.0881 -19912.1114 -19009.9235 89.0881 603.1733 654.1491 48751.4125 603.1733 654.1491
ENERGY: 80000 0.7305 3.1970 6.8861 0.0000 -23399.1400 3830.5896 0.0000 0.0000 1185.5324 -18372.2043 117.2998 -19557.7367 -18370.1770 116.5743 -428.6347 -348.8462 49404.0227 6.6502 7.0879
ENERGY: 85000 0.8998 3.4980 7.0780 0.0000 -23675.8627 4043.9620 0.0000 0.0000 1225.9182 -18394.5067 121.2957 -19620.4249 -18393.0132 120.0065 551.8437 619.6976 48989.2234 7.8046 7.9028
ENERGY: 90000 2.3156 2.1971 8.3347 0.0000 -23559.7137 3936.3785 0.0000 0.0000 1223.4367 -18387.0511 121.0502 -19610.4879 -18383.6541 120.3236 -154.3830 -89.6066 49454.4873 1.9526 1.9834
ENERGY: 95000 1.7620 2.5884 8.5246 0.0000 -23656.8090 4020.7648 0.0000 0.0000 1253.6658 -18369.5033 124.0412 -19623.1691 -18366.9704 119.9384 314.9234 374.6634 49338.6713 5.0288 4.9254
ENERGY: 100000 2.0047 3.5856 7.5521 0.0000 -23475.8041 3818.8873 0.0000 0.0000 1192.9316 -18450.8428 118.0320 -19643.7744 -18447.8208 119.9410 -836.5763 -804.8302 49583.7067 3.2003 3.2101
TCL: Running 25000 steps at 150 kelvin.
TCL: Setting parameter langevinTemp to 150
TCL: Running for 25000 steps
ETITLE: TS BOND ANGLE DIHED IMPRP ELECT VDW BOUNDARY MISC KINETIC TOTAL TEMP POTENTIAL TOTAL3 TEMPAVG PRESSURE GPRESSURE VOLUME PRESSAVG GPRESSAVG
ENERGY: 100000 2.0047 3.5856 7.5521 0.0000 -23475.8041 3818.8873 0.0000 0.0000 1192.3093 -18451.4652 117.9704 -19643.7744 -18448.8113 117.9704 -865.5618 -805.4739 49583.7067 -865.5618 -805.4739
ENERGY: 105000 2.9698 4.4107 8.2300 0.0000 -22925.3918 3617.3492 0.0000 0.0000 1542.2970 -17750.1350 152.5991 -19292.4321 -17745.1323 146.3341 -1208.9604 -1139.6409 50214.4618 5.9496 6.1589
ENERGY: 110000 0.9831 4.2778 8.1440 0.0000 -23170.1573 3914.9259 0.0000 0.0000 1539.4180 -17702.4086 152.3143 -19241.8266 -17697.7527 149.5384 723.1517 743.7528 49314.2616 3.9429 4.1551
ENERGY: 115000 0.9214 4.0730 8.4382 0.0000 -23230.7343 3928.1027 0.0000 0.0000 1514.1918 -17775.0071 149.8183 -19289.1989 -17770.9370 151.2116 530.0836 593.4888 49602.8249 0.7136 1.3884
ENERGY: 120000 0.9541 2.3583 8.4247 0.0000 -23193.7057 3892.2842 0.0000 0.0000 1533.6531 -17756.0313 151.7439 -19289.6844 -17752.3758 148.9867 456.5781 477.7884 49487.4293 5.1114 5.4310
ENERGY: 125000 3.2707 2.9363 7.9333 0.0000 -23125.6023 3803.9169 0.0000 0.0000 1553.4897 -17754.0556 153.7066 -19307.5452 -17750.9452 150.2469 -96.2664 -49.9142 49689.5556 5.7641 5.7105
TCL: Running 50000 steps at 180 kelvin.
TCL: Setting parameter langevinTemp to 180
TCL: Running for 50000 steps
ETITLE: TS BOND ANGLE DIHED IMPRP ELECT VDW BOUNDARY MISC KINETIC TOTAL TEMP POTENTIAL TOTAL3 TEMPAVG PRESSURE GPRESSURE VOLUME PRESSAVG GPRESSAVG
ENERGY: 125000 3.2707 2.9363 7.9333 0.0000 -23125.6023 3803.9169 0.0000 0.0000 1552.7482 -17754.7970 153.6332 -19307.5452 -17751.7502 153.6332 -97.4305 -49.9431 49689.5556 -97.4305 -49.9431
ENERGY: 135000 0.7623 3.8739 8.7380 0.0000 -22520.0642 3575.0784 0.0000 0.0000 1857.6103 -17074.0013 183.7971 -18931.6116 -17069.0455 179.1932 -383.5170 -340.6474 49918.5471 2.9225 2.5854
ENERGY: 145000 0.8281 5.3128 8.7688 0.0000 -22638.2602 3706.6513 0.0000 0.0000 1830.5271 -17086.1721 181.1174 -18916.6991 -17083.9947 180.1164 308.7273 341.8595 49662.1914 2.8472 2.4612
ENERGY: 155000 1.7051 3.6834 7.4387 0.0000 -22807.1356 3821.3322 0.0000 0.0000 1808.4209 -17164.5552 178.9302 -18972.9762 -17161.3412 179.7194 721.6109 779.6080 49566.3383 0.5884 0.3554
ENERGY: 165000 2.5558 4.2005 7.2710 0.0000 -22412.7596 3494.3532 0.0000 0.0000 1846.9008 -17057.4782 182.7375 -18904.3790 -17051.3236 180.5878 -785.3260 -738.5491 50222.7737 1.7984 1.8717
ENERGY: 175000 3.9732 3.3521 9.1530 0.0000 -22524.7915 3643.1130 0.0000 0.0000 1821.8610 -17043.3392 180.2600 -18865.2003 -17039.5005 181.0122 104.7351 235.8763 49360.1907 0.7040 1.1859
TCL: Running 50000 steps at 210 kelvin.
TCL: Setting parameter langevinTemp to 210
TCL: Running for 50000 steps
ETITLE: TS BOND ANGLE DIHED IMPRP ELECT VDW BOUNDARY MISC KINETIC TOTAL TEMP POTENTIAL TOTAL3 TEMPAVG PRESSURE GPRESSURE VOLUME PRESSAVG GPRESSAVG
ENERGY: 175000 3.9732 3.3521 9.1530 0.0000 -22524.7915 3643.1130 0.0000 0.0000 1820.9527 -17044.2476 180.1701 -18865.2003 -17041.3976 180.1701 157.5034 235.1863 49360.1907 157.5034 235.1863
ENERGY: 185000 2.3959 5.2211 7.6071 0.0000 -21516.5446 3323.9144 0.0000 0.0000 2094.8721 -16082.5340 207.2724 -18177.4061 -16080.4589 209.2992 97.3129 177.1058 49662.0916 3.6855 3.9158
ENERGY: 195000 2.3211 7.1203 9.5923 0.0000 -21366.8501 3255.3722 0.0000 0.0000 2121.5822 -15970.8620 209.9152 -18092.4442 -15967.0395 210.6260 -79.2103 5.7253 49733.1279 10.0390 9.9028
ENERGY: 205000 2.1280 6.7114 11.1674 0.0000 -21481.3754 3319.5713 0.0000 0.0000 2162.8339 -15978.9634 213.9968 -18141.7973 -15976.4628 210.9925 255.0759 324.4284 49339.3968 4.7909 4.5916
ENERGY: 215000 3.8771 6.1466 7.9148 0.0000 -21349.2666 3199.2771 0.0000 0.0000 2094.1486 -16037.9025 207.2008 -18132.0511 -16033.0297 209.1830 -507.5338 -427.3137 50059.9712 3.5171 3.1585
ENERGY: 225000 2.0655 3.9438 8.3345 0.0000 -21190.5189 3043.3044 0.0000 0.0000 2096.7000 -16036.1708 207.4533 -18132.8708 -16029.6971 211.0989 -1168.7646 -1066.7904 50099.8086 3.4440 3.6357
TCL: Running 50000 steps at 240 kelvin.
TCL: Setting parameter langevinTemp to 240
TCL: Running for 50000 steps
ETITLE: TS BOND ANGLE DIHED IMPRP ELECT VDW BOUNDARY MISC KINETIC TOTAL TEMP POTENTIAL TOTAL3 TEMPAVG PRESSURE GPRESSURE VOLUME PRESSAVG GPRESSAVG
ENERGY: 225000 2.0655 3.9438 8.3345 0.0000 -21190.5189 3043.3044 0.0000 0.0000 2095.6040 -16037.2668 207.3449 -18132.8708 -16033.1615 207.3449 -1150.9535 -1066.5936 50099.8086 -1150.9535 -1066.5936
ENERGY: 235000 3.9928 5.8576 11.7633 0.0000 -20193.9985 2900.3410 0.0000 0.0000 2393.0196 -14879.0241 236.7720 -17272.0437 -14873.4654 240.6624 113.6225 206.6509 49413.3360 -0.2690 -0.4735
ENERGY: 245000 3.4900 5.8314 8.7426 0.0000 -20540.4386 3135.6841 0.0000 0.0000 2419.0887 -14967.6018 239.3513 -17386.6905 -14962.6485 239.7042 798.1329 906.5068 49762.2978 6.5934 6.6655
ENERGY: 255000 4.2050 5.1600 10.0832 0.0000 -20267.8360 2869.1127 0.0000 0.0000 2416.0664 -14963.2087 239.0523 -17379.2752 -14956.9532 240.9277 -481.8784 -412.8965 50031.7735 2.2532 2.0427
ENERGY: 265000 2.2040 4.1923 10.7535 0.0000 -20323.2015 2933.8520 0.0000 0.0000 2393.5510 -14978.6487 236.8245 -17372.1997 -14972.4765 240.5711 -324.1437 -264.2778 50401.7929 -2.3222 -2.1322
ENERGY: 275000 2.2905 7.2171 8.4772 0.0000 -20441.0314 3038.9036 0.0000 0.0000 2414.7606 -14969.3824 238.9231 -17384.1430 -14964.4003 239.8198 398.7585 469.6402 49938.4501 2.5413 2.3099
TCL: Running 50000 steps at 270 kelvin.
TCL: Setting parameter langevinTemp to 270
TCL: Running for 50000 steps
ETITLE: TS BOND ANGLE DIHED IMPRP ELECT VDW BOUNDARY MISC KINETIC TOTAL TEMP POTENTIAL TOTAL3 TEMPAVG PRESSURE GPRESSURE VOLUME PRESSAVG GPRESSAVG
ENERGY: 275000 2.2905 7.2171 8.4772 0.0000 -20441.0314 3038.9036 0.0000 0.0000 2413.5528 -14970.5902 238.8036 -17384.1430 -14966.1781 238.8036 387.9303 468.4715 49938.4501 387.9303 468.4715
ENERGY: 285000 4.7425 6.8243 9.5406 0.0000 -19355.4736 2692.7377 0.0000 0.0000 2756.9360 -13884.6924 272.7789 -16641.6284 -13877.9090 271.2590 25.7314 124.1727 50859.6142 4.7081 4.4050
ENERGY: 295000 4.2382 7.5070 8.6204 0.0000 -19449.0615 2717.1098 0.0000 0.0000 2743.7611 -13967.8249 271.4753 -16711.5861 -13962.9109 268.7195 -104.7047 -79.8204 51064.3749 6.0125 5.4799
ENERGY: 305000 1.5421 7.3631 9.6749 0.0000 -19277.1004 2675.5126 0.0000 0.0000 2778.8489 -13804.1589 274.9470 -16583.0077 -13798.3143 271.5030 326.7361 391.6304 50482.0939 1.5863 1.2653
ENERGY: 315000 1.8791 7.3214 8.3577 0.0000 -19440.3193 2739.9153 0.0000 0.0000 2676.6050 -14006.2410 264.8307 -16682.8460 -13999.5778 268.3715 241.7890 292.4746 50386.9935 3.7263 3.6393
ENERGY: 325000 4.1234 6.9457 8.7636 0.0000 -19151.6158 2540.2342 0.0000 0.0000 2711.6352 -13879.9137 268.2967 -16591.5490 -13872.9330 271.3749 -794.2305 -683.0545 51436.7165 4.5889 4.4911
TCL: Running 1000000 steps at 300 kelvin.
TCL: Setting parameter langevinTemp to 300
TCL: Running for 1000000 steps
ETITLE: TS BOND ANGLE DIHED IMPRP ELECT VDW BOUNDARY MISC KINETIC TOTAL TEMP POTENTIAL TOTAL3 TEMPAVG PRESSURE GPRESSURE VOLUME PRESSAVG GPRESSAVG
ENERGY: 325000 4.1234 6.9457 8.7636 0.0000 -19151.6158 2540.2342 0.0000 0.0000 2710.2519 -13881.2970 268.1598 -16591.5490 -13876.5628 268.1598 -767.5535 -682.8146 51436.7165 -767.5535 -682.8146
ENERGY: 525000 2.3664 10.6090 10.4622 0.0000 -18282.5153 2408.7599 0.0000 0.0000 2981.8073 -12868.5104 295.0283 -15850.3177 -12864.4502 301.3468 -270.0593 -207.9302 52903.3529 0.9089 1.3544
ENERGY: 725000 6.9945 6.0483 8.2463 0.0000 -18443.5440 2538.6147 0.0000 0.0000 3091.8577 -12791.7825 305.9169 -15883.6402 -12788.6757 300.5072 163.3965 237.5650 52881.4710 3.0425 2.7078
ENERGY: 925000 2.7215 9.3370 9.4099 0.0000 -18555.7482 2494.0621 0.0000 0.0000 2913.4255 -13126.7922 288.2624 -16040.2177 -13122.4011 299.3129 -5.0903 55.7311 51952.5576 4.1479 3.9943
ENERGY: 1125000 4.5878 6.1349 13.2459 0.0000 -18420.0730 2457.2072 0.0000 0.0000 3008.1448 -12930.7524 297.6342 -15938.8972 -12927.0864 301.5488 -246.5468 -159.7363 52809.4385 2.5168 2.7177
ENERGY: 1325000 1.5487 6.3474 9.8473 0.0000 -18397.7677 2456.4666 0.0000 0.0000 2994.7534 -12928.8042 296.3092 -15923.5576 -12919.3553 298.6394 -337.2707 -309.3705 53239.4390 4.2181 4.8105
TCL: Exiting due to exit command.
