Info: SIMULATION PARAMETERS:
Info: TIMESTEP               2
Info: NUMBER OF STEPS        0
Info: STEPS PER CYCLE        10
Info: PERIODIC CELL BASIS 1  41.545 0 0
Info: PERIODIC CELL BASIS 2  0 40.343 0
Info: PERIODIC CELL BASIS 3  0 0 40.136
Info: PERIODIC CELL CENTER   0 0 0
Info: WRAPPING WATERS AROUND PERIODIC BOUNDARIES ON OUTPUT.
Info: WRAPPING ALL CLUSTERS AROUND PERIODIC BOUNDARIES ON OUTPUT.
Info: FIRST LDB TIMESTEP     50
Info: LAST LDB TIMESTEP     -1
Info: HOM BACKGROUND SCALING 1
Info: PME BACKGROUND SCALING 1
Info: MIN ATOMS PER PATCH    40
Info: EMPTY PATCH LOAD       40 ATOMS
Info: INITIAL TEMPERATURE    300
Info: CENTER OF MASS MOVING INITIALLY? NO
Info: DIELECTRIC             1
Info: EXCLUDE                SCALED ONE-FOUR
Info: 1-4 ELECTROSTATICS SCALED BY 0.833333
Info: MODIFIED 1-4 VDW PARAMETERS WILL BE USED
Info: DCD FILENAME           mobley_8668219_min.dcd
Info: DCD FREQUENCY          5000
Info: DCD FIRST STEP         5000
Info: DCD FILE WILL CONTAIN UNIT CELL DATA
Info: XST FILENAME           mobley_8668219_min.xst
Info: XST FREQUENCY          5000
Info: NO VELOCITY DCD OUTPUT
Info: NO FORCE DCD OUTPUT
Info: OUTPUT FILENAME        mobley_8668219_min
Info: BINARY OUTPUT FILES WILL BE USED
Info: RESTART FILENAME       mobley_8668219_min.restart
Info: RESTART FREQUENCY      5000
Info: BINARY RESTART FILES WILL BE USED
Info: CUTOFF                 9
Info: PAIRLIST DISTANCE      11
Info: PAIRLIST SHRINK RATE   0.01
Info: PAIRLIST GROW RATE     0.01
Info: PAIRLIST TRIGGER       0.3
Info: PAIRLISTS PER CYCLE    2
Info: PAIRLISTS ENABLED
Info: MARGIN                 8
Info: HYDROGEN GROUP CUTOFF  2.5
Info: PATCH DIMENSION        21.5
Info: ENERGY OUTPUT STEPS    5000
Info: ENERGY EVALUATION STEPS    5000
Info: OUTPUT ENERGY PRECISION 4
Info: CROSSTERM ENERGY INCLUDED IN DIHEDRAL
Info: TIMING OUTPUT STEPS    50000
Info: PRESSURE OUTPUT STEPS  5000
Info: LANGEVIN DYNAMICS ACTIVE
Info: LANGEVIN TEMPERATURE   300
Info: LANGEVIN USING BBK INTEGRATOR
Info: LANGEVIN DAMPING COEFFICIENT IS 1 INVERSE PS
Info: LANGEVIN DYNAMICS APPLIED TO HYDROGENS
Info: LANGEVIN PISTON PRESSURE CONTROL ACTIVE
Info:        TARGET PRESSURE IS 1.01325 BAR
Info:     OSCILLATION PERIOD IS 50 FS
Info:             DECAY TIME IS 25 FS
Info:     PISTON TEMPERATURE IS 300 K
Info:       PRESSURE CONTROL IS GROUP-BASED
Info:    INITIAL STRAIN RATE IS 0 0 0
Info:       CELL FLUCTUATION IS ISOTROPIC
Info: PARTICLE MESH EWALD (PME) ACTIVE
Info: PME TOLERANCE               1e-06
Info: PME EWALD COEFFICIENT       0.348832
Info: PME INTERPOLATION ORDER     4
Info: PME GRID DIMENSIONS         44 44 44
Info: PME MAXIMUM GRID SPACING    1
Info: FULL ELECTROSTATIC EVALUATION FREQUENCY      2
Info: USING VERLET I (r-RESPA) MTS SCHEME.
Info: C1 SPLITTING OF LONG RANGE ELECTROSTATICS
Info: PLACING ATOMS IN PATCHES BY HYDROGEN GROUPS
Info: RIGID BONDS TO HYDROGEN : ALL
Info:         ERROR TOLERANCE : 1e-08
Info:          MAX ITERATIONS : 100
Info: RIGID WATER USING SETTLE ALGORITHM
Info: RANDOM NUMBER SEED     1741397080
Info: USE HYDROGEN BONDS?    NO
Info: Using AMBER format force field!
Info: AMBER PARM FILE        mobley_8668219.prmtop
Info: COORDINATE PDB         mobley_8668219.pdb
Info: Exclusions will be read from PARM file!
Info: SCNB (VDW SCALING)     2
Info: USING ARITHMETIC MEAN TO COMBINE L-J SIGMA PARAMETERS
Info: SUMMARY OF PARAMETERS:
Info: 4 BONDS
Info: 3 ANGLES
Info:   3 HARMONIC
Info:   0 COSINE-BASED
Info: 3 DIHEDRAL
Info: 0 IMPROPER
Info: 0 CROSSTERM
Info: 0 VDW
Info: 10 VDW_PAIRS
Info: 0 NBTHOLE_PAIRS
Info: STRUCTURE SUMMARY:
Info: 4910 ATOMS
Info: 4909 BONDS
Info: 42 ANGLES
Info: 54 DIHEDRALS
Info: 0 IMPROPERS
Info: 0 CROSSTERMS
Info: 5005 EXCLUSIONS
Info: 4903 RIGID BONDS
Info: 9827 DEGREES OF FREEDOM
Info: 1636 HYDROGEN GROUPS
Info: 4 ATOMS IN LARGEST HYDROGEN GROUP
Info: 1636 MIGRATION GROUPS
Info: 4 ATOMS IN LARGEST MIGRATION GROUP
Info: TOTAL MASS = 29448.3 amu
Info: TOTAL CHARGE = 0.000299972 e
Info: MASS DENSITY = 0.726939 g/cm^3
Info: ATOM DENSITY = 0.0729895 atoms/A^3
Info: ADDED 0 IMPLICIT EXCLUSIONS
Info: NONBONDED TABLE R-SQUARED SPACING: 0.0625
Info: NONBONDED TABLE SIZE: 705 POINTS
Info: REMOVING COM VELOCITY -0.241118 -0.052145 0.108461
TCL: Minimizing for 2000 steps
ETITLE: TS BOND ANGLE DIHED IMPRP ELECT VDW BOUNDARY MISC KINETIC TOTAL TEMP POTENTIAL TOTAL3 TEMPAVG PRESSURE GPRESSURE VOLUME PRESSAVG GPRESSAVG
ENERGY: 0 0.1690 1.7358 0.2483 0.0000 -15433.5714 1761.9189 0.0000 0.0000 0.0000 -13669.4994 0.0000 -13669.4994 -13669.4994 0.0000 11288.5215 -16153.7892 67269.9402 11288.5215 -16153.7892
ENERGY: 400 3.5662 3.2461 0.4465 0.0000 -20621.0341 3007.3108 0.0000 0.0000 0.0000 -17606.4645 0.0000 -17606.4645 -17606.4645 0.0000 15972.5131 16102.4243 67269.9402 15972.5131 16102.4243
ENERGY: 800 1.3804 2.2651 0.4313 0.0000 -21758.9771 3556.6219 0.0000 0.0000 0.0000 -18198.2784 0.0000 -18198.2784 -18198.2784 0.0000 18537.0952 18660.6175 67269.9402 18537.0952 18660.6175
ENERGY: 1200 1.1259 1.9200 0.4526 0.0000 -22212.9638 3783.1037 0.0000 0.0000 0.0000 -18426.3615 0.0000 -18426.3615 -18426.3615 0.0000 19603.9653 19716.6631 67269.9402 19603.9653 19716.6631
ENERGY: 1600 0.6065 2.0907 0.4374 0.0000 -22435.3257 3888.8159 0.0000 0.0000 0.0000 -18543.3752 0.0000 -18543.3752 -18543.3752 0.0000 20163.0238 20262.4114 67269.9402 20163.0238 20262.4114
ENERGY: 2000 0.6559 2.1477 0.4827 0.0000 -22541.8548 3921.9988 0.0000 0.0000 0.0000 -18616.5696 0.0000 -18616.5696 -18616.5696 0.0000 20378.2652 20477.0194 67269.9402 20378.2652 20477.0194
TCL: Exiting due to exit command.
Info: NAMD 3.0.1 for Linux-x86_64-multicore
Info: Please visit http://www.ks.uiuc.edu/Research/namd/
Info: for updates, documentation, and support information.
Info: Please cite Phillips et al., J. Chem. Phys. 153:044130 (2020) doi:10.1063/5.0014475
Info: in all publications reporting results obtained with NAMD.
Info: Based on Charm++/Converse 80000 for multicore-linux-x86_64-gcc
Info: Built Mon Oct 14 11:11:06 CDT 2024 by dhardy on athine.ks.uiuc.edu
Info: 1 NAMD  3.0.1  Linux-x86_64-multicore  16    k018  z5358697
Info: Running on 16 processors, 1 nodes, 1 physical nodes.
Info: CPU topology information available.
Info: Charm++/Converse parallel runtime startup completed at 0.00560941 s
Info: 1043.45 MB of memory in use based on /proc/self/stat
Info: Configuration file is mobley_8668219_equil.namd
Info: Working in the current directory /srv/scratch/z5358697/prod_prep_11/8668219
TCL: Running 25000 steps at 30 kelvin.
TCL: Suspending until startup complete.
Info: SIMULATION PARAMETERS:
Info: TIMESTEP               2
Info: NUMBER OF STEPS        0
Info: STEPS PER CYCLE        10
Info: PERIODIC CELL BASIS 1  41.545 0 0
Info: PERIODIC CELL BASIS 2  0 40.343 0
Info: PERIODIC CELL BASIS 3  0 0 40.136
Info: PERIODIC CELL CENTER   0 0 0
Info: WRAPPING WATERS AROUND PERIODIC BOUNDARIES ON OUTPUT.
Info: WRAPPING ALL CLUSTERS AROUND PERIODIC BOUNDARIES ON OUTPUT.
Info: FIRST LDB TIMESTEP     50
Info: LAST LDB TIMESTEP     -1
Info: HOM BACKGROUND SCALING 1
Info: PME BACKGROUND SCALING 1
Info: MIN ATOMS PER PATCH    40
Info: EMPTY PATCH LOAD       40 ATOMS
Info: INITIAL TEMPERATURE    300
Info: CENTER OF MASS MOVING INITIALLY? NO
Info: DIELECTRIC             1
Info: EXCLUDE                SCALED ONE-FOUR
Info: 1-4 ELECTROSTATICS SCALED BY 0.833333
Info: MODIFIED 1-4 VDW PARAMETERS WILL BE USED
Info: DCD FILENAME           mobley_8668219_equil.dcd
Info: DCD FREQUENCY          5000
Info: DCD FIRST STEP         5000
Info: DCD FILE WILL CONTAIN UNIT CELL DATA
Info: XST FILENAME           mobley_8668219_equil.xst
Info: XST FREQUENCY          5000
Info: NO VELOCITY DCD OUTPUT
Info: NO FORCE DCD OUTPUT
Info: OUTPUT FILENAME        mobley_8668219_equil
Info: BINARY OUTPUT FILES WILL BE USED
Info: RESTART FILENAME       mobley_8668219_equil.restart
Info: RESTART FREQUENCY      5000
Info: BINARY RESTART FILES WILL BE USED
Info: CUTOFF                 9
Info: PAIRLIST DISTANCE      11
Info: PAIRLIST SHRINK RATE   0.01
Info: PAIRLIST GROW RATE     0.01
Info: PAIRLIST TRIGGER       0.3
Info: PAIRLISTS PER CYCLE    2
Info: PAIRLISTS ENABLED
Info: MARGIN                 8
Info: HYDROGEN GROUP CUTOFF  2.5
Info: PATCH DIMENSION        21.5
Info: ENERGY OUTPUT STEPS    5000
Info: ENERGY EVALUATION STEPS    5000
Info: OUTPUT ENERGY PRECISION 4
Info: CROSSTERM ENERGY INCLUDED IN DIHEDRAL
Info: TIMING OUTPUT STEPS    50000
Info: PRESSURE OUTPUT STEPS  5000
Info: LANGEVIN DYNAMICS ACTIVE
Info: LANGEVIN TEMPERATURE   30
Info: LANGEVIN USING BBK INTEGRATOR
Info: LANGEVIN DAMPING COEFFICIENT IS 1 INVERSE PS
Info: LANGEVIN DYNAMICS APPLIED TO HYDROGENS
Info: LANGEVIN PISTON PRESSURE CONTROL ACTIVE
Info:        TARGET PRESSURE IS 1.01325 BAR
Info:     OSCILLATION PERIOD IS 50 FS
Info:             DECAY TIME IS 25 FS
Info:     PISTON TEMPERATURE IS 300 K
Info:       PRESSURE CONTROL IS GROUP-BASED
Info:    INITIAL STRAIN RATE IS 0 0 0
Info:       CELL FLUCTUATION IS ISOTROPIC
Info: PARTICLE MESH EWALD (PME) ACTIVE
Info: PME TOLERANCE               1e-06
Info: PME EWALD COEFFICIENT       0.348832
Info: PME INTERPOLATION ORDER     4
Info: PME GRID DIMENSIONS         44 44 44
Info: PME MAXIMUM GRID SPACING    1
Info: FULL ELECTROSTATIC EVALUATION FREQUENCY      2
Info: USING VERLET I (r-RESPA) MTS SCHEME.
Info: C1 SPLITTING OF LONG RANGE ELECTROSTATICS
Info: PLACING ATOMS IN PATCHES BY HYDROGEN GROUPS
Info: RIGID BONDS TO HYDROGEN : ALL
Info:         ERROR TOLERANCE : 1e-08
Info:          MAX ITERATIONS : 100
Info: RIGID WATER USING SETTLE ALGORITHM
Info: RANDOM NUMBER SEED     1741397095
Info: USE HYDROGEN BONDS?    NO
Info: Using AMBER format force field!
Info: AMBER PARM FILE        mobley_8668219.prmtop
Info: COORDINATE PDB         mobley_8668219.pdb
Info: Exclusions will be read from PARM file!
Info: SCNB (VDW SCALING)     2
Info: USING ARITHMETIC MEAN TO COMBINE L-J SIGMA PARAMETERS
Info: BINARY COORDINATES     mobley_8668219_min.coor
Info: SUMMARY OF PARAMETERS:
Info: 4 BONDS
Info: 3 ANGLES
Info:   3 HARMONIC
Info:   0 COSINE-BASED
Info: 3 DIHEDRAL
Info: 0 IMPROPER
Info: 0 CROSSTERM
Info: 0 VDW
Info: 10 VDW_PAIRS
Info: 0 NBTHOLE_PAIRS
Info: STRUCTURE SUMMARY:
Info: 4910 ATOMS
Info: 4909 BONDS
Info: 42 ANGLES
Info: 54 DIHEDRALS
Info: 0 IMPROPERS
Info: 0 CROSSTERMS
Info: 5005 EXCLUSIONS
Info: 4903 RIGID BONDS
Info: 9827 DEGREES OF FREEDOM
Info: 1636 HYDROGEN GROUPS
Info: 4 ATOMS IN LARGEST HYDROGEN GROUP
Info: 1636 MIGRATION GROUPS
Info: 4 ATOMS IN LARGEST MIGRATION GROUP
Info: TOTAL MASS = 29448.3 amu
Info: TOTAL CHARGE = 0.000299972 e
Info: MASS DENSITY = 0.726939 g/cm^3
Info: ATOM DENSITY = 0.0729895 atoms/A^3
Info: ADDED 0 IMPLICIT EXCLUSIONS
Info: NONBONDED TABLE R-SQUARED SPACING: 0.0625
Info: NONBONDED TABLE SIZE: 705 POINTS
Info: REMOVING COM VELOCITY -0.038067 -0.0337804 -0.113232
TCL: Running for 25000 steps
ETITLE: TS BOND ANGLE DIHED IMPRP ELECT VDW BOUNDARY MISC KINETIC TOTAL TEMP POTENTIAL TOTAL3 TEMPAVG PRESSURE GPRESSURE VOLUME PRESSAVG GPRESSAVG
ENERGY: 0 0.6559 2.1477 0.4827 0.0000 -22541.8548 3921.9988 0.0000 0.0000 3010.8217 -15605.7480 308.3575 -18616.5696 -15605.1697 308.3575 367.3254 412.7812 67269.9402 367.3254 412.7812
ENERGY: 5000 0.5264 2.9137 0.4060 0.0000 -23528.9151 4036.6061 0.0000 0.0000 298.9232 -19189.5397 30.6146 -19488.4629 -19188.6689 48.0344 -323.8113 -259.5622 47496.4948 2.5815 2.6744
ENERGY: 10000 0.7218 2.3976 0.5172 0.0000 -23505.0912 3974.4983 0.0000 0.0000 296.6916 -19230.2649 30.3861 -19526.9565 -19229.6471 30.0667 -694.9627 -636.4390 47499.8752 7.5177 7.2871
ENERGY: 15000 0.5550 3.0614 0.4087 0.0000 -23553.1255 4016.3999 0.0000 0.0000 289.9151 -19242.7854 29.6921 -19532.7005 -19241.9281 29.9285 -528.7998 -457.9594 47589.6991 -1.2185 -1.1615
ENERGY: 20000 0.5436 3.1170 0.3612 0.0000 -23661.2897 4111.8397 0.0000 0.0000 293.9397 -19251.4884 30.1042 -19545.4282 -19250.7832 30.2959 -24.1029 34.0275 47372.4230 0.6782 0.5858
ENERGY: 25000 0.4556 2.8530 0.5997 0.0000 -23648.3272 4092.1637 0.0000 0.0000 295.0708 -19257.1844 30.2201 -19552.2552 -19256.6071 30.1379 -210.0287 -141.6884 47540.1235 5.3432 5.1211
TCL: Running 25000 steps at 60 kelvin.
TCL: Setting parameter langevinTemp to 60
TCL: Running for 25000 steps
ETITLE: TS BOND ANGLE DIHED IMPRP ELECT VDW BOUNDARY MISC KINETIC TOTAL TEMP POTENTIAL TOTAL3 TEMPAVG PRESSURE GPRESSURE VOLUME PRESSAVG GPRESSAVG
ENERGY: 25000 0.4556 2.8530 0.5997 0.0000 -23648.3272 4092.1637 0.0000 0.0000 294.9248 -19257.3305 30.2051 -19552.2552 -19256.6034 30.2051 -213.4183 -141.9603 47540.1235 -213.4183 -141.9603
ENERGY: 30000 0.4886 3.7737 0.6939 0.0000 -23370.6309 4068.4125 0.0000 0.0000 593.8898 -18703.3723 60.8240 -19297.2621 -18702.0642 57.3719 388.8257 442.5476 47361.2792 3.2664 3.3702
ENERGY: 35000 1.1112 2.6483 0.3189 0.0000 -23430.1682 4085.5094 0.0000 0.0000 586.7756 -18753.8047 60.0954 -19340.5803 -18753.2189 60.3695 421.9697 459.2470 47375.3133 2.7262 2.3597
ENERGY: 40000 0.4264 3.9263 0.4277 0.0000 -23244.1021 3878.2303 0.0000 0.0000 577.2528 -18783.8387 59.1201 -19361.0914 -18782.3654 60.5946 -702.0805 -644.3815 47472.7911 1.5684 1.0519
ENERGY: 45000 1.7837 3.1334 0.7702 0.0000 -23616.9085 4216.9163 0.0000 0.0000 580.9815 -18813.3233 59.5020 -19394.3048 -18811.9309 59.9932 1011.1409 1094.5636 46930.4078 3.3033 3.3232
ENERGY: 50000 0.4095 4.9048 1.2158 0.0000 -23422.6843 4027.5888 0.0000 0.0000 587.9469 -18800.6186 60.2154 -19388.5655 -18799.0645 60.0806 78.8378 128.1933 47127.9747 0.4938 0.5909
TCL: Running 25000 steps at 90 kelvin.
TCL: Setting parameter langevinTemp to 90
TCL: Running for 25000 steps
ETITLE: TS BOND ANGLE DIHED IMPRP ELECT VDW BOUNDARY MISC KINETIC TOTAL TEMP POTENTIAL TOTAL3 TEMPAVG PRESSURE GPRESSURE VOLUME PRESSAVG GPRESSAVG
ENERGY: 50000 0.4095 4.9048 1.2158 0.0000 -23422.6843 4027.5888 0.0000 0.0000 587.6577 -18800.9078 60.1858 -19388.5655 -18799.7708 60.1858 61.9405 128.1358 47127.9747 61.9405 128.1358
ENERGY: 55000 0.5760 4.8379 0.4663 0.0000 -22956.1316 3849.3133 0.0000 0.0000 882.9306 -18218.0076 90.4266 -19100.9381 -18215.1509 86.5280 -201.6227 -124.1612 47555.0051 4.5513 4.4663
ENERGY: 60000 1.2075 4.2833 1.1275 0.0000 -23078.0296 3934.7313 0.0000 0.0000 901.5164 -18235.1636 92.3300 -19136.6800 -18233.8784 90.4157 149.4584 208.3009 47508.5596 4.3746 4.5464
ENERGY: 65000 0.8370 4.6563 0.5817 0.0000 -23084.8522 3929.0728 0.0000 0.0000 877.4669 -18272.2375 89.8670 -19149.7044 -18270.1779 90.8668 43.1608 135.6940 47559.9672 -4.5320 -3.7686
ENERGY: 70000 1.4131 4.3244 0.7256 0.0000 -23166.4629 3993.2331 0.0000 0.0000 875.5362 -18291.2304 89.6693 -19166.7666 -18289.0856 90.5584 245.8511 291.1941 47602.6235 3.0928 2.7237
ENERGY: 75000 0.3414 4.4605 1.4018 0.0000 -23073.8154 3851.0677 0.0000 0.0000 882.7945 -18333.7494 90.4126 -19216.5439 -18331.1205 90.7427 -480.3247 -459.1934 47892.3634 -2.9475 -2.9880
TCL: Running 25000 steps at 120 kelvin.
TCL: Setting parameter langevinTemp to 120
TCL: Running for 25000 steps
ETITLE: TS BOND ANGLE DIHED IMPRP ELECT VDW BOUNDARY MISC KINETIC TOTAL TEMP POTENTIAL TOTAL3 TEMPAVG PRESSURE GPRESSURE VOLUME PRESSAVG GPRESSAVG
ENERGY: 75000 0.3414 4.4605 1.4018 0.0000 -23073.8154 3851.0677 0.0000 0.0000 882.3719 -18334.1720 90.3693 -19216.5439 -18332.2010 90.3693 -510.3464 -459.5735 47892.3634 -510.3464 -459.5735
ENERGY: 80000 1.9037 5.9212 0.6667 0.0000 -22914.6057 4033.7921 0.0000 0.0000 1164.7456 -17707.5763 119.2890 -18872.3219 -17704.8712 116.9069 1149.6034 1210.0452 47591.6790 3.8775 4.0529
ENERGY: 85000 2.6087 6.5916 1.1897 0.0000 -22557.0878 3659.7742 0.0000 0.0000 1189.0254 -17697.8982 121.7757 -18886.9236 -17694.8394 120.2440 -823.5387 -794.3237 48275.8377 -0.4899 -0.5901
ENERGY: 90000 0.2066 5.1120 0.6914 0.0000 -22891.5182 3982.4272 0.0000 0.0000 1137.9154 -17765.1654 116.5412 -18903.0808 -17762.9242 119.7263 798.3005 858.4311 47709.0901 1.3020 1.3700
ENERGY: 95000 0.5334 5.2506 0.8310 0.0000 -22944.1221 4009.4931 0.0000 0.0000 1168.4273 -17759.5867 119.6661 -18928.0140 -17756.7015 120.6491 979.8224 1034.8267 47497.0066 1.4591 1.5757
ENERGY: 100000 1.2149 7.5351 0.4808 0.0000 -22753.8635 3811.7171 0.0000 0.0000 1167.0388 -17765.8767 119.5239 -18932.9155 -17763.2431 120.3232 -139.2412 -38.7834 47841.2553 2.6378 2.6829
TCL: Running 25000 steps at 150 kelvin.
TCL: Setting parameter langevinTemp to 150
TCL: Running for 25000 steps
ETITLE: TS BOND ANGLE DIHED IMPRP ELECT VDW BOUNDARY MISC KINETIC TOTAL TEMP POTENTIAL TOTAL3 TEMPAVG PRESSURE GPRESSURE VOLUME PRESSAVG GPRESSAVG
ENERGY: 100000 1.2149 7.5351 0.4808 0.0000 -22753.8635 3811.7171 0.0000 0.0000 1166.4687 -17766.4468 119.4655 -18932.9155 -17764.4811 119.4655 -97.0730 -38.8706 47841.2553 -97.0730 -38.8706
ENERGY: 105000 2.4587 9.2819 0.9188 0.0000 -22373.3622 3791.9704 0.0000 0.0000 1463.0622 -17105.6702 149.8415 -18568.7324 -17100.6528 146.9145 519.6785 574.8704 48098.8256 -1.9903 -1.5779
ENERGY: 110000 1.6448 5.6607 1.2816 0.0000 -22449.2218 3863.1334 0.0000 0.0000 1436.5907 -17140.9107 147.1304 -18577.5013 -17137.7953 150.0851 885.0170 959.8688 47980.2987 7.4320 7.3635
ENERGY: 115000 1.4711 7.6331 0.5718 0.0000 -22272.0653 3648.9260 0.0000 0.0000 1462.7255 -17150.7377 149.8071 -18613.4632 -17147.3594 149.9024 -208.5751 -171.9409 48008.9883 7.2236 7.5425
ENERGY: 120000 1.2706 8.4832 0.8127 0.0000 -22492.5761 3812.2296 0.0000 0.0000 1483.1983 -17186.5817 151.9038 -18669.7800 -17182.4744 149.3200 433.3902 485.5556 47909.6937 2.2920 2.8995
ENERGY: 125000 1.2475 7.0861 1.4838 0.0000 -22353.9337 3681.3611 0.0000 0.0000 1459.8380 -17202.9171 149.5113 -18662.7552 -17198.3043 149.8567 -165.9183 -108.8381 47927.6596 4.0964 4.1736
TCL: Running 50000 steps at 180 kelvin.
TCL: Setting parameter langevinTemp to 180
TCL: Running for 50000 steps
ETITLE: TS BOND ANGLE DIHED IMPRP ELECT VDW BOUNDARY MISC KINETIC TOTAL TEMP POTENTIAL TOTAL3 TEMPAVG PRESSURE GPRESSURE VOLUME PRESSAVG GPRESSAVG
ENERGY: 125000 1.2475 7.0861 1.4838 0.0000 -22353.9337 3681.3611 0.0000 0.0000 1459.1259 -17203.6293 149.4384 -18662.7552 -17201.4092 149.4384 -171.2982 -108.6204 47927.6596 -171.2982 -108.6204
ENERGY: 135000 3.3221 8.8575 1.0579 0.0000 -21803.7839 3560.9922 0.0000 0.0000 1731.7537 -16497.8004 177.3599 -18229.5541 -16494.4246 179.1609 -26.4284 69.4855 48397.8254 3.4076 3.5578
ENERGY: 145000 0.8782 7.5909 1.0452 0.0000 -21745.0121 3488.3678 0.0000 0.0000 1773.1740 -16473.9560 181.6021 -18247.1300 -16470.6986 180.2731 -297.0834 -211.9988 48436.8850 -2.0880 -1.4646
ENERGY: 155000 2.6301 12.8704 1.5794 0.0000 -21893.7790 3623.2358 0.0000 0.0000 1752.8352 -16500.6281 179.5190 -18253.4633 -16496.1671 180.8901 271.9147 304.5431 48422.7187 6.7658 6.4426
ENERGY: 165000 1.2857 8.2561 2.0353 0.0000 -21743.9754 3551.1196 0.0000 0.0000 1775.7923 -16405.4864 181.8702 -18181.2787 -16401.9673 181.4593 365.9144 367.0075 48050.5643 4.5189 4.4223
ENERGY: 175000 1.1699 6.7830 0.9951 0.0000 -21735.7072 3519.4011 0.0000 0.0000 1789.3934 -16417.9646 183.2632 -18207.3580 -16414.2569 181.1970 -12.2914 102.1443 48222.7912 7.9195 7.4239
TCL: Running 50000 steps at 210 kelvin.
TCL: Setting parameter langevinTemp to 210
TCL: Running for 50000 steps
ETITLE: TS BOND ANGLE DIHED IMPRP ELECT VDW BOUNDARY MISC KINETIC TOTAL TEMP POTENTIAL TOTAL3 TEMPAVG PRESSURE GPRESSURE VOLUME PRESSAVG GPRESSAVG
ENERGY: 175000 1.1699 6.7830 0.9951 0.0000 -21735.7072 3519.4011 0.0000 0.0000 1788.5239 -16418.8342 183.1741 -18207.3580 -16416.0031 183.1741 31.3477 102.0338 48222.7912 31.3477 102.0338
ENERGY: 185000 1.0648 9.0722 0.9444 0.0000 -20656.1455 3056.9795 0.0000 0.0000 2040.3419 -15547.7426 208.9644 -17588.0845 -15543.3813 210.2070 -809.9293 -782.1351 48375.6065 -0.3342 -0.2717
ENERGY: 195000 5.9523 8.5972 0.9580 0.0000 -20754.9348 3220.7321 0.0000 0.0000 2017.5573 -15501.1379 206.6309 -17518.6952 -15494.9166 209.9497 68.4466 136.5987 47918.6178 4.2239 4.5547
ENERGY: 205000 1.3073 8.2287 0.8499 0.0000 -20657.0614 3199.8817 0.0000 0.0000 2107.1227 -15339.6710 215.8039 -17446.7938 -15334.7078 211.0651 364.1434 440.4673 47534.7236 3.1746 2.9956
ENERGY: 215000 0.9914 10.6006 0.9301 0.0000 -20593.7554 3108.1087 0.0000 0.0000 2083.0782 -15390.0465 213.3413 -17473.1247 -15384.7925 210.5721 -116.4357 -64.3399 47618.7619 -5.4183 -5.8912
ENERGY: 225000 0.7035 10.4157 0.9899 0.0000 -20505.1572 3014.8461 0.0000 0.0000 2055.6822 -15422.5198 210.5355 -17478.2020 -15416.3296 210.8568 -615.1148 -545.0055 47829.2999 -0.4319 -0.1100
TCL: Running 50000 steps at 240 kelvin.
TCL: Setting parameter langevinTemp to 240
TCL: Running for 50000 steps
ETITLE: TS BOND ANGLE DIHED IMPRP ELECT VDW BOUNDARY MISC KINETIC TOTAL TEMP POTENTIAL TOTAL3 TEMPAVG PRESSURE GPRESSURE VOLUME PRESSAVG GPRESSAVG
ENERGY: 225000 0.7035 10.4157 0.9899 0.0000 -20505.1572 3014.8461 0.0000 0.0000 2054.6701 -15423.5319 210.4319 -17478.2020 -15419.9322 210.4319 -637.2084 -545.5563 47829.2999 -637.2084 -545.5563
ENERGY: 235000 3.3142 7.6052 1.0766 0.0000 -19631.1088 2755.4910 0.0000 0.0000 2325.1762 -14538.4456 238.1361 -16863.6218 -14530.4948 240.4910 -717.1091 -657.0410 48127.9606 -0.2874 -0.0538
ENERGY: 245000 0.6764 8.9004 0.9806 0.0000 -19611.7932 2868.6211 0.0000 0.0000 2318.0043 -14414.6104 237.4016 -16732.6147 -14409.4231 240.4212 29.3289 55.0245 48615.8198 3.8442 3.2223
ENERGY: 255000 0.9016 9.8460 1.7608 0.0000 -19548.2764 2822.6424 0.0000 0.0000 2377.9844 -14335.1412 243.5446 -16713.1256 -14328.1395 241.0875 -197.7509 -130.7973 48682.4845 3.3840 3.7746
ENERGY: 265000 2.7055 11.0974 2.4812 0.0000 -19625.5091 2815.2819 0.0000 0.0000 2297.1355 -14496.8076 235.2643 -16793.9431 -14491.8822 238.5242 -428.7093 -310.9411 48224.5689 -0.0693 0.2851
ENERGY: 275000 1.9280 10.7122 2.7785 0.0000 -19668.4168 2977.1332 0.0000 0.0000 2384.5519 -14291.3130 244.2172 -16675.8649 -14284.8399 239.8293 657.5593 707.0350 48276.3355 3.2766 3.4318
TCL: Running 50000 steps at 270 kelvin.
TCL: Setting parameter langevinTemp to 270
TCL: Running for 50000 steps
ETITLE: TS BOND ANGLE DIHED IMPRP ELECT VDW BOUNDARY MISC KINETIC TOTAL TEMP POTENTIAL TOTAL3 TEMPAVG PRESSURE GPRESSURE VOLUME PRESSAVG GPRESSAVG
ENERGY: 275000 1.9280 10.7122 2.7785 0.0000 -19668.4168 2977.1332 0.0000 0.0000 2383.4009 -14292.4640 244.0993 -16675.8649 -14288.6815 244.0993 623.3650 707.8703 48276.3355 623.3650 707.8703
ENERGY: 285000 0.4138 10.1294 1.1214 0.0000 -18816.4539 2681.2375 0.0000 0.0000 2705.8300 -13417.7218 277.1213 -16123.5518 -13411.7768 270.9188 255.9316 365.8790 49186.6467 -1.2727 -0.8315
ENERGY: 295000 1.4729 9.0202 3.0024 0.0000 -18533.7605 2545.6218 0.0000 0.0000 2652.1467 -13322.4966 271.6233 -15974.6432 -13315.3790 268.7121 73.2684 186.7866 48601.8332 2.0461 2.0097
ENERGY: 305000 2.3871 11.0245 1.1817 0.0000 -18702.9528 2545.7700 0.0000 0.0000 2619.9285 -13522.6610 268.3236 -16142.5895 -13519.4782 269.9256 -477.8833 -385.7786 49095.4363 3.2456 3.5589
ENERGY: 315000 1.8551 9.1678 1.7523 0.0000 -18435.4235 2506.8482 0.0000 0.0000 2661.5853 -13254.2148 272.5899 -15915.8001 -13249.1879 271.0033 -280.7513 -188.2601 49322.6316 1.9496 2.4829
ENERGY: 325000 1.0254 11.8028 1.8013 0.0000 -18524.6124 2589.0416 0.0000 0.0000 2685.6847 -13235.2565 275.0581 -15920.9412 -13231.9731 272.3580 141.2599 282.4556 49332.2962 1.6181 1.6270
TCL: Running 1000000 steps at 300 kelvin.
TCL: Setting parameter langevinTemp to 300
TCL: Running for 1000000 steps
ETITLE: TS BOND ANGLE DIHED IMPRP ELECT VDW BOUNDARY MISC KINETIC TOTAL TEMP POTENTIAL TOTAL3 TEMPAVG PRESSURE GPRESSURE VOLUME PRESSAVG GPRESSAVG
ENERGY: 325000 1.0254 11.8028 1.8013 0.0000 -18524.6124 2589.0416 0.0000 0.0000 2684.3670 -13236.5741 274.9232 -15920.9412 -13232.9110 274.9232 194.4388 281.5133 49332.2962 194.4388 281.5133
ENERGY: 525000 2.5423 11.0436 2.2796 0.0000 -17879.7137 2447.3367 0.0000 0.0000 3011.5017 -12405.0098 308.4271 -15416.5115 -12400.0258 301.1681 171.9015 254.4907 50291.1310 2.8486 2.1948
ENERGY: 725000 1.8980 11.0563 2.3457 0.0000 -17712.9850 2308.8553 0.0000 0.0000 2881.5136 -12507.3162 295.1142 -15388.8298 -12501.5748 299.9800 -457.3945 -375.7654 50717.6368 2.6868 1.9396
ENERGY: 925000 4.5164 13.6234 1.2435 0.0000 -17661.4172 2310.2303 0.0000 0.0000 2922.3949 -12409.4087 299.3011 -15331.8036 -12404.1786 299.9739 -436.2179 -365.8999 50581.6748 1.9527 2.7135
ENERGY: 1125000 2.0116 10.6939 3.5320 0.0000 -17886.2414 2366.6141 0.0000 0.0000 2892.9774 -12610.4125 296.2883 -15503.3899 -12603.7444 297.5781 -141.5359 -95.5368 49783.4228 3.9861 3.7420
ENERGY: 1325000 2.0760 9.7430 2.8971 0.0000 -17466.3707 2168.8158 0.0000 0.0000 2974.1017 -12308.7371 304.5967 -15282.8389 -12302.3309 302.7357 -901.9980 -824.3397 50798.7152 5.6490 5.2746
TCL: Exiting due to exit command.
