Info: SIMULATION PARAMETERS:
Info: TIMESTEP               2
Info: NUMBER OF STEPS        0
Info: STEPS PER CYCLE        10
Info: PERIODIC CELL BASIS 1  42.113 0 0
Info: PERIODIC CELL BASIS 2  0 45.969 0
Info: PERIODIC CELL BASIS 3  0 0 44.629
Info: PERIODIC CELL CENTER   0 0 0
Info: WRAPPING WATERS AROUND PERIODIC BOUNDARIES ON OUTPUT.
Info: WRAPPING ALL CLUSTERS AROUND PERIODIC BOUNDARIES ON OUTPUT.
Info: FIRST LDB TIMESTEP     50
Info: LAST LDB TIMESTEP     -1
Info: HOM BACKGROUND SCALING 1
Info: PME BACKGROUND SCALING 1
Info: MIN ATOMS PER PATCH    40
Info: EMPTY PATCH LOAD       40 ATOMS
Info: INITIAL TEMPERATURE    300
Info: CENTER OF MASS MOVING INITIALLY? NO
Info: DIELECTRIC             1
Info: EXCLUDE                SCALED ONE-FOUR
Info: 1-4 ELECTROSTATICS SCALED BY 0.833333
Info: MODIFIED 1-4 VDW PARAMETERS WILL BE USED
Info: DCD FILENAME           mobley_7754849_min.dcd
Info: DCD FREQUENCY          5000
Info: DCD FIRST STEP         5000
Info: DCD FILE WILL CONTAIN UNIT CELL DATA
Info: XST FILENAME           mobley_7754849_min.xst
Info: XST FREQUENCY          5000
Info: NO VELOCITY DCD OUTPUT
Info: NO FORCE DCD OUTPUT
Info: OUTPUT FILENAME        mobley_7754849_min
Info: BINARY OUTPUT FILES WILL BE USED
Info: RESTART FILENAME       mobley_7754849_min.restart
Info: RESTART FREQUENCY      5000
Info: BINARY RESTART FILES WILL BE USED
Info: CUTOFF                 9
Info: PAIRLIST DISTANCE      11
Info: PAIRLIST SHRINK RATE   0.01
Info: PAIRLIST GROW RATE     0.01
Info: PAIRLIST TRIGGER       0.3
Info: PAIRLISTS PER CYCLE    2
Info: PAIRLISTS ENABLED
Info: MARGIN                 8
Info: HYDROGEN GROUP CUTOFF  2.5
Info: PATCH DIMENSION        21.5
Info: ENERGY OUTPUT STEPS    5000
Info: ENERGY EVALUATION STEPS    5000
Info: OUTPUT ENERGY PRECISION 4
Info: CROSSTERM ENERGY INCLUDED IN DIHEDRAL
Info: TIMING OUTPUT STEPS    50000
Info: PRESSURE OUTPUT STEPS  5000
Info: LANGEVIN DYNAMICS ACTIVE
Info: LANGEVIN TEMPERATURE   300
Info: LANGEVIN USING BBK INTEGRATOR
Info: LANGEVIN DAMPING COEFFICIENT IS 1 INVERSE PS
Info: LANGEVIN DYNAMICS APPLIED TO HYDROGENS
Info: LANGEVIN PISTON PRESSURE CONTROL ACTIVE
Info:        TARGET PRESSURE IS 1.01325 BAR
Info:     OSCILLATION PERIOD IS 50 FS
Info:             DECAY TIME IS 25 FS
Info:     PISTON TEMPERATURE IS 300 K
Info:       PRESSURE CONTROL IS GROUP-BASED
Info:    INITIAL STRAIN RATE IS 0 0 0
Info:       CELL FLUCTUATION IS ISOTROPIC
Info: PARTICLE MESH EWALD (PME) ACTIVE
Info: PME TOLERANCE               1e-06
Info: PME EWALD COEFFICIENT       0.348832
Info: PME INTERPOLATION ORDER     4
Info: PME GRID DIMENSIONS         44 48 48
Info: PME MAXIMUM GRID SPACING    1
Info: FULL ELECTROSTATIC EVALUATION FREQUENCY      2
Info: USING VERLET I (r-RESPA) MTS SCHEME.
Info: C1 SPLITTING OF LONG RANGE ELECTROSTATICS
Info: PLACING ATOMS IN PATCHES BY HYDROGEN GROUPS
Info: RIGID BONDS TO HYDROGEN : ALL
Info:         ERROR TOLERANCE : 1e-08
Info:          MAX ITERATIONS : 100
Info: RIGID WATER USING SETTLE ALGORITHM
Info: RANDOM NUMBER SEED     1741389095
Info: USE HYDROGEN BONDS?    NO
Info: Using AMBER format force field!
Info: AMBER PARM FILE        mobley_7754849.prmtop
Info: COORDINATE PDB         mobley_7754849.pdb
Info: Exclusions will be read from PARM file!
Info: SCNB (VDW SCALING)     2
Info: USING ARITHMETIC MEAN TO COMBINE L-J SIGMA PARAMETERS
Info: SUMMARY OF PARAMETERS:
Info: 11 BONDS
Info: 15 ANGLES
Info:   15 HARMONIC
Info:   0 COSINE-BASED
Info: 11 DIHEDRAL
Info: 0 IMPROPER
Info: 0 CROSSTERM
Info: 0 VDW
Info: 45 VDW_PAIRS
Info: 0 NBTHOLE_PAIRS
Info: STRUCTURE SUMMARY:
Info: 6368 ATOMS
Info: 6367 BONDS
Info: 72 ANGLES
Info: 88 DIHEDRALS
Info: 0 IMPROPERS
Info: 0 CROSSTERMS
Info: 6511 EXCLUSIONS
Info: 6349 RIGID BONDS
Info: 12755 DEGREES OF FREEDOM
Info: 2128 HYDROGEN GROUPS
Info: 4 ATOMS IN LARGEST HYDROGEN GROUP
Info: 2128 MIGRATION GROUPS
Info: 4 ATOMS IN LARGEST MIGRATION GROUP
Info: TOTAL MASS = 38380.2 amu
Info: TOTAL CHARGE = 0.000399947 e
Info: MASS DENSITY = 0.73768 g/cm^3
Info: ATOM DENSITY = 0.0737063 atoms/A^3
Info: ADDED 0 IMPLICIT EXCLUSIONS
Info: NONBONDED TABLE R-SQUARED SPACING: 0.0625
Info: NONBONDED TABLE SIZE: 705 POINTS
Info: REMOVING COM VELOCITY 0.0368604 0.0676567 0.0669855
TCL: Minimizing for 2000 steps
ETITLE: TS BOND ANGLE DIHED IMPRP ELECT VDW BOUNDARY MISC KINETIC TOTAL TEMP POTENTIAL TOTAL3 TEMPAVG PRESSURE GPRESSURE VOLUME PRESSAVG GPRESSAVG
ENERGY: 0 1.5508 8.3727 84.6535 0.0000 -19966.8410 2192.7573 0.0000 0.0000 0.0000 -17679.5066 0.0000 -17679.5066 -17679.5066 0.0000 11226.8434 -16555.1167 86396.9462 11226.8434 -16555.1167
ENERGY: 400 3.4127 2.6127 70.7158 0.0000 -27072.7538 3962.6835 0.0000 0.0000 0.0000 -23033.3292 0.0000 -23033.3292 -23033.3292 0.0000 16439.6079 16588.1946 86396.9462 16439.6079 16588.1946
ENERGY: 800 1.8956 4.0585 60.9742 0.0000 -28436.0262 4571.1206 0.0000 0.0000 0.0000 -23797.9773 0.0000 -23797.9773 -23797.9773 0.0000 18698.5020 18813.3098 86396.9462 18698.5020 18813.3098
ENERGY: 1200 0.4374 3.9442 54.2278 0.0000 -29086.3681 4934.8376 0.0000 0.0000 0.0000 -24092.9211 0.0000 -24092.9211 -24092.9211 0.0000 20057.5093 20172.6288 86396.9462 20057.5093 20172.6288
ENERGY: 1600 0.3035 4.0323 53.5721 0.0000 -29295.2077 5018.9556 0.0000 0.0000 0.0000 -24218.3442 0.0000 -24218.3442 -24218.3442 0.0000 20344.2704 20461.2062 86396.9462 20344.2704 20461.2062
ENERGY: 2000 0.3368 3.8401 53.3121 0.0000 -29408.1183 5080.0343 0.0000 0.0000 0.0000 -24270.5950 0.0000 -24270.5950 -24270.5950 0.0000 20582.2231 20693.6900 86396.9462 20582.2231 20693.6900
TCL: Exiting due to exit command.
Info: NAMD 3.0.1 for Linux-x86_64-multicore
Info: Please visit http://www.ks.uiuc.edu/Research/namd/
Info: for updates, documentation, and support information.
Info: Please cite Phillips et al., J. Chem. Phys. 153:044130 (2020) doi:10.1063/5.0014475
Info: in all publications reporting results obtained with NAMD.
Info: Based on Charm++/Converse 80000 for multicore-linux-x86_64-gcc
Info: Built Mon Oct 14 11:11:06 CDT 2024 by dhardy on athine.ks.uiuc.edu
Info: 1 NAMD  3.0.1  Linux-x86_64-multicore  16    k011  z5358697
Info: Running on 16 processors, 1 nodes, 1 physical nodes.
Info: CPU topology information available.
Info: Charm++/Converse parallel runtime startup completed at 0.00991034 s
Info: 1043.45 MB of memory in use based on /proc/self/stat
Info: Configuration file is mobley_7754849_equil.namd
Info: Working in the current directory /srv/scratch/z5358697/prod_prep_10/7754849
TCL: Running 25000 steps at 30 kelvin.
TCL: Suspending until startup complete.
Info: SIMULATION PARAMETERS:
Info: TIMESTEP               2
Info: NUMBER OF STEPS        0
Info: STEPS PER CYCLE        10
Info: PERIODIC CELL BASIS 1  42.113 0 0
Info: PERIODIC CELL BASIS 2  0 45.969 0
Info: PERIODIC CELL BASIS 3  0 0 44.629
Info: PERIODIC CELL CENTER   0 0 0
Info: WRAPPING WATERS AROUND PERIODIC BOUNDARIES ON OUTPUT.
Info: WRAPPING ALL CLUSTERS AROUND PERIODIC BOUNDARIES ON OUTPUT.
Info: FIRST LDB TIMESTEP     50
Info: LAST LDB TIMESTEP     -1
Info: HOM BACKGROUND SCALING 1
Info: PME BACKGROUND SCALING 1
Info: MIN ATOMS PER PATCH    40
Info: EMPTY PATCH LOAD       40 ATOMS
Info: INITIAL TEMPERATURE    300
Info: CENTER OF MASS MOVING INITIALLY? NO
Info: DIELECTRIC             1
Info: EXCLUDE                SCALED ONE-FOUR
Info: 1-4 ELECTROSTATICS SCALED BY 0.833333
Info: MODIFIED 1-4 VDW PARAMETERS WILL BE USED
Info: DCD FILENAME           mobley_7754849_equil.dcd
Info: DCD FREQUENCY          5000
Info: DCD FIRST STEP         5000
Info: DCD FILE WILL CONTAIN UNIT CELL DATA
Info: XST FILENAME           mobley_7754849_equil.xst
Info: XST FREQUENCY          5000
Info: NO VELOCITY DCD OUTPUT
Info: NO FORCE DCD OUTPUT
Info: OUTPUT FILENAME        mobley_7754849_equil
Info: BINARY OUTPUT FILES WILL BE USED
Info: RESTART FILENAME       mobley_7754849_equil.restart
Info: RESTART FREQUENCY      5000
Info: BINARY RESTART FILES WILL BE USED
Info: CUTOFF                 9
Info: PAIRLIST DISTANCE      11
Info: PAIRLIST SHRINK RATE   0.01
Info: PAIRLIST GROW RATE     0.01
Info: PAIRLIST TRIGGER       0.3
Info: PAIRLISTS PER CYCLE    2
Info: PAIRLISTS ENABLED
Info: MARGIN                 8
Info: HYDROGEN GROUP CUTOFF  2.5
Info: PATCH DIMENSION        21.5
Info: ENERGY OUTPUT STEPS    5000
Info: ENERGY EVALUATION STEPS    5000
Info: OUTPUT ENERGY PRECISION 4
Info: CROSSTERM ENERGY INCLUDED IN DIHEDRAL
Info: TIMING OUTPUT STEPS    50000
Info: PRESSURE OUTPUT STEPS  5000
Info: LANGEVIN DYNAMICS ACTIVE
Info: LANGEVIN TEMPERATURE   30
Info: LANGEVIN USING BBK INTEGRATOR
Info: LANGEVIN DAMPING COEFFICIENT IS 1 INVERSE PS
Info: LANGEVIN DYNAMICS APPLIED TO HYDROGENS
Info: LANGEVIN PISTON PRESSURE CONTROL ACTIVE
Info:        TARGET PRESSURE IS 1.01325 BAR
Info:     OSCILLATION PERIOD IS 50 FS
Info:             DECAY TIME IS 25 FS
Info:     PISTON TEMPERATURE IS 300 K
Info:       PRESSURE CONTROL IS GROUP-BASED
Info:    INITIAL STRAIN RATE IS 0 0 0
Info:       CELL FLUCTUATION IS ISOTROPIC
Info: PARTICLE MESH EWALD (PME) ACTIVE
Info: PME TOLERANCE               1e-06
Info: PME EWALD COEFFICIENT       0.348832
Info: PME INTERPOLATION ORDER     4
Info: PME GRID DIMENSIONS         44 48 48
Info: PME MAXIMUM GRID SPACING    1
Info: FULL ELECTROSTATIC EVALUATION FREQUENCY      2
Info: USING VERLET I (r-RESPA) MTS SCHEME.
Info: C1 SPLITTING OF LONG RANGE ELECTROSTATICS
Info: PLACING ATOMS IN PATCHES BY HYDROGEN GROUPS
Info: RIGID BONDS TO HYDROGEN : ALL
Info:         ERROR TOLERANCE : 1e-08
Info:          MAX ITERATIONS : 100
Info: RIGID WATER USING SETTLE ALGORITHM
Info: RANDOM NUMBER SEED     1741389117
Info: USE HYDROGEN BONDS?    NO
Info: Using AMBER format force field!
Info: AMBER PARM FILE        mobley_7754849.prmtop
Info: COORDINATE PDB         mobley_7754849.pdb
Info: Exclusions will be read from PARM file!
Info: SCNB (VDW SCALING)     2
Info: USING ARITHMETIC MEAN TO COMBINE L-J SIGMA PARAMETERS
Info: BINARY COORDINATES     mobley_7754849_min.coor
Info: SUMMARY OF PARAMETERS:
Info: 11 BONDS
Info: 15 ANGLES
Info:   15 HARMONIC
Info:   0 COSINE-BASED
Info: 11 DIHEDRAL
Info: 0 IMPROPER
Info: 0 CROSSTERM
Info: 0 VDW
Info: 45 VDW_PAIRS
Info: 0 NBTHOLE_PAIRS
Info: STRUCTURE SUMMARY:
Info: 6368 ATOMS
Info: 6367 BONDS
Info: 72 ANGLES
Info: 88 DIHEDRALS
Info: 0 IMPROPERS
Info: 0 CROSSTERMS
Info: 6511 EXCLUSIONS
Info: 6349 RIGID BONDS
Info: 12755 DEGREES OF FREEDOM
Info: 2128 HYDROGEN GROUPS
Info: 4 ATOMS IN LARGEST HYDROGEN GROUP
Info: 2128 MIGRATION GROUPS
Info: 4 ATOMS IN LARGEST MIGRATION GROUP
Info: TOTAL MASS = 38380.2 amu
Info: TOTAL CHARGE = 0.000399947 e
Info: MASS DENSITY = 0.73768 g/cm^3
Info: ATOM DENSITY = 0.0737063 atoms/A^3
Info: ADDED 0 IMPLICIT EXCLUSIONS
Info: NONBONDED TABLE R-SQUARED SPACING: 0.0625
Info: NONBONDED TABLE SIZE: 705 POINTS
Info: REMOVING COM VELOCITY -0.0397757 0.0296693 -0.225692
TCL: Running for 25000 steps
ETITLE: TS BOND ANGLE DIHED IMPRP ELECT VDW BOUNDARY MISC KINETIC TOTAL TEMP POTENTIAL TOTAL3 TEMPAVG PRESSURE GPRESSURE VOLUME PRESSAVG GPRESSAVG
ENERGY: 0 0.3368 3.8401 53.3121 0.0000 -29408.1183 5080.0343 0.0000 0.0000 3827.7638 -20442.8312 302.0335 -24270.5950 -20442.0664 302.0335 334.9181 373.0488 86396.9462 334.9181 373.0488
ENERGY: 5000 0.8380 6.3599 50.2418 0.0000 -30422.9908 5113.1008 0.0000 0.0000 392.0112 -24860.4390 30.9320 -25252.4501 -24859.7632 47.3294 -715.7440 -662.1791 62874.8558 4.8473 4.4826
ENERGY: 10000 1.0270 6.4071 49.6879 0.0000 -30629.5533 5255.7516 0.0000 0.0000 382.9515 -24933.7282 30.2172 -25316.6797 -24932.9083 30.2182 -176.3079 -134.9699 62539.8869 2.0148 1.9498
ENERGY: 15000 1.3367 7.7797 49.0313 0.0000 -30653.3897 5268.6828 0.0000 0.0000 385.1846 -24941.3745 30.3934 -25326.5591 -24940.3890 30.0894 -145.8345 -96.2212 62333.9675 1.8646 1.8861
ENERGY: 20000 0.7467 5.7873 49.0794 0.0000 -30840.8586 5437.6972 0.0000 0.0000 382.3676 -24965.1804 30.1711 -25347.5480 -24964.5891 30.1531 531.7324 593.4449 62035.3187 2.8449 2.7298
ENERGY: 25000 0.9878 6.7234 48.9658 0.0000 -30734.8103 5300.6656 0.0000 0.0000 379.5556 -24997.9121 29.9492 -25377.4677 -24996.7451 30.1520 -99.0275 -40.8444 62288.1930 2.4830 2.6728
TCL: Running 25000 steps at 60 kelvin.
TCL: Setting parameter langevinTemp to 60
TCL: Running for 25000 steps
ETITLE: TS BOND ANGLE DIHED IMPRP ELECT VDW BOUNDARY MISC KINETIC TOTAL TEMP POTENTIAL TOTAL3 TEMPAVG PRESSURE GPRESSURE VOLUME PRESSAVG GPRESSAVG
ENERGY: 25000 0.9878 6.7234 48.9658 0.0000 -30734.8103 5300.6656 0.0000 0.0000 379.3636 -24998.1041 29.9341 -25377.4677 -24997.1864 29.9341 -91.4444 -40.8067 62288.1930 -91.4444 -40.8067
ENERGY: 30000 1.2864 7.6593 49.5399 0.0000 -30116.4412 5059.9676 0.0000 0.0000 754.5245 -24243.4635 59.5365 -24997.9880 -24242.0281 56.8054 -344.4544 -291.4114 62630.2482 -1.6643 -1.3802
ENERGY: 35000 0.9121 7.4047 50.7396 0.0000 -30375.2253 5255.5226 0.0000 0.0000 781.3841 -24279.2622 61.6559 -25060.6464 -24278.0843 60.3075 354.7111 416.2998 62211.5949 4.6134 4.2846
ENERGY: 40000 1.2880 7.0247 46.4511 0.0000 -30295.3278 5137.5563 0.0000 0.0000 754.1164 -24348.8912 59.5043 -25103.0076 -24346.6617 60.1614 -214.4184 -190.3596 62306.7797 3.3227 3.2349
ENERGY: 45000 1.4298 7.2745 46.9949 0.0000 -30385.8094 5176.2723 0.0000 0.0000 753.3280 -24400.5098 59.4421 -25153.8378 -24398.4539 60.4071 -152.5551 -108.8811 62138.5028 3.4698 3.8581
ENERGY: 50000 1.4168 7.1237 47.8186 0.0000 -30448.0870 5219.1929 0.0000 0.0000 746.2646 -24426.2705 58.8847 -25172.5350 -24424.7048 59.9210 7.4072 48.8236 62040.4635 4.3468 4.3442
TCL: Running 25000 steps at 90 kelvin.
TCL: Setting parameter langevinTemp to 90
TCL: Running for 25000 steps
ETITLE: TS BOND ANGLE DIHED IMPRP ELECT VDW BOUNDARY MISC KINETIC TOTAL TEMP POTENTIAL TOTAL3 TEMPAVG PRESSURE GPRESSURE VOLUME PRESSAVG GPRESSAVG
ENERGY: 50000 1.4168 7.1237 47.8186 0.0000 -30448.0870 5219.1929 0.0000 0.0000 745.8777 -24426.6573 58.8542 -25172.5350 -24425.0946 58.8542 0.6284 48.6716 62040.4635 0.6284 48.6716
ENERGY: 55000 3.3845 9.3530 46.4583 0.0000 -29638.2803 4814.6006 0.0000 0.0000 1152.0273 -23612.4566 90.9018 -24764.4839 -23609.2356 87.3016 -942.4862 -865.1919 62729.3321 3.9050 3.9737
ENERGY: 60000 1.6083 12.2671 47.9539 0.0000 -29829.4864 4942.4354 0.0000 0.0000 1158.3425 -23666.8791 91.4002 -24825.2217 -23664.1542 90.1629 -522.2986 -455.3729 62587.9564 3.8668 3.8005
ENERGY: 65000 2.3462 8.5054 48.2466 0.0000 -29798.5618 4915.0586 0.0000 0.0000 1144.2373 -23680.1678 90.2872 -24824.4052 -23677.1191 91.3032 -635.7356 -590.4468 62806.7082 -0.8984 -0.7739
ENERGY: 70000 3.2748 10.1771 48.7539 0.0000 -29999.3770 5082.1195 0.0000 0.0000 1163.5085 -23691.5432 91.8078 -24855.0517 -23689.0445 89.8971 33.4442 61.3497 62341.0246 1.2929 1.1482
ENERGY: 75000 2.2407 7.3384 48.0045 0.0000 -30108.0300 5195.0907 0.0000 0.0000 1138.2478 -23717.1078 89.8146 -24855.3557 -23714.8523 90.6579 460.5108 505.3664 62103.3254 -1.5538 -1.9269
TCL: Running 25000 steps at 120 kelvin.
TCL: Setting parameter langevinTemp to 120
TCL: Running for 25000 steps
ETITLE: TS BOND ANGLE DIHED IMPRP ELECT VDW BOUNDARY MISC KINETIC TOTAL TEMP POTENTIAL TOTAL3 TEMPAVG PRESSURE GPRESSURE VOLUME PRESSAVG GPRESSAVG
ENERGY: 75000 2.2407 7.3384 48.0045 0.0000 -30108.0300 5195.0907 0.0000 0.0000 1137.6766 -23717.6791 89.7695 -24855.3557 -23715.3457 89.7695 449.1690 505.1542 62103.3254 449.1690 505.1542
ENERGY: 80000 1.0834 11.7937 48.1878 0.0000 -29342.0525 4863.5661 0.0000 0.0000 1541.9576 -22875.4638 121.6697 -24417.4214 -22871.6992 117.3053 -94.0586 -16.8477 62704.2210 2.3711 2.2212
ENERGY: 85000 3.2316 12.6054 46.1309 0.0000 -29591.0510 5040.1137 0.0000 0.0000 1543.2450 -22945.7244 121.7713 -24488.9694 -22944.7716 120.5957 484.4400 544.0551 62469.7342 0.4111 0.8597
ENERGY: 90000 4.1250 9.0606 47.7942 0.0000 -29323.9502 4752.7782 0.0000 0.0000 1507.6796 -23002.5125 118.9649 -24510.1922 -23000.0260 120.4652 -742.9088 -696.0107 62789.3267 5.6286 6.0018
ENERGY: 95000 2.1130 8.8584 47.5064 0.0000 -29542.3610 4926.5400 0.0000 0.0000 1505.4184 -23051.9248 118.7865 -24557.3432 -23047.8891 120.2744 -115.0599 -49.2504 62503.5227 4.4291 4.5267
ENERGY: 100000 2.8657 8.1159 48.3486 0.0000 -29511.1179 4840.3438 0.0000 0.0000 1560.4887 -23050.9552 123.1319 -24611.4439 -23047.6704 119.7256 -533.1272 -467.2084 62717.4032 1.5288 1.7397
TCL: Running 25000 steps at 150 kelvin.
TCL: Setting parameter langevinTemp to 150
TCL: Running for 25000 steps
ETITLE: TS BOND ANGLE DIHED IMPRP ELECT VDW BOUNDARY MISC KINETIC TOTAL TEMP POTENTIAL TOTAL3 TEMPAVG PRESSURE GPRESSURE VOLUME PRESSAVG GPRESSAVG
ENERGY: 100000 2.8657 8.1159 48.3486 0.0000 -29511.1179 4840.3438 0.0000 0.0000 1559.7493 -23051.6946 123.0735 -24611.4439 -23048.3870 123.0735 -526.8142 -467.8701 62717.4032 -526.8142 -467.8701
ENERGY: 105000 2.5230 10.8771 47.4073 0.0000 -28843.1226 4668.9601 0.0000 0.0000 1876.7175 -22236.6376 148.0842 -24113.3551 -22231.7820 146.1501 -342.5235 -303.4847 62879.0583 1.9590 2.0964
ENERGY: 110000 4.2216 11.5478 47.3277 0.0000 -28894.6698 4710.8793 0.0000 0.0000 1890.4171 -22230.2763 149.1652 -24120.6934 -22225.6119 149.6917 -117.1328 -57.4254 62710.2650 4.3979 4.5988
ENERGY: 115000 2.1468 12.8126 49.8154 0.0000 -28877.8824 4684.8093 0.0000 0.0000 1942.0341 -22186.2642 153.2381 -24128.2983 -22181.0352 150.2121 -241.3787 -173.1830 62451.0963 6.4039 6.3959
ENERGY: 120000 3.6762 9.6559 48.5115 0.0000 -29063.0874 4815.7995 0.0000 0.0000 1913.0623 -22272.3819 150.9521 -24185.4443 -22266.7995 149.7505 259.7561 301.4935 62245.3442 4.4177 4.1653
ENERGY: 125000 5.9301 12.6819 47.1605 0.0000 -29055.3386 4755.6328 0.0000 0.0000 1870.8509 -22363.0824 147.6213 -24233.9332 -22359.1668 150.9742 -166.8169 -108.0484 62617.8444 4.1223 3.7781
TCL: Running 50000 steps at 180 kelvin.
TCL: Setting parameter langevinTemp to 180
TCL: Running for 50000 steps
ETITLE: TS BOND ANGLE DIHED IMPRP ELECT VDW BOUNDARY MISC KINETIC TOTAL TEMP POTENTIAL TOTAL3 TEMPAVG PRESSURE GPRESSURE VOLUME PRESSAVG GPRESSAVG
ENERGY: 125000 5.9301 12.6819 47.1605 0.0000 -29055.3386 4755.6328 0.0000 0.0000 1869.9130 -22364.0202 147.5473 -24233.9332 -22360.7336 147.5473 -168.7555 -108.6892 62617.8444 -168.7555 -108.6892
ENERGY: 135000 1.9041 14.0546 50.4176 0.0000 -28229.3555 4500.1053 0.0000 0.0000 2259.4145 -21403.4593 178.2813 -23662.8738 -21397.8245 180.1817 -223.2389 -110.9316 62480.3079 3.2821 3.3469
ENERGY: 145000 4.0963 9.9112 52.0547 0.0000 -28240.3057 4506.1665 0.0000 0.0000 2268.9418 -21399.1352 179.0331 -23668.0770 -21395.6292 178.7553 47.6845 114.9646 61676.2496 6.1483 5.9220
ENERGY: 155000 4.7484 15.6416 48.0684 0.0000 -28139.7396 4444.5618 0.0000 0.0000 2242.1582 -21384.5612 176.9197 -23626.7194 -21377.7184 180.3680 -322.4375 -224.8795 62210.5198 2.5767 2.3182
ENERGY: 165000 4.1703 12.9429 49.2714 0.0000 -28244.6584 4474.2442 0.0000 0.0000 2242.8998 -21461.1299 176.9782 -23704.0297 -21455.2137 180.3664 -159.0423 -84.4071 62073.5105 -0.1305 -0.0959
ENERGY: 175000 3.0175 14.3296 47.5922 0.0000 -28112.4593 4378.7100 0.0000 0.0000 2310.9961 -21357.8140 182.3514 -23668.8101 -21350.3089 179.9238 -698.9313 -614.6747 62882.0975 1.4478 1.6636
TCL: Running 50000 steps at 210 kelvin.
TCL: Setting parameter langevinTemp to 210
TCL: Running for 50000 steps
ETITLE: TS BOND ANGLE DIHED IMPRP ELECT VDW BOUNDARY MISC KINETIC TOTAL TEMP POTENTIAL TOTAL3 TEMPAVG PRESSURE GPRESSURE VOLUME PRESSAVG GPRESSAVG
ENERGY: 175000 3.0175 14.3296 47.5922 0.0000 -28112.4593 4378.7100 0.0000 0.0000 2309.8789 -21358.9311 182.2633 -23668.8101 -21353.8822 182.2633 -677.0599 -613.3505 62882.0975 -677.0599 -613.3505
ENERGY: 185000 2.1979 15.7798 48.9502 0.0000 -27114.5232 4302.7368 0.0000 0.0000 2712.8747 -20031.9837 214.0620 -22744.8584 -20024.2003 210.2677 783.0749 858.7598 62113.7498 5.5958 4.9540
ENERGY: 195000 4.3308 15.5129 48.9154 0.0000 -27029.0315 4184.6346 0.0000 0.0000 2724.4608 -20051.1770 214.9762 -22775.6378 -20043.4135 209.8443 390.7933 415.3043 62027.1835 3.1136 3.8693
ENERGY: 205000 4.1256 16.9185 47.9468 0.0000 -26953.6949 4088.7488 0.0000 0.0000 2707.9608 -20087.9944 213.6743 -22795.9552 -20081.8084 211.0470 -68.1303 2.4204 62342.8485 3.2585 2.6757
ENERGY: 215000 4.3177 14.4694 48.8054 0.0000 -27023.9744 4215.3467 0.0000 0.0000 2696.6021 -20044.4331 212.7780 -22741.0352 -20038.4780 211.6108 433.0174 477.4448 62160.4195 2.9596 3.3705
ENERGY: 225000 4.1911 17.8591 47.1108 0.0000 -26844.1389 4091.4197 0.0000 0.0000 2624.6582 -20058.9000 207.1012 -22683.5582 -20053.5278 210.9631 49.2117 149.2724 62335.5692 0.7740 0.0334
TCL: Running 50000 steps at 240 kelvin.
TCL: Setting parameter langevinTemp to 240
TCL: Running for 50000 steps
ETITLE: TS BOND ANGLE DIHED IMPRP ELECT VDW BOUNDARY MISC KINETIC TOTAL TEMP POTENTIAL TOTAL3 TEMPAVG PRESSURE GPRESSURE VOLUME PRESSAVG GPRESSAVG
ENERGY: 225000 4.1911 17.8591 47.1108 0.0000 -26844.1389 4091.4197 0.0000 0.0000 2623.3309 -20060.2273 206.9965 -22683.5582 -20055.5090 206.9965 61.4218 149.4147 62335.5692 61.4218 149.4147
ENERGY: 235000 5.8525 20.0469 42.4255 0.0000 -25488.5311 3641.4814 0.0000 0.0000 3047.8852 -18730.8396 240.4964 -21778.7248 -18725.8249 239.1127 -317.5117 -242.6098 63288.5563 3.0088 2.5481
ENERGY: 245000 5.5919 19.7477 45.0667 0.0000 -25520.2495 3619.9103 0.0000 0.0000 3104.8337 -18725.0990 244.9900 -21829.9328 -18720.4289 240.7358 -171.4866 -82.1743 62456.5609 -0.6217 -0.8962
ENERGY: 255000 4.3579 19.4379 44.3620 0.0000 -25322.1331 3541.5529 0.0000 0.0000 3056.1226 -18656.2997 241.1464 -21712.4223 -18648.0586 241.4117 -555.1196 -440.4391 62901.1878 1.8512 1.7878
ENERGY: 265000 5.2791 18.1041 48.2305 0.0000 -25461.0218 3676.7775 0.0000 0.0000 3055.4369 -18657.1938 241.0922 -21712.6307 -18648.6109 239.8436 142.7139 222.9379 62484.6363 1.3987 0.9589
ENERGY: 275000 7.8693 20.9659 48.4398 0.0000 -25550.8436 3699.7330 0.0000 0.0000 3025.3643 -18748.4713 238.7193 -21773.8356 -18741.2984 240.6753 63.9769 116.3395 62581.4038 2.0855 1.9530
TCL: Running 50000 steps at 270 kelvin.
TCL: Setting parameter langevinTemp to 270
TCL: Running for 50000 steps
ETITLE: TS BOND ANGLE DIHED IMPRP ELECT VDW BOUNDARY MISC KINETIC TOTAL TEMP POTENTIAL TOTAL3 TEMPAVG PRESSURE GPRESSURE VOLUME PRESSAVG GPRESSAVG
ENERGY: 275000 7.8693 20.9659 48.4398 0.0000 -25550.8436 3699.7330 0.0000 0.0000 3023.8783 -18749.9573 238.6021 -21773.8356 -18745.4847 238.6021 40.8168 115.7256 62581.4038 40.8168 115.7256
ENERGY: 285000 3.8883 18.7257 50.6506 0.0000 -24291.8823 3357.7686 0.0000 0.0000 3429.4994 -17431.3497 270.6080 -20860.8490 -17423.3245 269.1642 -84.1516 -14.6395 64102.4892 -0.5064 0.1462
ENERGY: 295000 3.6255 18.3601 47.2371 0.0000 -24145.1057 3214.3544 0.0000 0.0000 3360.4475 -17501.0811 265.1594 -20861.5286 -17494.7805 268.5080 -554.4804 -487.6093 63945.7772 1.9072 1.5528
ENERGY: 305000 4.8903 18.9801 46.3100 0.0000 -24178.9700 3377.8797 0.0000 0.0000 3430.3166 -17300.5931 270.6725 -20730.9098 -17293.4230 270.9447 351.1222 412.5101 63814.0568 2.9192 2.8027
ENERGY: 315000 4.3157 21.0733 49.9476 0.0000 -24308.0520 3414.4034 0.0000 0.0000 3449.3587 -17368.9535 272.1750 -20818.3121 -17363.9454 269.9699 110.3386 222.2614 64111.9846 6.7983 6.5336
ENERGY: 325000 3.7101 21.6823 51.6646 0.0000 -24200.1939 3241.2848 0.0000 0.0000 3351.5474 -17530.3047 264.4571 -20881.8522 -17524.1469 269.0304 -532.6784 -433.2955 64057.7499 3.0128 3.2173
TCL: Running 1000000 steps at 300 kelvin.
TCL: Setting parameter langevinTemp to 300
TCL: Running for 1000000 steps
ETITLE: TS BOND ANGLE DIHED IMPRP ELECT VDW BOUNDARY MISC KINETIC TOTAL TEMP POTENTIAL TOTAL3 TEMPAVG PRESSURE GPRESSURE VOLUME PRESSAVG GPRESSAVG
ENERGY: 325000 3.7101 21.6823 51.6646 0.0000 -24200.1939 3241.2848 0.0000 0.0000 3349.8235 -17532.0286 264.3211 -20881.8522 -17526.8782 264.3211 -510.8707 -432.0100 64057.7499 -510.8707 -432.0100
ENERGY: 525000 7.7321 14.0426 45.8071 0.0000 -23333.6771 3207.8465 0.0000 0.0000 3855.3049 -16202.9440 304.2066 -20058.2488 -16197.0750 301.0930 332.6347 369.2585 66197.0011 2.8458 3.5053
ENERGY: 725000 3.2453 16.9832 46.2250 0.0000 -23206.4168 3125.3398 0.0000 0.0000 3737.2172 -16277.4064 294.8888 -20014.6236 -16270.5773 301.1374 -2.0944 52.7710 65855.2315 3.0444 3.7924
ENERGY: 925000 6.8053 24.7376 46.0376 0.0000 -23100.8604 2978.6721 0.0000 0.0000 3789.9856 -16254.6221 299.0525 -20044.6077 -16245.9389 299.5952 -466.4097 -416.4221 65732.0436 0.9169 0.8707
ENERGY: 1125000 4.5962 24.5655 51.5776 0.0000 -23189.7778 3053.8457 0.0000 0.0000 3830.1541 -16225.0387 302.2221 -20055.1929 -16214.4836 300.8460 -168.5276 -71.2123 65122.3484 4.0308 4.3524
ENERGY: 1325000 4.9807 25.3432 53.0267 0.0000 -23239.0544 3156.0565 0.0000 0.0000 3836.3685 -16163.2789 302.7124 -19999.6473 -16159.7330 301.7077 337.0809 424.4672 65225.5423 3.7885 3.4612
TCL: Exiting due to exit command.
