Info: SIMULATION PARAMETERS:
Info: TIMESTEP               2
Info: NUMBER OF STEPS        0
Info: STEPS PER CYCLE        10
Info: PERIODIC CELL BASIS 1  41.123 0 0
Info: PERIODIC CELL BASIS 2  0 41.628 0
Info: PERIODIC CELL BASIS 3  0 0 39.119
Info: PERIODIC CELL CENTER   0 0 0
Info: WRAPPING WATERS AROUND PERIODIC BOUNDARIES ON OUTPUT.
Info: WRAPPING ALL CLUSTERS AROUND PERIODIC BOUNDARIES ON OUTPUT.
Info: FIRST LDB TIMESTEP     50
Info: LAST LDB TIMESTEP     -1
Info: HOM BACKGROUND SCALING 1
Info: PME BACKGROUND SCALING 1
Info: MIN ATOMS PER PATCH    40
Info: EMPTY PATCH LOAD       40 ATOMS
Info: INITIAL TEMPERATURE    300
Info: CENTER OF MASS MOVING INITIALLY? NO
Info: DIELECTRIC             1
Info: EXCLUDE                SCALED ONE-FOUR
Info: 1-4 ELECTROSTATICS SCALED BY 0.833333
Info: MODIFIED 1-4 VDW PARAMETERS WILL BE USED
Info: DCD FILENAME           mobley_8492526_min.dcd
Info: DCD FREQUENCY          5000
Info: DCD FIRST STEP         5000
Info: DCD FILE WILL CONTAIN UNIT CELL DATA
Info: XST FILENAME           mobley_8492526_min.xst
Info: XST FREQUENCY          5000
Info: NO VELOCITY DCD OUTPUT
Info: NO FORCE DCD OUTPUT
Info: OUTPUT FILENAME        mobley_8492526_min
Info: BINARY OUTPUT FILES WILL BE USED
Info: RESTART FILENAME       mobley_8492526_min.restart
Info: RESTART FREQUENCY      5000
Info: BINARY RESTART FILES WILL BE USED
Info: CUTOFF                 9
Info: PAIRLIST DISTANCE      11
Info: PAIRLIST SHRINK RATE   0.01
Info: PAIRLIST GROW RATE     0.01
Info: PAIRLIST TRIGGER       0.3
Info: PAIRLISTS PER CYCLE    2
Info: PAIRLISTS ENABLED
Info: MARGIN                 8
Info: HYDROGEN GROUP CUTOFF  2.5
Info: PATCH DIMENSION        21.5
Info: ENERGY OUTPUT STEPS    5000
Info: ENERGY EVALUATION STEPS    5000
Info: OUTPUT ENERGY PRECISION 4
Info: CROSSTERM ENERGY INCLUDED IN DIHEDRAL
Info: TIMING OUTPUT STEPS    50000
Info: PRESSURE OUTPUT STEPS  5000
Info: LANGEVIN DYNAMICS ACTIVE
Info: LANGEVIN TEMPERATURE   300
Info: LANGEVIN USING BBK INTEGRATOR
Info: LANGEVIN DAMPING COEFFICIENT IS 1 INVERSE PS
Info: LANGEVIN DYNAMICS APPLIED TO HYDROGENS
Info: LANGEVIN PISTON PRESSURE CONTROL ACTIVE
Info:        TARGET PRESSURE IS 1.01325 BAR
Info:     OSCILLATION PERIOD IS 50 FS
Info:             DECAY TIME IS 25 FS
Info:     PISTON TEMPERATURE IS 300 K
Info:       PRESSURE CONTROL IS GROUP-BASED
Info:    INITIAL STRAIN RATE IS 0 0 0
Info:       CELL FLUCTUATION IS ISOTROPIC
Info: PARTICLE MESH EWALD (PME) ACTIVE
Info: PME TOLERANCE               1e-06
Info: PME EWALD COEFFICIENT       0.348832
Info: PME INTERPOLATION ORDER     4
Info: PME GRID DIMENSIONS         44 44 40
Info: PME MAXIMUM GRID SPACING    1
Info: FULL ELECTROSTATIC EVALUATION FREQUENCY      2
Info: USING VERLET I (r-RESPA) MTS SCHEME.
Info: C1 SPLITTING OF LONG RANGE ELECTROSTATICS
Info: PLACING ATOMS IN PATCHES BY HYDROGEN GROUPS
Info: RIGID BONDS TO HYDROGEN : ALL
Info:         ERROR TOLERANCE : 1e-08
Info:          MAX ITERATIONS : 100
Info: RIGID WATER USING SETTLE ALGORITHM
Info: RANDOM NUMBER SEED     1741407909
Info: USE HYDROGEN BONDS?    NO
Info: Using AMBER format force field!
Info: AMBER PARM FILE        mobley_8492526.prmtop
Info: COORDINATE PDB         mobley_8492526.pdb
Info: Exclusions will be read from PARM file!
Info: SCNB (VDW SCALING)     2
Info: USING ARITHMETIC MEAN TO COMBINE L-J SIGMA PARAMETERS
Info: SUMMARY OF PARAMETERS:
Info: 7 BONDS
Info: 8 ANGLES
Info:   8 HARMONIC
Info:   0 COSINE-BASED
Info: 14 DIHEDRAL
Info: 0 IMPROPER
Info: 0 CROSSTERM
Info: 0 VDW
Info: 28 VDW_PAIRS
Info: 0 NBTHOLE_PAIRS
Info: STRUCTURE SUMMARY:
Info: 4783 ATOMS
Info: 4782 BONDS
Info: 27 ANGLES
Info: 40 DIHEDRALS
Info: 0 IMPROPERS
Info: 0 CROSSTERMS
Info: 4842 EXCLUSIONS
Info: 4777 RIGID BONDS
Info: 9572 DEGREES OF FREEDOM
Info: 1595 HYDROGEN GROUPS
Info: 4 ATOMS IN LARGEST HYDROGEN GROUP
Info: 1595 MIGRATION GROUPS
Info: 4 ATOMS IN LARGEST MIGRATION GROUP
Info: TOTAL MASS = 28713.6 amu
Info: TOTAL CHARGE = 9.9929e-05 e
Info: MASS DENSITY = 0.712013 g/cm^3
Info: ATOM DENSITY = 0.0714237 atoms/A^3
Info: ADDED 0 IMPLICIT EXCLUSIONS
Info: NONBONDED TABLE R-SQUARED SPACING: 0.0625
Info: NONBONDED TABLE SIZE: 705 POINTS
Info: REMOVING COM VELOCITY -0.0501817 -0.166336 -0.0612664
TCL: Minimizing for 2000 steps
ETITLE: TS BOND ANGLE DIHED IMPRP ELECT VDW BOUNDARY MISC KINETIC TOTAL TEMP POTENTIAL TOTAL3 TEMPAVG PRESSURE GPRESSURE VOLUME PRESSAVG GPRESSAVG
ENERGY: 0 0.1893 0.3215 16.7223 0.0000 -14677.7571 1620.0154 0.0000 0.0000 0.0000 -13040.5086 0.0000 -13040.5086 -13040.5086 0.0000 10649.3794 -15577.1949 66966.5738 10649.3794 -15577.1949
ENERGY: 400 14.5832 14.9740 15.0373 0.0000 -19878.9026 2903.2206 0.0000 0.0000 0.0000 -16931.0875 0.0000 -16931.0875 -16931.0875 0.0000 15468.5279 15564.4727 66966.5738 15468.5279 15564.4727
ENERGY: 800 1.1269 1.0736 14.5416 0.0000 -20865.8863 3337.7357 0.0000 0.0000 0.0000 -17511.4085 0.0000 -17511.4085 -17511.4085 0.0000 17492.7272 17633.3286 66966.5738 17492.7272 17633.3286
ENERGY: 1200 5.4530 1.3476 14.0160 0.0000 -21404.5237 3600.5780 0.0000 0.0000 0.0000 -17783.1290 0.0000 -17783.1290 -17783.1290 0.0000 18727.3287 18848.9096 66966.5738 18727.3287 18848.9096
ENERGY: 1600 0.6909 0.5726 14.0601 0.0000 -21611.4328 3668.3533 0.0000 0.0000 0.0000 -17927.7559 0.0000 -17927.7559 -17927.7559 0.0000 19091.9597 19202.2812 66966.5738 19091.9597 19202.2812
ENERGY: 2000 0.5051 0.5625 13.8582 0.0000 -21844.7926 3794.8074 0.0000 0.0000 0.0000 -18035.0594 0.0000 -18035.0594 -18035.0594 0.0000 19722.4867 19833.5414 66966.5738 19722.4867 19833.5414
TCL: Exiting due to exit command.
Info: NAMD 3.0.1 for Linux-x86_64-multicore
Info: Please visit http://www.ks.uiuc.edu/Research/namd/
Info: for updates, documentation, and support information.
Info: Please cite Phillips et al., J. Chem. Phys. 153:044130 (2020) doi:10.1063/5.0014475
Info: in all publications reporting results obtained with NAMD.
Info: Based on Charm++/Converse 80000 for multicore-linux-x86_64-gcc
Info: Built Mon Oct 14 11:11:06 CDT 2024 by dhardy on athine.ks.uiuc.edu
Info: 1 NAMD  3.0.1  Linux-x86_64-multicore  16    k012  z5358697
Info: Running on 16 processors, 1 nodes, 1 physical nodes.
Info: CPU topology information available.
Info: Charm++/Converse parallel runtime startup completed at 0.00963221 s
Info: 1043.45 MB of memory in use based on /proc/self/stat
Info: Configuration file is mobley_8492526_equil.namd
Info: Working in the current directory /srv/scratch/z5358697/prod_prep_10/8492526
TCL: Running 25000 steps at 30 kelvin.
TCL: Suspending until startup complete.
Info: SIMULATION PARAMETERS:
Info: TIMESTEP               2
Info: NUMBER OF STEPS        0
Info: STEPS PER CYCLE        10
Info: PERIODIC CELL BASIS 1  41.123 0 0
Info: PERIODIC CELL BASIS 2  0 41.628 0
Info: PERIODIC CELL BASIS 3  0 0 39.119
Info: PERIODIC CELL CENTER   0 0 0
Info: WRAPPING WATERS AROUND PERIODIC BOUNDARIES ON OUTPUT.
Info: WRAPPING ALL CLUSTERS AROUND PERIODIC BOUNDARIES ON OUTPUT.
Info: FIRST LDB TIMESTEP     50
Info: LAST LDB TIMESTEP     -1
Info: HOM BACKGROUND SCALING 1
Info: PME BACKGROUND SCALING 1
Info: MIN ATOMS PER PATCH    40
Info: EMPTY PATCH LOAD       40 ATOMS
Info: INITIAL TEMPERATURE    300
Info: CENTER OF MASS MOVING INITIALLY? NO
Info: DIELECTRIC             1
Info: EXCLUDE                SCALED ONE-FOUR
Info: 1-4 ELECTROSTATICS SCALED BY 0.833333
Info: MODIFIED 1-4 VDW PARAMETERS WILL BE USED
Info: DCD FILENAME           mobley_8492526_equil.dcd
Info: DCD FREQUENCY          5000
Info: DCD FIRST STEP         5000
Info: DCD FILE WILL CONTAIN UNIT CELL DATA
Info: XST FILENAME           mobley_8492526_equil.xst
Info: XST FREQUENCY          5000
Info: NO VELOCITY DCD OUTPUT
Info: NO FORCE DCD OUTPUT
Info: OUTPUT FILENAME        mobley_8492526_equil
Info: BINARY OUTPUT FILES WILL BE USED
Info: RESTART FILENAME       mobley_8492526_equil.restart
Info: RESTART FREQUENCY      5000
Info: BINARY RESTART FILES WILL BE USED
Info: CUTOFF                 9
Info: PAIRLIST DISTANCE      11
Info: PAIRLIST SHRINK RATE   0.01
Info: PAIRLIST GROW RATE     0.01
Info: PAIRLIST TRIGGER       0.3
Info: PAIRLISTS PER CYCLE    2
Info: PAIRLISTS ENABLED
Info: MARGIN                 8
Info: HYDROGEN GROUP CUTOFF  2.5
Info: PATCH DIMENSION        21.5
Info: ENERGY OUTPUT STEPS    5000
Info: ENERGY EVALUATION STEPS    5000
Info: OUTPUT ENERGY PRECISION 4
Info: CROSSTERM ENERGY INCLUDED IN DIHEDRAL
Info: TIMING OUTPUT STEPS    50000
Info: PRESSURE OUTPUT STEPS  5000
Info: LANGEVIN DYNAMICS ACTIVE
Info: LANGEVIN TEMPERATURE   30
Info: LANGEVIN USING BBK INTEGRATOR
Info: LANGEVIN DAMPING COEFFICIENT IS 1 INVERSE PS
Info: LANGEVIN DYNAMICS APPLIED TO HYDROGENS
Info: LANGEVIN PISTON PRESSURE CONTROL ACTIVE
Info:        TARGET PRESSURE IS 1.01325 BAR
Info:     OSCILLATION PERIOD IS 50 FS
Info:             DECAY TIME IS 25 FS
Info:     PISTON TEMPERATURE IS 300 K
Info:       PRESSURE CONTROL IS GROUP-BASED
Info:    INITIAL STRAIN RATE IS 0 0 0
Info:       CELL FLUCTUATION IS ISOTROPIC
Info: PARTICLE MESH EWALD (PME) ACTIVE
Info: PME TOLERANCE               1e-06
Info: PME EWALD COEFFICIENT       0.348832
Info: PME INTERPOLATION ORDER     4
Info: PME GRID DIMENSIONS         44 44 40
Info: PME MAXIMUM GRID SPACING    1
Info: FULL ELECTROSTATIC EVALUATION FREQUENCY      2
Info: USING VERLET I (r-RESPA) MTS SCHEME.
Info: C1 SPLITTING OF LONG RANGE ELECTROSTATICS
Info: PLACING ATOMS IN PATCHES BY HYDROGEN GROUPS
Info: RIGID BONDS TO HYDROGEN : ALL
Info:         ERROR TOLERANCE : 1e-08
Info:          MAX ITERATIONS : 100
Info: RIGID WATER USING SETTLE ALGORITHM
Info: RANDOM NUMBER SEED     1741407927
Info: USE HYDROGEN BONDS?    NO
Info: Using AMBER format force field!
Info: AMBER PARM FILE        mobley_8492526.prmtop
Info: COORDINATE PDB         mobley_8492526.pdb
Info: Exclusions will be read from PARM file!
Info: SCNB (VDW SCALING)     2
Info: USING ARITHMETIC MEAN TO COMBINE L-J SIGMA PARAMETERS
Info: BINARY COORDINATES     mobley_8492526_min.coor
Info: SUMMARY OF PARAMETERS:
Info: 7 BONDS
Info: 8 ANGLES
Info:   8 HARMONIC
Info:   0 COSINE-BASED
Info: 14 DIHEDRAL
Info: 0 IMPROPER
Info: 0 CROSSTERM
Info: 0 VDW
Info: 28 VDW_PAIRS
Info: 0 NBTHOLE_PAIRS
Info: STRUCTURE SUMMARY:
Info: 4783 ATOMS
Info: 4782 BONDS
Info: 27 ANGLES
Info: 40 DIHEDRALS
Info: 0 IMPROPERS
Info: 0 CROSSTERMS
Info: 4842 EXCLUSIONS
Info: 4777 RIGID BONDS
Info: 9572 DEGREES OF FREEDOM
Info: 1595 HYDROGEN GROUPS
Info: 4 ATOMS IN LARGEST HYDROGEN GROUP
Info: 1595 MIGRATION GROUPS
Info: 4 ATOMS IN LARGEST MIGRATION GROUP
Info: TOTAL MASS = 28713.6 amu
Info: TOTAL CHARGE = 9.9929e-05 e
Info: MASS DENSITY = 0.712013 g/cm^3
Info: ATOM DENSITY = 0.0714237 atoms/A^3
Info: ADDED 0 IMPLICIT EXCLUSIONS
Info: NONBONDED TABLE R-SQUARED SPACING: 0.0625
Info: NONBONDED TABLE SIZE: 705 POINTS
Info: REMOVING COM VELOCITY 0.0271329 -0.0124237 0.064178
TCL: Running for 25000 steps
ETITLE: TS BOND ANGLE DIHED IMPRP ELECT VDW BOUNDARY MISC KINETIC TOTAL TEMP POTENTIAL TOTAL3 TEMPAVG PRESSURE GPRESSURE VOLUME PRESSAVG GPRESSAVG
ENERGY: 0 0.5051 0.5625 13.8582 0.0000 -21844.7926 3794.8074 0.0000 0.0000 2873.0213 -15162.0381 302.0832 -18035.0594 -15161.4626 302.0832 252.3044 291.9783 66966.5738 252.3044 291.9783
ENERGY: 5000 0.4226 1.1161 14.2705 0.0000 -22976.4351 3993.3474 0.0000 0.0000 296.0183 -18671.2601 31.1248 -18967.2784 -18670.6258 48.4360 -33.2950 15.6073 46936.6200 1.1207 1.2489
ENERGY: 10000 0.1272 1.3503 14.3230 0.0000 -22930.2285 3935.7488 0.0000 0.0000 288.8000 -18689.8793 30.3658 -18978.6793 -18689.1939 30.3171 -392.7049 -352.7541 47039.3143 2.7623 2.9648
ENERGY: 15000 0.2144 1.0927 13.8878 0.0000 -23214.2670 4182.8149 0.0000 0.0000 280.2636 -18735.9936 29.4682 -19016.2571 -18735.0937 30.1923 907.1483 942.9308 46473.9298 0.2066 0.2518
ENERGY: 20000 0.1602 0.7223 14.2791 0.0000 -23188.5792 4139.3183 0.0000 0.0000 282.1472 -18751.9521 29.6663 -19034.0993 -18751.5771 30.0256 616.2360 665.6419 46476.3504 3.8057 4.0149
ENERGY: 25000 0.5151 1.1474 13.9939 0.0000 -23029.7954 3984.0467 0.0000 0.0000 275.9180 -18754.1743 29.0113 -19030.0923 -18753.2126 30.1731 -221.6411 -169.0699 46709.3019 6.7433 6.6608
TCL: Running 25000 steps at 60 kelvin.
TCL: Setting parameter langevinTemp to 60
TCL: Running for 25000 steps
ETITLE: TS BOND ANGLE DIHED IMPRP ELECT VDW BOUNDARY MISC KINETIC TOTAL TEMP POTENTIAL TOTAL3 TEMPAVG PRESSURE GPRESSURE VOLUME PRESSAVG GPRESSAVG
ENERGY: 25000 0.5151 1.1474 13.9939 0.0000 -23029.7954 3984.0467 0.0000 0.0000 275.7741 -18754.3182 28.9962 -19030.0923 -18753.7789 28.9962 -217.9581 -168.7795 46709.3019 -217.9581 -168.7795
ENERGY: 30000 0.2630 1.5824 14.5388 0.0000 -22720.4455 3988.9116 0.0000 0.0000 584.5532 -18130.5966 61.4627 -18715.1498 -18129.7411 57.1330 535.9073 601.3852 46835.9883 0.1372 0.2625
ENERGY: 35000 0.2978 1.7597 14.0139 0.0000 -22583.9898 3778.2506 0.0000 0.0000 572.4112 -18217.2566 60.1860 -18789.6678 -18215.8769 60.8124 -775.8076 -706.8357 47239.5065 2.5243 2.3344
ENERGY: 40000 0.2447 2.3792 13.6618 0.0000 -22760.5516 3922.1325 0.0000 0.0000 562.4378 -18259.6955 59.1374 -18822.1333 -18257.9965 60.2018 -68.2849 -37.2093 46969.1868 1.1375 1.1799
ENERGY: 45000 0.1911 2.8945 13.9330 0.0000 -22887.8261 4040.0651 0.0000 0.0000 557.2892 -18273.4533 58.5960 -18830.7425 -18271.7608 60.3229 500.6768 556.3458 46807.7219 2.6777 2.5427
ENERGY: 50000 0.3109 1.5104 14.1457 0.0000 -22745.1214 3885.1451 0.0000 0.0000 573.0400 -18270.9693 60.2522 -18844.0093 -18269.1251 60.3728 -313.0852 -249.7256 46910.2356 3.2668 3.3843
TCL: Running 25000 steps at 90 kelvin.
TCL: Setting parameter langevinTemp to 90
TCL: Running for 25000 steps
ETITLE: TS BOND ANGLE DIHED IMPRP ELECT VDW BOUNDARY MISC KINETIC TOTAL TEMP POTENTIAL TOTAL3 TEMPAVG PRESSURE GPRESSURE VOLUME PRESSAVG GPRESSAVG
ENERGY: 50000 0.3109 1.5104 14.1457 0.0000 -22745.1214 3885.1451 0.0000 0.0000 572.7352 -18271.2741 60.2201 -18844.0093 -18270.1724 60.2201 -313.2337 -249.3126 46910.2356 -313.2337 -249.3126
ENERGY: 55000 0.4448 2.3459 14.7350 0.0000 -22497.0696 3906.5867 0.0000 0.0000 882.1537 -17690.8034 92.7538 -18572.9571 -17687.9942 87.5580 464.2619 502.2299 47023.4942 6.4994 6.4322
ENERGY: 60000 0.2686 2.5426 14.3230 0.0000 -22530.3259 3914.3497 0.0000 0.0000 840.9645 -17757.8776 88.4230 -18598.8421 -17754.5456 90.7158 326.8125 404.6706 47069.4900 0.1768 0.5602
ENERGY: 65000 0.9340 2.6865 13.9685 0.0000 -22407.6140 3762.5743 0.0000 0.0000 859.5425 -17767.9081 90.3764 -18627.4506 -17766.5389 90.0116 -494.5038 -441.5329 47162.4779 0.4971 0.3651
ENERGY: 70000 0.4118 3.6858 14.1500 0.0000 -22529.8303 3850.9827 0.0000 0.0000 869.0308 -17791.5691 91.3740 -18660.5999 -17789.1241 90.0092 -95.6205 -53.5003 47106.7010 2.3625 2.3748
ENERGY: 75000 0.1114 1.9519 14.4471 0.0000 -22598.3719 3899.1442 0.0000 0.0000 851.8313 -17830.8859 89.5656 -18682.7172 -17828.0472 89.5354 126.6268 164.2349 46918.9904 4.7480 4.3029
TCL: Running 25000 steps at 120 kelvin.
TCL: Setting parameter langevinTemp to 120
TCL: Running for 25000 steps
ETITLE: TS BOND ANGLE DIHED IMPRP ELECT VDW BOUNDARY MISC KINETIC TOTAL TEMP POTENTIAL TOTAL3 TEMPAVG PRESSURE GPRESSURE VOLUME PRESSAVG GPRESSAVG
ENERGY: 75000 0.1114 1.9519 14.4471 0.0000 -22598.3719 3899.1442 0.0000 0.0000 851.3989 -17831.3183 89.5201 -18682.7172 -17829.6288 89.5201 110.5956 164.4458 46918.9904 110.5956 164.4458
ENERGY: 80000 0.9015 2.3264 14.4980 0.0000 -21981.3888 3632.3270 0.0000 0.0000 1144.9247 -17186.4111 120.3828 -18331.3358 -17181.9301 116.8547 -442.0719 -367.4079 47280.0461 7.6349 7.4066
ENERGY: 85000 0.8950 2.8237 15.2962 0.0000 -22135.6101 3735.0640 0.0000 0.0000 1132.6600 -17248.8712 119.0933 -18381.5312 -17246.7221 119.7338 -17.1649 23.2643 47187.0364 4.3159 4.2164
ENERGY: 90000 0.4512 2.3876 14.5246 0.0000 -22125.1504 3672.7721 0.0000 0.0000 1156.5871 -17278.4278 121.6091 -18435.0150 -17277.6248 119.6647 -413.6813 -374.3494 47224.9514 3.3795 3.2319
ENERGY: 95000 0.5129 4.1725 15.2152 0.0000 -22217.2107 3774.7091 0.0000 0.0000 1148.8445 -17273.7566 120.7950 -18422.6011 -17271.7245 120.6749 72.6585 112.3682 47154.3348 2.3842 2.0937
ENERGY: 100000 0.4588 2.1024 14.6910 0.0000 -22147.9752 3709.8724 0.0000 0.0000 1164.0344 -17256.8163 122.3921 -18420.8506 -17253.8759 120.9949 -188.7267 -127.4275 47207.2423 3.0159 2.9531
TCL: Running 25000 steps at 150 kelvin.
TCL: Setting parameter langevinTemp to 150
TCL: Running for 25000 steps
ETITLE: TS BOND ANGLE DIHED IMPRP ELECT VDW BOUNDARY MISC KINETIC TOTAL TEMP POTENTIAL TOTAL3 TEMPAVG PRESSURE GPRESSURE VOLUME PRESSAVG GPRESSAVG
ENERGY: 100000 0.4588 2.1024 14.6910 0.0000 -22147.9752 3709.8724 0.0000 0.0000 1163.4370 -17257.4136 122.3293 -18420.8506 -17255.1920 122.3293 -171.2722 -127.2724 47207.2423 -171.2722 -127.2724
ENERGY: 105000 0.5321 3.2275 14.3360 0.0000 -21607.0516 3534.9864 0.0000 0.0000 1434.3426 -16619.6269 150.8136 -18053.9695 -16615.1821 146.4030 -274.1736 -215.3631 47434.1063 3.9948 3.9738
ENERGY: 110000 1.0362 5.2806 15.8031 0.0000 -21632.6946 3545.9443 0.0000 0.0000 1468.1571 -16596.4733 154.3690 -18064.6304 -16592.2577 150.7326 -254.8801 -196.9981 47487.4937 1.5560 1.8936
ENERGY: 115000 0.4559 1.8019 14.9139 0.0000 -21642.7188 3542.0988 0.0000 0.0000 1434.6758 -16648.7724 150.8487 -18083.4482 -16645.2833 149.9126 -253.1534 -170.9112 47237.9306 2.1202 2.3351
ENERGY: 120000 2.0820 1.9765 15.0821 0.0000 -21797.1785 3651.3287 0.0000 0.0000 1417.7190 -16708.9901 149.0657 -18126.7092 -16706.4355 150.0315 98.9077 150.3836 47428.6417 -1.9492 -2.0457
ENERGY: 125000 0.3451 4.4678 14.8522 0.0000 -21668.6705 3540.3956 0.0000 0.0000 1403.0673 -16705.5425 147.5252 -18108.6098 -16703.7608 151.0148 -355.1680 -336.3988 47417.9987 1.1671 0.7700
TCL: Running 50000 steps at 180 kelvin.
TCL: Setting parameter langevinTemp to 180
TCL: Running for 50000 steps
ETITLE: TS BOND ANGLE DIHED IMPRP ELECT VDW BOUNDARY MISC KINETIC TOTAL TEMP POTENTIAL TOTAL3 TEMPAVG PRESSURE GPRESSURE VOLUME PRESSAVG GPRESSAVG
ENERGY: 125000 0.3451 4.4678 14.8522 0.0000 -21668.6705 3540.3956 0.0000 0.0000 1402.3551 -16706.2547 147.4503 -18108.6098 -16703.6608 147.4503 -395.6443 -337.3865 47417.9987 -395.6443 -337.3865
ENERGY: 135000 0.5414 4.9934 15.1239 0.0000 -21225.3973 3541.9427 0.0000 0.0000 1740.9543 -15921.8416 183.0522 -17662.7959 -15918.7223 180.8394 631.1230 761.4406 47101.1590 3.7354 3.3676
ENERGY: 145000 0.7187 4.0515 15.2745 0.0000 -21004.0012 3280.2794 0.0000 0.0000 1726.0126 -15977.6645 181.4812 -17703.6771 -15972.9840 181.3631 -618.2973 -568.3732 47098.9170 -0.4917 -0.5563
ENERGY: 155000 2.7127 3.7941 15.7632 0.0000 -21134.8248 3394.5586 0.0000 0.0000 1677.5509 -16040.4454 176.3857 -17717.9963 -16035.6584 180.7532 -177.1727 -126.2307 46912.5817 3.6896 3.9188
ENERGY: 165000 0.4339 5.2357 14.8679 0.0000 -21311.8277 3505.9680 0.0000 0.0000 1763.6201 -16021.7021 185.4354 -17785.3222 -16017.6242 179.4907 506.4036 581.9188 46714.9941 -0.1045 0.2256
ENERGY: 175000 0.6281 2.6100 15.3488 0.0000 -21352.7290 3514.3583 0.0000 0.0000 1709.1029 -16110.6808 179.7032 -17819.7837 -16107.5307 178.8239 130.8145 165.0050 47226.3439 3.7067 3.6992
TCL: Running 50000 steps at 210 kelvin.
TCL: Setting parameter langevinTemp to 210
TCL: Running for 50000 steps
ETITLE: TS BOND ANGLE DIHED IMPRP ELECT VDW BOUNDARY MISC KINETIC TOTAL TEMP POTENTIAL TOTAL3 TEMPAVG PRESSURE GPRESSURE VOLUME PRESSAVG GPRESSAVG
ENERGY: 175000 0.6281 2.6100 15.3488 0.0000 -21352.7290 3514.3583 0.0000 0.0000 1708.2677 -16111.5160 179.6154 -17819.7837 -16108.1237 179.6154 93.2108 164.9523 47226.3439 93.2108 164.9523
ENERGY: 185000 0.4750 8.5081 14.0760 0.0000 -20202.1861 3120.9258 0.0000 0.0000 2022.7871 -15035.4141 212.6855 -17058.2012 -15031.4399 209.2269 159.6014 198.5350 46683.7036 0.9752 1.5383
ENERGY: 195000 1.7448 8.2985 14.9170 0.0000 -20252.6650 3129.0088 0.0000 0.0000 1951.5905 -15147.1054 205.1995 -17098.6959 -15142.8953 209.9868 363.6298 418.0745 46013.3287 0.8115 0.3500
ENERGY: 205000 1.2663 3.1905 16.6117 0.0000 -20255.9419 3171.1448 0.0000 0.0000 2039.4256 -15024.3030 214.4349 -17063.7286 -15019.3688 211.0366 496.9904 558.2967 46565.4531 -0.0358 0.0335
ENERGY: 215000 1.7521 4.7263 15.0565 0.0000 -20291.8002 3147.9411 0.0000 0.0000 2005.6811 -15116.6430 210.8869 -17122.3241 -15110.1627 209.1110 -88.0104 4.3872 46851.3281 0.1789 0.4876
ENERGY: 225000 1.9482 4.3307 14.8762 0.0000 -20020.2996 3042.6662 0.0000 0.0000 1997.1599 -14959.3184 209.9909 -16956.4783 -14955.0767 210.9949 -21.5377 81.3467 46487.7109 -0.9958 -1.6416
TCL: Running 50000 steps at 240 kelvin.
TCL: Setting parameter langevinTemp to 240
TCL: Running for 50000 steps
ETITLE: TS BOND ANGLE DIHED IMPRP ELECT VDW BOUNDARY MISC KINETIC TOTAL TEMP POTENTIAL TOTAL3 TEMPAVG PRESSURE GPRESSURE VOLUME PRESSAVG GPRESSAVG
ENERGY: 225000 1.9482 4.3307 14.8762 0.0000 -20020.2996 3042.6662 0.0000 0.0000 1996.1388 -14960.3395 209.8836 -16956.4783 -14957.2009 209.8836 2.6607 82.7894 46487.7109 2.6607 82.7894
ENERGY: 235000 1.2158 4.3765 15.1603 0.0000 -19171.7527 2832.5133 0.0000 0.0000 2266.6402 -14051.8465 238.3254 -16318.4868 -14047.6192 241.4204 186.2092 306.5452 47150.4907 -2.9647 -2.8371
ENERGY: 245000 1.5814 4.7313 14.4516 0.0000 -19111.9381 2758.1688 0.0000 0.0000 2273.9540 -14059.0510 239.0944 -16333.0050 -14052.7786 238.3100 -158.4427 -67.5974 47082.2476 1.4299 1.7245
ENERGY: 255000 1.0253 3.3086 13.5571 0.0000 -19134.5262 2819.1253 0.0000 0.0000 2288.2742 -14009.2358 240.6001 -16297.5100 -14002.6670 240.5476 166.5125 254.3756 47122.1239 6.8404 6.9338
ENERGY: 265000 2.1628 6.5424 13.9712 0.0000 -19121.2600 2761.3382 0.0000 0.0000 2269.2160 -14068.0296 238.5962 -16337.2455 -14063.9613 241.4460 -126.8835 -30.6217 46984.6873 0.7719 1.0930
ENERGY: 275000 1.2896 6.1578 15.4296 0.0000 -18998.7075 2692.7862 0.0000 0.0000 2225.0978 -14057.9465 233.9574 -16283.0443 -14052.9035 239.3439 -479.1819 -399.6336 47341.0848 0.0643 -0.5370
TCL: Running 50000 steps at 270 kelvin.
TCL: Setting parameter langevinTemp to 270
TCL: Running for 50000 steps
ETITLE: TS BOND ANGLE DIHED IMPRP ELECT VDW BOUNDARY MISC KINETIC TOTAL TEMP POTENTIAL TOTAL3 TEMPAVG PRESSURE GPRESSURE VOLUME PRESSAVG GPRESSAVG
ENERGY: 275000 1.2896 6.1578 15.4296 0.0000 -18998.7075 2692.7862 0.0000 0.0000 2223.9813 -14059.0630 233.8400 -16283.0443 -14055.5478 233.8400 -483.9748 -399.1968 47341.0848 -483.9748 -399.1968
ENERGY: 285000 1.4628 8.0900 13.8048 0.0000 -18352.7468 2546.1288 0.0000 0.0000 2542.3503 -13240.9101 267.3148 -15783.2604 -13237.2029 269.3072 -119.8626 -20.1342 47450.0562 1.5619 1.5196
ENERGY: 295000 0.4348 10.9640 14.4632 0.0000 -18329.2638 2595.3591 0.0000 0.0000 2549.6062 -13158.4366 268.0778 -15708.0428 -13153.8768 267.9971 12.6380 95.9391 48208.5170 7.0037 6.8250
ENERGY: 305000 2.6970 6.7943 13.4138 0.0000 -18258.1461 2576.5565 0.0000 0.0000 2548.3634 -13110.3211 267.9471 -15658.6845 -13104.5680 269.6351 -168.9716 -72.3567 48451.6460 3.9996 4.2314
ENERGY: 315000 0.6471 10.8796 15.9637 0.0000 -18078.0700 2444.9125 0.0000 0.0000 2575.0369 -13030.6302 270.7517 -15605.6671 -13024.9034 271.6714 -411.1681 -340.5172 48239.9958 1.5499 2.2164
ENERGY: 325000 0.8474 7.2533 13.8959 0.0000 -18056.8471 2425.0256 0.0000 0.0000 2498.6952 -13111.1298 262.7247 -15609.8250 -13107.0798 270.2846 -830.3332 -743.0416 48749.6930 2.2813 2.3867
TCL: Running 1000000 steps at 300 kelvin.
TCL: Setting parameter langevinTemp to 300
TCL: Running for 1000000 steps
ETITLE: TS BOND ANGLE DIHED IMPRP ELECT VDW BOUNDARY MISC KINETIC TOTAL TEMP POTENTIAL TOTAL3 TEMPAVG PRESSURE GPRESSURE VOLUME PRESSAVG GPRESSAVG
ENERGY: 325000 0.8474 7.2533 13.8959 0.0000 -18056.8471 2425.0256 0.0000 0.0000 2497.4284 -13112.3966 262.5915 -15609.8250 -13108.6363 262.5915 -838.5933 -743.5496 48749.6930 -838.5933 -743.5496
ENERGY: 525000 1.7856 5.9623 14.5755 0.0000 -17435.6117 2395.9632 0.0000 0.0000 2870.7149 -12146.6101 301.8407 -15017.3250 -12141.3195 299.3348 233.5429 343.0187 49112.5479 -5.3445 -5.7686
ENERGY: 725000 3.6142 6.0885 14.8428 0.0000 -17509.7743 2436.3143 0.0000 0.0000 2822.1604 -12226.7540 296.7354 -15048.9144 -12222.3812 298.1833 560.9493 604.2580 48609.9887 0.5704 0.3956
ENERGY: 925000 0.9234 8.2345 13.3267 0.0000 -17453.3242 2371.4748 0.0000 0.0000 2877.8533 -12181.5116 302.5912 -15059.3649 -12176.2804 300.5971 -121.5101 -103.2934 49884.1710 2.7338 2.6335
ENERGY: 1125000 1.6125 11.3580 16.5903 0.0000 -17059.5132 2109.0958 0.0000 0.0000 2831.2320 -12089.6246 297.6893 -14920.8566 -12085.7996 299.2716 -1034.9982 -976.2892 49895.4447 -0.2727 -0.6015
ENERGY: 1325000 3.3275 5.6074 15.2076 0.0000 -17485.1037 2361.0624 0.0000 0.0000 2813.9152 -12285.9836 295.8685 -15099.8987 -12281.2472 298.3466 -231.2790 -145.7921 49510.4299 0.1580 0.2753
TCL: Exiting due to exit command.
