Info: SIMULATION PARAMETERS:
Info: TIMESTEP               2
Info: NUMBER OF STEPS        0
Info: STEPS PER CYCLE        10
Info: PERIODIC CELL BASIS 1  41.123 0 0
Info: PERIODIC CELL BASIS 2  0 40.343 0
Info: PERIODIC CELL BASIS 3  0 0 40.47
Info: PERIODIC CELL CENTER   0 0 0
Info: WRAPPING WATERS AROUND PERIODIC BOUNDARIES ON OUTPUT.
Info: WRAPPING ALL CLUSTERS AROUND PERIODIC BOUNDARIES ON OUTPUT.
Info: FIRST LDB TIMESTEP     50
Info: LAST LDB TIMESTEP     -1
Info: HOM BACKGROUND SCALING 1
Info: PME BACKGROUND SCALING 1
Info: MIN ATOMS PER PATCH    40
Info: EMPTY PATCH LOAD       40 ATOMS
Info: INITIAL TEMPERATURE    300
Info: CENTER OF MASS MOVING INITIALLY? NO
Info: DIELECTRIC             1
Info: EXCLUDE                SCALED ONE-FOUR
Info: 1-4 ELECTROSTATICS SCALED BY 0.833333
Info: MODIFIED 1-4 VDW PARAMETERS WILL BE USED
Info: DCD FILENAME           mobley_1899443_min.dcd
Info: DCD FREQUENCY          5000
Info: DCD FIRST STEP         5000
Info: DCD FILE WILL CONTAIN UNIT CELL DATA
Info: XST FILENAME           mobley_1899443_min.xst
Info: XST FREQUENCY          5000
Info: NO VELOCITY DCD OUTPUT
Info: NO FORCE DCD OUTPUT
Info: OUTPUT FILENAME        mobley_1899443_min
Info: BINARY OUTPUT FILES WILL BE USED
Info: RESTART FILENAME       mobley_1899443_min.restart
Info: RESTART FREQUENCY      5000
Info: BINARY RESTART FILES WILL BE USED
Info: CUTOFF                 9
Info: PAIRLIST DISTANCE      11
Info: PAIRLIST SHRINK RATE   0.01
Info: PAIRLIST GROW RATE     0.01
Info: PAIRLIST TRIGGER       0.3
Info: PAIRLISTS PER CYCLE    2
Info: PAIRLISTS ENABLED
Info: MARGIN                 8
Info: HYDROGEN GROUP CUTOFF  2.5
Info: PATCH DIMENSION        21.5
Info: ENERGY OUTPUT STEPS    5000
Info: ENERGY EVALUATION STEPS    5000
Info: OUTPUT ENERGY PRECISION 4
Info: CROSSTERM ENERGY INCLUDED IN DIHEDRAL
Info: TIMING OUTPUT STEPS    50000
Info: PRESSURE OUTPUT STEPS  5000
Info: LANGEVIN DYNAMICS ACTIVE
Info: LANGEVIN TEMPERATURE   300
Info: LANGEVIN USING BBK INTEGRATOR
Info: LANGEVIN DAMPING COEFFICIENT IS 1 INVERSE PS
Info: LANGEVIN DYNAMICS APPLIED TO HYDROGENS
Info: LANGEVIN PISTON PRESSURE CONTROL ACTIVE
Info:        TARGET PRESSURE IS 1.01325 BAR
Info:     OSCILLATION PERIOD IS 50 FS
Info:             DECAY TIME IS 25 FS
Info:     PISTON TEMPERATURE IS 300 K
Info:       PRESSURE CONTROL IS GROUP-BASED
Info:    INITIAL STRAIN RATE IS 0 0 0
Info:       CELL FLUCTUATION IS ISOTROPIC
Info: PARTICLE MESH EWALD (PME) ACTIVE
Info: PME TOLERANCE               1e-06
Info: PME EWALD COEFFICIENT       0.348832
Info: PME INTERPOLATION ORDER     4
Info: PME GRID DIMENSIONS         44 44 44
Info: PME MAXIMUM GRID SPACING    1
Info: FULL ELECTROSTATIC EVALUATION FREQUENCY      2
Info: USING VERLET I (r-RESPA) MTS SCHEME.
Info: C1 SPLITTING OF LONG RANGE ELECTROSTATICS
Info: PLACING ATOMS IN PATCHES BY HYDROGEN GROUPS
Info: RIGID BONDS TO HYDROGEN : ALL
Info:         ERROR TOLERANCE : 1e-08
Info:          MAX ITERATIONS : 100
Info: RIGID WATER USING SETTLE ALGORITHM
Info: RANDOM NUMBER SEED     1741314923
Info: USE HYDROGEN BONDS?    NO
Info: Using AMBER format force field!
Info: AMBER PARM FILE        mobley_1899443.prmtop
Info: COORDINATE PDB         mobley_1899443.pdb
Info: Exclusions will be read from PARM file!
Info: SCNB (VDW SCALING)     2
Info: USING ARITHMETIC MEAN TO COMBINE L-J SIGMA PARAMETERS
Info: SUMMARY OF PARAMETERS:
Info: 7 BONDS
Info: 9 ANGLES
Info:   9 HARMONIC
Info:   0 COSINE-BASED
Info: 7 DIHEDRAL
Info: 0 IMPROPER
Info: 0 CROSSTERM
Info: 0 VDW
Info: 21 VDW_PAIRS
Info: 0 NBTHOLE_PAIRS
Info: STRUCTURE SUMMARY:
Info: 4872 ATOMS
Info: 4871 BONDS
Info: 30 ANGLES
Info: 34 DIHEDRALS
Info: 0 IMPROPERS
Info: 0 CROSSTERMS
Info: 4935 EXCLUSIONS
Info: 4866 RIGID BONDS
Info: 9750 DEGREES OF FREEDOM
Info: 1624 HYDROGEN GROUPS
Info: 4 ATOMS IN LARGEST HYDROGEN GROUP
Info: 1624 MIGRATION GROUPS
Info: 4 ATOMS IN LARGEST MIGRATION GROUP
Info: TOTAL MASS = 29234 amu
Info: TOTAL CHARGE = -0.000100013 e
Info: MASS DENSITY = 0.723039 g/cm^3
Info: ATOM DENSITY = 0.072564 atoms/A^3
Info: ADDED 0 IMPLICIT EXCLUSIONS
Info: NONBONDED TABLE R-SQUARED SPACING: 0.0625
Info: NONBONDED TABLE SIZE: 705 POINTS
Info: REMOVING COM VELOCITY -0.132856 -0.0479649 -0.0434988
TCL: Minimizing for 2000 steps
ETITLE: TS BOND ANGLE DIHED IMPRP ELECT VDW BOUNDARY MISC KINETIC TOTAL TEMP POTENTIAL TOTAL3 TEMPAVG PRESSURE GPRESSURE VOLUME PRESSAVG GPRESSAVG
ENERGY: 0 0.0746 0.8096 1.1989 0.0000 -15290.5078 1745.7829 0.0000 0.0000 0.0000 -13542.6417 0.0000 -13542.6417 -13542.6417 0.0000 11288.4434 -15911.9954 67140.7494 11288.4434 -15911.9954
ENERGY: 400 1.9868 1.7333 0.4168 0.0000 -20648.3344 3113.4964 0.0000 0.0000 0.0000 -17530.7011 0.0000 -17530.7011 -17530.7011 0.0000 16566.4858 16738.7325 67140.7494 16566.4858 16738.7325
ENERGY: 800 0.8278 0.8262 0.2278 0.0000 -21520.1628 3470.3925 0.0000 0.0000 0.0000 -18047.8885 0.0000 -18047.8885 -18047.8885 0.0000 18272.9816 18394.1759 67140.7494 18272.9816 18394.1759
ENERGY: 1200 0.8142 0.8101 0.2027 0.0000 -21930.5857 3649.9716 0.0000 0.0000 0.0000 -18278.7871 0.0000 -18278.7871 -18278.7871 0.0000 19172.1190 19286.9825 67140.7494 19172.1190 19286.9825
ENERGY: 1600 0.3303 0.5545 0.2269 0.0000 -22177.0167 3771.2182 0.0000 0.0000 0.0000 -18404.6868 0.0000 -18404.6868 -18404.6868 0.0000 19801.7726 19886.5500 67140.7494 19801.7726 19886.5500
ENERGY: 2000 0.1836 0.5634 0.1900 0.0000 -22324.6372 3837.7807 0.0000 0.0000 0.0000 -18485.9196 0.0000 -18485.9196 -18485.9196 0.0000 20136.0428 20226.7068 67140.7494 20136.0428 20226.7068
TCL: Exiting due to exit command.
Info: NAMD 3.0.1 for Linux-x86_64-multicore
Info: Please visit http://www.ks.uiuc.edu/Research/namd/
Info: for updates, documentation, and support information.
Info: Please cite Phillips et al., J. Chem. Phys. 153:044130 (2020) doi:10.1063/5.0014475
Info: in all publications reporting results obtained with NAMD.
Info: Based on Charm++/Converse 80000 for multicore-linux-x86_64-gcc
Info: Built Mon Oct 14 11:11:06 CDT 2024 by dhardy on athine.ks.uiuc.edu
Info: 1 NAMD  3.0.1  Linux-x86_64-multicore  16    k007  z5358697
Info: Running on 16 processors, 1 nodes, 1 physical nodes.
Info: CPU topology information available.
Info: Charm++/Converse parallel runtime startup completed at 0.0105528 s
Info: 1043.45 MB of memory in use based on /proc/self/stat
Info: Configuration file is mobley_1899443_equil.namd
Info: Working in the current directory /srv/scratch/z5358697/prod_prep_1/1899443
TCL: Running 25000 steps at 30 kelvin.
TCL: Suspending until startup complete.
Info: SIMULATION PARAMETERS:
Info: TIMESTEP               2
Info: NUMBER OF STEPS        0
Info: STEPS PER CYCLE        10
Info: PERIODIC CELL BASIS 1  41.123 0 0
Info: PERIODIC CELL BASIS 2  0 40.343 0
Info: PERIODIC CELL BASIS 3  0 0 40.47
Info: PERIODIC CELL CENTER   0 0 0
Info: WRAPPING WATERS AROUND PERIODIC BOUNDARIES ON OUTPUT.
Info: WRAPPING ALL CLUSTERS AROUND PERIODIC BOUNDARIES ON OUTPUT.
Info: FIRST LDB TIMESTEP     50
Info: LAST LDB TIMESTEP     -1
Info: HOM BACKGROUND SCALING 1
Info: PME BACKGROUND SCALING 1
Info: MIN ATOMS PER PATCH    40
Info: EMPTY PATCH LOAD       40 ATOMS
Info: INITIAL TEMPERATURE    300
Info: CENTER OF MASS MOVING INITIALLY? NO
Info: DIELECTRIC             1
Info: EXCLUDE                SCALED ONE-FOUR
Info: 1-4 ELECTROSTATICS SCALED BY 0.833333
Info: MODIFIED 1-4 VDW PARAMETERS WILL BE USED
Info: DCD FILENAME           mobley_1899443_equil.dcd
Info: DCD FREQUENCY          5000
Info: DCD FIRST STEP         5000
Info: DCD FILE WILL CONTAIN UNIT CELL DATA
Info: XST FILENAME           mobley_1899443_equil.xst
Info: XST FREQUENCY          5000
Info: NO VELOCITY DCD OUTPUT
Info: NO FORCE DCD OUTPUT
Info: OUTPUT FILENAME        mobley_1899443_equil
Info: BINARY OUTPUT FILES WILL BE USED
Info: RESTART FILENAME       mobley_1899443_equil.restart
Info: RESTART FREQUENCY      5000
Info: BINARY RESTART FILES WILL BE USED
Info: CUTOFF                 9
Info: PAIRLIST DISTANCE      11
Info: PAIRLIST SHRINK RATE   0.01
Info: PAIRLIST GROW RATE     0.01
Info: PAIRLIST TRIGGER       0.3
Info: PAIRLISTS PER CYCLE    2
Info: PAIRLISTS ENABLED
Info: MARGIN                 8
Info: HYDROGEN GROUP CUTOFF  2.5
Info: PATCH DIMENSION        21.5
Info: ENERGY OUTPUT STEPS    5000
Info: ENERGY EVALUATION STEPS    5000
Info: OUTPUT ENERGY PRECISION 4
Info: CROSSTERM ENERGY INCLUDED IN DIHEDRAL
Info: TIMING OUTPUT STEPS    50000
Info: PRESSURE OUTPUT STEPS  5000
Info: LANGEVIN DYNAMICS ACTIVE
Info: LANGEVIN TEMPERATURE   30
Info: LANGEVIN USING BBK INTEGRATOR
Info: LANGEVIN DAMPING COEFFICIENT IS 1 INVERSE PS
Info: LANGEVIN DYNAMICS APPLIED TO HYDROGENS
Info: LANGEVIN PISTON PRESSURE CONTROL ACTIVE
Info:        TARGET PRESSURE IS 1.01325 BAR
Info:     OSCILLATION PERIOD IS 50 FS
Info:             DECAY TIME IS 25 FS
Info:     PISTON TEMPERATURE IS 300 K
Info:       PRESSURE CONTROL IS GROUP-BASED
Info:    INITIAL STRAIN RATE IS 0 0 0
Info:       CELL FLUCTUATION IS ISOTROPIC
Info: PARTICLE MESH EWALD (PME) ACTIVE
Info: PME TOLERANCE               1e-06
Info: PME EWALD COEFFICIENT       0.348832
Info: PME INTERPOLATION ORDER     4
Info: PME GRID DIMENSIONS         44 44 44
Info: PME MAXIMUM GRID SPACING    1
Info: FULL ELECTROSTATIC EVALUATION FREQUENCY      2
Info: USING VERLET I (r-RESPA) MTS SCHEME.
Info: C1 SPLITTING OF LONG RANGE ELECTROSTATICS
Info: PLACING ATOMS IN PATCHES BY HYDROGEN GROUPS
Info: RIGID BONDS TO HYDROGEN : ALL
Info:         ERROR TOLERANCE : 1e-08
Info:          MAX ITERATIONS : 100
Info: RIGID WATER USING SETTLE ALGORITHM
Info: RANDOM NUMBER SEED     1741314939
Info: USE HYDROGEN BONDS?    NO
Info: Using AMBER format force field!
Info: AMBER PARM FILE        mobley_1899443.prmtop
Info: COORDINATE PDB         mobley_1899443.pdb
Info: Exclusions will be read from PARM file!
Info: SCNB (VDW SCALING)     2
Info: USING ARITHMETIC MEAN TO COMBINE L-J SIGMA PARAMETERS
Info: BINARY COORDINATES     mobley_1899443_min.coor
Info: SUMMARY OF PARAMETERS:
Info: 7 BONDS
Info: 9 ANGLES
Info: 7 DIHEDRAL
Info: 0 IMPROPER
Info: 0 CROSSTERM
Info: 0 VDW
Info: 21 VDW_PAIRS
Info: 0 NBTHOLE_PAIRS
Info: STRUCTURE SUMMARY:
Info: 4872 ATOMS
Info: 4871 BONDS
Info: 30 ANGLES
Info: 34 DIHEDRALS
Info: 0 IMPROPERS
Info: 0 CROSSTERMS
Info: 4935 EXCLUSIONS
Info: 4866 RIGID BONDS
Info: 9750 DEGREES OF FREEDOM
Info: 1624 HYDROGEN GROUPS
Info: 4 ATOMS IN LARGEST HYDROGEN GROUP
Info: 1624 MIGRATION GROUPS
Info: 4 ATOMS IN LARGEST MIGRATION GROUP
Info: TOTAL MASS = 29234 amu
Info: TOTAL CHARGE = -0.000100013 e
Info: MASS DENSITY = 0.723039 g/cm^3
Info: ATOM DENSITY = 0.072564 atoms/A^3
Info: ADDED 0 IMPLICIT EXCLUSIONS
Info: NONBONDED TABLE R-SQUARED SPACING: 0.0625
Info: NONBONDED TABLE SIZE: 705 POINTS
Info: REMOVING COM VELOCITY -0.148004 -0.0612801 0.0826001
TCL: Running for 25000 steps
ETITLE: TS BOND ANGLE DIHED IMPRP ELECT VDW BOUNDARY MISC KINETIC TOTAL TEMP POTENTIAL TOTAL3 TEMPAVG PRESSURE GPRESSURE VOLUME PRESSAVG GPRESSAVG
ENERGY: 0 0.1836 0.5634 0.1900 0.0000 -22324.6372 3837.7807 0.0000 0.0000 2880.6857 -15605.2339 297.3594 -18485.9196 -15604.6491 297.3594 263.8047 299.1698 67140.7494 263.8047 299.1698
ENERGY: 5000 0.3117 1.4964 0.4723 0.0000 -23317.6990 3971.7684 0.0000 0.0000 298.3211 -19045.3292 30.7943 -19343.6503 -19044.6408 47.8391 -197.7952 -131.0699 46692.7998 4.5900 4.6606
ENERGY: 10000 0.4041 1.1590 0.9419 0.0000 -23258.3692 3893.3062 0.0000 0.0000 289.4384 -19073.1195 29.8773 -19362.5580 -19072.1720 30.2148 -680.5284 -640.7949 46799.5187 2.8847 2.9731
ENERGY: 15000 0.2166 0.9980 0.5995 0.0000 -23497.9049 4075.9369 0.0000 0.0000 292.8058 -19127.3482 30.2249 -19420.1539 -19126.1511 30.4838 272.6170 333.2062 46209.5305 8.9718 8.7314
ENERGY: 20000 0.2217 1.1040 0.4112 0.0000 -23336.2830 3901.4217 0.0000 0.0000 286.7838 -19146.3405 29.6033 -19433.1244 -19145.3982 30.0667 -748.1568 -660.4630 46411.5665 2.5049 2.3651
ENERGY: 25000 0.2125 1.1212 0.5784 0.0000 -23436.0689 3988.9204 0.0000 0.0000 290.3559 -19154.8806 29.9720 -19445.2364 -19154.0425 29.9764 -268.3112 -191.7830 46207.4607 6.9274 7.0187
TCL: Running 25000 steps at 60 kelvin.
TCL: Setting parameter langevinTemp to 60
TCL: Running for 25000 steps
ETITLE: TS BOND ANGLE DIHED IMPRP ELECT VDW BOUNDARY MISC KINETIC TOTAL TEMP POTENTIAL TOTAL3 TEMPAVG PRESSURE GPRESSURE VOLUME PRESSAVG GPRESSAVG
ENERGY: 25000 0.2125 1.1212 0.5784 0.0000 -23436.0689 3988.9204 0.0000 0.0000 290.2149 -19155.0216 29.9575 -19445.2364 -19154.3435 29.9575 -250.7886 -191.8665 46207.4607 -250.7886 -191.8665
ENERGY: 30000 0.1719 2.7590 1.0546 0.0000 -23104.5925 3940.4887 0.0000 0.0000 589.3801 -18570.7383 60.8389 -19160.1183 -18569.4963 57.2723 120.1551 173.4601 46459.5076 3.5794 3.3669
ENERGY: 35000 0.3753 2.1867 0.2904 0.0000 -23279.3048 4068.7913 0.0000 0.0000 597.0586 -18610.6025 61.6315 -19207.6611 -18609.7154 60.1909 802.4500 877.9771 46010.8372 3.8852 3.6216
ENERGY: 40000 1.0496 1.5716 0.4986 0.0000 -23159.8763 3937.8075 0.0000 0.0000 587.5519 -18631.3971 60.6502 -19218.9489 -18630.1112 60.0089 -17.2017 41.4828 46381.2428 1.9063 1.8920
ENERGY: 45000 0.3900 1.8574 1.3813 0.0000 -23374.5725 4110.0853 0.0000 0.0000 581.7251 -18679.1335 60.0487 -19260.8586 -18677.6396 60.1094 806.7898 850.5478 46254.3795 4.2759 4.1961
ENERGY: 50000 0.1392 1.8606 0.5255 0.0000 -23148.8813 3883.2832 0.0000 0.0000 574.1554 -18688.9173 59.2673 -19263.0727 -18687.0354 60.3012 -388.4230 -347.8920 46579.6395 1.3445 1.1656
TCL: Running 25000 steps at 90 kelvin.
TCL: Setting parameter langevinTemp to 90
TCL: Running for 25000 steps
ETITLE: TS BOND ANGLE DIHED IMPRP ELECT VDW BOUNDARY MISC KINETIC TOTAL TEMP POTENTIAL TOTAL3 TEMPAVG PRESSURE GPRESSURE VOLUME PRESSAVG GPRESSAVG
ENERGY: 50000 0.1392 1.8606 0.5255 0.0000 -23148.8813 3883.2832 0.0000 0.0000 573.8745 -18689.1983 59.2383 -19263.0727 -18687.7881 59.2383 -406.0279 -347.7893 46579.6395 -406.0279 -347.7893
ENERGY: 55000 0.0181 3.1221 0.8614 0.0000 -22754.8140 3810.6836 0.0000 0.0000 866.7273 -18073.4016 89.4681 -18940.1289 -18070.2381 87.5628 -131.1983 -97.5700 46898.6869 4.4618 4.3628
ENERGY: 60000 0.5231 2.1146 0.5399 0.0000 -22890.3722 3888.1530 0.0000 0.0000 885.7129 -18113.3287 91.4279 -18999.0416 -18111.1999 89.8319 93.2571 180.9394 46791.1180 8.3296 8.4881
ENERGY: 65000 1.2160 2.1547 0.6789 0.0000 -22856.1128 3859.0944 0.0000 0.0000 853.7062 -18139.2627 88.1240 -18992.9689 -18137.1966 90.1328 21.4226 57.8408 46711.1203 4.1784 4.2441
ENERGY: 70000 0.5885 2.6432 0.9760 0.0000 -23043.6091 4027.6213 0.0000 0.0000 865.5395 -18146.2406 89.3455 -19011.7801 -18144.5034 90.1970 824.7845 858.7058 46720.0035 0.7712 0.7832
ENERGY: 75000 0.1710 1.8674 1.2715 0.0000 -23079.2608 4034.7672 0.0000 0.0000 863.6369 -18177.5469 89.1491 -19041.1838 -18174.9416 90.4145 850.5558 931.6652 46501.0300 4.8812 4.7269
TCL: Running 25000 steps at 120 kelvin.
TCL: Setting parameter langevinTemp to 120
TCL: Running for 25000 steps
ETITLE: TS BOND ANGLE DIHED IMPRP ELECT VDW BOUNDARY MISC KINETIC TOTAL TEMP POTENTIAL TOTAL3 TEMPAVG PRESSURE GPRESSURE VOLUME PRESSAVG GPRESSAVG
ENERGY: 75000 0.1710 1.8674 1.2715 0.0000 -23079.2608 4034.7672 0.0000 0.0000 863.1895 -18177.9943 89.1029 -19041.1838 -18176.1361 89.1029 872.5402 932.0081 46501.0300 872.5402 932.0081
ENERGY: 80000 0.4185 2.0517 0.4579 0.0000 -22570.3826 3857.0273 0.0000 0.0000 1168.3023 -17542.1249 120.5982 -18710.4272 -17538.5201 117.3950 582.5125 648.4255 47016.7300 1.5333 1.7604
ENERGY: 85000 1.7927 2.3860 2.0865 0.0000 -22477.5863 3745.5402 0.0000 0.0000 1181.9498 -17543.8311 122.0070 -18725.7809 -17539.5975 119.7657 -29.8125 -5.5590 47090.0304 3.6665 3.5630
ENERGY: 90000 0.3356 4.6943 0.3379 0.0000 -22479.6341 3697.2953 0.0000 0.0000 1143.2885 -17633.6825 118.0162 -18776.9710 -17629.7592 119.8575 -409.2172 -357.1437 47377.3938 4.3211 4.5338
ENERGY: 95000 0.4849 2.7501 1.4086 0.0000 -22650.2157 3846.8760 0.0000 0.0000 1197.8535 -17600.8427 123.6487 -18798.6962 -17597.5820 120.4439 314.6197 374.8253 47207.6742 8.2895 8.1702
ENERGY: 100000 0.6569 3.3327 1.9463 0.0000 -22623.5105 3795.9117 0.0000 0.0000 1180.6099 -17641.0530 121.8687 -18821.6629 -17638.5927 120.4374 -55.4230 -16.5795 47271.5650 4.6656 4.2187
TCL: Running 25000 steps at 150 kelvin.
TCL: Setting parameter langevinTemp to 150
TCL: Running for 25000 steps
ETITLE: TS BOND ANGLE DIHED IMPRP ELECT VDW BOUNDARY MISC KINETIC TOTAL TEMP POTENTIAL TOTAL3 TEMPAVG PRESSURE GPRESSURE VOLUME PRESSAVG GPRESSAVG
ENERGY: 100000 0.6569 3.3327 1.9463 0.0000 -22623.5105 3795.9117 0.0000 0.0000 1180.0220 -17641.6409 121.8080 -18821.6629 -17639.2154 121.8080 -65.8468 -17.0504 47271.5650 -65.8468 -17.0504
ENERGY: 105000 0.0797 4.5173 2.4613 0.0000 -22002.3750 3543.8279 0.0000 0.0000 1435.2194 -17016.2696 148.1508 -18451.4889 -17012.4609 145.9737 -541.7473 -462.4796 47737.4011 4.7449 4.7633
ENERGY: 110000 0.8345 3.5469 0.9552 0.0000 -22040.2454 3554.0486 0.0000 0.0000 1445.1784 -17035.6817 149.1788 -18480.8601 -17031.1796 149.9946 -354.1536 -307.1434 47336.9541 6.3802 6.9474
ENERGY: 115000 2.5869 4.3707 0.5989 0.0000 -22037.8131 3518.2240 0.0000 0.0000 1468.7625 -17043.2701 151.6133 -18512.0326 -17038.7004 149.6135 -755.5855 -701.9788 47397.9718 3.7445 3.6448
ENERGY: 120000 1.8331 3.0353 2.6092 0.0000 -22158.1447 3628.1837 0.0000 0.0000 1437.4636 -17085.0197 148.3825 -18522.4833 -17080.4134 149.0261 -199.8051 -133.5906 47232.8752 3.1685 3.0893
ENERGY: 125000 1.3314 3.3305 0.9051 0.0000 -22287.7237 3722.0263 0.0000 0.0000 1426.5755 -17133.5548 147.2586 -18560.1304 -17128.7312 148.9389 411.8041 457.8617 46899.8162 3.5285 2.9721
TCL: Running 50000 steps at 180 kelvin.
TCL: Setting parameter langevinTemp to 180
TCL: Running for 50000 steps
ETITLE: TS BOND ANGLE DIHED IMPRP ELECT VDW BOUNDARY MISC KINETIC TOTAL TEMP POTENTIAL TOTAL3 TEMPAVG PRESSURE GPRESSURE VOLUME PRESSAVG GPRESSAVG
ENERGY: 125000 1.3314 3.3305 0.9051 0.0000 -22287.7237 3722.0263 0.0000 0.0000 1425.8644 -17134.2660 147.1851 -18560.1303 -17131.8613 147.1851 407.2573 459.7358 46899.8162 407.2573 459.7358
ENERGY: 135000 1.0753 2.6133 0.4841 0.0000 -21616.7905 3487.7532 0.0000 0.0000 1708.3646 -16416.5000 176.3463 -18124.8646 -16412.4920 178.6755 5.3856 16.7062 47688.6696 4.0149 4.1770
ENERGY: 145000 0.8323 5.9293 0.7877 0.0000 -21427.9410 3325.8786 0.0000 0.0000 1784.9190 -16309.5940 184.2486 -18094.5130 -16305.8776 181.8113 -651.7132 -581.6981 47586.9066 3.0584 3.7157
ENERGY: 155000 0.4300 6.6932 0.9954 0.0000 -21593.5681 3498.3532 0.0000 0.0000 1745.1122 -16341.9842 180.1396 -18087.0963 -16338.2192 179.6688 130.5851 226.6580 47407.5389 3.6019 2.7643
ENERGY: 165000 0.2816 4.2205 0.7467 0.0000 -21547.5935 3470.8957 0.0000 0.0000 1691.5484 -16379.9005 174.6104 -18071.4490 -16377.0291 180.7076 130.9981 182.6891 47383.5044 3.8075 3.7475
ENERGY: 175000 1.9520 6.4902 3.1081 0.0000 -21446.5873 3360.7828 0.0000 0.0000 1778.7537 -16295.5006 183.6122 -18074.2543 -16290.3841 180.5335 -565.1519 -484.0193 47717.4094 5.1512 5.1072
TCL: Running 50000 steps at 210 kelvin.
TCL: Setting parameter langevinTemp to 210
TCL: Running for 50000 steps
ETITLE: TS BOND ANGLE DIHED IMPRP ELECT VDW BOUNDARY MISC KINETIC TOTAL TEMP POTENTIAL TOTAL3 TEMPAVG PRESSURE GPRESSURE VOLUME PRESSAVG GPRESSAVG
ENERGY: 175000 1.9520 6.4902 3.1081 0.0000 -21446.5873 3360.7828 0.0000 0.0000 1777.8867 -16296.3676 183.5227 -18074.2543 -16293.0122 183.5227 -541.4629 -483.5333 47717.4094 -541.4629 -483.5333
ENERGY: 185000 0.3532 7.5553 0.8239 0.0000 -20632.6433 3165.0460 0.0000 0.0000 2024.7970 -15434.0679 209.0101 -17458.8648 -15428.7361 209.9538 -84.7007 -13.5474 47673.0112 4.0208 4.0661
ENERGY: 195000 0.4869 7.7143 1.6579 0.0000 -20702.2484 3274.4562 0.0000 0.0000 2042.8180 -15375.1151 210.8703 -17417.9331 -15370.0682 210.2490 612.0947 690.0243 47344.2762 1.8028 1.5834
ENERGY: 205000 1.5521 3.7141 1.9829 0.0000 -20634.0515 3267.7877 0.0000 0.0000 2026.8955 -15332.1192 209.2267 -17359.0147 -15328.1844 210.1460 715.9191 786.2035 47424.2582 3.7427 3.7220
ENERGY: 215000 1.1508 4.7647 0.7830 0.0000 -20459.5291 3100.5466 0.0000 0.0000 2026.1188 -15326.1652 209.1465 -17352.2840 -15320.7684 211.1064 -50.4662 38.7006 47081.5605 -1.4244 -1.0352
ENERGY: 225000 0.3144 7.6437 4.1443 0.0000 -20413.4906 3064.3993 0.0000 0.0000 2048.6462 -15288.3428 211.4719 -17336.9890 -15283.9935 209.1384 -231.9580 -153.6756 47534.8807 1.4414 1.6362
TCL: Running 50000 steps at 240 kelvin.
TCL: Setting parameter langevinTemp to 240
TCL: Running for 50000 steps
ETITLE: TS BOND ANGLE DIHED IMPRP ELECT VDW BOUNDARY MISC KINETIC TOTAL TEMP POTENTIAL TOTAL3 TEMPAVG PRESSURE GPRESSURE VOLUME PRESSAVG GPRESSAVG
ENERGY: 225000 0.3144 7.6437 4.1443 0.0000 -20413.4906 3064.3993 0.0000 0.0000 2047.6759 -15289.3131 211.3718 -17336.9890 -15285.6872 211.3718 -223.6211 -152.9627 47534.8807 -223.6211 -152.9627
ENERGY: 235000 1.0930 7.9844 1.8919 0.0000 -19311.3174 2636.7364 0.0000 0.0000 2409.2573 -14254.3543 248.6961 -16663.6116 -14249.0604 239.0286 -887.7050 -815.3007 47855.9652 1.3410 1.5262
ENERGY: 245000 1.3240 5.7091 2.1785 0.0000 -19263.6717 2662.6087 0.0000 0.0000 2322.3500 -14269.5013 239.7251 -16591.8513 -14265.0103 240.2715 -901.8658 -819.4104 48224.8034 6.6232 6.3556
ENERGY: 255000 2.2443 7.1239 1.2359 0.0000 -19679.2794 2944.9464 0.0000 0.0000 2300.3661 -14423.3628 237.4558 -16723.7289 -14417.9771 238.9410 220.6293 341.2844 47820.8225 0.2741 0.9875
ENERGY: 265000 0.4917 4.4684 1.0722 0.0000 -19488.3749 2870.1289 0.0000 0.0000 2299.8318 -14312.3819 237.4006 -16612.2137 -14308.1648 240.1047 258.8874 412.6969 47524.6840 1.0669 0.9503
ENERGY: 275000 2.5123 3.8958 3.3566 0.0000 -19565.5454 2847.5679 0.0000 0.0000 2333.1116 -14375.1012 240.8359 -16708.2128 -14370.5724 240.8837 -121.3530 -73.8816 48046.0238 4.3878 4.4274
TCL: Running 50000 steps at 270 kelvin.
TCL: Setting parameter langevinTemp to 270
TCL: Running for 50000 steps
ETITLE: TS BOND ANGLE DIHED IMPRP ELECT VDW BOUNDARY MISC KINETIC TOTAL TEMP POTENTIAL TOTAL3 TEMPAVG PRESSURE GPRESSURE VOLUME PRESSAVG GPRESSAVG
ENERGY: 275000 2.5123 3.8958 3.3566 0.0000 -19565.5454 2847.5679 0.0000 0.0000 2331.9530 -14376.2598 240.7163 -16708.2128 -14371.7633 240.7163 -139.0320 -74.1512 48046.0238 -139.0320 -74.1512
ENERGY: 285000 0.2500 7.0046 2.2768 0.0000 -18494.5520 2568.8536 0.0000 0.0000 2650.0989 -13266.0680 273.5570 -15916.1669 -13259.6568 270.1591 -42.0820 49.8278 48749.8707 -0.7014 -0.7093
ENERGY: 295000 1.2734 6.4615 1.9924 0.0000 -18496.5761 2620.8175 0.0000 0.0000 2667.4437 -13198.5875 275.3474 -15866.0312 -13194.6014 269.4825 285.4766 375.9909 48912.2546 2.0767 1.9569
ENERGY: 305000 0.5261 6.4544 2.4451 0.0000 -18711.2006 2690.7326 0.0000 0.0000 2581.7669 -13429.2754 266.5034 -16011.0424 -13423.2456 270.9463 487.3223 571.2743 48698.7532 0.3793 -0.0462
ENERGY: 315000 2.6784 5.1187 1.4235 0.0000 -18697.1348 2661.2863 0.0000 0.0000 2612.9818 -13413.6461 269.7256 -16026.6280 -13407.4657 268.2437 328.3563 411.1274 48622.8207 -2.5796 -2.4030
ENERGY: 325000 0.9234 6.5181 3.2471 0.0000 -18336.5367 2479.1684 0.0000 0.0000 2575.9149 -13270.7648 265.8994 -15846.6797 -13266.5009 273.0005 -575.4462 -487.8059 49621.1227 0.3321 0.4914
TCL: Running 1000000 steps at 300 kelvin.
TCL: Setting parameter langevinTemp to 300
TCL: Running for 1000000 steps
ETITLE: TS BOND ANGLE DIHED IMPRP ELECT VDW BOUNDARY MISC KINETIC TOTAL TEMP POTENTIAL TOTAL3 TEMPAVG PRESSURE GPRESSURE VOLUME PRESSAVG GPRESSAVG
ENERGY: 325000 0.9234 6.5181 3.2471 0.0000 -18336.5367 2479.1684 0.0000 0.0000 2574.6066 -13272.0731 265.7643 -15846.6797 -13267.5268 265.7643 -571.3404 -487.6531 49621.1227 -571.3404 -487.6531
ENERGY: 525000 1.4045 6.3060 1.6811 0.0000 -17790.7573 2410.1303 0.0000 0.0000 2861.6500 -12509.5853 295.3944 -15371.2353 -12503.3729 301.5639 69.7635 127.3300 50039.8954 1.7290 1.9822
ENERGY: 725000 1.1498 4.6467 3.1189 0.0000 -17793.9469 2457.7236 0.0000 0.0000 2907.8551 -12419.4528 300.1640 -15327.3079 -12413.0139 300.2588 371.6546 479.8896 49658.2440 0.2088 0.8649
ENERGY: 925000 1.7334 4.2375 1.5015 0.0000 -17669.5030 2378.4767 0.0000 0.0000 2889.9809 -12393.5730 298.3189 -15283.5539 -12389.2257 300.9447 13.0082 73.9569 49962.1717 -2.0735 -1.5112
ENERGY: 1125000 0.0991 7.5168 3.7248 0.0000 -17690.7985 2389.5011 0.0000 0.0000 2936.7196 -12353.2371 303.1435 -15289.9567 -12346.0056 300.4255 84.3540 172.1724 50175.4619 2.6420 2.3541
ENERGY: 1325000 0.6401 6.0852 4.9945 0.0000 -17714.3191 2424.1057 0.0000 0.0000 2837.6463 -12440.8474 292.9166 -15278.4936 -12436.3618 302.1118 157.7555 237.7665 50065.8231 0.6655 0.5293
TCL: Exiting due to exit command.
