Info: SIMULATION PARAMETERS:
Info: TIMESTEP               2
Info: NUMBER OF STEPS        0
Info: STEPS PER CYCLE        10
Info: PERIODIC CELL BASIS 1  31.0655 0 0
Info: PERIODIC CELL BASIS 2  0 30.4209 0
Info: PERIODIC CELL BASIS 3  0 0 32.1426
Info: PERIODIC CELL CENTER   0 0 0
Info: WRAPPING WATERS AROUND PERIODIC BOUNDARIES ON OUTPUT.
Info: WRAPPING ALL CLUSTERS AROUND PERIODIC BOUNDARIES ON OUTPUT.
Info: FIRST LDB TIMESTEP     50
Info: LAST LDB TIMESTEP     -1
Info: HOM BACKGROUND SCALING 1
Info: PME BACKGROUND SCALING 1
Info: MIN ATOMS PER PATCH    40
Info: EMPTY PATCH LOAD       40 ATOMS
Info: VELOCITY FILE          mobley_4291494_equil.vel
Info: CENTER OF MASS MOVING INITIALLY? NO
Info: DIELECTRIC             1
Info: EXCLUDE                SCALED ONE-FOUR
Info: 1-4 ELECTROSTATICS SCALED BY 0.833333
Info: MODIFIED 1-4 VDW PARAMETERS WILL BE USED
Info: DCD FILENAME           mobley_4291494_prod.dcd
Info: DCD FREQUENCY          100000
Info: DCD FIRST STEP         100000
Info: DCD FILE WILL CONTAIN UNIT CELL DATA
Info: XST FILENAME           mobley_4291494_prod.xst
Info: XST FREQUENCY          100000
Info: NO VELOCITY DCD OUTPUT
Info: NO FORCE DCD OUTPUT
Info: OUTPUT FILENAME        mobley_4291494_prod
Info: BINARY OUTPUT FILES WILL BE USED
Info: RESTART FILENAME       mobley_4291494_prod.restart
Info: RESTART FREQUENCY      100000
Info: BINARY RESTART FILES WILL BE USED
Info: CUTOFF                 9
Info: PAIRLIST DISTANCE      11
Info: PAIRLIST SHRINK RATE   0.01
Info: PAIRLIST GROW RATE     0.01
Info: PAIRLIST TRIGGER       0.3
Info: PAIRLISTS PER CYCLE    2
Info: PAIRLISTS ENABLED
Info: MARGIN                 2
Info: HYDROGEN GROUP CUTOFF  2.5
Info: PATCH DIMENSION        15.5
Info: ENERGY OUTPUT STEPS    100000
Info: ENERGY EVALUATION STEPS    100000
Info: OUTPUT ENERGY PRECISION 4
Info: CROSSTERM ENERGY INCLUDED IN DIHEDRAL
Info: TIMING OUTPUT STEPS    1000000
Info: PRESSURE OUTPUT STEPS  100000
Info: ALCHEMICAL FEP ON
Info: FEP CURRENT LAMBDA VALUE     0
Info: FEP COMPARISON LAMBDA VALUE  0.05
Info: FEP INTRA-ALCHEMICAL NON-BONDED INTERACTIONS WILL BE RETAINED
Info: FEP INTRA-ALCHEMICAL BONDED INTERACTIONS WILL BE RETAINED
Info: FEP VDW SHIFTING COEFFICIENT 5
Info: FEP ELEC. ACTIVE FOR ANNIHILATED PARTICLES BETWEEN LAMBDA = 0 AND LAMBDA = 0.5
Info: FEP ELEC. ACTIVE FOR EXNIHILATED PARTICLES BETWEEN LAMBDA = 0.5 AND LAMBDA = 1
Info: FEP VDW ACTIVE FOR ANNIHILATED PARTICLES BETWEEN LAMBDA = 0 AND LAMBDA = 1
Info: FEP VDW ACTIVE FOR EXNIHILATED PARTICLES BETWEEN LAMBDA = 0 AND LAMBDA = 1
Info: FEP BOND ACTIVE FOR ANNIHILATED PARTICLES BETWEEN LAMBDA = 1 AND LAMBDA = 1
Info: FEP BOND ACTIVE FOR EXNIHILATED PARTICLES BETWEEN LAMBDA = 0 AND LAMBDA = 0
Info: LANGEVIN DYNAMICS ACTIVE
Info: LANGEVIN TEMPERATURE   300
Info: LANGEVIN USING BBK INTEGRATOR
Info: LANGEVIN DAMPING COEFFICIENT IS 1 INVERSE PS
Info: LANGEVIN DYNAMICS APPLIED TO HYDROGENS
Info: LANGEVIN PISTON PRESSURE CONTROL ACTIVE
Info:        TARGET PRESSURE IS 1.01325 BAR
Info:     OSCILLATION PERIOD IS 50 FS
Info:             DECAY TIME IS 25 FS
Info:     PISTON TEMPERATURE IS 300 K
Info:       PRESSURE CONTROL IS GROUP-BASED
Info:    INITIAL STRAIN RATE IS 0.000214761 0.000214761 0.000214761
Info:       CELL FLUCTUATION IS ISOTROPIC
Info: PARTICLE MESH EWALD (PME) ACTIVE
Info: PME TOLERANCE               1e-06
Info: PME EWALD COEFFICIENT       0.348832
Info: PME INTERPOLATION ORDER     4
Info: PME GRID DIMENSIONS         32 32 36
Info: PME MAXIMUM GRID SPACING    1
Info: PME CALCULATION WILL BE PERFORMED ON GPU
Info: FULL ELECTROSTATIC EVALUATION FREQUENCY      2
Info: USING VERLET I (r-RESPA) MTS SCHEME.
Info: C1 SPLITTING OF LONG RANGE ELECTROSTATICS
Info: PLACING ATOMS IN PATCHES BY HYDROGEN GROUPS
Info: RIGID BONDS TO HYDROGEN : ALL
Info:         ERROR TOLERANCE : 1e-08
Info:          MAX ITERATIONS : 100
Info: RIGID WATER USING SETTLE ALGORITHM
Info: RANDOM NUMBER SEED     1742116891
Info: USE HYDROGEN BONDS?    NO
Info: Using AMBER format force field!
Info: AMBER PARM FILE        mobley_4291494.prmtop
Info: COORDINATE PDB         mobley_4291494.pdb
Info: Exclusions will be read from PARM file!
Info: SCNB (VDW SCALING)     2
Info: USING ARITHMETIC MEAN TO COMBINE L-J SIGMA PARAMETERS
Info: BINARY COORDINATES     mobley_4291494_equil.coor
Info: SUMMARY OF PARAMETERS:
Info: 7 BONDS
Info: 8 ANGLES
Info:   8 HARMONIC
Info:   0 COSINE-BASED
Info: 3 DIHEDRAL
Info: 0 IMPROPER
Info: 0 CROSSTERM
Info: 0 VDW
Info: 28 VDW_PAIRS
Info: 0 NBTHOLE_PAIRS
Info: To read alchdata from file: mobley_4291494.pdb
Info: To read alchflag data from column: 5
Info: STRUCTURE SUMMARY:
Info: 2966 ATOMS
Info: 2966 BONDS
Info: 16 ANGLES
Info: 23 DIHEDRALS
Info: 0 IMPROPERS
Info: 0 CROSSTERMS
Info: 2999 EXCLUSIONS
Info: 2959 RIGID BONDS
Info: ALCH: 0 ATOMS TO DISAPPEAR IN FINAL STATE
Info: ALCH: 11 ATOMS TO APPEAR IN FINAL STATE
Info: 5939 DEGREES OF FREEDOM
Info: 992 HYDROGEN GROUPS
Info: 3 ATOMS IN LARGEST HYDROGEN GROUP
Info: 992 MIGRATION GROUPS
Info: 3 ATOMS IN LARGEST MIGRATION GROUP
Info: TOTAL MASS = 17859.3 amu
Info: TOTAL CHARGE = 9.99942e-05 e
Info: MASS DENSITY = 0.97632 g/cm^3
Info: ATOM DENSITY = 0.0976427 atoms/A^3
Info: ADDED 0 IMPLICIT EXCLUSIONS
Info: NONBONDED TABLE R-SQUARED SPACING: 0.0625
Info: NONBONDED TABLE SIZE: 705 POINTS
Info: REMOVING COM VELOCITY -0.165372 -0.0249952 -0.0203174
Info: Use 3D box decompostion in PME FFT.
Info: Updated CUDA force table with 4096 elements.
Info: Updated CUDA LJ table with 7 x 7 elements.
Info: Found 13 unique exclusion lists needing 24 bytes
TCL: Running for 1500000 steps
ETITLE: TS BOND ANGLE DIHED IMPRP ELECT VDW BOUNDARY MISC KINETIC TOTAL TEMP POTENTIAL TOTALAVG TEMPAVG PRESSURE GPRESSURE VOLUME PRESSAVG GPRESSAVG
ENERGY: 0 5.3499 1.5431 0.9942 0.0000 -10757.1595 1461.9597 0.0000 0.0000 1755.3015 -7532.0112 297.4601 -9287.3127 -7532.0112 297.4601 271.7365 361.8079 30376.0560 271.7365 361.8079
ENERGY: 300000 3.3913 4.2966 2.2646 0.0000 -10767.0013 1454.7567 0.0000 0.0000 1780.4857 -7521.8064 301.7280 -9302.2921 -7541.1656 299.6534 -93.2516 -65.3598 30721.3631 21.5023 82.9676
ENERGY: 600000 2.5998 2.6658 2.3891 0.0000 -10748.3960 1416.4778 0.0000 0.0000 1748.7410 -7575.5225 296.3484 -9324.2635 -7538.7101 300.9675 -346.7722 -252.6050 30672.3237 99.2225 171.8623
ENERGY: 900000 4.0559 1.1019 2.2772 0.0000 -10804.1220 1449.0415 0.0000 0.0000 1786.4348 -7561.2109 302.7361 -9347.6456 -7546.5644 299.9828 -70.0994 20.4196 30287.6069 212.1986 284.4926
ENERGY: 1200000 1.5802 4.7655 2.3562 0.0000 -10723.5996 1425.2138 0.0000 0.0000 1804.4818 -7485.2022 305.7944 -9289.6840 -7543.3276 300.6099 -317.3707 -237.4545 30588.3154 71.5086 141.4588
ENERGY: 1500000 2.6539 3.0195 2.9294 0.0000 -10682.0192 1384.5324 0.0000 0.0000 1705.4229 -7583.4611 289.0075 -9288.8840 -7542.5965 300.2474 -711.5490 -652.5082 30667.4730 6.4902 71.7927
TCL: Running FEP window   2: Lambda1 0.05   Lambda2 0.1    [dLambda 0.05  ]
TCL: Setting parameter firsttimestep to 0
TCL: Setting parameter alchLambda to 0.05
Info: NONBONDED TABLE R-SQUARED SPACING: 0.0625
Info: NONBONDED TABLE SIZE: 705 POINTS
TCL: Setting parameter alchLambda2 to 0.1
Info: NONBONDED TABLE R-SQUARED SPACING: 0.0625
Info: NONBONDED TABLE SIZE: 705 POINTS
TCL: Running for 1500000 steps
ETITLE: TS BOND ANGLE DIHED IMPRP ELECT VDW BOUNDARY MISC KINETIC TOTAL TEMP POTENTIAL TOTALAVG TEMPAVG PRESSURE GPRESSURE VOLUME PRESSAVG GPRESSAVG
ENERGY: 0 2.6539 3.0195 2.9294 0.0000 -10682.0215 1388.8260 0.0000 0.0000 1704.5123 -7580.0804 288.8532 -9284.5927 -7580.0804 288.8532 -733.0142 -646.4630 30667.4730 -733.0142 -646.4630
ENERGY: 300000 2.5295 2.2795 2.1818 0.0000 -10616.4655 1383.3064 0.0000 0.0000 1767.5640 -7458.6044 299.5382 -9226.1684 -7540.4972 297.9089 -310.5457 -273.2225 30661.4423 -340.6622 -273.9416
ENERGY: 600000 3.6863 3.7796 1.4887 0.0000 -10847.2197 1480.7844 0.0000 0.0000 1745.8574 -7611.6232 295.8597 -9357.4807 -7571.9265 297.2584 13.2837 61.0686 30477.4590 -230.6567 -165.1792
ENERGY: 900000 3.6509 2.3312 3.4203 0.0000 -10812.7948 1471.0976 0.0000 0.0000 1783.9361 -7548.3586 302.3127 -9332.2947 -7565.6856 298.7465 136.3325 111.9826 30384.0108 -209.6058 -150.5160
ENERGY: 1200000 3.1062 1.4104 1.4732 0.0000 -10929.1336 1529.9934 0.0000 0.0000 1828.0814 -7565.0689 309.7937 -9393.1504 -7574.1121 299.0660 549.5427 600.3873 30201.2309 -162.4268 -95.8830
ENERGY: 1500000 2.2547 3.6585 1.7115 0.0000 -10729.7672 1434.9666 0.0000 0.0000 1741.2004 -7545.9755 295.0705 -9287.1759 -7573.0207 298.3304 -255.9032 -174.6596 30709.8056 -130.1703 -63.4784
TCL: Running FEP window   3: Lambda1 0.1    Lambda2 0.15000000000000002 [dLambda 0.05000000000000002]
TCL: Setting parameter firsttimestep to 0
TCL: Setting parameter alchLambda to 0.1
Info: NONBONDED TABLE R-SQUARED SPACING: 0.0625
Info: NONBONDED TABLE SIZE: 705 POINTS
TCL: Setting parameter alchLambda2 to 0.15000000000000002
Info: NONBONDED TABLE R-SQUARED SPACING: 0.0625
Info: NONBONDED TABLE SIZE: 705 POINTS
TCL: Running for 1500000 steps
ETITLE: TS BOND ANGLE DIHED IMPRP ELECT VDW BOUNDARY MISC KINETIC TOTAL TEMP POTENTIAL TOTALAVG TEMPAVG PRESSURE GPRESSURE VOLUME PRESSAVG GPRESSAVG
ENERGY: 0 2.2547 3.6585 1.7115 0.0000 -10729.7685 1435.4532 0.0000 0.0000 1740.3105 -7546.3801 294.9197 -9286.6906 -7546.3801 294.9197 -257.0475 -171.4420 30709.8056 -257.0475 -171.4420
ENERGY: 300000 3.1205 1.3713 6.4101 0.0000 -10853.1368 1484.4175 0.0000 0.0000 1811.3929 -7546.4245 306.9656 -9357.8174 -7545.6964 302.5590 -132.3975 -122.5798 30807.6146 -354.6494 -318.6388
ENERGY: 600000 0.9024 3.2810 2.4290 0.0000 -10784.3745 1497.6092 0.0000 0.0000 1792.2519 -7487.9009 303.7219 -9280.1528 -7547.5150 301.0215 359.5760 445.0011 30481.2629 -233.3072 -170.0301
ENERGY: 900000 3.5238 3.5042 1.1858 0.0000 -10619.5919 1344.0166 0.0000 0.0000 1807.9538 -7459.4077 306.3828 -9267.3615 -7538.6083 300.8924 -598.0122 -587.9991 30348.7054 -252.5352 -184.7064
ENERGY: 1200000 1.7069 3.4718 1.9257 0.0000 -10777.3292 1471.6565 0.0000 0.0000 1770.5452 -7528.0231 300.0434 -9298.5683 -7529.0656 301.3627 567.3729 647.4299 29532.7172 -223.2355 -155.1832
ENERGY: 1500000 3.2081 2.7989 2.6290 0.0000 -10922.5068 1563.2925 0.0000 0.0000 1783.2733 -7567.3050 302.2003 -9350.5782 -7537.3907 300.7095 793.1339 836.3300 30156.7798 -95.0197 -34.1340
TCL: Running FEP window   4: Lambda1 0.15000000000000002 Lambda2 0.2    [dLambda 0.04999999999999999]
TCL: Setting parameter firsttimestep to 0
TCL: Setting parameter alchLambda to 0.15000000000000002
Info: NONBONDED TABLE R-SQUARED SPACING: 0.0625
Info: NONBONDED TABLE SIZE: 705 POINTS
TCL: Setting parameter alchLambda2 to 0.2
Info: NONBONDED TABLE R-SQUARED SPACING: 0.0625
Info: NONBONDED TABLE SIZE: 705 POINTS
TCL: Running for 1500000 steps
ETITLE: TS BOND ANGLE DIHED IMPRP ELECT VDW BOUNDARY MISC KINETIC TOTAL TEMP POTENTIAL TOTALAVG TEMPAVG PRESSURE GPRESSURE VOLUME PRESSAVG GPRESSAVG
ENERGY: 0 3.2081 2.7989 2.6290 0.0000 -10922.5090 1564.7787 0.0000 0.0000 1782.3636 -7566.7307 302.0462 -9349.0942 -7566.7307 302.0462 772.8323 845.2693 30156.7798 772.8323 845.2693
ENERGY: 300000 2.4427 2.6873 2.1530 0.0000 -10825.0473 1515.3899 0.0000 0.0000 1805.8525 -7496.5220 306.0267 -9302.3745 -7569.2667 299.3718 377.3870 451.5059 30472.9832 16.7313 99.0872
ENERGY: 600000 0.8184 1.6834 2.1038 0.0000 -10751.2195 1445.3574 0.0000 0.0000 1793.8835 -7507.3730 303.9984 -9301.2565 -7561.5623 300.5953 353.8825 409.0603 29753.3033 72.2823 134.2961
ENERGY: 900000 4.4756 1.5473 0.7100 0.0000 -10843.9978 1505.5318 0.0000 0.0000 1799.5000 -7532.2330 304.9502 -9331.7330 -7546.0587 300.8360 676.9975 695.2795 30188.7254 32.9473 93.4609
ENERGY: 1200000 3.7468 3.2345 1.9744 0.0000 -10925.2177 1564.4654 0.0000 0.0000 1770.5073 -7581.2894 300.0370 -9351.7966 -7557.9204 300.6335 374.8131 483.3334 30856.5029 79.3203 141.6847
ENERGY: 1500000 1.2639 2.6475 0.6059 0.0000 -10796.1678 1537.8425 0.0000 0.0000 1822.3842 -7431.4238 308.8282 -9253.8080 -7549.0688 301.4114 814.6539 836.7276 30769.4095 101.9645 163.0484
TCL: Running FEP window   5: Lambda1 0.2    Lambda2 0.25   [dLambda 0.04999999999999999]
TCL: Setting parameter firsttimestep to 0
TCL: Setting parameter alchLambda to 0.2
Info: NONBONDED TABLE R-SQUARED SPACING: 0.0625
Info: NONBONDED TABLE SIZE: 705 POINTS
TCL: Setting parameter alchLambda2 to 0.25
Info: NONBONDED TABLE R-SQUARED SPACING: 0.0625
Info: NONBONDED TABLE SIZE: 705 POINTS
TCL: Running for 1500000 steps
ETITLE: TS BOND ANGLE DIHED IMPRP ELECT VDW BOUNDARY MISC KINETIC TOTAL TEMP POTENTIAL TOTALAVG TEMPAVG PRESSURE GPRESSURE VOLUME PRESSAVG GPRESSAVG
ENERGY: 0 1.2639 2.6475 0.6059 0.0000 -10796.1675 1539.4317 0.0000 0.0000 1821.5165 -7430.7021 308.6812 -9252.2186 -7430.7021 308.6812 767.9035 844.9771 30769.4095 767.9035 844.9771
ENERGY: 300000 2.4559 2.8517 1.5867 0.0000 -10982.8786 1535.3825 0.0000 0.0000 1784.0357 -7656.5662 302.3295 -9440.6018 -7548.5663 300.4980 268.4086 399.2020 30387.4442 450.5141 517.8107
ENERGY: 600000 0.6271 2.1130 0.9323 0.0000 -10850.0511 1450.0686 0.0000 0.0000 1743.4998 -7652.8104 295.4602 -9396.3102 -7595.3021 297.7115 -401.6633 -360.7350 30865.1971 87.6283 132.9219
ENERGY: 900000 3.5362 3.4445 1.7794 0.0000 -10666.2510 1348.3869 0.0000 0.0000 1744.4563 -7564.6476 295.6223 -9309.1039 -7584.5554 297.5831 -462.2600 -433.8598 30133.8709 -58.2755 -16.5081
ENERGY: 1200000 0.7669 2.5163 1.1869 0.0000 -10590.2244 1351.1205 0.0000 0.0000 1738.4822 -7496.1516 294.6099 -9234.6339 -7562.1529 299.1769 -736.4077 -634.2991 30815.3138 -68.3277 -18.6522
ENERGY: 1500000 1.3220 2.4008 1.7503 0.0000 -10926.3841 1520.4414 0.0000 0.0000 1802.8513 -7597.6184 305.5181 -9400.4697 -7560.5970 299.9360 388.4859 421.6700 30312.9830 -28.8992 23.9613
TCL: Running FEP window   6: Lambda1 0.25   Lambda2 0.3    [dLambda 0.04999999999999999]
TCL: Setting parameter firsttimestep to 0
TCL: Setting parameter alchLambda to 0.25
Info: NONBONDED TABLE R-SQUARED SPACING: 0.0625
Info: NONBONDED TABLE SIZE: 705 POINTS
TCL: Setting parameter alchLambda2 to 0.3
Info: NONBONDED TABLE R-SQUARED SPACING: 0.0625
Info: NONBONDED TABLE SIZE: 705 POINTS
TCL: Running for 1500000 steps
ETITLE: TS BOND ANGLE DIHED IMPRP ELECT VDW BOUNDARY MISC KINETIC TOTAL TEMP POTENTIAL TOTALAVG TEMPAVG PRESSURE GPRESSURE VOLUME PRESSAVG GPRESSAVG
ENERGY: 0 1.3220 2.4008 1.7503 0.0000 -10926.3826 1520.3712 0.0000 0.0000 1801.9949 -7598.5434 305.3730 -9400.5383 -7598.5434 305.3730 347.5148 424.7937 30312.9830 347.5148 424.7937
ENERGY: 300000 2.5933 1.6271 5.2247 0.0000 -10791.6510 1420.3871 0.0000 0.0000 1815.8130 -7546.0058 307.7147 -9361.8188 -7546.3998 303.2378 -468.7391 -418.2287 30710.3355 145.0440 214.0516
ENERGY: 600000 0.9316 3.4965 2.1706 0.0000 -10652.1798 1462.1857 0.0000 0.0000 1714.1966 -7469.1988 290.4943 -9183.3954 -7531.1230 300.5257 353.9809 434.9252 30582.4757 71.0963 139.6482
ENERGY: 900000 3.2325 1.2331 3.2166 0.0000 -10697.2645 1420.6783 0.0000 0.0000 1793.0117 -7475.8922 303.8507 -9268.9039 -7539.8100 300.5199 -200.9964 -132.6915 30566.1496 73.3021 147.7213
ENERGY: 1200000 2.6874 2.8862 0.7400 0.0000 -10752.3813 1486.4777 0.0000 0.0000 1683.2198 -7576.3702 285.2449 -9259.5900 -7552.0236 299.9136 366.6865 451.5033 30270.3101 145.3170 221.9128
ENERGY: 1500000 2.1132 0.8840 4.4168 0.0000 -10820.8008 1446.5151 0.0000 0.0000 1717.2555 -7649.6162 291.0127 -9366.8717 -7561.7523 299.2062 -229.3426 -189.5124 30436.6963 93.8704 164.5972
TCL: Running FEP window   7: Lambda1 0.3    Lambda2 0.35   [dLambda 0.04999999999999999]
TCL: Setting parameter firsttimestep to 0
TCL: Setting parameter alchLambda to 0.3
Info: NONBONDED TABLE R-SQUARED SPACING: 0.0625
Info: NONBONDED TABLE SIZE: 705 POINTS
TCL: Setting parameter alchLambda2 to 0.35
Info: NONBONDED TABLE R-SQUARED SPACING: 0.0625
Info: NONBONDED TABLE SIZE: 705 POINTS
TCL: Running for 1500000 steps
ETITLE: TS BOND ANGLE DIHED IMPRP ELECT VDW BOUNDARY MISC KINETIC TOTAL TEMP POTENTIAL TOTALAVG TEMPAVG PRESSURE GPRESSURE VOLUME PRESSAVG GPRESSAVG
ENERGY: 0 2.1132 0.8840 4.4168 0.0000 -10820.8009 1446.5029 0.0000 0.0000 1716.3747 -7650.5093 290.8635 -9366.8840 -7650.5093 290.8635 -275.8244 -185.5247 30436.6963 -275.8244 -185.5247
ENERGY: 300000 0.6318 2.5489 3.4346 0.0000 -10725.2839 1386.5057 0.0000 0.0000 1770.0106 -7562.1523 299.9528 -9332.1630 -7567.2675 300.2222 -483.3708 -452.7739 30610.4668 56.5560 124.6504
ENERGY: 600000 2.8855 1.2646 4.2284 0.0000 -10804.1192 1465.1375 0.0000 0.0000 1784.1400 -7546.4633 302.3472 -9330.6033 -7562.5754 300.8095 226.7272 314.7213 30107.1214 63.5255 129.0058
ENERGY: 900000 2.8665 2.0883 2.8373 0.0000 -10768.6799 1471.9498 0.0000 0.0000 1838.5952 -7450.3428 311.5754 -9288.9380 -7557.1555 301.1045 365.3245 394.1809 30451.0917 118.5409 182.7289
ENERGY: 1200000 1.4297 1.9861 1.0034 0.0000 -10867.2301 1514.3062 0.0000 0.0000 1789.7766 -7558.7280 303.3024 -9348.5046 -7550.1834 300.4089 674.4566 786.1870 30191.9445 49.7916 123.7424
ENERGY: 1500000 1.4458 3.1738 1.7171 0.0000 -10710.0178 1386.6285 0.0000 0.0000 1744.4784 -7572.5741 295.6260 -9317.0525 -7548.5139 299.8344 -430.3133 -432.7855 30427.4881 -1.2317 64.3052
TCL: Running FEP window   8: Lambda1 0.35   Lambda2 0.39999999999999997 [dLambda 0.04999999999999999]
TCL: Setting parameter firsttimestep to 0
TCL: Setting parameter alchLambda to 0.35
Info: NONBONDED TABLE R-SQUARED SPACING: 0.0625
Info: NONBONDED TABLE SIZE: 705 POINTS
TCL: Setting parameter alchLambda2 to 0.39999999999999997
Info: NONBONDED TABLE R-SQUARED SPACING: 0.0625
Info: NONBONDED TABLE SIZE: 705 POINTS
TCL: Running for 1500000 steps
ETITLE: TS BOND ANGLE DIHED IMPRP ELECT VDW BOUNDARY MISC KINETIC TOTAL TEMP POTENTIAL TOTALAVG TEMPAVG PRESSURE GPRESSURE VOLUME PRESSAVG GPRESSAVG
ENERGY: 0 1.4458 3.1738 1.7171 0.0000 -10710.0168 1386.7805 0.0000 0.0000 1743.5765 -7573.3231 295.4732 -9316.8995 -7573.3231 295.4732 -498.9970 -425.9413 30427.4881 -498.9970 -425.9413
ENERGY: 300000 0.4330 3.4150 0.7499 0.0000 -10721.1892 1401.5595 0.0000 0.0000 1842.2869 -7472.7448 312.2010 -9315.0317 -7543.2886 298.7872 -347.3363 -298.3883 30723.7088 -605.0897 -538.2029
ENERGY: 600000 1.3088 2.9345 1.1732 0.0000 -10779.5507 1408.6744 0.0000 0.0000 1748.0764 -7617.3834 296.2358 -9365.4598 -7565.9952 297.2297 -447.8544 -410.8454 30622.0027 -448.8844 -388.3173
ENERGY: 900000 3.1856 3.1646 2.1438 0.0000 -10741.1686 1430.1047 0.0000 0.0000 1773.7090 -7528.8609 300.5796 -9302.5699 -7570.8151 297.2243 -299.9995 -259.8085 30805.2758 -346.4685 -287.2034
ENERGY: 1200000 2.4462 4.6577 2.4703 0.0000 -10626.3967 1403.4657 0.0000 0.0000 1732.2082 -7481.1486 293.5467 -9213.3568 -7568.5595 296.9494 -229.1905 -137.0326 30837.1457 -308.3505 -248.6405
ENERGY: 1500000 2.9831 1.1060 1.4594 0.0000 -10820.9258 1470.2854 0.0000 0.0000 1757.3483 -7587.7436 297.8070 -9345.0919 -7565.5982 297.1660 -199.2623 -165.3885 30760.6527 -315.9017 -253.8988
TCL: Running FEP window   9: Lambda1 0.39999999999999997 Lambda2 0.44999999999999996 [dLambda 0.04999999999999999]
TCL: Setting parameter firsttimestep to 0
TCL: Setting parameter alchLambda to 0.39999999999999997
Info: NONBONDED TABLE R-SQUARED SPACING: 0.0625
Info: NONBONDED TABLE SIZE: 705 POINTS
TCL: Setting parameter alchLambda2 to 0.44999999999999996
Info: NONBONDED TABLE R-SQUARED SPACING: 0.0625
Info: NONBONDED TABLE SIZE: 705 POINTS
TCL: Running for 1500000 steps
ETITLE: TS BOND ANGLE DIHED IMPRP ELECT VDW BOUNDARY MISC KINETIC TOTAL TEMP POTENTIAL TOTALAVG TEMPAVG PRESSURE GPRESSURE VOLUME PRESSAVG GPRESSAVG
ENERGY: 0 2.9831 1.1060 1.4594 0.0000 -10820.9249 1469.7586 0.0000 0.0000 1756.4427 -7589.1751 297.6535 -9345.6178 -7589.1751 297.6535 -238.3564 -167.6599 30760.6527 -238.3564 -167.6599
ENERGY: 300000 3.0456 1.3062 1.7248 0.0000 -10762.2396 1449.2030 0.0000 0.0000 1748.5294 -7558.4306 296.3125 -9306.9600 -7564.3580 299.0012 -218.1156 -145.7921 30756.8076 -136.6982 -66.8254
ENERGY: 600000 2.0554 2.2696 2.6744 0.0000 -10846.7516 1504.1924 0.0000 0.0000 1777.4631 -7558.0967 301.2157 -9335.5598 -7545.4546 301.3582 667.0153 655.7345 30258.1552 -93.0158 -21.6991
ENERGY: 900000 2.5520 3.4359 2.6715 0.0000 -10772.4000 1415.1262 0.0000 0.0000 1751.7557 -7596.8587 296.8593 -9348.6143 -7535.0829 302.5141 -345.4669 -340.2247 30405.5129 -32.6563 26.0228
ENERGY: 1200000 1.0900 0.6793 5.0353 0.0000 -10795.8429 1424.3996 0.0000 0.0000 1789.8999 -7574.7388 303.3233 -9364.6387 -7549.5698 301.5179 -232.8623 -133.3067 30352.8924 -51.0456 5.8055
ENERGY: 1500000 0.9398 2.8346 1.7786 0.0000 -10821.7815 1476.1670 0.0000 0.0000 1787.4945 -7552.5669 302.9157 -9340.0614 -7545.4915 301.4058 134.1846 236.9138 30650.4533 -104.3876 -46.7448
TCL: Running FEP window  10: Lambda1 0.44999999999999996 Lambda2 0.49999999999999994 [dLambda 0.04999999999999999]
TCL: Setting parameter firsttimestep to 0
TCL: Setting parameter alchLambda to 0.44999999999999996
Info: NONBONDED TABLE R-SQUARED SPACING: 0.0625
Info: NONBONDED TABLE SIZE: 705 POINTS
TCL: Setting parameter alchLambda2 to 0.49999999999999994
Info: NONBONDED TABLE R-SQUARED SPACING: 0.0625
Info: NONBONDED TABLE SIZE: 705 POINTS
TCL: Running for 1500000 steps
ETITLE: TS BOND ANGLE DIHED IMPRP ELECT VDW BOUNDARY MISC KINETIC TOTAL TEMP POTENTIAL TOTALAVG TEMPAVG PRESSURE GPRESSURE VOLUME PRESSAVG GPRESSAVG
ENERGY: 0 0.9398 2.8346 1.7786 0.0000 -10821.7827 1476.3197 0.0000 0.0000 1786.6013 -7553.3086 302.7643 -9339.9099 -7553.3086 302.7643 159.5218 242.4936 30650.4533 159.5218 242.4936
ENERGY: 300000 2.0459 2.6045 1.6658 0.0000 -10709.8964 1407.0050 0.0000 0.0000 1775.2101 -7521.3651 300.8339 -9296.5753 -7563.9617 301.3702 -233.3922 -205.5440 30570.8327 -245.9722 -186.3442
ENERGY: 600000 2.8266 3.0017 1.6480 0.0000 -10807.7668 1455.4956 0.0000 0.0000 1719.8756 -7624.9193 291.4567 -9344.7949 -7549.0508 300.8829 -327.1656 -266.4876 30753.1638 -196.4297 -130.1948
ENERGY: 900000 1.9815 1.9185 2.9503 0.0000 -10759.9034 1443.9356 0.0000 0.0000 1719.1131 -7590.0044 291.3275 -9309.1176 -7544.5272 300.3953 -129.6586 -66.5388 30640.7953 -177.9290 -108.6750
ENERGY: 1200000 2.1723 2.3886 2.5009 0.0000 -10763.5640 1416.2861 0.0000 0.0000 1777.3150 -7562.9011 301.1906 -9340.2161 -7533.9503 301.3253 -454.7999 -394.4639 30408.8543 -96.1279 -22.0723
ENERGY: 1500000 3.5452 3.2684 3.1552 0.0000 -10726.9266 1430.4679 0.0000 0.0000 1738.4062 -7548.0837 294.5970 -9286.4899 -7535.0888 300.8251 -263.3944 -139.3691 30783.5619 -103.5916 -28.4731
TCL: Running FEP window  11: Lambda1 0.49999999999999994 Lambda2 0.5499999999999999 [dLambda 0.04999999999999999]
TCL: Setting parameter firsttimestep to 0
TCL: Setting parameter alchLambda to 0.49999999999999994
Info: NONBONDED TABLE R-SQUARED SPACING: 0.0625
Info: NONBONDED TABLE SIZE: 705 POINTS
TCL: Setting parameter alchLambda2 to 0.5499999999999999
Info: NONBONDED TABLE R-SQUARED SPACING: 0.0625
Info: NONBONDED TABLE SIZE: 705 POINTS
TCL: Running for 1500000 steps
ETITLE: TS BOND ANGLE DIHED IMPRP ELECT VDW BOUNDARY MISC KINETIC TOTAL TEMP POTENTIAL TOTALAVG TEMPAVG PRESSURE GPRESSURE VOLUME PRESSAVG GPRESSAVG
ENERGY: 0 3.5452 3.2684 3.1552 0.0000 -10726.9261 1430.1502 0.0000 0.0000 1737.5000 -7549.3072 294.4434 -9286.8072 -7549.3072 294.4434 -220.6382 -137.9190 30783.5619 -220.6382 -137.9190
ENERGY: 300000 2.1123 3.0172 1.4436 0.0000 -10885.5281 1535.4327 0.0000 0.0000 1812.3484 -7531.1739 307.1275 -9343.5223 -7547.5486 301.6669 720.0391 743.7068 30320.9260 -33.7416 22.4273
ENERGY: 600000 1.8205 3.4150 1.9054 0.0000 -10831.2184 1464.2119 0.0000 0.0000 1824.8936 -7534.9720 309.2535 -9359.8656 -7545.1023 302.2177 324.0946 321.8640 30296.5579 118.2861 167.4166
ENERGY: 900000 2.3062 2.7561 1.7866 0.0000 -10766.5529 1430.3753 0.0000 0.0000 1787.3405 -7541.9881 302.8896 -9329.3286 -7547.3006 302.1427 -6.2677 37.1039 29993.1741 109.1708 154.4796
ENERGY: 1200000 2.0912 3.2976 4.1296 0.0000 -10790.1325 1483.1613 0.0000 0.0000 1800.0612 -7497.3917 305.0453 -9297.4529 -7548.9167 302.0313 110.8537 125.5262 31256.5779 68.6271 114.3051
ENERGY: 1500000 3.2211 1.4955 1.6601 0.0000 -10675.3187 1353.4538 0.0000 0.0000 1790.6273 -7524.8610 303.4466 -9315.4883 -7554.8633 301.4806 -1100.2274 -1024.2495 31173.4203 -0.5758 49.6352
TCL: Running FEP window  12: Lambda1 0.5499999999999999 Lambda2 0.6    [dLambda 0.050000000000000044]
TCL: Setting parameter firsttimestep to 0
TCL: Setting parameter alchLambda to 0.5499999999999999
Info: NONBONDED TABLE R-SQUARED SPACING: 0.0625
Info: NONBONDED TABLE SIZE: 705 POINTS
TCL: Setting parameter alchLambda2 to 0.6
Info: NONBONDED TABLE R-SQUARED SPACING: 0.0625
Info: NONBONDED TABLE SIZE: 705 POINTS
TCL: Running for 1500000 steps
ETITLE: TS BOND ANGLE DIHED IMPRP ELECT VDW BOUNDARY MISC KINETIC TOTAL TEMP POTENTIAL TOTALAVG TEMPAVG PRESSURE GPRESSURE VOLUME PRESSAVG GPRESSAVG
ENERGY: 0 3.2211 1.4955 1.6601 0.0000 -10675.4374 1353.9231 0.0000 0.0000 1789.7114 -7525.4263 303.2914 -9315.1377 -7525.4263 303.2914 -1099.0324 -1015.2628 31173.4203 -1099.0324 -1015.2628
ENERGY: 300000 0.6900 4.2524 2.5739 0.0000 -10830.0485 1477.0645 0.0000 0.0000 1782.2334 -7563.2343 302.0241 -9345.4677 -7537.3956 301.5298 145.4380 147.7359 30607.4946 -553.2909 -494.8035
ENERGY: 600000 1.9403 3.2814 2.4046 0.0000 -10727.5564 1364.2239 0.0000 0.0000 1697.1735 -7658.5326 287.6095 -9355.7061 -7570.4574 297.0597 -1004.8562 -925.0673 30659.0540 -531.7867 -468.4658
ENERGY: 900000 1.0389 2.9570 3.1802 0.0000 -10591.3478 1333.6026 0.0000 0.0000 1740.4488 -7510.1203 294.9431 -9250.5690 -7557.6873 296.6712 -462.3195 -407.2530 30206.4016 -347.9726 -288.9465
ENERGY: 1200000 2.8888 3.1509 2.7717 0.0000 -10844.5932 1501.7043 0.0000 0.0000 1761.9929 -7572.0846 298.5941 -9334.0775 -7561.1913 296.6292 356.3367 367.2202 30676.2055 -236.4048 -178.8629
ENERGY: 1500000 2.2212 2.6337 1.8963 0.0000 -10729.9156 1399.4256 0.0000 0.0000 1804.7131 -7519.0257 305.8336 -9323.7387 -7558.2709 297.4739 -292.0231 -244.4876 30557.5458 -251.6667 -198.3914
TCL: Running FEP window  13: Lambda1 0.6    Lambda2 0.65   [dLambda 0.050000000000000044]
TCL: Setting parameter firsttimestep to 0
TCL: Setting parameter alchLambda to 0.6
Info: NONBONDED TABLE R-SQUARED SPACING: 0.0625
Info: NONBONDED TABLE SIZE: 705 POINTS
TCL: Setting parameter alchLambda2 to 0.65
Info: NONBONDED TABLE R-SQUARED SPACING: 0.0625
Info: NONBONDED TABLE SIZE: 705 POINTS
TCL: Running for 1500000 steps
ETITLE: TS BOND ANGLE DIHED IMPRP ELECT VDW BOUNDARY MISC KINETIC TOTAL TEMP POTENTIAL TOTALAVG TEMPAVG PRESSURE GPRESSURE VOLUME PRESSAVG GPRESSAVG
ENERGY: 0 2.2212 2.6337 1.8963 0.0000 -10730.0807 1399.0335 0.0000 0.0000 1803.8277 -7520.4682 305.6836 -9324.2959 -7520.4682 305.6836 -335.4119 -244.1470 30557.5458 -335.4119 -244.1470
ENERGY: 300000 0.6447 2.1492 2.0064 0.0000 -10788.1228 1426.9834 0.0000 0.0000 1825.8549 -7530.4842 309.4164 -9356.3391 -7518.6049 305.5418 -181.3079 -225.5423 30491.8764 -509.1817 -480.1980
ENERGY: 600000 0.7022 4.7665 1.8861 0.0000 -10840.9928 1429.9589 0.0000 0.0000 1762.8901 -7640.7889 298.7461 -9403.6790 -7530.1220 303.5808 -371.1000 -298.3454 30380.0468 -214.1987 -169.2905
ENERGY: 900000 1.5245 2.9612 4.2993 0.0000 -10775.8707 1430.4450 0.0000 0.0000 1769.3749 -7567.2658 299.8451 -9336.6407 -7529.9144 302.5680 -74.7343 18.6028 30209.3243 -172.4475 -122.0388
ENERGY: 1200000 1.4837 1.9912 2.0186 0.0000 -10750.3150 1417.5751 0.0000 0.0000 1798.2157 -7529.0307 304.7325 -9327.2464 -7531.0379 301.5848 -212.1448 -160.5464 30478.4152 -119.3711 -64.4069
ENERGY: 1500000 2.1884 2.1067 1.7748 0.0000 -10754.1022 1429.1258 0.0000 0.0000 1773.7659 -7545.1406 300.5892 -9318.9065 -7534.2482 301.6923 -315.6047 -277.2429 30808.4025 -119.9952 -65.4980
TCL: Running FEP window  14: Lambda1 0.65   Lambda2 0.7000000000000001 [dLambda 0.050000000000000044]
TCL: Setting parameter firsttimestep to 0
TCL: Setting parameter alchLambda to 0.65
Info: NONBONDED TABLE R-SQUARED SPACING: 0.0625
Info: NONBONDED TABLE SIZE: 705 POINTS
TCL: Setting parameter alchLambda2 to 0.7000000000000001
Info: NONBONDED TABLE R-SQUARED SPACING: 0.0625
Info: NONBONDED TABLE SIZE: 705 POINTS
TCL: Running for 1500000 steps
ETITLE: TS BOND ANGLE DIHED IMPRP ELECT VDW BOUNDARY MISC KINETIC TOTAL TEMP POTENTIAL TOTALAVG TEMPAVG PRESSURE GPRESSURE VOLUME PRESSAVG GPRESSAVG
ENERGY: 0 2.1884 2.1067 1.7748 0.0000 -10754.1810 1428.8344 0.0000 0.0000 1772.8793 -7546.3975 300.4389 -9319.2767 -7546.3975 300.4389 -349.4488 -272.5025 30808.4025 -349.4488 -272.5025
ENERGY: 300000 0.3347 1.4178 2.3777 0.0000 -10670.6412 1347.0655 0.0000 0.0000 1754.2261 -7565.2195 297.2779 -9319.4456 -7550.7954 299.6849 -602.2098 -570.9934 30257.4938 -288.7669 -226.9118
ENERGY: 600000 2.2773 1.9496 2.3696 0.0000 -10999.9302 1598.3952 0.0000 0.0000 1826.2032 -7568.7352 309.4754 -9394.9384 -7525.8139 302.3538 1005.9528 1021.3054 30342.7391 11.9045 72.8126
ENERGY: 900000 3.8170 3.9879 3.6228 0.0000 -10833.6904 1516.6028 0.0000 0.0000 1807.6318 -7498.0282 306.3282 -9305.6599 -7539.1945 301.3424 478.4951 528.4718 30596.3221 -32.4176 27.2656
ENERGY: 1200000 0.8943 2.3797 4.7552 0.0000 -10715.0900 1475.1972 0.0000 0.0000 1837.9706 -7393.8929 311.4696 -9231.8636 -7530.4122 301.4118 72.3442 97.6531 31146.6573 -43.7610 13.9083
ENERGY: 1500000 2.7991 3.1113 5.0793 0.0000 -10737.9475 1473.8673 0.0000 0.0000 1749.5722 -7503.5182 296.4892 -9253.0904 -7529.0400 301.1212 355.6868 350.3706 30793.6461 -61.5789 -9.8891
TCL: Running FEP window  15: Lambda1 0.7000000000000001 Lambda2 0.7500000000000001 [dLambda 0.050000000000000044]
TCL: Setting parameter firsttimestep to 0
TCL: Setting parameter alchLambda to 0.7000000000000001
Info: NONBONDED TABLE R-SQUARED SPACING: 0.0625
Info: NONBONDED TABLE SIZE: 705 POINTS
TCL: Setting parameter alchLambda2 to 0.7500000000000001
Info: NONBONDED TABLE R-SQUARED SPACING: 0.0625
Info: NONBONDED TABLE SIZE: 705 POINTS
TCL: Running for 1500000 steps
ETITLE: TS BOND ANGLE DIHED IMPRP ELECT VDW BOUNDARY MISC KINETIC TOTAL TEMP POTENTIAL TOTALAVG TEMPAVG PRESSURE GPRESSURE VOLUME PRESSAVG GPRESSAVG
ENERGY: 0 2.7991 3.1113 5.0793 0.0000 -10738.7804 1473.5685 0.0000 0.0000 1748.6927 -7505.5295 296.3402 -9254.2222 -7505.5295 296.3402 269.7110 354.7675 30793.6461 269.7110 354.7675
ENERGY: 300000 3.8663 4.3848 4.8125 0.0000 -10610.0790 1384.3330 0.0000 0.0000 1848.5200 -7364.1625 313.2573 -9212.6825 -7514.2633 300.9078 -246.3640 -145.2335 30651.5741 -363.2355 -284.3303
ENERGY: 600000 1.1278 2.5714 4.3539 0.0000 -10831.2511 1490.4286 0.0000 0.0000 1780.5111 -7552.2584 301.7323 -9332.7695 -7534.3326 301.1476 312.0539 407.3836 30351.1557 -204.7557 -124.7935
ENERGY: 900000 1.5879 3.4472 2.3939 0.0000 -10986.5774 1544.0410 0.0000 0.0000 1735.2400 -7699.8673 294.0604 -9435.1074 -7559.6703 299.8097 608.5958 650.2802 30071.2842 -81.7070 -12.5127
ENERGY: 1200000 2.9649 0.8755 1.6084 0.0000 -10769.2009 1386.0499 0.0000 0.0000 1757.9780 -7619.7243 297.9137 -9377.7023 -7567.0861 299.9926 -564.3415 -592.2882 30237.0474 -91.8963 -34.5354
ENERGY: 1500000 2.4387 1.3428 2.4016 0.0000 -10883.2296 1492.2021 0.0000 0.0000 1767.5223 -7617.3221 299.5311 -9384.8444 -7552.9003 300.2062 279.0329 276.4452 30486.5071 -59.9004 0.4711
TCL: Running FEP window  16: Lambda1 0.7500000000000001 Lambda2 0.8000000000000002 [dLambda 0.050000000000000044]
TCL: Setting parameter firsttimestep to 0
TCL: Setting parameter alchLambda to 0.7500000000000001
Info: NONBONDED TABLE R-SQUARED SPACING: 0.0625
Info: NONBONDED TABLE SIZE: 705 POINTS
TCL: Setting parameter alchLambda2 to 0.8000000000000002
Info: NONBONDED TABLE R-SQUARED SPACING: 0.0625
Info: NONBONDED TABLE SIZE: 705 POINTS
TCL: Running for 1500000 steps
ETITLE: TS BOND ANGLE DIHED IMPRP ELECT VDW BOUNDARY MISC KINETIC TOTAL TEMP POTENTIAL TOTALAVG TEMPAVG PRESSURE GPRESSURE VOLUME PRESSAVG GPRESSAVG
ENERGY: 0 2.4387 1.3428 2.4016 0.0000 -10883.8615 1492.4311 0.0000 0.0000 1766.6258 -7618.6215 299.3792 -9385.2473 -7618.6215 299.3792 207.8518 285.2545 30486.5071 207.8518 285.2545
ENERGY: 300000 2.1376 5.3649 3.0475 0.0000 -10708.8368 1443.1974 0.0000 0.0000 1756.9460 -7498.1435 297.7388 -9255.0894 -7561.2268 297.4092 130.7185 163.9794 30483.3460 -101.0074 -20.8646
ENERGY: 600000 2.1807 3.0559 1.8790 0.0000 -10613.1458 1326.7328 0.0000 0.0000 1750.3059 -7528.9915 296.6136 -9279.2975 -7534.8335 299.3394 -578.7581 -533.2866 30422.5920 -92.4517 -22.4800
ENERGY: 900000 2.5694 1.7887 1.1630 0.0000 -10807.6590 1469.6275 0.0000 0.0000 1785.2397 -7547.2706 302.5336 -9332.5104 -7556.6824 299.6194 606.1701 637.4393 29883.2288 -101.3108 -29.9033
ENERGY: 1200000 2.1773 2.8398 1.8293 0.0000 -10702.6724 1416.0664 0.0000 0.0000 1809.3084 -7470.4513 306.6124 -9279.7597 -7556.6813 300.4001 77.4389 81.0725 30335.4493 -94.6141 -30.7192
ENERGY: 1500000 1.9619 2.9635 3.5862 0.0000 -10815.6071 1515.3204 0.0000 0.0000 1791.4793 -7500.2958 303.5910 -9291.7751 -7556.2124 300.1781 875.5953 894.3365 30447.8281 -47.5626 15.1509
TCL: Running FEP window  17: Lambda1 0.8000000000000002 Lambda2 0.8500000000000002 [dLambda 0.050000000000000044]
TCL: Setting parameter firsttimestep to 0
TCL: Setting parameter alchLambda to 0.8000000000000002
Info: NONBONDED TABLE R-SQUARED SPACING: 0.0625
Info: NONBONDED TABLE SIZE: 705 POINTS
TCL: Setting parameter alchLambda2 to 0.8500000000000002
Info: NONBONDED TABLE R-SQUARED SPACING: 0.0625
Info: NONBONDED TABLE SIZE: 705 POINTS
TCL: Running for 1500000 steps
ETITLE: TS BOND ANGLE DIHED IMPRP ELECT VDW BOUNDARY MISC KINETIC TOTAL TEMP POTENTIAL TOTALAVG TEMPAVG PRESSURE GPRESSURE VOLUME PRESSAVG GPRESSAVG
ENERGY: 0 1.9619 2.9635 3.5862 0.0000 -10816.3010 1514.8501 0.0000 0.0000 1790.5970 -7502.3423 303.4415 -9292.9393 -7502.3423 303.4415 833.4837 897.1792 30447.8281 833.4837 897.1792
ENERGY: 300000 2.1260 1.8133 1.8214 0.0000 -10831.9816 1479.7481 0.0000 0.0000 1818.0110 -7528.4618 308.0871 -9346.4728 -7562.6098 302.5287 275.9649 276.5278 30491.8482 337.9307 386.1972
ENERGY: 600000 1.1275 3.7862 1.9049 0.0000 -10667.6455 1339.8535 0.0000 0.0000 1725.5473 -7595.4262 292.4179 -9320.9735 -7565.0293 300.3779 -765.6299 -793.8507 30572.8869 175.3332 213.1954
ENERGY: 900000 2.6653 1.6899 1.0499 0.0000 -10771.6797 1445.9212 0.0000 0.0000 1739.2675 -7581.0859 294.7430 -9320.3534 -7574.7506 299.8319 -185.4178 -130.4692 31109.4625 -20.4406 20.4919
ENERGY: 1200000 2.8445 1.9347 2.2151 0.0000 -10694.2848 1410.9766 0.0000 0.0000 1804.2617 -7472.0522 305.7571 -9276.3139 -7558.9529 299.8046 -151.9819 -79.1563 30515.2211 -44.1743 3.2309
ENERGY: 1500000 0.8492 1.6035 3.3711 0.0000 -10686.8060 1449.0925 0.0000 0.0000 1727.0369 -7504.8527 292.6703 -9231.8896 -7552.5493 299.7184 8.3796 -3.8055 31174.9462 7.0761 53.9352
TCL: Running FEP window  18: Lambda1 0.8500000000000002 Lambda2 0.9000000000000002 [dLambda 0.050000000000000044]
TCL: Setting parameter firsttimestep to 0
TCL: Setting parameter alchLambda to 0.8500000000000002
Info: NONBONDED TABLE R-SQUARED SPACING: 0.0625
Info: NONBONDED TABLE SIZE: 705 POINTS
TCL: Setting parameter alchLambda2 to 0.9000000000000002
Info: NONBONDED TABLE R-SQUARED SPACING: 0.0625
Info: NONBONDED TABLE SIZE: 705 POINTS
TCL: Running for 1500000 steps
ETITLE: TS BOND ANGLE DIHED IMPRP ELECT VDW BOUNDARY MISC KINETIC TOTAL TEMP POTENTIAL TOTALAVG TEMPAVG PRESSURE GPRESSURE VOLUME PRESSAVG GPRESSAVG
ENERGY: 0 0.8492 1.6035 3.3711 0.0000 -10687.5651 1449.3211 0.0000 0.0000 1726.1299 -7506.2903 292.5166 -9232.4202 -7506.2903 292.5166 -55.8899 6.2911 31174.9462 -55.8899 6.2911
ENERGY: 300000 2.9661 1.5826 3.2725 0.0000 -10851.3949 1461.7844 0.0000 0.0000 1741.6504 -7640.1389 295.1468 -9381.7893 -7562.2090 298.5667 -34.8705 -17.4773 30730.5215 53.7137 92.6957
ENERGY: 600000 2.6072 2.7310 3.6082 0.0000 -10940.4739 1554.5246 0.0000 0.0000 1789.6045 -7587.3984 303.2733 -9377.0029 -7555.8993 300.0618 784.1894 793.0319 30369.3203 165.5031 201.5901
ENERGY: 900000 0.9841 0.9784 1.2715 0.0000 -10930.1787 1531.9208 0.0000 0.0000 1781.3729 -7613.6510 301.8783 -9395.0239 -7573.3372 299.4055 443.2543 527.7168 30445.6108 69.8980 116.3875
ENERGY: 1200000 1.9460 2.7211 2.2534 0.0000 -10749.8399 1391.8146 0.0000 0.0000 1760.0566 -7591.0481 298.2660 -9351.1048 -7576.8226 298.6965 -507.9445 -494.4559 30726.4623 12.6799 49.9536
ENERGY: 1500000 0.7166 1.9280 3.6338 0.0000 -10777.8198 1414.0772 0.0000 0.0000 1706.6605 -7650.8037 289.2173 -9357.4642 -7567.4308 299.1377 -140.5580 -74.6289 30399.1826 -8.2703 38.4336
TCL: Running FEP window  19: Lambda1 0.9000000000000002 Lambda2 0.9500000000000003 [dLambda 0.050000000000000044]
TCL: Setting parameter firsttimestep to 0
TCL: Setting parameter alchLambda to 0.9000000000000002
Info: NONBONDED TABLE R-SQUARED SPACING: 0.0625
Info: NONBONDED TABLE SIZE: 705 POINTS
TCL: Setting parameter alchLambda2 to 0.9500000000000003
Info: NONBONDED TABLE R-SQUARED SPACING: 0.0625
Info: NONBONDED TABLE SIZE: 705 POINTS
TCL: Running for 1500000 steps
ETITLE: TS BOND ANGLE DIHED IMPRP ELECT VDW BOUNDARY MISC KINETIC TOTAL TEMP POTENTIAL TOTALAVG TEMPAVG PRESSURE GPRESSURE VOLUME PRESSAVG GPRESSAVG
ENERGY: 0 0.7166 1.9280 3.6338 0.0000 -10778.1601 1414.2835 0.0000 0.0000 1705.7590 -7651.8392 289.0645 -9357.5983 -7651.8392 289.0645 -133.0020 -62.3888 30399.1826 -133.0020 -62.3888
ENERGY: 300000 2.1467 3.9257 0.5760 0.0000 -10898.8174 1510.9764 0.0000 0.0000 1783.4975 -7597.6950 302.2383 -9381.1925 -7624.2760 295.6423 541.2489 610.1090 30203.9561 64.7076 128.8723
ENERGY: 600000 2.3745 1.2702 2.7076 0.0000 -10781.1472 1463.2483 0.0000 0.0000 1810.1221 -7501.4245 306.7503 -9311.5466 -7590.3820 298.8653 185.1649 288.3924 30353.6605 59.0802 130.4980
ENERGY: 900000 3.0671 1.2290 2.7981 0.0000 -10789.5833 1420.2004 0.0000 0.0000 1718.8001 -7643.4885 291.2745 -9362.2886 -7604.3624 297.7303 -302.7415 -244.5712 30475.4332 42.9638 103.8736
ENERGY: 1200000 1.4742 3.0586 3.7096 0.0000 -10911.5324 1471.7438 0.0000 0.0000 1767.6659 -7663.8803 299.5555 -9431.5462 -7602.6945 297.9067 -87.7999 -21.3001 30392.3514 -48.4187 12.0595
ENERGY: 1500000 1.6982 2.0310 1.0463 0.0000 -10727.5115 1362.7339 0.0000 0.0000 1767.8644 -7592.1376 299.5891 -9360.0021 -7592.4335 297.8421 -702.4425 -676.8602 30704.2879 -130.0791 -71.7148
TCL: Running FEP window  20: Lambda1 0.9500000000000003 Lambda2 1.0    [dLambda 0.04999999999999971]
TCL: Setting parameter firsttimestep to 0
TCL: Setting parameter alchLambda to 0.9500000000000003
Info: NONBONDED TABLE R-SQUARED SPACING: 0.0625
Info: NONBONDED TABLE SIZE: 705 POINTS
TCL: Setting parameter alchLambda2 to 1.0
Info: NONBONDED TABLE R-SQUARED SPACING: 0.0625
Info: NONBONDED TABLE SIZE: 705 POINTS
TCL: Running for 1500000 steps
ETITLE: TS BOND ANGLE DIHED IMPRP ELECT VDW BOUNDARY MISC KINETIC TOTAL TEMP POTENTIAL TOTALAVG TEMPAVG PRESSURE GPRESSURE VOLUME PRESSAVG GPRESSAVG
ENERGY: 0 1.6982 2.0310 1.0463 0.0000 -10728.7390 1364.1040 0.0000 0.0000 1766.9916 -7592.8679 299.4412 -9359.8595 -7592.8679 299.4412 -736.7743 -650.3889 30704.2879 -736.7743 -650.3889
ENERGY: 300000 2.6546 1.8013 2.3083 0.0000 -10914.3058 1501.3065 0.0000 0.0000 1765.7830 -7640.4521 299.2364 -9406.2352 -7599.0971 300.9643 235.9942 248.0106 30314.4064 67.3017 99.7525
ENERGY: 600000 5.5896 2.3097 3.1018 0.0000 -10830.0705 1464.7592 0.0000 0.0000 1717.9820 -7636.3281 291.1358 -9354.3101 -7593.3612 297.9143 -320.0641 -261.1960 31033.0378 -217.3412 -187.9344
ENERGY: 900000 1.0305 1.5180 3.0609 0.0000 -10964.5533 1504.7419 0.0000 0.0000 1796.7330 -7657.4691 304.4813 -9454.2020 -7592.0846 298.9266 135.9487 165.3471 30506.8613 -144.5463 -120.0763
ENERGY: 1200000 1.4411 2.2748 1.2413 0.0000 -10770.0321 1394.8210 0.0000 0.0000 1747.3368 -7622.9171 296.1104 -9370.2540 -7593.0001 299.2161 -569.9351 -547.1078 30683.9431 -99.1596 -80.9763
ENERGY: 1500000 1.2927 5.2028 2.1890 0.0000 -10838.0619 1462.1801 0.0000 0.0000 1817.4781 -7549.7194 307.9968 -9367.1974 -7584.5961 300.3522 -104.1341 -21.8905 30819.5013 -93.9726 -66.9890
TCL: Exiting due to exit command.
