Info: SIMULATION PARAMETERS:
Info: TIMESTEP               2
Info: NUMBER OF STEPS        0
Info: STEPS PER CYCLE        10
Info: PERIODIC CELL BASIS 1  39.546 0 0
Info: PERIODIC CELL BASIS 2  0 38.729 0
Info: PERIODIC CELL BASIS 3  0 0 39.797
Info: PERIODIC CELL CENTER   0 0 0
Info: WRAPPING WATERS AROUND PERIODIC BOUNDARIES ON OUTPUT.
Info: WRAPPING ALL CLUSTERS AROUND PERIODIC BOUNDARIES ON OUTPUT.
Info: FIRST LDB TIMESTEP     50
Info: LAST LDB TIMESTEP     -1
Info: HOM BACKGROUND SCALING 1
Info: PME BACKGROUND SCALING 1
Info: MIN ATOMS PER PATCH    40
Info: EMPTY PATCH LOAD       40 ATOMS
Info: INITIAL TEMPERATURE    300
Info: CENTER OF MASS MOVING INITIALLY? NO
Info: DIELECTRIC             1
Info: EXCLUDE                SCALED ONE-FOUR
Info: 1-4 ELECTROSTATICS SCALED BY 0.833333
Info: MODIFIED 1-4 VDW PARAMETERS WILL BE USED
Info: DCD FILENAME           mobley_7758918_min.dcd
Info: DCD FREQUENCY          5000
Info: DCD FIRST STEP         5000
Info: DCD FILE WILL CONTAIN UNIT CELL DATA
Info: XST FILENAME           mobley_7758918_min.xst
Info: XST FREQUENCY          5000
Info: NO VELOCITY DCD OUTPUT
Info: NO FORCE DCD OUTPUT
Info: OUTPUT FILENAME        mobley_7758918_min
Info: BINARY OUTPUT FILES WILL BE USED
Info: RESTART FILENAME       mobley_7758918_min.restart
Info: RESTART FREQUENCY      5000
Info: BINARY RESTART FILES WILL BE USED
Info: CUTOFF                 9
Info: PAIRLIST DISTANCE      11
Info: PAIRLIST SHRINK RATE   0.01
Info: PAIRLIST GROW RATE     0.01
Info: PAIRLIST TRIGGER       0.3
Info: PAIRLISTS PER CYCLE    2
Info: PAIRLISTS ENABLED
Info: MARGIN                 8
Info: HYDROGEN GROUP CUTOFF  2.5
Info: PATCH DIMENSION        21.5
Info: ENERGY OUTPUT STEPS    5000
Info: ENERGY EVALUATION STEPS    5000
Info: OUTPUT ENERGY PRECISION 4
Info: CROSSTERM ENERGY INCLUDED IN DIHEDRAL
Info: TIMING OUTPUT STEPS    50000
Info: PRESSURE OUTPUT STEPS  5000
Info: LANGEVIN DYNAMICS ACTIVE
Info: LANGEVIN TEMPERATURE   300
Info: LANGEVIN USING BBK INTEGRATOR
Info: LANGEVIN DAMPING COEFFICIENT IS 1 INVERSE PS
Info: LANGEVIN DYNAMICS APPLIED TO HYDROGENS
Info: LANGEVIN PISTON PRESSURE CONTROL ACTIVE
Info:        TARGET PRESSURE IS 1.01325 BAR
Info:     OSCILLATION PERIOD IS 50 FS
Info:             DECAY TIME IS 25 FS
Info:     PISTON TEMPERATURE IS 300 K
Info:       PRESSURE CONTROL IS GROUP-BASED
Info:    INITIAL STRAIN RATE IS 0 0 0
Info:       CELL FLUCTUATION IS ISOTROPIC
Info: PARTICLE MESH EWALD (PME) ACTIVE
Info: PME TOLERANCE               1e-06
Info: PME EWALD COEFFICIENT       0.348832
Info: PME INTERPOLATION ORDER     4
Info: PME GRID DIMENSIONS         40 40 40
Info: PME MAXIMUM GRID SPACING    1
Info: FULL ELECTROSTATIC EVALUATION FREQUENCY      2
Info: USING VERLET I (r-RESPA) MTS SCHEME.
Info: C1 SPLITTING OF LONG RANGE ELECTROSTATICS
Info: PLACING ATOMS IN PATCHES BY HYDROGEN GROUPS
Info: RIGID BONDS TO HYDROGEN : ALL
Info:         ERROR TOLERANCE : 1e-08
Info:          MAX ITERATIONS : 100
Info: RIGID WATER USING SETTLE ALGORITHM
Info: RANDOM NUMBER SEED     1741389113
Info: USE HYDROGEN BONDS?    NO
Info: Using AMBER format force field!
Info: AMBER PARM FILE        mobley_7758918.prmtop
Info: COORDINATE PDB         mobley_7758918.pdb
Info: Exclusions will be read from PARM file!
Info: SCNB (VDW SCALING)     2
Info: USING ARITHMETIC MEAN TO COMBINE L-J SIGMA PARAMETERS
Info: SUMMARY OF PARAMETERS:
Info: 8 BONDS
Info: 8 ANGLES
Info:   8 HARMONIC
Info:   0 COSINE-BASED
Info: 12 DIHEDRAL
Info: 0 IMPROPER
Info: 0 CROSSTERM
Info: 0 VDW
Info: 36 VDW_PAIRS
Info: 0 NBTHOLE_PAIRS
Info: STRUCTURE SUMMARY:
Info: 4283 ATOMS
Info: 4282 BONDS
Info: 16 ANGLES
Info: 23 DIHEDRALS
Info: 0 IMPROPERS
Info: 0 CROSSTERMS
Info: 4315 EXCLUSIONS
Info: 4278 RIGID BONDS
Info: 8571 DEGREES OF FREEDOM
Info: 1429 HYDROGEN GROUPS
Info: 4 ATOMS IN LARGEST HYDROGEN GROUP
Info: 1429 MIGRATION GROUPS
Info: 4 ATOMS IN LARGEST MIGRATION GROUP
Info: TOTAL MASS = 25728.9 amu
Info: TOTAL CHARGE = 4.09782e-08 e
Info: MASS DENSITY = 0.700956 g/cm^3
Info: ATOM DENSITY = 0.0702682 atoms/A^3
Info: ADDED 0 IMPLICIT EXCLUSIONS
Info: NONBONDED TABLE R-SQUARED SPACING: 0.0625
Info: NONBONDED TABLE SIZE: 705 POINTS
Info: REMOVING COM VELOCITY -0.0522464 -0.0887238 -0.00898252
TCL: Minimizing for 2000 steps
ETITLE: TS BOND ANGLE DIHED IMPRP ELECT VDW BOUNDARY MISC KINETIC TOTAL TEMP POTENTIAL TOTAL3 TEMPAVG PRESSURE GPRESSURE VOLUME PRESSAVG GPRESSAVG
ENERGY: 0 0.1664 1.2195 16.0994 0.0000 -13200.1185 1539.0061 0.0000 0.0000 0.0000 -11643.6272 0.0000 -11643.6272 -11643.6272 0.0000 10830.5761 -15028.9599 60952.1712 10830.5761 -15028.9599
ENERGY: 400 3.6129 1.9440 16.1187 0.0000 -17603.6220 2477.2718 0.0000 0.0000 0.0000 -15104.6746 0.0000 -15104.6746 -15104.6746 0.0000 14541.7329 14660.9889 60952.1712 14541.7329 14660.9889
ENERGY: 800 0.8547 1.0853 13.4862 0.0000 -18733.9640 3002.5236 0.0000 0.0000 0.0000 -15716.0142 0.0000 -15716.0142 -15716.0142 0.0000 17255.2086 17330.5081 60952.1712 17255.2086 17330.5081
ENERGY: 1200 0.6708 0.6097 13.2522 0.0000 -19279.8800 3219.2663 0.0000 0.0000 0.0000 -16046.0811 0.0000 -16046.0811 -16046.0811 0.0000 18401.1551 18431.1443 60952.1712 18401.1551 18431.1443
ENERGY: 1600 0.2145 0.7032 13.6560 0.0000 -19500.5830 3312.9942 0.0000 0.0000 0.0000 -16173.0150 0.0000 -16173.0150 -16173.0150 0.0000 18935.2925 18984.4931 60952.1712 18935.2925 18984.4931
ENERGY: 2000 0.1175 0.4805 13.6294 0.0000 -19654.4461 3386.5649 0.0000 0.0000 0.0000 -16253.6538 0.0000 -16253.6538 -16253.6538 0.0000 19356.9748 19400.9840 60952.1712 19356.9748 19400.9840
TCL: Exiting due to exit command.
Info: NAMD 3.0.1 for Linux-x86_64-multicore
Info: Please visit http://www.ks.uiuc.edu/Research/namd/
Info: for updates, documentation, and support information.
Info: Please cite Phillips et al., J. Chem. Phys. 153:044130 (2020) doi:10.1063/5.0014475
Info: in all publications reporting results obtained with NAMD.
Info: Based on Charm++/Converse 80000 for multicore-linux-x86_64-gcc
Info: Built Mon Oct 14 11:11:06 CDT 2024 by dhardy on athine.ks.uiuc.edu
Info: 1 NAMD  3.0.1  Linux-x86_64-multicore  16    k063  z5358697
Info: Running on 16 processors, 1 nodes, 1 physical nodes.
Info: CPU topology information available.
Info: Charm++/Converse parallel runtime startup completed at 0.00930447 s
Info: 1043.46 MB of memory in use based on /proc/self/stat
Info: Configuration file is mobley_7758918_equil.namd
Info: Working in the current directory /srv/scratch/z5358697/prod_prep_10/7758918
TCL: Running 25000 steps at 30 kelvin.
TCL: Suspending until startup complete.
Info: SIMULATION PARAMETERS:
Info: TIMESTEP               2
Info: NUMBER OF STEPS        0
Info: STEPS PER CYCLE        10
Info: PERIODIC CELL BASIS 1  39.546 0 0
Info: PERIODIC CELL BASIS 2  0 38.729 0
Info: PERIODIC CELL BASIS 3  0 0 39.797
Info: PERIODIC CELL CENTER   0 0 0
Info: WRAPPING WATERS AROUND PERIODIC BOUNDARIES ON OUTPUT.
Info: WRAPPING ALL CLUSTERS AROUND PERIODIC BOUNDARIES ON OUTPUT.
Info: FIRST LDB TIMESTEP     50
Info: LAST LDB TIMESTEP     -1
Info: HOM BACKGROUND SCALING 1
Info: PME BACKGROUND SCALING 1
Info: MIN ATOMS PER PATCH    40
Info: EMPTY PATCH LOAD       40 ATOMS
Info: INITIAL TEMPERATURE    300
Info: CENTER OF MASS MOVING INITIALLY? NO
Info: DIELECTRIC             1
Info: EXCLUDE                SCALED ONE-FOUR
Info: 1-4 ELECTROSTATICS SCALED BY 0.833333
Info: MODIFIED 1-4 VDW PARAMETERS WILL BE USED
Info: DCD FILENAME           mobley_7758918_equil.dcd
Info: DCD FREQUENCY          5000
Info: DCD FIRST STEP         5000
Info: DCD FILE WILL CONTAIN UNIT CELL DATA
Info: XST FILENAME           mobley_7758918_equil.xst
Info: XST FREQUENCY          5000
Info: NO VELOCITY DCD OUTPUT
Info: NO FORCE DCD OUTPUT
Info: OUTPUT FILENAME        mobley_7758918_equil
Info: BINARY OUTPUT FILES WILL BE USED
Info: RESTART FILENAME       mobley_7758918_equil.restart
Info: RESTART FREQUENCY      5000
Info: BINARY RESTART FILES WILL BE USED
Info: CUTOFF                 9
Info: PAIRLIST DISTANCE      11
Info: PAIRLIST SHRINK RATE   0.01
Info: PAIRLIST GROW RATE     0.01
Info: PAIRLIST TRIGGER       0.3
Info: PAIRLISTS PER CYCLE    2
Info: PAIRLISTS ENABLED
Info: MARGIN                 8
Info: HYDROGEN GROUP CUTOFF  2.5
Info: PATCH DIMENSION        21.5
Info: ENERGY OUTPUT STEPS    5000
Info: ENERGY EVALUATION STEPS    5000
Info: OUTPUT ENERGY PRECISION 4
Info: CROSSTERM ENERGY INCLUDED IN DIHEDRAL
Info: TIMING OUTPUT STEPS    50000
Info: PRESSURE OUTPUT STEPS  5000
Info: LANGEVIN DYNAMICS ACTIVE
Info: LANGEVIN TEMPERATURE   30
Info: LANGEVIN USING BBK INTEGRATOR
Info: LANGEVIN DAMPING COEFFICIENT IS 1 INVERSE PS
Info: LANGEVIN DYNAMICS APPLIED TO HYDROGENS
Info: LANGEVIN PISTON PRESSURE CONTROL ACTIVE
Info:        TARGET PRESSURE IS 1.01325 BAR
Info:     OSCILLATION PERIOD IS 50 FS
Info:             DECAY TIME IS 25 FS
Info:     PISTON TEMPERATURE IS 300 K
Info:       PRESSURE CONTROL IS GROUP-BASED
Info:    INITIAL STRAIN RATE IS 0 0 0
Info:       CELL FLUCTUATION IS ISOTROPIC
Info: PARTICLE MESH EWALD (PME) ACTIVE
Info: PME TOLERANCE               1e-06
Info: PME EWALD COEFFICIENT       0.348832
Info: PME INTERPOLATION ORDER     4
Info: PME GRID DIMENSIONS         40 40 40
Info: PME MAXIMUM GRID SPACING    1
Info: FULL ELECTROSTATIC EVALUATION FREQUENCY      2
Info: USING VERLET I (r-RESPA) MTS SCHEME.
Info: C1 SPLITTING OF LONG RANGE ELECTROSTATICS
Info: PLACING ATOMS IN PATCHES BY HYDROGEN GROUPS
Info: RIGID BONDS TO HYDROGEN : ALL
Info:         ERROR TOLERANCE : 1e-08
Info:          MAX ITERATIONS : 100
Info: RIGID WATER USING SETTLE ALGORITHM
Info: RANDOM NUMBER SEED     1741389129
Info: USE HYDROGEN BONDS?    NO
Info: Using AMBER format force field!
Info: AMBER PARM FILE        mobley_7758918.prmtop
Info: COORDINATE PDB         mobley_7758918.pdb
Info: Exclusions will be read from PARM file!
Info: SCNB (VDW SCALING)     2
Info: USING ARITHMETIC MEAN TO COMBINE L-J SIGMA PARAMETERS
Info: BINARY COORDINATES     mobley_7758918_min.coor
Info: SUMMARY OF PARAMETERS:
Info: 8 BONDS
Info: 8 ANGLES
Info:   8 HARMONIC
Info:   0 COSINE-BASED
Info: 12 DIHEDRAL
Info: 0 IMPROPER
Info: 0 CROSSTERM
Info: 0 VDW
Info: 36 VDW_PAIRS
Info: 0 NBTHOLE_PAIRS
Info: STRUCTURE SUMMARY:
Info: 4283 ATOMS
Info: 4282 BONDS
Info: 16 ANGLES
Info: 23 DIHEDRALS
Info: 0 IMPROPERS
Info: 0 CROSSTERMS
Info: 4315 EXCLUSIONS
Info: 4278 RIGID BONDS
Info: 8571 DEGREES OF FREEDOM
Info: 1429 HYDROGEN GROUPS
Info: 4 ATOMS IN LARGEST HYDROGEN GROUP
Info: 1429 MIGRATION GROUPS
Info: 4 ATOMS IN LARGEST MIGRATION GROUP
Info: TOTAL MASS = 25728.9 amu
Info: TOTAL CHARGE = 4.09782e-08 e
Info: MASS DENSITY = 0.700956 g/cm^3
Info: ATOM DENSITY = 0.0702682 atoms/A^3
Info: ADDED 0 IMPLICIT EXCLUSIONS
Info: NONBONDED TABLE R-SQUARED SPACING: 0.0625
Info: NONBONDED TABLE SIZE: 705 POINTS
Info: REMOVING COM VELOCITY -0.0608509 0.0301448 -0.106391
TCL: Running for 25000 steps
ETITLE: TS BOND ANGLE DIHED IMPRP ELECT VDW BOUNDARY MISC KINETIC TOTAL TEMP POTENTIAL TOTAL3 TEMPAVG PRESSURE GPRESSURE VOLUME PRESSAVG GPRESSAVG
ENERGY: 0 0.1175 0.4805 13.6294 0.0000 -19654.4461 3386.5649 0.0000 0.0000 2507.7345 -13745.9192 294.4696 -16253.6538 -13745.4343 294.4696 66.9000 108.9757 60952.1712 66.9000 108.9757
ENERGY: 5000 0.3200 0.5352 13.3287 0.0000 -20675.0170 3661.3935 0.0000 0.0000 261.2254 -16738.2142 30.6743 -16999.4396 -16737.4557 47.2307 578.3871 635.2816 41666.5633 4.9482 4.9184
ENERGY: 10000 0.0814 0.7027 13.2487 0.0000 -20570.3812 3521.8329 0.0000 0.0000 255.3457 -16779.1699 29.9839 -17034.5156 -16778.5565 30.3125 -375.6921 -294.0338 41766.2435 6.0178 5.7844
ENERGY: 15000 0.0377 0.4922 12.9929 0.0000 -20589.0134 3521.3407 0.0000 0.0000 253.9180 -16800.2319 29.8162 -17054.1499 -16799.7029 30.1752 -337.3818 -296.9098 41655.7809 2.0822 2.0691
ENERGY: 20000 0.2022 0.6950 13.3093 0.0000 -20689.2204 3602.7550 0.0000 0.0000 258.3425 -16813.9163 30.3358 -17072.2589 -16812.9452 30.1815 95.8843 154.5344 41506.2991 3.2966 3.2262
ENERGY: 25000 0.3142 0.5426 13.1623 0.0000 -20610.1557 3504.9690 0.0000 0.0000 254.9969 -16836.1707 29.9429 -17091.1675 -16835.7024 30.1488 -538.8519 -495.2670 41635.3328 -1.2828 -1.3644
TCL: Running 25000 steps at 60 kelvin.
TCL: Setting parameter langevinTemp to 60
TCL: Running for 25000 steps
ETITLE: TS BOND ANGLE DIHED IMPRP ELECT VDW BOUNDARY MISC KINETIC TOTAL TEMP POTENTIAL TOTAL3 TEMPAVG PRESSURE GPRESSURE VOLUME PRESSAVG GPRESSAVG
ENERGY: 25000 0.3142 0.5426 13.1623 0.0000 -20610.1557 3504.9690 0.0000 0.0000 254.8691 -16836.2984 29.9279 -17091.1675 -16835.7113 29.9279 -542.7125 -495.4685 41635.3328 -542.7125 -495.4685
ENERGY: 30000 0.1757 1.1541 13.1373 0.0000 -20303.8477 3433.8549 0.0000 0.0000 520.9679 -16334.5577 61.1744 -16855.5257 -16333.1416 57.0437 -268.3799 -223.1061 41620.1471 2.5255 2.6115
ENERGY: 35000 0.0141 0.8266 13.9459 0.0000 -20320.6583 3405.7668 0.0000 0.0000 519.0326 -16381.0724 60.9472 -16900.1050 -16379.1694 60.3887 -463.7730 -415.1174 41423.4157 -1.6323 -1.7041
ENERGY: 40000 0.7112 1.3614 13.4896 0.0000 -20517.8773 3556.8682 0.0000 0.0000 511.9235 -16433.5233 60.1124 -16945.4469 -16432.8632 60.4286 304.4807 373.1432 41170.2769 1.2726 1.1028
ENERGY: 45000 0.4136 0.6915 12.9119 0.0000 -20370.1906 3379.9484 0.0000 0.0000 500.7048 -16475.5203 58.7950 -16976.2252 -16474.1866 60.2264 -809.2935 -765.9877 41467.9785 2.8940 2.7052
ENERGY: 50000 0.4244 0.9599 13.4981 0.0000 -20573.3270 3573.9724 0.0000 0.0000 511.2883 -16473.1838 60.0378 -16984.4722 -16471.8605 60.0644 354.9526 385.3033 41092.0961 6.3858 6.2395
TCL: Running 25000 steps at 90 kelvin.
TCL: Setting parameter langevinTemp to 90
TCL: Running for 25000 steps
ETITLE: TS BOND ANGLE DIHED IMPRP ELECT VDW BOUNDARY MISC KINETIC TOTAL TEMP POTENTIAL TOTAL3 TEMPAVG PRESSURE GPRESSURE VOLUME PRESSAVG GPRESSAVG
ENERGY: 50000 0.4244 0.9599 13.4981 0.0000 -20573.3270 3573.9724 0.0000 0.0000 511.0357 -16473.4365 60.0081 -16984.4722 -16472.5718 60.0081 338.6892 385.3792 41092.0961 338.6892 385.3792
ENERGY: 55000 0.1819 1.4669 13.9354 0.0000 -20149.2970 3388.2884 0.0000 0.0000 773.9869 -15971.4374 90.8851 -16745.4244 -15969.1748 86.7937 -170.7464 -79.7041 41465.6653 -0.3615 0.0083
ENERGY: 60000 1.1032 1.9005 13.5351 0.0000 -20282.4772 3514.2658 0.0000 0.0000 764.3871 -15987.2855 89.7578 -16751.6726 -15985.5850 90.2689 598.4864 649.0336 41234.8474 5.5906 5.9429
ENERGY: 65000 0.9576 1.3918 13.2107 0.0000 -20062.1441 3266.1453 0.0000 0.0000 775.8435 -16004.5952 91.1031 -16780.4387 -16002.3230 90.9005 -997.2337 -972.6948 41697.4451 -0.8061 -0.5908
ENERGY: 70000 0.6697 1.1174 13.7995 0.0000 -20152.3367 3350.1819 0.0000 0.0000 763.4239 -16023.1444 89.6447 -16786.5683 -16021.4323 90.5075 -541.3197 -482.4212 41505.1118 3.7227 3.6877
ENERGY: 75000 0.1099 0.7229 13.3047 0.0000 -20222.2983 3386.8574 0.0000 0.0000 771.0240 -16050.2794 90.5371 -16821.3033 -16049.2827 90.6286 -362.0533 -271.8492 41299.4278 1.9687 1.9785
TCL: Running 25000 steps at 120 kelvin.
TCL: Setting parameter langevinTemp to 120
TCL: Running for 25000 steps
ETITLE: TS BOND ANGLE DIHED IMPRP ELECT VDW BOUNDARY MISC KINETIC TOTAL TEMP POTENTIAL TOTAL3 TEMPAVG PRESSURE GPRESSURE VOLUME PRESSAVG GPRESSAVG
ENERGY: 75000 0.1099 0.7229 13.3047 0.0000 -20222.2983 3386.8574 0.0000 0.0000 770.6399 -16050.6635 90.4920 -16821.3033 -16049.4655 90.4920 -335.0575 -272.6602 41299.4278 -335.0575 -272.6602
ENERGY: 80000 0.3405 1.8722 13.1743 0.0000 -19806.6646 3277.3555 0.0000 0.0000 1021.5918 -15492.3303 119.9600 -16513.9221 -15490.0241 116.7310 -297.7727 -240.8654 41679.1819 4.7389 4.6573
ENERGY: 85000 0.2804 3.6474 12.8827 0.0000 -19974.0768 3413.1671 0.0000 0.0000 1023.4628 -15520.6364 120.1797 -16544.0992 -15518.3635 120.5215 494.0713 569.1719 41420.2348 6.8709 7.0387
ENERGY: 90000 0.4784 3.1758 12.7457 0.0000 -19908.1947 3325.5397 0.0000 0.0000 1017.9986 -15548.2565 119.5380 -16566.2550 -15546.0443 120.1827 4.8080 28.0645 41470.8451 1.3733 1.2955
ENERGY: 95000 0.9316 1.7911 14.0934 0.0000 -19802.8314 3217.9252 0.0000 0.0000 1035.0575 -15533.0326 121.5412 -16568.0901 -15529.5136 120.4739 -668.4990 -624.4575 41664.7619 3.5217 3.2513
ENERGY: 100000 0.9185 1.6329 13.6298 0.0000 -19892.1683 3307.3923 0.0000 0.0000 1038.5172 -15530.0776 121.9474 -16568.5948 -15527.2874 120.8751 -252.0338 -200.7613 41844.6199 3.7220 3.7580
TCL: Running 25000 steps at 150 kelvin.
TCL: Setting parameter langevinTemp to 150
TCL: Running for 25000 steps
ETITLE: TS BOND ANGLE DIHED IMPRP ELECT VDW BOUNDARY MISC KINETIC TOTAL TEMP POTENTIAL TOTAL3 TEMPAVG PRESSURE GPRESSURE VOLUME PRESSAVG GPRESSAVG
ENERGY: 100000 0.9185 1.6329 13.6298 0.0000 -19892.1683 3307.3923 0.0000 0.0000 1038.0024 -15530.5924 121.8870 -16568.5948 -15528.7120 121.8870 -259.7245 -200.1986 41844.6199 -259.7245 -200.1986
ENERGY: 105000 0.6877 1.5744 13.7714 0.0000 -19579.7179 3252.8998 0.0000 0.0000 1269.0094 -15041.7753 149.0129 -16310.7847 -15037.9760 146.8576 273.3116 324.4347 41668.9151 1.3550 1.0989
ENERGY: 110000 1.0962 2.8511 13.7907 0.0000 -19472.5255 3168.5370 0.0000 0.0000 1314.3138 -14971.9368 154.3327 -16286.2505 -14970.0359 150.8843 -241.4235 -159.1575 41709.4980 -2.6122 -2.9432
ENERGY: 115000 0.0516 1.9271 14.7299 0.0000 -19638.3880 3245.1066 0.0000 0.0000 1276.0595 -15100.5132 149.8407 -16376.5727 -15096.8929 150.3968 147.8163 164.8337 41365.5259 3.1696 3.2733
ENERGY: 120000 2.8836 1.9486 14.3551 0.0000 -19641.0747 3284.2142 0.0000 0.0000 1304.4031 -15033.2702 153.1689 -16337.6733 -15030.3260 150.5616 133.1641 191.5970 41789.7136 -0.6523 -0.7638
ENERGY: 125000 0.9387 0.9535 13.1664 0.0000 -19653.3012 3258.9166 0.0000 0.0000 1297.7955 -15081.5306 152.3930 -16379.3260 -15078.1582 149.6043 59.6540 108.0468 41697.4404 0.5571 0.9464
TCL: Running 50000 steps at 180 kelvin.
TCL: Setting parameter langevinTemp to 180
TCL: Running for 50000 steps
ETITLE: TS BOND ANGLE DIHED IMPRP ELECT VDW BOUNDARY MISC KINETIC TOTAL TEMP POTENTIAL TOTAL3 TEMPAVG PRESSURE GPRESSURE VOLUME PRESSAVG GPRESSAVG
ENERGY: 125000 0.9387 0.9535 13.1664 0.0000 -19653.3012 3258.9166 0.0000 0.0000 1297.1495 -15082.1766 152.3172 -16379.3260 -15079.3300 152.3172 50.8240 107.7644 41697.4404 50.8240 107.7644
ENERGY: 135000 0.6566 3.5551 13.8482 0.0000 -18984.6033 3036.0867 0.0000 0.0000 1526.7820 -14403.6747 179.2817 -15930.4567 -14401.9748 180.2230 -148.7284 -104.5372 41905.3358 7.4454 7.6753
ENERGY: 145000 3.7905 2.1958 13.0765 0.0000 -19206.2635 3214.5151 0.0000 0.0000 1496.6219 -14476.0636 175.7401 -15972.6856 -14472.9085 180.2078 971.5290 996.9631 41656.1216 3.5933 3.5183
ENERGY: 155000 0.2316 1.9447 13.7973 0.0000 -19119.8072 3101.8390 0.0000 0.0000 1543.1186 -14458.8759 181.2000 -16001.9946 -14455.1903 181.2601 104.8718 148.5640 41869.7808 2.8340 2.8083
ENERGY: 165000 1.4832 1.5947 13.6587 0.0000 -19149.8616 3079.4092 0.0000 0.0000 1498.8274 -14554.8884 175.9991 -16053.7158 -14551.2367 180.2387 -241.0971 -188.8703 41954.7190 4.4699 4.1448
ENERGY: 175000 0.6821 2.4858 12.7573 0.0000 -19160.2404 3078.8825 0.0000 0.0000 1585.0353 -14480.3974 186.1221 -16065.4327 -14475.9987 180.0986 -211.1640 -165.5674 41813.9521 2.8359 2.6010
TCL: Running 50000 steps at 210 kelvin.
TCL: Setting parameter langevinTemp to 210
TCL: Running for 50000 steps
ETITLE: TS BOND ANGLE DIHED IMPRP ELECT VDW BOUNDARY MISC KINETIC TOTAL TEMP POTENTIAL TOTAL3 TEMPAVG PRESSURE GPRESSURE VOLUME PRESSAVG GPRESSAVG
ENERGY: 175000 0.6821 2.4858 12.7573 0.0000 -19160.2404 3078.8825 0.0000 0.0000 1584.2727 -14481.1600 186.0325 -16065.4327 -14478.1074 186.0325 -235.1412 -166.1050 41813.9521 -235.1412 -166.1050
ENERGY: 185000 1.2575 3.8961 14.0125 0.0000 -18078.4345 2734.2913 0.0000 0.0000 1766.0408 -13558.9363 207.3765 -15324.9771 -13554.4119 209.2238 -412.4264 -318.5673 42126.8253 -3.8824 -3.9993
ENERGY: 195000 0.4629 3.0052 14.6381 0.0000 -18009.6761 2719.1976 0.0000 0.0000 1777.1073 -13495.2649 208.6760 -15272.3723 -13491.4309 209.0588 -99.2890 -66.4998 41760.0813 -2.9860 -2.7170
ENERGY: 205000 0.6255 2.9123 13.9362 0.0000 -18262.3740 2895.1948 0.0000 0.0000 1785.4641 -13564.2411 209.6573 -15349.7052 -13561.9703 211.7185 593.1741 738.0303 41753.7120 -3.1821 -3.1069
ENERGY: 215000 0.2179 2.3931 14.8016 0.0000 -18238.6692 2826.7347 0.0000 0.0000 1818.9736 -13575.5483 213.5921 -15394.5219 -13573.8710 209.7791 346.2472 484.8783 41290.1831 -0.3227 -0.3403
ENERGY: 225000 0.5109 3.2332 14.2083 0.0000 -18022.5175 2749.3794 0.0000 0.0000 1769.8509 -13485.3350 207.8239 -15255.1858 -13482.5165 210.2991 39.6332 121.8354 41788.4999 3.2477 3.3537
TCL: Running 50000 steps at 240 kelvin.
TCL: Setting parameter langevinTemp to 240
TCL: Running for 50000 steps
ETITLE: TS BOND ANGLE DIHED IMPRP ELECT VDW BOUNDARY MISC KINETIC TOTAL TEMP POTENTIAL TOTAL3 TEMPAVG PRESSURE GPRESSURE VOLUME PRESSAVG GPRESSAVG
ENERGY: 225000 0.5109 3.2332 14.2083 0.0000 -18022.5175 2749.3794 0.0000 0.0000 1768.9655 -13486.2203 207.7200 -15255.1859 -13483.4401 207.7200 44.6010 121.9660 41788.4999 44.6010 121.9660
ENERGY: 235000 0.7356 3.6349 13.3310 0.0000 -17188.0956 2487.4905 0.0000 0.0000 2066.1923 -12616.7113 242.6217 -14682.9036 -12612.2195 240.0409 -14.4415 107.5201 41966.6894 3.4532 3.0494
ENERGY: 245000 0.6593 4.6350 13.1491 0.0000 -17106.9857 2432.7814 0.0000 0.0000 2045.6356 -12610.1252 240.2078 -14655.7608 -12604.6038 239.6667 -384.6299 -363.6889 42421.8229 5.6754 6.1356
ENERGY: 255000 0.3848 4.3005 13.5428 0.0000 -17016.2297 2408.3978 0.0000 0.0000 2027.8947 -12561.7091 238.1246 -14589.6038 -12557.0838 240.2564 -451.5306 -328.6317 42183.7356 -3.4295 -2.5670
ENERGY: 265000 0.2545 4.1748 14.3738 0.0000 -16922.4075 2347.2450 0.0000 0.0000 2077.0612 -12479.2982 243.8980 -14556.3594 -12475.7943 240.8249 -704.9787 -569.7389 42341.9190 0.8302 1.1174
ENERGY: 275000 1.0743 2.7253 14.8117 0.0000 -17130.4221 2464.8951 0.0000 0.0000 2046.3795 -12600.5362 240.2952 -14646.9157 -12596.4593 239.6034 -24.3019 93.4506 41901.2127 -0.9219 -1.0962
TCL: Running 50000 steps at 270 kelvin.
TCL: Setting parameter langevinTemp to 270
TCL: Running for 50000 steps
ETITLE: TS BOND ANGLE DIHED IMPRP ELECT VDW BOUNDARY MISC KINETIC TOTAL TEMP POTENTIAL TOTAL3 TEMPAVG PRESSURE GPRESSURE VOLUME PRESSAVG GPRESSAVG
ENERGY: 275000 1.0743 2.7253 14.8117 0.0000 -17130.4221 2464.8951 0.0000 0.0000 2045.3632 -12601.5525 240.1758 -14646.9157 -12598.1276 240.1758 15.5752 92.9129 41901.2127 15.5752 92.9129
ENERGY: 285000 0.3417 4.8157 16.1726 0.0000 -16207.5889 2217.1879 0.0000 0.0000 2258.2268 -11710.8441 265.1713 -13969.0709 -11707.0586 270.0906 -242.2985 -169.3613 43139.5652 -1.4285 -1.4310
ENERGY: 295000 0.7500 4.5854 13.5886 0.0000 -16310.8819 2208.1041 0.0000 0.0000 2343.0404 -11740.8135 275.1305 -14083.8538 -11736.1475 270.5217 -645.3006 -557.1508 43400.0072 3.8521 3.8428
ENERGY: 305000 0.8179 5.2575 14.0385 0.0000 -16304.6536 2239.1809 0.0000 0.0000 2252.5974 -11792.7614 264.5102 -14045.3589 -11790.0199 269.3591 -272.0562 -189.7311 42846.7970 -1.3767 -0.9844
ENERGY: 315000 4.7666 1.7389 14.7701 0.0000 -16349.2717 2335.5107 0.0000 0.0000 2313.7964 -11678.6890 271.6965 -13992.4854 -11673.6952 268.8797 432.4421 507.5246 43075.7568 -2.6937 -2.9403
ENERGY: 325000 1.4623 2.2239 13.0052 0.0000 -16379.0850 2382.8798 0.0000 0.0000 2326.3097 -11653.2041 273.1659 -13979.5138 -11648.2463 273.1548 683.0948 793.6789 42795.0423 3.0752 2.5402
TCL: Running 1000000 steps at 300 kelvin.
TCL: Setting parameter langevinTemp to 300
TCL: Running for 1000000 steps
ETITLE: TS BOND ANGLE DIHED IMPRP ELECT VDW BOUNDARY MISC KINETIC TOTAL TEMP POTENTIAL TOTAL3 TEMPAVG PRESSURE GPRESSURE VOLUME PRESSAVG GPRESSAVG
ENERGY: 325000 1.4623 2.2239 13.0052 0.0000 -16379.0850 2382.8798 0.0000 0.0000 2325.1834 -11654.3304 273.0336 -13979.5138 -11651.7298 273.0336 712.1776 794.9774 42795.0423 712.1776 794.9774
ENERGY: 525000 3.5026 6.4129 13.0570 0.0000 -15515.8168 2006.3569 0.0000 0.0000 2614.7573 -10871.7300 307.0367 -13486.4873 -10868.8036 300.9739 -507.9915 -433.0242 44430.0422 -3.2348 -3.1674
ENERGY: 725000 2.9688 2.9607 14.1919 0.0000 -15738.2732 2181.4016 0.0000 0.0000 2483.6411 -11053.1091 291.6404 -13536.7503 -11048.6640 298.9633 352.9837 432.8656 43864.8982 0.7003 0.9944
ENERGY: 925000 2.0983 2.6739 13.7184 0.0000 -15545.1244 2047.7367 0.0000 0.0000 2555.7946 -10923.1024 300.1130 -13478.8970 -10917.5535 298.6887 -233.0175 -174.0888 44254.3818 -0.3044 -0.8611
ENERGY: 1125000 0.8057 3.7099 14.3215 0.0000 -15780.2763 2222.7380 0.0000 0.0000 2561.9842 -10976.7170 300.8398 -13538.7012 -10973.0898 301.2614 604.6528 735.5348 43773.6632 4.2461 4.6960
ENERGY: 1325000 0.7512 4.6189 13.3520 0.0000 -15611.7513 2101.5459 0.0000 0.0000 2631.4095 -10860.0740 308.9921 -13491.4835 -10855.0691 298.3474 -3.5436 110.3830 43959.9980 0.7055 1.4437
TCL: Exiting due to exit command.
