Info: SIMULATION PARAMETERS:
Info: TIMESTEP               2
Info: NUMBER OF STEPS        0
Info: STEPS PER CYCLE        10
Info: PERIODIC CELL BASIS 1  40.176 0 0
Info: PERIODIC CELL BASIS 2  0 39.757 0
Info: PERIODIC CELL BASIS 3  0 0 40.47
Info: PERIODIC CELL CENTER   0 0 0
Info: WRAPPING WATERS AROUND PERIODIC BOUNDARIES ON OUTPUT.
Info: WRAPPING ALL CLUSTERS AROUND PERIODIC BOUNDARIES ON OUTPUT.
Info: FIRST LDB TIMESTEP     50
Info: LAST LDB TIMESTEP     -1
Info: HOM BACKGROUND SCALING 1
Info: PME BACKGROUND SCALING 1
Info: MIN ATOMS PER PATCH    40
Info: EMPTY PATCH LOAD       40 ATOMS
Info: INITIAL TEMPERATURE    300
Info: CENTER OF MASS MOVING INITIALLY? NO
Info: DIELECTRIC             1
Info: EXCLUDE                SCALED ONE-FOUR
Info: 1-4 ELECTROSTATICS SCALED BY 0.833333
Info: MODIFIED 1-4 VDW PARAMETERS WILL BE USED
Info: DCD FILENAME           mobley_5852491_min.dcd
Info: DCD FREQUENCY          5000
Info: DCD FIRST STEP         5000
Info: DCD FILE WILL CONTAIN UNIT CELL DATA
Info: XST FILENAME           mobley_5852491_min.xst
Info: XST FREQUENCY          5000
Info: NO VELOCITY DCD OUTPUT
Info: NO FORCE DCD OUTPUT
Info: OUTPUT FILENAME        mobley_5852491_min
Info: BINARY OUTPUT FILES WILL BE USED
Info: RESTART FILENAME       mobley_5852491_min.restart
Info: RESTART FREQUENCY      5000
Info: BINARY RESTART FILES WILL BE USED
Info: CUTOFF                 9
Info: PAIRLIST DISTANCE      11
Info: PAIRLIST SHRINK RATE   0.01
Info: PAIRLIST GROW RATE     0.01
Info: PAIRLIST TRIGGER       0.3
Info: PAIRLISTS PER CYCLE    2
Info: PAIRLISTS ENABLED
Info: MARGIN                 8
Info: HYDROGEN GROUP CUTOFF  2.5
Info: PATCH DIMENSION        21.5
Info: ENERGY OUTPUT STEPS    5000
Info: ENERGY EVALUATION STEPS    5000
Info: OUTPUT ENERGY PRECISION 4
Info: CROSSTERM ENERGY INCLUDED IN DIHEDRAL
Info: TIMING OUTPUT STEPS    50000
Info: PRESSURE OUTPUT STEPS  5000
Info: LANGEVIN DYNAMICS ACTIVE
Info: LANGEVIN TEMPERATURE   300
Info: LANGEVIN USING BBK INTEGRATOR
Info: LANGEVIN DAMPING COEFFICIENT IS 1 INVERSE PS
Info: LANGEVIN DYNAMICS APPLIED TO HYDROGENS
Info: LANGEVIN PISTON PRESSURE CONTROL ACTIVE
Info:        TARGET PRESSURE IS 1.01325 BAR
Info:     OSCILLATION PERIOD IS 50 FS
Info:             DECAY TIME IS 25 FS
Info:     PISTON TEMPERATURE IS 300 K
Info:       PRESSURE CONTROL IS GROUP-BASED
Info:    INITIAL STRAIN RATE IS 0 0 0
Info:       CELL FLUCTUATION IS ISOTROPIC
Info: PARTICLE MESH EWALD (PME) ACTIVE
Info: PME TOLERANCE               1e-06
Info: PME EWALD COEFFICIENT       0.348832
Info: PME INTERPOLATION ORDER     4
Info: PME GRID DIMENSIONS         44 40 44
Info: PME MAXIMUM GRID SPACING    1
Info: FULL ELECTROSTATIC EVALUATION FREQUENCY      2
Info: USING VERLET I (r-RESPA) MTS SCHEME.
Info: C1 SPLITTING OF LONG RANGE ELECTROSTATICS
Info: PLACING ATOMS IN PATCHES BY HYDROGEN GROUPS
Info: RIGID BONDS TO HYDROGEN : ALL
Info:         ERROR TOLERANCE : 1e-08
Info:          MAX ITERATIONS : 100
Info: RIGID WATER USING SETTLE ALGORITHM
Info: RANDOM NUMBER SEED     1741353298
Info: USE HYDROGEN BONDS?    NO
Info: Using AMBER format force field!
Info: AMBER PARM FILE        mobley_5852491.prmtop
Info: COORDINATE PDB         mobley_5852491.pdb
Info: Exclusions will be read from PARM file!
Info: SCNB (VDW SCALING)     2
Info: USING ARITHMETIC MEAN TO COMBINE L-J SIGMA PARAMETERS
Info: SUMMARY OF PARAMETERS:
Info: 4 BONDS
Info: 3 ANGLES
Info:   3 HARMONIC
Info:   0 COSINE-BASED
Info: 3 DIHEDRAL
Info: 0 IMPROPER
Info: 0 CROSSTERM
Info: 0 VDW
Info: 10 VDW_PAIRS
Info: 0 NBTHOLE_PAIRS
Info: STRUCTURE SUMMARY:
Info: 4734 ATOMS
Info: 4734 BONDS
Info: 36 ANGLES
Info: 54 DIHEDRALS
Info: 0 IMPROPERS
Info: 0 CROSSTERMS
Info: 4819 EXCLUSIONS
Info: 4728 RIGID BONDS
Info: 9474 DEGREES OF FREEDOM
Info: 1578 HYDROGEN GROUPS
Info: 4 ATOMS IN LARGEST HYDROGEN GROUP
Info: 1578 MIGRATION GROUPS
Info: 4 ATOMS IN LARGEST MIGRATION GROUP
Info: TOTAL MASS = 28405.3 amu
Info: TOTAL CHARGE = 0.000100002 e
Info: MASS DENSITY = 0.729702 g/cm^3
Info: ATOM DENSITY = 0.0732343 atoms/A^3
Info: ADDED 0 IMPLICIT EXCLUSIONS
Info: NONBONDED TABLE R-SQUARED SPACING: 0.0625
Info: NONBONDED TABLE SIZE: 705 POINTS
Info: REMOVING COM VELOCITY 0.0810065 -0.0222076 -0.0116364
TCL: Minimizing for 2000 steps
ETITLE: TS BOND ANGLE DIHED IMPRP ELECT VDW BOUNDARY MISC KINETIC TOTAL TEMP POTENTIAL TOTAL3 TEMPAVG PRESSURE GPRESSURE VOLUME PRESSAVG GPRESSAVG
ENERGY: 0 0.1663 6.8545 8.2181 0.0000 -14899.7442 1708.6385 0.0000 0.0000 0.0000 -13175.8667 0.0000 -13175.8667 -13175.8667 0.0000 11455.3108 -16120.5946 64641.8096 11455.3108 -16120.5946
ENERGY: 400 2.6625 7.8637 8.8840 0.0000 -20229.7462 3089.6767 0.0000 0.0000 0.0000 -17120.6593 0.0000 -17120.6593 -17120.6593 0.0000 17050.2435 16805.8541 64641.8096 17050.2435 16805.8541
ENERGY: 800 0.4768 6.3209 8.8401 0.0000 -21030.2547 3452.9126 0.0000 0.0000 0.0000 -17561.7044 0.0000 -17561.7044 -17561.7044 0.0000 18807.6201 18518.5008 64641.8096 18807.6201 18518.5008
ENERGY: 1200 5.7674 9.2487 8.8328 0.0000 -21374.2851 3614.0386 0.0000 0.0000 0.0000 -17736.3976 0.0000 -17736.3976 -17736.3976 0.0000 19630.1302 19397.5066 64641.8096 19630.1302 19397.5066
ENERGY: 1600 0.2515 6.1194 8.9223 0.0000 -21641.0389 3742.5290 0.0000 0.0000 0.0000 -17883.2167 0.0000 -17883.2167 -17883.2167 0.0000 20355.3139 20103.2641 64641.8096 20355.3139 20103.2641
ENERGY: 2000 0.1638 5.9286 8.9338 0.0000 -21722.9428 3754.4010 0.0000 0.0000 0.0000 -17953.5156 0.0000 -17953.5156 -17953.5156 0.0000 20431.7222 20142.8765 64641.8096 20431.7222 20142.8765
TCL: Exiting due to exit command.
Info: NAMD 3.0.1 for Linux-x86_64-multicore
Info: Please visit http://www.ks.uiuc.edu/Research/namd/
Info: for updates, documentation, and support information.
Info: Please cite Phillips et al., J. Chem. Phys. 153:044130 (2020) doi:10.1063/5.0014475
Info: in all publications reporting results obtained with NAMD.
Info: Based on Charm++/Converse 80000 for multicore-linux-x86_64-gcc
Info: Built Mon Oct 14 11:11:06 CDT 2024 by dhardy on athine.ks.uiuc.edu
Info: 1 NAMD  3.0.1  Linux-x86_64-multicore  16    k138  z5358697
Info: Running on 16 processors, 1 nodes, 1 physical nodes.
Info: CPU topology information available.
Info: Charm++/Converse parallel runtime startup completed at 0.00504677 s
Info: 1043.48 MB of memory in use based on /proc/self/stat
Info: Configuration file is mobley_5852491_equil.namd
Info: Working in the current directory /srv/scratch/z5358697/prod_prep_7/5852491
TCL: Running 25000 steps at 30 kelvin.
TCL: Suspending until startup complete.
Info: SIMULATION PARAMETERS:
Info: TIMESTEP               2
Info: NUMBER OF STEPS        0
Info: STEPS PER CYCLE        10
Info: PERIODIC CELL BASIS 1  40.176 0 0
Info: PERIODIC CELL BASIS 2  0 39.757 0
Info: PERIODIC CELL BASIS 3  0 0 40.47
Info: PERIODIC CELL CENTER   0 0 0
Info: WRAPPING WATERS AROUND PERIODIC BOUNDARIES ON OUTPUT.
Info: WRAPPING ALL CLUSTERS AROUND PERIODIC BOUNDARIES ON OUTPUT.
Info: FIRST LDB TIMESTEP     50
Info: LAST LDB TIMESTEP     -1
Info: HOM BACKGROUND SCALING 1
Info: PME BACKGROUND SCALING 1
Info: MIN ATOMS PER PATCH    40
Info: EMPTY PATCH LOAD       40 ATOMS
Info: INITIAL TEMPERATURE    300
Info: CENTER OF MASS MOVING INITIALLY? NO
Info: DIELECTRIC             1
Info: EXCLUDE                SCALED ONE-FOUR
Info: 1-4 ELECTROSTATICS SCALED BY 0.833333
Info: MODIFIED 1-4 VDW PARAMETERS WILL BE USED
Info: DCD FILENAME           mobley_5852491_equil.dcd
Info: DCD FREQUENCY          5000
Info: DCD FIRST STEP         5000
Info: DCD FILE WILL CONTAIN UNIT CELL DATA
Info: XST FILENAME           mobley_5852491_equil.xst
Info: XST FREQUENCY          5000
Info: NO VELOCITY DCD OUTPUT
Info: NO FORCE DCD OUTPUT
Info: OUTPUT FILENAME        mobley_5852491_equil
Info: BINARY OUTPUT FILES WILL BE USED
Info: RESTART FILENAME       mobley_5852491_equil.restart
Info: RESTART FREQUENCY      5000
Info: BINARY RESTART FILES WILL BE USED
Info: CUTOFF                 9
Info: PAIRLIST DISTANCE      11
Info: PAIRLIST SHRINK RATE   0.01
Info: PAIRLIST GROW RATE     0.01
Info: PAIRLIST TRIGGER       0.3
Info: PAIRLISTS PER CYCLE    2
Info: PAIRLISTS ENABLED
Info: MARGIN                 8
Info: HYDROGEN GROUP CUTOFF  2.5
Info: PATCH DIMENSION        21.5
Info: ENERGY OUTPUT STEPS    5000
Info: ENERGY EVALUATION STEPS    5000
Info: OUTPUT ENERGY PRECISION 4
Info: CROSSTERM ENERGY INCLUDED IN DIHEDRAL
Info: TIMING OUTPUT STEPS    50000
Info: PRESSURE OUTPUT STEPS  5000
Info: LANGEVIN DYNAMICS ACTIVE
Info: LANGEVIN TEMPERATURE   30
Info: LANGEVIN USING BBK INTEGRATOR
Info: LANGEVIN DAMPING COEFFICIENT IS 1 INVERSE PS
Info: LANGEVIN DYNAMICS APPLIED TO HYDROGENS
Info: LANGEVIN PISTON PRESSURE CONTROL ACTIVE
Info:        TARGET PRESSURE IS 1.01325 BAR
Info:     OSCILLATION PERIOD IS 50 FS
Info:             DECAY TIME IS 25 FS
Info:     PISTON TEMPERATURE IS 300 K
Info:       PRESSURE CONTROL IS GROUP-BASED
Info:    INITIAL STRAIN RATE IS 0 0 0
Info:       CELL FLUCTUATION IS ISOTROPIC
Info: PARTICLE MESH EWALD (PME) ACTIVE
Info: PME TOLERANCE               1e-06
Info: PME EWALD COEFFICIENT       0.348832
Info: PME INTERPOLATION ORDER     4
Info: PME GRID DIMENSIONS         44 40 44
Info: PME MAXIMUM GRID SPACING    1
Info: FULL ELECTROSTATIC EVALUATION FREQUENCY      2
Info: USING VERLET I (r-RESPA) MTS SCHEME.
Info: C1 SPLITTING OF LONG RANGE ELECTROSTATICS
Info: PLACING ATOMS IN PATCHES BY HYDROGEN GROUPS
Info: RIGID BONDS TO HYDROGEN : ALL
Info:         ERROR TOLERANCE : 1e-08
Info:          MAX ITERATIONS : 100
Info: RIGID WATER USING SETTLE ALGORITHM
Info: RANDOM NUMBER SEED     1741353313
Info: USE HYDROGEN BONDS?    NO
Info: Using AMBER format force field!
Info: AMBER PARM FILE        mobley_5852491.prmtop
Info: COORDINATE PDB         mobley_5852491.pdb
Info: Exclusions will be read from PARM file!
Info: SCNB (VDW SCALING)     2
Info: USING ARITHMETIC MEAN TO COMBINE L-J SIGMA PARAMETERS
Info: BINARY COORDINATES     mobley_5852491_min.coor
Info: SUMMARY OF PARAMETERS:
Info: 4 BONDS
Info: 3 ANGLES
Info:   3 HARMONIC
Info:   0 COSINE-BASED
Info: 3 DIHEDRAL
Info: 0 IMPROPER
Info: 0 CROSSTERM
Info: 0 VDW
Info: 10 VDW_PAIRS
Info: 0 NBTHOLE_PAIRS
Info: STRUCTURE SUMMARY:
Info: 4734 ATOMS
Info: 4734 BONDS
Info: 36 ANGLES
Info: 54 DIHEDRALS
Info: 0 IMPROPERS
Info: 0 CROSSTERMS
Info: 4819 EXCLUSIONS
Info: 4728 RIGID BONDS
Info: 9474 DEGREES OF FREEDOM
Info: 1578 HYDROGEN GROUPS
Info: 4 ATOMS IN LARGEST HYDROGEN GROUP
Info: 1578 MIGRATION GROUPS
Info: 4 ATOMS IN LARGEST MIGRATION GROUP
Info: TOTAL MASS = 28405.3 amu
Info: TOTAL CHARGE = 0.000100002 e
Info: MASS DENSITY = 0.729702 g/cm^3
Info: ATOM DENSITY = 0.0732343 atoms/A^3
Info: ADDED 0 IMPLICIT EXCLUSIONS
Info: NONBONDED TABLE R-SQUARED SPACING: 0.0625
Info: NONBONDED TABLE SIZE: 705 POINTS
Info: REMOVING COM VELOCITY 0.016002 0.152688 -0.0299097
TCL: Running for 25000 steps
ETITLE: TS BOND ANGLE DIHED IMPRP ELECT VDW BOUNDARY MISC KINETIC TOTAL TEMP POTENTIAL TOTAL3 TEMPAVG PRESSURE GPRESSURE VOLUME PRESSAVG GPRESSAVG
ENERGY: 0 0.1638 5.9286 8.9338 0.0000 -21722.9428 3754.4010 0.0000 0.0000 2851.3928 -15102.1228 302.9103 -17953.5156 -15101.5808 302.9103 378.9496 409.2389 64641.8096 378.9496 409.2389
ENERGY: 5000 0.4310 7.0827 8.7976 0.0000 -22641.4376 3893.0847 0.0000 0.0000 290.0949 -18441.9467 30.8175 -18732.0416 -18441.2482 47.6824 -128.6148 -74.3151 46112.4412 0.7141 0.7714
ENERGY: 10000 0.0999 7.1348 8.8036 0.0000 -22584.1024 3801.7533 0.0000 0.0000 286.2737 -18480.0372 30.4115 -18766.3108 -18479.3107 30.6079 -707.6318 -655.3034 46328.6539 0.6979 0.5966
ENERGY: 15000 0.5620 6.8092 8.5533 0.0000 -22683.0315 3881.2855 0.0000 0.0000 287.6863 -18498.1353 30.5616 -18785.8216 -18497.1842 30.3877 -367.3936 -319.9348 46105.4079 1.6894 1.9016
ENERGY: 20000 0.5099 7.5301 8.0808 0.0000 -22847.9171 4026.7430 0.0000 0.0000 290.8959 -18514.1574 30.9026 -18805.0533 -18513.3309 30.0722 418.8886 464.9696 45833.5584 -2.5957 -2.5694
ENERGY: 25000 0.6743 6.5450 8.8077 0.0000 -22736.4006 3910.1382 0.0000 0.0000 286.6909 -18523.5446 30.4559 -18810.2354 -18522.8842 30.2951 -220.9796 -186.2873 45963.0035 0.0180 0.0893
TCL: Running 25000 steps at 60 kelvin.
TCL: Setting parameter langevinTemp to 60
TCL: Running for 25000 steps
ETITLE: TS BOND ANGLE DIHED IMPRP ELECT VDW BOUNDARY MISC KINETIC TOTAL TEMP POTENTIAL TOTAL3 TEMPAVG PRESSURE GPRESSURE VOLUME PRESSAVG GPRESSAVG
ENERGY: 25000 0.6743 6.5450 8.8077 0.0000 -22736.4006 3910.1382 0.0000 0.0000 286.5475 -18523.6880 30.4406 -18810.2354 -18523.1273 30.4406 -231.3670 -186.3561 45963.0035 -231.3670 -186.3561
ENERGY: 30000 0.2234 7.2634 8.6448 0.0000 -22520.3197 3952.5601 0.0000 0.0000 562.6658 -17988.9621 59.7733 -18551.6279 -17987.6087 57.4494 621.3417 683.5651 45927.8940 3.0752 2.9059
ENERGY: 35000 0.2291 8.6767 8.6846 0.0000 -22520.4173 3895.8669 0.0000 0.0000 554.8566 -18052.1033 58.9438 -18606.9600 -18050.1306 60.2655 160.6013 228.0312 46017.6229 3.2701 2.8754
ENERGY: 40000 0.1059 6.6743 10.0929 0.0000 -22567.3392 3947.1712 0.0000 0.0000 571.2273 -18032.0676 60.6828 -18603.2949 -18030.3225 60.3462 530.6811 579.2757 45846.1200 4.8130 4.8158
ENERGY: 45000 0.3804 7.8433 9.2014 0.0000 -22435.2935 3758.8832 0.0000 0.0000 576.0279 -18082.9573 61.1928 -18658.9853 -18081.4712 60.5730 -651.4379 -595.6763 46120.9731 -0.3913 -0.2468
ENERGY: 50000 0.1903 7.3672 9.9206 0.0000 -22594.9327 3909.4849 0.0000 0.0000 565.4127 -18102.5571 60.0652 -18667.9698 -18101.1541 60.3191 122.6100 180.6121 46016.3476 0.4256 0.2242
TCL: Running 25000 steps at 90 kelvin.
TCL: Setting parameter langevinTemp to 90
TCL: Running for 25000 steps
ETITLE: TS BOND ANGLE DIHED IMPRP ELECT VDW BOUNDARY MISC KINETIC TOTAL TEMP POTENTIAL TOTAL3 TEMPAVG PRESSURE GPRESSURE VOLUME PRESSAVG GPRESSAVG
ENERGY: 50000 0.1903 7.3672 9.9206 0.0000 -22594.9327 3909.4849 0.0000 0.0000 565.1264 -18102.8434 60.0347 -18667.9698 -18101.7827 60.0347 131.6321 180.6336 46016.3476 131.6321 180.6336
ENERGY: 55000 0.8040 7.5532 8.9522 0.0000 -22118.5003 3757.0210 0.0000 0.0000 837.3728 -17506.7972 88.9561 -18344.1700 -17504.3993 87.1005 27.7885 93.5681 46275.8963 0.0074 0.0433
ENERGY: 60000 0.4351 8.4493 10.3294 0.0000 -22240.5186 3849.2970 0.0000 0.0000 850.6877 -17521.3202 90.3706 -18372.0078 -17519.3635 90.5815 425.2293 489.1122 46184.2875 3.4847 3.7371
ENERGY: 65000 0.1433 9.5889 8.8736 0.0000 -22223.5693 3805.0587 0.0000 0.0000 851.7567 -17548.1481 90.4842 -18399.9048 -17546.2781 90.1170 211.5311 273.2522 46104.5726 3.6427 3.9517
ENERGY: 70000 0.6427 9.3239 9.5523 0.0000 -22315.1604 3894.3545 0.0000 0.0000 840.6849 -17560.6022 89.3080 -18401.2870 -17559.0279 90.4408 717.8892 767.3866 46012.3287 3.2791 3.6429
ENERGY: 75000 0.7782 8.8692 8.6866 0.0000 -22306.3922 3840.2744 0.0000 0.0000 831.4514 -17616.3323 88.3271 -18447.7837 -17614.5202 90.0342 242.3489 285.9927 46257.2566 2.4987 2.4736
TCL: Running 25000 steps at 120 kelvin.
TCL: Setting parameter langevinTemp to 120
TCL: Running for 25000 steps
ETITLE: TS BOND ANGLE DIHED IMPRP ELECT VDW BOUNDARY MISC KINETIC TOTAL TEMP POTENTIAL TOTAL3 TEMPAVG PRESSURE GPRESSURE VOLUME PRESSAVG GPRESSAVG
ENERGY: 75000 0.7782 8.8692 8.6866 0.0000 -22306.3922 3840.2744 0.0000 0.0000 831.0465 -17616.7372 88.2841 -18447.7837 -17614.9857 88.2841 233.0378 286.0967 46257.2566 233.0378 286.0967
ENERGY: 80000 0.2260 9.0655 8.5410 0.0000 -21700.6804 3563.6948 0.0000 0.0000 1128.5348 -16990.6183 119.8870 -18119.1532 -16986.9665 117.0984 -487.7276 -408.9152 46775.6616 3.2037 3.0046
ENERGY: 85000 1.6364 8.4178 8.9529 0.0000 -21951.2793 3780.5236 0.0000 0.0000 1146.5332 -17005.2154 121.7990 -18151.7486 -17002.5921 120.7253 648.6266 717.1714 46362.3571 -0.0960 -0.0293
ENERGY: 90000 0.4130 9.0553 8.9686 0.0000 -21929.3321 3752.2687 0.0000 0.0000 1110.4076 -17048.2189 117.9613 -18158.6266 -17045.5504 120.8290 503.0991 540.4629 46212.8571 -0.5636 -0.6615
ENERGY: 95000 1.0066 10.3723 8.1026 0.0000 -21850.5397 3614.1518 0.0000 0.0000 1138.9698 -17077.9366 120.9955 -18216.9065 -17075.0551 120.0037 -416.1203 -361.3195 46557.0007 4.3558 4.3036
ENERGY: 100000 0.6025 8.2660 10.7825 0.0000 -21989.6472 3755.8310 0.0000 0.0000 1155.3430 -17058.8223 122.7349 -18214.1653 -17056.8347 120.7670 371.1407 407.5887 46235.4954 4.2280 4.2954
TCL: Running 25000 steps at 150 kelvin.
TCL: Setting parameter langevinTemp to 150
TCL: Running for 25000 steps
ETITLE: TS BOND ANGLE DIHED IMPRP ELECT VDW BOUNDARY MISC KINETIC TOTAL TEMP POTENTIAL TOTAL3 TEMPAVG PRESSURE GPRESSURE VOLUME PRESSAVG GPRESSAVG
ENERGY: 100000 0.6025 8.2660 10.7825 0.0000 -21989.6472 3755.8310 0.0000 0.0000 1154.7745 -17059.3908 122.6745 -18214.1653 -17056.9059 122.6745 354.9177 407.8948 46235.4954 354.9177 407.8948
ENERGY: 105000 0.4890 10.7376 8.3821 0.0000 -21513.5256 3657.2529 0.0000 0.0000 1415.7389 -16420.9251 150.3973 -17836.6640 -16417.6893 147.4652 690.2594 782.8452 46353.2930 6.7914 7.2926
ENERGY: 110000 1.1080 9.8359 9.7253 0.0000 -21459.5669 3549.8167 0.0000 0.0000 1462.5396 -16426.5414 155.3691 -17889.0810 -16423.6791 150.1514 68.5957 120.3848 46556.3490 2.3312 2.3214
ENERGY: 115000 2.2131 9.7987 8.5093 0.0000 -21541.1010 3660.0376 0.0000 0.0000 1410.9958 -16449.5464 149.8935 -17860.5422 -16446.3810 151.3622 617.6706 684.1531 46169.8730 -0.8894 -0.9184
ENERGY: 120000 0.8169 13.1692 9.5907 0.0000 -21570.0971 3593.2942 0.0000 0.0000 1429.0904 -16524.1357 151.8157 -17953.2261 -16521.4209 150.9905 95.7016 205.3304 46149.9303 2.9723 2.7511
ENERGY: 125000 1.6400 8.9984 9.6614 0.0000 -21563.4902 3575.4857 0.0000 0.0000 1434.2499 -16533.4548 152.3638 -17967.7047 -16530.5201 150.5828 110.4105 144.1330 46046.1346 3.0487 2.7179
TCL: Running 50000 steps at 180 kelvin.
TCL: Setting parameter langevinTemp to 180
TCL: Running for 50000 steps
ETITLE: TS BOND ANGLE DIHED IMPRP ELECT VDW BOUNDARY MISC KINETIC TOTAL TEMP POTENTIAL TOTAL3 TEMPAVG PRESSURE GPRESSURE VOLUME PRESSAVG GPRESSAVG
ENERGY: 125000 1.6400 8.9984 9.6614 0.0000 -21563.4902 3575.4857 0.0000 0.0000 1433.5423 -16534.1624 152.2886 -17967.7047 -16531.4318 152.2886 86.5511 143.5238 46046.1346 86.5511 143.5238
ENERGY: 135000 0.5649 11.1157 10.1808 0.0000 -20958.6702 3371.4190 0.0000 0.0000 1721.1618 -15844.2280 182.8431 -17565.3897 -15841.7615 178.8253 -118.7289 -67.3905 46579.3974 3.7542 3.7464
ENERGY: 145000 1.2707 11.9294 9.1654 0.0000 -20786.4534 3232.7211 0.0000 0.0000 1725.1676 -15806.1991 183.2687 -17531.3668 -15802.8419 180.3145 -743.2640 -711.2647 46622.4052 4.5403 4.4436
ENERGY: 155000 0.6456 9.5497 10.3743 0.0000 -20841.1465 3244.7196 0.0000 0.0000 1703.9587 -15871.8985 181.0156 -17575.8572 -15867.5972 180.2719 -803.9169 -717.8797 46651.2608 0.4635 0.1453
ENERGY: 165000 0.4408 9.6501 10.1239 0.0000 -20774.6853 3198.5877 0.0000 0.0000 1666.0168 -15889.8661 176.9850 -17555.8828 -15883.1004 181.4469 -1025.3204 -961.1639 46538.4839 4.3649 4.4405
ENERGY: 175000 1.0082 8.7325 9.3196 0.0000 -20947.7059 3340.7935 0.0000 0.0000 1725.4189 -15862.4332 183.2954 -17587.8521 -15859.1443 180.9849 -272.1272 -208.2888 46172.1208 -3.0414 -3.5675
TCL: Running 50000 steps at 210 kelvin.
TCL: Setting parameter langevinTemp to 210
TCL: Running for 50000 steps
ETITLE: TS BOND ANGLE DIHED IMPRP ELECT VDW BOUNDARY MISC KINETIC TOTAL TEMP POTENTIAL TOTAL3 TEMPAVG PRESSURE GPRESSURE VOLUME PRESSAVG GPRESSAVG
ENERGY: 175000 1.0082 8.7325 9.3196 0.0000 -20947.7059 3340.7935 0.0000 0.0000 1724.5930 -15863.2591 183.2077 -17587.8521 -15859.8323 183.2077 -267.8436 -208.4714 46172.1208 -267.8436 -208.4714
ENERGY: 185000 1.3130 9.8246 8.8271 0.0000 -19935.3917 3042.4999 0.0000 0.0000 1978.5220 -14894.4052 210.1831 -16872.9272 -14887.7967 210.6051 49.6292 143.7204 45630.5206 0.8878 0.8824
ENERGY: 195000 0.9567 10.2529 9.8306 0.0000 -19892.9803 3009.5947 0.0000 0.0000 1980.8280 -14881.5174 210.4281 -16862.3455 -14876.5362 208.8989 -263.5691 -153.6972 46123.5471 0.9464 0.7556
ENERGY: 205000 2.4248 13.6446 9.4977 0.0000 -19954.4284 3090.0840 0.0000 0.0000 1939.1706 -14899.6066 206.0028 -16838.7772 -14894.5742 209.2764 141.2862 189.0607 46341.3285 2.1544 1.4764
ENERGY: 215000 1.0432 12.0544 8.7501 0.0000 -20058.3261 3091.6073 0.0000 0.0000 1996.8238 -14948.0473 212.1274 -16944.8711 -14942.4162 210.0948 71.0707 115.0796 46172.8626 0.3970 0.6747
ENERGY: 225000 1.5441 10.2854 8.4444 0.0000 -19978.4639 3107.0476 0.0000 0.0000 1968.2732 -14882.8692 209.0944 -16851.1424 -14878.5627 210.8679 244.2756 296.7200 46234.3888 3.7723 3.8868
TCL: Running 50000 steps at 240 kelvin.
TCL: Setting parameter langevinTemp to 240
TCL: Running for 50000 steps
ETITLE: TS BOND ANGLE DIHED IMPRP ELECT VDW BOUNDARY MISC KINETIC TOTAL TEMP POTENTIAL TOTAL3 TEMPAVG PRESSURE GPRESSURE VOLUME PRESSAVG GPRESSAVG
ENERGY: 225000 1.5441 10.2854 8.4444 0.0000 -19978.4639 3107.0476 0.0000 0.0000 1967.3061 -14883.8363 208.9917 -16851.1424 -14880.5367 208.9917 236.7021 297.2049 46234.3888 236.7021 297.2049
ENERGY: 235000 0.7326 13.0160 8.9031 0.0000 -19084.2208 2954.0522 0.0000 0.0000 2226.4675 -13881.0494 236.5230 -16107.5168 -13876.0815 239.9293 1008.5665 1121.5496 46275.1927 -1.0055 -1.4248
ENERGY: 245000 1.0330 15.4592 7.9447 0.0000 -18834.9351 2649.3914 0.0000 0.0000 2305.9678 -13855.1391 244.9685 -16161.1069 -13851.2252 239.5167 -633.4301 -500.3797 46676.6338 2.0915 1.4833
ENERGY: 255000 0.8719 12.3460 9.1502 0.0000 -18838.8767 2668.5652 0.0000 0.0000 2267.0087 -13880.9347 240.8298 -16147.9434 -13876.1411 239.9358 -605.2256 -522.3324 47139.9202 7.9763 7.7299
ENERGY: 265000 0.3021 12.6903 7.4856 0.0000 -18917.2070 2745.8356 0.0000 0.0000 2297.3301 -13853.5633 244.0509 -16150.8933 -13850.4774 241.2481 -15.0885 72.0910 46357.5882 2.4947 2.2739
ENERGY: 275000 1.4932 12.4096 8.9950 0.0000 -18923.2439 2757.4436 0.0000 0.0000 2264.8887 -13878.0136 240.6046 -16142.9024 -13870.2387 240.1493 163.6525 220.9941 46287.3656 1.2093 1.1040
TCL: Running 50000 steps at 270 kelvin.
TCL: Setting parameter langevinTemp to 270
TCL: Running for 50000 steps
ETITLE: TS BOND ANGLE DIHED IMPRP ELECT VDW BOUNDARY MISC KINETIC TOTAL TEMP POTENTIAL TOTAL3 TEMPAVG PRESSURE GPRESSURE VOLUME PRESSAVG GPRESSAVG
ENERGY: 275000 1.4932 12.4096 8.9950 0.0000 -18923.2439 2757.4436 0.0000 0.0000 2263.7478 -13879.1546 240.4834 -16142.9024 -13875.8774 240.4834 144.5711 222.4816 46287.3656 144.5711 222.4816
ENERGY: 285000 0.9529 16.4700 8.0418 0.0000 -18007.4308 2553.7150 0.0000 0.0000 2567.3560 -12860.8951 272.7364 -15428.2511 -12857.8865 270.4185 316.7238 394.3080 47409.3579 3.8634 3.6573
ENERGY: 295000 2.8747 13.8165 9.0664 0.0000 -18032.1780 2560.1653 0.0000 0.0000 2586.1453 -12860.1098 274.7324 -15446.2551 -12856.5786 269.9300 421.2825 480.0857 46920.6961 5.4270 5.2892
ENERGY: 305000 1.0138 11.4373 10.8635 0.0000 -18186.2905 2660.0160 0.0000 0.0000 2587.3861 -12915.5738 274.8642 -15502.9599 -12908.0569 272.0353 868.5380 921.1387 46814.0844 4.1896 4.4173
ENERGY: 315000 1.4168 12.4572 8.7689 0.0000 -18059.7154 2562.2789 0.0000 0.0000 2568.6127 -12906.1811 272.8699 -15474.7937 -12902.7769 269.0012 434.8490 506.7657 47267.4658 1.3553 1.0245
ENERGY: 325000 1.9459 17.6723 8.6906 0.0000 -17959.7041 2486.8631 0.0000 0.0000 2567.8124 -12876.7198 272.7849 -15444.5322 -12871.7402 271.7671 -171.1763 -102.2078 47614.5812 7.9974 7.9160
TCL: Running 1000000 steps at 300 kelvin.
TCL: Setting parameter langevinTemp to 300
TCL: Running for 1000000 steps
ETITLE: TS BOND ANGLE DIHED IMPRP ELECT VDW BOUNDARY MISC KINETIC TOTAL TEMP POTENTIAL TOTAL3 TEMPAVG PRESSURE GPRESSURE VOLUME PRESSAVG GPRESSAVG
ENERGY: 325000 1.9459 17.6723 8.6906 0.0000 -17959.7041 2486.8631 0.0000 0.0000 2566.5025 -12878.0297 272.6457 -15444.5322 -12874.3676 272.6457 -179.6004 -102.6890 47614.5812 -179.6004 -102.6890
ENERGY: 525000 1.2831 10.8603 9.9271 0.0000 -17302.6437 2406.6214 0.0000 0.0000 2803.8890 -12070.0629 297.8639 -14873.9519 -12067.4876 298.8717 476.1586 548.4822 48590.5002 -1.8870 -2.6346
ENERGY: 725000 2.1799 17.6301 9.2178 0.0000 -17047.6684 2140.8941 0.0000 0.0000 2855.7828 -12021.9637 303.3767 -14877.7465 -12015.2112 300.4643 -831.7086 -732.5485 48439.1297 6.7282 6.3813
ENERGY: 925000 1.2678 15.5279 6.6615 0.0000 -17007.9047 2173.4118 0.0000 0.0000 2845.1347 -11965.9010 302.2455 -14811.0357 -11959.3000 299.9150 -391.1983 -306.7862 48414.7429 -1.6663 -1.1965
ENERGY: 1125000 1.7267 12.7714 8.7082 0.0000 -17323.3304 2316.5507 0.0000 0.0000 2852.9858 -12130.5876 303.0795 -14983.5734 -12121.3356 299.1018 -198.5836 -87.1825 48396.5841 4.9204 5.2240
ENERGY: 1325000 0.8856 8.3770 13.0581 0.0000 -16958.5465 2186.4019 0.0000 0.0000 2817.6227 -11932.2012 299.3228 -14749.8239 -11927.8581 301.3776 -606.7068 -511.6640 49294.0581 2.4216 2.0895
TCL: Exiting due to exit command.
