Info: SIMULATION PARAMETERS:
Info: TIMESTEP               2
Info: NUMBER OF STEPS        0
Info: STEPS PER CYCLE        10
Info: PERIODIC CELL BASIS 1  32.1378 0 0
Info: PERIODIC CELL BASIS 2  0 31.4835 0
Info: PERIODIC CELL BASIS 3  0 0 30.4585
Info: PERIODIC CELL CENTER   0 0 0
Info: WRAPPING WATERS AROUND PERIODIC BOUNDARIES ON OUTPUT.
Info: WRAPPING ALL CLUSTERS AROUND PERIODIC BOUNDARIES ON OUTPUT.
Info: FIRST LDB TIMESTEP     50
Info: LAST LDB TIMESTEP     -1
Info: HOM BACKGROUND SCALING 1
Info: PME BACKGROUND SCALING 1
Info: MIN ATOMS PER PATCH    40
Info: EMPTY PATCH LOAD       40 ATOMS
Info: VELOCITY FILE          mobley_8885088_equil.vel
Info: CENTER OF MASS MOVING INITIALLY? NO
Info: DIELECTRIC             1
Info: EXCLUDE                SCALED ONE-FOUR
Info: 1-4 ELECTROSTATICS SCALED BY 0.833333
Info: MODIFIED 1-4 VDW PARAMETERS WILL BE USED
Info: DCD FILENAME           mobley_8885088_prod.dcd
Info: DCD FREQUENCY          100000
Info: DCD FIRST STEP         100000
Info: DCD FILE WILL CONTAIN UNIT CELL DATA
Info: XST FILENAME           mobley_8885088_prod.xst
Info: XST FREQUENCY          100000
Info: NO VELOCITY DCD OUTPUT
Info: NO FORCE DCD OUTPUT
Info: OUTPUT FILENAME        mobley_8885088_prod
Info: BINARY OUTPUT FILES WILL BE USED
Info: RESTART FILENAME       mobley_8885088_prod.restart
Info: RESTART FREQUENCY      100000
Info: BINARY RESTART FILES WILL BE USED
Info: CUTOFF                 9
Info: PAIRLIST DISTANCE      11
Info: PAIRLIST SHRINK RATE   0.01
Info: PAIRLIST GROW RATE     0.01
Info: PAIRLIST TRIGGER       0.3
Info: PAIRLISTS PER CYCLE    2
Info: PAIRLISTS ENABLED
Info: MARGIN                 2
Info: HYDROGEN GROUP CUTOFF  2.5
Info: PATCH DIMENSION        15.5
Info: ENERGY OUTPUT STEPS    100000
Info: ENERGY EVALUATION STEPS    100000
Info: OUTPUT ENERGY PRECISION 4
Info: CROSSTERM ENERGY INCLUDED IN DIHEDRAL
Info: TIMING OUTPUT STEPS    1000000
Info: PRESSURE OUTPUT STEPS  100000
Info: ALCHEMICAL FEP ON
Info: FEP CURRENT LAMBDA VALUE     0
Info: FEP COMPARISON LAMBDA VALUE  0.05
Info: FEP INTRA-ALCHEMICAL NON-BONDED INTERACTIONS WILL BE RETAINED
Info: FEP INTRA-ALCHEMICAL BONDED INTERACTIONS WILL BE RETAINED
Info: FEP VDW SHIFTING COEFFICIENT 5
Info: FEP ELEC. ACTIVE FOR ANNIHILATED PARTICLES BETWEEN LAMBDA = 0 AND LAMBDA = 0.5
Info: FEP ELEC. ACTIVE FOR EXNIHILATED PARTICLES BETWEEN LAMBDA = 0.5 AND LAMBDA = 1
Info: FEP VDW ACTIVE FOR ANNIHILATED PARTICLES BETWEEN LAMBDA = 0 AND LAMBDA = 1
Info: FEP VDW ACTIVE FOR EXNIHILATED PARTICLES BETWEEN LAMBDA = 0 AND LAMBDA = 1
Info: FEP BOND ACTIVE FOR ANNIHILATED PARTICLES BETWEEN LAMBDA = 1 AND LAMBDA = 1
Info: FEP BOND ACTIVE FOR EXNIHILATED PARTICLES BETWEEN LAMBDA = 0 AND LAMBDA = 0
Info: LANGEVIN DYNAMICS ACTIVE
Info: LANGEVIN TEMPERATURE   300
Info: LANGEVIN USING BBK INTEGRATOR
Info: LANGEVIN DAMPING COEFFICIENT IS 1 INVERSE PS
Info: LANGEVIN DYNAMICS APPLIED TO HYDROGENS
Info: LANGEVIN PISTON PRESSURE CONTROL ACTIVE
Info:        TARGET PRESSURE IS 1.01325 BAR
Info:     OSCILLATION PERIOD IS 50 FS
Info:             DECAY TIME IS 25 FS
Info:     PISTON TEMPERATURE IS 300 K
Info:       PRESSURE CONTROL IS GROUP-BASED
Info:    INITIAL STRAIN RATE IS -8.03796e-05 -8.03796e-05 -8.03796e-05
Info:       CELL FLUCTUATION IS ISOTROPIC
Info: PARTICLE MESH EWALD (PME) ACTIVE
Info: PME TOLERANCE               1e-06
Info: PME EWALD COEFFICIENT       0.348832
Info: PME INTERPOLATION ORDER     4
Info: PME GRID DIMENSIONS         36 32 32
Info: PME MAXIMUM GRID SPACING    1
Info: PME CALCULATION WILL BE PERFORMED ON GPU
Info: FULL ELECTROSTATIC EVALUATION FREQUENCY      2
Info: USING VERLET I (r-RESPA) MTS SCHEME.
Info: C1 SPLITTING OF LONG RANGE ELECTROSTATICS
Info: PLACING ATOMS IN PATCHES BY HYDROGEN GROUPS
Info: RIGID BONDS TO HYDROGEN : ALL
Info:         ERROR TOLERANCE : 1e-08
Info:          MAX ITERATIONS : 100
Info: RIGID WATER USING SETTLE ALGORITHM
Info: RANDOM NUMBER SEED     1742229866
Info: USE HYDROGEN BONDS?    NO
Info: Using AMBER format force field!
Info: AMBER PARM FILE        mobley_8885088.prmtop
Info: COORDINATE PDB         mobley_8885088.pdb
Info: Exclusions will be read from PARM file!
Info: SCNB (VDW SCALING)     2
Info: USING ARITHMETIC MEAN TO COMBINE L-J SIGMA PARAMETERS
Info: BINARY COORDINATES     mobley_8885088_equil.coor
Info: SUMMARY OF PARAMETERS:
Info: 7 BONDS
Info: 8 ANGLES
Info:   8 HARMONIC
Info:   0 COSINE-BASED
Info: 9 DIHEDRAL
Info: 0 IMPROPER
Info: 0 CROSSTERM
Info: 0 VDW
Info: 21 VDW_PAIRS
Info: 0 NBTHOLE_PAIRS
Info: To read alchdata from file: mobley_8885088.pdb
Info: To read alchflag data from column: 5
Info: STRUCTURE SUMMARY:
Info: 2983 ATOMS
Info: 2983 BONDS
Info: 24 ANGLES
Info: 36 DIHEDRALS
Info: 0 IMPROPERS
Info: 0 CROSSTERMS
Info: 3036 EXCLUSIONS
Info: 2978 RIGID BONDS
Info: ALCH: 0 ATOMS TO DISAPPEAR IN FINAL STATE
Info: ALCH: 13 ATOMS TO APPEAR IN FINAL STATE
Info: 5971 DEGREES OF FREEDOM
Info: 995 HYDROGEN GROUPS
Info: 3 ATOMS IN LARGEST HYDROGEN GROUP
Info: 995 MIGRATION GROUPS
Info: 3 ATOMS IN LARGEST MIGRATION GROUP
Info: TOTAL MASS = 17904 amu
Info: TOTAL CHARGE = -0.000200003 e
Info: MASS DENSITY = 0.964719 g/cm^3
Info: ATOM DENSITY = 0.0967934 atoms/A^3
Info: ADDED 0 IMPLICIT EXCLUSIONS
Info: NONBONDED TABLE R-SQUARED SPACING: 0.0625
Info: NONBONDED TABLE SIZE: 705 POINTS
Info: REMOVING COM VELOCITY 0.120569 -0.0688471 -0.198164
Info: Use 3D box decompostion in PME FFT.
Info: Updated CUDA force table with 4096 elements.
Info: Updated CUDA LJ table with 6 x 6 elements.
Info: Found 15 unique exclusion lists needing 32 bytes
TCL: Running for 1500000 steps
ETITLE: TS BOND ANGLE DIHED IMPRP ELECT VDW BOUNDARY MISC KINETIC TOTAL TEMP POTENTIAL TOTALAVG TEMPAVG PRESSURE GPRESSURE VOLUME PRESSAVG GPRESSAVG
ENERGY: 0 2.4502 15.1761 5.8969 0.0000 -10773.9100 1424.2639 0.0000 0.0000 1801.0740 -7525.0489 303.5812 -9326.1229 -7525.0489 303.5812 -529.4027 -428.0482 30818.2048 -529.4027 -428.0482
ENERGY: 300000 0.6335 14.9117 5.5106 0.0000 -10894.8885 1543.2842 0.0000 0.0000 1769.1070 -7561.4415 298.1930 -9330.5485 -7574.0514 298.8040 751.4819 811.5608 30228.6801 -65.3298 -6.2786
ENERGY: 600000 1.0820 13.4762 5.1487 0.0000 -10757.0118 1447.1507 0.0000 0.0000 1832.3314 -7457.8228 308.8498 -9290.1542 -7545.9105 302.2619 -88.9219 -11.9665 31136.8583 -14.1098 45.6330
ENERGY: 900000 1.1360 14.9259 5.3071 0.0000 -10846.5375 1479.9276 0.0000 0.0000 1789.8917 -7555.3493 301.6964 -9345.2410 -7550.4395 302.3912 113.0458 197.0775 30440.0272 -114.1131 -56.0850
ENERGY: 1200000 2.1675 14.1178 5.5727 0.0000 -10890.8910 1459.5236 0.0000 0.0000 1789.3200 -7620.1892 301.6000 -9409.5093 -7566.0574 301.9565 -123.1701 -83.8388 30408.3345 -43.6800 5.0226
ENERGY: 1500000 1.6375 17.6197 7.1099 0.0000 -10751.6553 1447.4488 0.0000 0.0000 1815.6050 -7462.2344 306.0305 -9277.8394 -7560.5885 302.3784 122.7578 180.7797 30666.0848 -1.9388 44.4853
TCL: Running FEP window   2: Lambda1 0.05   Lambda2 0.1    [dLambda 0.05  ]
TCL: Setting parameter firsttimestep to 0
TCL: Setting parameter alchLambda to 0.05
Info: NONBONDED TABLE R-SQUARED SPACING: 0.0625
Info: NONBONDED TABLE SIZE: 705 POINTS
TCL: Setting parameter alchLambda2 to 0.1
Info: NONBONDED TABLE R-SQUARED SPACING: 0.0625
Info: NONBONDED TABLE SIZE: 705 POINTS
TCL: Running for 1500000 steps
ETITLE: TS BOND ANGLE DIHED IMPRP ELECT VDW BOUNDARY MISC KINETIC TOTAL TEMP POTENTIAL TOTALAVG TEMPAVG PRESSURE GPRESSURE VOLUME PRESSAVG GPRESSAVG
ENERGY: 0 1.6375 17.6197 7.1099 0.0000 -10751.6543 1450.3089 0.0000 0.0000 1814.7342 -7460.2441 305.8837 -9274.9784 -7460.2441 305.8837 98.5168 185.9335 30666.0848 98.5168 185.9335
ENERGY: 300000 1.7798 13.3506 5.6269 0.0000 -10607.7811 1382.5314 0.0000 0.0000 1784.9241 -7419.5681 300.8590 -9204.4922 -7478.1792 305.3821 -409.7579 -419.0009 30994.2811 -308.7330 -240.5927
ENERGY: 600000 2.9101 14.9910 4.9187 0.0000 -10806.2935 1431.9631 0.0000 0.0000 1765.1514 -7586.3592 297.5262 -9351.5106 -7522.3820 302.7684 -448.6609 -383.1377 30905.0814 -167.5866 -115.4431
ENERGY: 900000 4.3900 15.4905 5.6071 0.0000 -10750.1309 1415.9564 0.0000 0.0000 1750.0011 -7558.6858 294.9726 -9308.6869 -7539.5878 301.5564 -521.6171 -448.9790 30944.4896 -130.6242 -64.1129
ENERGY: 1200000 0.9040 17.2513 5.3808 0.0000 -10774.5879 1417.1199 0.0000 0.0000 1808.8787 -7525.0532 304.8967 -9333.9319 -7538.2585 302.0046 -475.5501 -351.6458 30958.3403 -56.4150 14.4670
ENERGY: 1500000 1.1138 18.0751 6.1306 0.0000 -10765.1233 1493.4164 0.0000 0.0000 1798.1137 -7448.2737 303.0822 -9246.3874 -7537.9951 301.4154 300.2022 402.4730 31172.9862 -70.9953 5.6262
TCL: Running FEP window   3: Lambda1 0.1    Lambda2 0.15000000000000002 [dLambda 0.05000000000000002]
TCL: Setting parameter firsttimestep to 0
TCL: Setting parameter alchLambda to 0.1
Info: NONBONDED TABLE R-SQUARED SPACING: 0.0625
Info: NONBONDED TABLE SIZE: 705 POINTS
TCL: Setting parameter alchLambda2 to 0.15000000000000002
Info: NONBONDED TABLE R-SQUARED SPACING: 0.0625
Info: NONBONDED TABLE SIZE: 705 POINTS
TCL: Running for 1500000 steps
ETITLE: TS BOND ANGLE DIHED IMPRP ELECT VDW BOUNDARY MISC KINETIC TOTAL TEMP POTENTIAL TOTALAVG TEMPAVG PRESSURE GPRESSURE VOLUME PRESSAVG GPRESSAVG
ENERGY: 0 1.1138 18.0751 6.1306 0.0000 -10765.1232 1493.3297 0.0000 0.0000 1797.2068 -7449.2672 302.9294 -9246.4740 -7449.2672 302.9294 320.4794 405.6617 31172.9862 320.4794 405.6617
ENERGY: 300000 0.6933 14.6560 7.7077 0.0000 -10818.5891 1501.8588 0.0000 0.0000 1807.0692 -7486.6042 304.5917 -9293.6734 -7506.8740 302.3647 440.5786 414.1752 30864.1969 239.1388 287.9373
ENERGY: 600000 2.0950 14.8708 5.2048 0.0000 -10760.3172 1425.2139 0.0000 0.0000 1769.0316 -7543.9011 298.1803 -9312.9327 -7521.9384 302.6026 -37.6132 50.5186 30219.3145 147.1567 213.5793
ENERGY: 900000 4.0850 12.8545 7.1289 0.0000 -10844.2204 1504.2263 0.0000 0.0000 1810.7141 -7505.2117 305.2061 -9315.9258 -7530.1464 302.3836 266.1429 307.5235 30719.0237 56.9697 121.7206
ENERGY: 1200000 2.0257 15.5840 6.3599 0.0000 -10838.7089 1495.6770 0.0000 0.0000 1769.9720 -7549.0903 298.3388 -9319.0623 -7540.9857 301.7997 634.3334 675.5018 30164.9028 107.5576 163.4115
ENERGY: 1500000 2.1496 15.0651 5.9101 0.0000 -10845.7564 1411.6464 0.0000 0.0000 1828.2783 -7582.7067 308.1666 -9410.9851 -7533.0441 302.7550 -618.4469 -557.4854 30671.9945 104.1012 160.0634
TCL: Running FEP window   4: Lambda1 0.15000000000000002 Lambda2 0.2    [dLambda 0.04999999999999999]
TCL: Setting parameter firsttimestep to 0
TCL: Setting parameter alchLambda to 0.15000000000000002
Info: NONBONDED TABLE R-SQUARED SPACING: 0.0625
Info: NONBONDED TABLE SIZE: 705 POINTS
TCL: Setting parameter alchLambda2 to 0.2
Info: NONBONDED TABLE R-SQUARED SPACING: 0.0625
Info: NONBONDED TABLE SIZE: 705 POINTS
TCL: Running for 1500000 steps
ETITLE: TS BOND ANGLE DIHED IMPRP ELECT VDW BOUNDARY MISC KINETIC TOTAL TEMP POTENTIAL TOTALAVG TEMPAVG PRESSURE GPRESSURE VOLUME PRESSAVG GPRESSAVG
ENERGY: 0 2.1496 15.0651 5.9101 0.0000 -10845.7573 1412.3359 0.0000 0.0000 1827.4032 -7582.8933 308.0191 -9410.2965 -7582.8933 308.0191 -636.2946 -553.3067 30671.9945 -636.2946 -553.3067
ENERGY: 300000 2.7326 14.7053 5.1385 0.0000 -10746.7344 1392.8207 0.0000 0.0000 1778.4614 -7552.8758 299.7697 -9331.3372 -7529.4248 301.2839 -576.9281 -429.6429 30655.0857 -278.5098 -203.5400
ENERGY: 600000 2.5131 17.8123 5.7766 0.0000 -10851.9302 1527.5009 0.0000 0.0000 1828.2777 -7470.0497 308.1665 -9298.3274 -7524.6535 300.5672 369.5004 477.4760 31051.3897 -195.6504 -128.0928
ENERGY: 900000 1.6042 18.0365 5.6048 0.0000 -10935.8701 1509.5886 0.0000 0.0000 1809.6314 -7591.4046 305.0236 -9401.0361 -7520.7382 301.1630 254.2378 391.3911 30206.0947 -195.2013 -119.0658
ENERGY: 1200000 0.9431 17.4158 5.2056 0.0000 -10991.5692 1540.3390 0.0000 0.0000 1793.1272 -7634.5385 302.2417 -9427.6657 -7528.2694 301.1464 303.3595 411.0124 30575.6445 -140.1419 -66.9684
ENERGY: 1500000 1.9869 22.4964 4.9050 0.0000 -10795.1562 1446.7567 0.0000 0.0000 1800.9096 -7518.1016 303.5535 -9319.0111 -7527.3371 300.3588 -84.1539 2.7870 30693.7270 -118.6429 -43.2019
TCL: Running FEP window   5: Lambda1 0.2    Lambda2 0.25   [dLambda 0.04999999999999999]
TCL: Setting parameter firsttimestep to 0
TCL: Setting parameter alchLambda to 0.2
Info: NONBONDED TABLE R-SQUARED SPACING: 0.0625
Info: NONBONDED TABLE SIZE: 705 POINTS
TCL: Setting parameter alchLambda2 to 0.25
Info: NONBONDED TABLE R-SQUARED SPACING: 0.0625
Info: NONBONDED TABLE SIZE: 705 POINTS
TCL: Running for 1500000 steps
ETITLE: TS BOND ANGLE DIHED IMPRP ELECT VDW BOUNDARY MISC KINETIC TOTAL TEMP POTENTIAL TOTALAVG TEMPAVG PRESSURE GPRESSURE VOLUME PRESSAVG GPRESSAVG
ENERGY: 0 1.9869 22.4964 4.9050 0.0000 -10795.1585 1448.1720 0.0000 0.0000 1800.0182 -7517.5800 303.4032 -9317.5982 -7517.5800 303.4032 -73.0148 11.6432 30693.7270 -73.0148 11.6432
ENERGY: 300000 1.7525 15.8595 6.6673 0.0000 -10886.2567 1515.2541 0.0000 0.0000 1709.2171 -7637.5061 288.0982 -9346.7232 -7585.4147 298.5385 282.8611 375.8348 30605.0238 240.7662 306.1970
ENERGY: 600000 0.4586 17.2433 6.3526 0.0000 -10714.4980 1368.1101 0.0000 0.0000 1795.6390 -7526.6945 302.6651 -9322.3334 -7581.4765 298.7746 -753.9250 -671.9942 30846.5251 -93.0376 -29.1514
ENERGY: 900000 0.3577 16.8533 4.6702 0.0000 -10885.0629 1494.2392 0.0000 0.0000 1784.8749 -7584.0676 300.8508 -9368.9425 -7564.9981 300.3120 252.9540 297.2815 30435.3909 -26.3177 38.4053
ENERGY: 1200000 0.4371 17.3944 6.1071 0.0000 -10919.5488 1508.9748 0.0000 0.0000 1802.4495 -7584.1860 303.8130 -9386.6355 -7561.4298 300.3535 332.9073 355.7528 30613.7694 -106.9180 -46.0701
ENERGY: 1500000 1.4607 18.1616 6.0422 0.0000 -10844.2799 1510.7802 0.0000 0.0000 1776.1095 -7531.7257 299.3733 -9307.8352 -7557.1269 300.3447 353.3050 469.6167 30578.0708 -68.2105 -3.3313
TCL: Running FEP window   6: Lambda1 0.25   Lambda2 0.3    [dLambda 0.04999999999999999]
TCL: Setting parameter firsttimestep to 0
TCL: Setting parameter alchLambda to 0.25
Info: NONBONDED TABLE R-SQUARED SPACING: 0.0625
Info: NONBONDED TABLE SIZE: 705 POINTS
TCL: Setting parameter alchLambda2 to 0.3
Info: NONBONDED TABLE R-SQUARED SPACING: 0.0625
Info: NONBONDED TABLE SIZE: 705 POINTS
TCL: Running for 1500000 steps
ETITLE: TS BOND ANGLE DIHED IMPRP ELECT VDW BOUNDARY MISC KINETIC TOTAL TEMP POTENTIAL TOTALAVG TEMPAVG PRESSURE GPRESSURE VOLUME PRESSAVG GPRESSAVG
ENERGY: 0 1.4607 18.1617 6.0422 0.0000 -10844.2801 1512.9496 0.0000 0.0000 1775.1769 -7530.4891 299.2161 -9305.6660 -7530.4891 299.2161 379.8805 482.2286 30578.0708 379.8805 482.2286
ENERGY: 300000 2.8589 16.4573 4.8119 0.0000 -10883.3360 1448.6353 0.0000 0.0000 1807.3759 -7603.1966 304.6434 -9410.5726 -7549.0027 304.0959 -262.4806 -265.7537 30501.9819 -102.9780 -31.9242
ENERGY: 600000 1.0865 16.6755 5.7125 0.0000 -10710.3568 1410.6948 0.0000 0.0000 1783.6125 -7492.5750 300.6380 -9276.1875 -7547.5502 302.1512 -191.9680 -51.0059 30740.7806 -39.9245 36.3967
ENERGY: 900000 2.0855 15.6411 4.8536 0.0000 -10880.8946 1475.0473 0.0000 0.0000 1753.6289 -7629.6381 295.5841 -9383.2670 -7563.9824 299.6627 -384.2708 -269.8284 30854.8344 -88.1786 -6.9633
ENERGY: 1200000 2.1714 14.0570 4.9827 0.0000 -10811.6904 1501.4519 0.0000 0.0000 1722.8173 -7566.2100 290.3906 -9289.0273 -7560.6774 298.9948 453.8526 495.2537 30787.2804 -25.7261 48.6904
ENERGY: 1500000 1.6933 18.3178 5.2811 0.0000 -10778.4397 1481.1965 0.0000 0.0000 1802.5784 -7469.3726 303.8348 -9271.9510 -7557.8807 299.1461 480.8684 467.3625 30335.9997 -40.1653 24.9047
TCL: Running FEP window   7: Lambda1 0.3    Lambda2 0.35   [dLambda 0.04999999999999999]
TCL: Setting parameter firsttimestep to 0
TCL: Setting parameter alchLambda to 0.3
Info: NONBONDED TABLE R-SQUARED SPACING: 0.0625
Info: NONBONDED TABLE SIZE: 705 POINTS
TCL: Setting parameter alchLambda2 to 0.35
Info: NONBONDED TABLE R-SQUARED SPACING: 0.0625
Info: NONBONDED TABLE SIZE: 705 POINTS
TCL: Running for 1500000 steps
ETITLE: TS BOND ANGLE DIHED IMPRP ELECT VDW BOUNDARY MISC KINETIC TOTAL TEMP POTENTIAL TOTALAVG TEMPAVG PRESSURE GPRESSURE VOLUME PRESSAVG GPRESSAVG
ENERGY: 0 1.6933 18.3178 5.2811 0.0000 -10778.4405 1481.3176 0.0000 0.0000 1801.7162 -7470.1145 303.6895 -9271.8307 -7470.1145 303.6895 386.4162 472.9330 30335.9997 386.4162 472.9330
ENERGY: 300000 2.8314 17.5078 4.3662 0.0000 -10953.1655 1520.4107 0.0000 0.0000 1832.7306 -7575.3188 308.9171 -9408.0494 -7502.8972 301.6315 63.8388 177.3064 30729.4164 112.0825 191.6234
ENERGY: 600000 1.0495 14.3196 6.5497 0.0000 -10917.3026 1534.7801 0.0000 0.0000 1846.0347 -7514.5689 311.1596 -9360.6036 -7521.0462 302.9633 766.0647 779.5534 30231.2276 171.0295 240.8034
ENERGY: 900000 1.8619 13.8213 5.3204 0.0000 -10865.8640 1477.9824 0.0000 0.0000 1734.6560 -7632.2219 292.3861 -9366.8779 -7542.2357 300.6414 -29.6998 83.8886 30432.1251 22.8311 94.8262
ENERGY: 1200000 2.4519 14.8101 6.8889 0.0000 -10759.9756 1418.5512 0.0000 0.0000 1743.4248 -7573.8487 293.8641 -9317.2735 -7552.4315 300.1490 -400.7845 -258.0884 30710.4837 -55.2301 15.6121
ENERGY: 1500000 0.8317 15.8302 5.5297 0.0000 -10952.0411 1537.0238 0.0000 0.0000 1775.9285 -7616.8972 299.3428 -9392.8257 -7558.8264 300.4255 521.4453 509.8956 30286.3056 -26.2963 40.7334
TCL: Running FEP window   8: Lambda1 0.35   Lambda2 0.39999999999999997 [dLambda 0.04999999999999999]
TCL: Setting parameter firsttimestep to 0
TCL: Setting parameter alchLambda to 0.35
Info: NONBONDED TABLE R-SQUARED SPACING: 0.0625
Info: NONBONDED TABLE SIZE: 705 POINTS
TCL: Setting parameter alchLambda2 to 0.39999999999999997
Info: NONBONDED TABLE R-SQUARED SPACING: 0.0625
Info: NONBONDED TABLE SIZE: 705 POINTS
TCL: Running for 1500000 steps
ETITLE: TS BOND ANGLE DIHED IMPRP ELECT VDW BOUNDARY MISC KINETIC TOTAL TEMP POTENTIAL TOTALAVG TEMPAVG PRESSURE GPRESSURE VOLUME PRESSAVG GPRESSAVG
ENERGY: 0 0.8317 15.8302 5.5297 0.0000 -10952.0432 1537.0209 0.0000 0.0000 1775.0502 -7617.7804 299.1947 -9392.8306 -7617.7804 299.1947 440.0477 513.5704 30286.3056 440.0477 513.5704
ENERGY: 300000 0.8142 14.2666 6.0085 0.0000 -10731.1087 1434.6033 0.0000 0.0000 1772.7725 -7502.6437 298.8108 -9275.4161 -7560.9677 300.0004 -36.3856 56.7562 30583.5339 160.5927 212.2902
ENERGY: 600000 1.4436 15.3542 4.4971 0.0000 -10902.5706 1495.2210 0.0000 0.0000 1770.3502 -7615.7046 298.4025 -9386.0548 -7576.0395 298.5977 289.1335 336.9713 30415.4633 -92.6102 -40.7451
ENERGY: 900000 2.2900 22.5127 4.0252 0.0000 -10900.9391 1498.8025 0.0000 0.0000 1797.0505 -7576.2582 302.9030 -9373.3087 -7579.3353 300.5770 269.2964 313.6187 30465.1972 32.6364 87.9761
ENERGY: 1200000 1.0371 15.8120 5.3598 0.0000 -10746.1066 1432.2456 0.0000 0.0000 1742.8883 -7548.7638 293.7737 -9291.6520 -7569.9578 299.9837 -223.8863 -179.4015 30983.1280 30.8353 86.5474
ENERGY: 1500000 1.1105 18.0033 5.3910 0.0000 -10757.9076 1436.5978 0.0000 0.0000 1686.4626 -7610.3424 284.2628 -9296.8050 -7566.2812 299.2264 -68.6095 -76.8897 30686.8837 36.3287 85.2726
TCL: Running FEP window   9: Lambda1 0.39999999999999997 Lambda2 0.44999999999999996 [dLambda 0.04999999999999999]
TCL: Setting parameter firsttimestep to 0
TCL: Setting parameter alchLambda to 0.39999999999999997
Info: NONBONDED TABLE R-SQUARED SPACING: 0.0625
Info: NONBONDED TABLE SIZE: 705 POINTS
TCL: Setting parameter alchLambda2 to 0.44999999999999996
Info: NONBONDED TABLE R-SQUARED SPACING: 0.0625
Info: NONBONDED TABLE SIZE: 705 POINTS
TCL: Running for 1500000 steps
ETITLE: TS BOND ANGLE DIHED IMPRP ELECT VDW BOUNDARY MISC KINETIC TOTAL TEMP POTENTIAL TOTALAVG TEMPAVG PRESSURE GPRESSURE VOLUME PRESSAVG GPRESSAVG
ENERGY: 0 1.1105 18.0033 5.3910 0.0000 -10757.9069 1436.9356 0.0000 0.0000 1685.5911 -7610.8753 284.1159 -9296.4664 -7610.8753 284.1159 -151.2927 -69.1689 30686.8837 -151.2927 -69.1689
ENERGY: 300000 2.5184 14.1630 5.8918 0.0000 -10790.6101 1468.0240 0.0000 0.0000 1757.8687 -7542.1442 296.2987 -9300.0129 -7581.8111 294.6596 239.3973 213.2633 30753.5352 -220.3478 -161.7390
ENERGY: 600000 3.2187 15.7972 7.2454 0.0000 -10873.0378 1449.6850 0.0000 0.0000 1790.3329 -7606.7586 301.7707 -9397.0915 -7583.0096 296.5355 -342.2659 -265.2657 30666.0249 -187.0489 -117.9391
ENERGY: 900000 4.1203 15.3924 5.3395 0.0000 -10810.6667 1400.5915 0.0000 0.0000 1743.6268 -7641.5963 293.8981 -9385.2231 -7564.9166 297.6572 -763.7513 -708.7989 30787.1945 -185.8174 -122.0596
ENERGY: 1200000 3.9596 16.9730 5.5716 0.0000 -10750.0885 1330.0790 0.0000 0.0000 1757.6553 -7635.8501 296.2627 -9393.5053 -7586.2707 297.0557 -985.3527 -928.7557 30435.3967 -183.5748 -121.5011
ENERGY: 1500000 1.9249 16.2458 5.5831 0.0000 -10753.0267 1382.4873 0.0000 0.0000 1729.9934 -7616.7922 291.6002 -9346.7856 -7576.3219 297.3216 -549.2590 -487.3773 30627.6414 -190.8003 -131.4757
TCL: Running FEP window  10: Lambda1 0.44999999999999996 Lambda2 0.49999999999999994 [dLambda 0.04999999999999999]
TCL: Setting parameter firsttimestep to 0
TCL: Setting parameter alchLambda to 0.44999999999999996
Info: NONBONDED TABLE R-SQUARED SPACING: 0.0625
Info: NONBONDED TABLE SIZE: 705 POINTS
TCL: Setting parameter alchLambda2 to 0.49999999999999994
Info: NONBONDED TABLE R-SQUARED SPACING: 0.0625
Info: NONBONDED TABLE SIZE: 705 POINTS
TCL: Running for 1500000 steps
ETITLE: TS BOND ANGLE DIHED IMPRP ELECT VDW BOUNDARY MISC KINETIC TOTAL TEMP POTENTIAL TOTALAVG TEMPAVG PRESSURE GPRESSURE VOLUME PRESSAVG GPRESSAVG
ENERGY: 0 1.9249 16.2458 5.5831 0.0000 -10753.0277 1382.5249 0.0000 0.0000 1729.1138 -7617.6352 291.4519 -9346.7490 -7617.6352 291.4519 -569.5252 -481.4153 30627.6414 -569.5252 -481.4153
ENERGY: 300000 0.8056 14.6757 5.8721 0.0000 -10735.8915 1416.3574 0.0000 0.0000 1761.0822 -7537.0987 296.8403 -9298.1808 -7542.3660 298.7685 -483.8243 -402.9632 31221.6799 -441.4886 -352.4280
ENERGY: 600000 1.7095 15.7448 6.7327 0.0000 -10676.8926 1372.8109 0.0000 0.0000 1735.4026 -7544.4920 292.5119 -9279.8946 -7569.1343 295.2095 -873.5431 -799.5268 31319.4127 -409.1942 -331.1486
ENERGY: 900000 4.7874 14.8401 6.0569 0.0000 -10735.3176 1449.5559 0.0000 0.0000 1818.6387 -7441.4386 306.5418 -9260.0773 -7565.9641 297.4211 208.8250 274.9622 30967.7887 -292.1451 -226.3102
ENERGY: 1200000 1.6937 18.6671 5.8278 0.0000 -10906.0123 1553.7342 0.0000 0.0000 1829.4315 -7496.6582 308.3610 -9326.0896 -7554.7784 298.1538 715.7577 706.6830 30645.6221 -203.2306 -144.2329
ENERGY: 1500000 1.1854 20.9900 5.5222 0.0000 -10790.7429 1378.6907 0.0000 0.0000 1764.0424 -7620.3122 297.3393 -9384.3546 -7552.1031 298.9855 -701.1015 -627.4603 30533.9702 -230.6813 -170.9819
TCL: Running FEP window  11: Lambda1 0.49999999999999994 Lambda2 0.5499999999999999 [dLambda 0.04999999999999999]
TCL: Setting parameter firsttimestep to 0
TCL: Setting parameter alchLambda to 0.49999999999999994
Info: NONBONDED TABLE R-SQUARED SPACING: 0.0625
Info: NONBONDED TABLE SIZE: 705 POINTS
TCL: Setting parameter alchLambda2 to 0.5499999999999999
Info: NONBONDED TABLE R-SQUARED SPACING: 0.0625
Info: NONBONDED TABLE SIZE: 705 POINTS
TCL: Running for 1500000 steps
ETITLE: TS BOND ANGLE DIHED IMPRP ELECT VDW BOUNDARY MISC KINETIC TOTAL TEMP POTENTIAL TOTALAVG TEMPAVG PRESSURE GPRESSURE VOLUME PRESSAVG GPRESSAVG
ENERGY: 0 1.1854 20.9900 5.5222 0.0000 -10790.7427 1378.8287 0.0000 0.0000 1763.1466 -7621.0698 297.1883 -9384.2164 -7621.0698 297.1883 -713.9842 -618.7185 30533.9702 -713.9842 -618.7185
ENERGY: 300000 2.2663 19.5099 4.6076 0.0000 -10697.7176 1304.0376 0.0000 0.0000 1721.9781 -7645.3181 290.2491 -9367.2962 -7562.4324 298.4238 -1377.5934 -1350.7594 31001.6600 -733.8288 -671.0935
ENERGY: 600000 4.7058 12.5002 6.4964 0.0000 -10837.0907 1453.1293 0.0000 0.0000 1835.4135 -7524.8455 309.3693 -9360.2590 -7530.8863 301.0760 248.7258 286.1901 30194.0400 -390.2705 -332.7377
ENERGY: 900000 1.7207 13.8999 5.1876 0.0000 -10818.3753 1369.9470 0.0000 0.0000 1784.8694 -7642.7507 300.8498 -9427.6201 -7530.1087 300.6870 -1257.1245 -1141.7876 31121.1819 -401.3754 -339.2803
ENERGY: 1200000 2.0482 23.0704 4.3405 0.0000 -10903.9649 1502.9090 0.0000 0.0000 1803.6391 -7567.9577 304.0136 -9371.5968 -7525.5414 301.1938 327.4651 469.4070 30481.3596 -293.3210 -229.0713
ENERGY: 1500000 3.4909 15.3498 5.5015 0.0000 -10853.2551 1430.8638 0.0000 0.0000 1780.8406 -7617.2086 300.1707 -9398.0491 -7537.0218 300.7091 -260.3547 -199.4479 30506.1179 -321.1115 -253.6018
TCL: Running FEP window  12: Lambda1 0.5499999999999999 Lambda2 0.6    [dLambda 0.050000000000000044]
TCL: Setting parameter firsttimestep to 0
TCL: Setting parameter alchLambda to 0.5499999999999999
Info: NONBONDED TABLE R-SQUARED SPACING: 0.0625
Info: NONBONDED TABLE SIZE: 705 POINTS
TCL: Setting parameter alchLambda2 to 0.6
Info: NONBONDED TABLE R-SQUARED SPACING: 0.0625
Info: NONBONDED TABLE SIZE: 705 POINTS
TCL: Running for 1500000 steps
ETITLE: TS BOND ANGLE DIHED IMPRP ELECT VDW BOUNDARY MISC KINETIC TOTAL TEMP POTENTIAL TOTALAVG TEMPAVG PRESSURE GPRESSURE VOLUME PRESSAVG GPRESSAVG
ENERGY: 0 3.4909 15.3498 5.5015 0.0000 -10853.3325 1430.9691 0.0000 0.0000 1779.9686 -7618.0525 300.0238 -9398.0211 -7618.0525 300.0238 -290.7683 -195.8904 30506.1179 -290.7683 -195.8904
ENERGY: 300000 0.6687 18.3875 5.4049 0.0000 -10736.0138 1412.7155 0.0000 0.0000 1791.8397 -7506.9975 302.0247 -9298.8372 -7545.5964 303.6020 -399.1342 -253.1654 30843.0331 -299.9308 -225.8071
ENERGY: 600000 2.0822 21.3483 4.6975 0.0000 -10830.2939 1402.1078 0.0000 0.0000 1800.6553 -7599.4028 303.5106 -9400.0581 -7575.9142 301.9838 -686.1811 -646.2555 31017.1122 -322.7769 -256.0069
ENERGY: 900000 0.7728 17.8664 5.7851 0.0000 -10715.3796 1389.3051 0.0000 0.0000 1773.6542 -7527.9961 298.9594 -9301.6503 -7561.8888 302.1215 -332.1094 -238.3119 30619.0021 -214.0870 -153.5541
ENERGY: 1200000 1.8653 15.4695 5.6316 0.0000 -10626.0475 1380.9977 0.0000 0.0000 1825.8420 -7396.2414 307.7560 -9222.0834 -7539.1384 302.4895 -470.9375 -430.3497 31260.2687 -294.0211 -231.8118
ENERGY: 1500000 1.5865 16.6706 5.5941 0.0000 -10904.7439 1509.3371 0.0000 0.0000 1783.8702 -7587.6853 300.6814 -9371.5556 -7537.6533 302.5044 276.1793 418.2176 30483.7273 -222.3619 -151.5217
TCL: Running FEP window  13: Lambda1 0.6    Lambda2 0.65   [dLambda 0.050000000000000044]
TCL: Setting parameter firsttimestep to 0
TCL: Setting parameter alchLambda to 0.6
Info: NONBONDED TABLE R-SQUARED SPACING: 0.0625
Info: NONBONDED TABLE SIZE: 705 POINTS
TCL: Setting parameter alchLambda2 to 0.65
Info: NONBONDED TABLE R-SQUARED SPACING: 0.0625
Info: NONBONDED TABLE SIZE: 705 POINTS
TCL: Running for 1500000 steps
ETITLE: TS BOND ANGLE DIHED IMPRP ELECT VDW BOUNDARY MISC KINETIC TOTAL TEMP POTENTIAL TOTALAVG TEMPAVG PRESSURE GPRESSURE VOLUME PRESSAVG GPRESSAVG
ENERGY: 0 1.5865 16.6706 5.5941 0.0000 -10904.7309 1509.6300 0.0000 0.0000 1782.9995 -7588.2502 300.5346 -9371.2497 -7588.2502 300.5346 343.4378 428.2314 30483.7273 343.4378 428.2314
ENERGY: 300000 0.6954 15.2873 5.1368 0.0000 -10788.9310 1469.5673 0.0000 0.0000 1736.3637 -7561.8806 292.6739 -9298.2442 -7578.3033 297.2224 -81.2174 69.4472 30837.5064 -68.5795 19.7826
ENERGY: 600000 2.4380 15.9484 5.3128 0.0000 -10710.1248 1341.8194 0.0000 0.0000 1753.2370 -7591.3692 295.5180 -9344.6062 -7569.2395 297.6522 -1248.1427 -1213.6604 31296.1337 -349.8656 -290.0652
ENERGY: 900000 2.7509 14.0351 5.2923 0.0000 -10736.2375 1473.7483 0.0000 0.0000 1827.1834 -7413.2275 307.9821 -9240.4110 -7548.8622 299.6441 325.0992 418.0003 30815.0858 -349.5599 -288.8354
ENERGY: 1200000 1.0760 19.9657 3.4437 0.0000 -10657.4032 1389.3429 0.0000 0.0000 1799.5242 -7444.0507 303.3200 -9243.5749 -7537.6345 300.2924 -253.5801 -180.8833 30492.2054 -364.9556 -306.0557
ENERGY: 1500000 1.1098 20.4238 5.7303 0.0000 -10777.4521 1436.1774 0.0000 0.0000 1732.1534 -7581.8574 291.9642 -9314.0108 -7543.2644 299.8975 -79.0270 -47.0485 30473.0888 -320.7987 -266.3431
TCL: Running FEP window  14: Lambda1 0.65   Lambda2 0.7000000000000001 [dLambda 0.050000000000000044]
TCL: Setting parameter firsttimestep to 0
TCL: Setting parameter alchLambda to 0.65
Info: NONBONDED TABLE R-SQUARED SPACING: 0.0625
Info: NONBONDED TABLE SIZE: 705 POINTS
TCL: Setting parameter alchLambda2 to 0.7000000000000001
Info: NONBONDED TABLE R-SQUARED SPACING: 0.0625
Info: NONBONDED TABLE SIZE: 705 POINTS
TCL: Running for 1500000 steps
ETITLE: TS BOND ANGLE DIHED IMPRP ELECT VDW BOUNDARY MISC KINETIC TOTAL TEMP POTENTIAL TOTALAVG TEMPAVG PRESSURE GPRESSURE VOLUME PRESSAVG GPRESSAVG
ENERGY: 0 1.1098 20.4238 5.7303 0.0000 -10777.5336 1435.9844 0.0000 0.0000 1731.2472 -7583.0381 291.8115 -9314.2852 -7583.0381 291.8115 -131.4866 -46.2017 30473.0888 -131.4866 -46.2017
ENERGY: 300000 2.8473 18.3711 4.2139 0.0000 -10795.3529 1411.6553 0.0000 0.0000 1797.9982 -7560.2670 303.0628 -9358.2653 -7540.0623 300.6462 -114.0309 -56.3656 30479.3290 -211.0710 -137.6741
ENERGY: 600000 3.0142 17.7502 7.1849 0.0000 -10804.9929 1463.7653 0.0000 0.0000 1810.2924 -7502.9857 305.1350 -9313.2781 -7549.2912 301.6321 130.6462 116.9507 30845.2931 -175.0017 -115.9682
ENERGY: 900000 0.9820 19.0277 4.3002 0.0000 -10849.6334 1448.4448 0.0000 0.0000 1781.2654 -7595.6134 300.2423 -9376.8787 -7537.7179 302.1896 -202.0761 -111.9245 30741.3609 -83.6928 -14.0626
ENERGY: 1200000 1.4375 18.1758 4.5868 0.0000 -10945.5341 1493.3731 0.0000 0.0000 1795.3596 -7632.6012 302.6180 -9427.9608 -7550.9908 301.6664 174.3399 316.2152 30306.2276 -94.2376 -18.9670
ENERGY: 1500000 2.2860 14.6340 5.6882 0.0000 -10799.7709 1456.5379 0.0000 0.0000 1747.1435 -7573.4813 294.4909 -9320.6248 -7542.7441 301.8226 -24.8328 114.7728 30619.6095 -29.6010 46.7023
TCL: Running FEP window  15: Lambda1 0.7000000000000001 Lambda2 0.7500000000000001 [dLambda 0.050000000000000044]
TCL: Setting parameter firsttimestep to 0
TCL: Setting parameter alchLambda to 0.7000000000000001
Info: NONBONDED TABLE R-SQUARED SPACING: 0.0625
Info: NONBONDED TABLE SIZE: 705 POINTS
TCL: Setting parameter alchLambda2 to 0.7500000000000001
Info: NONBONDED TABLE R-SQUARED SPACING: 0.0625
Info: NONBONDED TABLE SIZE: 705 POINTS
TCL: Running for 1500000 steps
ETITLE: TS BOND ANGLE DIHED IMPRP ELECT VDW BOUNDARY MISC KINETIC TOTAL TEMP POTENTIAL TOTALAVG TEMPAVG PRESSURE GPRESSURE VOLUME PRESSAVG GPRESSAVG
ENERGY: 0 2.2860 14.6340 5.6882 0.0000 -10799.5730 1456.2986 0.0000 0.0000 1746.2491 -7574.4171 294.3401 -9320.6661 -7574.4171 294.3401 24.8923 117.6180 30619.6095 24.8923 117.6180
ENERGY: 300000 2.6559 16.4555 6.3552 0.0000 -10709.6606 1357.3876 0.0000 0.0000 1784.7118 -7542.0946 300.8233 -9326.8063 -7571.9390 298.0995 -669.1870 -586.3832 30614.4741 -101.6522 -18.5679
ENERGY: 600000 3.5484 16.0540 4.7531 0.0000 -10852.3016 1477.1654 0.0000 0.0000 1768.9519 -7581.8289 298.1668 -9350.7808 -7557.1648 299.0567 303.7638 409.4362 30372.0059 88.0720 172.5994
ENERGY: 900000 1.0861 17.2225 8.0921 0.0000 -10602.3647 1336.4065 0.0000 0.0000 1745.2127 -7494.3448 294.1655 -9239.5575 -7550.7679 297.9936 -857.3877 -824.3732 31276.2881 -2.4393 63.5435
ENERGY: 1200000 0.4974 18.8409 5.3863 0.0000 -10844.3800 1452.3517 0.0000 0.0000 1789.3594 -7577.9443 301.6066 -9367.3038 -7558.3863 298.2949 -173.0652 -80.3748 30665.1289 -35.0958 30.0022
ENERGY: 1500000 2.0411 21.3727 5.7458 0.0000 -10904.5704 1508.2078 0.0000 0.0000 1764.6758 -7602.5271 297.4461 -9367.2029 -7566.3810 297.7471 369.0625 401.8407 30686.6137 -12.1040 46.6511
TCL: Running FEP window  16: Lambda1 0.7500000000000001 Lambda2 0.8000000000000002 [dLambda 0.050000000000000044]
TCL: Setting parameter firsttimestep to 0
TCL: Setting parameter alchLambda to 0.7500000000000001
Info: NONBONDED TABLE R-SQUARED SPACING: 0.0625
Info: NONBONDED TABLE SIZE: 705 POINTS
TCL: Setting parameter alchLambda2 to 0.8000000000000002
Info: NONBONDED TABLE R-SQUARED SPACING: 0.0625
Info: NONBONDED TABLE SIZE: 705 POINTS
TCL: Running for 1500000 steps
ETITLE: TS BOND ANGLE DIHED IMPRP ELECT VDW BOUNDARY MISC KINETIC TOTAL TEMP POTENTIAL TOTALAVG TEMPAVG PRESSURE GPRESSURE VOLUME PRESSAVG GPRESSAVG
ENERGY: 0 2.0411 21.3727 5.7458 0.0000 -10904.5906 1507.7650 0.0000 0.0000 1763.7734 -7603.8926 297.2940 -9367.6661 -7603.8926 297.2940 317.0931 405.1341 30686.6137 317.0931 405.1341
ENERGY: 300000 1.2198 17.2011 5.5765 0.0000 -10743.0423 1395.4365 0.0000 0.0000 1783.9038 -7539.7045 300.6871 -9323.6084 -7545.2188 303.6373 -447.6885 -385.7913 30724.1320 -54.1065 4.2712
ENERGY: 600000 0.9393 23.1130 4.2567 0.0000 -11027.6279 1527.8584 0.0000 0.0000 1701.4950 -7769.9655 286.7966 -9471.4605 -7580.9406 298.4534 272.1823 304.9350 30274.2538 3.1551 67.4136
ENERGY: 900000 2.4544 18.6255 4.8830 0.0000 -10809.8402 1484.8141 0.0000 0.0000 1739.1859 -7559.8773 293.1496 -9299.0632 -7564.1479 297.6707 358.3095 409.0504 30689.0477 92.1167 152.4164
ENERGY: 1200000 0.9051 13.8442 5.8970 0.0000 -10663.1045 1384.3868 0.0000 0.0000 1745.1474 -7512.9240 294.1545 -9258.0714 -7551.2316 297.7659 -402.0809 -322.7972 30834.8694 19.6738 86.5426
ENERGY: 1500000 1.8092 20.4010 7.8802 0.0000 -10720.3843 1366.6584 0.0000 0.0000 1768.9645 -7554.6710 298.1690 -9323.6355 -7551.5987 297.7044 -690.1728 -587.5890 30708.5892 -112.2966 -44.3548
TCL: Running FEP window  17: Lambda1 0.8000000000000002 Lambda2 0.8500000000000002 [dLambda 0.050000000000000044]
TCL: Setting parameter firsttimestep to 0
TCL: Setting parameter alchLambda to 0.8000000000000002
Info: NONBONDED TABLE R-SQUARED SPACING: 0.0625
Info: NONBONDED TABLE SIZE: 705 POINTS
TCL: Setting parameter alchLambda2 to 0.8500000000000002
Info: NONBONDED TABLE R-SQUARED SPACING: 0.0625
Info: NONBONDED TABLE SIZE: 705 POINTS
TCL: Running for 1500000 steps
ETITLE: TS BOND ANGLE DIHED IMPRP ELECT VDW BOUNDARY MISC KINETIC TOTAL TEMP POTENTIAL TOTALAVG TEMPAVG PRESSURE GPRESSURE VOLUME PRESSAVG GPRESSAVG
ENERGY: 0 1.8092 20.4010 7.8802 0.0000 -10720.3871 1366.2355 0.0000 0.0000 1768.0842 -7555.9770 298.0206 -9324.0612 -7555.9770 298.0206 -665.9155 -584.5717 30708.5892 -665.9155 -584.5717
ENERGY: 300000 1.9534 15.4610 7.0854 0.0000 -10842.2103 1442.5382 0.0000 0.0000 1828.7754 -7546.3970 308.2504 -9375.1724 -7548.8620 302.9350 -73.6657 -20.2038 30306.4579 -499.9947 -433.4847
ENERGY: 600000 1.2426 15.7303 4.8085 0.0000 -10751.3545 1422.5388 0.0000 0.0000 1769.4485 -7537.5859 298.2505 -9307.0344 -7573.1690 299.1699 1.8210 119.0937 30396.4563 -394.4844 -325.8140
ENERGY: 900000 1.0200 18.6469 6.2845 0.0000 -10702.0930 1414.3574 0.0000 0.0000 1790.7548 -7471.0295 301.8418 -9261.7843 -7570.2675 299.2689 -10.3536 6.8653 30541.5164 -289.8083 -227.8451
ENERGY: 1200000 2.0871 15.9465 5.3236 0.0000 -10972.0736 1575.9741 0.0000 0.0000 1788.2005 -7584.5417 301.4113 -9372.7422 -7562.3848 300.2914 858.9077 979.9335 30370.4523 -238.8776 -177.4032
ENERGY: 1500000 1.3311 15.6475 5.6341 0.0000 -10737.2981 1388.4261 0.0000 0.0000 1778.0149 -7548.2444 299.6945 -9326.2593 -7560.1232 300.1394 -478.8045 -353.0688 30669.9769 -250.8461 -182.7092
TCL: Running FEP window  18: Lambda1 0.8500000000000002 Lambda2 0.9000000000000002 [dLambda 0.050000000000000044]
TCL: Setting parameter firsttimestep to 0
TCL: Setting parameter alchLambda to 0.8500000000000002
Info: NONBONDED TABLE R-SQUARED SPACING: 0.0625
Info: NONBONDED TABLE SIZE: 705 POINTS
TCL: Setting parameter alchLambda2 to 0.9000000000000002
Info: NONBONDED TABLE R-SQUARED SPACING: 0.0625
Info: NONBONDED TABLE SIZE: 705 POINTS
TCL: Running for 1500000 steps
ETITLE: TS BOND ANGLE DIHED IMPRP ELECT VDW BOUNDARY MISC KINETIC TOTAL TEMP POTENTIAL TOTALAVG TEMPAVG PRESSURE GPRESSURE VOLUME PRESSAVG GPRESSAVG
ENERGY: 0 1.3311 15.6475 5.6341 0.0000 -10737.5138 1388.4878 0.0000 0.0000 1777.1376 -7549.2755 299.5466 -9326.4131 -7549.2755 299.5466 -426.4177 -346.0783 30669.9769 -426.4177 -346.0783
ENERGY: 300000 0.6279 20.3581 3.5103 0.0000 -10936.7312 1525.2120 0.0000 0.0000 1728.5368 -7658.4861 291.3546 -9387.0229 -7589.7554 294.7021 412.8783 424.8806 30597.1691 2.7423 57.6721
ENERGY: 600000 4.3086 15.7712 4.5825 0.0000 -10828.8633 1475.3222 0.0000 0.0000 1695.0924 -7633.7864 285.7174 -9328.8788 -7587.7754 294.7671 466.7809 615.5470 30104.3736 253.2505 310.7367
ENERGY: 900000 1.3540 19.1297 5.6331 0.0000 -10814.0069 1483.6879 0.0000 0.0000 1827.3861 -7476.8162 308.0162 -9304.2022 -7564.8540 296.7605 323.4057 412.8238 30639.8232 253.1659 315.1334
ENERGY: 1200000 3.5514 14.3661 5.1407 0.0000 -10848.3467 1528.1146 0.0000 0.0000 1791.5343 -7505.6396 301.9732 -9297.1739 -7563.5914 297.0523 634.2314 694.3276 30643.7746 266.7283 320.2006
ENERGY: 1500000 2.1048 15.7921 7.7904 0.0000 -10911.5703 1540.3527 0.0000 0.0000 1829.5194 -7516.0110 308.3758 -9345.5303 -7559.0136 298.3650 786.4274 898.4313 30469.4680 265.2591 322.4908
TCL: Running FEP window  19: Lambda1 0.9000000000000002 Lambda2 0.9500000000000003 [dLambda 0.050000000000000044]
TCL: Setting parameter firsttimestep to 0
TCL: Setting parameter alchLambda to 0.9000000000000002
Info: NONBONDED TABLE R-SQUARED SPACING: 0.0625
Info: NONBONDED TABLE SIZE: 705 POINTS
TCL: Setting parameter alchLambda2 to 0.9500000000000003
Info: NONBONDED TABLE R-SQUARED SPACING: 0.0625
Info: NONBONDED TABLE SIZE: 705 POINTS
TCL: Running for 1500000 steps
ETITLE: TS BOND ANGLE DIHED IMPRP ELECT VDW BOUNDARY MISC KINETIC TOTAL TEMP POTENTIAL TOTALAVG TEMPAVG PRESSURE GPRESSURE VOLUME PRESSAVG GPRESSAVG
ENERGY: 0 2.1048 15.7921 7.7904 0.0000 -10911.7279 1541.5180 0.0000 0.0000 1828.5847 -7515.9380 308.2183 -9344.5226 -7515.9380 308.2183 817.0976 919.7661 30469.4680 817.0976 919.7661
ENERGY: 300000 1.9597 17.4534 7.0759 0.0000 -10738.8331 1407.1510 0.0000 0.0000 1771.5185 -7533.6745 298.5995 -9305.1930 -7516.7551 303.8212 -256.5454 -207.4480 30644.9607 166.0005 224.9923
ENERGY: 600000 2.0442 19.3997 3.6258 0.0000 -10819.4694 1376.5908 0.0000 0.0000 1782.1163 -7635.6927 300.3858 -9417.8089 -7546.4297 301.9048 -561.8363 -543.0081 30452.5145 -33.6847 29.9639
ENERGY: 900000 0.7148 18.2318 5.8449 0.0000 -10667.9920 1421.5915 0.0000 0.0000 1827.2819 -7394.3271 307.9987 -9221.6090 -7537.6450 301.6199 -70.1353 -14.4733 31160.2775 55.6378 114.1306
ENERGY: 1200000 0.1309 16.0530 4.7657 0.0000 -10778.5907 1440.2842 0.0000 0.0000 1846.5785 -7470.7784 311.2512 -9317.3568 -7548.7092 300.8499 -16.8250 85.0954 30726.5645 17.3124 72.2870
ENERGY: 1500000 2.7335 19.8134 7.6326 0.0000 -10712.0046 1397.4091 0.0000 0.0000 1785.9124 -7498.5037 301.0256 -9284.4161 -7542.8754 301.2597 -632.5597 -518.6112 31120.8343 75.5413 134.4301
TCL: Running FEP window  20: Lambda1 0.9500000000000003 Lambda2 1.0    [dLambda 0.04999999999999971]
TCL: Setting parameter firsttimestep to 0
TCL: Setting parameter alchLambda to 0.9500000000000003
Info: NONBONDED TABLE R-SQUARED SPACING: 0.0625
Info: NONBONDED TABLE SIZE: 705 POINTS
TCL: Setting parameter alchLambda2 to 1.0
Info: NONBONDED TABLE R-SQUARED SPACING: 0.0625
Info: NONBONDED TABLE SIZE: 705 POINTS
TCL: Running for 1500000 steps
ETITLE: TS BOND ANGLE DIHED IMPRP ELECT VDW BOUNDARY MISC KINETIC TOTAL TEMP POTENTIAL TOTALAVG TEMPAVG PRESSURE GPRESSURE VOLUME PRESSAVG GPRESSAVG
ENERGY: 0 2.7335 19.8134 7.6326 0.0000 -10712.1012 1397.4391 0.0000 0.0000 1784.9971 -7499.4856 300.8713 -9284.4826 -7499.4856 300.8713 -601.7490 -510.6726 31120.8343 -601.7490 -510.6726
ENERGY: 300000 2.9775 16.6739 5.4833 0.0000 -10707.2158 1362.7449 0.0000 0.0000 1823.2736 -7496.0626 307.3231 -9319.3362 -7507.8341 300.6315 -637.0166 -599.8895 31060.1795 -370.0070 -263.1932
ENERGY: 600000 0.9174 14.9218 6.2983 0.0000 -10660.4469 1366.1982 0.0000 0.0000 1789.0027 -7483.1086 301.5465 -9272.1113 -7524.5727 300.0539 -503.8433 -413.9329 30810.0095 -390.7541 -307.7423
ENERGY: 900000 1.1276 14.0608 6.5879 0.0000 -10910.5520 1488.9688 0.0000 0.0000 1846.1791 -7553.6277 311.1839 -9399.8068 -7531.3848 301.4829 -144.1108 -67.1416 31028.6360 -341.0372 -264.2763
ENERGY: 1200000 2.0527 13.8090 6.6405 0.0000 -10833.8275 1404.3809 0.0000 0.0000 1762.6427 -7644.3016 297.1034 -9406.9443 -7544.2993 300.3760 -604.0679 -541.1419 30570.0918 -244.4930 -169.5817
ENERGY: 1500000 1.4397 16.4783 5.2942 0.0000 -10752.6521 1416.0001 0.0000 0.0000 1787.2286 -7526.2111 301.2475 -9313.4397 -7529.7035 301.2100 -328.1873 -268.8413 31058.2174 -224.1541 -150.4570
TCL: Exiting due to exit command.
