Info: SIMULATION PARAMETERS:
Info: TIMESTEP               2
Info: NUMBER OF STEPS        0
Info: STEPS PER CYCLE        10
Info: PERIODIC CELL BASIS 1  32.3274 0 0
Info: PERIODIC CELL BASIS 2  0 31.284 0
Info: PERIODIC CELL BASIS 3  0 0 30.2398
Info: PERIODIC CELL CENTER   0 0 0
Info: WRAPPING WATERS AROUND PERIODIC BOUNDARIES ON OUTPUT.
Info: WRAPPING ALL CLUSTERS AROUND PERIODIC BOUNDARIES ON OUTPUT.
Info: FIRST LDB TIMESTEP     50
Info: LAST LDB TIMESTEP     -1
Info: HOM BACKGROUND SCALING 1
Info: PME BACKGROUND SCALING 1
Info: MIN ATOMS PER PATCH    40
Info: EMPTY PATCH LOAD       40 ATOMS
Info: VELOCITY FILE          mobley_3727287_equil.vel
Info: CENTER OF MASS MOVING INITIALLY? NO
Info: DIELECTRIC             1
Info: EXCLUDE                SCALED ONE-FOUR
Info: 1-4 ELECTROSTATICS SCALED BY 0.833333
Info: MODIFIED 1-4 VDW PARAMETERS WILL BE USED
Info: DCD FILENAME           mobley_3727287_prod.dcd
Info: DCD FREQUENCY          100000
Info: DCD FIRST STEP         100000
Info: DCD FILE WILL CONTAIN UNIT CELL DATA
Info: XST FILENAME           mobley_3727287_prod.xst
Info: XST FREQUENCY          100000
Info: NO VELOCITY DCD OUTPUT
Info: NO FORCE DCD OUTPUT
Info: OUTPUT FILENAME        mobley_3727287_prod
Info: BINARY OUTPUT FILES WILL BE USED
Info: RESTART FILENAME       mobley_3727287_prod.restart
Info: RESTART FREQUENCY      100000
Info: BINARY RESTART FILES WILL BE USED
Info: CUTOFF                 9
Info: PAIRLIST DISTANCE      11
Info: PAIRLIST SHRINK RATE   0.01
Info: PAIRLIST GROW RATE     0.01
Info: PAIRLIST TRIGGER       0.3
Info: PAIRLISTS PER CYCLE    2
Info: PAIRLISTS ENABLED
Info: MARGIN                 2
Info: HYDROGEN GROUP CUTOFF  2.5
Info: PATCH DIMENSION        15.5
Info: ENERGY OUTPUT STEPS    100000
Info: ENERGY EVALUATION STEPS    100000
Info: OUTPUT ENERGY PRECISION 4
Info: CROSSTERM ENERGY INCLUDED IN DIHEDRAL
Info: TIMING OUTPUT STEPS    1000000
Info: PRESSURE OUTPUT STEPS  100000
Info: FIXED ATOMS ACTIVE
Info: ALCHEMICAL FEP ON
Info: FEP CURRENT LAMBDA VALUE     1
Info: FEP COMPARISON LAMBDA VALUE  0.95
Info: FEP INTRA-ALCHEMICAL NON-BONDED INTERACTIONS WILL BE RETAINED
Info: FEP INTRA-ALCHEMICAL BONDED INTERACTIONS WILL BE RETAINED
Info: FEP VDW SHIFTING COEFFICIENT 5
Info: FEP ELEC. ACTIVE FOR ANNIHILATED PARTICLES BETWEEN LAMBDA = 0 AND LAMBDA = 0.5
Info: FEP ELEC. ACTIVE FOR EXNIHILATED PARTICLES BETWEEN LAMBDA = 0.5 AND LAMBDA = 1
Info: FEP VDW ACTIVE FOR ANNIHILATED PARTICLES BETWEEN LAMBDA = 0 AND LAMBDA = 1
Info: FEP VDW ACTIVE FOR EXNIHILATED PARTICLES BETWEEN LAMBDA = 0 AND LAMBDA = 1
Info: FEP BOND ACTIVE FOR ANNIHILATED PARTICLES BETWEEN LAMBDA = 1 AND LAMBDA = 1
Info: FEP BOND ACTIVE FOR EXNIHILATED PARTICLES BETWEEN LAMBDA = 0 AND LAMBDA = 0
Info: LANGEVIN DYNAMICS ACTIVE
Info: LANGEVIN TEMPERATURE   300
Info: LANGEVIN USING BBK INTEGRATOR
Info: LANGEVIN DAMPING COEFFICIENT IS 1 INVERSE PS
Info: LANGEVIN DYNAMICS APPLIED TO HYDROGENS
Info: LANGEVIN PISTON PRESSURE CONTROL ACTIVE
Info:        TARGET PRESSURE IS 1.01325 BAR
Info:     OSCILLATION PERIOD IS 50 FS
Info:             DECAY TIME IS 25 FS
Info:     PISTON TEMPERATURE IS 300 K
Info:       PRESSURE CONTROL IS GROUP-BASED
Info:    INITIAL STRAIN RATE IS 0.000240379 0.000240379 0.000240379
Info:       CELL FLUCTUATION IS ISOTROPIC
Info: PARTICLE MESH EWALD (PME) ACTIVE
Info: PME TOLERANCE               1e-06
Info: PME EWALD COEFFICIENT       0.348832
Info: PME INTERPOLATION ORDER     4
Info: PME GRID DIMENSIONS         36 32 32
Info: PME MAXIMUM GRID SPACING    1
Info: FULL ELECTROSTATIC EVALUATION FREQUENCY      2
Info: USING VERLET I (r-RESPA) MTS SCHEME.
Info: C1 SPLITTING OF LONG RANGE ELECTROSTATICS
Info: PLACING ATOMS IN PATCHES BY HYDROGEN GROUPS
Info: RIGID BONDS TO HYDROGEN : ALL
Info:         ERROR TOLERANCE : 1e-08
Info:          MAX ITERATIONS : 100
Info: RIGID WATER USING SETTLE ALGORITHM
Info: RANDOM NUMBER SEED     1742183999
Info: USE HYDROGEN BONDS?    NO
Info: Using AMBER format force field!
Info: AMBER PARM FILE        mobley_3727287.prmtop
Info: COORDINATE PDB         mobley_3727287.pdb
Info: Exclusions will be read from PARM file!
Info: SCNB (VDW SCALING)     2
Info: USING ARITHMETIC MEAN TO COMBINE L-J SIGMA PARAMETERS
Info: BINARY COORDINATES     mobley_3727287_equil.coor
Info: MIXED PRECISION AVX-512 TILES OPTIMIZATIONS: DISABLED
Info: SUMMARY OF PARAMETERS:
Info: 8 BONDS
Info: 9 ANGLES
Info:   9 HARMONIC
Info:   0 COSINE-BASED
Info: 3 DIHEDRAL
Info: 0 IMPROPER
Info: 0 CROSSTERM
Info: 0 VDW
Info: 15 VDW_PAIRS
Info: 0 NBTHOLE_PAIRS
Info: To read alchdata from file: mobley_3727287.pdb
Info: To read alchflag data from column: 5
Info: STRUCTURE SUMMARY:
Info: 2961 ATOMS
Info: 2961 BONDS
Info: 18 ANGLES
Info: 26 DIHEDRALS
Info: 0 IMPROPERS
Info: 0 CROSSTERMS
Info: 3000 EXCLUSIONS
Info: 12 FIXED ATOMS
Info: 2953 RIGID BONDS
Info: 4 RIGID BONDS BETWEEN FIXED ATOMS
Info: ALCH: 0 ATOMS TO DISAPPEAR IN FINAL STATE
Info: ALCH: 12 ATOMS TO APPEAR IN FINAL STATE
Info: 5898 DEGREES OF FREEDOM
Info: 991 HYDROGEN GROUPS
Info: 3 ATOMS IN LARGEST HYDROGEN GROUP
Info: 991 MIGRATION GROUPS
Info: 3 ATOMS IN LARGEST MIGRATION GROUP
Info: 8 HYDROGEN GROUPS WITH ALL ATOMS FIXED
Info: TOTAL MASS = 17817.8 amu
Info: TOTAL CHARGE = 0 e
Info: MASS DENSITY = 0.96748 g/cm^3
Info: ATOM DENSITY = 0.0968203 atoms/A^3
Info: ADDED 0 IMPLICIT EXCLUSIONS
Info: NONBONDED TABLE R-SQUARED SPACING: 0.0625
Info: NONBONDED TABLE SIZE: 705 POINTS
Info: REMOVING COM VELOCITY -0.154359 0.046929 -0.16687
TCL: Running for 1500000 steps
ETITLE: TS BOND ANGLE DIHED IMPRP ELECT VDW BOUNDARY MISC KINETIC TOTAL TEMP POTENTIAL TOTAL3 TEMPAVG PRESSURE GPRESSURE VOLUME PRESSAVG GPRESSAVG
ENERGY: 0 0.0000 0.0000 0.0000 0.0000 -10790.1876 1395.2023 0.0000 0.0000 1748.2251 -7646.7603 298.3204 -9394.9854 -7643.2326 298.3204 -462.8026 -383.6690 30582.4141 -462.8026 -383.6690
ENERGY: 300000 0.0000 0.0000 0.0000 0.0000 -10669.8578 1380.0711 0.0000 0.0000 1710.9389 -7578.8478 291.9578 -9289.7867 -7576.3350 300.3642 -291.0231 -253.1266 30868.6274 5.1520 5.2029
ENERGY: 600000 0.0000 0.0000 0.0000 0.0000 -10890.8215 1484.7164 0.0000 0.0000 1739.9400 -7666.1651 296.9066 -9406.1051 -7663.9109 300.5366 193.6771 328.5630 30647.6232 2.3265 2.5151
ENERGY: 900000 0.0000 0.0000 0.0000 0.0000 -10828.5408 1420.5561 0.0000 0.0000 1711.1151 -7696.8697 291.9879 -9407.9848 -7694.9880 300.6125 -435.4038 -374.4665 30704.1018 2.4627 2.4455
ENERGY: 1200000 0.0000 0.0000 0.0000 0.0000 -10752.4705 1362.5492 0.0000 0.0000 1727.7157 -7662.2056 294.8206 -9389.9213 -7656.3426 299.8828 -679.2645 -574.8603 30539.7559 2.8708 2.9440
ENERGY: 1500000 0.0000 0.0000 0.0000 0.0000 -10721.4772 1363.4820 0.0000 0.0000 1752.7893 -7605.2059 299.0993 -9357.9952 -7604.3368 300.4159 -625.4887 -558.5649 30833.5305 3.0810 3.1852
TCL: Running FEP window   2: Lambda1 0.95   Lambda2 0.8999999999999999 [dLambda -0.050000000000000044]
TCL: Setting parameter firsttimestep to 0
TCL: Setting parameter alchLambda to 0.95
Info: NONBONDED TABLE R-SQUARED SPACING: 0.0625
Info: NONBONDED TABLE SIZE: 705 POINTS
TCL: Setting parameter alchLambda2 to 0.8999999999999999
Info: NONBONDED TABLE R-SQUARED SPACING: 0.0625
Info: NONBONDED TABLE SIZE: 705 POINTS
TCL: Running for 1500000 steps
ETITLE: TS BOND ANGLE DIHED IMPRP ELECT VDW BOUNDARY MISC KINETIC TOTAL TEMP POTENTIAL TOTAL3 TEMPAVG PRESSURE GPRESSURE VOLUME PRESSAVG GPRESSAVG
ENERGY: 0 0.0000 0.0000 0.0000 0.0000 -10719.2467 1362.5738 0.0000 0.0000 1751.9621 -7604.7109 298.9581 -9356.6730 -7601.8954 298.9581 -668.8502 -586.2148 30833.5305 -668.8502 -586.2148
ENERGY: 300000 0.0000 0.0000 0.0000 0.0000 -10858.2203 1477.9178 0.0000 0.0000 1759.8600 -7620.4425 300.3058 -9380.3025 -7617.0139 300.2938 252.1942 329.2739 30467.3436 2.7922 2.7725
ENERGY: 600000 0.0000 0.0000 0.0000 0.0000 -10835.4891 1427.6895 0.0000 0.0000 1753.7882 -7654.0114 299.2697 -9407.7996 -7649.2368 300.2623 -183.7150 -87.3372 30516.0541 2.2833 2.3343
ENERGY: 900000 0.0000 0.0000 0.0000 0.0000 -10857.2297 1414.6895 0.0000 0.0000 1791.5025 -7651.0377 305.7053 -9442.5402 -7649.1918 300.3319 -198.9769 -127.0185 30133.8057 1.9687 1.9966
ENERGY: 1200000 0.0000 0.0000 0.0000 0.0000 -10766.4815 1362.8397 0.0000 0.0000 1772.0670 -7631.5749 302.3888 -9403.6418 -7624.7638 300.2196 -602.3436 -503.0606 30411.6639 2.6667 2.5864
ENERGY: 1500000 0.0000 0.0000 0.0000 0.0000 -10878.8972 1445.5562 0.0000 0.0000 1802.8846 -7630.4565 307.6476 -9433.3411 -7627.1410 300.5362 -268.2224 -229.1998 30955.0454 3.9474 4.0161
TCL: Running FEP window   3: Lambda1 0.8999999999999999 Lambda2 0.8499999999999999 [dLambda -0.050000000000000044]
TCL: Setting parameter firsttimestep to 0
TCL: Setting parameter alchLambda to 0.8999999999999999
Info: NONBONDED TABLE R-SQUARED SPACING: 0.0625
Info: NONBONDED TABLE SIZE: 705 POINTS
TCL: Setting parameter alchLambda2 to 0.8499999999999999
Info: NONBONDED TABLE R-SQUARED SPACING: 0.0625
Info: NONBONDED TABLE SIZE: 705 POINTS
TCL: Running for 1500000 steps
ETITLE: TS BOND ANGLE DIHED IMPRP ELECT VDW BOUNDARY MISC KINETIC TOTAL TEMP POTENTIAL TOTAL3 TEMPAVG PRESSURE GPRESSURE VOLUME PRESSAVG GPRESSAVG
ENERGY: 0 0.0000 0.0000 0.0000 0.0000 -10876.8872 1444.8836 0.0000 0.0000 1802.0039 -7629.9998 307.4973 -9432.0037 -7627.5163 307.4973 -332.0786 -246.0871 30955.0454 -332.0786 -246.0871
ENERGY: 100000 0.0000 0.0000 0.0000 0.0000 -10926.0106 1500.5238 0.0000 0.0000 1826.3822 -7599.1046 311.6573 -9425.4868 -7595.0254 300.4064 67.2047 162.0369 30619.4542 4.2247 4.3873
ENERGY: 200000 0.0000 0.0000 0.0000 0.0000 -10788.0719 1390.9584 0.0000 0.0000 1811.1754 -7585.9381 309.0624 -9397.1135 -7583.3450 300.7464 -396.8214 -404.0327 30464.3344 2.3512 2.5114
ENERGY: 300000 0.0000 0.0000 0.0000 0.0000 -10766.1000 1371.2301 0.0000 0.0000 1725.2699 -7669.6000 294.4033 -9394.8699 -7665.8899 299.4173 -546.9358 -493.2740 30693.6194 4.5928 4.5323
