Info: SIMULATION PARAMETERS:
Info: TIMESTEP               2
Info: NUMBER OF STEPS        0
Info: STEPS PER CYCLE        10
Info: PERIODIC CELL BASIS 1  36.005 0 0
Info: PERIODIC CELL BASIS 2  0 35.779 0
Info: PERIODIC CELL BASIS 3  0 0 34.68
Info: PERIODIC CELL CENTER   0 0 0
Info: WRAPPING WATERS AROUND PERIODIC BOUNDARIES ON OUTPUT.
Info: WRAPPING ALL CLUSTERS AROUND PERIODIC BOUNDARIES ON OUTPUT.
Info: FIRST LDB TIMESTEP     50
Info: LAST LDB TIMESTEP     -1
Info: HOM BACKGROUND SCALING 1
Info: PME BACKGROUND SCALING 1
Info: MIN ATOMS PER PATCH    40
Info: EMPTY PATCH LOAD       40 ATOMS
Info: INITIAL TEMPERATURE    300
Info: CENTER OF MASS MOVING INITIALLY? NO
Info: DIELECTRIC             1
Info: EXCLUDE                SCALED ONE-FOUR
Info: 1-4 ELECTROSTATICS SCALED BY 0.833333
Info: MODIFIED 1-4 VDW PARAMETERS WILL BE USED
Info: DCD FILENAME           mobley_1659169_equil.dcd
Info: DCD FREQUENCY          100000
Info: DCD FIRST STEP         100000
Info: DCD FILE WILL CONTAIN UNIT CELL DATA
Info: XST FILENAME           mobley_1659169_equil.xst
Info: XST FREQUENCY          100000
Info: NO VELOCITY DCD OUTPUT
Info: NO FORCE DCD OUTPUT
Info: OUTPUT FILENAME        mobley_1659169_equil
Info: BINARY OUTPUT FILES WILL BE USED
Info: RESTART FILENAME       mobley_1659169_equil.restart
Info: RESTART FREQUENCY      100000
Info: BINARY RESTART FILES WILL BE USED
Info: CUTOFF                 9
Info: PAIRLIST DISTANCE      11
Info: PAIRLIST SHRINK RATE   0.01
Info: PAIRLIST GROW RATE     0.01
Info: PAIRLIST TRIGGER       0.3
Info: PAIRLISTS PER CYCLE    2
Info: PAIRLISTS ENABLED
Info: MARGIN                 8
Info: HYDROGEN GROUP CUTOFF  2.5
Info: PATCH DIMENSION        21.5
Info: ENERGY OUTPUT STEPS    100000
Info: ENERGY EVALUATION STEPS    100000
Info: OUTPUT ENERGY PRECISION 4
Info: CROSSTERM ENERGY INCLUDED IN DIHEDRAL
Info: TIMING OUTPUT STEPS    1000000
Info: PRESSURE OUTPUT STEPS  100000
Info: FIXED ATOMS ACTIVE
Info: LANGEVIN DYNAMICS ACTIVE
Info: LANGEVIN TEMPERATURE   30
Info: LANGEVIN USING BBK INTEGRATOR
Info: LANGEVIN DAMPING COEFFICIENT IS 1 INVERSE PS
Info: LANGEVIN DYNAMICS APPLIED TO HYDROGENS
Info: LANGEVIN PISTON PRESSURE CONTROL ACTIVE
Info:        TARGET PRESSURE IS 1.01325 BAR
Info:     OSCILLATION PERIOD IS 50 FS
Info:             DECAY TIME IS 25 FS
Info:     PISTON TEMPERATURE IS 300 K
Info:       PRESSURE CONTROL IS GROUP-BASED
Info:    INITIAL STRAIN RATE IS 0 0 0
Info:       CELL FLUCTUATION IS ISOTROPIC
Info: PARTICLE MESH EWALD (PME) ACTIVE
Info: PME TOLERANCE               1e-06
Info: PME EWALD COEFFICIENT       0.348832
Info: PME INTERPOLATION ORDER     4
Info: PME GRID DIMENSIONS         40 36 36
Info: PME MAXIMUM GRID SPACING    1
Info: FULL ELECTROSTATIC EVALUATION FREQUENCY      2
Info: USING VERLET I (r-RESPA) MTS SCHEME.
Info: C1 SPLITTING OF LONG RANGE ELECTROSTATICS
Info: PLACING ATOMS IN PATCHES BY HYDROGEN GROUPS
Info: RIGID BONDS TO HYDROGEN : ALL
Info:         ERROR TOLERANCE : 1e-08
Info:          MAX ITERATIONS : 100
Info: RIGID WATER USING SETTLE ALGORITHM
Info: RANDOM NUMBER SEED     1742215174
Info: USE HYDROGEN BONDS?    NO
Info: Using AMBER format force field!
Info: AMBER PARM FILE        mobley_1659169.prmtop
Info: COORDINATE PDB         mobley_1659169.pdb
Info: Exclusions will be read from PARM file!
Info: SCNB (VDW SCALING)     2
Info: USING ARITHMETIC MEAN TO COMBINE L-J SIGMA PARAMETERS
Info: BINARY COORDINATES     mobley_1659169_min.coor
Info: SUMMARY OF PARAMETERS:
Info: 7 BONDS
Info: 9 ANGLES
Info:   9 HARMONIC
Info:   0 COSINE-BASED
Info: 11 DIHEDRAL
Info: 0 IMPROPER
Info: 0 CROSSTERM
Info: 0 VDW
Info: 28 VDW_PAIRS
Info: 0 NBTHOLE_PAIRS
Info: STRUCTURE SUMMARY:
Info: 2943 ATOMS
Info: 2943 BONDS
Info: 28 ANGLES
Info: 44 DIHEDRALS
Info: 0 IMPROPERS
Info: 0 CROSSTERMS
Info: 3004 EXCLUSIONS
Info: 15 FIXED ATOMS
Info: 2937 RIGID BONDS
Info: 9 RIGID BONDS BETWEEN FIXED ATOMS
Info: 5856 DEGREES OF FREEDOM
Info: 982 HYDROGEN GROUPS
Info: 3 ATOMS IN LARGEST HYDROGEN GROUP
Info: 982 MIGRATION GROUPS
Info: 3 ATOMS IN LARGEST MIGRATION GROUP
Info: 6 HYDROGEN GROUPS WITH ALL ATOMS FIXED
Info: TOTAL MASS = 17670.7 amu
Info: TOTAL CHARGE = -0.000199959 e
Info: MASS DENSITY = 0.656816 g/cm^3
Info: ATOM DENSITY = 0.0658749 atoms/A^3
Info: ADDED 0 IMPLICIT EXCLUSIONS
Info: NONBONDED TABLE R-SQUARED SPACING: 0.0625
Info: NONBONDED TABLE SIZE: 705 POINTS
Info: REMOVING COM VELOCITY -0.228761 -0.070821 0.0569363
TCL: Running for 100000 steps
ETITLE: TS BOND ANGLE DIHED IMPRP ELECT VDW BOUNDARY MISC KINETIC TOTAL TEMP POTENTIAL TOTAL3 TEMPAVG PRESSURE GPRESSURE VOLUME PRESSAVG GPRESSAVG
ENERGY: 0 0.0000 0.0000 0.0000 0.0000 -13718.4581 2442.3911 0.0000 0.0000 1759.8255 -9516.2415 302.4537 -11276.0670 -9515.9052 302.4537 627.2556 656.0458 44675.5700 627.2556 656.0458
ENERGY: 100000 0.0000 0.0000 0.0000 0.0000 -14176.3045 2372.1319 0.0000 0.0000 178.2893 -11625.8833 30.6418 -11804.1726 -11625.4727 30.9156 -714.1512 -683.9979 28521.3926 3.9334 3.9605
TCL: Running 100000 steps at 60 kelvin.
TCL: Setting parameter langevinTemp to 60
TCL: Running for 100000 steps
ETITLE: TS BOND ANGLE DIHED IMPRP ELECT VDW BOUNDARY MISC KINETIC TOTAL TEMP POTENTIAL TOTAL3 TEMPAVG PRESSURE GPRESSURE VOLUME PRESSAVG GPRESSAVG
ENERGY: 100000 0.0000 0.0000 0.0000 0.0000 -14176.3046 2372.1319 0.0000 0.0000 178.2016 -11625.9710 30.6268 -11804.1726 -11625.5728 30.6268 -729.2584 -684.1374 28521.3926 -729.2584 -684.1374
ENERGY: 200000 0.0000 0.0000 0.0000 0.0000 -14240.9133 2511.7111 0.0000 0.0000 348.2315 -11380.9706 59.8491 -11729.2021 -11380.1043 59.9451 713.2197 769.9294 28571.8812 5.1291 5.0563
TCL: Running 100000 steps at 90 kelvin.
TCL: Setting parameter langevinTemp to 90
TCL: Running for 100000 steps
ETITLE: TS BOND ANGLE DIHED IMPRP ELECT VDW BOUNDARY MISC KINETIC TOTAL TEMP POTENTIAL TOTAL3 TEMPAVG PRESSURE GPRESSURE VOLUME PRESSAVG GPRESSAVG
ENERGY: 200000 0.0000 0.0000 0.0000 0.0000 -14240.9133 2511.7111 0.0000 0.0000 348.0559 -11381.1462 59.8189 -11729.2021 -11380.5154 59.8189 722.9312 769.5986 28571.8812 722.9312 769.5986
ENERGY: 300000 0.0000 0.0000 0.0000 0.0000 -14087.5430 2475.7964 0.0000 0.0000 548.1066 -11063.6400 94.2007 -11611.7466 -11062.9772 90.0256 823.4508 849.8384 28681.0119 4.7226 4.6833
TCL: Running 100000 steps at 120 kelvin.
TCL: Setting parameter langevinTemp to 120
TCL: Running for 100000 steps
ETITLE: TS BOND ANGLE DIHED IMPRP ELECT VDW BOUNDARY MISC KINETIC TOTAL TEMP POTENTIAL TOTAL3 TEMPAVG PRESSURE GPRESSURE VOLUME PRESSAVG GPRESSAVG
ENERGY: 300000 0.0000 0.0000 0.0000 0.0000 -14087.5430 2475.7964 0.0000 0.0000 547.8420 -11063.9046 94.1553 -11611.7466 -11062.8350 94.1553 798.4202 849.4380 28681.0119 798.4202 849.4380
ENERGY: 400000 0.0000 0.0000 0.0000 0.0000 -13711.9526 2262.2030 0.0000 0.0000 674.8021 -10774.9475 115.9754 -11449.7496 -10772.3936 120.0464 -190.4106 -133.0311 28504.6975 4.8113 4.8260
TCL: Running 100000 steps at 150 kelvin.
TCL: Setting parameter langevinTemp to 150
TCL: Running for 100000 steps
ETITLE: TS BOND ANGLE DIHED IMPRP ELECT VDW BOUNDARY MISC KINETIC TOTAL TEMP POTENTIAL TOTAL3 TEMPAVG PRESSURE GPRESSURE VOLUME PRESSAVG GPRESSAVG
ENERGY: 400000 0.0000 0.0000 0.0000 0.0000 -13711.9526 2262.2030 0.0000 0.0000 674.4581 -10775.2915 115.9162 -11449.7496 -10773.8536 115.9162 -202.0011 -132.3304 28504.6975 -202.0011 -132.3304
ENERGY: 500000 0.0000 0.0000 0.0000 0.0000 -13461.0948 2174.9217 0.0000 0.0000 860.8327 -10425.3403 147.9477 -11286.1730 -10423.7058 149.8323 -425.2446 -377.7133 28721.6926 4.1346 4.1562
TCL: Running 100000 steps at 180 kelvin.
TCL: Setting parameter langevinTemp to 180
TCL: Running for 100000 steps
ETITLE: TS BOND ANGLE DIHED IMPRP ELECT VDW BOUNDARY MISC KINETIC TOTAL TEMP POTENTIAL TOTAL3 TEMPAVG PRESSURE GPRESSURE VOLUME PRESSAVG GPRESSAVG
ENERGY: 500000 0.0000 0.0000 0.0000 0.0000 -13461.0948 2174.9217 0.0000 0.0000 860.3827 -10425.7903 147.8703 -11286.1730 -10424.2124 147.8703 -422.9729 -376.6486 28721.6926 -422.9729 -376.6486
ENERGY: 600000 0.0000 0.0000 0.0000 0.0000 -13114.4737 2114.2434 0.0000 0.0000 1073.8814 -9926.3488 184.5634 -11000.2303 -9925.1472 180.0363 67.0344 159.8804 28637.5259 2.4431 2.4660
TCL: Running 100000 steps at 210 kelvin.
TCL: Setting parameter langevinTemp to 210
TCL: Running for 100000 steps
ETITLE: TS BOND ANGLE DIHED IMPRP ELECT VDW BOUNDARY MISC KINETIC TOTAL TEMP POTENTIAL TOTAL3 TEMPAVG PRESSURE GPRESSURE VOLUME PRESSAVG GPRESSAVG
ENERGY: 600000 0.0000 0.0000 0.0000 0.0000 -13114.4737 2114.2434 0.0000 0.0000 1073.3658 -9926.8645 184.4748 -11000.2303 -9925.3935 184.4748 91.7547 160.1328 28637.5259 91.7547 160.1328
ENERGY: 700000 0.0000 0.0000 0.0000 0.0000 -12567.6580 2031.1716 0.0000 0.0000 1179.8877 -9356.5987 202.7823 -10536.4864 -9354.8694 210.0058 1129.8635 1241.0241 28471.7211 4.9091 4.6753
TCL: Running 100000 steps at 240 kelvin.
TCL: Setting parameter langevinTemp to 240
TCL: Running for 100000 steps
ETITLE: TS BOND ANGLE DIHED IMPRP ELECT VDW BOUNDARY MISC KINETIC TOTAL TEMP POTENTIAL TOTAL3 TEMPAVG PRESSURE GPRESSURE VOLUME PRESSAVG GPRESSAVG
ENERGY: 700000 0.0000 0.0000 0.0000 0.0000 -12567.6580 2031.1716 0.0000 0.0000 1179.2822 -9357.2042 202.6782 -10536.4864 -9355.1811 202.6782 1163.9702 1241.1159 28471.7211 1163.9702 1241.1159
ENERGY: 800000 0.0000 0.0000 0.0000 0.0000 -11962.8782 1783.5696 0.0000 0.0000 1427.5798 -8751.7288 245.3521 -10179.3086 -8748.3873 239.7574 296.5884 421.6405 28896.4466 3.7184 3.6759
TCL: Running 100000 steps at 270 kelvin.
TCL: Setting parameter langevinTemp to 270
TCL: Running for 100000 steps
ETITLE: TS BOND ANGLE DIHED IMPRP ELECT VDW BOUNDARY MISC KINETIC TOTAL TEMP POTENTIAL TOTAL3 TEMPAVG PRESSURE GPRESSURE VOLUME PRESSAVG GPRESSAVG
ENERGY: 800000 0.0000 0.0000 0.0000 0.0000 -11962.8782 1783.5696 0.0000 0.0000 1426.8409 -8752.4677 245.2251 -10179.3086 -8750.1264 245.2251 341.4995 423.5909 28896.4466 341.4995 423.5909
ENERGY: 900000 0.0000 0.0000 0.0000 0.0000 -11254.0289 1516.3949 0.0000 0.0000 1539.5481 -8198.0859 264.5956 -9737.6340 -8193.1581 270.1594 -657.2638 -555.2379 29906.5973 3.4036 3.3272
TCL: Running 1000000 steps at 300 kelvin.
TCL: Setting parameter langevinTemp to 300
TCL: Running for 1000000 steps
ETITLE: TS BOND ANGLE DIHED IMPRP ELECT VDW BOUNDARY MISC KINETIC TOTAL TEMP POTENTIAL TOTAL3 TEMPAVG PRESSURE GPRESSURE VOLUME PRESSAVG GPRESSAVG
ENERGY: 900000 0.0000 0.0000 0.0000 0.0000 -11254.0289 1516.3949 0.0000 0.0000 1538.7596 -8198.8744 264.4601 -9737.6340 -8196.8999 264.4601 -626.2460 -553.7249 29906.5973 -626.2460 -553.7249
ENERGY: 1100000 0.0000 0.0000 0.0000 0.0000 -10687.5386 1374.0114 0.0000 0.0000 1724.4800 -7589.0472 296.3790 -9313.5272 -7583.3573 300.5504 -590.8624 -515.3545 30478.0176 3.9719 3.8882
ENERGY: 1300000 0.0000 0.0000 0.0000 0.0000 -10647.0515 1379.2749 0.0000 0.0000 1710.6199 -7557.1567 293.9970 -9267.7766 -7553.2739 300.0803 -560.6902 -462.4971 30458.2494 3.3161 3.3379
ENERGY: 1500000 0.0000 0.0000 0.0000 0.0000 -10735.6881 1485.5327 0.0000 0.0000 1748.4714 -7501.6840 300.5023 -9250.1554 -7499.1071 300.0174 440.1464 552.2434 30283.1290 3.1399 3.1745
ENERGY: 1700000 0.0000 0.0000 0.0000 0.0000 -10528.9093 1302.8232 0.0000 0.0000 1795.9380 -7430.1482 308.6602 -9226.0862 -7425.7365 300.1397 -923.6255 -812.9006 30594.9521 3.1322 3.2675
ENERGY: 1900000 0.0000 0.0000 0.0000 0.0000 -10732.3360 1467.2215 0.0000 0.0000 1768.1041 -7497.0105 303.8765 -9265.1145 -7494.2707 300.3288 570.1773 587.7850 30135.6186 1.4094 1.5248
TCL: Exiting due to exit command.
