Info: SIMULATION PARAMETERS:
Info: TIMESTEP               1
Info: NUMBER OF STEPS        0
Info: STEPS PER CYCLE        10
Info: PERIODIC CELL BASIS 1  30 0 0
Info: PERIODIC CELL BASIS 2  0 30 0
Info: PERIODIC CELL BASIS 3  0 0 30
Info: PERIODIC CELL CENTER   0 0 0
Info: WRAPPING ALL CLUSTERS AROUND PERIODIC BOUNDARIES ON OUTPUT.
Info: FIRST LDB TIMESTEP     50
Info: LAST LDB TIMESTEP     -1
Info: HOM BACKGROUND SCALING 1
Info: MIN ATOMS PER PATCH    40
Info: EMPTY PATCH LOAD       40 ATOMS
Info: INITIAL TEMPERATURE    298
Info: CENTER OF MASS MOVING INITIALLY? NO
Info: DIELECTRIC             1
Info: EXCLUDE                SCALED ONE-FOUR
Info: 1-4 ELECTROSTATICS SCALED BY 1
Info: MODIFIED 1-4 VDW PARAMETERS WILL BE USED
Info: DCD FILENAME           output.dcd
Info: DCD FREQUENCY          25
Info: DCD FIRST STEP         25
Info: DCD FILE WILL CONTAIN UNIT CELL DATA
Info: NO EXTENDED SYSTEM TRAJECTORY OUTPUT
Info: NO VELOCITY DCD OUTPUT
Info: NO FORCE DCD OUTPUT
Info: OUTPUT FILENAME        output
Info: BINARY OUTPUT FILES WILL BE USED
Info: NO RESTART FILE
Info: SWITCHING ACTIVE
Info: SWITCHING ON           10
Info: SWITCHING OFF          12
Info: PAIRLIST DISTANCE      14
Info: PAIRLIST SHRINK RATE   0.01
Info: PAIRLIST GROW RATE     0.01
Info: PAIRLIST TRIGGER       0.3
Info: PAIRLISTS PER CYCLE    2
Info: PAIRLISTS ENABLED
Info: MARGIN                 0
Info: HYDROGEN GROUP CUTOFF  2.5
Info: PATCH DIMENSION        16.5
Info: ENERGY OUTPUT STEPS    25
Info: ENERGY EVALUATION STEPS    25
Info: OUTPUT ENERGY PRECISION 4
Info: CROSSTERM ENERGY INCLUDED IN DIHEDRAL
Info: TIMING OUTPUT STEPS    25
Info: LANGEVIN DYNAMICS ACTIVE
Info: LANGEVIN TEMPERATURE   298
Info: LANGEVIN USING BBK INTEGRATOR
Info: LANGEVIN DAMPING COEFFICIENT IS 2 INVERSE PS
Info: LANGEVIN DYNAMICS APPLIED TO HYDROGENS
Info: MULTILEVEL SUMMATION METHOD (MSM) FOR ELECTROSTATICS ACTIVE
Info: MSM WITH C1 CUBIC INTERPOLATION AND C2 TAYLOR SPLITTING
Info: FULL ELECTROSTATIC EVALUATION FREQUENCY      1
Info: USING VERLET I (r-RESPA) MTS SCHEME.
Info: C1 SPLITTING OF LONG RANGE ELECTROSTATICS
Info: PLACING ATOMS IN PATCHES BY HYDROGEN GROUPS
Info: RIGID BONDS TO HYDROGEN : ALL
Info:         ERROR TOLERANCE : 1e-08
Info:          MAX ITERATIONS : 100
Info: RIGID WATER USING SETTLE ALGORITHM
Info: RANDOM NUMBER SEED     1740282214
Info: USE HYDROGEN BONDS?    NO
Info: COORDINATE PDB         ionized.pdb
Info: STRUCTURE FILE         ionized.psf
Info: PARAMETER file: CHARMM format!
Info: PARAMETERS             par_all27_prot_lipid.inp
Info: USING ARITHMETIC MEAN TO COMBINE L-J SIGMA PARAMETERS
Info: SUMMARY OF PARAMETERS:
Info: 180 BONDS
Info: 447 ANGLES
Info: 566 DIHEDRAL
Info: 46 IMPROPER
Info: 6 CROSSTERM
Info: 119 VDW
Info: 0 VDW_PAIRS
Info: 0 NBTHOLE_PAIRS
Info: STRUCTURE SUMMARY:
Info: 2476 ATOMS
Info: 1650 BONDS
Info: 825 ANGLES
Info: 0 DIHEDRALS
Info: 0 IMPROPERS
Info: 0 CROSSTERMS
Info: 0 EXCLUSIONS
Info: 2475 RIGID BONDS
Info: 4953 DEGREES OF FREEDOM
Info: 826 HYDROGEN GROUPS
Info: 3 ATOMS IN LARGEST HYDROGEN GROUP
Info: 826 MIGRATION GROUPS
Info: 3 ATOMS IN LARGEST MIGRATION GROUP
Info: TOTAL MASS = 14885.7 amu
Info: TOTAL CHARGE = 1 e
Info: MASS DENSITY = 0.915513 g/cm^3
Info: ATOM DENSITY = 0.0917037 atoms/A^3
Info: ADDED 2475 IMPLICIT EXCLUSIONS
Info: NONBONDED TABLE R-SQUARED SPACING: 0.0625
Info: NONBONDED TABLE SIZE: 769 POINTS
Info: REMOVING COM VELOCITY -0.029182 0.117925 0.295121
Info: MSM using C1 cubic interpolation
Info: MSM using C2 Taylor splitting function
Info: MSM block size decomposition along X is 8 grid points
Info: MSM block size decomposition along Y is 8 grid points
Info: MSM block size decomposition along Z is 8 grid points
Info: MSM grid spacing along X is 2.5 A
Info: MSM grid spacing along Y is 2.5 A
Info: MSM grid spacing along Z is 2.5 A
Info: MSM using 3 levels
Info:     level 0:  [0..11] x [0..11] x [0..11]
Info:     level 1:  [0..5] x [0..5] x [0..5]
Info:     level 2:  [0..2] x [0..2] x [0..2]
Info: MSM finished calculating stencils
Info: MSM finished creating map for grid levels
Info: MSM finished creating map for patches
Info: MSM has 9 interpolation / anterpolation objects (one per patch)
Info: MSM grid level 0 decomposed into 8 blocks ( 2 x 2 x 2 )
Info: MSM grid level 1 decomposed into 1 block ( 1 x 1 x 1 )
Info: MSM grid level 2 decomposed into 1 block ( 1 x 1 x 1 )
Info: MSM grid cutoff calculation decomposed into 783 work objects
TCL: Minimizing for 1000 steps
ETITLE: TS BOND ANGLE DIHED IMPRP ELECT VDW BOUNDARY MISC KINETIC TOTAL TEMP POTENTIAL TOTAL3 TEMPAVG PRESSURE GPRESSURE VOLUME PRESSAVG GPRESSAVG
ENERGY: 0 0.0000 0.0000 0.0000 0.0000 -7348.6496 6353.7252 0.0000 0.0000 0.0000 -994.9244 0.0000 -994.9244 -994.9244 0.0000 75204.0846 46356.0500 27000.0000 75204.0846 46356.0500
ENERGY: 200 0.0000 0.0000 0.0000 0.0000 -10362.6191 998.6119 0.0000 0.0000 0.0000 -9364.0072 0.0000 -9364.0072 -9364.0072 0.0000 17609.2974 17542.3597 27000.0000 17609.2974 17542.3597
ENERGY: 400 0.0000 0.0000 0.0000 0.0000 -10920.0386 1243.7815 0.0000 0.0000 0.0000 -9676.2571 0.0000 -9676.2571 -9676.2571 0.0000 20342.8671 20245.6426 27000.0000 20342.8671 20245.6426
ENERGY: 600 0.0000 0.0000 0.0000 0.0000 -11088.7375 1294.5537 0.0000 0.0000 0.0000 -9794.1838 0.0000 -9794.1838 -9794.1838 0.0000 20948.3410 20852.3325 27000.0000 20948.3410 20852.3325
ENERGY: 800 0.0000 0.0000 0.0000 0.0000 -11167.5047 1306.7247 0.0000 0.0000 0.0000 -9860.7799 0.0000 -9860.7799 -9860.7799 0.0000 21067.4311 20999.1720 27000.0000 21067.4311 20999.1720
ENERGY: 1000 0.0000 0.0000 0.0000 0.0000 -11243.7832 1328.6126 0.0000 0.0000 0.0000 -9915.1706 0.0000 -9915.1706 -9915.1706 0.0000 21308.8055 21226.4487 27000.0000 21308.8055 21226.4487
TCL: Running for 5000 steps
ETITLE: TS BOND ANGLE DIHED IMPRP ELECT VDW BOUNDARY MISC KINETIC TOTAL TEMP POTENTIAL TOTAL3 TEMPAVG PRESSURE GPRESSURE VOLUME PRESSAVG GPRESSAVG
ENERGY: 1000 0.0000 0.0000 0.0000 0.0000 -11243.7833 1328.6126 0.0000 0.0000 1526.8921 -8388.2785 310.2633 -9915.1706 -8388.5106 310.2633 -2555.7992 -2555.7992 27000.0000 -2555.7992 -2555.7992
ENERGY: 2000 0.0000 0.0000 0.0000 0.0000 -9301.0263 940.0729 0.0000 0.0000 1309.7890 -7051.1643 266.1481 -8360.9533 -7052.8476 265.7548 -1550.3283 -1559.3696 27000.0000 -1423.1490 -1427.6695
ENERGY: 3000 0.0000 0.0000 0.0000 0.0000 -8966.8306 840.1464 0.0000 0.0000 1399.3134 -6727.3708 284.3394 -8126.6842 -6728.6793 287.8081 -1647.9481 -1749.5312 27000.0000 -1698.9588 -1694.0062
ENERGY: 4000 0.0000 0.0000 0.0000 0.0000 -8800.3360 829.4708 0.0000 0.0000 1488.8861 -6481.9791 302.5405 -7970.8652 -6479.7876 296.3990 -1324.8084 -1264.3344 27000.0000 -1096.5900 -1111.1068
ENERGY: 5000 0.0000 0.0000 0.0000 0.0000 -8808.4706 812.1587 0.0000 0.0000 1479.8186 -6516.4934 300.6980 -7996.3119 -6515.1143 292.7780 -1598.6795 -1595.9337 27000.0000 -1561.9888 -1553.0423
ENERGY: 6000 0.0000 0.0000 0.0000 0.0000 -8778.1320 862.2825 0.0000 0.0000 1483.5968 -6432.2527 301.4657 -7915.8495 -6431.4656 295.1352 -1051.1938 -928.3323 27000.0000 -951.2563 -948.9641
