Info: SIMULATION PARAMETERS:
Info: TIMESTEP               2
Info: NUMBER OF STEPS        0
Info: STEPS PER CYCLE        10
Info: PERIODIC CELL BASIS 1  40.176 0 0
Info: PERIODIC CELL BASIS 2  0 39.013 0
Info: PERIODIC CELL BASIS 3  0 0 45.707
Info: PERIODIC CELL CENTER   0 0 0
Info: WRAPPING WATERS AROUND PERIODIC BOUNDARIES ON OUTPUT.
Info: WRAPPING ALL CLUSTERS AROUND PERIODIC BOUNDARIES ON OUTPUT.
Info: FIRST LDB TIMESTEP     50
Info: LAST LDB TIMESTEP     -1
Info: HOM BACKGROUND SCALING 1
Info: PME BACKGROUND SCALING 1
Info: MIN ATOMS PER PATCH    40
Info: EMPTY PATCH LOAD       40 ATOMS
Info: INITIAL TEMPERATURE    300
Info: CENTER OF MASS MOVING INITIALLY? NO
Info: DIELECTRIC             1
Info: EXCLUDE                SCALED ONE-FOUR
Info: 1-4 ELECTROSTATICS SCALED BY 0.833333
Info: MODIFIED 1-4 VDW PARAMETERS WILL BE USED
Info: DCD FILENAME           mobley_7393673_min.dcd
Info: DCD FREQUENCY          5000
Info: DCD FIRST STEP         5000
Info: DCD FILE WILL CONTAIN UNIT CELL DATA
Info: XST FILENAME           mobley_7393673_min.xst
Info: XST FREQUENCY          5000
Info: NO VELOCITY DCD OUTPUT
Info: NO FORCE DCD OUTPUT
Info: OUTPUT FILENAME        mobley_7393673_min
Info: BINARY OUTPUT FILES WILL BE USED
Info: RESTART FILENAME       mobley_7393673_min.restart
Info: RESTART FREQUENCY      5000
Info: BINARY RESTART FILES WILL BE USED
Info: CUTOFF                 9
Info: PAIRLIST DISTANCE      11
Info: PAIRLIST SHRINK RATE   0.01
Info: PAIRLIST GROW RATE     0.01
Info: PAIRLIST TRIGGER       0.3
Info: PAIRLISTS PER CYCLE    2
Info: PAIRLISTS ENABLED
Info: MARGIN                 8
Info: HYDROGEN GROUP CUTOFF  2.5
Info: PATCH DIMENSION        21.5
Info: ENERGY OUTPUT STEPS    5000
Info: ENERGY EVALUATION STEPS    5000
Info: OUTPUT ENERGY PRECISION 4
Info: CROSSTERM ENERGY INCLUDED IN DIHEDRAL
Info: TIMING OUTPUT STEPS    50000
Info: PRESSURE OUTPUT STEPS  5000
Info: LANGEVIN DYNAMICS ACTIVE
Info: LANGEVIN TEMPERATURE   300
Info: LANGEVIN USING BBK INTEGRATOR
Info: LANGEVIN DAMPING COEFFICIENT IS 1 INVERSE PS
Info: LANGEVIN DYNAMICS APPLIED TO HYDROGENS
Info: LANGEVIN PISTON PRESSURE CONTROL ACTIVE
Info:        TARGET PRESSURE IS 1.01325 BAR
Info:     OSCILLATION PERIOD IS 50 FS
Info:             DECAY TIME IS 25 FS
Info:     PISTON TEMPERATURE IS 300 K
Info:       PRESSURE CONTROL IS GROUP-BASED
Info:    INITIAL STRAIN RATE IS 0 0 0
Info:       CELL FLUCTUATION IS ISOTROPIC
Info: PARTICLE MESH EWALD (PME) ACTIVE
Info: PME TOLERANCE               1e-06
Info: PME EWALD COEFFICIENT       0.348832
Info: PME INTERPOLATION ORDER     4
Info: PME GRID DIMENSIONS         44 40 48
Info: PME MAXIMUM GRID SPACING    1
Info: FULL ELECTROSTATIC EVALUATION FREQUENCY      2
Info: USING VERLET I (r-RESPA) MTS SCHEME.
Info: C1 SPLITTING OF LONG RANGE ELECTROSTATICS
Info: PLACING ATOMS IN PATCHES BY HYDROGEN GROUPS
Info: RIGID BONDS TO HYDROGEN : ALL
Info:         ERROR TOLERANCE : 1e-08
Info:          MAX ITERATIONS : 100
Info: RIGID WATER USING SETTLE ALGORITHM
Info: RANDOM NUMBER SEED     1741386784
Info: USE HYDROGEN BONDS?    NO
Info: Using AMBER format force field!
Info: AMBER PARM FILE        mobley_7393673.prmtop
Info: COORDINATE PDB         mobley_7393673.pdb
Info: Exclusions will be read from PARM file!
Info: SCNB (VDW SCALING)     2
Info: USING ARITHMETIC MEAN TO COMBINE L-J SIGMA PARAMETERS
Info: SUMMARY OF PARAMETERS:
Info: 10 BONDS
Info: 11 ANGLES
Info:   11 HARMONIC
Info:   0 COSINE-BASED
Info: 12 DIHEDRAL
Info: 0 IMPROPER
Info: 0 CROSSTERM
Info: 0 VDW
Info: 36 VDW_PAIRS
Info: 0 NBTHOLE_PAIRS
Info: STRUCTURE SUMMARY:
Info: 5140 ATOMS
Info: 5140 BONDS
Info: 35 ANGLES
Info: 46 DIHEDRALS
Info: 0 IMPROPERS
Info: 0 CROSSTERMS
Info: 5210 EXCLUSIONS
Info: 5128 RIGID BONDS
Info: 10292 DEGREES OF FREEDOM
Info: 1718 HYDROGEN GROUPS
Info: 4 ATOMS IN LARGEST HYDROGEN GROUP
Info: 1718 MIGRATION GROUPS
Info: 4 ATOMS IN LARGEST MIGRATION GROUP
Info: TOTAL MASS = 30901.5 amu
Info: TOTAL CHARGE = -9.99831e-05 e
Info: MASS DENSITY = 0.716275 g/cm^3
Info: ATOM DENSITY = 0.0717471 atoms/A^3
Info: ADDED 0 IMPLICIT EXCLUSIONS
Info: NONBONDED TABLE R-SQUARED SPACING: 0.0625
Info: NONBONDED TABLE SIZE: 705 POINTS
Info: REMOVING COM VELOCITY -0.151826 -0.104328 -0.164721
TCL: Minimizing for 2000 steps
ETITLE: TS BOND ANGLE DIHED IMPRP ELECT VDW BOUNDARY MISC KINETIC TOTAL TEMP POTENTIAL TOTAL3 TEMPAVG PRESSURE GPRESSURE VOLUME PRESSAVG GPRESSAVG
ENERGY: 0 0.6657 0.6459 3.2011 0.0000 -15883.0999 1805.0062 0.0000 0.0000 0.0000 -14073.5810 0.0000 -14073.5810 -14073.5810 0.0000 11016.9651 -15250.0448 71640.5251 11016.9651 -15250.0448
ENERGY: 400 2.7961 3.4949 3.7836 0.0000 -21233.3625 2944.9114 0.0000 0.0000 0.0000 -18278.3765 0.0000 -18278.3765 -18278.3765 0.0000 14838.9712 9062.9697 71640.5251 14838.9712 9062.9697
ENERGY: 800 2.2940 1.9362 4.0984 0.0000 -22758.2982 3760.1949 0.0000 0.0000 0.0000 -18989.7748 0.0000 -18989.7748 -18989.7748 0.0000 18369.2816 12258.7660 71640.5251 18369.2816 12258.7660
ENERGY: 1200 0.7117 1.2222 4.5126 0.0000 -23161.3346 3894.8340 0.0000 0.0000 0.0000 -19260.0541 0.0000 -19260.0541 -19260.0541 0.0000 18973.2650 12987.0808 71640.5251 18973.2650 12987.0808
ENERGY: 1600 0.8850 0.9313 4.3021 0.0000 -23364.4320 3963.7050 0.0000 0.0000 0.0000 -19394.6087 0.0000 -19394.6087 -19394.6087 0.0000 19324.8730 13181.3661 71640.5251 19324.8730 13181.3661
ENERGY: 2000 0.6777 1.1963 3.4847 0.0000 -23512.5253 4031.6900 0.0000 0.0000 0.0000 -19475.4765 0.0000 -19475.4765 -19475.4765 0.0000 19628.5138 13242.1131 71640.5251 19628.5138 13242.1131
TCL: Exiting due to exit command.
Info: NAMD 3.0.1 for Linux-x86_64-multicore
Info: Please visit http://www.ks.uiuc.edu/Research/namd/
Info: for updates, documentation, and support information.
Info: Please cite Phillips et al., J. Chem. Phys. 153:044130 (2020) doi:10.1063/5.0014475
Info: in all publications reporting results obtained with NAMD.
Info: Based on Charm++/Converse 80000 for multicore-linux-x86_64-gcc
Info: Built Mon Oct 14 11:11:06 CDT 2024 by dhardy on athine.ks.uiuc.edu
Info: 1 NAMD  3.0.1  Linux-x86_64-multicore  16    k011  z5358697
Info: Running on 16 processors, 1 nodes, 1 physical nodes.
Info: CPU topology information available.
Info: Charm++/Converse parallel runtime startup completed at 0.00967246 s
Info: 1043.45 MB of memory in use based on /proc/self/stat
Info: Configuration file is mobley_7393673_equil.namd
Info: Working in the current directory /srv/scratch/z5358697/prod_prep_9/7393673
TCL: Running 25000 steps at 30 kelvin.
TCL: Suspending until startup complete.
Info: SIMULATION PARAMETERS:
Info: TIMESTEP               2
Info: NUMBER OF STEPS        0
Info: STEPS PER CYCLE        10
Info: PERIODIC CELL BASIS 1  40.176 0 0
Info: PERIODIC CELL BASIS 2  0 39.013 0
Info: PERIODIC CELL BASIS 3  0 0 45.707
Info: PERIODIC CELL CENTER   0 0 0
Info: WRAPPING WATERS AROUND PERIODIC BOUNDARIES ON OUTPUT.
Info: WRAPPING ALL CLUSTERS AROUND PERIODIC BOUNDARIES ON OUTPUT.
Info: FIRST LDB TIMESTEP     50
Info: LAST LDB TIMESTEP     -1
Info: HOM BACKGROUND SCALING 1
Info: PME BACKGROUND SCALING 1
Info: MIN ATOMS PER PATCH    40
Info: EMPTY PATCH LOAD       40 ATOMS
Info: INITIAL TEMPERATURE    300
Info: CENTER OF MASS MOVING INITIALLY? NO
Info: DIELECTRIC             1
Info: EXCLUDE                SCALED ONE-FOUR
Info: 1-4 ELECTROSTATICS SCALED BY 0.833333
Info: MODIFIED 1-4 VDW PARAMETERS WILL BE USED
Info: DCD FILENAME           mobley_7393673_equil.dcd
Info: DCD FREQUENCY          5000
Info: DCD FIRST STEP         5000
Info: DCD FILE WILL CONTAIN UNIT CELL DATA
Info: XST FILENAME           mobley_7393673_equil.xst
Info: XST FREQUENCY          5000
Info: NO VELOCITY DCD OUTPUT
Info: NO FORCE DCD OUTPUT
Info: OUTPUT FILENAME        mobley_7393673_equil
Info: BINARY OUTPUT FILES WILL BE USED
Info: RESTART FILENAME       mobley_7393673_equil.restart
Info: RESTART FREQUENCY      5000
Info: BINARY RESTART FILES WILL BE USED
Info: CUTOFF                 9
Info: PAIRLIST DISTANCE      11
Info: PAIRLIST SHRINK RATE   0.01
Info: PAIRLIST GROW RATE     0.01
Info: PAIRLIST TRIGGER       0.3
Info: PAIRLISTS PER CYCLE    2
Info: PAIRLISTS ENABLED
Info: MARGIN                 8
Info: HYDROGEN GROUP CUTOFF  2.5
Info: PATCH DIMENSION        21.5
Info: ENERGY OUTPUT STEPS    5000
Info: ENERGY EVALUATION STEPS    5000
Info: OUTPUT ENERGY PRECISION 4
Info: CROSSTERM ENERGY INCLUDED IN DIHEDRAL
Info: TIMING OUTPUT STEPS    50000
Info: PRESSURE OUTPUT STEPS  5000
Info: LANGEVIN DYNAMICS ACTIVE
Info: LANGEVIN TEMPERATURE   30
Info: LANGEVIN USING BBK INTEGRATOR
Info: LANGEVIN DAMPING COEFFICIENT IS 1 INVERSE PS
Info: LANGEVIN DYNAMICS APPLIED TO HYDROGENS
Info: LANGEVIN PISTON PRESSURE CONTROL ACTIVE
Info:        TARGET PRESSURE IS 1.01325 BAR
Info:     OSCILLATION PERIOD IS 50 FS
Info:             DECAY TIME IS 25 FS
Info:     PISTON TEMPERATURE IS 300 K
Info:       PRESSURE CONTROL IS GROUP-BASED
Info:    INITIAL STRAIN RATE IS 0 0 0
Info:       CELL FLUCTUATION IS ISOTROPIC
Info: PARTICLE MESH EWALD (PME) ACTIVE
Info: PME TOLERANCE               1e-06
Info: PME EWALD COEFFICIENT       0.348832
Info: PME INTERPOLATION ORDER     4
Info: PME GRID DIMENSIONS         44 40 48
Info: PME MAXIMUM GRID SPACING    1
Info: FULL ELECTROSTATIC EVALUATION FREQUENCY      2
Info: USING VERLET I (r-RESPA) MTS SCHEME.
Info: C1 SPLITTING OF LONG RANGE ELECTROSTATICS
Info: PLACING ATOMS IN PATCHES BY HYDROGEN GROUPS
Info: RIGID BONDS TO HYDROGEN : ALL
Info:         ERROR TOLERANCE : 1e-08
Info:          MAX ITERATIONS : 100
Info: RIGID WATER USING SETTLE ALGORITHM
Info: RANDOM NUMBER SEED     1741386805
Info: USE HYDROGEN BONDS?    NO
Info: Using AMBER format force field!
Info: AMBER PARM FILE        mobley_7393673.prmtop
Info: COORDINATE PDB         mobley_7393673.pdb
Info: Exclusions will be read from PARM file!
Info: SCNB (VDW SCALING)     2
Info: USING ARITHMETIC MEAN TO COMBINE L-J SIGMA PARAMETERS
Info: BINARY COORDINATES     mobley_7393673_min.coor
Info: SUMMARY OF PARAMETERS:
Info: 10 BONDS
Info: 11 ANGLES
Info:   11 HARMONIC
Info:   0 COSINE-BASED
Info: 12 DIHEDRAL
Info: 0 IMPROPER
Info: 0 CROSSTERM
Info: 0 VDW
Info: 36 VDW_PAIRS
Info: 0 NBTHOLE_PAIRS
Info: STRUCTURE SUMMARY:
Info: 5140 ATOMS
Info: 5140 BONDS
Info: 35 ANGLES
Info: 46 DIHEDRALS
Info: 0 IMPROPERS
Info: 0 CROSSTERMS
Info: 5210 EXCLUSIONS
Info: 5128 RIGID BONDS
Info: 10292 DEGREES OF FREEDOM
Info: 1718 HYDROGEN GROUPS
Info: 4 ATOMS IN LARGEST HYDROGEN GROUP
Info: 1718 MIGRATION GROUPS
Info: 4 ATOMS IN LARGEST MIGRATION GROUP
Info: TOTAL MASS = 30901.5 amu
Info: TOTAL CHARGE = -9.99831e-05 e
Info: MASS DENSITY = 0.716275 g/cm^3
Info: ATOM DENSITY = 0.0717471 atoms/A^3
Info: ADDED 0 IMPLICIT EXCLUSIONS
Info: NONBONDED TABLE R-SQUARED SPACING: 0.0625
Info: NONBONDED TABLE SIZE: 705 POINTS
Info: REMOVING COM VELOCITY -0.0603855 -0.0549267 -0.0304011
TCL: Running for 25000 steps
ETITLE: TS BOND ANGLE DIHED IMPRP ELECT VDW BOUNDARY MISC KINETIC TOTAL TEMP POTENTIAL TOTAL3 TEMPAVG PRESSURE GPRESSURE VOLUME PRESSAVG GPRESSAVG
ENERGY: 0 0.6777 1.1963 3.4847 0.0000 -23512.5253 4031.6900 0.0000 0.0000 3058.0282 -16417.4483 299.0419 -19475.4765 -16416.8068 299.0419 -1.8956 31.7171 71640.5251 -1.8956 31.7171
ENERGY: 5000 0.7746 2.1531 3.7526 0.0000 -24669.3493 4282.3957 0.0000 0.0000 316.9063 -20063.3670 30.9900 -20380.2733 -20061.9769 47.5496 -3.2395 61.9110 50636.0088 3.2796 3.2207
ENERGY: 10000 0.7476 1.3785 4.2673 0.0000 -24674.3383 4243.1344 0.0000 0.0000 309.8183 -20114.9922 30.2969 -20424.8105 -20114.3131 30.2359 -210.1244 -167.6645 50321.0115 5.2724 5.3014
ENERGY: 15000 0.4281 1.7532 4.9060 0.0000 -24681.5237 4232.6527 0.0000 0.0000 304.9600 -20136.8237 29.8218 -20441.7837 -20135.7855 30.2442 -301.4268 -245.9974 50233.7186 4.6673 4.5052
ENERGY: 20000 0.5247 1.3754 4.7544 0.0000 -24876.6202 4431.2237 0.0000 0.0000 312.1302 -20126.6119 30.5229 -20438.7421 -20125.7439 30.0088 710.4424 776.7025 49893.6471 3.0788 2.9860
ENERGY: 25000 0.5344 1.4976 4.3319 0.0000 -24881.1072 4422.2510 0.0000 0.0000 313.2129 -20139.2794 30.6288 -20452.4923 -20138.4653 29.9732 604.2732 663.1522 49923.3050 2.7588 2.5592
TCL: Running 25000 steps at 60 kelvin.
TCL: Setting parameter langevinTemp to 60
TCL: Running for 25000 steps
ETITLE: TS BOND ANGLE DIHED IMPRP ELECT VDW BOUNDARY MISC KINETIC TOTAL TEMP POTENTIAL TOTAL3 TEMPAVG PRESSURE GPRESSURE VOLUME PRESSAVG GPRESSAVG
ENERGY: 25000 0.5344 1.4976 4.3319 0.0000 -24881.1072 4422.2510 0.0000 0.0000 313.0654 -20139.4269 30.6144 -20452.4923 -20138.7352 30.6144 600.5915 663.2240 49923.3050 600.5915 663.2240
ENERGY: 30000 2.0656 2.8908 5.5435 0.0000 -24340.3931 4143.8716 0.0000 0.0000 608.9042 -19577.1174 59.5442 -20186.0215 -19575.3298 57.4058 -197.3893 -141.6771 50438.6256 -1.8001 -1.9441
ENERGY: 35000 1.1856 3.2805 5.0639 0.0000 -24432.3485 4203.5214 0.0000 0.0000 615.9742 -19603.3229 60.2356 -20219.2971 -19601.9847 60.0750 0.2874 77.3507 50343.2811 3.3519 3.3688
ENERGY: 40000 2.2330 3.8913 3.5094 0.0000 -24323.7831 4065.7450 0.0000 0.0000 612.5546 -19635.8499 59.9012 -20248.4045 -19634.3363 60.0489 -727.0618 -665.6386 50301.4314 3.1719 3.2444
ENERGY: 45000 1.3694 2.0064 4.0992 0.0000 -24471.9330 4205.9195 0.0000 0.0000 618.2163 -19640.3222 60.4548 -20258.5385 -19638.7251 59.8954 104.5504 165.8415 49912.8616 0.5634 0.4427
ENERGY: 50000 1.5376 1.3893 4.0003 0.0000 -24382.3073 4098.0971 0.0000 0.0000 611.6148 -19665.6682 59.8093 -20277.2831 -19664.0313 60.3681 -552.1399 -474.7736 50251.7141 8.3172 7.9467
TCL: Running 25000 steps at 90 kelvin.
TCL: Setting parameter langevinTemp to 90
TCL: Running for 25000 steps
ETITLE: TS BOND ANGLE DIHED IMPRP ELECT VDW BOUNDARY MISC KINETIC TOTAL TEMP POTENTIAL TOTAL3 TEMPAVG PRESSURE GPRESSURE VOLUME PRESSAVG GPRESSAVG
ENERGY: 50000 1.5376 1.3893 4.0003 0.0000 -24382.3073 4098.0971 0.0000 0.0000 611.3057 -19665.9773 59.7791 -20277.2831 -19664.6645 59.7791 -538.9624 -474.9244 50251.7141 -538.9624 -474.9244
ENERGY: 55000 0.7692 1.9662 5.8236 0.0000 -24107.9030 4113.2717 0.0000 0.0000 918.4737 -19067.5986 89.8167 -19986.0723 -19065.2757 87.1982 274.5734 346.3053 49898.6314 3.3965 3.5955
ENERGY: 60000 2.0128 2.3639 4.0801 0.0000 -24155.9701 4097.6619 0.0000 0.0000 923.7903 -19126.0611 90.3367 -20049.8513 -19123.6509 89.5065 16.0272 69.7759 49955.3683 0.9768 0.9768
ENERGY: 65000 1.2898 4.0329 3.6551 0.0000 -24153.1685 4073.7189 0.0000 0.0000 905.2450 -19165.2269 88.5231 -20070.4719 -19162.6611 89.9082 -141.6071 -85.8383 50035.5859 2.4414 2.5017
ENERGY: 70000 1.7037 4.0106 4.6768 0.0000 -24237.3668 4125.0184 0.0000 0.0000 910.4270 -19191.5304 89.0299 -20101.9574 -19188.5392 90.1212 96.2444 138.1868 49838.9752 1.9724 2.1094
ENERGY: 75000 1.3170 3.1843 5.2087 0.0000 -24228.9014 4107.3205 0.0000 0.0000 903.9835 -19207.8872 88.3998 -20111.8707 -19205.6318 89.2187 -64.9110 9.8743 49887.4006 -0.0265 0.0799
TCL: Running 25000 steps at 120 kelvin.
TCL: Setting parameter langevinTemp to 120
TCL: Running for 25000 steps
ETITLE: TS BOND ANGLE DIHED IMPRP ELECT VDW BOUNDARY MISC KINETIC TOTAL TEMP POTENTIAL TOTAL3 TEMPAVG PRESSURE GPRESSURE VOLUME PRESSAVG GPRESSAVG
ENERGY: 75000 1.3170 3.1843 5.2087 0.0000 -24228.9014 4107.3205 0.0000 0.0000 903.5229 -19208.3479 88.3547 -20111.8707 -19206.4132 88.3547 -42.1369 9.9750 49887.4006 -42.1369 9.9750
ENERGY: 80000 2.1674 3.0671 6.8261 0.0000 -23768.8223 4033.0235 0.0000 0.0000 1216.8334 -18506.9049 118.9931 -19723.7383 -18504.2478 116.7272 406.9147 497.7880 49914.6243 1.4432 1.3426
ENERGY: 85000 2.8820 2.4167 5.8275 0.0000 -23751.4321 4000.6967 0.0000 0.0000 1222.0264 -18517.5827 119.5009 -19739.6092 -18515.7956 119.8015 136.3769 183.5594 50118.1639 5.9369 5.9776
ENERGY: 90000 0.6550 4.9914 5.5848 0.0000 -23792.9261 4024.4670 0.0000 0.0000 1248.0352 -18509.1927 122.0443 -19757.2280 -18506.0212 120.9476 364.2362 418.6021 49858.3819 -1.6412 -1.0069
ENERGY: 95000 3.7682 2.5913 4.5633 0.0000 -23733.7473 3926.8730 0.0000 0.0000 1259.4760 -18536.4755 123.1631 -19795.9515 -18531.8880 120.4366 -298.0021 -237.0545 49993.2037 0.1599 0.2498
ENERGY: 100000 1.8060 3.5309 5.8610 0.0000 -23890.8881 4048.2035 0.0000 0.0000 1244.3099 -18587.1767 121.6800 -19831.4867 -18583.6603 120.4267 290.6721 340.0190 49851.7386 3.5700 3.7984
TCL: Running 25000 steps at 150 kelvin.
TCL: Setting parameter langevinTemp to 150
TCL: Running for 25000 steps
ETITLE: TS BOND ANGLE DIHED IMPRP ELECT VDW BOUNDARY MISC KINETIC TOTAL TEMP POTENTIAL TOTAL3 TEMPAVG PRESSURE GPRESSURE VOLUME PRESSAVG GPRESSAVG
ENERGY: 100000 1.8060 3.5309 5.8610 0.0000 -23890.8880 4048.2035 0.0000 0.0000 1243.6905 -18587.7961 121.6194 -19831.4867 -18585.7458 121.6194 288.8569 340.7987 49851.7386 288.8569 340.7987
ENERGY: 105000 0.9536 2.9029 7.9118 0.0000 -23437.3571 3955.3421 0.0000 0.0000 1541.8537 -17928.3930 150.7765 -19470.2467 -17924.1013 146.7351 605.6606 648.1367 50151.7315 1.1644 1.5536
ENERGY: 110000 2.3245 4.0747 7.4406 0.0000 -23409.6887 3890.9243 0.0000 0.0000 1558.4998 -17946.4248 152.4044 -19504.9246 -17941.5416 149.9472 189.2472 254.4872 50252.3377 1.8055 1.9978
ENERGY: 115000 2.0403 3.4056 7.5542 0.0000 -23252.1163 3728.7216 0.0000 0.0000 1577.8925 -17932.5021 154.3007 -19510.3946 -17928.6164 150.5512 -563.5832 -486.2373 50334.0488 3.1764 3.1419
ENERGY: 120000 1.0467 4.4573 8.4038 0.0000 -23553.6390 3981.5580 0.0000 0.0000 1518.4992 -18039.6741 148.4927 -19558.1732 -18035.9596 149.8202 512.8694 588.8234 50093.6739 0.0094 -0.1974
ENERGY: 125000 2.5235 3.3209 4.9835 0.0000 -23437.4490 3840.2900 0.0000 0.0000 1528.6490 -18057.6821 149.4853 -19586.3310 -18053.5728 150.5190 -202.7187 -124.7789 50392.9075 4.9955 5.1256
TCL: Running 50000 steps at 180 kelvin.
TCL: Setting parameter langevinTemp to 180
TCL: Running for 50000 steps
ETITLE: TS BOND ANGLE DIHED IMPRP ELECT VDW BOUNDARY MISC KINETIC TOTAL TEMP POTENTIAL TOTAL3 TEMPAVG PRESSURE GPRESSURE VOLUME PRESSAVG GPRESSAVG
ENERGY: 125000 2.5235 3.3209 4.9835 0.0000 -23437.4490 3840.2900 0.0000 0.0000 1527.8790 -18058.4521 149.4100 -19586.3310 -18055.5960 149.4100 -182.0373 -124.4771 50392.9075 -182.0373 -124.4771
ENERGY: 135000 1.1797 7.2985 6.2656 0.0000 -22720.0522 3607.1185 0.0000 0.0000 1809.8364 -17288.3537 176.9823 -19098.1900 -17282.9083 179.5169 -432.8491 -329.7635 50574.7082 2.1745 1.8964
ENERGY: 145000 1.8189 5.7695 6.1622 0.0000 -22737.8294 3598.2014 0.0000 0.0000 1803.3832 -17322.4943 176.3513 -19125.8775 -17318.9877 179.4341 -474.4676 -398.3819 50438.9516 2.3916 2.5574
ENERGY: 155000 1.3949 5.4389 4.5921 0.0000 -22868.6421 3709.3127 0.0000 0.0000 1854.7242 -17293.1793 181.3719 -19147.9035 -17288.0131 180.5407 -25.3339 22.3963 50526.6010 5.2203 4.9804
ENERGY: 165000 1.5909 3.9380 5.8949 0.0000 -23000.9544 3777.0540 0.0000 0.0000 1865.7015 -17346.7751 182.4453 -19212.4766 -17341.8002 179.4933 235.8211 300.0576 50405.1230 -1.3362 -1.0095
ENERGY: 175000 2.0429 5.7378 4.9227 0.0000 -22931.0329 3790.5933 0.0000 0.0000 1809.8553 -17317.8809 176.9842 -19127.7362 -17313.4368 179.9519 534.7865 593.3914 49965.4165 0.8139 0.7794
TCL: Running 50000 steps at 210 kelvin.
TCL: Setting parameter langevinTemp to 210
TCL: Running for 50000 steps
ETITLE: TS BOND ANGLE DIHED IMPRP ELECT VDW BOUNDARY MISC KINETIC TOTAL TEMP POTENTIAL TOTAL3 TEMPAVG PRESSURE GPRESSURE VOLUME PRESSAVG GPRESSAVG
ENERGY: 175000 2.0429 5.7378 4.9227 0.0000 -22931.0329 3790.5933 0.0000 0.0000 1808.9471 -17318.7891 176.8954 -19127.7362 -17315.2301 176.8954 549.5522 593.2779 49965.4165 549.5522 593.2779
ENERGY: 185000 3.5875 5.8749 7.8666 0.0000 -21729.4459 3314.6928 0.0000 0.0000 2101.9482 -16295.4760 205.5477 -18397.4241 -16290.4532 209.7610 -145.8391 -70.9688 50005.0595 8.1643 8.0656
ENERGY: 195000 4.3110 4.5100 6.2860 0.0000 -21618.4256 3348.5116 0.0000 0.0000 2170.5215 -16084.2855 212.2534 -18254.8070 -16080.9714 210.2347 251.6645 362.2640 49945.8325 6.3384 6.1434
ENERGY: 205000 6.2146 7.7614 5.1984 0.0000 -21682.2305 3255.9429 0.0000 0.0000 2151.5171 -16255.5961 210.3950 -18407.1132 -16251.1435 210.1552 -652.6940 -526.0907 50293.6053 -3.1016 -3.3458
ENERGY: 215000 5.5667 5.4645 9.8770 0.0000 -21493.4721 3131.3249 0.0000 0.0000 2132.6651 -16208.5740 208.5515 -18341.2391 -16202.0082 210.6868 -976.8589 -952.1452 50428.2379 0.7148 0.8165
ENERGY: 225000 0.7265 6.0049 6.5357 0.0000 -21604.2047 3265.7686 0.0000 0.0000 2161.4468 -16163.7221 211.3660 -18325.1689 -16159.0021 210.8761 -223.7239 -119.2619 50181.8844 -3.2255 -2.8488
TCL: Running 50000 steps at 240 kelvin.
TCL: Setting parameter langevinTemp to 240
TCL: Running for 50000 steps
ETITLE: TS BOND ANGLE DIHED IMPRP ELECT VDW BOUNDARY MISC KINETIC TOTAL TEMP POTENTIAL TOTAL3 TEMPAVG PRESSURE GPRESSURE VOLUME PRESSAVG GPRESSAVG
ENERGY: 225000 0.7265 6.0049 6.5357 0.0000 -21604.2047 3265.7686 0.0000 0.0000 2160.3798 -16164.7892 211.2617 -18325.1689 -16161.2945 211.2617 -204.7470 -119.4980 50181.8844 -204.7470 -119.4980
ENERGY: 235000 4.8205 6.5756 5.4365 0.0000 -20537.5842 2941.9180 0.0000 0.0000 2468.3032 -15110.5304 241.3732 -17578.8337 -15104.4009 239.3646 -469.6008 -385.1853 50837.7964 3.1119 2.9734
ENERGY: 245000 2.9058 4.0514 6.8830 0.0000 -20423.5928 2919.1676 0.0000 0.0000 2433.2524 -15057.3325 237.9457 -17490.5849 -15052.8921 239.7338 -429.2458 -330.7792 50987.9527 1.1345 1.5203
ENERGY: 255000 3.9418 6.8230 7.7485 0.0000 -20397.6034 2952.0083 0.0000 0.0000 2457.1333 -14969.9486 240.2809 -17427.0819 -14965.7470 240.5816 83.0076 175.0785 50524.8260 -1.4952 -1.9584
ENERGY: 265000 2.8270 6.7885 6.8611 0.0000 -20521.8906 2936.8776 0.0000 0.0000 2454.2190 -15114.3173 239.9960 -17568.5363 -15112.0418 239.1435 -220.2331 -149.5855 50566.5352 3.7645 2.9595
ENERGY: 275000 2.0993 5.2104 7.6534 0.0000 -20514.0479 3006.3816 0.0000 0.0000 2461.5505 -15031.1527 240.7129 -17492.7032 -15024.7142 240.7587 108.2483 150.3603 50703.6346 -2.9121 -2.6453
TCL: Running 50000 steps at 270 kelvin.
TCL: Setting parameter langevinTemp to 270
TCL: Running for 50000 steps
ETITLE: TS BOND ANGLE DIHED IMPRP ELECT VDW BOUNDARY MISC KINETIC TOTAL TEMP POTENTIAL TOTAL3 TEMPAVG PRESSURE GPRESSURE VOLUME PRESSAVG GPRESSAVG
ENERGY: 275000 2.0993 5.2104 7.6534 0.0000 -20514.0478 3006.3816 0.0000 0.0000 2460.3429 -15032.3603 240.5948 -17492.7032 -15029.4477 240.5948 70.1365 151.9543 50703.6346 70.1365 151.9543
ENERGY: 285000 3.7564 3.6112 6.1516 0.0000 -19696.3815 2726.4199 0.0000 0.0000 2733.4617 -14222.9808 267.3029 -16956.4425 -14219.6171 269.4446 -311.0064 -229.1914 51916.6400 6.6032 5.5178
ENERGY: 295000 3.1797 5.8723 16.6544 0.0000 -19513.6301 2669.3907 0.0000 0.0000 2764.5437 -14053.9893 270.3423 -16818.5329 -14047.7895 270.7506 -402.7382 -302.2478 52010.1072 5.4802 5.1031
ENERGY: 305000 1.8132 8.5058 9.9299 0.0000 -19528.3197 2732.8915 0.0000 0.0000 2724.3846 -14050.7947 266.4152 -16775.1793 -14042.0985 269.3392 199.4090 220.6819 51273.2335 1.9118 1.4495
ENERGY: 315000 1.9881 7.9883 6.7032 0.0000 -19551.4342 2684.3454 0.0000 0.0000 2771.6198 -14078.7895 271.0343 -16850.4092 -14071.5568 270.0516 -126.2725 -69.3897 51182.6108 1.6289 1.9422
ENERGY: 325000 2.4755 7.4218 8.3105 0.0000 -19489.9100 2667.9179 0.0000 0.0000 2767.3720 -14036.4121 270.6189 -16803.7841 -14030.9568 270.2837 -295.8552 -187.9896 51415.0675 7.1028 6.6243
TCL: Running 1000000 steps at 300 kelvin.
TCL: Setting parameter langevinTemp to 300
TCL: Running for 1000000 steps
ETITLE: TS BOND ANGLE DIHED IMPRP ELECT VDW BOUNDARY MISC KINETIC TOTAL TEMP POTENTIAL TOTAL3 TEMPAVG PRESSURE GPRESSURE VOLUME PRESSAVG GPRESSAVG
ENERGY: 325000 2.4755 7.4218 8.3105 0.0000 -19489.9100 2667.9179 0.0000 0.0000 2766.0134 -14037.7707 270.4861 -16803.7841 -14033.5123 270.4861 -280.9039 -187.3306 51415.0675 -280.9039 -187.3306
ENERGY: 525000 5.1550 10.3489 7.3583 0.0000 -18811.6984 2586.8869 0.0000 0.0000 3083.9684 -13117.9808 301.5786 -16201.9493 -13110.4363 300.3465 247.1041 316.9414 52746.1124 4.3159 4.7670
ENERGY: 725000 3.1885 6.5593 6.6798 0.0000 -18749.9723 2524.6233 0.0000 0.0000 3032.3106 -13176.6108 296.5270 -16208.9214 -13167.5897 299.6636 -119.0991 -76.0121 53397.7400 1.0977 1.0353
ENERGY: 925000 4.0143 7.6898 8.6035 0.0000 -18654.9099 2536.2410 0.0000 0.0000 3090.0224 -13008.3390 302.1706 -16098.3614 -13004.4717 298.9505 432.4141 493.9230 52249.3575 6.6022 6.3710
ENERGY: 1125000 3.1005 11.0461 8.6275 0.0000 -18559.6555 2511.4818 0.0000 0.0000 3040.4595 -12984.9401 297.3239 -16025.3997 -12975.9789 299.7438 32.4919 96.3255 53506.8265 2.7871 2.7743
ENERGY: 1325000 2.8900 5.5139 13.4677 0.0000 -18562.0560 2489.9378 0.0000 0.0000 2952.2316 -13098.0149 288.6962 -16050.2465 -13091.0235 301.7798 178.8092 272.6225 52422.2538 5.3684 5.8990
TCL: Exiting due to exit command.
