Info: SIMULATION PARAMETERS:
Info: TIMESTEP               2
Info: NUMBER OF STEPS        0
Info: STEPS PER CYCLE        10
Info: PERIODIC CELL BASIS 1  41.545 0 0
Info: PERIODIC CELL BASIS 2  0 39.757 0
Info: PERIODIC CELL BASIS 3  0 0 42.04
Info: PERIODIC CELL CENTER   0 0 0
Info: WRAPPING WATERS AROUND PERIODIC BOUNDARIES ON OUTPUT.
Info: WRAPPING ALL CLUSTERS AROUND PERIODIC BOUNDARIES ON OUTPUT.
Info: FIRST LDB TIMESTEP     50
Info: LAST LDB TIMESTEP     -1
Info: HOM BACKGROUND SCALING 1
Info: PME BACKGROUND SCALING 1
Info: MIN ATOMS PER PATCH    40
Info: EMPTY PATCH LOAD       40 ATOMS
Info: INITIAL TEMPERATURE    300
Info: CENTER OF MASS MOVING INITIALLY? NO
Info: DIELECTRIC             1
Info: EXCLUDE                SCALED ONE-FOUR
Info: 1-4 ELECTROSTATICS SCALED BY 0.833333
Info: MODIFIED 1-4 VDW PARAMETERS WILL BE USED
Info: DCD FILENAME           mobley_6358463_min.dcd
Info: DCD FREQUENCY          5000
Info: DCD FIRST STEP         5000
Info: DCD FILE WILL CONTAIN UNIT CELL DATA
Info: XST FILENAME           mobley_6358463_min.xst
Info: XST FREQUENCY          5000
Info: NO VELOCITY DCD OUTPUT
Info: NO FORCE DCD OUTPUT
Info: OUTPUT FILENAME        mobley_6358463_min
Info: BINARY OUTPUT FILES WILL BE USED
Info: RESTART FILENAME       mobley_6358463_min.restart
Info: RESTART FREQUENCY      5000
Info: BINARY RESTART FILES WILL BE USED
Info: CUTOFF                 9
Info: PAIRLIST DISTANCE      11
Info: PAIRLIST SHRINK RATE   0.01
Info: PAIRLIST GROW RATE     0.01
Info: PAIRLIST TRIGGER       0.3
Info: PAIRLISTS PER CYCLE    2
Info: PAIRLISTS ENABLED
Info: MARGIN                 8
Info: HYDROGEN GROUP CUTOFF  2.5
Info: PATCH DIMENSION        21.5
Info: ENERGY OUTPUT STEPS    5000
Info: ENERGY EVALUATION STEPS    5000
Info: OUTPUT ENERGY PRECISION 4
Info: CROSSTERM ENERGY INCLUDED IN DIHEDRAL
Info: TIMING OUTPUT STEPS    50000
Info: PRESSURE OUTPUT STEPS  5000
Info: LANGEVIN DYNAMICS ACTIVE
Info: LANGEVIN TEMPERATURE   300
Info: LANGEVIN USING BBK INTEGRATOR
Info: LANGEVIN DAMPING COEFFICIENT IS 1 INVERSE PS
Info: LANGEVIN DYNAMICS APPLIED TO HYDROGENS
Info: LANGEVIN PISTON PRESSURE CONTROL ACTIVE
Info:        TARGET PRESSURE IS 1.01325 BAR
Info:     OSCILLATION PERIOD IS 50 FS
Info:             DECAY TIME IS 25 FS
Info:     PISTON TEMPERATURE IS 300 K
Info:       PRESSURE CONTROL IS GROUP-BASED
Info:    INITIAL STRAIN RATE IS 0 0 0
Info:       CELL FLUCTUATION IS ISOTROPIC
Info: PARTICLE MESH EWALD (PME) ACTIVE
Info: PME TOLERANCE               1e-06
Info: PME EWALD COEFFICIENT       0.348832
Info: PME INTERPOLATION ORDER     4
Info: PME GRID DIMENSIONS         44 40 44
Info: PME MAXIMUM GRID SPACING    1
Info: FULL ELECTROSTATIC EVALUATION FREQUENCY      2
Info: USING VERLET I (r-RESPA) MTS SCHEME.
Info: C1 SPLITTING OF LONG RANGE ELECTROSTATICS
Info: PLACING ATOMS IN PATCHES BY HYDROGEN GROUPS
Info: RIGID BONDS TO HYDROGEN : ALL
Info:         ERROR TOLERANCE : 1e-08
Info:          MAX ITERATIONS : 100
Info: RIGID WATER USING SETTLE ALGORITHM
Info: RANDOM NUMBER SEED     1741382349
Info: USE HYDROGEN BONDS?    NO
Info: Using AMBER format force field!
Info: AMBER PARM FILE        mobley_6358463.prmtop
Info: COORDINATE PDB         mobley_6358463.pdb
Info: Exclusions will be read from PARM file!
Info: SCNB (VDW SCALING)     2
Info: USING ARITHMETIC MEAN TO COMBINE L-J SIGMA PARAMETERS
Info: SUMMARY OF PARAMETERS:
Info: 6 BONDS
Info: 5 ANGLES
Info:   5 HARMONIC
Info:   0 COSINE-BASED
Info: 3 DIHEDRAL
Info: 0 IMPROPER
Info: 0 CROSSTERM
Info: 0 VDW
Info: 21 VDW_PAIRS
Info: 0 NBTHOLE_PAIRS
Info: STRUCTURE SUMMARY:
Info: 5067 ATOMS
Info: 5067 BONDS
Info: 30 ANGLES
Info: 42 DIHEDRALS
Info: 0 IMPROPERS
Info: 0 CROSSTERMS
Info: 5130 EXCLUSIONS
Info: 5053 RIGID BONDS
Info: 10148 DEGREES OF FREEDOM
Info: 1697 HYDROGEN GROUPS
Info: 3 ATOMS IN LARGEST HYDROGEN GROUP
Info: 1697 MIGRATION GROUPS
Info: 3 ATOMS IN LARGEST MIGRATION GROUP
Info: TOTAL MASS = 30535 amu
Info: TOTAL CHARGE = 0.000300027 e
Info: MASS DENSITY = 0.730235 g/cm^3
Info: ATOM DENSITY = 0.0729719 atoms/A^3
Info: ADDED 0 IMPLICIT EXCLUSIONS
Info: NONBONDED TABLE R-SQUARED SPACING: 0.0625
Info: NONBONDED TABLE SIZE: 705 POINTS
Info: REMOVING COM VELOCITY 0.0470081 0.142363 0.0486171
TCL: Minimizing for 2000 steps
ETITLE: TS BOND ANGLE DIHED IMPRP ELECT VDW BOUNDARY MISC KINETIC TOTAL TEMP POTENTIAL TOTAL3 TEMPAVG PRESSURE GPRESSURE VOLUME PRESSAVG GPRESSAVG
ENERGY: 0 0.6323 1.1651 0.0001 0.0000 -15854.5964 1841.3847 0.0000 0.0000 0.0000 -14011.4142 0.0000 -14011.4142 -14011.4142 0.0000 11450.8172 -15880.6158 69437.6599 11450.8172 -15880.6158
ENERGY: 400 6.1657 5.8879 0.2820 0.0000 -21310.8195 3120.1757 0.0000 0.0000 0.0000 -18178.3083 0.0000 -18178.3083 -18178.3083 0.0000 16053.8755 16203.4123 69437.6599 16053.8755 16203.4123
ENERGY: 800 2.0958 2.1867 0.3087 0.0000 -22266.6871 3519.7004 0.0000 0.0000 0.0000 -18742.3955 0.0000 -18742.3955 -18742.3955 0.0000 17814.8561 17951.5510 69437.6599 17814.8561 17951.5510
ENERGY: 1200 1.6224 1.6974 0.0753 0.0000 -22753.6397 3736.2718 0.0000 0.0000 0.0000 -19013.9729 0.0000 -19013.9729 -19013.9729 0.0000 18862.0113 18976.7267 69437.6599 18862.0113 18976.7267
ENERGY: 1600 1.5955 1.6394 0.0890 0.0000 -22955.8457 3827.8457 0.0000 0.0000 0.0000 -19124.6762 0.0000 -19124.6762 -19124.6762 0.0000 19292.5875 19396.7606 69437.6599 19292.5875 19396.7606
ENERGY: 2000 1.5586 1.4896 0.0416 0.0000 -23135.1019 3911.5864 0.0000 0.0000 0.0000 -19220.4258 0.0000 -19220.4258 -19220.4258 0.0000 19693.6693 19794.4583 69437.6599 19693.6693 19794.4583
TCL: Exiting due to exit command.
Info: NAMD 3.0.1 for Linux-x86_64-multicore
Info: Please visit http://www.ks.uiuc.edu/Research/namd/
Info: for updates, documentation, and support information.
Info: Please cite Phillips et al., J. Chem. Phys. 153:044130 (2020) doi:10.1063/5.0014475
Info: in all publications reporting results obtained with NAMD.
Info: Based on Charm++/Converse 80000 for multicore-linux-x86_64-gcc
Info: Built Mon Oct 14 11:11:06 CDT 2024 by dhardy on athine.ks.uiuc.edu
Info: 1 NAMD  3.0.1  Linux-x86_64-multicore  16    k006  z5358697
Info: Running on 16 processors, 1 nodes, 1 physical nodes.
Info: CPU topology information available.
Info: Charm++/Converse parallel runtime startup completed at 0.0104086 s
Info: 1043.45 MB of memory in use based on /proc/self/stat
Info: Configuration file is mobley_6358463_equil.namd
Info: Working in the current directory /srv/scratch/z5358697/prod_prep_8/6358463
TCL: Running 25000 steps at 30 kelvin.
TCL: Suspending until startup complete.
Info: SIMULATION PARAMETERS:
Info: TIMESTEP               2
Info: NUMBER OF STEPS        0
Info: STEPS PER CYCLE        10
Info: PERIODIC CELL BASIS 1  41.545 0 0
Info: PERIODIC CELL BASIS 2  0 39.757 0
Info: PERIODIC CELL BASIS 3  0 0 42.04
Info: PERIODIC CELL CENTER   0 0 0
Info: WRAPPING WATERS AROUND PERIODIC BOUNDARIES ON OUTPUT.
Info: WRAPPING ALL CLUSTERS AROUND PERIODIC BOUNDARIES ON OUTPUT.
Info: FIRST LDB TIMESTEP     50
Info: LAST LDB TIMESTEP     -1
Info: HOM BACKGROUND SCALING 1
Info: PME BACKGROUND SCALING 1
Info: MIN ATOMS PER PATCH    40
Info: EMPTY PATCH LOAD       40 ATOMS
Info: INITIAL TEMPERATURE    300
Info: CENTER OF MASS MOVING INITIALLY? NO
Info: DIELECTRIC             1
Info: EXCLUDE                SCALED ONE-FOUR
Info: 1-4 ELECTROSTATICS SCALED BY 0.833333
Info: MODIFIED 1-4 VDW PARAMETERS WILL BE USED
Info: DCD FILENAME           mobley_6358463_equil.dcd
Info: DCD FREQUENCY          5000
Info: DCD FIRST STEP         5000
Info: DCD FILE WILL CONTAIN UNIT CELL DATA
Info: XST FILENAME           mobley_6358463_equil.xst
Info: XST FREQUENCY          5000
Info: NO VELOCITY DCD OUTPUT
Info: NO FORCE DCD OUTPUT
Info: OUTPUT FILENAME        mobley_6358463_equil
Info: BINARY OUTPUT FILES WILL BE USED
Info: RESTART FILENAME       mobley_6358463_equil.restart
Info: RESTART FREQUENCY      5000
Info: BINARY RESTART FILES WILL BE USED
Info: CUTOFF                 9
Info: PAIRLIST DISTANCE      11
Info: PAIRLIST SHRINK RATE   0.01
Info: PAIRLIST GROW RATE     0.01
Info: PAIRLIST TRIGGER       0.3
Info: PAIRLISTS PER CYCLE    2
Info: PAIRLISTS ENABLED
Info: MARGIN                 8
Info: HYDROGEN GROUP CUTOFF  2.5
Info: PATCH DIMENSION        21.5
Info: ENERGY OUTPUT STEPS    5000
Info: ENERGY EVALUATION STEPS    5000
Info: OUTPUT ENERGY PRECISION 4
Info: CROSSTERM ENERGY INCLUDED IN DIHEDRAL
Info: TIMING OUTPUT STEPS    50000
Info: PRESSURE OUTPUT STEPS  5000
Info: LANGEVIN DYNAMICS ACTIVE
Info: LANGEVIN TEMPERATURE   30
Info: LANGEVIN USING BBK INTEGRATOR
Info: LANGEVIN DAMPING COEFFICIENT IS 1 INVERSE PS
Info: LANGEVIN DYNAMICS APPLIED TO HYDROGENS
Info: LANGEVIN PISTON PRESSURE CONTROL ACTIVE
Info:        TARGET PRESSURE IS 1.01325 BAR
Info:     OSCILLATION PERIOD IS 50 FS
Info:             DECAY TIME IS 25 FS
Info:     PISTON TEMPERATURE IS 300 K
Info:       PRESSURE CONTROL IS GROUP-BASED
Info:    INITIAL STRAIN RATE IS 0 0 0
Info:       CELL FLUCTUATION IS ISOTROPIC
Info: PARTICLE MESH EWALD (PME) ACTIVE
Info: PME TOLERANCE               1e-06
Info: PME EWALD COEFFICIENT       0.348832
Info: PME INTERPOLATION ORDER     4
Info: PME GRID DIMENSIONS         44 40 44
Info: PME MAXIMUM GRID SPACING    1
Info: FULL ELECTROSTATIC EVALUATION FREQUENCY      2
Info: USING VERLET I (r-RESPA) MTS SCHEME.
Info: C1 SPLITTING OF LONG RANGE ELECTROSTATICS
Info: PLACING ATOMS IN PATCHES BY HYDROGEN GROUPS
Info: RIGID BONDS TO HYDROGEN : ALL
Info:         ERROR TOLERANCE : 1e-08
Info:          MAX ITERATIONS : 100
Info: RIGID WATER USING SETTLE ALGORITHM
Info: RANDOM NUMBER SEED     1741382366
Info: USE HYDROGEN BONDS?    NO
Info: Using AMBER format force field!
Info: AMBER PARM FILE        mobley_6358463.prmtop
Info: COORDINATE PDB         mobley_6358463.pdb
Info: Exclusions will be read from PARM file!
Info: SCNB (VDW SCALING)     2
Info: USING ARITHMETIC MEAN TO COMBINE L-J SIGMA PARAMETERS
Info: BINARY COORDINATES     mobley_6358463_min.coor
Info: SUMMARY OF PARAMETERS:
Info: 6 BONDS
Info: 5 ANGLES
Info:   5 HARMONIC
Info:   0 COSINE-BASED
Info: 3 DIHEDRAL
Info: 0 IMPROPER
Info: 0 CROSSTERM
Info: 0 VDW
Info: 21 VDW_PAIRS
Info: 0 NBTHOLE_PAIRS
Info: STRUCTURE SUMMARY:
Info: 5067 ATOMS
Info: 5067 BONDS
Info: 30 ANGLES
Info: 42 DIHEDRALS
Info: 0 IMPROPERS
Info: 0 CROSSTERMS
Info: 5130 EXCLUSIONS
Info: 5053 RIGID BONDS
Info: 10148 DEGREES OF FREEDOM
Info: 1697 HYDROGEN GROUPS
Info: 3 ATOMS IN LARGEST HYDROGEN GROUP
Info: 1697 MIGRATION GROUPS
Info: 3 ATOMS IN LARGEST MIGRATION GROUP
Info: TOTAL MASS = 30535 amu
Info: TOTAL CHARGE = 0.000300027 e
Info: MASS DENSITY = 0.730235 g/cm^3
Info: ATOM DENSITY = 0.0729719 atoms/A^3
Info: ADDED 0 IMPLICIT EXCLUSIONS
Info: NONBONDED TABLE R-SQUARED SPACING: 0.0625
Info: NONBONDED TABLE SIZE: 705 POINTS
Info: REMOVING COM VELOCITY -0.112431 0.0593703 0.0455885
TCL: Running for 25000 steps
ETITLE: TS BOND ANGLE DIHED IMPRP ELECT VDW BOUNDARY MISC KINETIC TOTAL TEMP POTENTIAL TOTAL3 TEMPAVG PRESSURE GPRESSURE VOLUME PRESSAVG GPRESSAVG
ENERGY: 0 1.5586 1.4896 0.0416 0.0000 -23135.1019 3911.5864 0.0000 0.0000 3081.3534 -16139.0724 305.5987 -19220.4258 -16138.4563 305.5987 -189.8654 -154.1589 69437.6599 -189.8654 -154.1589
ENERGY: 5000 2.6076 2.0903 0.1145 0.0000 -24213.9169 4117.4604 0.0000 0.0000 308.3627 -19783.2815 30.5824 -20091.6442 -19782.6303 47.8587 -554.9558 -487.6292 49483.3096 -4.1839 -4.0666
ENERGY: 10000 2.5646 2.1003 0.3850 0.0000 -24165.9251 4053.9974 0.0000 0.0000 304.6357 -19802.2422 30.2128 -20106.8779 -19801.9008 30.0009 -913.2006 -847.5511 49647.5991 2.0768 2.1473
ENERGY: 15000 1.1048 2.5524 0.2383 0.0000 -24479.3896 4355.6313 0.0000 0.0000 303.6683 -19816.1946 30.1168 -20119.8629 -19815.3597 29.7882 621.4142 682.5778 49161.3860 6.1540 6.2003
ENERGY: 20000 2.3280 1.7601 0.3230 0.0000 -24317.1144 4187.8029 0.0000 0.0000 300.6558 -19824.2447 29.8181 -20124.9005 -19823.9435 30.1337 -291.6362 -242.9694 49576.0233 5.4902 5.4511
ENERGY: 25000 2.3528 1.6958 0.0654 0.0000 -24484.9526 4348.2582 0.0000 0.0000 298.5450 -19834.0354 29.6087 -20132.5804 -19833.4138 30.2224 496.1459 557.5673 49274.4267 2.4756 2.5113
TCL: Running 25000 steps at 60 kelvin.
TCL: Setting parameter langevinTemp to 60
TCL: Running for 25000 steps
ETITLE: TS BOND ANGLE DIHED IMPRP ELECT VDW BOUNDARY MISC KINETIC TOTAL TEMP POTENTIAL TOTAL3 TEMPAVG PRESSURE GPRESSURE VOLUME PRESSAVG GPRESSAVG
ENERGY: 25000 2.3528 1.6958 0.0654 0.0000 -24484.9526 4348.2582 0.0000 0.0000 298.3956 -19834.1848 29.5939 -20132.5804 -19833.5375 29.5939 496.8898 557.4652 49274.4267 496.8898 557.4652
ENERGY: 30000 3.1981 2.2456 0.4008 0.0000 -23972.9594 4106.3791 0.0000 0.0000 587.9556 -19272.7801 58.3115 -19860.7358 -19270.8137 57.0770 -102.3072 -22.4051 49468.2023 3.3197 3.3024
ENERGY: 35000 1.8955 2.2420 0.2933 0.0000 -24058.4145 4127.3017 0.0000 0.0000 608.3076 -19318.3745 60.3300 -19926.6821 -19316.1449 60.4032 -72.8228 -3.9490 49241.8538 6.3918 6.5100
ENERGY: 40000 2.9956 2.1335 0.4489 0.0000 -23943.5524 3987.2999 0.0000 0.0000 600.8741 -19349.8003 59.5928 -19950.6744 -19347.9449 60.2899 -835.7273 -762.2948 49486.3297 1.4761 1.4962
ENERGY: 45000 2.4525 2.0412 1.8032 0.0000 -24000.6706 4022.0942 0.0000 0.0000 595.2061 -19377.0734 59.0306 -19972.2795 -19375.5587 60.2200 -627.6590 -590.8636 49303.4980 1.8268 1.5299
ENERGY: 50000 1.2961 3.5283 0.6157 0.0000 -24275.9061 4288.8475 0.0000 0.0000 612.5554 -19369.0630 60.7513 -19981.6184 -19367.4853 60.1710 690.3822 746.1268 48947.2825 -1.8454 -2.0754
TCL: Running 25000 steps at 90 kelvin.
TCL: Setting parameter langevinTemp to 90
TCL: Running for 25000 steps
ETITLE: TS BOND ANGLE DIHED IMPRP ELECT VDW BOUNDARY MISC KINETIC TOTAL TEMP POTENTIAL TOTAL3 TEMPAVG PRESSURE GPRESSURE VOLUME PRESSAVG GPRESSAVG
ENERGY: 50000 1.2961 3.5283 0.6157 0.0000 -24275.9061 4288.8475 0.0000 0.0000 612.2551 -19369.3633 60.7215 -19981.6184 -19368.1064 60.7215 692.2846 746.2242 48947.2825 692.2846 746.2242
ENERGY: 55000 2.3849 3.9971 0.3278 0.0000 -23739.7959 4069.4295 0.0000 0.0000 901.7831 -18761.8736 89.4359 -19663.6567 -18759.5859 86.8025 205.4187 271.0248 49386.3821 1.1032 0.8335
ENERGY: 60000 3.7938 1.9078 1.0286 0.0000 -23726.9688 4010.4595 0.0000 0.0000 920.6709 -18789.1082 91.3092 -19709.7791 -18787.9468 90.7992 -180.8638 -122.7066 49525.4545 4.4246 4.5091
ENERGY: 65000 2.6417 2.1327 0.5181 0.0000 -23681.2901 3935.1849 0.0000 0.0000 915.0055 -18825.8072 90.7473 -19740.8127 -18822.7072 90.2576 -649.4912 -578.7170 49634.8590 6.3548 6.4674
ENERGY: 70000 1.7945 2.8450 0.3138 0.0000 -23780.9328 4001.6676 0.0000 0.0000 886.9780 -18887.3338 87.9676 -19774.3118 -18885.2953 90.0267 -422.4431 -325.3570 49436.1623 0.1772 0.1014
ENERGY: 75000 3.0299 2.8042 0.5368 0.0000 -23729.7281 3924.8043 0.0000 0.0000 927.8624 -18870.6904 92.0224 -19798.5528 -18868.1994 89.6529 -754.5210 -666.4010 49456.5767 6.4251 6.4108
TCL: Running 25000 steps at 120 kelvin.
TCL: Setting parameter langevinTemp to 120
TCL: Running for 25000 steps
ETITLE: TS BOND ANGLE DIHED IMPRP ELECT VDW BOUNDARY MISC KINETIC TOTAL TEMP POTENTIAL TOTAL3 TEMPAVG PRESSURE GPRESSURE VOLUME PRESSAVG GPRESSAVG
ENERGY: 75000 3.0299 2.8042 0.5368 0.0000 -23729.7281 3924.8043 0.0000 0.0000 927.4086 -18871.1442 91.9774 -19798.5528 -18869.1879 91.9774 -738.0456 -666.8721 49456.5767 -738.0456 -666.8721
ENERGY: 80000 3.4086 3.6028 2.4686 0.0000 -23398.0858 3922.3242 0.0000 0.0000 1238.8310 -18227.4506 122.8632 -19466.2816 -18223.7337 116.9840 -57.4614 22.8796 49547.6871 -1.1423 -1.5374
ENERGY: 85000 1.9526 4.2218 1.2145 0.0000 -23397.2171 3903.6766 0.0000 0.0000 1231.0500 -18255.1015 122.0916 -19486.1515 -18251.6100 120.3140 -125.4850 -68.7904 49596.4367 -1.7257 -1.4976
ENERGY: 90000 3.2404 2.3070 1.8782 0.0000 -23480.3359 3956.2335 0.0000 0.0000 1225.6417 -18291.0352 121.5552 -19516.6769 -18287.6608 120.5479 37.8632 79.4477 49442.4153 0.8324 0.6680
ENERGY: 95000 3.4330 2.4146 1.4824 0.0000 -23605.9520 4088.0404 0.0000 0.0000 1249.5537 -18261.0279 123.9267 -19510.5815 -18258.0160 120.3018 610.7186 678.1076 49416.3417 -3.8353 -4.1360
ENERGY: 100000 2.7891 4.7041 2.0213 0.0000 -23488.1510 3910.5906 0.0000 0.0000 1204.1816 -18363.8643 119.4268 -19568.0459 -18360.8359 120.0712 -224.8046 -207.3554 49403.4931 4.3867 4.5576
TCL: Running 25000 steps at 150 kelvin.
TCL: Setting parameter langevinTemp to 150
TCL: Running for 25000 steps
ETITLE: TS BOND ANGLE DIHED IMPRP ELECT VDW BOUNDARY MISC KINETIC TOTAL TEMP POTENTIAL TOTAL3 TEMPAVG PRESSURE GPRESSURE VOLUME PRESSAVG GPRESSAVG
ENERGY: 100000 2.7891 4.7041 2.0213 0.0000 -23488.1510 3910.5906 0.0000 0.0000 1203.5537 -18364.4922 119.3646 -19568.0459 -18362.0050 119.3646 -265.6534 -207.2099 49403.4931 -265.6534 -207.2099
ENERGY: 105000 4.0433 3.6583 0.5598 0.0000 -22866.7963 3687.0718 0.0000 0.0000 1515.2339 -17656.2292 150.2760 -19171.4631 -17652.3791 146.5044 -538.8582 -486.2757 49753.2762 -0.2877 -0.1104
ENERGY: 110000 5.4679 4.7214 1.4361 0.0000 -22876.5616 3703.7977 0.0000 0.0000 1507.5687 -17653.5698 149.5158 -19161.1384 -17650.9089 150.3053 -396.3813 -340.9386 49333.9254 5.2110 4.7681
ENERGY: 115000 1.4104 6.3021 0.7363 0.0000 -22998.5652 3809.1568 0.0000 0.0000 1532.2136 -17648.7459 151.9600 -19180.9595 -17646.0448 150.5295 128.7748 192.7233 49445.4253 3.0467 3.7983
ENERGY: 120000 4.8606 4.7652 0.6048 0.0000 -23031.2990 3793.9079 0.0000 0.0000 1505.9533 -17721.2072 149.3556 -19227.1604 -17717.4898 149.9728 40.5015 93.4769 49261.0127 3.7158 3.5739
ENERGY: 125000 3.8110 5.1821 2.2293 0.0000 -22967.2047 3727.6110 0.0000 0.0000 1510.4155 -17717.9558 149.7981 -19228.3712 -17714.8251 149.0857 -353.1568 -303.8763 49260.0991 4.0937 4.2471
TCL: Running 50000 steps at 180 kelvin.
TCL: Setting parameter langevinTemp to 180
TCL: Running for 50000 steps
ETITLE: TS BOND ANGLE DIHED IMPRP ELECT VDW BOUNDARY MISC KINETIC TOTAL TEMP POTENTIAL TOTAL3 TEMPAVG PRESSURE GPRESSURE VOLUME PRESSAVG GPRESSAVG
ENERGY: 125000 3.8110 5.1821 2.2293 0.0000 -22967.2047 3727.6110 0.0000 0.0000 1509.6607 -17718.7105 149.7233 -19228.3712 -17715.8239 149.7233 -358.4725 -304.3985 49260.0991 -358.4725 -304.3985
ENERGY: 135000 3.4107 8.0080 1.6189 0.0000 -22297.8664 3512.5052 0.0000 0.0000 1797.9422 -16974.3814 178.3141 -18772.3236 -16969.9891 180.2685 -558.2168 -512.5662 49813.1756 -3.2442 -3.5257
ENERGY: 145000 3.8004 4.2653 1.7062 0.0000 -22329.1786 3508.1482 0.0000 0.0000 1824.8736 -16986.3850 180.9851 -18811.2586 -16981.8765 181.1049 -693.9933 -650.9325 49751.8823 2.8688 2.9912
ENERGY: 155000 5.0787 4.8575 0.8199 0.0000 -22490.6148 3648.9501 0.0000 0.0000 1773.9132 -17056.9954 175.9310 -18830.9086 -17052.9957 180.4412 62.6843 149.8989 49482.8076 0.9463 0.5265
ENERGY: 165000 3.5333 3.9710 0.7404 0.0000 -22372.1587 3542.4260 0.0000 0.0000 1815.3395 -17006.1485 180.0395 -18821.4880 -17001.9126 179.3142 -314.0764 -291.5839 49556.9153 4.6094 4.6463
ENERGY: 175000 7.3986 2.7935 1.4130 0.0000 -22494.7089 3614.0643 0.0000 0.0000 1822.2926 -17046.7469 180.7291 -18869.0395 -17044.7946 181.1226 -182.3975 -95.3288 49300.0131 -7.5127 -7.1692
TCL: Running 50000 steps at 210 kelvin.
TCL: Setting parameter langevinTemp to 210
TCL: Running for 50000 steps
ETITLE: TS BOND ANGLE DIHED IMPRP ELECT VDW BOUNDARY MISC KINETIC TOTAL TEMP POTENTIAL TOTAL3 TEMPAVG PRESSURE GPRESSURE VOLUME PRESSAVG GPRESSAVG
ENERGY: 175000 7.3986 2.7935 1.4130 0.0000 -22494.7089 3614.0643 0.0000 0.0000 1821.3906 -17047.6489 180.6396 -18869.0395 -17044.4751 180.6396 -159.4400 -95.8327 49300.0131 -159.4400 -95.8327
ENERGY: 185000 4.0056 6.4247 1.1767 0.0000 -21452.5942 3391.8628 0.0000 0.0000 2176.0194 -15873.1051 215.8106 -18049.1245 -15868.6451 209.8669 774.6765 837.6061 49446.9816 2.0799 2.1194
ENERGY: 195000 2.9647 6.1582 1.2120 0.0000 -21511.2692 3408.0152 0.0000 0.0000 2121.8192 -15971.1000 210.4352 -18092.9192 -15968.7700 209.1974 732.4907 815.2536 49082.6957 0.2655 0.5192
ENERGY: 205000 3.8091 4.7146 2.4972 0.0000 -21340.4972 3256.9293 0.0000 0.0000 2142.6710 -15929.8759 212.5032 -18072.5469 -15926.0408 210.7064 -215.9930 -104.9509 49580.0294 -0.9660 -0.8861
ENERGY: 215000 4.2184 8.1341 2.2899 0.0000 -21440.9350 3424.4903 0.0000 0.0000 2135.6802 -15866.1222 211.8098 -18001.8024 -15860.5450 209.6100 762.2500 870.6424 49498.9337 6.7991 6.6451
ENERGY: 225000 3.5212 5.7062 2.1941 0.0000 -21264.1008 3213.2096 0.0000 0.0000 2104.0389 -15935.4308 208.6718 -18039.4697 -15931.3278 209.0947 -143.9455 -66.6094 49179.9902 1.7491 2.0080
TCL: Running 50000 steps at 240 kelvin.
TCL: Setting parameter langevinTemp to 240
TCL: Running for 50000 steps
ETITLE: TS BOND ANGLE DIHED IMPRP ELECT VDW BOUNDARY MISC KINETIC TOTAL TEMP POTENTIAL TOTAL3 TEMPAVG PRESSURE GPRESSURE VOLUME PRESSAVG GPRESSAVG
ENERGY: 225000 3.5212 5.7062 2.1941 0.0000 -21264.1008 3213.2096 0.0000 0.0000 2102.9888 -15936.4809 208.5676 -18039.4697 -15932.8205 208.5676 -137.7891 -65.9876 49179.9902 -137.7891 -65.9876
ENERGY: 235000 3.7944 6.3888 1.6469 0.0000 -20232.6872 2912.2975 0.0000 0.0000 2377.1432 -14931.4165 235.7574 -17308.5597 -14926.9143 238.6532 -322.2286 -234.4231 50128.7720 3.2734 3.0405
ENERGY: 245000 6.9589 4.6157 1.4863 0.0000 -20278.7562 2985.7879 0.0000 0.0000 2467.1247 -14812.7827 244.6814 -17279.9073 -14807.2689 240.5272 227.1085 299.8747 49616.0822 5.1444 4.8435
ENERGY: 255000 3.2881 8.7697 3.2957 0.0000 -19994.4464 2718.6808 0.0000 0.0000 2448.9200 -14811.4920 242.8760 -17260.4120 -14804.5741 240.4595 -1111.0991 -1002.2381 49918.2155 6.5826 6.0496
ENERGY: 265000 3.0787 5.3206 2.2302 0.0000 -20332.1403 2991.9059 0.0000 0.0000 2431.4237 -14898.1813 241.1407 -17329.6050 -14892.3341 241.5547 139.1099 299.2392 49609.5753 9.1110 9.4612
ENERGY: 275000 4.9509 3.3562 2.9791 0.0000 -20199.1847 2937.9939 0.0000 0.0000 2409.3482 -14840.5564 238.9514 -17249.9046 -14834.1461 240.2079 12.0933 88.7129 50139.9089 8.1781 7.9140
TCL: Running 50000 steps at 270 kelvin.
TCL: Setting parameter langevinTemp to 270
TCL: Running for 50000 steps
ETITLE: TS BOND ANGLE DIHED IMPRP ELECT VDW BOUNDARY MISC KINETIC TOTAL TEMP POTENTIAL TOTAL3 TEMPAVG PRESSURE GPRESSURE VOLUME PRESSAVG GPRESSAVG
ENERGY: 275000 4.9509 3.3562 2.9791 0.0000 -20199.1847 2937.9939 0.0000 0.0000 2408.1528 -14841.7518 238.8328 -17249.9046 -14838.1209 238.8328 2.9329 88.4872 50139.9089 2.9329 88.4872
ENERGY: 285000 5.4847 8.4300 1.5647 0.0000 -19477.5160 2819.8503 0.0000 0.0000 2698.7672 -13943.4191 267.6550 -16642.1863 -13938.4333 270.6327 534.6896 568.2231 50363.8079 -2.4542 -2.0315
ENERGY: 295000 6.6323 6.7987 1.8221 0.0000 -19266.8564 2726.6961 0.0000 0.0000 2700.4675 -13824.4397 267.8236 -16524.9072 -13821.5534 271.3723 200.1894 294.3042 50481.2760 -1.1955 -1.2780
ENERGY: 305000 7.0136 11.0885 3.6973 0.0000 -19346.3794 2665.3973 0.0000 0.0000 2769.5485 -13889.6342 274.6749 -16659.1827 -13884.6040 270.7383 -259.6614 -209.9553 51122.4050 3.2636 3.3655
ENERGY: 315000 6.3440 8.2465 2.4466 0.0000 -19484.8748 2803.7830 0.0000 0.0000 2613.9649 -14050.0898 259.2446 -16664.0547 -14045.3702 269.4148 134.4342 261.0360 50757.7630 3.3849 3.6833
ENERGY: 325000 6.0469 9.7790 2.1054 0.0000 -19535.1377 2814.6975 0.0000 0.0000 2734.4174 -13968.0915 271.1907 -16702.5089 -13961.9397 268.7352 274.5836 340.3233 50582.5024 -0.9461 -1.4134
TCL: Running 1000000 steps at 300 kelvin.
TCL: Setting parameter langevinTemp to 300
TCL: Running for 1000000 steps
ETITLE: TS BOND ANGLE DIHED IMPRP ELECT VDW BOUNDARY MISC KINETIC TOTAL TEMP POTENTIAL TOTAL3 TEMPAVG PRESSURE GPRESSURE VOLUME PRESSAVG GPRESSAVG
ENERGY: 325000 6.0469 9.7790 2.1054 0.0000 -19535.1377 2814.6975 0.0000 0.0000 2733.0465 -13969.4623 271.0547 -16702.5089 -13966.7472 271.0547 252.1828 340.0933 50582.5024 252.1828 340.0933
ENERGY: 525000 6.6311 3.7235 2.8758 0.0000 -18447.7962 2565.3071 0.0000 0.0000 3077.3127 -12791.9460 305.1979 -15869.2587 -12787.8515 301.2273 234.7501 317.2195 52789.5852 4.2241 3.8439
ENERGY: 725000 8.6188 7.3445 1.9590 0.0000 -18369.7850 2408.3207 0.0000 0.0000 2979.0494 -12964.4925 295.4525 -15943.5420 -12958.6727 299.8127 -491.8221 -450.4695 52310.9605 -3.8747 -3.2894
ENERGY: 925000 5.6998 9.6500 1.8176 0.0000 -18517.0113 2535.2116 0.0000 0.0000 3055.8755 -12908.7568 303.0718 -15964.6323 -12903.4000 301.2581 102.4250 198.9289 52308.0247 4.1447 4.2303
ENERGY: 1125000 8.5748 6.1752 4.6454 0.0000 -18308.1932 2389.9253 0.0000 0.0000 3068.4426 -12830.4300 304.3182 -15898.8726 -12821.3924 299.6378 -445.5800 -299.6371 51803.9495 5.5288 6.1374
ENERGY: 1325000 4.9303 8.0916 1.6275 0.0000 -18294.7135 2361.7262 0.0000 0.0000 2998.1151 -12920.2228 297.3433 -15918.3378 -12913.6601 299.1803 -731.8754 -678.8733 52331.9037 4.0888 4.7066
TCL: Exiting due to exit command.
