Info: SIMULATION PARAMETERS:
Info: TIMESTEP               2
Info: NUMBER OF STEPS        0
Info: STEPS PER CYCLE        10
Info: PERIODIC CELL BASIS 1  41.937 0 0
Info: PERIODIC CELL BASIS 2  0 42.118 0
Info: PERIODIC CELL BASIS 3  0 0 38.617
Info: PERIODIC CELL CENTER   0 0 0
Info: WRAPPING WATERS AROUND PERIODIC BOUNDARIES ON OUTPUT.
Info: WRAPPING ALL CLUSTERS AROUND PERIODIC BOUNDARIES ON OUTPUT.
Info: FIRST LDB TIMESTEP     50
Info: LAST LDB TIMESTEP     -1
Info: HOM BACKGROUND SCALING 1
Info: PME BACKGROUND SCALING 1
Info: MIN ATOMS PER PATCH    40
Info: EMPTY PATCH LOAD       40 ATOMS
Info: INITIAL TEMPERATURE    300
Info: CENTER OF MASS MOVING INITIALLY? NO
Info: DIELECTRIC             1
Info: EXCLUDE                SCALED ONE-FOUR
Info: 1-4 ELECTROSTATICS SCALED BY 0.833333
Info: MODIFIED 1-4 VDW PARAMETERS WILL BE USED
Info: DCD FILENAME           mobley_7039935_min.dcd
Info: DCD FREQUENCY          5000
Info: DCD FIRST STEP         5000
Info: DCD FILE WILL CONTAIN UNIT CELL DATA
Info: XST FILENAME           mobley_7039935_min.xst
Info: XST FREQUENCY          5000
Info: NO VELOCITY DCD OUTPUT
Info: NO FORCE DCD OUTPUT
Info: OUTPUT FILENAME        mobley_7039935_min
Info: BINARY OUTPUT FILES WILL BE USED
Info: RESTART FILENAME       mobley_7039935_min.restart
Info: RESTART FREQUENCY      5000
Info: BINARY RESTART FILES WILL BE USED
Info: CUTOFF                 9
Info: PAIRLIST DISTANCE      11
Info: PAIRLIST SHRINK RATE   0.01
Info: PAIRLIST GROW RATE     0.01
Info: PAIRLIST TRIGGER       0.3
Info: PAIRLISTS PER CYCLE    2
Info: PAIRLISTS ENABLED
Info: MARGIN                 8
Info: HYDROGEN GROUP CUTOFF  2.5
Info: PATCH DIMENSION        21.5
Info: ENERGY OUTPUT STEPS    5000
Info: ENERGY EVALUATION STEPS    5000
Info: OUTPUT ENERGY PRECISION 4
Info: CROSSTERM ENERGY INCLUDED IN DIHEDRAL
Info: TIMING OUTPUT STEPS    50000
Info: PRESSURE OUTPUT STEPS  5000
Info: LANGEVIN DYNAMICS ACTIVE
Info: LANGEVIN TEMPERATURE   300
Info: LANGEVIN USING BBK INTEGRATOR
Info: LANGEVIN DAMPING COEFFICIENT IS 1 INVERSE PS
Info: LANGEVIN DYNAMICS APPLIED TO HYDROGENS
Info: LANGEVIN PISTON PRESSURE CONTROL ACTIVE
Info:        TARGET PRESSURE IS 1.01325 BAR
Info:     OSCILLATION PERIOD IS 50 FS
Info:             DECAY TIME IS 25 FS
Info:     PISTON TEMPERATURE IS 300 K
Info:       PRESSURE CONTROL IS GROUP-BASED
Info:    INITIAL STRAIN RATE IS 0 0 0
Info:       CELL FLUCTUATION IS ISOTROPIC
Info: PARTICLE MESH EWALD (PME) ACTIVE
Info: PME TOLERANCE               1e-06
Info: PME EWALD COEFFICIENT       0.348832
Info: PME INTERPOLATION ORDER     4
Info: PME GRID DIMENSIONS         44 44 40
Info: PME MAXIMUM GRID SPACING    1
Info: FULL ELECTROSTATIC EVALUATION FREQUENCY      2
Info: USING VERLET I (r-RESPA) MTS SCHEME.
Info: C1 SPLITTING OF LONG RANGE ELECTROSTATICS
Info: PLACING ATOMS IN PATCHES BY HYDROGEN GROUPS
Info: RIGID BONDS TO HYDROGEN : ALL
Info:         ERROR TOLERANCE : 1e-08
Info:          MAX ITERATIONS : 100
Info: RIGID WATER USING SETTLE ALGORITHM
Info: RANDOM NUMBER SEED     1741386597
Info: USE HYDROGEN BONDS?    NO
Info: Using AMBER format force field!
Info: AMBER PARM FILE        mobley_7039935.prmtop
Info: COORDINATE PDB         mobley_7039935.pdb
Info: Exclusions will be read from PARM file!
Info: SCNB (VDW SCALING)     2
Info: USING ARITHMETIC MEAN TO COMBINE L-J SIGMA PARAMETERS
Info: SUMMARY OF PARAMETERS:
Info: 6 BONDS
Info: 4 ANGLES
Info:   4 HARMONIC
Info:   0 COSINE-BASED
Info: 3 DIHEDRAL
Info: 0 IMPROPER
Info: 0 CROSSTERM
Info: 0 VDW
Info: 21 VDW_PAIRS
Info: 0 NBTHOLE_PAIRS
Info: STRUCTURE SUMMARY:
Info: 4891 ATOMS
Info: 4892 BONDS
Info: 31 ANGLES
Info: 53 DIHEDRALS
Info: 0 IMPROPERS
Info: 0 CROSSTERMS
Info: 4963 EXCLUSIONS
Info: 4880 RIGID BONDS
Info: 9793 DEGREES OF FREEDOM
Info: 1635 HYDROGEN GROUPS
Info: 3 ATOMS IN LARGEST HYDROGEN GROUP
Info: 1635 MIGRATION GROUPS
Info: 3 ATOMS IN LARGEST MIGRATION GROUP
Info: TOTAL MASS = 29402.1 amu
Info: TOTAL CHARGE = 0.00019999 e
Info: MASS DENSITY = 0.715805 g/cm^3
Info: ATOM DENSITY = 0.0717058 atoms/A^3
Info: ADDED 0 IMPLICIT EXCLUSIONS
Info: NONBONDED TABLE R-SQUARED SPACING: 0.0625
Info: NONBONDED TABLE SIZE: 705 POINTS
Info: REMOVING COM VELOCITY -0.00949707 -0.1323 0.129507
TCL: Minimizing for 2000 steps
ETITLE: TS BOND ANGLE DIHED IMPRP ELECT VDW BOUNDARY MISC KINETIC TOTAL TEMP POTENTIAL TOTAL3 TEMPAVG PRESSURE GPRESSURE VOLUME PRESSAVG GPRESSAVG
ENERGY: 0 0.2023 0.4408 0.0001 0.0000 -15077.6913 1654.2208 0.0000 0.0000 0.0000 -13422.8272 0.0000 -13422.8272 -13422.8272 0.0000 10647.9568 -15766.6504 68209.3062 10647.9568 -15766.6504
ENERGY: 400 6.4660 3.4632 1.4223 0.0000 -20458.7699 2958.4312 0.0000 0.0000 0.0000 -17488.9873 0.0000 -17488.9873 -17488.9873 0.0000 15456.3953 15327.7171 68209.3062 15456.3953 15327.7171
ENERGY: 800 0.4777 0.7536 0.3917 0.0000 -21572.5154 3466.6521 0.0000 0.0000 0.0000 -18104.2403 0.0000 -18104.2403 -18104.2403 0.0000 17764.5444 17591.9337 68209.3062 17764.5444 17591.9337
ENERGY: 1200 3.8071 1.4181 0.3325 0.0000 -22027.5755 3690.9737 0.0000 0.0000 0.0000 -18331.0441 0.0000 -18331.0441 -18331.0441 0.0000 18834.8725 18610.0027 68209.3062 18834.8725 18610.0027
ENERGY: 1600 0.6628 0.3337 0.4821 0.0000 -22252.4113 3799.6669 0.0000 0.0000 0.0000 -18451.2657 0.0000 -18451.2657 -18451.2657 0.0000 19394.6278 19153.0151 68209.3062 19394.6278 19153.0151
ENERGY: 2000 0.5323 0.2907 0.3226 0.0000 -22365.7660 3851.2071 0.0000 0.0000 0.0000 -18513.4132 0.0000 -18513.4132 -18513.4132 0.0000 19630.0089 19381.3423 68209.3062 19630.0089 19381.3423
TCL: Exiting due to exit command.
Info: NAMD 3.0.1 for Linux-x86_64-multicore
Info: Please visit http://www.ks.uiuc.edu/Research/namd/
Info: for updates, documentation, and support information.
Info: Please cite Phillips et al., J. Chem. Phys. 153:044130 (2020) doi:10.1063/5.0014475
Info: in all publications reporting results obtained with NAMD.
Info: Based on Charm++/Converse 80000 for multicore-linux-x86_64-gcc
Info: Built Mon Oct 14 11:11:06 CDT 2024 by dhardy on athine.ks.uiuc.edu
Info: 1 NAMD  3.0.1  Linux-x86_64-multicore  16    k018  z5358697
Info: Running on 16 processors, 1 nodes, 1 physical nodes.
Info: CPU topology information available.
Info: Charm++/Converse parallel runtime startup completed at 0.00543166 s
Info: 1043.46 MB of memory in use based on /proc/self/stat
Info: Configuration file is mobley_7039935_equil.namd
Info: Working in the current directory /srv/scratch/z5358697/prod_prep_9/7039935
TCL: Running 25000 steps at 30 kelvin.
TCL: Suspending until startup complete.
Info: SIMULATION PARAMETERS:
Info: TIMESTEP               2
Info: NUMBER OF STEPS        0
Info: STEPS PER CYCLE        10
Info: PERIODIC CELL BASIS 1  41.937 0 0
Info: PERIODIC CELL BASIS 2  0 42.118 0
Info: PERIODIC CELL BASIS 3  0 0 38.617
Info: PERIODIC CELL CENTER   0 0 0
Info: WRAPPING WATERS AROUND PERIODIC BOUNDARIES ON OUTPUT.
Info: WRAPPING ALL CLUSTERS AROUND PERIODIC BOUNDARIES ON OUTPUT.
Info: FIRST LDB TIMESTEP     50
Info: LAST LDB TIMESTEP     -1
Info: HOM BACKGROUND SCALING 1
Info: PME BACKGROUND SCALING 1
Info: MIN ATOMS PER PATCH    40
Info: EMPTY PATCH LOAD       40 ATOMS
Info: INITIAL TEMPERATURE    300
Info: CENTER OF MASS MOVING INITIALLY? NO
Info: DIELECTRIC             1
Info: EXCLUDE                SCALED ONE-FOUR
Info: 1-4 ELECTROSTATICS SCALED BY 0.833333
Info: MODIFIED 1-4 VDW PARAMETERS WILL BE USED
Info: DCD FILENAME           mobley_7039935_equil.dcd
Info: DCD FREQUENCY          5000
Info: DCD FIRST STEP         5000
Info: DCD FILE WILL CONTAIN UNIT CELL DATA
Info: XST FILENAME           mobley_7039935_equil.xst
Info: XST FREQUENCY          5000
Info: NO VELOCITY DCD OUTPUT
Info: NO FORCE DCD OUTPUT
Info: OUTPUT FILENAME        mobley_7039935_equil
Info: BINARY OUTPUT FILES WILL BE USED
Info: RESTART FILENAME       mobley_7039935_equil.restart
Info: RESTART FREQUENCY      5000
Info: BINARY RESTART FILES WILL BE USED
Info: CUTOFF                 9
Info: PAIRLIST DISTANCE      11
Info: PAIRLIST SHRINK RATE   0.01
Info: PAIRLIST GROW RATE     0.01
Info: PAIRLIST TRIGGER       0.3
Info: PAIRLISTS PER CYCLE    2
Info: PAIRLISTS ENABLED
Info: MARGIN                 8
Info: HYDROGEN GROUP CUTOFF  2.5
Info: PATCH DIMENSION        21.5
Info: ENERGY OUTPUT STEPS    5000
Info: ENERGY EVALUATION STEPS    5000
Info: OUTPUT ENERGY PRECISION 4
Info: CROSSTERM ENERGY INCLUDED IN DIHEDRAL
Info: TIMING OUTPUT STEPS    50000
Info: PRESSURE OUTPUT STEPS  5000
Info: LANGEVIN DYNAMICS ACTIVE
Info: LANGEVIN TEMPERATURE   30
Info: LANGEVIN USING BBK INTEGRATOR
Info: LANGEVIN DAMPING COEFFICIENT IS 1 INVERSE PS
Info: LANGEVIN DYNAMICS APPLIED TO HYDROGENS
Info: LANGEVIN PISTON PRESSURE CONTROL ACTIVE
Info:        TARGET PRESSURE IS 1.01325 BAR
Info:     OSCILLATION PERIOD IS 50 FS
Info:             DECAY TIME IS 25 FS
Info:     PISTON TEMPERATURE IS 300 K
Info:       PRESSURE CONTROL IS GROUP-BASED
Info:    INITIAL STRAIN RATE IS 0 0 0
Info:       CELL FLUCTUATION IS ISOTROPIC
Info: PARTICLE MESH EWALD (PME) ACTIVE
Info: PME TOLERANCE               1e-06
Info: PME EWALD COEFFICIENT       0.348832
Info: PME INTERPOLATION ORDER     4
Info: PME GRID DIMENSIONS         44 44 40
Info: PME MAXIMUM GRID SPACING    1
Info: FULL ELECTROSTATIC EVALUATION FREQUENCY      2
Info: USING VERLET I (r-RESPA) MTS SCHEME.
Info: C1 SPLITTING OF LONG RANGE ELECTROSTATICS
Info: PLACING ATOMS IN PATCHES BY HYDROGEN GROUPS
Info: RIGID BONDS TO HYDROGEN : ALL
Info:         ERROR TOLERANCE : 1e-08
Info:          MAX ITERATIONS : 100
Info: RIGID WATER USING SETTLE ALGORITHM
Info: RANDOM NUMBER SEED     1741386615
Info: USE HYDROGEN BONDS?    NO
Info: Using AMBER format force field!
Info: AMBER PARM FILE        mobley_7039935.prmtop
Info: COORDINATE PDB         mobley_7039935.pdb
Info: Exclusions will be read from PARM file!
Info: SCNB (VDW SCALING)     2
Info: USING ARITHMETIC MEAN TO COMBINE L-J SIGMA PARAMETERS
Info: BINARY COORDINATES     mobley_7039935_min.coor
Info: SUMMARY OF PARAMETERS:
Info: 6 BONDS
Info: 4 ANGLES
Info:   4 HARMONIC
Info:   0 COSINE-BASED
Info: 3 DIHEDRAL
Info: 0 IMPROPER
Info: 0 CROSSTERM
Info: 0 VDW
Info: 21 VDW_PAIRS
Info: 0 NBTHOLE_PAIRS
Info: STRUCTURE SUMMARY:
Info: 4891 ATOMS
Info: 4892 BONDS
Info: 31 ANGLES
Info: 53 DIHEDRALS
Info: 0 IMPROPERS
Info: 0 CROSSTERMS
Info: 4963 EXCLUSIONS
Info: 4880 RIGID BONDS
Info: 9793 DEGREES OF FREEDOM
Info: 1635 HYDROGEN GROUPS
Info: 3 ATOMS IN LARGEST HYDROGEN GROUP
Info: 1635 MIGRATION GROUPS
Info: 3 ATOMS IN LARGEST MIGRATION GROUP
Info: TOTAL MASS = 29402.1 amu
Info: TOTAL CHARGE = 0.00019999 e
Info: MASS DENSITY = 0.715805 g/cm^3
Info: ATOM DENSITY = 0.0717058 atoms/A^3
Info: ADDED 0 IMPLICIT EXCLUSIONS
Info: NONBONDED TABLE R-SQUARED SPACING: 0.0625
Info: NONBONDED TABLE SIZE: 705 POINTS
Info: REMOVING COM VELOCITY -0.116091 0.0668663 -0.106984
TCL: Running for 25000 steps
ETITLE: TS BOND ANGLE DIHED IMPRP ELECT VDW BOUNDARY MISC KINETIC TOTAL TEMP POTENTIAL TOTAL3 TEMPAVG PRESSURE GPRESSURE VOLUME PRESSAVG GPRESSAVG
ENERGY: 0 0.5323 0.2907 0.3226 0.0000 -22365.7660 3851.2071 0.0000 0.0000 2882.3649 -15631.0484 296.2263 -18513.4132 -15630.4718 296.2263 27.9956 70.9912 68209.3062 27.9956 70.9912
ENERGY: 5000 0.6127 0.9417 1.1273 0.0000 -23499.1599 4144.5085 0.0000 0.0000 297.6460 -19054.3236 30.5897 -19351.9696 -19053.7370 47.5900 366.2216 437.4465 48099.3554 0.3854 0.0647
ENERGY: 10000 0.7707 0.5011 0.8872 0.0000 -23439.0020 4040.8162 0.0000 0.0000 291.2310 -19104.7959 29.9304 -19396.0268 -19104.1646 30.2633 -333.9986 -263.4363 48325.0331 6.8630 6.9756
ENERGY: 15000 0.8153 0.6235 0.4588 0.0000 -23412.6503 3990.5938 0.0000 0.0000 287.4892 -19132.6696 29.5458 -19420.1589 -19131.8760 30.5126 -570.1223 -505.2780 48037.5917 6.2572 6.1162
ENERGY: 20000 0.1249 0.4987 0.6687 0.0000 -23604.9873 4154.4924 0.0000 0.0000 295.3305 -19153.8721 30.3517 -19449.2026 -19153.0531 30.1604 266.8535 336.2511 47791.8089 3.6099 3.6993
ENERGY: 25000 0.4797 0.5351 1.0056 0.0000 -23691.8482 4221.0059 0.0000 0.0000 294.7534 -19174.0685 30.2924 -19468.8220 -19173.1542 30.1022 574.0911 647.9490 47534.0330 8.0412 8.0598
TCL: Running 25000 steps at 60 kelvin.
TCL: Setting parameter langevinTemp to 60
TCL: Running for 25000 steps
ETITLE: TS BOND ANGLE DIHED IMPRP ELECT VDW BOUNDARY MISC KINETIC TOTAL TEMP POTENTIAL TOTAL3 TEMPAVG PRESSURE GPRESSURE VOLUME PRESSAVG GPRESSAVG
ENERGY: 25000 0.4797 0.5351 1.0056 0.0000 -23691.8482 4221.0059 0.0000 0.0000 294.6074 -19174.2146 30.2774 -19468.8220 -19173.5385 30.2774 584.1459 647.8985 47534.0330 584.1459 647.8985
ENERGY: 30000 0.6603 0.7641 0.8673 0.0000 -23096.2157 3906.2287 0.0000 0.0000 577.5937 -18610.1017 59.3604 -19187.6953 -18608.1105 56.8492 -465.9770 -399.0539 48236.0602 6.0070 6.0276
ENERGY: 35000 0.6047 0.9694 1.9310 0.0000 -23175.7649 3965.5536 0.0000 0.0000 592.3436 -18614.3625 60.8763 -19206.7062 -18612.4952 60.2362 -168.8028 -94.8197 48104.3962 4.5837 4.5549
ENERGY: 40000 0.6460 1.5630 2.3173 0.0000 -23201.3846 3958.9082 0.0000 0.0000 595.2313 -18642.7188 61.1731 -19237.9501 -18641.3692 60.3839 -134.9519 -69.4944 47883.9511 -0.4390 -0.4928
ENERGY: 45000 1.1270 1.4433 1.0810 0.0000 -23349.2494 4086.5187 0.0000 0.0000 592.6622 -18666.4172 60.9090 -19259.0794 -18664.6277 59.8566 500.7707 535.3719 47521.4966 0.4111 0.4528
ENERGY: 50000 0.6023 1.3198 1.0071 0.0000 -23337.9434 4065.9940 0.0000 0.0000 591.5023 -18677.5180 60.7898 -19269.0203 -18676.1643 60.1957 383.7904 419.0575 47664.7832 2.6062 2.4482
TCL: Running 25000 steps at 90 kelvin.
TCL: Setting parameter langevinTemp to 90
TCL: Running for 25000 steps
ETITLE: TS BOND ANGLE DIHED IMPRP ELECT VDW BOUNDARY MISC KINETIC TOTAL TEMP POTENTIAL TOTAL3 TEMPAVG PRESSURE GPRESSURE VOLUME PRESSAVG GPRESSAVG
ENERGY: 50000 0.6023 1.3198 1.0071 0.0000 -23337.9434 4065.9940 0.0000 0.0000 591.2148 -18677.8055 60.7603 -19269.0203 -18676.4584 60.7603 368.3163 419.1038 47664.7832 368.3163 419.1038
ENERGY: 55000 1.6854 1.5692 2.6169 0.0000 -22935.7632 3923.6460 0.0000 0.0000 894.6655 -18111.5802 91.9465 -19006.2457 -18109.3043 87.3698 173.8576 226.7106 47753.5842 -0.0287 0.3222
ENERGY: 60000 1.8605 1.4795 2.8480 0.0000 -22958.0251 3897.0542 0.0000 0.0000 885.6272 -18169.1557 91.0176 -19054.7828 -18167.5317 90.2741 36.8682 105.5194 47337.4592 2.6039 2.9333
ENERGY: 65000 1.5105 2.3049 1.9071 0.0000 -23086.7939 4005.9459 0.0000 0.0000 862.5682 -18212.5573 88.6478 -19075.1255 -18210.0852 89.3760 686.0613 722.8645 47014.1926 2.5913 2.5962
ENERGY: 70000 1.3668 1.9319 3.5960 0.0000 -23162.4855 4045.8728 0.0000 0.0000 865.0887 -18244.6294 88.9069 -19109.7181 -18242.4402 90.1149 769.3165 817.9051 47036.3248 6.6845 6.7011
ENERGY: 75000 2.2479 3.0921 2.7748 0.0000 -22965.4928 3851.3499 0.0000 0.0000 869.5929 -18236.4352 89.3698 -19106.0281 -18234.2002 90.0916 -283.7449 -244.2699 47277.4990 5.8088 6.3017
TCL: Running 25000 steps at 120 kelvin.
TCL: Setting parameter langevinTemp to 120
TCL: Running for 25000 steps
ETITLE: TS BOND ANGLE DIHED IMPRP ELECT VDW BOUNDARY MISC KINETIC TOTAL TEMP POTENTIAL TOTAL3 TEMPAVG PRESSURE GPRESSURE VOLUME PRESSAVG GPRESSAVG
ENERGY: 75000 2.2479 3.0921 2.7748 0.0000 -22965.4928 3851.3499 0.0000 0.0000 869.1336 -18236.8945 89.3226 -19106.0281 -18235.2769 89.3226 -298.1946 -244.1369 47277.4990 -298.1946 -244.1369
ENERGY: 80000 2.3621 2.6593 2.7011 0.0000 -22465.7481 3703.1923 0.0000 0.0000 1193.4176 -17561.4156 122.6499 -18754.8332 -17558.4230 116.8480 -273.1830 -234.7171 47673.5740 -1.0476 -1.2276
ENERGY: 85000 1.6029 1.3758 3.8478 0.0000 -22765.9473 3909.7383 0.0000 0.0000 1166.6694 -17682.7132 119.9009 -18849.3825 -17678.9601 120.8314 566.8397 628.4105 47430.6923 3.7988 4.3860
ENERGY: 90000 1.9228 1.9292 4.1772 0.0000 -22677.2593 3764.3205 0.0000 0.0000 1150.9817 -17753.9279 118.2886 -18904.9096 -17750.1271 119.7041 -196.4617 -139.3534 47418.5678 2.8578 2.8768
ENERGY: 95000 1.8036 2.4022 3.3809 0.0000 -22686.3690 3835.9647 0.0000 0.0000 1165.6196 -17677.1979 119.7930 -18842.8176 -17675.2803 120.5564 230.7774 297.7019 47395.9740 -0.6260 -0.9256
ENERGY: 100000 0.9886 1.8503 4.3531 0.0000 -22661.1670 3773.2397 0.0000 0.0000 1140.9012 -17739.8340 117.2527 -18880.7353 -17737.2498 120.5327 -188.4192 -118.3012 47440.8294 2.1658 2.5972
TCL: Running 25000 steps at 150 kelvin.
TCL: Setting parameter langevinTemp to 150
TCL: Running for 25000 steps
ETITLE: TS BOND ANGLE DIHED IMPRP ELECT VDW BOUNDARY MISC KINETIC TOTAL TEMP POTENTIAL TOTAL3 TEMPAVG PRESSURE GPRESSURE VOLUME PRESSAVG GPRESSAVG
ENERGY: 100000 0.9886 1.8503 4.3531 0.0000 -22661.1670 3773.2397 0.0000 0.0000 1140.3076 -17740.4276 117.1916 -18880.7353 -17737.7133 117.1916 -177.9559 -118.6607 47440.8294 -177.9559 -118.6607
ENERGY: 105000 1.6675 4.0708 3.8196 0.0000 -22350.6352 3813.3545 0.0000 0.0000 1438.9051 -17088.8177 147.8791 -18527.7228 -17085.7668 146.0199 821.2333 905.7205 47433.8809 -2.1080 -2.4252
ENERGY: 110000 2.5224 3.1763 5.7159 0.0000 -22370.1543 3810.0738 0.0000 0.0000 1477.8880 -17070.7779 151.8854 -18548.6659 -17067.2724 149.8899 732.3475 789.2871 47623.5484 5.2545 5.3063
ENERGY: 115000 1.8262 3.4159 2.7146 0.0000 -22301.0882 3734.6939 0.0000 0.0000 1493.3824 -17065.0551 153.4778 -18558.4375 -17061.8384 150.4556 329.4277 405.6851 47542.4709 4.5542 4.7210
ENERGY: 120000 2.0084 2.4640 1.9545 0.0000 -22224.8153 3635.2600 0.0000 0.0000 1474.7317 -17108.3966 151.5611 -18583.1283 -17105.1432 150.5130 -227.5909 -155.9579 47647.0862 3.4402 3.0646
ENERGY: 125000 3.9991 3.5191 2.1326 0.0000 -22196.7269 3603.2951 0.0000 0.0000 1460.5994 -17123.1817 150.1087 -18583.7811 -17120.6633 151.0292 -451.2886 -352.7698 47808.4239 3.5366 3.6402
TCL: Running 50000 steps at 180 kelvin.
TCL: Setting parameter langevinTemp to 180
TCL: Running for 50000 steps
ETITLE: TS BOND ANGLE DIHED IMPRP ELECT VDW BOUNDARY MISC KINETIC TOTAL TEMP POTENTIAL TOTAL3 TEMPAVG PRESSURE GPRESSURE VOLUME PRESSAVG GPRESSAVG
ENERGY: 125000 3.9991 3.5191 2.1326 0.0000 -22196.7269 3603.2951 0.0000 0.0000 1459.8783 -17123.9028 150.0345 -18583.7811 -17120.8541 150.0345 -418.5969 -353.9894 47808.4239 -418.5969 -353.9894
ENERGY: 135000 1.8006 5.2081 2.3437 0.0000 -21532.4354 3405.3499 0.0000 0.0000 1753.4617 -16364.2714 180.2067 -18117.7331 -16360.8580 180.4358 -434.5078 -382.3341 47962.3196 5.9426 5.7554
ENERGY: 145000 2.0605 2.1039 4.3341 0.0000 -21517.2773 3393.8501 0.0000 0.0000 1737.0861 -16377.8425 178.5237 -18114.9286 -16372.5961 180.3046 -533.2689 -423.5482 48046.6579 0.9856 1.4591
ENERGY: 155000 2.8747 3.3194 6.0140 0.0000 -21615.8703 3494.2516 0.0000 0.0000 1748.5595 -16360.8511 179.7029 -18109.4105 -16359.1260 180.0980 70.4775 166.0174 47796.9314 5.8000 6.2928
ENERGY: 165000 2.8077 3.8292 3.5553 0.0000 -21669.5108 3490.1244 0.0000 0.0000 1713.2479 -16455.9464 176.0738 -18169.1943 -16451.5218 180.7830 -28.1408 75.5177 47602.0001 9.6526 9.5422
ENERGY: 175000 2.1653 1.5653 5.1288 0.0000 -21885.3144 3696.5937 0.0000 0.0000 1757.0231 -16422.8383 180.5727 -18179.8614 -16417.7474 179.9947 908.6390 1007.4883 47570.5807 5.5589 5.3770
TCL: Running 50000 steps at 210 kelvin.
TCL: Setting parameter langevinTemp to 210
TCL: Running for 50000 steps
ETITLE: TS BOND ANGLE DIHED IMPRP ELECT VDW BOUNDARY MISC KINETIC TOTAL TEMP POTENTIAL TOTAL3 TEMPAVG PRESSURE GPRESSURE VOLUME PRESSAVG GPRESSAVG
ENERGY: 175000 2.1653 1.5653 5.1288 0.0000 -21885.3144 3696.5937 0.0000 0.0000 1756.1623 -16423.6990 180.4842 -18179.8614 -16420.6499 180.4842 937.3599 1008.4998 47570.5807 937.3599 1008.4998
ENERGY: 185000 1.3595 4.6591 4.6564 0.0000 -20649.8000 3147.2306 0.0000 0.0000 2072.6675 -15419.2270 213.0121 -17491.8945 -15415.1516 208.8580 -177.9237 -65.7239 47995.0511 3.9283 4.0910
ENERGY: 195000 3.8700 8.1417 7.0071 0.0000 -20666.9551 3195.1214 0.0000 0.0000 2072.3953 -15380.4197 212.9841 -17452.8150 -15375.7094 210.7836 255.1833 343.8125 47684.1516 2.5706 2.8145
ENERGY: 205000 3.6548 5.5055 1.4736 0.0000 -21023.7986 3498.9540 0.0000 0.0000 2061.4085 -15452.8022 211.8550 -17514.2107 -15449.3469 210.4295 1770.0453 1871.2655 47009.1848 4.8661 4.6532
ENERGY: 215000 3.3678 5.3994 5.4914 0.0000 -20639.7340 3202.1050 0.0000 0.0000 2056.2171 -15367.1534 211.3215 -17423.3704 -15362.8000 208.9649 362.2229 405.9055 47557.3254 3.8774 3.6978
ENERGY: 225000 2.4878 1.4726 3.6052 0.0000 -20587.0043 3166.5006 0.0000 0.0000 1978.6665 -15434.2715 203.3514 -17412.9380 -15430.4514 210.3466 -60.5912 -8.3563 48217.9531 8.5638 8.6716
TCL: Running 50000 steps at 240 kelvin.
TCL: Setting parameter langevinTemp to 240
TCL: Running for 50000 steps
ETITLE: TS BOND ANGLE DIHED IMPRP ELECT VDW BOUNDARY MISC KINETIC TOTAL TEMP POTENTIAL TOTAL3 TEMPAVG PRESSURE GPRESSURE VOLUME PRESSAVG GPRESSAVG
ENERGY: 225000 2.4878 1.4726 3.6052 0.0000 -20587.0043 3166.5006 0.0000 0.0000 1977.6303 -15435.3077 203.2449 -17412.9380 -15431.3914 203.2449 -85.3694 -8.9482 48217.9531 -85.3694 -8.9482
ENERGY: 235000 5.8571 5.6990 6.0530 0.0000 -19711.0334 2926.0781 0.0000 0.0000 2406.3533 -14360.9930 247.3056 -16767.3463 -14354.9966 239.7153 405.2125 490.2596 47682.6328 6.4665 6.8342
ENERGY: 245000 2.0663 2.7398 2.5217 0.0000 -19488.5982 2765.7320 0.0000 0.0000 2367.8838 -14347.6547 243.3521 -16715.5385 -14341.2798 239.6574 -493.5341 -404.3335 48670.4754 5.9336 5.1786
ENERGY: 255000 2.5463 4.7658 2.4802 0.0000 -19614.6730 2928.7107 0.0000 0.0000 2304.2762 -14371.8938 236.8150 -16676.1700 -14365.5080 240.3073 365.4904 469.7874 48234.6583 2.3465 1.7270
ENERGY: 265000 2.3014 4.1529 4.3248 0.0000 -19740.2152 3006.0805 0.0000 0.0000 2305.4213 -14417.9343 236.9327 -16723.3557 -14411.6125 240.6416 822.2461 927.8839 47574.5562 5.7547 5.7752
ENERGY: 275000 5.0140 4.3863 5.7103 0.0000 -19494.0790 2822.6152 0.0000 0.0000 2306.9686 -14349.3846 237.0917 -16656.3531 -14344.5205 240.6305 -422.3482 -344.0951 48923.9484 8.4548 8.4256
TCL: Running 50000 steps at 270 kelvin.
TCL: Setting parameter langevinTemp to 270
TCL: Running for 50000 steps
ETITLE: TS BOND ANGLE DIHED IMPRP ELECT VDW BOUNDARY MISC KINETIC TOTAL TEMP POTENTIAL TOTAL3 TEMPAVG PRESSURE GPRESSURE VOLUME PRESSAVG GPRESSAVG
ENERGY: 275000 5.0140 4.3863 5.7103 0.0000 -19494.0790 2822.6152 0.0000 0.0000 2305.7727 -14350.5805 236.9688 -16656.3531 -14347.0121 236.9688 -436.2262 -344.4732 48923.9484 -436.2262 -344.4732
ENERGY: 285000 1.9762 6.6569 4.7537 0.0000 -18769.2183 2582.3529 0.0000 0.0000 2614.7164 -13558.7622 268.7195 -16173.4785 -13555.6255 270.6860 -304.6272 -203.1274 48985.4846 3.8646 4.1065
ENERGY: 295000 4.6525 4.8726 4.5822 0.0000 -18728.0899 2620.1207 0.0000 0.0000 2608.2015 -13485.6604 268.0500 -16093.8619 -13482.2687 268.6159 54.2731 151.8975 48887.9396 4.2903 4.0573
ENERGY: 305000 1.7070 3.7001 4.0877 0.0000 -18694.4129 2540.9428 0.0000 0.0000 2657.4779 -13486.4973 273.1142 -16143.9752 -13481.7881 268.7616 -429.1933 -376.9225 48848.5081 0.6230 -0.0552
ENERGY: 315000 2.7407 4.2971 6.0139 0.0000 -18813.1508 2698.8671 0.0000 0.0000 2651.6831 -13449.5489 272.5187 -16101.2320 -13443.3527 270.1253 301.8690 418.1828 49039.5846 3.7989 3.5273
ENERGY: 325000 2.8165 2.4225 3.2040 0.0000 -18638.3222 2631.0516 0.0000 0.0000 2637.9906 -13360.8370 271.1115 -15998.8276 -13353.6934 270.8534 -59.0976 45.5230 49450.7740 2.3703 1.9572
TCL: Running 1000000 steps at 300 kelvin.
TCL: Setting parameter langevinTemp to 300
TCL: Running for 1000000 steps
ETITLE: TS BOND ANGLE DIHED IMPRP ELECT VDW BOUNDARY MISC KINETIC TOTAL TEMP POTENTIAL TOTAL3 TEMPAVG PRESSURE GPRESSURE VOLUME PRESSAVG GPRESSAVG
ENERGY: 325000 2.8165 2.4225 3.2040 0.0000 -18638.3221 2631.0516 0.0000 0.0000 2636.7102 -13362.1174 270.9799 -15998.8276 -13358.1447 270.9799 -40.0630 47.5955 49450.7740 -40.0630 47.5955
ENERGY: 525000 2.7416 5.4769 9.1429 0.0000 -17635.8415 2343.0019 0.0000 0.0000 2924.5765 -12350.9016 300.5645 -15275.4781 -12345.6450 299.9818 -113.1166 -49.1708 50768.4574 5.0539 5.3347
ENERGY: 725000 2.1230 1.7012 3.4106 0.0000 -17656.1650 2336.0546 0.0000 0.0000 2902.3296 -12410.5461 298.2781 -15312.8757 -12404.2058 300.9641 -419.3551 -355.4211 51339.8843 3.8808 3.0665
ENERGY: 925000 2.7514 5.8652 5.4153 0.0000 -17673.3544 2353.2960 0.0000 0.0000 2878.9210 -12427.1055 295.8723 -15306.0265 -12420.8598 300.5102 -160.9976 -110.3768 50627.1672 9.9523 9.8714
ENERGY: 1125000 2.8370 3.4341 2.5197 0.0000 -17907.5077 2440.5102 0.0000 0.0000 2926.6285 -12531.5782 300.7753 -15458.2067 -12526.1363 300.1496 -24.0909 46.0434 50491.9334 6.6165 6.0526
ENERGY: 1325000 4.3563 3.4844 3.6923 0.0000 -17670.5109 2226.6381 0.0000 0.0000 2852.3979 -12579.9419 293.1465 -15432.3398 -12574.4743 297.2474 -1156.1883 -1035.1830 50872.2097 5.6897 6.4726
TCL: Exiting due to exit command.
