Info: SIMULATION PARAMETERS:
Info: TIMESTEP               1
Info: NUMBER OF STEPS        0
Info: STEPS PER CYCLE        10
Info: PERIODIC CELL BASIS 1  30 0 0
Info: PERIODIC CELL BASIS 2  0 30 0
Info: PERIODIC CELL BASIS 3  0 0 30
Info: PERIODIC CELL CENTER   0 0 0
Info: WRAPPING ALL CLUSTERS AROUND PERIODIC BOUNDARIES ON OUTPUT.
Info: FIRST LDB TIMESTEP     50
Info: LAST LDB TIMESTEP     -1
Info: HOM BACKGROUND SCALING 1
Info: MIN ATOMS PER PATCH    40
Info: EMPTY PATCH LOAD       40 ATOMS
Info: INITIAL TEMPERATURE    298
Info: CENTER OF MASS MOVING INITIALLY? NO
Info: DIELECTRIC             1
Info: EXCLUDE                SCALED ONE-FOUR
Info: 1-4 ELECTROSTATICS SCALED BY 1
Info: MODIFIED 1-4 VDW PARAMETERS WILL BE USED
Info: DCD FILENAME           output.dcd
Info: DCD FREQUENCY          1000
Info: DCD FIRST STEP         1000
Info: DCD FILE WILL CONTAIN UNIT CELL DATA
Info: NO EXTENDED SYSTEM TRAJECTORY OUTPUT
Info: NO VELOCITY DCD OUTPUT
Info: NO FORCE DCD OUTPUT
Info: OUTPUT FILENAME        output
Info: BINARY OUTPUT FILES WILL BE USED
Info: NO RESTART FILE
Info: SWITCHING ACTIVE
Info: SWITCHING ON           10
Info: SWITCHING OFF          12
Info: PAIRLIST DISTANCE      14
Info: PAIRLIST SHRINK RATE   0.01
Info: PAIRLIST GROW RATE     0.01
Info: PAIRLIST TRIGGER       0.3
Info: PAIRLISTS PER CYCLE    2
Info: PAIRLISTS ENABLED
Info: MARGIN                 0
Info: HYDROGEN GROUP CUTOFF  2.5
Info: PATCH DIMENSION        16.5
Info: ENERGY OUTPUT STEPS    1000
Info: ENERGY EVALUATION STEPS    1000
Info: OUTPUT ENERGY PRECISION 4
Info: CROSSTERM ENERGY INCLUDED IN DIHEDRAL
Info: TIMING OUTPUT STEPS    1000
Info: LANGEVIN DYNAMICS ACTIVE
Info: LANGEVIN TEMPERATURE   298
Info: LANGEVIN USING BBK INTEGRATOR
Info: LANGEVIN DAMPING COEFFICIENT IS 1 INVERSE PS
Info: LANGEVIN DYNAMICS NOT APPLIED TO HYDROGENS
Info: MULTILEVEL SUMMATION METHOD (MSM) FOR ELECTROSTATICS ACTIVE
Info: MSM WITH C1 CUBIC INTERPOLATION AND C2 TAYLOR SPLITTING
Info: FULL ELECTROSTATIC EVALUATION FREQUENCY      1
Info: USING VERLET I (r-RESPA) MTS SCHEME.
Info: C1 SPLITTING OF LONG RANGE ELECTROSTATICS
Info: PLACING ATOMS IN PATCHES BY HYDROGEN GROUPS
Info: RIGID BONDS TO HYDROGEN : ALL
Info:         ERROR TOLERANCE : 1e-08
Info:          MAX ITERATIONS : 100
Info: RIGID WATER USING SETTLE ALGORITHM
Info: RANDOM NUMBER SEED     1740223441
Info: USE HYDROGEN BONDS?    NO
Info: COORDINATE PDB         ionized.pdb
Info: STRUCTURE FILE         ionized.psf
Info: PARAMETER file: CHARMM format!
Info: PARAMETERS             par_all27_prot_lipid.inp
Info: USING ARITHMETIC MEAN TO COMBINE L-J SIGMA PARAMETERS
Info: SUMMARY OF PARAMETERS:
Info: 180 BONDS
Info: 447 ANGLES
Info: 566 DIHEDRAL
Info: 46 IMPROPER
Info: 6 CROSSTERM
Info: 119 VDW
Info: 0 VDW_PAIRS
Info: 0 NBTHOLE_PAIRS
Info: STRUCTURE SUMMARY:
Info: 2476 ATOMS
Info: 1650 BONDS
Info: 825 ANGLES
Info: 0 DIHEDRALS
Info: 0 IMPROPERS
Info: 0 CROSSTERMS
Info: 0 EXCLUSIONS
Info: 2475 RIGID BONDS
Info: 4953 DEGREES OF FREEDOM
Info: 826 HYDROGEN GROUPS
Info: 3 ATOMS IN LARGEST HYDROGEN GROUP
Info: 826 MIGRATION GROUPS
Info: 3 ATOMS IN LARGEST MIGRATION GROUP
Info: TOTAL MASS = 14885.7 amu
Info: TOTAL CHARGE = 1 e
Info: MASS DENSITY = 0.915513 g/cm^3
Info: ATOM DENSITY = 0.0917037 atoms/A^3
Info: ADDED 2475 IMPLICIT EXCLUSIONS
Info: NONBONDED TABLE R-SQUARED SPACING: 0.0625
Info: NONBONDED TABLE SIZE: 769 POINTS
Info: REMOVING COM VELOCITY 0.0258998 0.133931 0.0095473
Info: MSM using C1 cubic interpolation
Info: MSM using C2 Taylor splitting function
Info: MSM block size decomposition along X is 8 grid points
Info: MSM block size decomposition along Y is 8 grid points
Info: MSM block size decomposition along Z is 8 grid points
Info: MSM grid spacing along X is 2.5 A
Info: MSM grid spacing along Y is 2.5 A
Info: MSM grid spacing along Z is 2.5 A
Info: MSM using 3 levels
Info:     level 0:  [0..11] x [0..11] x [0..11]
Info:     level 1:  [0..5] x [0..5] x [0..5]
Info:     level 2:  [0..2] x [0..2] x [0..2]
Info: MSM finished calculating stencils
Info: MSM finished creating map for grid levels
Info: MSM finished creating map for patches
Info: MSM has 9 interpolation / anterpolation objects (one per patch)
Info: MSM grid level 0 decomposed into 8 blocks ( 2 x 2 x 2 )
Info: MSM grid level 1 decomposed into 1 block ( 1 x 1 x 1 )
Info: MSM grid level 2 decomposed into 1 block ( 1 x 1 x 1 )
Info: MSM grid cutoff calculation decomposed into 783 work objects
TCL: Minimizing for 100 steps
ETITLE: TS BOND ANGLE DIHED IMPRP ELECT VDW BOUNDARY MISC KINETIC TOTAL TEMP POTENTIAL TOTAL3 TEMPAVG PRESSURE GPRESSURE VOLUME PRESSAVG GPRESSAVG
ENERGY: 0 0.0000 0.0000 0.0000 0.0000 -7348.6496 6353.7252 0.0000 0.0000 0.0000 -994.9244 0.0000 -994.9244 -994.9244 0.0000 75204.0846 46356.0498 27000.0000 75204.0846 46356.0498
ENERGY: 20 0.0000 0.0000 0.0000 0.0000 -8744.5976 644.7588 0.0000 0.0000 0.0000 -8099.8388 0.0000 -8099.8388 -8099.8388 0.0000 14286.6723 -2608.4243 27000.0000 14286.6723 -2608.4243
ENERGY: 40 0.0000 0.0000 0.0000 0.0000 -9255.3675 673.7887 0.0000 0.0000 0.0000 -8581.5788 0.0000 -8581.5788 -8581.5788 0.0000 14306.7121 -3612.4723 27000.0000 14306.7121 -3612.4723
ENERGY: 60 0.0000 0.0000 0.0000 0.0000 -9570.7005 738.1054 0.0000 0.0000 0.0000 -8832.5951 0.0000 -8832.5951 -8832.5951 0.0000 14889.9943 -3661.0808 27000.0000 14889.9943 -3661.0808
ENERGY: 80 0.0000 0.0000 0.0000 0.0000 -9709.8380 782.3387 0.0000 0.0000 0.0000 -8927.4993 0.0000 -8927.4993 -8927.4993 0.0000 15330.4373 -3519.7945 27000.0000 15330.4373 -3519.7945
ENERGY: 100 0.0000 0.0000 0.0000 0.0000 -9870.8892 823.6125 0.0000 0.0000 0.0000 -9047.2766 0.0000 -9047.2766 -9047.2766 0.0000 15747.0472 15671.0534 27000.0000 15747.0472 15671.0534
TCL: Running for 200000 steps
ETITLE: TS BOND ANGLE DIHED IMPRP ELECT VDW BOUNDARY MISC KINETIC TOTAL TEMP POTENTIAL TOTAL3 TEMPAVG PRESSURE GPRESSURE VOLUME PRESSAVG GPRESSAVG
ENERGY: 1000 0.0000 0.0000 0.0000 0.0000 -9509.2002 970.5725 0.0000 0.0000 1173.8153 -7364.8124 238.5184 -8538.6277 -7363.4812 214.3486 -1864.3955 -1881.9026 27000.0000 -1759.7448 -1759.2401
ENERGY: 41000 0.0000 0.0000 0.0000 0.0000 -8865.2425 857.3576 0.0000 0.0000 1470.2285 -6537.6565 298.7493 -8007.8850 -6536.3735 294.3064 -1151.2415 -1170.5381 27000.0000 -1325.0845 -1325.3549
ENERGY: 81000 0.0000 0.0000 0.0000 0.0000 -8802.3218 798.4736 0.0000 0.0000 1498.8877 -6504.9604 304.5728 -8003.8481 -6504.6750 297.6284 -1698.9259 -1702.3475 27000.0000 -1412.4461 -1412.6426
ENERGY: 120000 0.0000 0.0000 0.0000 0.0000 -8763.3116 840.4003 0.0000 0.0000 1490.8820 -6432.0293 302.9461 -7922.9113 -6431.2668 299.3720 -1076.0049 -1078.9988 27000.0000 -1191.0158 -1191.0754
ENERGY: 160000 0.0000 0.0000 0.0000 0.0000 -8840.2113 864.8015 0.0000 0.0000 1464.4337 -6510.9760 297.5718 -7975.4097 -6510.1799 298.4011 -954.5918 -939.4940 27000.0000 -1089.4325 -1089.3213
ENERGY: 200000 0.0000 0.0000 0.0000 0.0000 -8797.9894 816.3705 0.0000 0.0000 1455.1375 -6526.4813 295.6828 -7981.6188 -6525.7440 294.9410 -1512.2230 -1495.5767 27000.0000 -1281.8646 -1282.0266
