Info: SIMULATION PARAMETERS:
Info: TIMESTEP               2
Info: NUMBER OF STEPS        0
Info: STEPS PER CYCLE        10
Info: PERIODIC CELL BASIS 1  32.4694 0 0
Info: PERIODIC CELL BASIS 2  0 32.6202 0
Info: PERIODIC CELL BASIS 3  0 0 29.5217
Info: PERIODIC CELL CENTER   0 0 0
Info: WRAPPING WATERS AROUND PERIODIC BOUNDARIES ON OUTPUT.
Info: WRAPPING ALL CLUSTERS AROUND PERIODIC BOUNDARIES ON OUTPUT.
Info: FIRST LDB TIMESTEP     50
Info: LAST LDB TIMESTEP     -1
Info: HOM BACKGROUND SCALING 1
Info: PME BACKGROUND SCALING 1
Info: MIN ATOMS PER PATCH    40
Info: EMPTY PATCH LOAD       40 ATOMS
Info: VELOCITY FILE          mobley_5952846_equil.vel
Info: CENTER OF MASS MOVING INITIALLY? NO
Info: DIELECTRIC             1
Info: EXCLUDE                SCALED ONE-FOUR
Info: 1-4 ELECTROSTATICS SCALED BY 0.833333
Info: MODIFIED 1-4 VDW PARAMETERS WILL BE USED
Info: DCD FILENAME           mobley_5952846_prod.dcd
Info: DCD FREQUENCY          100000
Info: DCD FIRST STEP         100000
Info: DCD FILE WILL CONTAIN UNIT CELL DATA
Info: XST FILENAME           mobley_5952846_prod.xst
Info: XST FREQUENCY          100000
Info: NO VELOCITY DCD OUTPUT
Info: NO FORCE DCD OUTPUT
Info: OUTPUT FILENAME        mobley_5952846_prod
Info: BINARY OUTPUT FILES WILL BE USED
Info: RESTART FILENAME       mobley_5952846_prod.restart
Info: RESTART FREQUENCY      100000
Info: BINARY RESTART FILES WILL BE USED
Info: CUTOFF                 9
Info: PAIRLIST DISTANCE      11
Info: PAIRLIST SHRINK RATE   0.01
Info: PAIRLIST GROW RATE     0.01
Info: PAIRLIST TRIGGER       0.3
Info: PAIRLISTS PER CYCLE    2
Info: PAIRLISTS ENABLED
Info: MARGIN                 2
Info: HYDROGEN GROUP CUTOFF  2.5
Info: PATCH DIMENSION        15.5
Info: ENERGY OUTPUT STEPS    100000
Info: ENERGY EVALUATION STEPS    100000
Info: OUTPUT ENERGY PRECISION 4
Info: CROSSTERM ENERGY INCLUDED IN DIHEDRAL
Info: TIMING OUTPUT STEPS    1000000
Info: PRESSURE OUTPUT STEPS  100000
Info: ALCHEMICAL FEP ON
Info: FEP CURRENT LAMBDA VALUE     1
Info: FEP COMPARISON LAMBDA VALUE  0.95
Info: FEP INTRA-ALCHEMICAL NON-BONDED INTERACTIONS WILL BE RETAINED
Info: FEP INTRA-ALCHEMICAL BONDED INTERACTIONS WILL BE RETAINED
Info: FEP VDW SHIFTING COEFFICIENT 5
Info: FEP ELEC. ACTIVE FOR ANNIHILATED PARTICLES BETWEEN LAMBDA = 0 AND LAMBDA = 0.5
Info: FEP ELEC. ACTIVE FOR EXNIHILATED PARTICLES BETWEEN LAMBDA = 0.5 AND LAMBDA = 1
Info: FEP VDW ACTIVE FOR ANNIHILATED PARTICLES BETWEEN LAMBDA = 0 AND LAMBDA = 1
Info: FEP VDW ACTIVE FOR EXNIHILATED PARTICLES BETWEEN LAMBDA = 0 AND LAMBDA = 1
Info: FEP BOND ACTIVE FOR ANNIHILATED PARTICLES BETWEEN LAMBDA = 1 AND LAMBDA = 1
Info: FEP BOND ACTIVE FOR EXNIHILATED PARTICLES BETWEEN LAMBDA = 0 AND LAMBDA = 0
Info: LANGEVIN DYNAMICS ACTIVE
Info: LANGEVIN TEMPERATURE   300
Info: LANGEVIN USING BBK INTEGRATOR
Info: LANGEVIN DAMPING COEFFICIENT IS 1 INVERSE PS
Info: LANGEVIN DYNAMICS APPLIED TO HYDROGENS
Info: LANGEVIN PISTON PRESSURE CONTROL ACTIVE
Info:        TARGET PRESSURE IS 1.01325 BAR
Info:     OSCILLATION PERIOD IS 50 FS
Info:             DECAY TIME IS 25 FS
Info:     PISTON TEMPERATURE IS 300 K
Info:       PRESSURE CONTROL IS GROUP-BASED
Info:    INITIAL STRAIN RATE IS 6.13931e-05 6.13931e-05 6.13931e-05
Info:       CELL FLUCTUATION IS ISOTROPIC
Info: PARTICLE MESH EWALD (PME) ACTIVE
Info: PME TOLERANCE               1e-06
Info: PME EWALD COEFFICIENT       0.348832
Info: PME INTERPOLATION ORDER     4
Info: PME GRID DIMENSIONS         36 36 32
Info: PME MAXIMUM GRID SPACING    1
Info: PME CALCULATION WILL BE PERFORMED ON GPU
Info: FULL ELECTROSTATIC EVALUATION FREQUENCY      2
Info: USING VERLET I (r-RESPA) MTS SCHEME.
Info: C1 SPLITTING OF LONG RANGE ELECTROSTATICS
Info: PLACING ATOMS IN PATCHES BY HYDROGEN GROUPS
Info: RIGID BONDS TO HYDROGEN : ALL
Info:         ERROR TOLERANCE : 1e-08
Info:          MAX ITERATIONS : 100
Info: RIGID WATER USING SETTLE ALGORITHM
Info: RANDOM NUMBER SEED     1742010539
Info: USE HYDROGEN BONDS?    NO
Info: Using AMBER format force field!
Info: AMBER PARM FILE        mobley_5952846.prmtop
Info: COORDINATE PDB         mobley_5952846.pdb
Info: Exclusions will be read from PARM file!
Info: SCNB (VDW SCALING)     2
Info: USING ARITHMETIC MEAN TO COMBINE L-J SIGMA PARAMETERS
Info: BINARY COORDINATES     mobley_5952846_equil.coor
Info: SUMMARY OF PARAMETERS:
Info: 4 BONDS
Info: 2 ANGLES
Info:   2 HARMONIC
Info:   0 COSINE-BASED
Info: 1 DIHEDRAL
Info: 0 IMPROPER
Info: 0 CROSSTERM
Info: 0 VDW
Info: 10 VDW_PAIRS
Info: 0 NBTHOLE_PAIRS
Info: To read alchdata from file: mobley_5952846.pdb
Info: To read alchflag data from column: 5
Info: STRUCTURE SUMMARY:
Info: 2991 ATOMS
Info: 2990 BONDS
Info: 6 ANGLES
Info: 4 DIHEDRALS
Info: 0 IMPROPERS
Info: 0 CROSSTERMS
Info: 3000 EXCLUSIONS
Info: 2985 RIGID BONDS
Info: ALCH: 0 ATOMS TO DISAPPEAR IN FINAL STATE
Info: ALCH: 6 ATOMS TO APPEAR IN FINAL STATE
Info: 5988 DEGREES OF FREEDOM
Info: 1001 HYDROGEN GROUPS
Info: 3 ATOMS IN LARGEST HYDROGEN GROUP
Info: 1001 MIGRATION GROUPS
Info: 3 ATOMS IN LARGEST MIGRATION GROUP
Info: TOTAL MASS = 18091.7 amu
Info: TOTAL CHARGE = -0.000200003 e
Info: MASS DENSITY = 0.960811 g/cm^3
Info: ATOM DENSITY = 0.0956565 atoms/A^3
Info: ADDED 0 IMPLICIT EXCLUSIONS
Info: NONBONDED TABLE R-SQUARED SPACING: 0.0625
Info: NONBONDED TABLE SIZE: 705 POINTS
Info: REMOVING COM VELOCITY 0.0647083 0.263159 -0.0968278
Info: Use 3D box decompostion in PME FFT.
Info: Updated CUDA force table with 4096 elements.
Info: Updated CUDA LJ table with 4 x 4 elements.
Info: Found 9 unique exclusion lists needing 12 bytes
TCL: Running for 1500000 steps
ETITLE: TS BOND ANGLE DIHED IMPRP ELECT VDW BOUNDARY MISC KINETIC TOTAL TEMP POTENTIAL TOTALAVG TEMPAVG PRESSURE GPRESSURE VOLUME PRESSAVG GPRESSAVG
ENERGY: 0 1.3735 3.5578 0.9921 0.0000 -10933.4854 1550.5917 0.0000 0.0000 1793.4770 -7583.4934 301.4424 -9376.9704 -7583.4934 301.4424 614.8101 702.3441 31268.1184 614.8101 702.3441
ENERGY: 300000 1.2912 2.0955 0.9646 0.0000 -10891.3159 1444.0566 0.0000 0.0000 1777.4079 -7665.5001 298.7416 -9442.9081 -7638.4090 295.9847 -157.4340 -106.3028 30657.9497 -94.0076 -51.2733
ENERGY: 600000 1.3715 0.5300 1.7964 0.0000 -10863.5853 1408.1386 0.0000 0.0000 1855.1413 -7596.6076 311.8068 -9451.7489 -7635.6846 300.3468 -418.8348 -383.8592 30651.1190 -89.6209 -31.1087
ENERGY: 900000 1.3032 0.8775 0.6371 0.0000 -10795.4954 1422.7441 0.0000 0.0000 1717.8371 -7652.0964 288.7291 -9369.9335 -7644.3087 297.8681 -188.1883 -153.0355 30932.8087 -99.0908 -34.5916
ENERGY: 1200000 1.0899 0.1893 0.9119 0.0000 -10706.8996 1367.4401 0.0000 0.0000 1783.8433 -7553.4252 299.8232 -9337.2685 -7632.6110 298.3330 -764.7258 -660.0996 31300.7501 -78.6492 -17.0621
ENERGY: 1500000 1.2340 0.2365 0.7395 0.0000 -10939.5621 1526.1850 0.0000 0.0000 1795.4690 -7615.6980 301.7772 -9411.1670 -7633.3084 298.0345 351.7303 425.1016 31019.8959 -27.4940 29.8014
TCL: Running FEP window   2: Lambda1 0.95   Lambda2 0.8999999999999999 [dLambda -0.050000000000000044]
TCL: Setting parameter firsttimestep to 0
TCL: Setting parameter alchLambda to 0.95
Info: NONBONDED TABLE R-SQUARED SPACING: 0.0625
Info: NONBONDED TABLE SIZE: 705 POINTS
TCL: Setting parameter alchLambda2 to 0.8999999999999999
Info: NONBONDED TABLE R-SQUARED SPACING: 0.0625
Info: NONBONDED TABLE SIZE: 705 POINTS
TCL: Running for 1500000 steps
ETITLE: TS BOND ANGLE DIHED IMPRP ELECT VDW BOUNDARY MISC KINETIC TOTAL TEMP POTENTIAL TOTALAVG TEMPAVG PRESSURE GPRESSURE VOLUME PRESSAVG GPRESSAVG
ENERGY: 0 1.2340 0.2365 0.7395 0.0000 -10939.5231 1526.3156 0.0000 0.0000 1794.6194 -7616.3782 301.6345 -9410.9975 -7616.3782 301.6345 332.8490 416.1288 31019.8959 332.8490 416.1288
ENERGY: 300000 1.4556 0.6673 0.3332 0.0000 -10777.7566 1422.8896 0.0000 0.0000 1795.8892 -7556.5215 301.8479 -9352.4108 -7575.3077 301.9550 -230.8226 -156.5462 31104.4932 -52.6611 47.5996
ENERGY: 600000 0.3524 0.7192 0.2907 0.0000 -10967.6264 1568.7629 0.0000 0.0000 1828.8691 -7568.6320 307.3911 -9397.5012 -7592.9084 300.9143 1087.6806 1130.4505 30677.2858 -10.3468 82.3711
ENERGY: 900000 1.0627 1.1499 0.8033 0.0000 -10897.7096 1492.3070 0.0000 0.0000 1795.8029 -7606.5840 301.8334 -9402.3868 -7598.1940 301.0971 184.5599 259.7455 31100.9646 -70.8341 17.7926
ENERGY: 1200000 0.9927 1.0838 0.6964 0.0000 -10974.1710 1566.3162 0.0000 0.0000 1797.8881 -7607.1939 302.1838 -9405.0820 -7595.7734 301.2729 724.4511 787.7387 30633.9850 11.5471 99.4720
ENERGY: 1500000 0.8255 1.0774 0.1399 0.0000 -10935.7675 1432.1593 0.0000 0.0000 1767.0209 -7734.5445 296.9958 -9501.5654 -7608.7805 300.0929 -680.1870 -586.9501 31044.5972 -8.9337 73.7087
TCL: Running FEP window   3: Lambda1 0.8999999999999999 Lambda2 0.8499999999999999 [dLambda -0.050000000000000044]
TCL: Setting parameter firsttimestep to 0
TCL: Setting parameter alchLambda to 0.8999999999999999
Info: NONBONDED TABLE R-SQUARED SPACING: 0.0625
Info: NONBONDED TABLE SIZE: 705 POINTS
TCL: Setting parameter alchLambda2 to 0.8499999999999999
Info: NONBONDED TABLE R-SQUARED SPACING: 0.0625
Info: NONBONDED TABLE SIZE: 705 POINTS
TCL: Running for 1500000 steps
ETITLE: TS BOND ANGLE DIHED IMPRP ELECT VDW BOUNDARY MISC KINETIC TOTAL TEMP POTENTIAL TOTALAVG TEMPAVG PRESSURE GPRESSURE VOLUME PRESSAVG GPRESSAVG
ENERGY: 0 0.8255 1.0774 0.1399 0.0000 -10935.7500 1432.5953 0.0000 0.0000 1766.1252 -7734.9867 296.8452 -9501.1119 -7734.9867 296.8452 -677.2139 -590.9364 31044.5972 -677.2139 -590.9364
ENERGY: 300000 1.7752 0.2067 0.2762 0.0000 -10918.5246 1493.5176 0.0000 0.0000 1805.5842 -7617.1648 303.4774 -9422.7490 -7684.2145 298.8819 188.3992 238.4324 30868.1936 -197.5104 -119.3879
ENERGY: 600000 1.4775 0.7581 1.1060 0.0000 -10911.2219 1513.4756 0.0000 0.0000 1772.3717 -7622.0331 297.8951 -9394.4047 -7656.6888 299.2924 505.5552 552.0980 30770.1025 177.3441 239.4795
ENERGY: 900000 0.6664 1.3510 0.4809 0.0000 -10820.6335 1413.9262 0.0000 0.0000 1791.6779 -7612.5312 301.1401 -9404.2091 -7642.1659 300.4481 -329.6092 -301.3685 30824.5119 42.8549 108.6303
ENERGY: 1200000 3.3784 0.1704 0.5145 0.0000 -10844.4654 1441.7547 0.0000 0.0000 1819.8812 -7578.7661 305.8804 -9398.6473 -7626.1202 300.6403 146.4550 153.4264 30711.9757 109.5283 171.3958
ENERGY: 1500000 1.1972 0.5697 0.5443 0.0000 -10662.1647 1280.9688 0.0000 0.0000 1790.9225 -7587.9622 301.0131 -9378.8848 -7624.0894 300.1578 -1375.2304 -1346.9853 31057.9706 -26.8933 35.2515
TCL: Running FEP window   4: Lambda1 0.8499999999999999 Lambda2 0.7999999999999998 [dLambda -0.050000000000000044]
TCL: Setting parameter firsttimestep to 0
TCL: Setting parameter alchLambda to 0.8499999999999999
Info: NONBONDED TABLE R-SQUARED SPACING: 0.0625
Info: NONBONDED TABLE SIZE: 705 POINTS
TCL: Setting parameter alchLambda2 to 0.7999999999999998
Info: NONBONDED TABLE R-SQUARED SPACING: 0.0625
Info: NONBONDED TABLE SIZE: 705 POINTS
TCL: Running for 1500000 steps
ETITLE: TS BOND ANGLE DIHED IMPRP ELECT VDW BOUNDARY MISC KINETIC TOTAL TEMP POTENTIAL TOTALAVG TEMPAVG PRESSURE GPRESSURE VOLUME PRESSAVG GPRESSAVG
ENERGY: 0 1.1972 0.5697 0.5443 0.0000 -10662.1206 1281.4238 0.0000 0.0000 1790.0220 -7588.3637 300.8617 -9378.3856 -7588.3637 300.8617 -1427.6046 -1348.0856 31057.9706 -1427.6046 -1348.0856
ENERGY: 300000 1.9727 0.6827 1.3719 0.0000 -10757.7679 1418.5684 0.0000 0.0000 1824.6904 -7510.4818 306.6887 -9335.1722 -7617.6128 301.4731 -459.0435 -441.0826 31698.8283 -769.1649 -712.4723
ENERGY: 600000 0.4043 1.8696 2.7507 0.0000 -10747.7294 1365.9217 0.0000 0.0000 1740.0306 -7636.7526 292.4593 -9376.7832 -7627.9468 299.4236 -823.3849 -683.1560 31139.6199 -592.0966 -535.2367
ENERGY: 900000 0.1968 1.0948 0.0796 0.0000 -10700.2039 1382.8096 0.0000 0.0000 1833.8967 -7482.1265 308.2361 -9316.0232 -7616.6289 299.9996 -129.1826 -98.4086 30812.3959 -374.1584 -317.9301
ENERGY: 1200000 2.5051 3.5937 1.0774 0.0000 -10811.5622 1462.8283 0.0000 0.0000 1860.7846 -7480.7731 312.7553 -9341.5577 -7611.3148 300.9161 99.4326 203.0445 31116.7034 -238.5968 -179.1628
ENERGY: 1500000 2.1901 0.3074 0.3912 0.0000 -10896.6585 1515.5631 0.0000 0.0000 1808.4631 -7569.7437 303.9613 -9378.2068 -7616.9423 300.9457 353.1686 455.2129 31027.5929 -156.1029 -100.8997
TCL: Running FEP window   5: Lambda1 0.7999999999999998 Lambda2 0.7499999999999998 [dLambda -0.050000000000000044]
TCL: Setting parameter firsttimestep to 0
TCL: Setting parameter alchLambda to 0.7999999999999998
Info: NONBONDED TABLE R-SQUARED SPACING: 0.0625
Info: NONBONDED TABLE SIZE: 705 POINTS
TCL: Setting parameter alchLambda2 to 0.7499999999999998
Info: NONBONDED TABLE R-SQUARED SPACING: 0.0625
Info: NONBONDED TABLE SIZE: 705 POINTS
TCL: Running for 1500000 steps
ETITLE: TS BOND ANGLE DIHED IMPRP ELECT VDW BOUNDARY MISC KINETIC TOTAL TEMP POTENTIAL TOTALAVG TEMPAVG PRESSURE GPRESSURE VOLUME PRESSAVG GPRESSAVG
ENERGY: 0 2.1901 0.3074 0.3912 0.0000 -10896.6366 1515.1998 0.0000 0.0000 1807.5574 -7570.9908 303.8090 -9378.5481 -7570.9908 303.8090 352.2265 440.1308 31027.5929 352.2265 440.1308
ENERGY: 300000 0.4941 1.5545 1.5583 0.0000 -10928.2708 1497.4769 0.0000 0.0000 1781.9787 -7645.2084 299.5098 -9427.1871 -7601.1274 303.7318 371.2394 377.0253 30843.3239 108.0784 143.2243
ENERGY: 600000 1.6849 1.2726 0.3219 0.0000 -10941.5606 1449.4770 0.0000 0.0000 1701.2676 -7787.5365 285.9442 -9488.8041 -7630.7214 300.2915 -269.9685 -248.7601 30789.8833 -172.6530 -131.6666
ENERGY: 900000 2.4027 0.7031 2.0159 0.0000 -10831.2660 1384.1933 0.0000 0.0000 1797.5766 -7644.3744 302.1315 -9441.9510 -7616.9214 300.1060 -812.1545 -766.5658 31233.4836 -151.4283 -103.5636
ENERGY: 1200000 1.1600 0.6070 0.2246 0.0000 -10782.4709 1438.4893 0.0000 0.0000 1785.1974 -7556.7926 300.0508 -9341.9900 -7604.8245 301.2668 156.6176 208.9673 30531.8567 -88.1057 -33.1396
ENERGY: 1500000 1.1559 0.3098 0.9594 0.0000 -10888.5993 1463.9078 0.0000 0.0000 1718.9248 -7703.3416 288.9119 -9422.2664 -7612.5893 299.8284 194.3020 309.4307 30300.2122 -50.7552 9.6622
TCL: Running FEP window   6: Lambda1 0.7499999999999998 Lambda2 0.6999999999999997 [dLambda -0.050000000000000044]
TCL: Setting parameter firsttimestep to 0
TCL: Setting parameter alchLambda to 0.7499999999999998
Info: NONBONDED TABLE R-SQUARED SPACING: 0.0625
Info: NONBONDED TABLE SIZE: 705 POINTS
TCL: Setting parameter alchLambda2 to 0.6999999999999997
Info: NONBONDED TABLE R-SQUARED SPACING: 0.0625
Info: NONBONDED TABLE SIZE: 705 POINTS
TCL: Running for 1500000 steps
ETITLE: TS BOND ANGLE DIHED IMPRP ELECT VDW BOUNDARY MISC KINETIC TOTAL TEMP POTENTIAL TOTALAVG TEMPAVG PRESSURE GPRESSURE VOLUME PRESSAVG GPRESSAVG
ENERGY: 0 1.1559 0.3098 0.9594 0.0000 -10888.5721 1464.3469 0.0000 0.0000 1718.0722 -7703.7280 288.7686 -9421.8001 -7703.7280 288.7686 228.2778 305.0000 30300.2122 228.2778 305.0000
ENERGY: 300000 0.3015 2.8429 0.8206 0.0000 -10832.0177 1405.5486 0.0000 0.0000 1748.4627 -7674.0413 293.8766 -9422.5040 -7653.1105 294.5307 -427.1859 -415.1300 30722.2644 -121.5914 -100.4788
ENERGY: 600000 1.4658 0.2998 0.9889 0.0000 -10883.4393 1467.3080 0.0000 0.0000 1795.1177 -7618.2591 301.7182 -9413.3768 -7644.0382 298.4486 -134.3194 -91.3194 31362.3870 -112.8429 -78.5938
ENERGY: 900000 1.0679 2.3307 0.5462 0.0000 -10895.2699 1500.7513 0.0000 0.0000 1772.2969 -7618.2770 297.8826 -9390.5739 -7632.0235 298.2372 130.7696 100.7372 31207.7486 -107.3130 -82.0119
ENERGY: 1200000 1.3206 0.5932 0.4455 0.0000 -10922.3071 1495.3830 0.0000 0.0000 1818.3094 -7606.2553 305.6162 -9424.5647 -7623.7731 299.2151 267.0005 346.9838 30579.4805 -104.7409 -72.7335
ENERGY: 1500000 1.3408 0.5306 0.5841 0.0000 -10955.4623 1537.4338 0.0000 0.0000 1792.1410 -7623.4319 301.2179 -9415.5729 -7624.3573 299.1133 845.7698 909.6031 30448.5133 -48.6496 -11.3515
TCL: Running FEP window   7: Lambda1 0.6999999999999997 Lambda2 0.6499999999999997 [dLambda -0.050000000000000044]
TCL: Setting parameter firsttimestep to 0
TCL: Setting parameter alchLambda to 0.6999999999999997
Info: NONBONDED TABLE R-SQUARED SPACING: 0.0625
Info: NONBONDED TABLE SIZE: 705 POINTS
TCL: Setting parameter alchLambda2 to 0.6499999999999997
Info: NONBONDED TABLE R-SQUARED SPACING: 0.0625
Info: NONBONDED TABLE SIZE: 705 POINTS
TCL: Running for 1500000 steps
ETITLE: TS BOND ANGLE DIHED IMPRP ELECT VDW BOUNDARY MISC KINETIC TOTAL TEMP POTENTIAL TOTALAVG TEMPAVG PRESSURE GPRESSURE VOLUME PRESSAVG GPRESSAVG
ENERGY: 0 1.3408 0.5306 0.5841 0.0000 -10955.4689 1537.7470 0.0000 0.0000 1791.2656 -7624.0008 301.0708 -9415.2665 -7624.0008 301.0708 815.7844 901.8572 30448.5133 815.7844 901.8572
ENERGY: 300000 0.7031 0.5160 1.2890 0.0000 -10837.0347 1440.6410 0.0000 0.0000 1786.4057 -7607.4799 300.2539 -9393.8855 -7578.7106 302.1840 -118.9276 -101.2870 31114.1855 -24.5502 29.7435
ENERGY: 600000 3.9053 0.9152 1.7773 0.0000 -10881.2388 1503.9904 0.0000 0.0000 1772.5704 -7598.0800 297.9285 -9370.6505 -7601.4115 299.0335 396.7771 454.7344 30900.0666 -109.9911 -58.6223
ENERGY: 900000 0.3418 1.3438 1.3015 0.0000 -10815.4101 1455.1933 0.0000 0.0000 1772.9386 -7584.2910 297.9904 -9357.2296 -7611.9254 299.8562 109.8824 176.9001 30876.6556 -185.2745 -128.3615
ENERGY: 1200000 2.5488 0.4612 1.5125 0.0000 -10771.5502 1404.5408 0.0000 0.0000 1809.5051 -7552.9817 304.1364 -9362.4868 -7617.6893 299.3009 -508.3156 -478.1814 31390.8292 -166.4194 -109.3047
ENERGY: 1500000 0.6287 0.4011 1.7899 0.0000 -10848.4310 1460.2498 0.0000 0.0000 1797.4991 -7587.8624 302.1185 -9385.3616 -7618.6466 299.6598 134.7392 206.8391 30870.2383 -86.0117 -25.1948
TCL: Running FEP window   8: Lambda1 0.6499999999999997 Lambda2 0.5999999999999996 [dLambda -0.050000000000000044]
TCL: Setting parameter firsttimestep to 0
TCL: Setting parameter alchLambda to 0.6499999999999997
Info: NONBONDED TABLE R-SQUARED SPACING: 0.0625
Info: NONBONDED TABLE SIZE: 705 POINTS
TCL: Setting parameter alchLambda2 to 0.5999999999999996
Info: NONBONDED TABLE R-SQUARED SPACING: 0.0625
Info: NONBONDED TABLE SIZE: 705 POINTS
TCL: Running for 1500000 steps
ETITLE: TS BOND ANGLE DIHED IMPRP ELECT VDW BOUNDARY MISC KINETIC TOTAL TEMP POTENTIAL TOTALAVG TEMPAVG PRESSURE GPRESSURE VOLUME PRESSAVG GPRESSAVG
ENERGY: 0 0.6287 0.4011 1.7899 0.0000 -10848.3698 1460.4980 0.0000 0.0000 1796.5823 -7588.4698 301.9644 -9385.0521 -7588.4698 301.9644 111.8899 203.4307 30870.2383 111.8899 203.4307
ENERGY: 300000 1.2104 1.0675 0.8564 0.0000 -10981.9998 1514.6943 0.0000 0.0000 1781.8379 -7682.3333 299.4862 -9464.1712 -7611.3489 301.5334 71.1150 178.4670 30847.9176 -128.4854 -38.5992
ENERGY: 600000 0.6602 2.5947 0.2635 0.0000 -10883.5327 1479.9577 0.0000 0.0000 1826.8353 -7573.2214 307.0492 -9400.0567 -7616.4154 301.5762 113.3266 184.2943 31185.0066 -7.4659 70.8403
ENERGY: 900000 0.6476 0.4358 0.7306 0.0000 -10902.7661 1484.3229 0.0000 0.0000 1760.9766 -7655.6525 295.9799 -9416.6291 -7626.6864 300.0704 -31.7735 11.5503 31132.5767 -60.2119 11.1057
ENERGY: 1200000 1.6062 4.6107 0.9520 0.0000 -10736.7108 1410.4898 0.0000 0.0000 1757.3552 -7561.6969 295.3712 -9319.0521 -7624.7704 298.7642 -214.9903 -185.1166 31074.5374 -51.5230 18.1650
ENERGY: 1500000 1.0435 1.0507 0.8812 0.0000 -10778.1709 1396.4224 0.0000 0.0000 1775.5753 -7603.1977 298.4336 -9378.7730 -7624.1928 298.6118 -526.8375 -482.1517 31113.1135 -63.7195 -2.3297
TCL: Running FEP window   9: Lambda1 0.5999999999999996 Lambda2 0.5499999999999996 [dLambda -0.050000000000000044]
TCL: Setting parameter firsttimestep to 0
TCL: Setting parameter alchLambda to 0.5999999999999996
Info: NONBONDED TABLE R-SQUARED SPACING: 0.0625
Info: NONBONDED TABLE SIZE: 705 POINTS
TCL: Setting parameter alchLambda2 to 0.5499999999999996
Info: NONBONDED TABLE R-SQUARED SPACING: 0.0625
Info: NONBONDED TABLE SIZE: 705 POINTS
TCL: Running for 1500000 steps
ETITLE: TS BOND ANGLE DIHED IMPRP ELECT VDW BOUNDARY MISC KINETIC TOTAL TEMP POTENTIAL TOTALAVG TEMPAVG PRESSURE GPRESSURE VOLUME PRESSAVG GPRESSAVG
ENERGY: 0 1.0435 1.0507 0.8812 0.0000 -10778.1280 1396.1026 0.0000 0.0000 1774.6362 -7604.4137 298.2757 -9379.0499 -7604.4137 298.2757 -550.4827 -490.1413 31113.1135 -550.4827 -490.1413
ENERGY: 300000 3.9941 0.5340 0.1133 0.0000 -10867.4968 1443.2844 0.0000 0.0000 1744.1443 -7675.4267 293.1507 -9419.5710 -7654.7574 296.5335 -69.1535 -52.6243 30680.5519 -46.2137 -12.3886
ENERGY: 600000 1.4637 4.3584 2.1790 0.0000 -10810.8140 1501.9963 0.0000 0.0000 1803.5363 -7497.2802 303.1332 -9300.8165 -7603.6064 299.8986 654.6681 708.7795 31021.2821 43.0700 65.1713
ENERGY: 900000 0.6066 0.6717 1.0058 0.0000 -10581.7580 1270.9897 0.0000 0.0000 1770.9312 -7537.5530 297.6530 -9308.4842 -7589.3384 299.8286 -1434.5255 -1380.8651 31661.3991 -129.1905 -96.6594
ENERGY: 1200000 0.5148 0.5582 0.1939 0.0000 -10733.6852 1369.4707 0.0000 0.0000 1795.6762 -7567.2714 301.8121 -9362.9476 -7590.5264 300.4933 -701.4438 -656.8158 31267.9942 -101.5188 -64.2159
ENERGY: 1500000 2.7063 1.0406 0.0670 0.0000 -10849.5084 1435.4485 0.0000 0.0000 1761.6123 -7648.6336 296.0867 -9410.2460 -7590.5848 300.2946 -377.6452 -285.8410 31041.5555 -90.8266 -42.8829
TCL: Running FEP window  10: Lambda1 0.5499999999999996 Lambda2 0.4999999999999996 [dLambda -0.04999999999999999]
TCL: Setting parameter firsttimestep to 0
TCL: Setting parameter alchLambda to 0.5499999999999996
Info: NONBONDED TABLE R-SQUARED SPACING: 0.0625
Info: NONBONDED TABLE SIZE: 705 POINTS
TCL: Setting parameter alchLambda2 to 0.4999999999999996
Info: NONBONDED TABLE R-SQUARED SPACING: 0.0625
Info: NONBONDED TABLE SIZE: 705 POINTS
TCL: Running for 1500000 steps
ETITLE: TS BOND ANGLE DIHED IMPRP ELECT VDW BOUNDARY MISC KINETIC TOTAL TEMP POTENTIAL TOTALAVG TEMPAVG PRESSURE GPRESSURE VOLUME PRESSAVG GPRESSAVG
ENERGY: 0 2.7063 1.0406 0.0670 0.0000 -10849.5021 1435.7201 0.0000 0.0000 1760.6947 -7649.2734 295.9325 -9409.9681 -7649.2734 295.9325 -376.2019 -290.2141 31041.5555 -376.2019 -290.2141
ENERGY: 300000 2.0935 0.9567 0.8631 0.0000 -10914.9811 1514.4476 0.0000 0.0000 1763.6912 -7632.9290 296.4361 -9396.6203 -7631.4258 298.5503 594.0810 589.0380 30534.7715 65.5173 138.3502
ENERGY: 600000 0.3796 0.9354 0.5692 0.0000 -10866.9542 1424.8821 0.0000 0.0000 1784.9508 -7655.2371 300.0094 -9440.1879 -7618.2268 300.7395 -430.8250 -345.3385 30756.8499 43.9297 117.8366
ENERGY: 900000 1.9547 1.1035 2.1577 0.0000 -10901.9278 1460.5518 0.0000 0.0000 1761.6641 -7674.4960 296.0954 -9436.1600 -7637.3716 300.3589 -134.1826 -8.9913 30567.4423 -23.4104 53.4023
ENERGY: 1200000 0.9047 1.9056 0.7795 0.0000 -10851.0159 1422.9091 0.0000 0.0000 1787.0901 -7637.4270 300.3689 -9424.5170 -7639.6419 299.8620 -485.8621 -375.8426 30866.8749 -166.5299 -87.3476
ENERGY: 1500000 0.8222 1.0872 0.8290 0.0000 -10810.6756 1416.7389 0.0000 0.0000 1816.8486 -7574.3497 305.3707 -9391.1983 -7632.9706 300.0954 -195.5902 -137.8921 30745.5254 -106.2198 -31.2355
TCL: Running FEP window  11: Lambda1 0.4999999999999996 Lambda2 0.4499999999999996 [dLambda -0.04999999999999999]
TCL: Setting parameter firsttimestep to 0
TCL: Setting parameter alchLambda to 0.4999999999999996
Info: NONBONDED TABLE R-SQUARED SPACING: 0.0625
Info: NONBONDED TABLE SIZE: 705 POINTS
TCL: Setting parameter alchLambda2 to 0.4499999999999996
Info: NONBONDED TABLE R-SQUARED SPACING: 0.0625
Info: NONBONDED TABLE SIZE: 705 POINTS
TCL: Running for 1500000 steps
ETITLE: TS BOND ANGLE DIHED IMPRP ELECT VDW BOUNDARY MISC KINETIC TOTAL TEMP POTENTIAL TOTALAVG TEMPAVG PRESSURE GPRESSURE VOLUME PRESSAVG GPRESSAVG
ENERGY: 0 0.8222 1.0872 0.8290 0.0000 -10810.6177 1417.2860 0.0000 0.0000 1816.0041 -7574.5892 305.2287 -9390.5933 -7574.5892 305.2287 -218.6133 -137.4240 30745.5254 -218.6133 -137.4240
ENERGY: 300000 1.4926 2.7711 0.7537 0.0000 -10845.4723 1474.1005 0.0000 0.0000 1769.4907 -7596.8637 297.4109 -9366.3544 -7560.0185 304.2100 71.9591 153.6255 31065.5888 458.0991 537.2732
ENERGY: 600000 1.8590 1.3488 0.5522 0.0000 -10886.1653 1395.8699 0.0000 0.0000 1792.7617 -7693.7737 301.3222 -9486.5354 -7585.6998 303.5800 -848.1137 -805.6472 30915.4132 -35.1057 29.1386
ENERGY: 900000 1.6848 0.8207 2.5843 0.0000 -11045.2108 1531.2024 0.0000 0.0000 1768.8466 -7740.0721 297.3026 -9508.9187 -7627.3422 301.6830 385.4028 342.7756 30532.3807 107.7141 153.6702
ENERGY: 1200000 2.8146 1.3912 3.2663 0.0000 -10708.2811 1359.5896 0.0000 0.0000 1781.6541 -7559.5652 299.4553 -9341.2193 -7628.7947 300.4850 -517.6875 -485.7736 30787.9541 118.1302 164.1078
ENERGY: 1500000 1.3262 0.9803 0.7992 0.0000 -10963.6812 1532.5848 0.0000 0.0000 1767.7233 -7660.2674 297.1138 -9427.9907 -7629.1028 300.5057 637.3873 605.0178 30551.3676 114.3710 159.9728
TCL: Running FEP window  12: Lambda1 0.4499999999999996 Lambda2 0.39999999999999963 [dLambda -0.04999999999999999]
TCL: Setting parameter firsttimestep to 0
TCL: Setting parameter alchLambda to 0.4499999999999996
Info: NONBONDED TABLE R-SQUARED SPACING: 0.0625
Info: NONBONDED TABLE SIZE: 705 POINTS
TCL: Setting parameter alchLambda2 to 0.39999999999999963
Info: NONBONDED TABLE R-SQUARED SPACING: 0.0625
Info: NONBONDED TABLE SIZE: 705 POINTS
TCL: Running for 1500000 steps
ETITLE: TS BOND ANGLE DIHED IMPRP ELECT VDW BOUNDARY MISC KINETIC TOTAL TEMP POTENTIAL TOTALAVG TEMPAVG PRESSURE GPRESSURE VOLUME PRESSAVG GPRESSAVG
ENERGY: 0 1.3262 0.9803 0.7992 0.0000 -10963.6817 1532.3726 0.0000 0.0000 1766.8410 -7661.3624 296.9655 -9428.2034 -7661.3624 296.9655 527.6729 597.9374 30551.3676 527.6729 597.9374
ENERGY: 300000 0.7220 1.5810 3.3491 0.0000 -10781.5377 1394.6344 0.0000 0.0000 1784.0170 -7597.2341 299.8524 -9381.2511 -7614.7137 299.8501 -617.4755 -564.2770 31115.5071 -110.5277 -70.9584
ENERGY: 600000 1.2888 0.3937 1.2770 0.0000 -10980.8526 1494.0172 0.0000 0.0000 1793.1651 -7690.7107 301.3900 -9483.8759 -7650.0616 298.2313 39.9681 85.1967 30741.0310 -170.4680 -137.5175
ENERGY: 900000 1.6347 2.4300 0.6147 0.0000 -10889.5062 1477.7558 0.0000 0.0000 1800.1704 -7606.9005 302.5675 -9407.0709 -7636.7643 299.4160 -99.1083 -94.3530 31412.8121 -233.9635 -203.9183
ENERGY: 1200000 3.3993 0.5117 1.1914 0.0000 -10786.4944 1396.2785 0.0000 0.0000 1753.1378 -7631.9757 294.6623 -9385.1135 -7641.5277 298.7027 -801.9710 -748.5089 31334.0980 -223.5981 -189.6723
ENERGY: 1500000 1.7641 1.8694 1.0185 0.0000 -10804.9704 1371.1852 0.0000 0.0000 1749.2636 -7679.8695 294.0112 -9429.1332 -7646.2459 297.9239 -778.7692 -726.5952 30840.5592 -208.0059 -166.8864
TCL: Running FEP window  13: Lambda1 0.39999999999999963 Lambda2 0.34999999999999964 [dLambda -0.04999999999999999]
TCL: Setting parameter firsttimestep to 0
TCL: Setting parameter alchLambda to 0.39999999999999963
Info: NONBONDED TABLE R-SQUARED SPACING: 0.0625
Info: NONBONDED TABLE SIZE: 705 POINTS
TCL: Setting parameter alchLambda2 to 0.34999999999999964
Info: NONBONDED TABLE R-SQUARED SPACING: 0.0625
Info: NONBONDED TABLE SIZE: 705 POINTS
TCL: Running for 1500000 steps
ETITLE: TS BOND ANGLE DIHED IMPRP ELECT VDW BOUNDARY MISC KINETIC TOTAL TEMP POTENTIAL TOTALAVG TEMPAVG PRESSURE GPRESSURE VOLUME PRESSAVG GPRESSAVG
ENERGY: 0 1.7641 1.8695 1.0185 0.0000 -10804.9712 1371.3898 0.0000 0.0000 1748.3992 -7680.5302 293.8659 -9428.9294 -7680.5302 293.8659 -827.8830 -731.5311 30840.5592 -827.8830 -731.5311
ENERGY: 300000 1.8476 0.8057 1.5398 0.0000 -10626.1285 1315.6223 0.0000 0.0000 1808.4502 -7497.8630 303.9591 -9306.3132 -7622.4369 298.3766 -1067.7278 -987.5597 31465.8794 -411.7072 -333.4191
ENERGY: 600000 0.6941 1.5392 0.0182 0.0000 -10880.5534 1444.9252 0.0000 0.0000 1758.2643 -7675.1124 295.5240 -9433.3767 -7635.9798 298.8664 -309.3643 -213.3500 30685.5909 -347.5051 -278.6296
ENERGY: 900000 0.9357 0.8568 1.4663 0.0000 -10908.2613 1485.0960 0.0000 0.0000 1764.2938 -7655.6126 296.5374 -9419.9064 -7625.9674 299.3501 -43.6132 61.2771 31016.0625 -260.3668 -202.0191
ENERGY: 1200000 1.7301 2.3509 1.0322 0.0000 -10760.2843 1378.6412 0.0000 0.0000 1746.2286 -7630.3012 293.5011 -9376.5298 -7621.0515 298.9059 -474.1567 -420.4867 30501.2609 -251.9917 -190.7750
ENERGY: 1500000 1.8352 2.4805 0.6747 0.0000 -10851.5055 1498.4087 0.0000 0.0000 1778.2956 -7569.8108 298.8908 -9348.1064 -7619.5141 298.3680 353.0724 474.2658 30766.9906 -296.4256 -229.8629
TCL: Running FEP window  14: Lambda1 0.34999999999999964 Lambda2 0.29999999999999966 [dLambda -0.04999999999999999]
TCL: Setting parameter firsttimestep to 0
TCL: Setting parameter alchLambda to 0.34999999999999964
Info: NONBONDED TABLE R-SQUARED SPACING: 0.0625
Info: NONBONDED TABLE SIZE: 705 POINTS
TCL: Setting parameter alchLambda2 to 0.29999999999999966
Info: NONBONDED TABLE R-SQUARED SPACING: 0.0625
Info: NONBONDED TABLE SIZE: 705 POINTS
TCL: Running for 1500000 steps
ETITLE: TS BOND ANGLE DIHED IMPRP ELECT VDW BOUNDARY MISC KINETIC TOTAL TEMP POTENTIAL TOTALAVG TEMPAVG PRESSURE GPRESSURE VOLUME PRESSAVG GPRESSAVG
ENERGY: 0 1.8352 2.4805 0.6747 0.0000 -10851.5061 1498.9024 0.0000 0.0000 1777.4291 -7570.1843 298.7452 -9347.6134 -7570.1843 298.7452 377.9426 475.8905 30766.9906 377.9426 475.8905
ENERGY: 300000 0.2595 0.4771 0.5182 0.0000 -10923.6402 1560.9327 0.0000 0.0000 1781.4568 -7579.9959 299.4221 -9361.4527 -7572.7461 300.3353 999.3820 1061.6875 30522.7408 389.1067 475.3647
ENERGY: 600000 1.1564 1.0286 0.4649 0.0000 -10835.8260 1479.8078 0.0000 0.0000 1776.3929 -7576.9755 298.5710 -9353.3684 -7582.6771 301.2333 181.8502 239.9799 31024.6413 336.5963 407.2185
ENERGY: 900000 2.1429 1.4579 0.8426 0.0000 -10824.0165 1440.2521 0.0000 0.0000 1821.4716 -7557.8495 306.1477 -9379.3210 -7577.5605 302.2034 -211.1160 -96.5381 30970.2091 231.8380 305.8636
ENERGY: 1200000 0.9383 1.0920 0.8336 0.0000 -10815.1884 1428.3584 0.0000 0.0000 1800.4839 -7583.4823 302.6201 -9383.9661 -7571.3603 302.3973 -302.9011 -251.7235 30994.5005 148.4454 221.2566
ENERGY: 1500000 0.4964 0.7502 0.9150 0.0000 -10811.6292 1473.7467 0.0000 0.0000 1820.4283 -7515.2926 305.9723 -9335.7209 -7572.4487 301.9487 213.6474 275.5464 31267.7081 99.6440 171.4242
TCL: Running FEP window  15: Lambda1 0.29999999999999966 Lambda2 0.24999999999999967 [dLambda -0.04999999999999999]
TCL: Setting parameter firsttimestep to 0
TCL: Setting parameter alchLambda to 0.29999999999999966
Info: NONBONDED TABLE R-SQUARED SPACING: 0.0625
Info: NONBONDED TABLE SIZE: 705 POINTS
TCL: Setting parameter alchLambda2 to 0.24999999999999967
Info: NONBONDED TABLE R-SQUARED SPACING: 0.0625
Info: NONBONDED TABLE SIZE: 705 POINTS
TCL: Running for 1500000 steps
ETITLE: TS BOND ANGLE DIHED IMPRP ELECT VDW BOUNDARY MISC KINETIC TOTAL TEMP POTENTIAL TOTALAVG TEMPAVG PRESSURE GPRESSURE VOLUME PRESSAVG GPRESSAVG
ENERGY: 0 0.4964 0.7502 0.9150 0.0000 -10811.6294 1474.1216 0.0000 0.0000 1819.5192 -7515.8270 305.8195 -9335.3461 -7515.8270 305.8195 200.8660 275.0447 31267.7081 200.8660 275.0447
ENERGY: 300000 1.7948 2.1023 2.1399 0.0000 -10853.7699 1480.7951 0.0000 0.0000 1749.0805 -7617.8574 293.9804 -9366.9378 -7565.2633 302.4360 390.7634 436.0151 30345.1308 -16.7272 39.6489
ENERGY: 600000 0.4701 0.9170 0.6032 0.0000 -10888.6371 1451.6572 0.0000 0.0000 1813.1205 -7621.8691 304.7441 -9434.9895 -7586.1558 302.2218 -8.7433 71.6218 30439.5258 60.6755 122.2801
ENERGY: 900000 0.7679 0.6793 1.0714 0.0000 -11069.7079 1587.9216 0.0000 0.0000 1789.0511 -7690.2166 300.6985 -9479.2677 -7606.9598 300.9107 848.8353 873.3953 30667.2729 -21.2185 40.4598
ENERGY: 1200000 1.2511 3.3097 0.5622 0.0000 -10750.3938 1369.6511 0.0000 0.0000 1772.6874 -7602.9322 297.9482 -9375.6196 -7609.3456 300.3033 -731.0187 -640.5941 30898.4124 -64.4374 -1.6278
ENERGY: 1500000 0.4375 0.4460 2.3047 0.0000 -10948.6891 1563.1401 0.0000 0.0000 1789.0732 -7593.2877 300.7023 -9382.3609 -7611.2870 299.9372 586.5487 672.9374 31084.2909 38.7484 102.0089
TCL: Running FEP window  16: Lambda1 0.24999999999999967 Lambda2 0.19999999999999968 [dLambda -0.04999999999999999]
TCL: Setting parameter firsttimestep to 0
TCL: Setting parameter alchLambda to 0.24999999999999967
Info: NONBONDED TABLE R-SQUARED SPACING: 0.0625
Info: NONBONDED TABLE SIZE: 705 POINTS
TCL: Setting parameter alchLambda2 to 0.19999999999999968
Info: NONBONDED TABLE R-SQUARED SPACING: 0.0625
Info: NONBONDED TABLE SIZE: 705 POINTS
TCL: Running for 1500000 steps
ETITLE: TS BOND ANGLE DIHED IMPRP ELECT VDW BOUNDARY MISC KINETIC TOTAL TEMP POTENTIAL TOTALAVG TEMPAVG PRESSURE GPRESSURE VOLUME PRESSAVG GPRESSAVG
ENERGY: 0 0.4375 0.4460 2.3047 0.0000 -10948.6882 1563.2920 0.0000 0.0000 1788.1544 -7594.0537 300.5478 -9382.2081 -7594.0537 300.5478 579.0510 671.7002 31084.2909 579.0510 671.7002
ENERGY: 300000 0.8625 0.9269 0.6666 0.0000 -10927.8085 1502.9559 0.0000 0.0000 1815.6771 -7606.7195 305.1738 -9422.3965 -7605.2457 306.7678 421.6999 499.5106 30392.6683 383.0335 442.1097
ENERGY: 600000 1.0835 1.7425 1.7413 0.0000 -10928.9995 1486.4854 0.0000 0.0000 1772.6268 -7665.3199 297.9380 -9437.9468 -7609.1625 304.4128 -25.5511 -9.2855 30965.7050 225.5464 274.8089
ENERGY: 900000 2.1217 1.0178 0.4902 0.0000 -10917.9209 1498.3814 0.0000 0.0000 1738.0085 -7677.9013 292.1195 -9415.9098 -7619.1268 302.3330 -21.5425 82.3653 30980.9484 220.2529 273.6337
ENERGY: 1200000 2.6746 2.3687 0.6578 0.0000 -10885.7445 1562.2215 0.0000 0.0000 1740.4589 -7577.3630 292.5313 -9317.8220 -7606.0002 301.5657 757.5385 830.3804 31034.4074 264.8693 331.4479
ENERGY: 1500000 0.7546 0.6590 0.3507 0.0000 -10852.6508 1440.5936 0.0000 0.0000 1796.4519 -7613.8410 301.9425 -9410.2929 -7602.4575 301.4927 -161.7494 -96.7459 30709.7157 190.4433 259.3384
TCL: Running FEP window  17: Lambda1 0.19999999999999968 Lambda2 0.1499999999999997 [dLambda -0.04999999999999999]
TCL: Setting parameter firsttimestep to 0
TCL: Setting parameter alchLambda to 0.19999999999999968
Info: NONBONDED TABLE R-SQUARED SPACING: 0.0625
Info: NONBONDED TABLE SIZE: 705 POINTS
TCL: Setting parameter alchLambda2 to 0.1499999999999997
Info: NONBONDED TABLE R-SQUARED SPACING: 0.0625
Info: NONBONDED TABLE SIZE: 705 POINTS
TCL: Running for 1500000 steps
ETITLE: TS BOND ANGLE DIHED IMPRP ELECT VDW BOUNDARY MISC KINETIC TOTAL TEMP POTENTIAL TOTALAVG TEMPAVG PRESSURE GPRESSURE VOLUME PRESSAVG GPRESSAVG
ENERGY: 0 0.7546 0.6590 0.3507 0.0000 -10852.6509 1440.6730 0.0000 0.0000 1795.5988 -7614.6149 301.7991 -9410.2137 -7614.6149 301.7991 -183.0313 -99.6963 30709.7157 -183.0313 -99.6963
ENERGY: 300000 1.0336 2.7388 0.2460 0.0000 -10827.2335 1444.0668 0.0000 0.0000 1853.4686 -7525.6796 311.5257 -9379.1482 -7599.3133 303.3461 -226.6158 -139.0269 31049.0834 132.9109 189.7071
ENERGY: 600000 0.4723 0.9889 0.9554 0.0000 -10813.6486 1461.6931 0.0000 0.0000 1759.9032 -7589.6357 295.7995 -9349.5389 -7605.7880 300.2498 165.6697 114.1011 30890.1951 271.9309 318.6719
ENERGY: 900000 1.9794 1.7264 0.9238 0.0000 -10912.5198 1485.4557 0.0000 0.0000 1725.7792 -7696.6553 290.0640 -9422.4345 -7617.2947 298.8649 101.2319 161.5833 30579.0141 73.1394 119.5724
ENERGY: 1200000 0.6012 0.2477 2.2491 0.0000 -10956.1161 1493.6052 0.0000 0.0000 1836.4867 -7622.9261 308.6714 -9459.4128 -7622.5775 299.7985 282.6239 343.1562 30410.3207 105.1786 147.7934
ENERGY: 1500000 1.8659 2.2112 1.8009 0.0000 -10755.0326 1402.1799 0.0000 0.0000 1824.5490 -7522.4256 306.6649 -9346.9746 -7621.4982 299.6494 -302.3198 -223.2628 30782.1088 39.0968 90.0391
TCL: Running FEP window  18: Lambda1 0.1499999999999997 Lambda2 0.09999999999999969 [dLambda -0.05 ]
TCL: Setting parameter firsttimestep to 0
TCL: Setting parameter alchLambda to 0.1499999999999997
Info: NONBONDED TABLE R-SQUARED SPACING: 0.0625
Info: NONBONDED TABLE SIZE: 705 POINTS
TCL: Setting parameter alchLambda2 to 0.09999999999999969
Info: NONBONDED TABLE R-SQUARED SPACING: 0.0625
Info: NONBONDED TABLE SIZE: 705 POINTS
TCL: Running for 1500000 steps
ETITLE: TS BOND ANGLE DIHED IMPRP ELECT VDW BOUNDARY MISC KINETIC TOTAL TEMP POTENTIAL TOTALAVG TEMPAVG PRESSURE GPRESSURE VOLUME PRESSAVG GPRESSAVG
ENERGY: 0 1.8659 2.2112 1.8009 0.0000 -10755.0352 1402.4053 0.0000 0.0000 1823.6650 -7523.0868 306.5164 -9346.7517 -7523.0868 306.5164 -305.4072 -225.7930 30782.1088 -305.4072 -225.7930
ENERGY: 300000 0.6693 0.7301 0.9380 0.0000 -10891.0919 1517.5033 0.0000 0.0000 1754.8986 -7616.3527 294.9583 -9371.2513 -7575.2573 302.5422 358.1855 478.7224 30749.6833 191.7628 263.3354
ENERGY: 600000 1.6885 1.7163 0.4336 0.0000 -10822.4120 1433.2846 0.0000 0.0000 1746.4526 -7638.8365 293.5387 -9385.2891 -7585.3279 301.4056 -373.0775 -292.7070 31218.2032 180.3664 258.6889
ENERGY: 900000 2.2276 0.6954 1.5052 0.0000 -11112.8921 1615.4294 0.0000 0.0000 1839.4030 -7653.6315 309.1616 -9493.0346 -7611.2277 301.3887 1443.8161 1460.9593 29791.7682 249.3264 310.9303
ENERGY: 1200000 0.7938 0.4493 1.2500 0.0000 -10981.4787 1479.9785 0.0000 0.0000 1827.1392 -7671.8680 307.1003 -9499.0072 -7619.3089 301.7202 172.0641 210.5726 30143.3864 159.2449 222.8938
ENERGY: 1500000 0.7721 1.2597 0.5317 0.0000 -10870.1931 1448.1114 0.0000 0.0000 1819.3443 -7600.1738 305.7902 -9419.5181 -7610.3691 301.4184 50.1712 85.7398 30586.6057 115.4647 177.0845
TCL: Running FEP window  19: Lambda1 0.09999999999999969 Lambda2 0.049999999999999684 [dLambda -0.05 ]
TCL: Setting parameter firsttimestep to 0
TCL: Setting parameter alchLambda to 0.09999999999999969
Info: NONBONDED TABLE R-SQUARED SPACING: 0.0625
Info: NONBONDED TABLE SIZE: 705 POINTS
TCL: Setting parameter alchLambda2 to 0.049999999999999684
Info: NONBONDED TABLE R-SQUARED SPACING: 0.0625
Info: NONBONDED TABLE SIZE: 705 POINTS
TCL: Running for 1500000 steps
ETITLE: TS BOND ANGLE DIHED IMPRP ELECT VDW BOUNDARY MISC KINETIC TOTAL TEMP POTENTIAL TOTALAVG TEMPAVG PRESSURE GPRESSURE VOLUME PRESSAVG GPRESSAVG
ENERGY: 0 0.7722 1.2597 0.5317 0.0000 -10870.1925 1447.1187 0.0000 0.0000 1818.4462 -7602.0640 305.6392 -9420.5103 -7602.0640 305.6392 1.3644 79.6150 30586.6057 1.3644 79.6150
ENERGY: 300000 1.1501 1.6396 2.7341 0.0000 -11037.7106 1569.4884 0.0000 0.0000 1752.0055 -7710.6931 294.4720 -9462.6985 -7634.7092 301.5392 736.8934 772.1968 30559.5599 541.7067 591.3509
ENERGY: 600000 1.8509 0.8574 1.0705 0.0000 -10941.8040 1503.6727 0.0000 0.0000 1809.9672 -7624.3853 304.2141 -9434.3525 -7634.7254 299.4010 253.4484 309.2608 30728.6293 450.8928 510.3302
ENERGY: 900000 1.7668 3.5208 0.4283 0.0000 -10956.8343 1489.6798 0.0000 0.0000 1726.1997 -7735.2390 290.1347 -9461.4387 -7625.0801 299.9569 -223.6088 -160.0327 31118.9262 301.0734 362.5090
ENERGY: 1200000 1.4288 1.2964 2.4747 0.0000 -10839.4794 1486.9063 0.0000 0.0000 1803.4504 -7543.9227 303.1188 -9347.3732 -7623.1640 300.0407 211.0600 295.0388 31130.0768 322.7614 387.1570
ENERGY: 1500000 0.4088 0.8674 1.1829 0.0000 -10763.1089 1377.8592 0.0000 0.0000 1833.6138 -7549.1770 308.1885 -9382.7907 -7609.5316 300.7507 -552.3682 -537.0291 30722.2623 217.7667 273.9246
TCL: Running FEP window  20: Lambda1 0.049999999999999684 Lambda2 0.0    [dLambda -0.049999999999999684]
TCL: Setting parameter firsttimestep to 0
TCL: Setting parameter alchLambda to 0.049999999999999684
Info: NONBONDED TABLE R-SQUARED SPACING: 0.0625
Info: NONBONDED TABLE SIZE: 705 POINTS
TCL: Setting parameter alchLambda2 to 0.0
Info: NONBONDED TABLE R-SQUARED SPACING: 0.0625
Info: NONBONDED TABLE SIZE: 705 POINTS
TCL: Running for 1500000 steps
ETITLE: TS BOND ANGLE DIHED IMPRP ELECT VDW BOUNDARY MISC KINETIC TOTAL TEMP POTENTIAL TOTALAVG TEMPAVG PRESSURE GPRESSURE VOLUME PRESSAVG GPRESSAVG
ENERGY: 0 0.4088 0.8674 1.1829 0.0000 -10763.1101 1378.1798 0.0000 0.0000 1832.7531 -7549.7183 308.0439 -9382.4713 -7549.7183 308.0439 -614.3501 -536.0274 30722.2623 -614.3501 -536.0274
ENERGY: 300000 0.7371 0.4792 1.2139 0.0000 -10937.1257 1513.5007 0.0000 0.0000 1712.0071 -7709.1876 287.7492 -9421.1948 -7615.4188 300.2075 314.3992 394.7083 30594.8332 43.8720 112.9071
ENERGY: 600000 1.3551 0.1793 1.4247 0.0000 -10737.4218 1431.3808 0.0000 0.0000 1762.3262 -7540.7556 296.2067 -9303.0819 -7623.0680 297.2831 -225.8449 -136.5700 31058.5383 -50.6276 21.5561
ENERGY: 900000 1.0466 1.8027 1.8352 0.0000 -10853.1298 1434.3550 0.0000 0.0000 1844.3948 -7569.6955 310.0006 -9414.0903 -7616.1157 298.9171 -417.6567 -348.2141 31006.6859 -148.0296 -73.8575
ENERGY: 1200000 0.7787 0.3853 0.5232 0.0000 -11035.5046 1566.7746 0.0000 0.0000 1828.2311 -7638.8117 307.2838 -9467.0428 -7617.2928 300.2136 642.2759 717.6452 30525.0490 -81.9079 -8.2999
ENERGY: 1500000 3.3619 2.2864 0.6609 0.0000 -10881.0179 1414.9105 0.0000 0.0000 1777.1845 -7682.6137 298.7040 -9459.7982 -7623.5821 300.4302 -721.6984 -627.4266 30904.2944 -133.3068 -53.5828
TCL: Exiting due to exit command.
