Info: SIMULATION PARAMETERS:
Info: TIMESTEP               2
Info: NUMBER OF STEPS        0
Info: STEPS PER CYCLE        10
Info: PERIODIC CELL BASIS 1  36.281 0 0
Info: PERIODIC CELL BASIS 2  0 34.26 0
Info: PERIODIC CELL BASIS 3  0 0 35.723
Info: PERIODIC CELL CENTER   0 0 0
Info: WRAPPING WATERS AROUND PERIODIC BOUNDARIES ON OUTPUT.
Info: WRAPPING ALL CLUSTERS AROUND PERIODIC BOUNDARIES ON OUTPUT.
Info: FIRST LDB TIMESTEP     50
Info: LAST LDB TIMESTEP     -1
Info: HOM BACKGROUND SCALING 1
Info: PME BACKGROUND SCALING 1
Info: MIN ATOMS PER PATCH    40
Info: EMPTY PATCH LOAD       40 ATOMS
Info: INITIAL TEMPERATURE    300
Info: CENTER OF MASS MOVING INITIALLY? NO
Info: DIELECTRIC             1
Info: EXCLUDE                SCALED ONE-FOUR
Info: 1-4 ELECTROSTATICS SCALED BY 0.833333
Info: MODIFIED 1-4 VDW PARAMETERS WILL BE USED
Info: DCD FILENAME           mobley_1733799_equil.dcd
Info: DCD FREQUENCY          100000
Info: DCD FIRST STEP         100000
Info: DCD FILE WILL CONTAIN UNIT CELL DATA
Info: XST FILENAME           mobley_1733799_equil.xst
Info: XST FREQUENCY          100000
Info: NO VELOCITY DCD OUTPUT
Info: NO FORCE DCD OUTPUT
Info: OUTPUT FILENAME        mobley_1733799_equil
Info: BINARY OUTPUT FILES WILL BE USED
Info: RESTART FILENAME       mobley_1733799_equil.restart
Info: RESTART FREQUENCY      100000
Info: BINARY RESTART FILES WILL BE USED
Info: CUTOFF                 9
Info: PAIRLIST DISTANCE      11
Info: PAIRLIST SHRINK RATE   0.01
Info: PAIRLIST GROW RATE     0.01
Info: PAIRLIST TRIGGER       0.3
Info: PAIRLISTS PER CYCLE    2
Info: PAIRLISTS ENABLED
Info: MARGIN                 8
Info: HYDROGEN GROUP CUTOFF  2.5
Info: PATCH DIMENSION        21.5
Info: ENERGY OUTPUT STEPS    100000
Info: ENERGY EVALUATION STEPS    100000
Info: OUTPUT ENERGY PRECISION 4
Info: CROSSTERM ENERGY INCLUDED IN DIHEDRAL
Info: TIMING OUTPUT STEPS    1000000
Info: PRESSURE OUTPUT STEPS  100000
Info: FIXED ATOMS ACTIVE
Info: LANGEVIN DYNAMICS ACTIVE
Info: LANGEVIN TEMPERATURE   30
Info: LANGEVIN USING BBK INTEGRATOR
Info: LANGEVIN DAMPING COEFFICIENT IS 1 INVERSE PS
Info: LANGEVIN DYNAMICS APPLIED TO HYDROGENS
Info: LANGEVIN PISTON PRESSURE CONTROL ACTIVE
Info:        TARGET PRESSURE IS 1.01325 BAR
Info:     OSCILLATION PERIOD IS 50 FS
Info:             DECAY TIME IS 25 FS
Info:     PISTON TEMPERATURE IS 300 K
Info:       PRESSURE CONTROL IS GROUP-BASED
Info:    INITIAL STRAIN RATE IS 0 0 0
Info:       CELL FLUCTUATION IS ISOTROPIC
Info: PARTICLE MESH EWALD (PME) ACTIVE
Info: PME TOLERANCE               1e-06
Info: PME EWALD COEFFICIENT       0.348832
Info: PME INTERPOLATION ORDER     4
Info: PME GRID DIMENSIONS         40 36 36
Info: PME MAXIMUM GRID SPACING    1
Info: FULL ELECTROSTATIC EVALUATION FREQUENCY      2
Info: USING VERLET I (r-RESPA) MTS SCHEME.
Info: C1 SPLITTING OF LONG RANGE ELECTROSTATICS
Info: PLACING ATOMS IN PATCHES BY HYDROGEN GROUPS
Info: RIGID BONDS TO HYDROGEN : ALL
Info:         ERROR TOLERANCE : 1e-08
Info:          MAX ITERATIONS : 100
Info: RIGID WATER USING SETTLE ALGORITHM
Info: RANDOM NUMBER SEED     1742540600
Info: USE HYDROGEN BONDS?    NO
Info: Using AMBER format force field!
Info: AMBER PARM FILE        mobley_1733799.prmtop
Info: COORDINATE PDB         mobley_1733799.pdb
Info: Exclusions will be read from PARM file!
Info: SCNB (VDW SCALING)     2
Info: USING ARITHMETIC MEAN TO COMBINE L-J SIGMA PARAMETERS
Info: BINARY COORDINATES     mobley_1733799_min.coor
Info: SUMMARY OF PARAMETERS:
Info: 7 BONDS
Info: 5 ANGLES
Info:   5 HARMONIC
Info:   0 COSINE-BASED
Info: 3 DIHEDRAL
Info: 0 IMPROPER
Info: 0 CROSSTERM
Info: 0 VDW
Info: 28 VDW_PAIRS
Info: 0 NBTHOLE_PAIRS
Info: STRUCTURE SUMMARY:
Info: 2917 ATOMS
Info: 2917 BONDS
Info: 19 ANGLES
Info: 31 DIHEDRALS
Info: 0 IMPROPERS
Info: 0 CROSSTERMS
Info: 2959 EXCLUSIONS
Info: 13 FIXED ATOMS
Info: 2909 RIGID BONDS
Info: 5 RIGID BONDS BETWEEN FIXED ATOMS
Info: 5808 DEGREES OF FREEDOM
Info: 976 HYDROGEN GROUPS
Info: 3 ATOMS IN LARGEST HYDROGEN GROUP
Info: 976 MIGRATION GROUPS
Info: 3 ATOMS IN LARGEST MIGRATION GROUP
Info: 8 HYDROGEN GROUPS WITH ALL ATOMS FIXED
Info: TOTAL MASS = 17612.5 amu
Info: TOTAL CHARGE = 0.000100002 e
Info: MASS DENSITY = 0.658666 g/cm^3
Info: ATOM DENSITY = 0.0656934 atoms/A^3
Info: ADDED 0 IMPLICIT EXCLUSIONS
Info: NONBONDED TABLE R-SQUARED SPACING: 0.0625
Info: NONBONDED TABLE SIZE: 705 POINTS
Info: REMOVING COM VELOCITY 0.0876629 0.129135 0.14049
TCL: Running for 100000 steps
ETITLE: TS BOND ANGLE DIHED IMPRP ELECT VDW BOUNDARY MISC KINETIC TOTAL TEMP POTENTIAL TOTAL3 TEMPAVG PRESSURE GPRESSURE VOLUME PRESSAVG GPRESSAVG
ENERGY: 0 0.0000 0.0000 0.0000 0.0000 -13492.1663 2352.7189 0.0000 0.0000 1751.3123 -9388.1351 303.4781 -11139.4474 -9387.8135 303.4781 350.0296 390.8098 44403.2267 350.0296 390.8098
ENERGY: 100000 0.0000 0.0000 0.0000 0.0000 -13976.1111 2340.7355 0.0000 0.0000 174.3517 -11461.0239 30.2127 -11635.3756 -11460.4673 30.9474 -756.9343 -691.9452 28932.2166 2.8041 2.7956
TCL: Running 100000 steps at 60 kelvin.
TCL: Setting parameter langevinTemp to 60
TCL: Running for 100000 steps
ETITLE: TS BOND ANGLE DIHED IMPRP ELECT VDW BOUNDARY MISC KINETIC TOTAL TEMP POTENTIAL TOTAL3 TEMPAVG PRESSURE GPRESSURE VOLUME PRESSAVG GPRESSAVG
ENERGY: 100000 0.0000 0.0000 0.0000 0.0000 -13976.1111 2340.7355 0.0000 0.0000 174.2628 -11461.1128 30.1973 -11635.3756 -11460.7010 30.1973 -744.5696 -692.0213 28932.2166 -744.5696 -692.0213
ENERGY: 200000 0.0000 0.0000 0.0000 0.0000 -13993.8584 2403.4743 0.0000 0.0000 344.4493 -11245.9348 59.6883 -11590.3841 -11244.9935 59.7861 -68.6202 -4.8389 28741.3595 4.5069 4.4693
TCL: Running 100000 steps at 90 kelvin.
TCL: Setting parameter langevinTemp to 90
TCL: Running for 100000 steps
ETITLE: TS BOND ANGLE DIHED IMPRP ELECT VDW BOUNDARY MISC KINETIC TOTAL TEMP POTENTIAL TOTAL3 TEMPAVG PRESSURE GPRESSURE VOLUME PRESSAVG GPRESSAVG
ENERGY: 200000 0.0000 0.0000 0.0000 0.0000 -13993.8584 2403.4743 0.0000 0.0000 344.2687 -11246.1154 59.6570 -11590.3841 -11245.4034 59.6570 -59.5278 -4.6971 28741.3595 -59.5278 -4.6971
ENERGY: 300000 0.0000 0.0000 0.0000 0.0000 -13865.9173 2379.0507 0.0000 0.0000 508.4215 -10978.4450 88.1024 -11486.8665 -10977.2224 89.9165 416.7530 448.7538 28410.4965 5.1008 5.1580
TCL: Running 100000 steps at 120 kelvin.
TCL: Setting parameter langevinTemp to 120
TCL: Running for 100000 steps
ETITLE: TS BOND ANGLE DIHED IMPRP ELECT VDW BOUNDARY MISC KINETIC TOTAL TEMP POTENTIAL TOTAL3 TEMPAVG PRESSURE GPRESSURE VOLUME PRESSAVG GPRESSAVG
ENERGY: 300000 0.0000 0.0000 0.0000 0.0000 -13865.9173 2379.0507 0.0000 0.0000 508.1584 -10978.7081 88.0568 -11486.8665 -10977.7442 88.0568 398.2982 448.9619 28410.4965 398.2982 448.9619
ENERGY: 400000 0.0000 0.0000 0.0000 0.0000 -13656.2195 2280.4013 0.0000 0.0000 679.3893 -10696.4289 117.7287 -11375.8182 -10694.3450 119.8344 -261.8715 -187.4885 28510.5476 3.1444 3.1639
TCL: Running 100000 steps at 150 kelvin.
TCL: Setting parameter langevinTemp to 150
TCL: Running for 100000 steps
ETITLE: TS BOND ANGLE DIHED IMPRP ELECT VDW BOUNDARY MISC KINETIC TOTAL TEMP POTENTIAL TOTAL3 TEMPAVG PRESSURE GPRESSURE VOLUME PRESSAVG GPRESSAVG
ENERGY: 400000 0.0000 0.0000 0.0000 0.0000 -13656.2195 2280.4013 0.0000 0.0000 679.0380 -10696.7802 117.6679 -11375.8182 -10695.3090 117.6679 -236.4538 -187.8629 28510.5476 -236.4538 -187.8629
ENERGY: 500000 0.0000 0.0000 0.0000 0.0000 -13538.9066 2320.3391 0.0000 0.0000 885.3932 -10333.1742 153.4264 -11218.5674 -10330.9565 149.8927 928.7423 989.6670 28244.2384 4.6903 4.8391
TCL: Running 100000 steps at 180 kelvin.
TCL: Setting parameter langevinTemp to 180
TCL: Running for 100000 steps
ETITLE: TS BOND ANGLE DIHED IMPRP ELECT VDW BOUNDARY MISC KINETIC TOTAL TEMP POTENTIAL TOTAL3 TEMPAVG PRESSURE GPRESSURE VOLUME PRESSAVG GPRESSAVG
ENERGY: 500000 0.0000 0.0000 0.0000 0.0000 -13538.9066 2320.3391 0.0000 0.0000 884.9505 -10333.6170 153.3496 -11218.5674 -10332.2731 153.3496 922.5763 990.9810 28244.2384 922.5763 990.9810
ENERGY: 600000 0.0000 0.0000 0.0000 0.0000 -12945.7911 2057.9958 0.0000 0.0000 1066.5150 -9821.2803 184.8122 -10887.7952 -9819.2417 180.2186 -288.7323 -184.6372 28598.7169 5.7437 5.8515
TCL: Running 100000 steps at 210 kelvin.
TCL: Setting parameter langevinTemp to 210
TCL: Running for 100000 steps
ETITLE: TS BOND ANGLE DIHED IMPRP ELECT VDW BOUNDARY MISC KINETIC TOTAL TEMP POTENTIAL TOTAL3 TEMPAVG PRESSURE GPRESSURE VOLUME PRESSAVG GPRESSAVG
ENERGY: 600000 0.0000 0.0000 0.0000 0.0000 -12945.7911 2057.9958 0.0000 0.0000 1066.0112 -9821.7840 184.7249 -10887.7952 -9819.2449 184.7249 -251.7261 -185.1281 28598.7169 -251.7261 -185.1281
ENERGY: 700000 0.0000 0.0000 0.0000 0.0000 -12361.3806 1918.8029 0.0000 0.0000 1230.1448 -9212.4328 213.1670 -10442.5776 -9208.2284 209.2793 206.4481 276.0482 28732.9947 4.5390 4.3461
TCL: Running 100000 steps at 240 kelvin.
TCL: Setting parameter langevinTemp to 240
TCL: Running for 100000 steps
ETITLE: TS BOND ANGLE DIHED IMPRP ELECT VDW BOUNDARY MISC KINETIC TOTAL TEMP POTENTIAL TOTAL3 TEMPAVG PRESSURE GPRESSURE VOLUME PRESSAVG GPRESSAVG
ENERGY: 700000 0.0000 0.0000 0.0000 0.0000 -12361.3806 1918.8029 0.0000 0.0000 1229.5165 -9213.0612 213.0581 -10442.5776 -9210.9686 213.0581 207.4818 278.0789 28732.9947 207.4818 278.0789
ENERGY: 800000 0.0000 0.0000 0.0000 0.0000 -11657.0108 1653.7722 0.0000 0.0000 1371.8658 -8631.3728 237.7253 -10003.2386 -8628.3904 239.7648 -314.9248 -249.4667 28667.7309 2.5137 2.6078
TCL: Running 100000 steps at 270 kelvin.
TCL: Setting parameter langevinTemp to 270
TCL: Running for 100000 steps
ETITLE: TS BOND ANGLE DIHED IMPRP ELECT VDW BOUNDARY MISC KINETIC TOTAL TEMP POTENTIAL TOTAL3 TEMPAVG PRESSURE GPRESSURE VOLUME PRESSAVG GPRESSAVG
ENERGY: 800000 0.0000 0.0000 0.0000 0.0000 -11657.0108 1653.7722 0.0000 0.0000 1371.1899 -8632.0487 237.6082 -10003.2386 -8629.9454 237.6082 -315.9868 -247.8838 28667.7309 -315.9868 -247.8838
ENERGY: 900000 0.0000 0.0000 0.0000 0.0000 -11208.5193 1605.8192 0.0000 0.0000 1597.9060 -8004.7941 276.8949 -9602.7002 -8000.1836 270.2434 376.8407 474.0664 29428.8041 2.3647 2.3345
TCL: Running 1000000 steps at 300 kelvin.
TCL: Setting parameter langevinTemp to 300
TCL: Running for 1000000 steps
ETITLE: TS BOND ANGLE DIHED IMPRP ELECT VDW BOUNDARY MISC KINETIC TOTAL TEMP POTENTIAL TOTAL3 TEMPAVG PRESSURE GPRESSURE VOLUME PRESSAVG GPRESSAVG
ENERGY: 900000 0.0000 0.0000 0.0000 0.0000 -11208.5193 1605.8192 0.0000 0.0000 1597.1209 -8005.5793 276.7589 -9602.7002 -8003.6965 276.7589 389.9983 474.9605 29428.8041 389.9983 474.9605
ENERGY: 1100000 0.0000 0.0000 0.0000 0.0000 -10696.0649 1403.0085 0.0000 0.0000 1710.2771 -7582.7793 296.3673 -9293.0564 -7576.5933 299.2805 -411.9536 -281.3385 29877.2597 2.8177 2.8829
ENERGY: 1300000 0.0000 0.0000 0.0000 0.0000 -10758.3464 1509.4750 0.0000 0.0000 1728.7456 -7520.1258 299.5676 -9248.8714 -7514.9158 299.9239 722.5896 786.9881 29909.3741 2.2345 2.0363
ENERGY: 1500000 0.0000 0.0000 0.0000 0.0000 -10731.2075 1429.0732 0.0000 0.0000 1750.1234 -7552.0109 303.2721 -9302.1343 -7548.8980 301.0585 -266.1137 -140.3018 29911.0407 3.9586 3.9856
ENERGY: 1700000 0.0000 0.0000 0.0000 0.0000 -10538.8120 1341.0960 0.0000 0.0000 1713.3015 -7484.4146 296.8914 -9197.7161 -7479.7900 300.3452 -659.6781 -623.1848 30221.3281 4.0801 4.0080
ENERGY: 1900000 0.0000 0.0000 0.0000 0.0000 -10563.7436 1324.0306 0.0000 0.0000 1740.1964 -7499.5166 301.5519 -9239.7130 -7493.4355 299.9087 -1109.2546 -995.9767 30467.5354 3.6623 3.4582
TCL: Exiting due to exit command.
