Info: SIMULATION PARAMETERS:
Info: TIMESTEP               2
Info: NUMBER OF STEPS        0
Info: STEPS PER CYCLE        10
Info: PERIODIC CELL BASIS 1  31.6642 0 0
Info: PERIODIC CELL BASIS 2  0 30.1296 0
Info: PERIODIC CELL BASIS 3  0 0 31.8348
Info: PERIODIC CELL CENTER   0 0 0
Info: WRAPPING WATERS AROUND PERIODIC BOUNDARIES ON OUTPUT.
Info: WRAPPING ALL CLUSTERS AROUND PERIODIC BOUNDARIES ON OUTPUT.
Info: FIRST LDB TIMESTEP     50
Info: LAST LDB TIMESTEP     -1
Info: HOM BACKGROUND SCALING 1
Info: PME BACKGROUND SCALING 1
Info: MIN ATOMS PER PATCH    40
Info: EMPTY PATCH LOAD       40 ATOMS
Info: VELOCITY FILE          mobley_3999471_equil.vel
Info: CENTER OF MASS MOVING INITIALLY? NO
Info: DIELECTRIC             1
Info: EXCLUDE                SCALED ONE-FOUR
Info: 1-4 ELECTROSTATICS SCALED BY 0.833333
Info: MODIFIED 1-4 VDW PARAMETERS WILL BE USED
Info: DCD FILENAME           mobley_3999471_prod.dcd
Info: DCD FREQUENCY          100000
Info: DCD FIRST STEP         100000
Info: DCD FILE WILL CONTAIN UNIT CELL DATA
Info: XST FILENAME           mobley_3999471_prod.xst
Info: XST FREQUENCY          100000
Info: NO VELOCITY DCD OUTPUT
Info: NO FORCE DCD OUTPUT
Info: OUTPUT FILENAME        mobley_3999471_prod
Info: BINARY OUTPUT FILES WILL BE USED
Info: RESTART FILENAME       mobley_3999471_prod.restart
Info: RESTART FREQUENCY      100000
Info: BINARY RESTART FILES WILL BE USED
Info: CUTOFF                 9
Info: PAIRLIST DISTANCE      11
Info: PAIRLIST SHRINK RATE   0.01
Info: PAIRLIST GROW RATE     0.01
Info: PAIRLIST TRIGGER       0.3
Info: PAIRLISTS PER CYCLE    2
Info: PAIRLISTS ENABLED
Info: MARGIN                 2
Info: HYDROGEN GROUP CUTOFF  2.5
Info: PATCH DIMENSION        15.5
Info: ENERGY OUTPUT STEPS    100000
Info: ENERGY EVALUATION STEPS    100000
Info: OUTPUT ENERGY PRECISION 4
Info: CROSSTERM ENERGY INCLUDED IN DIHEDRAL
Info: TIMING OUTPUT STEPS    1000000
Info: PRESSURE OUTPUT STEPS  100000
Info: ALCHEMICAL FEP ON
Info: FEP CURRENT LAMBDA VALUE     0
Info: FEP COMPARISON LAMBDA VALUE  0.05
Info: FEP INTRA-ALCHEMICAL NON-BONDED INTERACTIONS WILL BE RETAINED
Info: FEP INTRA-ALCHEMICAL BONDED INTERACTIONS WILL BE RETAINED
Info: FEP VDW SHIFTING COEFFICIENT 5
Info: FEP ELEC. ACTIVE FOR ANNIHILATED PARTICLES BETWEEN LAMBDA = 0 AND LAMBDA = 0.5
Info: FEP ELEC. ACTIVE FOR EXNIHILATED PARTICLES BETWEEN LAMBDA = 0.5 AND LAMBDA = 1
Info: FEP VDW ACTIVE FOR ANNIHILATED PARTICLES BETWEEN LAMBDA = 0 AND LAMBDA = 1
Info: FEP VDW ACTIVE FOR EXNIHILATED PARTICLES BETWEEN LAMBDA = 0 AND LAMBDA = 1
Info: FEP BOND ACTIVE FOR ANNIHILATED PARTICLES BETWEEN LAMBDA = 1 AND LAMBDA = 1
Info: FEP BOND ACTIVE FOR EXNIHILATED PARTICLES BETWEEN LAMBDA = 0 AND LAMBDA = 0
Info: LANGEVIN DYNAMICS ACTIVE
Info: LANGEVIN TEMPERATURE   300
Info: LANGEVIN USING BBK INTEGRATOR
Info: LANGEVIN DAMPING COEFFICIENT IS 1 INVERSE PS
Info: LANGEVIN DYNAMICS APPLIED TO HYDROGENS
Info: LANGEVIN PISTON PRESSURE CONTROL ACTIVE
Info:        TARGET PRESSURE IS 1.01325 BAR
Info:     OSCILLATION PERIOD IS 50 FS
Info:             DECAY TIME IS 25 FS
Info:     PISTON TEMPERATURE IS 300 K
Info:       PRESSURE CONTROL IS GROUP-BASED
Info:    INITIAL STRAIN RATE IS -0.000333283 -0.000333283 -0.000333283
Info:       CELL FLUCTUATION IS ISOTROPIC
Info: PARTICLE MESH EWALD (PME) ACTIVE
Info: PME TOLERANCE               1e-06
Info: PME EWALD COEFFICIENT       0.348832
Info: PME INTERPOLATION ORDER     4
Info: PME GRID DIMENSIONS         32 32 32
Info: PME MAXIMUM GRID SPACING    1
Info: PME CALCULATION WILL BE PERFORMED ON GPU
Info: FULL ELECTROSTATIC EVALUATION FREQUENCY      2
Info: USING VERLET I (r-RESPA) MTS SCHEME.
Info: C1 SPLITTING OF LONG RANGE ELECTROSTATICS
Info: PLACING ATOMS IN PATCHES BY HYDROGEN GROUPS
Info: RIGID BONDS TO HYDROGEN : ALL
Info:         ERROR TOLERANCE : 1e-08
Info:          MAX ITERATIONS : 100
Info: RIGID WATER USING SETTLE ALGORITHM
Info: RANDOM NUMBER SEED     1742409609
Info: USE HYDROGEN BONDS?    NO
Info: Using AMBER format force field!
Info: AMBER PARM FILE        mobley_3999471.prmtop
Info: COORDINATE PDB         mobley_3999471.pdb
Info: Exclusions will be read from PARM file!
Info: SCNB (VDW SCALING)     2
Info: USING ARITHMETIC MEAN TO COMBINE L-J SIGMA PARAMETERS
Info: BINARY COORDINATES     mobley_3999471_equil.coor
Info: SUMMARY OF PARAMETERS:
Info: 6 BONDS
Info: 6 ANGLES
Info:   6 HARMONIC
Info:   0 COSINE-BASED
Info: 2 DIHEDRAL
Info: 0 IMPROPER
Info: 0 CROSSTERM
Info: 0 VDW
Info: 21 VDW_PAIRS
Info: 0 NBTHOLE_PAIRS
Info: To read alchdata from file: mobley_3999471.pdb
Info: To read alchflag data from column: 5
Info: STRUCTURE SUMMARY:
Info: 2981 ATOMS
Info: 2980 BONDS
Info: 12 ANGLES
Info: 9 DIHEDRALS
Info: 0 IMPROPERS
Info: 0 CROSSTERMS
Info: 3001 EXCLUSIONS
Info: 2977 RIGID BONDS
Info: ALCH: 0 ATOMS TO DISAPPEAR IN FINAL STATE
Info: ALCH: 8 ATOMS TO APPEAR IN FINAL STATE
Info: 5966 DEGREES OF FREEDOM
Info: 995 HYDROGEN GROUPS
Info: 4 ATOMS IN LARGEST HYDROGEN GROUP
Info: 995 MIGRATION GROUPS
Info: 4 ATOMS IN LARGEST MIGRATION GROUP
Info: TOTAL MASS = 17952.8 amu
Info: TOTAL CHARGE = 0.000100009 e
Info: MASS DENSITY = 0.981586 g/cm^3
Info: ATOM DENSITY = 0.0981519 atoms/A^3
Info: ADDED 0 IMPLICIT EXCLUSIONS
Info: NONBONDED TABLE R-SQUARED SPACING: 0.0625
Info: NONBONDED TABLE SIZE: 705 POINTS
Info: REMOVING COM VELOCITY 0.0715289 0.177912 -0.0144255
Info: Use 3D box decompostion in PME FFT.
Info: Updated CUDA force table with 4096 elements.
Info: Updated CUDA LJ table with 6 x 6 elements.
Info: Found 11 unique exclusion lists needing 16 bytes
TCL: Running for 1500000 steps
ETITLE: TS BOND ANGLE DIHED IMPRP ELECT VDW BOUNDARY MISC KINETIC TOTAL TEMP POTENTIAL TOTALAVG TEMPAVG PRESSURE GPRESSURE VOLUME PRESSAVG GPRESSAVG
ENERGY: 0 0.1663 2.6926 0.0614 0.0000 -10858.9873 1517.5082 0.0000 0.0000 1792.6532 -7545.9055 302.4151 -9338.5587 -7545.9055 302.4151 714.5162 801.2744 30371.2885 714.5162 801.2744
ENERGY: 300000 1.1061 2.5822 0.0784 0.0000 -10854.8144 1463.2830 0.0000 0.0000 1752.8055 -7634.9593 295.6929 -9387.7647 -7551.3836 304.0246 -91.2260 11.7523 30557.4787 143.9052 237.4411
ENERGY: 600000 2.1459 2.5109 0.6273 0.0000 -10804.9179 1441.4144 0.0000 0.0000 1768.4318 -7589.7876 298.3290 -9358.2194 -7576.3588 302.9608 -359.8045 -297.6078 31031.0277 146.2668 215.3919
ENERGY: 900000 0.5072 5.9269 0.0788 0.0000 -10828.9028 1478.9532 0.0000 0.0000 1732.8743 -7610.5626 292.3305 -9343.4368 -7584.7085 301.1890 258.7056 311.1249 30427.7772 101.0138 162.9100
ENERGY: 1200000 2.2433 6.4176 0.0545 0.0000 -10885.1416 1419.5605 0.0000 0.0000 1792.1305 -7664.7351 302.3269 -9456.8656 -7572.7769 303.0564 -480.8948 -435.1626 30249.1652 54.4188 113.5084
ENERGY: 1500000 0.7471 2.6950 0.3515 0.0000 -10914.3763 1455.0888 0.0000 0.0000 1813.9042 -7641.5896 306.0000 -9455.4938 -7580.4293 302.9177 -291.1275 -267.3654 30653.0588 -64.9712 -7.6968
TCL: Running FEP window   2: Lambda1 0.05   Lambda2 0.1    [dLambda 0.05  ]
TCL: Setting parameter firsttimestep to 0
TCL: Setting parameter alchLambda to 0.05
Info: NONBONDED TABLE R-SQUARED SPACING: 0.0625
Info: NONBONDED TABLE SIZE: 705 POINTS
TCL: Setting parameter alchLambda2 to 0.1
Info: NONBONDED TABLE R-SQUARED SPACING: 0.0625
Info: NONBONDED TABLE SIZE: 705 POINTS
TCL: Running for 1500000 steps
ETITLE: TS BOND ANGLE DIHED IMPRP ELECT VDW BOUNDARY MISC KINETIC TOTAL TEMP POTENTIAL TOTALAVG TEMPAVG PRESSURE GPRESSURE VOLUME PRESSAVG GPRESSAVG
ENERGY: 0 0.7471 2.6950 0.3515 0.0000 -10914.3771 1456.5011 0.0000 0.0000 1813.0176 -7641.0648 305.8505 -9454.0824 -7641.0648 305.8505 -350.0612 -261.5700 30653.0588 -350.0612 -261.5700
ENERGY: 300000 0.9801 3.4654 0.1553 0.0000 -10734.4566 1399.4327 0.0000 0.0000 1826.0862 -7504.3368 308.0551 -9330.4230 -7623.6561 303.2937 -435.8026 -319.1541 30846.5274 -284.5125 -189.4297
ENERGY: 600000 2.3967 2.7385 0.1385 0.0000 -10777.7238 1386.2027 0.0000 0.0000 1794.1119 -7592.1355 302.6611 -9386.2474 -7585.7950 301.4714 -830.9611 -838.9151 31020.0825 -377.7481 -302.8199
ENERGY: 900000 2.1620 4.4304 0.0908 0.0000 -10762.6945 1425.9115 0.0000 0.0000 1739.4259 -7590.6738 293.4358 -9330.0997 -7595.2046 299.1809 -233.0871 -130.6483 30395.7853 -179.0105 -108.4836
ENERGY: 1200000 2.1574 2.7270 0.2819 0.0000 -10911.7184 1545.8635 0.0000 0.0000 1808.6958 -7551.9929 305.1214 -9360.6886 -7589.5092 299.0730 430.7939 570.9701 30847.8154 -120.5016 -49.4034
ENERGY: 1500000 0.1447 1.2219 0.2379 0.0000 -10876.4093 1474.9675 0.0000 0.0000 1772.3049 -7627.5324 298.9824 -9399.8372 -7597.6871 299.2774 -121.0342 -107.5312 31036.8616 -141.9452 -69.6208
TCL: Running FEP window   3: Lambda1 0.1    Lambda2 0.15000000000000002 [dLambda 0.05000000000000002]
TCL: Setting parameter firsttimestep to 0
TCL: Setting parameter alchLambda to 0.1
Info: NONBONDED TABLE R-SQUARED SPACING: 0.0625
Info: NONBONDED TABLE SIZE: 705 POINTS
TCL: Setting parameter alchLambda2 to 0.15000000000000002
Info: NONBONDED TABLE R-SQUARED SPACING: 0.0625
Info: NONBONDED TABLE SIZE: 705 POINTS
TCL: Running for 1500000 steps
ETITLE: TS BOND ANGLE DIHED IMPRP ELECT VDW BOUNDARY MISC KINETIC TOTAL TEMP POTENTIAL TOTALAVG TEMPAVG PRESSURE GPRESSURE VOLUME PRESSAVG GPRESSAVG
ENERGY: 0 0.1447 1.2219 0.2379 0.0000 -10876.4104 1476.4613 0.0000 0.0000 1771.4396 -7626.9050 298.8364 -9398.3446 -7626.9050 298.8364 -180.1069 -102.5822 31036.8616 -180.1069 -102.5822
ENERGY: 300000 3.1125 1.9230 0.4240 0.0000 -10773.9517 1496.0697 0.0000 0.0000 1775.5241 -7496.8983 299.5254 -9272.4224 -7557.0067 301.7389 595.9994 679.7197 30536.8335 -256.7738 -176.4023
ENERGY: 600000 1.6694 3.2284 0.0356 0.0000 -10852.4864 1399.3074 0.0000 0.0000 1734.8745 -7713.3710 292.6680 -9448.2455 -7596.5375 299.8150 -825.6349 -794.1766 30833.0535 -384.5612 -326.1424
ENERGY: 900000 0.7874 4.5985 0.4128 0.0000 -10816.5809 1506.0605 0.0000 0.0000 1778.5570 -7526.1648 300.0371 -9304.7218 -7597.7691 299.1867 603.6666 724.2296 30642.4858 -314.9611 -238.9791
ENERGY: 1200000 0.3422 1.8202 0.2166 0.0000 -10785.4503 1379.5600 0.0000 0.0000 1774.7393 -7628.7721 299.3930 -9403.5114 -7594.4215 299.7672 -846.0034 -759.0174 30886.8680 -358.1355 -282.3738
ENERGY: 1500000 0.2801 3.8189 2.2168 0.0000 -10841.4289 1462.7991 0.0000 0.0000 1718.9567 -7653.3573 289.9827 -9372.3140 -7591.4440 299.3854 -148.7670 12.9758 30602.9970 -236.3905 -153.3942
TCL: Running FEP window   4: Lambda1 0.15000000000000002 Lambda2 0.2    [dLambda 0.04999999999999999]
TCL: Setting parameter firsttimestep to 0
TCL: Setting parameter alchLambda to 0.15000000000000002
Info: NONBONDED TABLE R-SQUARED SPACING: 0.0625
Info: NONBONDED TABLE SIZE: 705 POINTS
TCL: Setting parameter alchLambda2 to 0.2
Info: NONBONDED TABLE R-SQUARED SPACING: 0.0625
Info: NONBONDED TABLE SIZE: 705 POINTS
TCL: Running for 1500000 steps
ETITLE: TS BOND ANGLE DIHED IMPRP ELECT VDW BOUNDARY MISC KINETIC TOTAL TEMP POTENTIAL TOTALAVG TEMPAVG PRESSURE GPRESSURE VOLUME PRESSAVG GPRESSAVG
ENERGY: 0 0.2801 3.8189 2.2168 0.0000 -10841.4286 1463.9565 0.0000 0.0000 1718.1055 -7653.0508 289.8391 -9371.1563 -7653.0508 289.8391 -71.3481 21.4550 30602.9970 -71.3481 21.4550
ENERGY: 300000 0.4294 2.8551 0.0674 0.0000 -10757.4211 1382.8097 0.0000 0.0000 1807.2290 -7564.0305 304.8740 -9371.2595 -7604.8455 295.9636 -717.9663 -666.2304 30975.5923 -280.7068 -233.4490
ENERGY: 600000 1.1834 4.0366 0.0652 0.0000 -10764.8934 1372.4522 0.0000 0.0000 1829.5158 -7557.6401 308.6337 -9387.1560 -7577.8454 299.8718 -855.3159 -735.3961 30682.9124 -309.1075 -245.8866
ENERGY: 900000 2.4956 2.9982 0.2157 0.0000 -10918.2425 1474.8974 0.0000 0.0000 1741.6443 -7695.9913 293.8100 -9437.6356 -7596.9818 298.9165 -89.1445 -14.7373 30530.1353 -238.9871 -179.5612
ENERGY: 1200000 0.2803 4.6933 0.0708 0.0000 -10721.9607 1427.0476 0.0000 0.0000 1735.5106 -7554.3582 292.7753 -9289.8688 -7589.5943 298.7268 -214.7101 -215.8644 31086.5580 -132.9350 -72.9556
ENERGY: 1500000 1.1399 1.1087 0.0175 0.0000 -10911.1545 1501.3406 0.0000 0.0000 1755.2128 -7652.3349 296.0990 -9407.5477 -7593.1692 299.0549 353.1316 367.0204 30397.1998 -127.5222 -69.5798
TCL: Running FEP window   5: Lambda1 0.2    Lambda2 0.25   [dLambda 0.04999999999999999]
TCL: Setting parameter firsttimestep to 0
TCL: Setting parameter alchLambda to 0.2
Info: NONBONDED TABLE R-SQUARED SPACING: 0.0625
Info: NONBONDED TABLE SIZE: 705 POINTS
TCL: Setting parameter alchLambda2 to 0.25
Info: NONBONDED TABLE R-SQUARED SPACING: 0.0625
Info: NONBONDED TABLE SIZE: 705 POINTS
TCL: Running for 1500000 steps
ETITLE: TS BOND ANGLE DIHED IMPRP ELECT VDW BOUNDARY MISC KINETIC TOTAL TEMP POTENTIAL TOTALAVG TEMPAVG PRESSURE GPRESSURE VOLUME PRESSAVG GPRESSAVG
ENERGY: 0 1.1399 1.1087 0.0175 0.0000 -10911.1538 1502.4639 0.0000 0.0000 1754.3331 -7652.0907 295.9506 -9406.4238 -7652.0907 295.9506 289.0061 373.9588 30397.1998 289.0061 373.9588
ENERGY: 300000 1.6411 4.6094 0.9235 0.0000 -10792.9810 1425.3717 0.0000 0.0000 1708.3020 -7652.1333 288.1853 -9360.4353 -7653.3679 297.9466 -287.2784 -196.0244 30738.3691 152.4668 238.3925
ENERGY: 600000 1.8553 3.0311 0.5251 0.0000 -10664.9013 1362.7238 0.0000 0.0000 1805.6905 -7491.0754 304.6144 -9296.7659 -7614.6452 300.2276 -605.7570 -606.2362 30822.3045 -0.4061 71.6644
ENERGY: 900000 0.2420 2.5249 0.2709 0.0000 -10860.1510 1462.4606 0.0000 0.0000 1767.5582 -7627.0943 298.1816 -9394.6525 -7602.0085 301.1914 98.3109 150.7759 30348.6464 -5.4346 63.5022
ENERGY: 1200000 1.4319 4.3224 0.4641 0.0000 -10772.7873 1492.6563 0.0000 0.0000 1783.2929 -7490.6197 300.8360 -9273.9126 -7601.1109 300.8228 381.6151 441.0365 30917.4984 -29.8351 38.2295
ENERGY: 1500000 1.5304 0.8480 3.0616 0.0000 -10815.1276 1391.6420 0.0000 0.0000 1732.3365 -7685.7092 292.2398 -9418.0456 -7608.2356 300.9881 -589.1888 -513.1892 30285.5213 -30.4780 42.5891
TCL: Running FEP window   6: Lambda1 0.25   Lambda2 0.3    [dLambda 0.04999999999999999]
TCL: Setting parameter firsttimestep to 0
TCL: Setting parameter alchLambda to 0.25
Info: NONBONDED TABLE R-SQUARED SPACING: 0.0625
Info: NONBONDED TABLE SIZE: 705 POINTS
TCL: Setting parameter alchLambda2 to 0.3
Info: NONBONDED TABLE R-SQUARED SPACING: 0.0625
Info: NONBONDED TABLE SIZE: 705 POINTS
TCL: Running for 1500000 steps
ETITLE: TS BOND ANGLE DIHED IMPRP ELECT VDW BOUNDARY MISC KINETIC TOTAL TEMP POTENTIAL TOTALAVG TEMPAVG PRESSURE GPRESSURE VOLUME PRESSAVG GPRESSAVG
ENERGY: 0 1.5304 0.8480 3.0616 0.0000 -10815.1280 1393.2880 0.0000 0.0000 1731.4676 -7684.9325 292.0932 -9416.4000 -7684.9325 292.0932 -579.1200 -498.4571 30285.5213 -579.1200 -498.4571
ENERGY: 300000 0.7245 3.3633 0.0864 0.0000 -10766.2354 1413.7284 0.0000 0.0000 1745.1012 -7603.2316 294.3932 -9348.3328 -7635.6480 298.2045 -303.3383 -186.3285 30746.9416 -64.0804 7.5093
ENERGY: 600000 0.4696 3.9470 0.2933 0.0000 -10848.9982 1512.1552 0.0000 0.0000 1767.9850 -7564.1482 298.2536 -9332.1332 -7620.7752 297.5717 428.8250 472.4307 30848.3773 75.8356 137.0416
ENERGY: 900000 2.9838 5.8298 1.3625 0.0000 -10832.7851 1466.4849 0.0000 0.0000 1818.9755 -7537.1485 306.8556 -9356.1241 -7598.7925 299.1425 0.8925 119.9531 30821.7838 -93.2331 -28.0011
ENERGY: 1200000 0.9983 2.5247 1.6534 0.0000 -10973.2677 1581.7310 0.0000 0.0000 1772.5296 -7613.8308 299.0203 -9386.3604 -7600.7758 299.0662 835.8870 882.4327 30686.2437 23.4613 85.2684
ENERGY: 1500000 1.2674 4.1629 1.3340 0.0000 -10785.0184 1421.5662 0.0000 0.0000 1745.4857 -7611.2022 294.4581 -9356.6879 -7600.2362 298.0839 -126.9476 -150.9381 30832.8981 52.3615 111.0800
TCL: Running FEP window   7: Lambda1 0.3    Lambda2 0.35   [dLambda 0.04999999999999999]
TCL: Setting parameter firsttimestep to 0
TCL: Setting parameter alchLambda to 0.3
Info: NONBONDED TABLE R-SQUARED SPACING: 0.0625
Info: NONBONDED TABLE SIZE: 705 POINTS
TCL: Setting parameter alchLambda2 to 0.35
Info: NONBONDED TABLE R-SQUARED SPACING: 0.0625
Info: NONBONDED TABLE SIZE: 705 POINTS
TCL: Running for 1500000 steps
ETITLE: TS BOND ANGLE DIHED IMPRP ELECT VDW BOUNDARY MISC KINETIC TOTAL TEMP POTENTIAL TOTALAVG TEMPAVG PRESSURE GPRESSURE VOLUME PRESSAVG GPRESSAVG
ENERGY: 0 1.2674 4.1629 1.3340 0.0000 -10785.0198 1422.5252 0.0000 0.0000 1744.6343 -7611.0960 294.3144 -9355.7303 -7611.0960 294.3144 -216.5735 -142.3220 30832.8981 -216.5735 -142.3220
ENERGY: 300000 1.4620 4.5569 0.1104 0.0000 -10947.7139 1506.6332 0.0000 0.0000 1749.2593 -7685.6920 295.0946 -9434.9513 -7605.2496 299.8443 238.9144 358.4175 30266.6232 196.1962 257.0688
ENERGY: 600000 0.9419 3.7447 0.3261 0.0000 -10902.2920 1490.0673 0.0000 0.0000 1765.5039 -7641.7083 297.8351 -9407.2121 -7594.6206 300.6115 -107.5478 -5.5113 30851.2897 164.3931 220.2559
ENERGY: 900000 1.2079 2.2098 0.1058 0.0000 -10901.4054 1525.8166 0.0000 0.0000 1735.4566 -7636.6087 292.7662 -9372.0652 -7602.2928 299.3177 548.4848 602.8123 30459.1349 226.7629 284.3804
ENERGY: 1200000 1.4487 1.7629 0.8267 0.0000 -10769.7449 1405.4384 0.0000 0.0000 1793.5874 -7566.6807 302.5727 -9360.2682 -7605.3247 299.0622 -672.4734 -624.4907 31145.2984 135.3217 190.8022
ENERGY: 1500000 0.2941 1.6841 0.1968 0.0000 -10811.9148 1430.7315 0.0000 0.0000 1808.0384 -7570.9698 305.0105 -9379.0083 -7602.4465 300.0275 -234.7989 -199.1423 30724.6642 84.0221 137.4968
TCL: Running FEP window   8: Lambda1 0.35   Lambda2 0.39999999999999997 [dLambda 0.04999999999999999]
TCL: Setting parameter firsttimestep to 0
TCL: Setting parameter alchLambda to 0.35
Info: NONBONDED TABLE R-SQUARED SPACING: 0.0625
Info: NONBONDED TABLE SIZE: 705 POINTS
TCL: Setting parameter alchLambda2 to 0.39999999999999997
Info: NONBONDED TABLE R-SQUARED SPACING: 0.0625
Info: NONBONDED TABLE SIZE: 705 POINTS
TCL: Running for 1500000 steps
ETITLE: TS BOND ANGLE DIHED IMPRP ELECT VDW BOUNDARY MISC KINETIC TOTAL TEMP POTENTIAL TOTALAVG TEMPAVG PRESSURE GPRESSURE VOLUME PRESSAVG GPRESSAVG
ENERGY: 0 0.2941 1.6841 0.1968 0.0000 -10811.9150 1430.5839 0.0000 0.0000 1807.1552 -7572.0009 304.8615 -9379.1561 -7572.0009 304.8615 -285.4981 -196.7748 30724.6642 -285.4981 -196.7748
ENERGY: 300000 0.6463 4.5567 0.5898 0.0000 -10654.7320 1350.0774 0.0000 0.0000 1789.9972 -7508.8647 301.9670 -9298.8619 -7545.4795 304.2482 -747.3524 -738.6830 31093.5765 -523.4074 -463.5499
ENERGY: 600000 1.9421 1.6004 0.3594 0.0000 -10742.8204 1396.0976 0.0000 0.0000 1753.7712 -7589.0498 295.8558 -9342.8210 -7561.3070 302.4200 -385.1638 -335.2780 30909.4212 -346.1905 -275.8760
ENERGY: 900000 0.9174 2.0557 1.0586 0.0000 -10815.8662 1428.5933 0.0000 0.0000 1789.2692 -7593.9720 301.8442 -9383.2412 -7573.0641 301.9303 -207.0439 -153.2438 30339.6448 -214.6756 -155.8757
ENERGY: 1200000 1.9710 3.9683 0.0331 0.0000 -10862.8565 1476.1816 0.0000 0.0000 1825.3141 -7555.3884 307.9249 -9380.7025 -7563.8409 303.0731 172.6767 189.8650 30678.3374 -187.0324 -134.7094
ENERGY: 1500000 0.5046 2.8325 0.1960 0.0000 -10967.6261 1542.5011 0.0000 0.0000 1700.2153 -7721.3765 286.8211 -9421.5917 -7582.4979 300.9481 641.8048 655.3495 30387.0726 -108.9511 -59.3145
TCL: Running FEP window   9: Lambda1 0.39999999999999997 Lambda2 0.44999999999999996 [dLambda 0.04999999999999999]
TCL: Setting parameter firsttimestep to 0
TCL: Setting parameter alchLambda to 0.39999999999999997
Info: NONBONDED TABLE R-SQUARED SPACING: 0.0625
Info: NONBONDED TABLE SIZE: 705 POINTS
TCL: Setting parameter alchLambda2 to 0.44999999999999996
Info: NONBONDED TABLE R-SQUARED SPACING: 0.0625
Info: NONBONDED TABLE SIZE: 705 POINTS
TCL: Running for 1500000 steps
ETITLE: TS BOND ANGLE DIHED IMPRP ELECT VDW BOUNDARY MISC KINETIC TOTAL TEMP POTENTIAL TOTALAVG TEMPAVG PRESSURE GPRESSURE VOLUME PRESSAVG GPRESSAVG
ENERGY: 0 0.5046 2.8325 0.1960 0.0000 -10967.6261 1542.3651 0.0000 0.0000 1699.3584 -7722.3694 286.6765 -9421.7278 -7722.3694 286.6765 584.7764 659.4929 30387.0726 584.7764 659.4929
ENERGY: 300000 1.1107 0.9058 0.3029 0.0000 -10715.5799 1373.3467 0.0000 0.0000 1793.0220 -7546.8918 302.4773 -9339.9138 -7642.0250 296.0486 -812.3941 -776.3061 31264.9690 81.6384 139.1367
ENERGY: 600000 1.1193 2.2123 0.2915 0.0000 -10994.3671 1550.8896 0.0000 0.0000 1822.4326 -7617.4218 307.4388 -9439.8544 -7602.3985 300.7062 713.4025 746.6465 30322.9240 122.5413 178.5336
ENERGY: 900000 1.2198 1.6013 0.3566 0.0000 -10810.9779 1464.0184 0.0000 0.0000 1777.7789 -7566.0029 299.9058 -9343.7819 -7591.3438 299.7176 374.8380 407.9341 30171.6779 174.9646 232.2106
ENERGY: 1200000 0.3450 1.7392 0.1202 0.0000 -10869.3321 1514.2351 0.0000 0.0000 1732.2041 -7620.6886 292.2175 -9352.8926 -7589.7185 299.5632 575.5238 620.4920 30466.5219 256.2450 309.7171
ENERGY: 1500000 2.4774 4.8914 0.0926 0.0000 -10752.7788 1407.1577 0.0000 0.0000 1781.5965 -7556.5631 300.5498 -9338.1597 -7580.7794 299.4817 -145.7580 -32.3331 30317.4635 126.6849 184.8241
TCL: Running FEP window  10: Lambda1 0.44999999999999996 Lambda2 0.49999999999999994 [dLambda 0.04999999999999999]
TCL: Setting parameter firsttimestep to 0
TCL: Setting parameter alchLambda to 0.44999999999999996
Info: NONBONDED TABLE R-SQUARED SPACING: 0.0625
Info: NONBONDED TABLE SIZE: 705 POINTS
TCL: Setting parameter alchLambda2 to 0.49999999999999994
Info: NONBONDED TABLE R-SQUARED SPACING: 0.0625
Info: NONBONDED TABLE SIZE: 705 POINTS
TCL: Running for 1500000 steps
ETITLE: TS BOND ANGLE DIHED IMPRP ELECT VDW BOUNDARY MISC KINETIC TOTAL TEMP POTENTIAL TOTALAVG TEMPAVG PRESSURE GPRESSURE VOLUME PRESSAVG GPRESSAVG
ENERGY: 0 2.4774 4.8914 0.0926 0.0000 -10752.7787 1406.9673 0.0000 0.0000 1780.6877 -7557.6623 300.3965 -9338.3500 -7557.6623 300.3965 -109.9928 -28.8729 30317.4635 -109.9928 -28.8729
ENERGY: 300000 0.1519 3.7963 1.7367 0.0000 -10857.8236 1474.6250 0.0000 0.0000 1802.1585 -7575.3552 304.0186 -9377.5137 -7557.9852 303.4245 -5.1832 73.6455 30852.6461 -151.3709 -87.0207
ENERGY: 600000 1.5190 3.4701 0.3562 0.0000 -10762.8833 1412.7809 0.0000 0.0000 1802.3373 -7542.4197 304.0487 -9344.7570 -7560.0307 302.7216 -437.3951 -339.0430 30897.4866 -79.6527 -13.9268
ENERGY: 900000 0.3239 0.9733 0.0242 0.0000 -10953.6785 1523.6992 0.0000 0.0000 1757.7945 -7670.8634 296.5345 -9428.6579 -7571.2426 302.0064 416.1744 519.4745 30528.9055 17.9656 81.1830
ENERGY: 1200000 0.7639 2.1531 0.3331 0.0000 -10798.3639 1427.5870 0.0000 0.0000 1805.1814 -7562.3454 304.5285 -9367.5268 -7560.7648 303.2648 -294.5021 -172.3004 30850.7060 -89.2180 -20.7712
ENERGY: 1500000 1.2292 2.5756 0.0419 0.0000 -10789.1527 1365.1334 0.0000 0.0000 1821.8505 -7598.3222 307.3406 -9420.1726 -7567.3410 302.8836 -892.5781 -795.9101 30585.3089 -164.3083 -101.0011
TCL: Running FEP window  11: Lambda1 0.49999999999999994 Lambda2 0.5499999999999999 [dLambda 0.04999999999999999]
TCL: Setting parameter firsttimestep to 0
TCL: Setting parameter alchLambda to 0.49999999999999994
Info: NONBONDED TABLE R-SQUARED SPACING: 0.0625
Info: NONBONDED TABLE SIZE: 705 POINTS
TCL: Setting parameter alchLambda2 to 0.5499999999999999
Info: NONBONDED TABLE R-SQUARED SPACING: 0.0625
Info: NONBONDED TABLE SIZE: 705 POINTS
TCL: Running for 1500000 steps
ETITLE: TS BOND ANGLE DIHED IMPRP ELECT VDW BOUNDARY MISC KINETIC TOTAL TEMP POTENTIAL TOTALAVG TEMPAVG PRESSURE GPRESSURE VOLUME PRESSAVG GPRESSAVG
ENERGY: 0 1.2292 2.5756 0.0419 0.0000 -10789.1537 1364.7826 0.0000 0.0000 1820.9605 -7599.5641 307.1904 -9420.5245 -7599.5641 307.1904 -890.3987 -793.0319 30585.3089 -890.3987 -793.0319
ENERGY: 300000 2.0500 3.0143 0.3586 0.0000 -10861.8675 1536.4525 0.0000 0.0000 1726.2805 -7593.7116 291.2182 -9319.9921 -7563.4264 301.6379 379.6987 463.4418 31070.1818 8.8289 91.1020
ENERGY: 600000 0.3627 3.5884 0.9123 0.0000 -10810.0046 1455.3251 0.0000 0.0000 1820.8880 -7528.9281 307.1782 -9349.8161 -7552.9456 302.9169 124.1650 180.6602 30442.2436 -102.2565 -30.4556
ENERGY: 900000 1.1614 2.2683 0.0853 0.0000 -10905.6804 1451.8136 0.0000 0.0000 1781.4792 -7668.8725 300.5300 -9450.3517 -7576.8368 302.7236 -332.3685 -299.6838 30478.0110 -119.9817 -53.1821
ENERGY: 1200000 0.4536 3.5830 0.0737 0.0000 -10902.5451 1538.5866 0.0000 0.0000 1825.6275 -7534.2207 307.9777 -9359.8483 -7572.7069 302.6740 682.3608 713.4951 30621.9200 -58.7083 3.4410
ENERGY: 1500000 1.3577 1.9647 0.0173 0.0000 -10787.8330 1378.1166 0.0000 0.0000 1757.0971 -7649.2795 296.4169 -9406.3766 -7583.3392 302.0314 -758.0816 -674.1375 30756.4389 -125.9772 -59.2651
TCL: Running FEP window  12: Lambda1 0.5499999999999999 Lambda2 0.6    [dLambda 0.050000000000000044]
TCL: Setting parameter firsttimestep to 0
TCL: Setting parameter alchLambda to 0.5499999999999999
Info: NONBONDED TABLE R-SQUARED SPACING: 0.0625
Info: NONBONDED TABLE SIZE: 705 POINTS
TCL: Setting parameter alchLambda2 to 0.6
Info: NONBONDED TABLE R-SQUARED SPACING: 0.0625
Info: NONBONDED TABLE SIZE: 705 POINTS
TCL: Running for 1500000 steps
ETITLE: TS BOND ANGLE DIHED IMPRP ELECT VDW BOUNDARY MISC KINETIC TOTAL TEMP POTENTIAL TOTALAVG TEMPAVG PRESSURE GPRESSURE VOLUME PRESSAVG GPRESSAVG
ENERGY: 0 1.3577 1.9647 0.0173 0.0000 -10787.8649 1378.3485 0.0000 0.0000 1756.2284 -7649.9482 296.2703 -9406.1766 -7649.9482 296.2703 -743.7828 -665.2762 30756.4389 -743.7828 -665.2762
ENERGY: 300000 2.3640 3.5405 0.6208 0.0000 -10761.6798 1427.4580 0.0000 0.0000 1769.4921 -7558.2044 298.5079 -9327.6965 -7593.2863 299.4403 -114.0575 -124.5022 30654.8488 -523.2915 -477.9741
ENERGY: 600000 0.7616 5.3453 0.0639 0.0000 -10865.1491 1481.2067 0.0000 0.0000 1774.0277 -7603.7439 299.2730 -9377.7716 -7581.6994 300.0946 -145.6488 -11.4803 30933.5519 -410.3457 -336.5711
ENERGY: 900000 0.2257 3.3190 0.1239 0.0000 -10751.0975 1443.3370 0.0000 0.0000 1798.8645 -7505.2274 303.4629 -9304.0919 -7587.9584 299.4975 14.1985 111.0592 30876.5769 -369.4857 -303.3474
ENERGY: 1200000 0.6408 5.1986 0.0855 0.0000 -10883.0618 1440.1614 0.0000 0.0000 1782.6169 -7654.3587 300.7220 -9436.9756 -7589.5179 300.1776 -182.3158 -183.0978 30491.5783 -355.8090 -294.6761
ENERGY: 1500000 1.8744 2.7686 0.2899 0.0000 -10895.9486 1529.2796 0.0000 0.0000 1703.4285 -7658.3074 287.3631 -9361.7359 -7601.7831 299.2335 619.5027 681.6523 30744.8594 -276.3921 -214.3903
TCL: Running FEP window  13: Lambda1 0.6    Lambda2 0.65   [dLambda 0.050000000000000044]
TCL: Setting parameter firsttimestep to 0
TCL: Setting parameter alchLambda to 0.6
Info: NONBONDED TABLE R-SQUARED SPACING: 0.0625
Info: NONBONDED TABLE SIZE: 705 POINTS
TCL: Setting parameter alchLambda2 to 0.65
Info: NONBONDED TABLE R-SQUARED SPACING: 0.0625
Info: NONBONDED TABLE SIZE: 705 POINTS
TCL: Running for 1500000 steps
ETITLE: TS BOND ANGLE DIHED IMPRP ELECT VDW BOUNDARY MISC KINETIC TOTAL TEMP POTENTIAL TOTALAVG TEMPAVG PRESSURE GPRESSURE VOLUME PRESSAVG GPRESSAVG
ENERGY: 0 1.8744 2.7686 0.2899 0.0000 -10896.1496 1529.5832 0.0000 0.0000 1702.5792 -7659.0543 287.2199 -9361.6335 -7659.0543 287.2199 615.9236 689.8141 30744.8594 615.9236 689.8141
ENERGY: 300000 1.6920 1.9233 0.1014 0.0000 -10891.0856 1531.1972 0.0000 0.0000 1804.4692 -7551.7026 304.4084 -9356.1718 -7617.9268 296.7142 694.8946 788.7458 30423.9469 441.7992 517.8774
ENERGY: 600000 0.3408 0.8964 0.1642 0.0000 -10816.8589 1454.8483 0.0000 0.0000 1752.9603 -7607.6489 295.7190 -9360.6092 -7602.3030 297.2348 78.9809 99.8554 30612.7276 11.2171 64.7775
ENERGY: 900000 1.1302 2.7949 0.4350 0.0000 -10828.4291 1458.1060 0.0000 0.0000 1804.8110 -7561.1519 304.4661 -9365.9630 -7581.3969 298.9248 49.1669 107.7176 30681.3632 -22.2600 35.4937
ENERGY: 1200000 0.5907 1.5985 0.0331 0.0000 -10951.9399 1540.3302 0.0000 0.0000 1800.7482 -7608.6392 303.7807 -9409.3875 -7589.3607 299.3813 484.3043 503.7591 30540.7691 -17.0102 45.1082
ENERGY: 1500000 1.0846 2.8717 0.0053 0.0000 -10790.7993 1463.9018 0.0000 0.0000 1751.5610 -7571.3747 295.4829 -9322.9358 -7581.9199 300.0099 167.3045 235.2727 30940.4355 67.6956 127.8939
TCL: Running FEP window  14: Lambda1 0.65   Lambda2 0.7000000000000001 [dLambda 0.050000000000000044]
TCL: Setting parameter firsttimestep to 0
TCL: Setting parameter alchLambda to 0.65
Info: NONBONDED TABLE R-SQUARED SPACING: 0.0625
Info: NONBONDED TABLE SIZE: 705 POINTS
TCL: Setting parameter alchLambda2 to 0.7000000000000001
Info: NONBONDED TABLE R-SQUARED SPACING: 0.0625
Info: NONBONDED TABLE SIZE: 705 POINTS
TCL: Running for 1500000 steps
ETITLE: TS BOND ANGLE DIHED IMPRP ELECT VDW BOUNDARY MISC KINETIC TOTAL TEMP POTENTIAL TOTALAVG TEMPAVG PRESSURE GPRESSURE VOLUME PRESSAVG GPRESSAVG
ENERGY: 0 1.0846 2.8717 0.0053 0.0000 -10790.8618 1463.9899 0.0000 0.0000 1750.6470 -7572.2633 295.3287 -9322.9102 -7572.2633 295.3287 152.0923 241.5351 30940.4355 152.0923 241.5351
ENERGY: 300000 0.5485 3.6646 0.1684 0.0000 -10686.0676 1418.4745 0.0000 0.0000 1752.3132 -7510.8984 295.6098 -9263.2116 -7551.1065 296.8043 -394.8898 -297.3138 31312.2614 -62.5224 32.6434
ENERGY: 600000 0.5908 2.0570 0.1411 0.0000 -10741.3981 1406.6517 0.0000 0.0000 1791.3271 -7540.6304 302.1913 -9331.9575 -7546.4342 299.3121 -278.7320 -243.1270 30786.2995 -64.1412 19.7153
ENERGY: 900000 0.3474 1.7681 0.0423 0.0000 -10848.6242 1480.9347 0.0000 0.0000 1736.7916 -7628.7400 292.9914 -9365.5317 -7565.3091 299.1254 -84.7910 -108.1658 31257.5956 -79.3372 -9.2048
ENERGY: 1200000 3.9019 5.4533 0.0638 0.0000 -10843.6036 1472.1155 0.0000 0.0000 1799.6090 -7562.4602 303.5885 -9362.0691 -7570.1963 299.2143 347.0243 355.7143 30364.4588 -29.4834 35.0009
ENERGY: 1500000 1.0243 2.4177 0.1806 0.0000 -10947.0296 1558.4372 0.0000 0.0000 1735.9329 -7649.0369 292.8465 -9384.9699 -7587.4637 297.6846 595.8872 722.4104 30883.2197 -19.4825 45.1096
TCL: Running FEP window  15: Lambda1 0.7000000000000001 Lambda2 0.7500000000000001 [dLambda 0.050000000000000044]
TCL: Setting parameter firsttimestep to 0
TCL: Setting parameter alchLambda to 0.7000000000000001
Info: NONBONDED TABLE R-SQUARED SPACING: 0.0625
Info: NONBONDED TABLE SIZE: 705 POINTS
TCL: Setting parameter alchLambda2 to 0.7500000000000001
Info: NONBONDED TABLE R-SQUARED SPACING: 0.0625
Info: NONBONDED TABLE SIZE: 705 POINTS
TCL: Running for 1500000 steps
ETITLE: TS BOND ANGLE DIHED IMPRP ELECT VDW BOUNDARY MISC KINETIC TOTAL TEMP POTENTIAL TOTALAVG TEMPAVG PRESSURE GPRESSURE VOLUME PRESSAVG GPRESSAVG
ENERGY: 0 1.0243 2.4177 0.1806 0.0000 -10947.4212 1559.2558 0.0000 0.0000 1735.0384 -7649.5044 292.6956 -9384.5428 -7649.5044 292.6956 641.2206 736.5027 30883.2197 641.2206 736.5027
ENERGY: 300000 0.3356 1.7113 0.1378 0.0000 -10802.8956 1448.6726 0.0000 0.0000 1784.7779 -7567.2604 301.0865 -9352.0383 -7589.5633 295.5960 65.8228 21.0816 30691.7563 322.6054 394.1511
ENERGY: 600000 0.5722 1.8675 0.0695 0.0000 -10796.8707 1433.3386 0.0000 0.0000 1805.3848 -7555.6381 304.5628 -9361.0229 -7561.3822 298.4987 -179.3863 -57.3992 30882.9501 61.8994 136.7738
ENERGY: 900000 0.6205 4.5125 0.3284 0.0000 -10916.7370 1470.6795 0.0000 0.0000 1727.8127 -7712.7835 291.4767 -9440.5962 -7571.9270 298.6396 -226.2136 -155.9453 30799.7933 -3.2898 63.0761
ENERGY: 1200000 1.3844 5.0770 0.1405 0.0000 -10848.3162 1502.1887 0.0000 0.0000 1781.8802 -7557.6454 300.5977 -9339.5256 -7575.8446 299.5717 679.0520 698.7238 30293.0947 27.7910 83.3341
ENERGY: 1500000 0.2969 2.5269 1.2935 0.0000 -10879.0274 1514.3365 0.0000 0.0000 1734.2108 -7626.3629 292.5560 -9360.5738 -7581.6217 299.3297 212.2250 279.2136 31172.8294 42.7431 97.1424
TCL: Running FEP window  16: Lambda1 0.7500000000000001 Lambda2 0.8000000000000002 [dLambda 0.050000000000000044]
TCL: Setting parameter firsttimestep to 0
TCL: Setting parameter alchLambda to 0.7500000000000001
Info: NONBONDED TABLE R-SQUARED SPACING: 0.0625
Info: NONBONDED TABLE SIZE: 705 POINTS
TCL: Setting parameter alchLambda2 to 0.8000000000000002
Info: NONBONDED TABLE R-SQUARED SPACING: 0.0625
Info: NONBONDED TABLE SIZE: 705 POINTS
TCL: Running for 1500000 steps
ETITLE: TS BOND ANGLE DIHED IMPRP ELECT VDW BOUNDARY MISC KINETIC TOTAL TEMP POTENTIAL TOTALAVG TEMPAVG PRESSURE GPRESSURE VOLUME PRESSAVG GPRESSAVG
ENERGY: 0 0.2969 2.5269 1.2935 0.0000 -10879.3279 1514.4287 0.0000 0.0000 1733.3527 -7627.4293 292.4113 -9360.7820 -7627.4293 292.4113 195.6517 283.9182 31172.8294 195.6517 283.9182
ENERGY: 300000 0.6933 2.9381 0.9689 0.0000 -10677.3838 1363.1242 0.0000 0.0000 1824.1428 -7485.5164 307.7273 -9309.6592 -7623.3352 299.2281 -637.2832 -552.7120 31020.4676 -399.1397 -303.5470
ENERGY: 600000 1.5716 4.4313 0.2038 0.0000 -10727.4300 1343.8814 0.0000 0.0000 1747.9649 -7629.3770 294.8763 -9377.3419 -7624.9379 297.4081 -906.0052 -857.2520 30810.6588 -329.0320 -234.1780
ENERGY: 900000 2.7304 4.0099 0.0658 0.0000 -10795.1839 1390.4135 0.0000 0.0000 1755.3359 -7642.6282 296.1197 -9397.9641 -7610.6972 295.6885 -602.1782 -551.8580 30686.7861 -269.4329 -191.6788
ENERGY: 1200000 0.4149 3.1337 0.0333 0.0000 -10717.0650 1330.2987 0.0000 0.0000 1724.9757 -7658.2087 290.9981 -9383.1844 -7616.6429 296.1234 -937.9788 -870.0534 30534.6776 -242.6857 -168.7481
ENERGY: 1500000 1.0728 1.3209 0.1141 0.0000 -10746.4385 1449.2754 0.0000 0.0000 1744.1083 -7550.5469 294.2257 -9294.6553 -7624.6624 295.7525 -186.0229 -106.0252 31293.4556 -238.1022 -167.5337
TCL: Running FEP window  17: Lambda1 0.8000000000000002 Lambda2 0.8500000000000002 [dLambda 0.050000000000000044]
TCL: Setting parameter firsttimestep to 0
TCL: Setting parameter alchLambda to 0.8000000000000002
Info: NONBONDED TABLE R-SQUARED SPACING: 0.0625
Info: NONBONDED TABLE SIZE: 705 POINTS
TCL: Setting parameter alchLambda2 to 0.8500000000000002
Info: NONBONDED TABLE R-SQUARED SPACING: 0.0625
Info: NONBONDED TABLE SIZE: 705 POINTS
TCL: Running for 1500000 steps
ETITLE: TS BOND ANGLE DIHED IMPRP ELECT VDW BOUNDARY MISC KINETIC TOTAL TEMP POTENTIAL TOTALAVG TEMPAVG PRESSURE GPRESSURE VOLUME PRESSAVG GPRESSAVG
ENERGY: 0 1.0728 1.3209 0.1141 0.0000 -10746.7094 1448.8475 0.0000 0.0000 1743.2408 -7552.1133 294.0793 -9295.3541 -7552.1133 294.0793 -192.9403 -104.1844 31293.4556 -192.9403 -104.1844
ENERGY: 300000 0.2857 3.4204 0.1256 0.0000 -10784.5841 1455.0109 0.0000 0.0000 1785.0877 -7540.6538 301.1388 -9325.7415 -7558.9947 299.9299 9.7155 108.7805 30721.1584 -90.5397 3.3718
ENERGY: 600000 0.2571 1.6900 0.1688 0.0000 -10767.4241 1429.8165 0.0000 0.0000 1764.5847 -7570.9071 297.6800 -9335.4918 -7576.2675 300.5475 -69.4561 -70.0705 30666.3493 105.1952 178.0964
ENERGY: 900000 1.8551 5.4830 1.5942 0.0000 -10807.0314 1443.6033 0.0000 0.0000 1790.0196 -7564.4762 301.9708 -9354.4958 -7576.3518 300.6350 6.9200 2.9261 30518.0719 156.2109 220.4663
ENERGY: 1200000 2.2371 2.6260 0.7558 0.0000 -10828.8517 1392.1278 0.0000 0.0000 1796.4005 -7634.7044 303.0472 -9431.1049 -7585.0267 300.8605 -548.0243 -517.9856 30539.5649 48.6398 111.4295
ENERGY: 1500000 0.1560 1.3779 0.0719 0.0000 -10794.3684 1404.3565 0.0000 0.0000 1772.3603 -7616.0458 298.9917 -9388.4061 -7587.6572 300.8463 -416.3240 -386.4608 30771.9344 60.7535 119.1600
TCL: Running FEP window  18: Lambda1 0.8500000000000002 Lambda2 0.9000000000000002 [dLambda 0.050000000000000044]
TCL: Setting parameter firsttimestep to 0
TCL: Setting parameter alchLambda to 0.8500000000000002
Info: NONBONDED TABLE R-SQUARED SPACING: 0.0625
Info: NONBONDED TABLE SIZE: 705 POINTS
TCL: Setting parameter alchLambda2 to 0.9000000000000002
Info: NONBONDED TABLE R-SQUARED SPACING: 0.0625
Info: NONBONDED TABLE SIZE: 705 POINTS
TCL: Running for 1500000 steps
ETITLE: TS BOND ANGLE DIHED IMPRP ELECT VDW BOUNDARY MISC KINETIC TOTAL TEMP POTENTIAL TOTALAVG TEMPAVG PRESSURE GPRESSURE VOLUME PRESSAVG GPRESSAVG
ENERGY: 0 0.1560 1.3779 0.0719 0.0000 -10794.9401 1404.4629 0.0000 0.0000 1771.4528 -7617.4187 298.8386 -9388.8714 -7617.4187 298.8386 -465.1247 -380.8462 30771.9344 -465.1247 -380.8462
ENERGY: 300000 2.0930 2.3986 0.2514 0.0000 -10903.0163 1508.5179 0.0000 0.0000 1751.8075 -7637.9480 295.5245 -9389.7555 -7635.4702 297.1298 553.8756 625.0623 30207.7322 -107.8930 -31.7203
ENERGY: 600000 0.4152 2.7843 0.1174 0.0000 -10800.9254 1406.8950 0.0000 0.0000 1761.7657 -7628.9476 297.2044 -9390.7134 -7621.8535 296.7271 -361.5033 -280.1217 30536.9677 -79.3109 -9.6611
ENERGY: 900000 1.1720 2.8553 0.5843 0.0000 -10833.9651 1421.8838 0.0000 0.0000 1699.2126 -7708.2571 286.6519 -9407.4697 -7632.7396 295.1754 -566.6459 -485.5793 31013.4983 -229.8588 -153.0954
ENERGY: 1200000 1.8893 2.9850 0.1069 0.0000 -10732.5215 1476.6752 0.0000 0.0000 1747.9702 -7502.8949 294.8772 -9250.8651 -7618.0564 295.2759 378.2249 463.9720 30753.1381 -163.2231 -82.4624
ENERGY: 1500000 5.0235 4.6665 0.1002 0.0000 -10790.8885 1428.0251 0.0000 0.0000 1775.9741 -7577.0992 299.6013 -9353.0732 -7611.7951 296.2619 -45.0110 -67.5537 30606.5038 -150.5904 -80.3316
TCL: Running FEP window  19: Lambda1 0.9000000000000002 Lambda2 0.9500000000000003 [dLambda 0.050000000000000044]
TCL: Setting parameter firsttimestep to 0
TCL: Setting parameter alchLambda to 0.9000000000000002
Info: NONBONDED TABLE R-SQUARED SPACING: 0.0625
Info: NONBONDED TABLE SIZE: 705 POINTS
TCL: Setting parameter alchLambda2 to 0.9500000000000003
Info: NONBONDED TABLE R-SQUARED SPACING: 0.0625
Info: NONBONDED TABLE SIZE: 705 POINTS
TCL: Running for 1500000 steps
ETITLE: TS BOND ANGLE DIHED IMPRP ELECT VDW BOUNDARY MISC KINETIC TOTAL TEMP POTENTIAL TOTALAVG TEMPAVG PRESSURE GPRESSURE VOLUME PRESSAVG GPRESSAVG
ENERGY: 0 5.0235 4.6665 0.1002 0.0000 -10791.3865 1428.1866 0.0000 0.0000 1775.1116 -7578.2982 299.4558 -9353.4097 -7578.2982 299.4558 -121.1723 -56.3020 30606.5038 -121.1723 -56.3020
ENERGY: 300000 1.2251 1.6401 0.0787 0.0000 -10870.0674 1442.3095 0.0000 0.0000 1822.2205 -7602.5935 307.4030 -9424.8141 -7606.6168 299.5269 -314.6973 -194.0607 30784.2766 62.3900 133.5335
ENERGY: 600000 0.7985 5.8347 0.1555 0.0000 -10836.2360 1498.4136 0.0000 0.0000 1746.9103 -7584.1234 294.6984 -9331.0337 -7605.0790 299.0878 518.8758 514.6295 30648.1420 172.4370 230.1706
ENERGY: 900000 1.7122 5.1455 0.0336 0.0000 -10787.0266 1453.3938 0.0000 0.0000 1779.8554 -7546.8860 300.2561 -9326.7415 -7597.6761 298.8065 80.6296 112.2448 30979.9417 33.1800 92.3290
ENERGY: 1200000 0.4669 1.7542 0.0905 0.0000 -10784.3252 1401.2188 0.0000 0.0000 1767.1152 -7613.6797 298.1069 -9380.7949 -7603.7407 298.4044 -383.8496 -281.7736 30410.4067 43.8743 106.4418
ENERGY: 1500000 1.4648 2.6163 0.2607 0.0000 -10810.4893 1444.2307 0.0000 0.0000 1836.2184 -7525.6984 309.7644 -9361.9168 -7599.3840 299.7792 70.6610 140.0617 30362.8670 -4.5751 57.5532
TCL: Running FEP window  20: Lambda1 0.9500000000000003 Lambda2 1.0    [dLambda 0.04999999999999971]
TCL: Setting parameter firsttimestep to 0
TCL: Setting parameter alchLambda to 0.9500000000000003
Info: NONBONDED TABLE R-SQUARED SPACING: 0.0625
Info: NONBONDED TABLE SIZE: 705 POINTS
TCL: Setting parameter alchLambda2 to 1.0
Info: NONBONDED TABLE R-SQUARED SPACING: 0.0625
Info: NONBONDED TABLE SIZE: 705 POINTS
TCL: Running for 1500000 steps
ETITLE: TS BOND ANGLE DIHED IMPRP ELECT VDW BOUNDARY MISC KINETIC TOTAL TEMP POTENTIAL TOTALAVG TEMPAVG PRESSURE GPRESSURE VOLUME PRESSAVG GPRESSAVG
ENERGY: 0 1.4648 2.6163 0.2607 0.0000 -10810.9658 1444.1456 0.0000 0.0000 1835.3175 -7527.1608 309.6124 -9362.4783 -7527.1608 309.6124 61.2400 148.3838 30362.8670 61.2400 148.3838
ENERGY: 300000 1.1042 1.3096 0.0263 0.0000 -10933.5567 1463.6656 0.0000 0.0000 1769.8765 -7697.5745 298.5727 -9467.4510 -7617.4368 300.3055 -54.3876 -10.0831 30507.2520 -27.1737 58.4324
ENERGY: 600000 3.0409 2.9852 0.5326 0.0000 -10832.5403 1456.7601 0.0000 0.0000 1795.8166 -7573.4050 302.9487 -9369.2215 -7606.0639 301.6124 320.5977 396.5699 30210.5001 113.1906 175.9205
ENERGY: 900000 0.1296 4.7258 0.1083 0.0000 -10857.8041 1483.9575 0.0000 0.0000 1784.4543 -7584.4286 301.0319 -9368.8829 -7597.7188 301.9687 143.8176 131.5255 31157.6047 38.5997 79.0818
ENERGY: 1200000 0.4340 4.9147 0.5183 0.0000 -10670.9787 1366.6618 0.0000 0.0000 1724.6124 -7573.8374 290.9368 -9298.4498 -7598.4499 300.4397 -493.8364 -458.9103 30789.3697 -61.6360 -15.6920
ENERGY: 1500000 0.7641 1.9040 0.5005 0.0000 -10726.0571 1408.2357 0.0000 0.0000 1741.0606 -7573.5922 293.7115 -9314.6528 -7594.0142 300.1740 -231.6172 -198.3328 30871.9682 -64.2495 -16.5358
TCL: Exiting due to exit command.
