Info: SIMULATION PARAMETERS:
Info: TIMESTEP               2
Info: NUMBER OF STEPS        0
Info: STEPS PER CYCLE        10
Info: PERIODIC CELL BASIS 1  31.567 0 0
Info: PERIODIC CELL BASIS 2  0 29.3805 0
Info: PERIODIC CELL BASIS 3  0 0 32.7148
Info: PERIODIC CELL CENTER   0 0 0
Info: WRAPPING WATERS AROUND PERIODIC BOUNDARIES ON OUTPUT.
Info: WRAPPING ALL CLUSTERS AROUND PERIODIC BOUNDARIES ON OUTPUT.
Info: FIRST LDB TIMESTEP     50
Info: LAST LDB TIMESTEP     -1
Info: HOM BACKGROUND SCALING 1
Info: PME BACKGROUND SCALING 1
Info: MIN ATOMS PER PATCH    40
Info: EMPTY PATCH LOAD       40 ATOMS
Info: VELOCITY FILE          mobley_2489709_equil.vel
Info: CENTER OF MASS MOVING INITIALLY? NO
Info: DIELECTRIC             1
Info: EXCLUDE                SCALED ONE-FOUR
Info: 1-4 ELECTROSTATICS SCALED BY 0.833333
Info: MODIFIED 1-4 VDW PARAMETERS WILL BE USED
Info: DCD FILENAME           mobley_2489709_prod.dcd
Info: DCD FREQUENCY          100000
Info: DCD FIRST STEP         100000
Info: DCD FILE WILL CONTAIN UNIT CELL DATA
Info: XST FILENAME           mobley_2489709_prod.xst
Info: XST FREQUENCY          100000
Info: NO VELOCITY DCD OUTPUT
Info: NO FORCE DCD OUTPUT
Info: OUTPUT FILENAME        mobley_2489709_prod
Info: BINARY OUTPUT FILES WILL BE USED
Info: RESTART FILENAME       mobley_2489709_prod.restart
Info: RESTART FREQUENCY      100000
Info: BINARY RESTART FILES WILL BE USED
Info: CUTOFF                 9
Info: PAIRLIST DISTANCE      11
Info: PAIRLIST SHRINK RATE   0.01
Info: PAIRLIST GROW RATE     0.01
Info: PAIRLIST TRIGGER       0.3
Info: PAIRLISTS PER CYCLE    2
Info: PAIRLISTS ENABLED
Info: MARGIN                 2
Info: HYDROGEN GROUP CUTOFF  2.5
Info: PATCH DIMENSION        15.5
Info: ENERGY OUTPUT STEPS    100000
Info: ENERGY EVALUATION STEPS    100000
Info: OUTPUT ENERGY PRECISION 4
Info: CROSSTERM ENERGY INCLUDED IN DIHEDRAL
Info: TIMING OUTPUT STEPS    1000000
Info: PRESSURE OUTPUT STEPS  100000
Info: ALCHEMICAL FEP ON
Info: FEP CURRENT LAMBDA VALUE     0
Info: FEP COMPARISON LAMBDA VALUE  0.05
Info: FEP INTRA-ALCHEMICAL NON-BONDED INTERACTIONS WILL BE RETAINED
Info: FEP INTRA-ALCHEMICAL BONDED INTERACTIONS WILL BE RETAINED
Info: FEP VDW SHIFTING COEFFICIENT 5
Info: FEP ELEC. ACTIVE FOR ANNIHILATED PARTICLES BETWEEN LAMBDA = 0 AND LAMBDA = 0.5
Info: FEP ELEC. ACTIVE FOR EXNIHILATED PARTICLES BETWEEN LAMBDA = 0.5 AND LAMBDA = 1
Info: FEP VDW ACTIVE FOR ANNIHILATED PARTICLES BETWEEN LAMBDA = 0 AND LAMBDA = 1
Info: FEP VDW ACTIVE FOR EXNIHILATED PARTICLES BETWEEN LAMBDA = 0 AND LAMBDA = 1
Info: FEP BOND ACTIVE FOR ANNIHILATED PARTICLES BETWEEN LAMBDA = 1 AND LAMBDA = 1
Info: FEP BOND ACTIVE FOR EXNIHILATED PARTICLES BETWEEN LAMBDA = 0 AND LAMBDA = 0
Info: LANGEVIN DYNAMICS ACTIVE
Info: LANGEVIN TEMPERATURE   300
Info: LANGEVIN USING BBK INTEGRATOR
Info: LANGEVIN DAMPING COEFFICIENT IS 1 INVERSE PS
Info: LANGEVIN DYNAMICS APPLIED TO HYDROGENS
Info: LANGEVIN PISTON PRESSURE CONTROL ACTIVE
Info:        TARGET PRESSURE IS 1.01325 BAR
Info:     OSCILLATION PERIOD IS 50 FS
Info:             DECAY TIME IS 25 FS
Info:     PISTON TEMPERATURE IS 300 K
Info:       PRESSURE CONTROL IS GROUP-BASED
Info:    INITIAL STRAIN RATE IS -0.000384481 -0.000384481 -0.000384481
Info:       CELL FLUCTUATION IS ISOTROPIC
Info: PARTICLE MESH EWALD (PME) ACTIVE
Info: PME TOLERANCE               1e-06
Info: PME EWALD COEFFICIENT       0.348832
Info: PME INTERPOLATION ORDER     4
Info: PME GRID DIMENSIONS         32 32 36
Info: PME MAXIMUM GRID SPACING    1
Info: PME CALCULATION WILL BE PERFORMED ON GPU
Info: FULL ELECTROSTATIC EVALUATION FREQUENCY      2
Info: USING VERLET I (r-RESPA) MTS SCHEME.
Info: C1 SPLITTING OF LONG RANGE ELECTROSTATICS
Info: PLACING ATOMS IN PATCHES BY HYDROGEN GROUPS
Info: RIGID BONDS TO HYDROGEN : ALL
Info:         ERROR TOLERANCE : 1e-08
Info:          MAX ITERATIONS : 100
Info: RIGID WATER USING SETTLE ALGORITHM
Info: RANDOM NUMBER SEED     1742156960
Info: USE HYDROGEN BONDS?    NO
Info: Using AMBER format force field!
Info: AMBER PARM FILE        mobley_2489709.prmtop
Info: COORDINATE PDB         mobley_2489709.pdb
Info: Exclusions will be read from PARM file!
Info: SCNB (VDW SCALING)     2
Info: USING ARITHMETIC MEAN TO COMBINE L-J SIGMA PARAMETERS
Info: BINARY COORDINATES     mobley_2489709_equil.coor
Info: SUMMARY OF PARAMETERS:
Info: 5 BONDS
Info: 3 ANGLES
Info:   3 HARMONIC
Info:   0 COSINE-BASED
Info: 2 DIHEDRAL
Info: 0 IMPROPER
Info: 0 CROSSTERM
Info: 0 VDW
Info: 15 VDW_PAIRS
Info: 0 NBTHOLE_PAIRS
Info: To read alchdata from file: mobley_2489709.pdb
Info: To read alchflag data from column: 5
Info: STRUCTURE SUMMARY:
Info: 2958 ATOMS
Info: 2958 BONDS
Info: 18 ANGLES
Info: 30 DIHEDRALS
Info: 0 IMPROPERS
Info: 0 CROSSTERMS
Info: 2997 EXCLUSIONS
Info: 2950 RIGID BONDS
Info: ALCH: 0 ATOMS TO DISAPPEAR IN FINAL STATE
Info: ALCH: 12 ATOMS TO APPEAR IN FINAL STATE
Info: 5924 DEGREES OF FREEDOM
Info: 990 HYDROGEN GROUPS
Info: 3 ATOMS IN LARGEST HYDROGEN GROUP
Info: 990 MIGRATION GROUPS
Info: 3 ATOMS IN LARGEST MIGRATION GROUP
Info: TOTAL MASS = 17838.7 amu
Info: TOTAL CHARGE = 0.00010002 e
Info: MASS DENSITY = 0.976305 g/cm^3
Info: ATOM DENSITY = 0.0974902 atoms/A^3
Info: ADDED 0 IMPLICIT EXCLUSIONS
Info: NONBONDED TABLE R-SQUARED SPACING: 0.0625
Info: NONBONDED TABLE SIZE: 705 POINTS
Info: REMOVING COM VELOCITY -0.0344479 0.112581 -0.0486745
Info: Use 3D box decompostion in PME FFT.
Info: Updated CUDA force table with 4096 elements.
Info: Updated CUDA LJ table with 5 x 5 elements.
Info: Found 14 unique exclusion lists needing 24 bytes
TCL: Running for 1500000 steps
ETITLE: TS BOND ANGLE DIHED IMPRP ELECT VDW BOUNDARY MISC KINETIC TOTAL TEMP POTENTIAL TOTALAVG TEMPAVG PRESSURE GPRESSURE VOLUME PRESSAVG GPRESSAVG
ENERGY: 0 3.7540 2.6060 3.4361 0.0000 -10680.7056 1485.0109 0.0000 0.0000 1765.3967 -7420.5020 299.9284 -9185.8987 -7420.5020 299.9284 384.9835 461.0463 30341.5095 384.9835 461.0463
ENERGY: 300000 2.5220 3.7538 2.4920 0.0000 -10650.9907 1449.2235 0.0000 0.0000 1735.8715 -7457.1278 294.9123 -9192.9993 -7473.8053 297.0875 391.4523 404.4419 29987.0997 124.1069 153.1233
ENERGY: 600000 1.7338 5.0266 3.6383 0.0000 -10659.3072 1471.8143 0.0000 0.0000 1691.8844 -7485.2098 287.4392 -9177.0942 -7474.6621 296.9301 241.6782 327.2464 30325.8486 86.5241 132.9385
ENERGY: 900000 2.1420 1.5554 4.0266 0.0000 -10723.4905 1441.1889 0.0000 0.0000 1809.8520 -7464.7257 307.4811 -9274.5777 -7489.3663 297.7561 162.3361 245.0871 30118.0052 67.9382 111.8458
ENERGY: 1200000 1.6655 5.9288 1.2287 0.0000 -10717.1336 1418.1404 0.0000 0.0000 1811.9240 -7478.2461 307.8331 -9290.1701 -7483.4887 298.9307 -397.4112 -378.3299 30745.7611 20.2723 71.6143
ENERGY: 1500000 1.9312 1.8366 4.4554 0.0000 -10703.3461 1423.1261 0.0000 0.0000 1805.0405 -7466.9564 306.6636 -9271.9969 -7491.3419 298.8338 -207.1213 -167.1258 30311.7026 58.9321 114.4688
TCL: Running FEP window   2: Lambda1 0.05   Lambda2 0.1    [dLambda 0.05  ]
TCL: Setting parameter firsttimestep to 0
TCL: Setting parameter alchLambda to 0.05
Info: NONBONDED TABLE R-SQUARED SPACING: 0.0625
Info: NONBONDED TABLE SIZE: 705 POINTS
TCL: Setting parameter alchLambda2 to 0.1
Info: NONBONDED TABLE R-SQUARED SPACING: 0.0625
Info: NONBONDED TABLE SIZE: 705 POINTS
TCL: Running for 1500000 steps
ETITLE: TS BOND ANGLE DIHED IMPRP ELECT VDW BOUNDARY MISC KINETIC TOTAL TEMP POTENTIAL TOTALAVG TEMPAVG PRESSURE GPRESSURE VOLUME PRESSAVG GPRESSAVG
ENERGY: 0 1.9312 1.8366 4.4554 0.0000 -10703.3461 1425.5147 0.0000 0.0000 1804.1450 -7465.4633 306.5115 -9269.6083 -7465.4633 306.5115 -243.4240 -159.0898 30311.7026 -243.4240 -159.0898
ENERGY: 300000 3.3540 1.4068 1.5473 0.0000 -10575.0208 1428.4220 0.0000 0.0000 1718.0286 -7422.2622 291.8809 -9140.2908 -7469.0601 299.7898 -45.1060 -10.5988 30871.8422 39.5662 104.1554
ENERGY: 600000 3.0146 3.9627 1.5403 0.0000 -10795.0848 1497.8194 0.0000 0.0000 1741.6725 -7547.0753 295.8979 -9288.7478 -7485.1247 299.6395 433.1129 489.6711 29973.0158 99.4288 177.2530
ENERGY: 900000 2.5201 3.9832 1.5380 0.0000 -10705.7532 1401.5671 0.0000 0.0000 1748.1043 -7548.0404 296.9906 -9296.1447 -7497.1379 298.9387 -560.7550 -481.9424 30411.0295 -115.7310 -55.7328
ENERGY: 1200000 2.8821 3.4750 1.8680 0.0000 -10717.5052 1493.9434 0.0000 0.0000 1764.9312 -7450.4056 299.8494 -9215.3368 -7498.9133 298.9577 518.4416 579.6627 30182.0734 -116.4406 -51.3131
ENERGY: 1500000 1.9829 3.7166 1.2898 0.0000 -10843.8951 1575.0735 0.0000 0.0000 1808.3033 -7453.5291 307.2180 -9261.8323 -7499.1546 298.9478 859.0644 842.6503 30823.8521 -93.9449 -32.1744
TCL: Running FEP window   3: Lambda1 0.1    Lambda2 0.15000000000000002 [dLambda 0.05000000000000002]
TCL: Setting parameter firsttimestep to 0
TCL: Setting parameter alchLambda to 0.1
Info: NONBONDED TABLE R-SQUARED SPACING: 0.0625
Info: NONBONDED TABLE SIZE: 705 POINTS
TCL: Setting parameter alchLambda2 to 0.15000000000000002
Info: NONBONDED TABLE R-SQUARED SPACING: 0.0625
Info: NONBONDED TABLE SIZE: 705 POINTS
TCL: Running for 1500000 steps
ETITLE: TS BOND ANGLE DIHED IMPRP ELECT VDW BOUNDARY MISC KINETIC TOTAL TEMP POTENTIAL TOTALAVG TEMPAVG PRESSURE GPRESSURE VOLUME PRESSAVG GPRESSAVG
ENERGY: 0 1.9829 3.7166 1.2898 0.0000 -10843.8960 1575.0607 0.0000 0.0000 1807.4160 -7454.4301 307.0672 -9261.8461 -7454.4301 307.0672 775.2308 846.5038 30823.8521 775.2308 846.5038
ENERGY: 300000 2.3921 2.6310 4.4728 0.0000 -10716.1656 1433.2222 0.0000 0.0000 1800.4693 -7472.9781 305.8870 -9273.4475 -7493.6706 301.7105 -273.0873 -187.0445 30408.4126 -49.6156 43.5718
ENERGY: 600000 1.4004 0.3179 1.9408 0.0000 -10778.8594 1416.0408 0.0000 0.0000 1783.9724 -7575.1870 303.0843 -9359.1595 -7504.1691 301.6982 -585.9868 -583.6250 30495.2705 -290.5683 -207.7517
ENERGY: 900000 1.3735 5.3020 6.2440 0.0000 -10773.8788 1448.9451 0.0000 0.0000 1789.8803 -7522.1338 304.0880 -9312.0141 -7511.2174 301.5069 -120.3489 -63.5685 30460.4007 -190.9669 -119.5367
ENERGY: 1200000 4.0587 0.9035 4.4719 0.0000 -10712.6728 1457.1154 0.0000 0.0000 1796.3375 -7449.7860 305.1851 -9246.1234 -7503.0261 301.6497 95.0142 112.3073 30274.3713 -184.4821 -120.7987
ENERGY: 1500000 1.8766 3.7406 5.7101 0.0000 -10525.0328 1365.9016 0.0000 0.0000 1761.7050 -7386.0987 299.3012 -9147.8038 -7493.0125 301.9151 -373.1389 -326.3366 30741.8956 -163.0117 -102.5622
TCL: Running FEP window   4: Lambda1 0.15000000000000002 Lambda2 0.2    [dLambda 0.04999999999999999]
TCL: Setting parameter firsttimestep to 0
TCL: Setting parameter alchLambda to 0.15000000000000002
Info: NONBONDED TABLE R-SQUARED SPACING: 0.0625
Info: NONBONDED TABLE SIZE: 705 POINTS
TCL: Setting parameter alchLambda2 to 0.2
Info: NONBONDED TABLE R-SQUARED SPACING: 0.0625
Info: NONBONDED TABLE SIZE: 705 POINTS
TCL: Running for 1500000 steps
ETITLE: TS BOND ANGLE DIHED IMPRP ELECT VDW BOUNDARY MISC KINETIC TOTAL TEMP POTENTIAL TOTALAVG TEMPAVG PRESSURE GPRESSURE VOLUME PRESSAVG GPRESSAVG
ENERGY: 0 1.8766 3.7406 5.7101 0.0000 -10525.0312 1368.3477 0.0000 0.0000 1760.8185 -7384.5376 299.1506 -9145.3562 -7384.5376 299.1506 -409.7442 -313.5604 30741.8956 -409.7442 -313.5604
ENERGY: 300000 2.7579 2.2652 2.2020 0.0000 -10753.5190 1487.6645 0.0000 0.0000 1739.4328 -7519.1966 295.5174 -9258.6294 -7471.6451 300.6852 39.6782 40.1044 31091.8605 -278.6895 -229.8278
ENERGY: 600000 2.6934 1.7233 3.2217 0.0000 -10582.3174 1356.5667 0.0000 0.0000 1770.8076 -7447.3047 300.8477 -9218.1124 -7478.2167 300.3985 -657.6509 -552.2295 30252.0902 -369.8739 -319.2400
ENERGY: 900000 4.3636 2.5716 2.4102 0.0000 -10855.8188 1520.4562 0.0000 0.0000 1719.9455 -7606.0716 292.2066 -9326.0171 -7507.7451 299.3079 446.9572 507.8746 30072.5990 -217.7665 -165.6511
ENERGY: 1200000 4.5162 2.9620 2.1622 0.0000 -10709.8147 1477.9985 0.0000 0.0000 1720.1064 -7502.0694 292.2339 -9222.1758 -7511.7382 298.7797 188.7732 281.4420 30358.0421 -80.1742 -26.3366
ENERGY: 1500000 2.6999 1.1001 2.4829 0.0000 -10717.0058 1416.6930 0.0000 0.0000 1807.3150 -7486.7150 307.0501 -9294.0300 -7512.3882 299.6253 -376.4725 -331.0714 30636.4845 -118.5836 -68.9833
TCL: Running FEP window   5: Lambda1 0.2    Lambda2 0.25   [dLambda 0.04999999999999999]
TCL: Setting parameter firsttimestep to 0
TCL: Setting parameter alchLambda to 0.2
Info: NONBONDED TABLE R-SQUARED SPACING: 0.0625
Info: NONBONDED TABLE SIZE: 705 POINTS
TCL: Setting parameter alchLambda2 to 0.25
Info: NONBONDED TABLE R-SQUARED SPACING: 0.0625
Info: NONBONDED TABLE SIZE: 705 POINTS
TCL: Running for 1500000 steps
ETITLE: TS BOND ANGLE DIHED IMPRP ELECT VDW BOUNDARY MISC KINETIC TOTAL TEMP POTENTIAL TOTALAVG TEMPAVG PRESSURE GPRESSURE VOLUME PRESSAVG GPRESSAVG
ENERGY: 0 2.6999 1.1001 2.4829 0.0000 -10717.0050 1418.9131 0.0000 0.0000 1806.4140 -7485.3950 306.8970 -9291.8091 -7485.3950 306.8970 -408.9367 -318.8079 30636.4845 -408.9367 -318.8079
ENERGY: 300000 1.8912 1.5134 2.7057 0.0000 -10755.8442 1423.1852 0.0000 0.0000 1710.2315 -7616.3171 290.5563 -9326.5486 -7544.7990 296.8896 -532.2951 -456.9656 30583.0464 -206.0291 -152.8394
ENERGY: 600000 1.4623 2.2528 1.3603 0.0000 -10672.1813 1461.7507 0.0000 0.0000 1721.5505 -7483.8047 292.4793 -9205.3552 -7525.9854 296.4783 -7.0259 37.4092 31029.7889 32.2585 76.6823
ENERGY: 900000 3.8251 1.7282 3.0577 0.0000 -10724.3683 1483.2726 0.0000 0.0000 1746.1104 -7486.3744 296.6518 -9232.4847 -7507.1926 297.0701 146.7536 262.5789 30807.0358 82.0151 133.3524
ENERGY: 1200000 3.7952 2.2590 2.4144 0.0000 -10861.7314 1559.2744 0.0000 0.0000 1782.7314 -7511.2569 302.8735 -9293.9883 -7515.3340 297.7041 915.4317 998.1889 30155.6248 131.0286 187.7111
ENERGY: 1500000 2.1733 2.7918 2.4112 0.0000 -10548.7946 1341.2269 0.0000 0.0000 1789.7190 -7410.4724 304.0606 -9200.1914 -7513.3189 298.3874 -962.3636 -930.3053 30958.6601 72.2365 129.1772
TCL: Running FEP window   6: Lambda1 0.25   Lambda2 0.3    [dLambda 0.04999999999999999]
TCL: Setting parameter firsttimestep to 0
TCL: Setting parameter alchLambda to 0.25
Info: NONBONDED TABLE R-SQUARED SPACING: 0.0625
Info: NONBONDED TABLE SIZE: 705 POINTS
TCL: Setting parameter alchLambda2 to 0.3
Info: NONBONDED TABLE R-SQUARED SPACING: 0.0625
Info: NONBONDED TABLE SIZE: 705 POINTS
TCL: Running for 1500000 steps
ETITLE: TS BOND ANGLE DIHED IMPRP ELECT VDW BOUNDARY MISC KINETIC TOTAL TEMP POTENTIAL TOTALAVG TEMPAVG PRESSURE GPRESSURE VOLUME PRESSAVG GPRESSAVG
ENERGY: 0 2.1733 2.7918 2.4112 0.0000 -10548.7949 1341.9779 0.0000 0.0000 1788.8470 -7410.5936 303.9125 -9199.4407 -7410.5936 303.9125 -1000.0685 -922.9372 30958.6601 -1000.0685 -922.9372
ENERGY: 300000 2.3771 1.3326 3.0792 0.0000 -10836.5877 1500.9134 0.0000 0.0000 1813.3991 -7515.4863 308.0837 -9328.8854 -7476.8805 303.9387 409.5832 420.8899 30301.2410 -85.3493 -23.0044
ENERGY: 600000 3.1585 5.8672 2.3781 0.0000 -10607.2133 1387.2034 0.0000 0.0000 1777.9015 -7430.7046 302.0529 -9208.6061 -7472.8786 302.5670 -224.0256 -104.9209 30261.6003 -71.2659 1.6752
ENERGY: 900000 3.0039 1.8884 2.3065 0.0000 -10682.1741 1429.4013 0.0000 0.0000 1746.4812 -7499.0928 296.7148 -9245.5740 -7476.9055 300.2096 55.0110 95.6277 30026.9392 -66.5847 6.2659
ENERGY: 1200000 3.1712 2.4087 1.8873 0.0000 -10769.1775 1480.0589 0.0000 0.0000 1810.4195 -7471.2318 307.5775 -9281.6514 -7474.3417 300.1917 174.1045 227.8381 30494.8058 -51.3479 16.1953
ENERGY: 1500000 4.1513 1.4322 1.6661 0.0000 -10668.2593 1428.6032 0.0000 0.0000 1832.5666 -7399.8400 311.3401 -9232.4066 -7472.4273 301.0349 -328.1757 -244.7235 30694.8649 -172.5598 -111.2754
TCL: Running FEP window   7: Lambda1 0.3    Lambda2 0.35   [dLambda 0.04999999999999999]
TCL: Setting parameter firsttimestep to 0
TCL: Setting parameter alchLambda to 0.3
Info: NONBONDED TABLE R-SQUARED SPACING: 0.0625
Info: NONBONDED TABLE SIZE: 705 POINTS
TCL: Setting parameter alchLambda2 to 0.35
Info: NONBONDED TABLE R-SQUARED SPACING: 0.0625
Info: NONBONDED TABLE SIZE: 705 POINTS
TCL: Running for 1500000 steps
ETITLE: TS BOND ANGLE DIHED IMPRP ELECT VDW BOUNDARY MISC KINETIC TOTAL TEMP POTENTIAL TOTALAVG TEMPAVG PRESSURE GPRESSURE VOLUME PRESSAVG GPRESSAVG
ENERGY: 0 4.1513 1.4322 1.6661 0.0000 -10668.2586 1429.2937 0.0000 0.0000 1831.6822 -7400.0331 311.1899 -9231.7152 -7400.0331 311.1899 -318.5230 -237.2223 30694.8649 -318.5230 -237.2223
ENERGY: 300000 3.8821 3.1152 4.6325 0.0000 -10772.2044 1500.5820 0.0000 0.0000 1754.3538 -7505.6388 298.0523 -9259.9925 -7476.8815 302.8248 392.2675 508.6347 30392.1317 -40.3954 57.4579
ENERGY: 600000 2.7261 1.9672 1.6756 0.0000 -10666.3179 1402.7172 0.0000 0.0000 1838.0160 -7419.2157 312.2660 -9257.2318 -7474.5065 302.8265 -142.6619 -60.7366 30346.9144 -126.3827 -48.4723
ENERGY: 900000 3.3984 4.5175 0.8306 0.0000 -10800.3511 1507.3405 0.0000 0.0000 1807.6506 -7476.6134 307.1071 -9284.2641 -7480.2914 302.3671 293.5289 408.9110 30438.5114 -38.6325 53.1772
ENERGY: 1200000 2.1615 4.1824 6.1896 0.0000 -10630.9440 1453.3564 0.0000 0.0000 1777.5195 -7387.5346 301.9880 -9165.0542 -7473.8991 302.4898 84.0191 145.8202 31144.8479 -61.8526 24.9312
ENERGY: 1500000 1.3292 0.7346 1.9662 0.0000 -10840.0764 1530.0447 0.0000 0.0000 1827.7697 -7478.2320 310.5252 -9306.0017 -7482.4743 302.0219 431.2700 503.5749 30620.8516 -47.8202 37.3326
TCL: Running FEP window   8: Lambda1 0.35   Lambda2 0.39999999999999997 [dLambda 0.04999999999999999]
TCL: Setting parameter firsttimestep to 0
TCL: Setting parameter alchLambda to 0.35
Info: NONBONDED TABLE R-SQUARED SPACING: 0.0625
Info: NONBONDED TABLE SIZE: 705 POINTS
TCL: Setting parameter alchLambda2 to 0.39999999999999997
Info: NONBONDED TABLE R-SQUARED SPACING: 0.0625
Info: NONBONDED TABLE SIZE: 705 POINTS
TCL: Running for 1500000 steps
ETITLE: TS BOND ANGLE DIHED IMPRP ELECT VDW BOUNDARY MISC KINETIC TOTAL TEMP POTENTIAL TOTALAVG TEMPAVG PRESSURE GPRESSURE VOLUME PRESSAVG GPRESSAVG
ENERGY: 0 1.3292 0.7346 1.9662 0.0000 -10840.0759 1530.3724 0.0000 0.0000 1826.9041 -7478.7695 310.3781 -9305.6735 -7478.7695 310.3781 432.4761 512.1611 30620.8516 432.4761 512.1611
ENERGY: 300000 2.7146 6.8570 1.7609 0.0000 -10784.2629 1434.5612 0.0000 0.0000 1807.3198 -7531.0494 307.0509 -9338.3692 -7524.3769 300.6072 -341.3635 -336.8559 30405.1962 193.1603 253.6264
ENERGY: 600000 1.1254 1.2474 4.6101 0.0000 -10843.8855 1515.6847 0.0000 0.0000 1818.6917 -7502.5262 308.9829 -9321.2179 -7509.5409 301.0721 817.0318 863.2391 29686.6637 148.1120 209.6770
ENERGY: 900000 1.1437 4.8575 1.7575 0.0000 -10659.1238 1408.4035 0.0000 0.0000 1762.6608 -7480.3008 299.4636 -9242.9617 -7489.4854 302.0373 -533.3103 -422.3422 30895.6857 -37.9633 29.6700
ENERGY: 1200000 3.3211 3.4968 1.0788 0.0000 -10828.2276 1486.6676 0.0000 0.0000 1722.5493 -7611.1139 292.6490 -9333.6633 -7495.0244 302.0316 -77.4028 3.9099 30665.3002 -10.3625 54.3438
ENERGY: 1500000 2.8068 1.9809 5.9742 0.0000 -10661.8145 1391.4175 0.0000 0.0000 1777.7823 -7481.8528 302.0327 -9259.6350 -7490.1477 301.5500 -831.4681 -679.0780 31074.1198 -149.0734 -81.8337
TCL: Running FEP window   9: Lambda1 0.39999999999999997 Lambda2 0.44999999999999996 [dLambda 0.04999999999999999]
TCL: Setting parameter firsttimestep to 0
TCL: Setting parameter alchLambda to 0.39999999999999997
Info: NONBONDED TABLE R-SQUARED SPACING: 0.0625
Info: NONBONDED TABLE SIZE: 705 POINTS
TCL: Setting parameter alchLambda2 to 0.44999999999999996
Info: NONBONDED TABLE R-SQUARED SPACING: 0.0625
Info: NONBONDED TABLE SIZE: 705 POINTS
TCL: Running for 1500000 steps
ETITLE: TS BOND ANGLE DIHED IMPRP ELECT VDW BOUNDARY MISC KINETIC TOTAL TEMP POTENTIAL TOTALAVG TEMPAVG PRESSURE GPRESSURE VOLUME PRESSAVG GPRESSAVG
ENERGY: 0 2.8068 1.9809 5.9742 0.0000 -10661.8151 1391.6403 0.0000 0.0000 1776.8992 -7482.5137 301.8826 -9259.4128 -7482.5137 301.8826 -746.3238 -672.1518 31074.1198 -746.3238 -672.1518
ENERGY: 300000 3.5158 0.8399 1.2076 0.0000 -10814.9415 1524.5076 0.0000 0.0000 1735.3721 -7549.4985 294.8275 -9284.8706 -7474.5110 303.2098 498.0233 639.9884 30082.1112 -117.0116 -36.4986
ENERGY: 600000 1.0795 2.0958 2.0819 0.0000 -10872.9923 1540.0150 0.0000 0.0000 1731.4837 -7596.2364 294.1669 -9327.7201 -7506.7188 300.5753 455.6793 450.4493 30761.2432 -15.3194 37.9696
ENERGY: 900000 1.6459 4.5578 1.5109 0.0000 -10703.3800 1409.5133 0.0000 0.0000 1759.7210 -7526.4311 298.9642 -9286.1521 -7516.0968 301.0710 -152.3573 -78.4336 30177.9327 -114.7959 -67.1687
ENERGY: 1200000 2.4283 2.1880 1.0684 0.0000 -10841.5135 1514.4611 0.0000 0.0000 1781.4457 -7539.9219 302.6551 -9321.3676 -7509.2976 301.3992 831.8321 860.7361 29837.9850 -92.9267 -44.0385
ENERGY: 1500000 2.8271 3.4871 2.8546 0.0000 -10774.7734 1488.3957 0.0000 0.0000 1735.8433 -7541.3655 294.9075 -9277.2088 -7515.2400 300.4534 248.3931 302.7442 30142.4181 -90.1813 -37.5392
TCL: Running FEP window  10: Lambda1 0.44999999999999996 Lambda2 0.49999999999999994 [dLambda 0.04999999999999999]
TCL: Setting parameter firsttimestep to 0
TCL: Setting parameter alchLambda to 0.44999999999999996
Info: NONBONDED TABLE R-SQUARED SPACING: 0.0625
Info: NONBONDED TABLE SIZE: 705 POINTS
TCL: Setting parameter alchLambda2 to 0.49999999999999994
Info: NONBONDED TABLE R-SQUARED SPACING: 0.0625
Info: NONBONDED TABLE SIZE: 705 POINTS
TCL: Running for 1500000 steps
ETITLE: TS BOND ANGLE DIHED IMPRP ELECT VDW BOUNDARY MISC KINETIC TOTAL TEMP POTENTIAL TOTALAVG TEMPAVG PRESSURE GPRESSURE VOLUME PRESSAVG GPRESSAVG
ENERGY: 0 2.8271 3.4871 2.8546 0.0000 -10774.7734 1488.1699 0.0000 0.0000 1734.9648 -7542.4698 294.7583 -9277.4346 -7542.4698 294.7583 233.1627 307.7111 30142.4181 233.1627 307.7111
ENERGY: 300000 1.9938 1.6907 2.3030 0.0000 -10691.5108 1480.1562 0.0000 0.0000 1802.5094 -7402.8578 306.2336 -9205.3672 -7468.1690 299.3134 388.1754 355.1662 30849.2180 -55.5218 15.8963
ENERGY: 600000 2.7642 2.0337 4.1270 0.0000 -10735.2469 1443.8370 0.0000 0.0000 1783.6185 -7498.8665 303.0242 -9282.4850 -7497.1068 299.0655 -283.4407 -223.5109 30904.8687 -191.6798 -139.7099
ENERGY: 900000 1.6492 1.5953 1.8359 0.0000 -10791.2279 1438.9144 0.0000 0.0000 1791.1013 -7556.1319 304.2955 -9347.2332 -7506.9734 300.0732 -184.8199 -136.5058 30367.5970 -172.2160 -125.4388
ENERGY: 1200000 2.8336 2.3681 2.1005 0.0000 -10736.1179 1410.8236 0.0000 0.0000 1759.3325 -7558.6595 298.8982 -9317.9920 -7503.3082 301.1518 -456.9297 -443.6400 30581.1011 -162.9914 -114.5737
ENERGY: 1500000 2.9372 6.9373 2.9777 0.0000 -10667.4651 1423.0299 0.0000 0.0000 1708.6089 -7522.9740 290.2806 -9231.5829 -7513.3819 299.8570 -423.3049 -324.9694 30645.4735 -140.7468 -86.2407
TCL: Running FEP window  11: Lambda1 0.49999999999999994 Lambda2 0.5499999999999999 [dLambda 0.04999999999999999]
TCL: Setting parameter firsttimestep to 0
TCL: Setting parameter alchLambda to 0.49999999999999994
Info: NONBONDED TABLE R-SQUARED SPACING: 0.0625
Info: NONBONDED TABLE SIZE: 705 POINTS
TCL: Setting parameter alchLambda2 to 0.5499999999999999
Info: NONBONDED TABLE R-SQUARED SPACING: 0.0625
Info: NONBONDED TABLE SIZE: 705 POINTS
TCL: Running for 1500000 steps
ETITLE: TS BOND ANGLE DIHED IMPRP ELECT VDW BOUNDARY MISC KINETIC TOTAL TEMP POTENTIAL TOTALAVG TEMPAVG PRESSURE GPRESSURE VOLUME PRESSAVG GPRESSAVG
ENERGY: 0 2.9372 6.9373 2.9777 0.0000 -10667.4657 1424.3660 0.0000 0.0000 1707.7315 -7522.5160 290.1315 -9230.2475 -7522.5160 290.1315 -405.1244 -308.7763 30645.4735 -405.1244 -308.7763
ENERGY: 300000 2.0161 2.9439 4.3700 0.0000 -10680.0245 1330.9657 0.0000 0.0000 1749.2447 -7590.4840 297.1843 -9339.7287 -7513.0936 300.0111 -1451.5929 -1321.8483 30844.5399 -128.4510 -50.6426
ENERGY: 600000 1.8805 1.4751 1.8532 0.0000 -10723.4467 1508.1169 0.0000 0.0000 1748.2719 -7461.8491 297.0191 -9210.1210 -7517.2665 298.3422 1019.0960 1033.8799 30009.1219 -100.2967 -24.2862
ENERGY: 900000 1.6700 2.8493 1.1138 0.0000 -10672.1217 1375.9413 0.0000 0.0000 1773.7424 -7516.8049 301.3463 -9290.5473 -7517.1389 298.9804 -314.2277 -320.4049 30329.2649 -117.2308 -53.4442
ENERGY: 1200000 1.6152 5.4182 3.3397 0.0000 -10621.6360 1357.3941 0.0000 0.0000 1782.7216 -7471.1472 302.8718 -9253.8688 -7508.3278 299.1192 -909.1320 -897.9524 30934.9137 -27.3230 22.9190
ENERGY: 1500000 0.8481 1.3609 1.4136 0.0000 -10680.6690 1422.3546 0.0000 0.0000 1749.8939 -7504.7980 297.2946 -9254.6919 -7509.1908 298.4230 -358.5146 -330.2325 30722.9606 -92.5688 -46.4323
TCL: Running FEP window  12: Lambda1 0.5499999999999999 Lambda2 0.6    [dLambda 0.050000000000000044]
TCL: Setting parameter firsttimestep to 0
TCL: Setting parameter alchLambda to 0.5499999999999999
Info: NONBONDED TABLE R-SQUARED SPACING: 0.0625
Info: NONBONDED TABLE SIZE: 705 POINTS
TCL: Setting parameter alchLambda2 to 0.6
Info: NONBONDED TABLE R-SQUARED SPACING: 0.0625
Info: NONBONDED TABLE SIZE: 705 POINTS
TCL: Running for 1500000 steps
ETITLE: TS BOND ANGLE DIHED IMPRP ELECT VDW BOUNDARY MISC KINETIC TOTAL TEMP POTENTIAL TOTALAVG TEMPAVG PRESSURE GPRESSURE VOLUME PRESSAVG GPRESSAVG
ENERGY: 0 0.8481 1.3609 1.4136 0.0000 -10680.7720 1423.1345 0.0000 0.0000 1749.0517 -7504.9633 297.1515 -9254.0150 -7504.9633 297.1515 -388.2841 -315.6942 30722.9606 -388.2841 -315.6942
ENERGY: 300000 2.9089 3.5659 2.6450 0.0000 -10747.3341 1397.6492 0.0000 0.0000 1741.3414 -7599.2236 295.8416 -9340.5650 -7558.2071 295.9189 -469.0058 -409.9858 30016.7265 13.2999 61.1843
ENERGY: 600000 1.8990 3.0692 6.1491 0.0000 -10645.2906 1424.0097 0.0000 0.0000 1817.5207 -7392.6429 308.7839 -9210.1636 -7560.5351 295.7603 -123.3774 11.2211 30583.0899 89.1650 145.0160
ENERGY: 900000 1.8815 3.8851 1.7595 0.0000 -10576.2321 1361.8473 0.0000 0.0000 1781.0934 -7425.7653 302.5952 -9206.8587 -7543.1790 296.7542 -437.1365 -396.2416 30809.2902 -43.8816 8.0348
ENERGY: 1200000 3.2180 3.5071 2.0297 0.0000 -10677.5064 1409.5762 0.0000 0.0000 1774.8101 -7484.3654 301.5277 -9259.1755 -7538.0053 297.5988 -260.6678 -161.7882 30224.5774 -40.7002 17.7929
ENERGY: 1500000 1.7618 4.0176 2.1419 0.0000 -10694.3662 1402.8096 0.0000 0.0000 1818.9050 -7464.7303 309.0191 -9283.6353 -7530.2519 298.4572 -481.0290 -367.2110 30602.1160 -46.5749 14.7645
TCL: Running FEP window  13: Lambda1 0.6    Lambda2 0.65   [dLambda 0.050000000000000044]
TCL: Setting parameter firsttimestep to 0
TCL: Setting parameter alchLambda to 0.6
Info: NONBONDED TABLE R-SQUARED SPACING: 0.0625
Info: NONBONDED TABLE SIZE: 705 POINTS
TCL: Setting parameter alchLambda2 to 0.65
Info: NONBONDED TABLE R-SQUARED SPACING: 0.0625
Info: NONBONDED TABLE SIZE: 705 POINTS
TCL: Running for 1500000 steps
ETITLE: TS BOND ANGLE DIHED IMPRP ELECT VDW BOUNDARY MISC KINETIC TOTAL TEMP POTENTIAL TOTALAVG TEMPAVG PRESSURE GPRESSURE VOLUME PRESSAVG GPRESSAVG
ENERGY: 0 1.7618 4.0176 2.1419 0.0000 -10694.8830 1403.0373 0.0000 0.0000 1818.0165 -7465.9079 308.8682 -9283.9244 -7465.9079 308.8682 -437.1103 -358.2684 30602.1160 -437.1103 -358.2684
ENERGY: 300000 1.6931 2.3128 2.7336 0.0000 -10828.7179 1538.0515 0.0000 0.0000 1757.7728 -7526.1541 298.6332 -9283.9269 -7507.2720 304.2862 388.4622 416.0696 30827.6481 116.5493 156.5338
ENERGY: 600000 2.2986 2.7274 1.3055 0.0000 -10740.4814 1455.4732 0.0000 0.0000 1825.5000 -7453.1766 310.1396 -9278.6766 -7494.7158 303.7509 19.9285 157.8873 30399.7392 155.5045 219.8764
ENERGY: 900000 3.3616 2.7133 5.6856 0.0000 -10760.4924 1514.9236 0.0000 0.0000 1787.9004 -7445.9079 303.7517 -9233.8084 -7497.7831 302.8546 694.3052 755.8038 30323.2750 304.9142 362.0411
ENERGY: 1200000 1.6743 1.5848 2.0811 0.0000 -10676.7400 1392.4415 0.0000 0.0000 1827.1503 -7451.8080 310.4199 -9278.9583 -7491.9095 302.6299 -400.2724 -386.3955 30767.5112 214.4011 266.5950
ENERGY: 1500000 0.9665 3.9200 2.3232 0.0000 -10736.8196 1416.3232 0.0000 0.0000 1785.9645 -7527.3221 303.4228 -9313.2867 -7486.0627 303.0706 -473.3867 -381.8066 30718.4008 156.8128 209.8465
TCL: Running FEP window  14: Lambda1 0.65   Lambda2 0.7000000000000001 [dLambda 0.050000000000000044]
TCL: Setting parameter firsttimestep to 0
TCL: Setting parameter alchLambda to 0.65
Info: NONBONDED TABLE R-SQUARED SPACING: 0.0625
Info: NONBONDED TABLE SIZE: 705 POINTS
TCL: Setting parameter alchLambda2 to 0.7000000000000001
Info: NONBONDED TABLE R-SQUARED SPACING: 0.0625
Info: NONBONDED TABLE SIZE: 705 POINTS
TCL: Running for 1500000 steps
ETITLE: TS BOND ANGLE DIHED IMPRP ELECT VDW BOUNDARY MISC KINETIC TOTAL TEMP POTENTIAL TOTALAVG TEMPAVG PRESSURE GPRESSURE VOLUME PRESSAVG GPRESSAVG
ENERGY: 0 0.9665 3.9200 2.3232 0.0000 -10736.9690 1416.6286 0.0000 0.0000 1785.1034 -7528.0273 303.2765 -9313.1307 -7528.0273 303.2765 -469.3623 -369.1141 30718.4008 -469.3623 -369.1141
ENERGY: 300000 0.3819 1.7924 2.8655 0.0000 -10685.3177 1386.2441 0.0000 0.0000 1765.6954 -7528.3384 299.9792 -9294.0338 -7500.5598 300.3611 -636.6761 -622.7513 30938.4828 -200.3182 -139.1265
ENERGY: 600000 2.4438 2.1159 1.8767 0.0000 -10801.7453 1501.6387 0.0000 0.0000 1773.4206 -7520.2496 301.2916 -9293.6702 -7502.3158 300.4674 177.8196 294.7380 30623.8153 -69.4730 -0.5693
ENERGY: 900000 3.1511 3.2894 2.2932 0.0000 -10585.5630 1363.6292 0.0000 0.0000 1755.0153 -7458.1848 298.1647 -9213.2002 -7499.9612 299.9294 -504.9036 -412.9969 30683.6234 -113.3187 -43.8921
ENERGY: 1200000 1.1333 1.7468 3.2881 0.0000 -10663.9170 1445.0471 0.0000 0.0000 1771.4844 -7441.2172 300.9627 -9212.7017 -7491.9440 300.6538 177.9670 183.4361 30789.7021 -36.1515 26.1313
ENERGY: 1500000 3.9048 1.5903 1.6470 0.0000 -10730.4958 1408.7098 0.0000 0.0000 1797.6700 -7516.9738 305.4114 -9314.6438 -7486.5371 301.5324 -85.9044 -110.2299 30063.2916 -14.5793 49.8830
TCL: Running FEP window  15: Lambda1 0.7000000000000001 Lambda2 0.7500000000000001 [dLambda 0.050000000000000044]
TCL: Setting parameter firsttimestep to 0
TCL: Setting parameter alchLambda to 0.7000000000000001
Info: NONBONDED TABLE R-SQUARED SPACING: 0.0625
Info: NONBONDED TABLE SIZE: 705 POINTS
TCL: Setting parameter alchLambda2 to 0.7500000000000001
Info: NONBONDED TABLE R-SQUARED SPACING: 0.0625
Info: NONBONDED TABLE SIZE: 705 POINTS
TCL: Running for 1500000 steps
ETITLE: TS BOND ANGLE DIHED IMPRP ELECT VDW BOUNDARY MISC KINETIC TOTAL TEMP POTENTIAL TOTALAVG TEMPAVG PRESSURE GPRESSURE VOLUME PRESSAVG GPRESSAVG
ENERGY: 0 3.9048 1.5903 1.6470 0.0000 -10730.4717 1408.2998 0.0000 0.0000 1796.8230 -7518.2068 305.2675 -9315.0298 -7518.2068 305.2675 -180.6238 -105.9509 30063.2916 -180.6238 -105.9509
ENERGY: 300000 1.1589 3.7402 7.4588 0.0000 -10618.8022 1378.6299 0.0000 0.0000 1784.4928 -7443.3216 303.1727 -9227.8144 -7530.7015 299.5597 -504.0926 -357.6324 30907.4844 -139.4104 -52.7238
ENERGY: 600000 1.6662 2.5508 2.8184 0.0000 -10892.4806 1519.6334 0.0000 0.0000 1770.4755 -7595.3364 300.7913 -9365.8119 -7529.2165 301.5595 526.5309 580.5406 30380.5150 -182.8549 -96.4345
ENERGY: 900000 2.4911 1.8705 1.2136 0.0000 -10630.5650 1410.2580 0.0000 0.0000 1752.0181 -7462.7136 297.6555 -9214.7318 -7508.9705 301.6376 -218.6540 -144.2303 30896.8352 -183.9075 -96.3608
ENERGY: 1200000 2.5743 3.4816 2.2341 0.0000 -10613.6073 1421.2893 0.0000 0.0000 1778.0284 -7405.9995 302.0745 -9184.0279 -7501.9559 301.1982 -123.2390 -62.9927 30767.5651 -130.9723 -51.3678
ENERGY: 1500000 3.2131 2.6127 1.0768 0.0000 -10705.0720 1475.9099 0.0000 0.0000 1814.4328 -7407.8266 308.2593 -9222.2594 -7498.9949 300.8923 512.9416 560.2816 30421.4055 -107.4477 -32.3176
TCL: Running FEP window  16: Lambda1 0.7500000000000001 Lambda2 0.8000000000000002 [dLambda 0.050000000000000044]
TCL: Setting parameter firsttimestep to 0
TCL: Setting parameter alchLambda to 0.7500000000000001
Info: NONBONDED TABLE R-SQUARED SPACING: 0.0625
Info: NONBONDED TABLE SIZE: 705 POINTS
TCL: Setting parameter alchLambda2 to 0.8000000000000002
Info: NONBONDED TABLE R-SQUARED SPACING: 0.0625
Info: NONBONDED TABLE SIZE: 705 POINTS
TCL: Running for 1500000 steps
ETITLE: TS BOND ANGLE DIHED IMPRP ELECT VDW BOUNDARY MISC KINETIC TOTAL TEMP POTENTIAL TOTALAVG TEMPAVG PRESSURE GPRESSURE VOLUME PRESSAVG GPRESSAVG
ENERGY: 0 3.2131 2.6127 1.0768 0.0000 -10705.4303 1476.0965 0.0000 0.0000 1813.5763 -7408.8549 308.1138 -9222.4312 -7408.8549 308.1138 495.9702 572.1278 30421.4055 495.9702 572.1278
ENERGY: 300000 1.8589 3.2497 2.3875 0.0000 -10785.3117 1461.7433 0.0000 0.0000 1778.2793 -7537.7930 302.1171 -9316.0724 -7499.7440 301.5238 248.3537 239.0214 30085.7254 185.4525 233.9405
ENERGY: 600000 2.0658 1.5655 2.2941 0.0000 -10715.1551 1383.9156 0.0000 0.0000 1745.0121 -7580.3020 296.4652 -9325.3142 -7527.8831 300.2842 -752.4770 -684.4558 30530.8120 -192.0713 -122.6764
ENERGY: 900000 0.6722 1.9654 3.3594 0.0000 -10612.8073 1409.5623 0.0000 0.0000 1802.2780 -7394.9699 306.1943 -9197.2479 -7498.8946 301.9053 -35.1041 -33.8221 30879.3297 -199.4203 -134.6849
ENERGY: 1200000 1.9529 3.3950 3.2365 0.0000 -10701.5817 1468.5145 0.0000 0.0000 1707.9608 -7516.5221 290.1705 -9224.4829 -7505.5222 300.2645 63.2871 167.3272 30726.2852 -200.4718 -130.2092
ENERGY: 1500000 3.3495 2.6870 4.5866 0.0000 -10580.3526 1363.5816 0.0000 0.0000 1790.9771 -7415.1707 304.2744 -9206.1478 -7500.5628 300.0855 -511.6754 -453.5737 30977.9852 -190.6205 -122.9298
TCL: Running FEP window  17: Lambda1 0.8000000000000002 Lambda2 0.8500000000000002 [dLambda 0.050000000000000044]
TCL: Setting parameter firsttimestep to 0
TCL: Setting parameter alchLambda to 0.8000000000000002
Info: NONBONDED TABLE R-SQUARED SPACING: 0.0625
Info: NONBONDED TABLE SIZE: 705 POINTS
TCL: Setting parameter alchLambda2 to 0.8500000000000002
Info: NONBONDED TABLE R-SQUARED SPACING: 0.0625
Info: NONBONDED TABLE SIZE: 705 POINTS
TCL: Running for 1500000 steps
ETITLE: TS BOND ANGLE DIHED IMPRP ELECT VDW BOUNDARY MISC KINETIC TOTAL TEMP POTENTIAL TOTALAVG TEMPAVG PRESSURE GPRESSURE VOLUME PRESSAVG GPRESSAVG
ENERGY: 0 3.3495 2.6870 4.5866 0.0000 -10580.2428 1363.8495 0.0000 0.0000 1790.1249 -7415.6452 304.1296 -9205.7702 -7415.6452 304.1296 -538.7810 -438.8769 30977.9852 -538.7810 -438.8769
ENERGY: 300000 2.7389 2.0212 1.7966 0.0000 -10832.5839 1465.9763 0.0000 0.0000 1751.0746 -7608.9763 297.4952 -9360.0509 -7525.3559 299.6361 262.6914 294.8637 29597.9661 -33.8130 29.9226
ENERGY: 600000 3.2719 1.5338 1.8806 0.0000 -10666.0414 1403.8781 0.0000 0.0000 1736.6986 -7518.7784 295.0528 -9255.4770 -7515.6311 298.8132 -510.3390 -397.8612 30804.0795 42.8896 107.5664
ENERGY: 900000 1.9174 2.2946 1.5825 0.0000 -10719.1076 1495.2224 0.0000 0.0000 1754.8946 -7463.1961 298.1442 -9218.0907 -7507.4061 299.3693 213.0345 292.6841 31121.6393 140.0286 200.7741
ENERGY: 1200000 1.0375 3.3481 1.5553 0.0000 -10776.2947 1540.1509 0.0000 0.0000 1749.4098 -7480.7931 297.2124 -9230.2029 -7511.4661 299.8575 1030.1842 1099.0662 30172.0156 227.1965 287.2420
ENERGY: 1500000 1.1935 0.9496 3.2589 0.0000 -10686.5829 1358.0458 0.0000 0.0000 1759.7397 -7563.3954 298.9673 -9323.1350 -7514.6591 300.2572 -743.6718 -699.9272 30451.2292 133.0616 188.7252
TCL: Running FEP window  18: Lambda1 0.8500000000000002 Lambda2 0.9000000000000002 [dLambda 0.050000000000000044]
TCL: Setting parameter firsttimestep to 0
TCL: Setting parameter alchLambda to 0.8500000000000002
Info: NONBONDED TABLE R-SQUARED SPACING: 0.0625
Info: NONBONDED TABLE SIZE: 705 POINTS
TCL: Setting parameter alchLambda2 to 0.9000000000000002
Info: NONBONDED TABLE R-SQUARED SPACING: 0.0625
Info: NONBONDED TABLE SIZE: 705 POINTS
TCL: Running for 1500000 steps
ETITLE: TS BOND ANGLE DIHED IMPRP ELECT VDW BOUNDARY MISC KINETIC TOTAL TEMP POTENTIAL TOTALAVG TEMPAVG PRESSURE GPRESSURE VOLUME PRESSAVG GPRESSAVG
ENERGY: 0 1.1935 0.9496 3.2589 0.0000 -10686.8510 1357.5511 0.0000 0.0000 1758.9010 -7564.9968 298.8249 -9323.8978 -7564.9968 298.8249 -786.8181 -695.6663 30451.2292 -786.8181 -695.6663
ENERGY: 300000 3.8523 2.1005 1.9096 0.0000 -10715.4113 1460.9018 0.0000 0.0000 1780.2034 -7466.4436 302.4440 -9246.6470 -7544.2639 298.1969 157.1222 252.4249 30529.1186 117.4212 197.4534
ENERGY: 600000 3.3077 2.7613 2.3525 0.0000 -10690.8210 1386.1313 0.0000 0.0000 1783.8738 -7512.3944 303.0676 -9296.2682 -7534.4104 298.8048 -431.2556 -357.0051 30473.7908 -65.5867 12.7483
ENERGY: 900000 4.7870 2.4866 1.3852 0.0000 -10726.2804 1312.4519 0.0000 0.0000 1758.3626 -7646.8071 298.7334 -9405.1696 -7552.4498 298.3387 -1121.1321 -1076.9366 29794.5727 -245.6415 -174.0441
ENERGY: 1200000 1.5198 1.8426 3.0106 0.0000 -10821.9586 1523.0742 0.0000 0.0000 1769.6834 -7522.8280 300.6567 -9292.5114 -7541.7927 298.6369 590.3269 657.8484 30509.2128 -140.4847 -66.1483
ENERGY: 1500000 4.7859 2.0414 3.4873 0.0000 -10752.0265 1402.5119 0.0000 0.0000 1732.6561 -7606.5440 294.3660 -9339.2001 -7540.0528 298.7662 -438.5768 -406.9336 30450.8328 -143.9963 -72.9666
TCL: Running FEP window  19: Lambda1 0.9000000000000002 Lambda2 0.9500000000000003 [dLambda 0.050000000000000044]
TCL: Setting parameter firsttimestep to 0
TCL: Setting parameter alchLambda to 0.9000000000000002
Info: NONBONDED TABLE R-SQUARED SPACING: 0.0625
Info: NONBONDED TABLE SIZE: 705 POINTS
TCL: Setting parameter alchLambda2 to 0.9500000000000003
Info: NONBONDED TABLE R-SQUARED SPACING: 0.0625
Info: NONBONDED TABLE SIZE: 705 POINTS
TCL: Running for 1500000 steps
ETITLE: TS BOND ANGLE DIHED IMPRP ELECT VDW BOUNDARY MISC KINETIC TOTAL TEMP POTENTIAL TOTALAVG TEMPAVG PRESSURE GPRESSURE VOLUME PRESSAVG GPRESSAVG
ENERGY: 0 4.7859 2.0414 3.4873 0.0000 -10752.1585 1402.1184 0.0000 0.0000 1731.8185 -7607.9070 294.2237 -9339.7255 -7607.9070 294.2237 -466.6941 -403.2156 30450.8328 -466.6941 -403.2156
ENERGY: 300000 1.2287 3.1211 2.9731 0.0000 -10788.7026 1492.1487 0.0000 0.0000 1800.1481 -7489.0830 305.8324 -9289.2311 -7522.2609 299.2083 475.6278 550.5203 30343.4803 -7.0730 57.9101
ENERGY: 600000 1.5075 0.7698 0.8452 0.0000 -10650.4562 1409.3133 0.0000 0.0000 1714.6768 -7523.3435 291.3115 -9238.0203 -7533.7518 299.0432 -101.8685 -9.1014 30402.9660 22.1151 77.9419
ENERGY: 900000 3.5177 1.4344 2.8174 0.0000 -10778.2860 1420.9210 0.0000 0.0000 1774.5231 -7575.0725 301.4789 -9349.5955 -7540.7945 299.3672 -283.6360 -240.3305 30351.5326 13.9444 81.7611
ENERGY: 1200000 1.6018 1.6582 2.3249 0.0000 -10697.1087 1434.6480 0.0000 0.0000 1747.3443 -7509.5315 296.8615 -9256.8758 -7522.6902 299.4242 -67.6711 -24.3473 30536.6982 85.2637 148.5365
ENERGY: 1500000 1.4136 1.1173 3.7404 0.0000 -10810.7265 1502.5577 0.0000 0.0000 1709.9634 -7591.9340 290.5107 -9301.8974 -7521.1370 299.1567 654.6198 642.1880 30040.5052 114.7649 174.1949
TCL: Running FEP window  20: Lambda1 0.9500000000000003 Lambda2 1.0    [dLambda 0.04999999999999971]
TCL: Setting parameter firsttimestep to 0
TCL: Setting parameter alchLambda to 0.9500000000000003
Info: NONBONDED TABLE R-SQUARED SPACING: 0.0625
Info: NONBONDED TABLE SIZE: 705 POINTS
TCL: Setting parameter alchLambda2 to 1.0
Info: NONBONDED TABLE R-SQUARED SPACING: 0.0625
Info: NONBONDED TABLE SIZE: 705 POINTS
TCL: Running for 1500000 steps
ETITLE: TS BOND ANGLE DIHED IMPRP ELECT VDW BOUNDARY MISC KINETIC TOTAL TEMP POTENTIAL TOTALAVG TEMPAVG PRESSURE GPRESSURE VOLUME PRESSAVG GPRESSAVG
ENERGY: 0 1.4136 1.1174 3.7404 0.0000 -10811.3045 1502.6730 0.0000 0.0000 1709.0672 -7593.2929 290.3585 -9302.3601 -7593.2929 290.3585 555.3187 656.1457 30040.5052 555.3187 656.1457
ENERGY: 300000 3.0898 2.8247 0.9138 0.0000 -10850.6601 1533.7682 0.0000 0.0000 1797.6901 -7512.3735 305.4149 -9310.0636 -7544.3469 298.4469 918.1679 1008.3318 30201.0948 579.5132 663.2018
ENERGY: 600000 2.1217 6.7147 2.0462 0.0000 -10773.0943 1476.6175 0.0000 0.0000 1738.5937 -7547.0004 295.3748 -9285.5941 -7529.4764 298.1102 157.9996 151.6901 30505.1766 231.4753 281.4952
ENERGY: 900000 2.2183 1.8582 2.4930 0.0000 -10651.6006 1371.9833 0.0000 0.0000 1778.7352 -7494.3125 302.1945 -9273.0477 -7515.6540 299.7103 -384.3880 -364.9690 30484.2242 178.4524 225.2359
ENERGY: 1200000 1.5389 2.0094 2.1637 0.0000 -10804.0733 1477.6881 0.0000 0.0000 1736.7050 -7583.9682 295.0539 -9320.6732 -7510.5099 299.1507 176.7776 209.4255 30320.1525 211.6589 263.7654
ENERGY: 1500000 7.1257 3.4399 1.8278 0.0000 -10787.0803 1519.6107 0.0000 0.0000 1721.6644 -7533.4118 292.4986 -9255.0762 -7509.3563 298.9285 408.0572 488.2396 30611.9646 93.7545 156.6601
TCL: Exiting due to exit command.
