Info: SIMULATION PARAMETERS:
Info: TIMESTEP               2
Info: NUMBER OF STEPS        0
Info: STEPS PER CYCLE        10
Info: PERIODIC CELL BASIS 1  81.1049 0 0
Info: PERIODIC CELL BASIS 2  0 81.1049 0
Info: PERIODIC CELL BASIS 3  0 0 81.1049
Info: PERIODIC CELL CENTER   36.888 36.888 36.888
Info: WRAPPING ALL CLUSTERS AROUND PERIODIC BOUNDARIES ON OUTPUT.
Info: FIRST LDB TIMESTEP     50
Info: LAST LDB TIMESTEP     -1
Info: HOM BACKGROUND SCALING 1
Info: PME BACKGROUND SCALING 1
Info: MIN ATOMS PER PATCH    40
Info: EMPTY PATCH LOAD       40 ATOMS
Info: VELOCITY FILE          mobley_7988076_equilibrated.vel
Info: CENTER OF MASS MOVING INITIALLY? NO
Info: DIELECTRIC             1
Info: EXCLUDE                SCALED ONE-FOUR
Info: 1-4 ELECTROSTATICS SCALED BY 1
Info: MODIFIED 1-4 VDW PARAMETERS WILL BE USED
Info: DCD FILENAME           mobley_7988076_forwards.dcd
Info: DCD FREQUENCY          500
Info: DCD FIRST STEP         500
Info: DCD FILE WILL CONTAIN UNIT CELL DATA
Info: NO EXTENDED SYSTEM TRAJECTORY OUTPUT
Info: NO VELOCITY DCD OUTPUT
Info: NO FORCE DCD OUTPUT
Info: OUTPUT FILENAME        mobley_7988076_forwards
Info: BINARY OUTPUT FILES WILL BE USED
Info: NO RESTART FILE
Info: SWITCHING ACTIVE
Info: SWITCHING ON           10
Info: SWITCHING OFF          12
Info: PAIRLIST DISTANCE      14
Info: PAIRLIST SHRINK RATE   0.01
Info: PAIRLIST GROW RATE     0.01
Info: PAIRLIST TRIGGER       0.3
Info: PAIRLISTS PER CYCLE    2
Info: PAIRLISTS ENABLED
Info: MARGIN                 8
Info: HYDROGEN GROUP CUTOFF  2.5
Info: PATCH DIMENSION        24.5
Info: ENERGY OUTPUT STEPS    500
Info: ENERGY EVALUATION STEPS    500
Info: OUTPUT ENERGY PRECISION 4
Info: CROSSTERM ENERGY INCLUDED IN DIHEDRAL
Info: TIMING OUTPUT STEPS    500
Info: PRESSURE OUTPUT STEPS  500
Info: ALCHEMICAL FEP ON
Info: FEP CURRENT LAMBDA VALUE     0
Info: FEP COMPARISON LAMBDA VALUE  0.0625
Info: FEP INTRA-ALCHEMICAL NON-BONDED INTERACTIONS WILL BE DECOUPLED
Info: FEP INTRA-ALCHEMICAL BONDED INTERACTIONS WILL BE RETAINED
Info: FEP VDW SHIFTING COEFFICIENT 6
Info: FEP ELEC. ACTIVE FOR ANNIHILATED PARTICLES BETWEEN LAMBDA = 0 AND LAMBDA = 0.5
Info: FEP ELEC. ACTIVE FOR EXNIHILATED PARTICLES BETWEEN LAMBDA = 0.5 AND LAMBDA = 1
Info: FEP VDW ACTIVE FOR ANNIHILATED PARTICLES BETWEEN LAMBDA = 0 AND LAMBDA = 1
Info: FEP VDW ACTIVE FOR EXNIHILATED PARTICLES BETWEEN LAMBDA = 0 AND LAMBDA = 1
Info: FEP BOND ACTIVE FOR ANNIHILATED PARTICLES BETWEEN LAMBDA = 1 AND LAMBDA = 1
Info: FEP BOND ACTIVE FOR EXNIHILATED PARTICLES BETWEEN LAMBDA = 0 AND LAMBDA = 0
Info: LANGEVIN DYNAMICS ACTIVE
Info: LANGEVIN TEMPERATURE   298
Info: LANGEVIN USING BBK INTEGRATOR
Info: LANGEVIN DAMPING COEFFICIENT IS 1 INVERSE PS
Info: LANGEVIN DYNAMICS NOT APPLIED TO HYDROGENS
Info: LANGEVIN PISTON PRESSURE CONTROL ACTIVE
Info:        TARGET PRESSURE IS 1.01325 BAR
Info:     OSCILLATION PERIOD IS 100 FS
Info:             DECAY TIME IS 50 FS
Info:     PISTON TEMPERATURE IS 298 K
Info:       PRESSURE CONTROL IS GROUP-BASED
Info:    INITIAL STRAIN RATE IS -5.47402e-05 -5.47402e-05 -5.47402e-05
Info:       CELL FLUCTUATION IS ISOTROPIC
Info: PARTICLE MESH EWALD (PME) ACTIVE
Info: PME TOLERANCE               1e-05
Info: PME EWALD COEFFICIENT       0.226635
Info: PME INTERPOLATION ORDER     4
Info: PME GRID DIMENSIONS         84 84 84
Info: PME MAXIMUM GRID SPACING    1
Info: FULL ELECTROSTATIC EVALUATION FREQUENCY      1
Info: USING VERLET I (r-RESPA) MTS SCHEME.
Info: C1 SPLITTING OF LONG RANGE ELECTROSTATICS
Info: PLACING ATOMS IN PATCHES BY HYDROGEN GROUPS
Info: RIGID BONDS TO HYDROGEN : ALL
Info:         ERROR TOLERANCE : 1e-08
Info:          MAX ITERATIONS : 100
Info: RIGID WATER USING SETTLE ALGORITHM
Info: RANDOM NUMBER SEED     1740650803
Info: USE HYDROGEN BONDS?    NO
Info: COORDINATE PDB         mobley_7988076.pdb
Info: STRUCTURE FILE         mobley_7988076.psf
Info: PARAMETER file: CHARMM format!
Info: PARAMETERS             ../common/par_all27_prot_lipid.inp
Info: PARAMETERS             mobley_7988076.prm
Info: USING ARITHMETIC MEAN TO COMBINE L-J SIGMA PARAMETERS
Info: BINARY COORDINATES     mobley_7988076_equilibrated.coor
Info: SUMMARY OF PARAMETERS:
Info: 187 BONDS
Info: 455 ANGLES
Info: 576 DIHEDRAL
Info: 50 IMPROPER
Info: 6 CROSSTERM
Info: 126 VDW
Info: 0 VDW_PAIRS
Info: 0 NBTHOLE_PAIRS
Info: To read alchdata from file: mobley_7988076.pdb
Info: To read alchflag data from column: 5
Info: STRUCTURE SUMMARY:
Info: 4887 ATOMS
Info: 3263 BONDS
Info: 1646 ANGLES
Info: 30 DIHEDRALS
Info: 7 IMPROPERS
Info: 0 CROSSTERMS
Info: 0 EXCLUSIONS
Info: 4878 RIGID BONDS
Info: ALCH: 0 ATOMS TO DISAPPEAR IN FINAL STATE
Info: ALCH: 15 ATOMS TO APPEAR IN FINAL STATE
Info: 9783 DEGREES OF FREEDOM
Info: 1633 HYDROGEN GROUPS
Info: 3 ATOMS IN LARGEST HYDROGEN GROUP
Info: 1633 MIGRATION GROUPS
Info: 3 ATOMS IN LARGEST MIGRATION GROUP
Info: TOTAL MASS = 29379.1 amu
Info: TOTAL CHARGE = -2.18861e-08 e
Info: MASS DENSITY = 0.0914444 g/cm^3
Info: ATOM DENSITY = 0.00916012 atoms/A^3
Info: ADDED 4936 IMPLICIT EXCLUSIONS
Info: NONBONDED TABLE R-SQUARED SPACING: 0.0625
Info: NONBONDED TABLE SIZE: 769 POINTS
Info: REMOVING COM VELOCITY 0.119404 0.174621 0.0304727
TCL: Running for 5000 steps
ETITLE: TS BOND ANGLE DIHED IMPRP ELECT VDW BOUNDARY MISC KINETIC TOTAL TEMP POTENTIAL TOTAL3 TEMPAVG PRESSURE GPRESSURE VOLUME PRESSAVG GPRESSAVG
ENERGY: 0 2.7176 2.8626 3.0400 0.2922 -16775.8951 1742.6868 0.0000 0.0000 2910.7673 -12113.5286 299.4510 -15024.2959 -12107.9741 299.4510 -28.3435 -28.3435 533508.3672 -28.3435 -28.3435
ENERGY: 1000 4.5307 2.0380 1.9182 0.1270 -16883.9071 1846.5113 0.0000 0.0000 2874.5526 -12154.2294 295.7254 -15028.7820 -12147.7663 296.3023 11.7258 10.8705 536208.7969 -0.2164 -0.1798
ENERGY: 2000 4.3847 2.9461 5.3089 0.4721 -16859.6100 1754.1415 0.0000 0.0000 2940.9696 -12151.3872 302.5582 -15092.3567 -12144.8590 298.8897 -30.7667 -30.2528 549392.1162 0.4304 0.4465
ENERGY: 3000 1.4034 3.8260 5.4318 0.6982 -16779.8764 1791.4896 0.0000 0.0000 2942.7790 -12034.2484 302.7443 -14977.0274 -12028.3008 302.6506 6.7605 6.5970 547703.1915 1.6650 1.7238
ENERGY: 4000 3.4830 3.6536 2.9480 0.2752 -16750.2472 1704.6025 0.0000 0.0000 2838.4752 -12196.8098 292.0138 -15035.2850 -12190.9515 300.1491 -39.9241 -40.0017 508652.6940 1.4207 1.4096
ENERGY: 5000 2.7890 5.1896 4.3211 0.5860 -17009.6282 1866.0913 0.0000 0.0000 2884.9647 -12245.6865 296.7965 -15130.6511 -12239.9107 296.2076 26.4611 25.9630 504096.5451 2.7625 2.7317
TCL: Running FEP window   2: Lambda1 0.0625 Lambda2 0.125  [dLambda 0.0625]
TCL: Setting parameter firsttimestep to 0
TCL: Setting parameter alchLambda to 0.0625
Info: NONBONDED TABLE R-SQUARED SPACING: 0.0625
Info: NONBONDED TABLE SIZE: 769 POINTS
TCL: Setting parameter alchLambda2 to 0.125
Info: NONBONDED TABLE R-SQUARED SPACING: 0.0625
Info: NONBONDED TABLE SIZE: 769 POINTS
TCL: Running for 5000 steps
ETITLE: TS BOND ANGLE DIHED IMPRP ELECT VDW BOUNDARY MISC KINETIC TOTAL TEMP POTENTIAL TOTAL3 TEMPAVG PRESSURE GPRESSURE VOLUME PRESSAVG GPRESSAVG
ENERGY: 0 2.7890 5.1896 4.3211 0.5860 -17009.6282 1866.1716 0.0000 0.0000 2884.8788 -12245.6921 296.7877 -15130.5709 -12240.1395 296.7877 26.1173 26.1173 504096.5451 26.1173 26.1173
ENERGY: 1000 4.7597 4.1818 4.0603 0.6870 -16770.0856 1734.7439 0.0000 0.0000 2931.5367 -12090.1161 301.5877 -15021.6529 -12086.1600 298.4097 -12.9596 -13.2012 496139.4231 2.4201 2.3951
ENERGY: 2000 4.8108 5.1719 2.8970 0.2518 -17003.7577 1869.4672 0.0000 0.0000 2925.4267 -12195.7322 300.9591 -15121.1589 -12189.5187 298.0253 54.7449 54.6398 480137.1059 -0.8395 -0.8414
ENERGY: 3000 2.3845 4.6566 1.5646 0.1770 -16806.5819 1782.4861 0.0000 0.0000 2864.4027 -12150.9104 294.6812 -15015.3131 -12144.8960 298.7133 5.1473 4.0645 478193.2297 2.0231 2.0370
ENERGY: 4000 4.2580 4.2278 1.7508 0.1764 -16906.5291 1812.3970 0.0000 0.0000 2861.7458 -12221.9734 294.4078 -15083.7192 -12216.0993 296.3246 -4.4159 -3.8366 470969.2022 -0.0723 -0.0670
ENERGY: 5000 2.5721 3.1953 1.5885 0.2533 -16832.2805 1780.7435 0.0000 0.0000 2829.1380 -12214.7898 291.0533 -15043.9278 -12208.8298 295.3675 -12.2867 -12.6300 466312.2974 2.1187 2.1213
TCL: Running FEP window   3: Lambda1 0.125  Lambda2 0.1875 [dLambda 0.0625]
TCL: Setting parameter firsttimestep to 0
TCL: Setting parameter alchLambda to 0.125
Info: NONBONDED TABLE R-SQUARED SPACING: 0.0625
Info: NONBONDED TABLE SIZE: 769 POINTS
TCL: Setting parameter alchLambda2 to 0.1875
Info: NONBONDED TABLE R-SQUARED SPACING: 0.0625
Info: NONBONDED TABLE SIZE: 769 POINTS
TCL: Running for 5000 steps
ETITLE: TS BOND ANGLE DIHED IMPRP ELECT VDW BOUNDARY MISC KINETIC TOTAL TEMP POTENTIAL TOTAL3 TEMPAVG PRESSURE GPRESSURE VOLUME PRESSAVG GPRESSAVG
ENERGY: 0 2.5721 3.1953 1.5885 0.2533 -16832.2805 1780.8095 0.0000 0.0000 2829.0486 -12214.8132 291.0441 -15043.8618 -12209.6773 291.0441 -12.3219 -12.3219 466312.2974 -12.3219 -12.3219
ENERGY: 1000 4.7917 2.5996 0.8187 0.3605 -16834.1735 1708.9509 0.0000 0.0000 2869.6969 -12246.9551 295.2258 -15116.6521 -12241.9457 296.2120 -43.6226 -43.9185 445685.7468 -0.2856 -0.2680
ENERGY: 2000 1.6626 2.9105 6.5536 1.3814 -16801.3789 1694.4214 0.0000 0.0000 2877.6080 -12216.8415 296.0397 -15094.4495 -12211.0228 296.1822 -61.1983 -61.3768 444924.4440 2.5717 2.5825
ENERGY: 3000 5.0085 3.0280 4.7606 0.2984 -16773.4885 1761.6652 0.0000 0.0000 2852.4871 -12146.2407 293.4553 -14998.7278 -12140.1102 296.8780 -4.4301 -4.6831 430098.4073 1.6746 1.7412
ENERGY: 4000 2.2065 3.9834 5.5931 0.2473 -16857.7129 1818.1952 0.0000 0.0000 2910.6377 -12116.8497 299.4377 -15027.4874 -12111.2893 300.0764 14.7562 15.9090 421221.9581 1.3699 1.3783
ENERGY: 5000 2.9793 2.6712 3.6310 0.2039 -16826.3096 1782.3428 0.0000 0.0000 2839.9008 -12194.5806 292.1605 -15034.4815 -12189.8268 297.1123 2.8838 3.7701 407997.3114 -0.3674 -0.3741
TCL: Running FEP window   4: Lambda1 0.1875 Lambda2 0.25   [dLambda 0.0625]
TCL: Setting parameter firsttimestep to 0
TCL: Setting parameter alchLambda to 0.1875
Info: NONBONDED TABLE R-SQUARED SPACING: 0.0625
Info: NONBONDED TABLE SIZE: 769 POINTS
TCL: Setting parameter alchLambda2 to 0.25
Info: NONBONDED TABLE R-SQUARED SPACING: 0.0625
Info: NONBONDED TABLE SIZE: 769 POINTS
TCL: Running for 5000 steps
ETITLE: TS BOND ANGLE DIHED IMPRP ELECT VDW BOUNDARY MISC KINETIC TOTAL TEMP POTENTIAL TOTAL3 TEMPAVG PRESSURE GPRESSURE VOLUME PRESSAVG GPRESSAVG
ENERGY: 0 2.9793 2.6712 3.6310 0.2039 -16826.3096 1782.9240 0.0000 0.0000 2839.8102 -12194.0900 292.1512 -15033.9003 -12188.8074 292.1512 4.0835 4.0835 407997.3114 4.0835 4.0835
ENERGY: 1000 3.2129 5.1961 3.6549 0.3571 -16890.0475 1771.9472 0.0000 0.0000 2907.5744 -12198.1050 299.1226 -15105.6794 -12191.3982 298.3043 -5.9578 -6.9792 397307.7329 0.6080 0.5866
ENERGY: 2000 2.5813 6.6008 1.5807 0.1702 -16890.0227 1829.0620 0.0000 0.0000 2923.8523 -12126.1755 300.7972 -15050.0277 -12122.5643 297.0366 22.4953 21.8514 401981.7228 3.7182 3.7358
ENERGY: 3000 2.5151 3.8267 1.3294 0.0868 -17009.1643 1837.6584 0.0000 0.0000 2967.5427 -12196.2052 305.2919 -15163.7479 -12192.9648 297.2141 11.1316 11.1378 413367.1031 0.7031 0.6800
ENERGY: 4000 1.2778 5.6005 1.8667 0.5358 -16775.7408 1695.7377 0.0000 0.0000 2864.5996 -12206.1226 294.7014 -15070.7222 -12201.1284 295.5776 -43.3611 -43.0518 410500.5844 3.0652 3.0451
ENERGY: 5000 1.2358 2.6920 1.9349 0.1628 -16928.2218 1777.8475 0.0000 0.0000 2913.5556 -12230.7933 299.7379 -15144.3488 -12225.5819 293.5039 -18.9716 -19.0639 427976.2447 2.0514 2.0387
TCL: Running FEP window   5: Lambda1 0.25   Lambda2 0.3125 [dLambda 0.0625]
TCL: Setting parameter firsttimestep to 0
TCL: Setting parameter alchLambda to 0.25
Info: NONBONDED TABLE R-SQUARED SPACING: 0.0625
Info: NONBONDED TABLE SIZE: 769 POINTS
TCL: Setting parameter alchLambda2 to 0.3125
Info: NONBONDED TABLE R-SQUARED SPACING: 0.0625
Info: NONBONDED TABLE SIZE: 769 POINTS
TCL: Running for 5000 steps
ETITLE: TS BOND ANGLE DIHED IMPRP ELECT VDW BOUNDARY MISC KINETIC TOTAL TEMP POTENTIAL TOTAL3 TEMPAVG PRESSURE GPRESSURE VOLUME PRESSAVG GPRESSAVG
ENERGY: 0 1.2358 2.6920 1.9349 0.1628 -16928.2218 1777.4861 0.0000 0.0000 2913.4678 -12231.2424 299.7289 -15144.7102 -12225.8426 299.7289 -19.0008 -19.0008 427976.2447 -19.0008 -19.0008
ENERGY: 1000 2.5994 3.2165 2.4950 0.1501 -17038.8966 1883.9704 0.0000 0.0000 2908.0613 -12238.4038 299.1726 -15146.4651 -12233.4005 294.3712 58.5192 59.5356 417005.7479 1.1643 1.1200
ENERGY: 2000 1.1595 3.2503 4.8049 0.6019 -16976.0497 1845.8585 0.0000 0.0000 2925.0068 -12195.3677 300.9160 -15120.3745 -12190.2308 296.4775 5.0031 4.7054 415970.3388 2.8018 2.7798
ENERGY: 3000 3.8627 2.2929 2.6518 0.8863 -17092.3566 1944.9962 0.0000 0.0000 2890.5900 -12247.0767 297.3753 -15137.6667 -12245.1179 297.3877 103.2635 102.2772 394847.3247 1.9443 1.8825
ENERGY: 4000 2.6685 1.6971 3.9225 0.2009 -16953.6338 1774.3457 0.0000 0.0000 2906.5300 -12264.2691 299.0151 -15170.7991 -12257.0401 296.0691 -39.7286 -39.9470 384085.4118 3.4629 3.3772
ENERGY: 5000 1.3285 5.8875 1.1646 2.1797 -16812.4790 1742.3863 0.0000 0.0000 2853.7416 -12205.7908 293.5844 -15059.5324 -12200.5734 296.8845 -13.9166 -14.2112 386203.3076 0.3079 0.3398
TCL: Running FEP window   6: Lambda1 0.3125 Lambda2 0.375  [dLambda 0.0625]
TCL: Setting parameter firsttimestep to 0
TCL: Setting parameter alchLambda to 0.3125
Info: NONBONDED TABLE R-SQUARED SPACING: 0.0625
Info: NONBONDED TABLE SIZE: 769 POINTS
TCL: Setting parameter alchLambda2 to 0.375
Info: NONBONDED TABLE R-SQUARED SPACING: 0.0625
Info: NONBONDED TABLE SIZE: 769 POINTS
TCL: Running for 5000 steps
ETITLE: TS BOND ANGLE DIHED IMPRP ELECT VDW BOUNDARY MISC KINETIC TOTAL TEMP POTENTIAL TOTAL3 TEMPAVG PRESSURE GPRESSURE VOLUME PRESSAVG GPRESSAVG
ENERGY: 0 1.3285 5.8875 1.1646 2.1797 -16812.4790 1742.2039 0.0000 0.0000 2853.6528 -12206.0620 293.5753 -15059.7148 -12200.8880 293.5753 -13.7948 -13.7948 386203.3076 -13.7948 -13.7948
ENERGY: 1000 1.8733 2.4329 3.7311 0.6402 -16962.9304 1836.7938 0.0000 0.0000 2961.9683 -12155.4908 304.7184 -15117.4592 -12151.0999 299.1672 24.4208 24.8608 366301.3210 1.5589 1.5639
ENERGY: 2000 2.7289 1.8080 3.8186 0.3437 -16959.6889 1884.2137 0.0000 0.0000 2875.7527 -12191.0234 295.8488 -15066.7760 -12184.1840 298.8071 70.8956 71.4378 375164.0513 3.6697 3.6218
ENERGY: 3000 4.4549 2.3560 2.2439 0.3872 -16932.6585 1868.8301 0.0000 0.0000 2868.3660 -12186.0204 295.0889 -15054.3864 -12180.8345 297.4808 68.1407 67.5716 373231.1140 -1.2945 -1.2942
ENERGY: 4000 2.1133 3.1850 6.7084 1.2375 -16840.1062 1773.7010 0.0000 0.0000 2855.1081 -12198.0530 293.7250 -15053.1611 -12193.1742 297.7839 -26.5676 -25.8041 370122.3927 4.3318 4.3335
ENERGY: 5000 3.5579 1.9567 1.4348 1.1699 -16969.4338 1848.5478 0.0000 0.0000 2924.2199 -12188.5469 300.8350 -15112.7668 -12183.8504 296.8388 46.0291 45.3276 368657.3551 1.7666 1.7090
TCL: Running FEP window   7: Lambda1 0.375  Lambda2 0.4375 [dLambda 0.0625]
TCL: Setting parameter firsttimestep to 0
TCL: Setting parameter alchLambda to 0.375
Info: NONBONDED TABLE R-SQUARED SPACING: 0.0625
Info: NONBONDED TABLE SIZE: 769 POINTS
TCL: Setting parameter alchLambda2 to 0.4375
Info: NONBONDED TABLE R-SQUARED SPACING: 0.0625
Info: NONBONDED TABLE SIZE: 769 POINTS
TCL: Running for 5000 steps
ETITLE: TS BOND ANGLE DIHED IMPRP ELECT VDW BOUNDARY MISC KINETIC TOTAL TEMP POTENTIAL TOTAL3 TEMPAVG PRESSURE GPRESSURE VOLUME PRESSAVG GPRESSAVG
ENERGY: 0 3.5579 1.9567 1.4348 1.1699 -16969.4338 1847.8827 0.0000 0.0000 2924.1285 -12189.3034 300.8256 -15113.4319 -12184.1048 300.8256 45.4325 45.4325 368657.3551 45.4325 45.4325
ENERGY: 1000 1.2759 4.4399 3.6904 0.6718 -17004.8362 1802.3595 0.0000 0.0000 2939.8441 -12252.5547 302.4424 -15192.3987 -12243.5591 299.2377 11.9782 12.7000 364703.7669 3.6706 3.5763
ENERGY: 2000 3.0377 5.3427 4.7536 0.4310 -16859.8157 1760.9360 0.0000 0.0000 2914.2496 -12171.0651 299.8093 -15085.3147 -12163.4410 296.3741 -25.0818 -24.2167 358059.5644 4.6246 4.6100
ENERGY: 3000 2.8203 3.0665 2.8056 0.1065 -16871.1684 1744.0599 0.0000 0.0000 2851.0817 -12267.2278 293.3108 -15118.3095 -12260.6775 294.4125 -19.1593 -18.6900 359469.0981 0.7932 0.7750
ENERGY: 4000 2.2997 4.0146 2.7148 0.4959 -17052.4636 1816.4378 0.0000 0.0000 2901.4632 -12325.0375 298.4939 -15226.5007 -12322.1994 293.6402 9.7640 10.1630 360137.0514 1.4787 1.4914
ENERGY: 5000 0.9914 2.7915 4.8757 0.3120 -16936.4925 1825.2670 0.0000 0.0000 2842.2175 -12260.0374 292.3988 -15102.2549 -12254.9485 294.1412 19.4423 19.9544 371272.9860 2.7437 2.7624
TCL: Running FEP window   8: Lambda1 0.4375 Lambda2 0.5    [dLambda 0.0625]
TCL: Setting parameter firsttimestep to 0
TCL: Setting parameter alchLambda to 0.4375
Info: NONBONDED TABLE R-SQUARED SPACING: 0.0625
Info: NONBONDED TABLE SIZE: 769 POINTS
TCL: Setting parameter alchLambda2 to 0.5
Info: NONBONDED TABLE R-SQUARED SPACING: 0.0625
Info: NONBONDED TABLE SIZE: 769 POINTS
TCL: Running for 5000 steps
ETITLE: TS BOND ANGLE DIHED IMPRP ELECT VDW BOUNDARY MISC KINETIC TOTAL TEMP POTENTIAL TOTAL3 TEMPAVG PRESSURE GPRESSURE VOLUME PRESSAVG GPRESSAVG
ENERGY: 0 0.9914 2.7915 4.8757 0.3120 -16936.4925 1827.1867 0.0000 0.0000 2842.1293 -12258.2059 292.3898 -15100.3352 -12252.5907 292.3898 21.4729 21.4729 371272.9860 21.4729 21.4729
ENERGY: 1000 3.1202 3.6629 4.1371 0.2911 -16777.7784 1658.8517 0.0000 0.0000 2801.1525 -12306.5629 288.1742 -15107.7154 -12298.8189 291.3982 -68.6042 -67.8377 375902.4225 4.6212 4.6094
ENERGY: 2000 1.4182 4.9566 2.3696 0.1246 -16977.3212 1777.1698 0.0000 0.0000 2878.0868 -12313.1955 296.0890 -15191.2823 -12307.1375 291.9902 -19.5699 -18.2741 363752.7678 -1.9300 -1.9506
ENERGY: 3000 3.3014 4.1536 3.1848 0.6420 -16907.5203 1802.7751 0.0000 0.0000 2901.4930 -12191.9704 298.4969 -15093.4634 -12186.3966 297.1852 2.6823 3.0359 362408.2825 -0.7063 -0.6507
ENERGY: 4000 2.6271 2.6929 2.2134 1.1984 -16970.2467 1811.2100 0.0000 0.0000 2989.6686 -12160.6364 307.5682 -15150.3050 -12153.0751 299.5725 43.9968 43.1313 349513.2569 1.3620 1.3275
ENERGY: 5000 1.7394 2.8134 3.3574 0.4938 -16875.6579 1815.8656 0.0000 0.0000 2964.9257 -12086.4626 305.0227 -15051.3883 -12081.8402 301.0229 52.6549 52.2162 344694.6740 1.6035 1.5670
TCL: Running FEP window   9: Lambda1 0.5    Lambda2 0.5625 [dLambda 0.0625]
TCL: Setting parameter firsttimestep to 0
TCL: Setting parameter alchLambda to 0.5
Info: NONBONDED TABLE R-SQUARED SPACING: 0.0625
Info: NONBONDED TABLE SIZE: 769 POINTS
TCL: Setting parameter alchLambda2 to 0.5625
Info: NONBONDED TABLE R-SQUARED SPACING: 0.0625
Info: NONBONDED TABLE SIZE: 769 POINTS
TCL: Running for 5000 steps
ETITLE: TS BOND ANGLE DIHED IMPRP ELECT VDW BOUNDARY MISC KINETIC TOTAL TEMP POTENTIAL TOTAL3 TEMPAVG PRESSURE GPRESSURE VOLUME PRESSAVG GPRESSAVG
ENERGY: 0 1.7394 2.8134 3.3574 0.4938 -16875.6579 1815.5381 0.0000 0.0000 2964.8416 -12086.8742 305.0140 -15051.7158 -12081.5863 305.0140 52.7330 52.7330 344694.6740 52.7330 52.7330
ENERGY: 1000 2.3565 2.6779 3.2721 0.3963 -16885.8065 1803.6069 0.0000 0.0000 2892.8953 -12180.6015 297.6124 -15073.4968 -12175.4631 298.2675 7.7000 6.1178 354116.4841 3.0673 3.0457
ENERGY: 2000 1.3141 2.8536 2.7976 1.4901 -16967.9191 1818.3662 0.0000 0.0000 3036.9823 -12104.1153 312.4357 -15141.0976 -12096.3729 297.5507 32.7758 32.0119 370533.6707 2.5908 2.6432
ENERGY: 3000 1.5371 4.0735 3.8034 0.5506 -16766.4422 1694.3172 0.0000 0.0000 2913.6454 -12148.5150 299.7471 -15062.1604 -12141.0520 298.6525 -41.3439 -41.7516 392074.9404 0.3271 0.3506
ENERGY: 4000 4.4941 4.7656 1.2833 0.0123 -16819.9243 1820.0565 0.0000 0.0000 2879.9946 -12109.3178 296.2852 -14989.3125 -12102.6435 300.3846 49.2948 48.9072 404267.4330 1.0194 1.0375
ENERGY: 5000 1.7358 3.7313 2.2234 0.5531 -16745.1630 1760.9694 0.0000 0.0000 2904.9264 -12071.0237 298.8501 -14975.9501 -12063.6370 298.8177 -5.9030 -6.4598 402256.2279 0.0481 0.0414
TCL: Running FEP window  10: Lambda1 0.5625 Lambda2 0.625  [dLambda 0.0625]
TCL: Setting parameter firsttimestep to 0
TCL: Setting parameter alchLambda to 0.5625
Info: NONBONDED TABLE R-SQUARED SPACING: 0.0625
Info: NONBONDED TABLE SIZE: 769 POINTS
TCL: Setting parameter alchLambda2 to 0.625
Info: NONBONDED TABLE R-SQUARED SPACING: 0.0625
Info: NONBONDED TABLE SIZE: 769 POINTS
TCL: Running for 5000 steps
ETITLE: TS BOND ANGLE DIHED IMPRP ELECT VDW BOUNDARY MISC KINETIC TOTAL TEMP POTENTIAL TOTAL3 TEMPAVG PRESSURE GPRESSURE VOLUME PRESSAVG GPRESSAVG
ENERGY: 0 1.7358 3.7313 2.2234 0.5531 -16746.4694 1761.0705 0.0000 0.0000 2904.8391 -12072.3162 298.8412 -14977.1554 -12066.5963 298.8412 -5.2972 -5.2972 402256.2279 -5.2972 -5.2972
ENERGY: 1000 2.6522 2.8745 1.3573 0.1505 -16861.3717 1839.8039 0.0000 0.0000 2920.3277 -12094.2056 300.4346 -15014.5333 -12090.7520 298.2471 61.2642 61.0054 398810.3777 0.8013 0.8093
ENERGY: 2000 5.2282 3.4636 2.1859 1.6600 -16876.5593 1817.0405 0.0000 0.0000 2981.0578 -12065.9233 306.6823 -15046.9811 -12061.2959 301.2815 31.0475 30.3803 393701.6392 1.2821 1.3125
ENERGY: 3000 2.1604 6.3095 4.8614 0.5252 -16800.0416 1733.8362 0.0000 0.0000 2931.5701 -12120.7789 301.5912 -15052.3490 -12117.1894 298.0437 -3.3409 -4.6398 374506.2416 2.8732 2.9247
ENERGY: 4000 6.4012 4.8053 2.3220 0.1166 -16921.1050 1823.9791 0.0000 0.0000 2845.3321 -12238.1488 292.7193 -15083.4809 -12234.2041 296.2290 37.4455 36.8216 384601.3385 0.0652 0.0523
ENERGY: 5000 1.8085 1.8112 3.9741 0.2054 -16939.3109 1790.5822 0.0000 0.0000 2871.1720 -12269.7576 295.3776 -15140.9296 -12262.2211 295.7805 -16.9565 -16.0643 383659.5534 -1.1738 -1.1689
TCL: Running FEP window  11: Lambda1 0.625  Lambda2 0.6875 [dLambda 0.0625]
TCL: Setting parameter firsttimestep to 0
TCL: Setting parameter alchLambda to 0.625
Info: NONBONDED TABLE R-SQUARED SPACING: 0.0625
Info: NONBONDED TABLE SIZE: 769 POINTS
TCL: Setting parameter alchLambda2 to 0.6875
Info: NONBONDED TABLE R-SQUARED SPACING: 0.0625
Info: NONBONDED TABLE SIZE: 769 POINTS
TCL: Running for 5000 steps
ETITLE: TS BOND ANGLE DIHED IMPRP ELECT VDW BOUNDARY MISC KINETIC TOTAL TEMP POTENTIAL TOTAL3 TEMPAVG PRESSURE GPRESSURE VOLUME PRESSAVG GPRESSAVG
ENERGY: 0 1.8085 1.8112 3.9741 0.2054 -16942.8538 1791.7215 0.0000 0.0000 2871.0854 -12272.2477 295.3687 -15143.3331 -12266.5643 295.3687 -14.3513 -14.3513 383659.5534 -14.3513 -14.3513
ENERGY: 1000 2.6375 6.6095 4.8351 0.3258 -16852.1455 1799.4059 0.0000 0.0000 2886.9678 -12151.3639 297.0026 -15038.3317 -12145.2102 299.2607 12.3060 12.3201 385989.4546 0.9084 0.9586
ENERGY: 2000 3.6058 5.7472 2.3969 0.1585 -16786.0557 1757.5626 0.0000 0.0000 2826.1164 -12190.4683 290.7424 -15016.5847 -12185.4705 298.0668 3.2634 4.3676 381914.8886 0.4163 0.4290
ENERGY: 3000 1.9942 6.5263 2.0972 0.9818 -16902.1908 1823.4114 0.0000 0.0000 2953.8096 -12113.3703 303.8791 -15067.1799 -12106.9062 300.1587 53.3196 53.1265 382864.4825 2.0990 2.0727
ENERGY: 4000 2.7337 1.6300 2.1274 0.2890 -16975.3948 1815.9771 0.0000 0.0000 2919.8982 -12232.7393 300.3904 -15152.6375 -12227.1080 296.4814 28.2143 28.7643 383540.4101 -0.1308 -0.1340
ENERGY: 5000 3.3820 6.0923 2.9398 0.2185 -16999.7356 1889.5415 0.0000 0.0000 2848.1837 -12249.3777 293.0126 -15097.5615 -12244.9002 295.5776 73.0315 72.8839 389133.7797 -0.4176 -0.4103
TCL: Running FEP window  12: Lambda1 0.6875 Lambda2 0.75   [dLambda 0.0625]
TCL: Setting parameter firsttimestep to 0
TCL: Setting parameter alchLambda to 0.6875
Info: NONBONDED TABLE R-SQUARED SPACING: 0.0625
Info: NONBONDED TABLE SIZE: 769 POINTS
TCL: Setting parameter alchLambda2 to 0.75
Info: NONBONDED TABLE R-SQUARED SPACING: 0.0625
Info: NONBONDED TABLE SIZE: 769 POINTS
TCL: Running for 5000 steps
ETITLE: TS BOND ANGLE DIHED IMPRP ELECT VDW BOUNDARY MISC KINETIC TOTAL TEMP POTENTIAL TOTAL3 TEMPAVG PRESSURE GPRESSURE VOLUME PRESSAVG GPRESSAVG
ENERGY: 0 3.3820 6.0923 2.9398 0.2185 -17005.0759 1893.0263 0.0000 0.0000 2848.0929 -12251.3241 293.0033 -15099.4170 -12245.3699 293.0033 75.5172 75.5172 389133.7797 75.5172 75.5172
ENERGY: 1000 2.6694 3.2490 2.9123 0.8157 -16835.0554 1711.6487 0.0000 0.0000 2838.9062 -12274.8540 292.0582 -15113.7602 -12268.1848 295.0009 -48.5181 -48.0958 404646.8416 0.1214 0.1060
ENERGY: 2000 1.9804 5.0246 2.2345 0.3712 -16958.2239 1850.3856 0.0000 0.0000 2808.3224 -12289.9052 288.9118 -15098.2276 -12284.7008 294.1410 33.5336 34.6710 404141.2315 1.7055 1.7476
ENERGY: 3000 5.4180 3.6964 1.9961 0.2354 -16811.3277 1781.8087 0.0000 0.0000 2878.0860 -12140.0871 296.0889 -15018.1731 -12133.7446 296.2508 20.6041 19.5023 404339.5328 0.3921 0.3719
ENERGY: 4000 0.9547 2.9910 3.1195 0.5082 -16861.0614 1756.7319 0.0000 0.0000 2931.5894 -12165.1668 301.5932 -15096.7562 -12157.2379 298.1881 -20.8962 -22.0586 394700.0076 1.5230 1.5258
ENERGY: 5000 2.4623 1.2111 5.0497 0.4068 -16721.8842 1688.6566 0.0000 0.0000 2906.7155 -12117.3821 299.0342 -15024.0976 -12112.6990 297.4858 -36.1419 -37.2510 402478.2053 2.4939 2.4709
TCL: Running FEP window  13: Lambda1 0.75   Lambda2 0.8125 [dLambda 0.0625]
TCL: Setting parameter firsttimestep to 0
TCL: Setting parameter alchLambda to 0.75
Info: NONBONDED TABLE R-SQUARED SPACING: 0.0625
Info: NONBONDED TABLE SIZE: 769 POINTS
TCL: Setting parameter alchLambda2 to 0.8125
Info: NONBONDED TABLE R-SQUARED SPACING: 0.0625
Info: NONBONDED TABLE SIZE: 769 POINTS
TCL: Running for 5000 steps
ETITLE: TS BOND ANGLE DIHED IMPRP ELECT VDW BOUNDARY MISC KINETIC TOTAL TEMP POTENTIAL TOTAL3 TEMPAVG PRESSURE GPRESSURE VOLUME PRESSAVG GPRESSAVG
ENERGY: 0 2.4623 1.2111 5.0497 0.4068 -16728.6684 1692.4816 0.0000 0.0000 2906.6296 -12120.4272 299.0254 -15027.0569 -12115.2189 299.0254 -34.5358 -34.5358 402478.2053 -34.5358 -34.5358
ENERGY: 1000 2.7026 1.7724 6.1395 0.5057 -16700.4466 1682.9009 0.0000 0.0000 2893.6351 -12112.7905 297.6885 -15006.4256 -12106.4684 300.2274 -47.0205 -45.9792 397421.9282 0.0622 0.0640
ENERGY: 2000 3.6022 3.4861 3.2489 0.1018 -16895.4317 1818.3344 0.0000 0.0000 2907.9585 -12158.6998 299.1621 -15066.6583 -12153.0719 300.6742 44.9899 46.2714 388729.6649 0.9900 1.0185
ENERGY: 3000 6.6621 2.6330 2.6670 0.6985 -16816.7731 1725.5791 0.0000 0.0000 2889.4459 -12189.0875 297.2576 -15078.5334 -12182.7068 297.2928 -64.3781 -64.2657 387064.1066 2.3541 2.2816
ENERGY: 4000 0.9286 3.2645 3.8977 0.2948 -16840.7087 1775.6533 0.0000 0.0000 2947.3284 -12109.3413 303.2123 -15056.6698 -12103.5680 299.3755 -16.6603 -15.3757 372200.2282 0.4351 0.4032
ENERGY: 5000 6.4561 2.8646 2.8555 0.2837 -16705.3036 1746.8040 0.0000 0.0000 2948.7029 -11997.3368 303.3537 -14946.0397 -11991.7680 300.9482 -2.3486 -3.6391 358085.1906 -1.6424 -1.6126
TCL: Running FEP window  14: Lambda1 0.8125 Lambda2 0.875  [dLambda 0.0625]
TCL: Setting parameter firsttimestep to 0
TCL: Setting parameter alchLambda to 0.8125
Info: NONBONDED TABLE R-SQUARED SPACING: 0.0625
Info: NONBONDED TABLE SIZE: 769 POINTS
TCL: Setting parameter alchLambda2 to 0.875
Info: NONBONDED TABLE R-SQUARED SPACING: 0.0625
Info: NONBONDED TABLE SIZE: 769 POINTS
TCL: Running for 5000 steps
ETITLE: TS BOND ANGLE DIHED IMPRP ELECT VDW BOUNDARY MISC KINETIC TOTAL TEMP POTENTIAL TOTAL3 TEMPAVG PRESSURE GPRESSURE VOLUME PRESSAVG GPRESSAVG
ENERGY: 0 6.4561 2.8646 2.8555 0.2837 -16712.4270 1748.5670 0.0000 0.0000 2948.6137 -12002.7865 303.3446 -14951.4002 -11997.4613 303.3446 -1.9749 -1.9749 358085.1906 -1.9749 -1.9749
ENERGY: 1000 3.2815 4.9421 2.9178 0.3657 -16772.1040 1744.6131 0.0000 0.0000 2857.4926 -12158.4911 293.9703 -15015.9838 -12152.0510 301.2425 0.0840 0.5154 349962.0476 -0.5224 -0.5096
ENERGY: 2000 6.1459 2.4437 5.0669 0.2024 -16770.3960 1744.6228 0.0000 0.0000 2944.4439 -12067.4705 302.9156 -15011.9144 -12060.9333 299.9644 -12.0589 -13.2448 356209.1426 -0.8430 -0.8655
ENERGY: 3000 2.0333 2.9639 3.6883 0.5749 -16917.7150 1825.9224 0.0000 0.0000 2882.7040 -12199.8281 296.5640 -15082.5321 -12196.5786 298.4380 22.8323 23.1579 356569.1901 2.2258 2.2675
ENERGY: 4000 1.7331 3.6066 4.3639 0.5345 -16878.6672 1769.5607 0.0000 0.0000 2859.9419 -12238.9264 294.2223 -15098.8683 -12234.4420 299.1065 6.4735 5.1319 351666.5946 0.4433 0.4652
ENERGY: 5000 6.5949 3.2259 2.9895 1.3402 -16914.8327 1763.8455 0.0000 0.0000 2890.8085 -12246.0282 297.3977 -15136.8368 -12239.2210 295.3844 5.6252 4.5535 348539.6376 5.5040 5.4806
TCL: Running FEP window  15: Lambda1 0.875  Lambda2 0.9375 [dLambda 0.0625]
TCL: Setting parameter firsttimestep to 0
TCL: Setting parameter alchLambda to 0.875
Info: NONBONDED TABLE R-SQUARED SPACING: 0.0625
Info: NONBONDED TABLE SIZE: 769 POINTS
TCL: Setting parameter alchLambda2 to 0.9375
Info: NONBONDED TABLE R-SQUARED SPACING: 0.0625
Info: NONBONDED TABLE SIZE: 769 POINTS
TCL: Running for 5000 steps
ETITLE: TS BOND ANGLE DIHED IMPRP ELECT VDW BOUNDARY MISC KINETIC TOTAL TEMP POTENTIAL TOTAL3 TEMPAVG PRESSURE GPRESSURE VOLUME PRESSAVG GPRESSAVG
ENERGY: 0 6.5949 3.2259 2.9895 1.3402 -16921.6914 1769.4111 0.0000 0.0000 2890.7210 -12247.4090 297.3887 -15138.1299 -12241.7147 297.3887 10.1182 10.1182 348539.6376 10.1182 10.1182
ENERGY: 1000 2.7355 4.1913 1.4072 0.2079 -16856.5059 1676.9302 0.0000 0.0000 2873.5406 -12297.4933 295.6213 -15171.0338 -12293.4340 295.5007 -108.6945 -109.2518 349657.2883 1.4554 1.4413
ENERGY: 2000 1.6248 3.4782 3.6915 0.4789 -16763.1549 1679.4242 0.0000 0.0000 2899.9452 -12174.5121 298.3377 -15074.4573 -12169.6582 296.0657 -62.2504 -62.8757 356918.8463 1.4069 1.4067
ENERGY: 3000 2.1984 2.2648 2.1571 0.3520 -16841.6012 1707.2885 0.0000 0.0000 2967.9855 -12159.3549 305.3375 -15127.3404 -12154.8555 298.0859 -7.9559 -8.2758 355942.7413 -0.4374 -0.5284
ENERGY: 4000 1.0614 3.8865 1.5462 0.5137 -16895.9463 1859.5264 0.0000 0.0000 2858.1021 -12171.3099 294.0330 -15029.4120 -12165.4953 299.4528 69.5027 69.0530 365517.3971 0.0191 0.0235
ENERGY: 5000 4.4748 2.9942 1.8263 0.1325 -16806.7844 1673.3966 0.0000 0.0000 2918.7343 -12205.2256 300.2707 -15123.9600 -12199.6385 295.6597 -82.1340 -82.6273 373614.2226 0.0006 -0.0061
TCL: Running FEP window  16: Lambda1 0.9375 Lambda2 1.0    [dLambda 0.0625]
TCL: Setting parameter firsttimestep to 0
TCL: Setting parameter alchLambda to 0.9375
Info: NONBONDED TABLE R-SQUARED SPACING: 0.0625
Info: NONBONDED TABLE SIZE: 769 POINTS
TCL: Setting parameter alchLambda2 to 1.0
Info: NONBONDED TABLE R-SQUARED SPACING: 0.0625
Info: NONBONDED TABLE SIZE: 769 POINTS
TCL: Running for 5000 steps
ETITLE: TS BOND ANGLE DIHED IMPRP ELECT VDW BOUNDARY MISC KINETIC TOTAL TEMP POTENTIAL TOTAL3 TEMPAVG PRESSURE GPRESSURE VOLUME PRESSAVG GPRESSAVG
ENERGY: 0 4.4748 2.9942 1.8263 0.1325 -16814.0206 1678.2642 0.0000 0.0000 2918.6446 -12207.6840 300.2614 -15126.3286 -12201.2947 300.2614 -78.0487 -78.0487 373614.2226 -78.0487 -78.0487
ENERGY: 1000 2.6282 2.1713 7.6930 0.6536 -17071.9329 1847.8457 0.0000 0.0000 2863.7379 -12347.2032 294.6128 -15210.9411 -12340.2967 292.0018 18.9253 18.2566 373255.6095 4.0920 4.0749
ENERGY: 2000 4.0040 2.6520 2.1276 0.2949 -17101.8597 1823.1276 0.0000 0.0000 2830.5088 -12439.1448 291.1943 -15269.6536 -12432.9787 290.2784 15.0216 13.4586 383592.6543 -0.9288 -0.9946
ENERGY: 3000 2.9766 3.0554 3.5209 0.1411 -16959.3897 1777.1432 0.0000 0.0000 2829.9796 -12342.5729 291.1398 -15172.5524 -12335.3157 294.2562 -17.7466 -16.8061 397887.6584 1.4663 1.4638
ENERGY: 4000 3.2982 5.8349 1.9650 0.0944 -17028.6602 1797.8468 0.0000 0.0000 2952.7378 -12266.8832 303.7688 -15219.6210 -12262.9480 295.3502 -3.1981 -2.6386 402687.5284 1.1360 1.1242
ENERGY: 5000 3.2938 3.9441 1.0340 0.2609 -16768.7392 1677.1965 0.0000 0.0000 2850.5048 -12232.5050 293.2514 -15083.0098 -12227.1225 296.2668 -62.0599 -62.0846 401931.0516 1.4309 1.4374
