Info: SIMULATION PARAMETERS:
Info: TIMESTEP               2
Info: NUMBER OF STEPS        0
Info: STEPS PER CYCLE        10
Info: PERIODIC CELL BASIS 1  81.1049 0 0
Info: PERIODIC CELL BASIS 2  0 81.1049 0
Info: PERIODIC CELL BASIS 3  0 0 81.1049
Info: PERIODIC CELL CENTER   36.888 36.888 36.888
Info: WRAPPING ALL CLUSTERS AROUND PERIODIC BOUNDARIES ON OUTPUT.
Info: FIRST LDB TIMESTEP     50
Info: LAST LDB TIMESTEP     -1
Info: HOM BACKGROUND SCALING 1
Info: PME BACKGROUND SCALING 1
Info: MIN ATOMS PER PATCH    40
Info: EMPTY PATCH LOAD       40 ATOMS
Info: VELOCITY FILE          mobley_7988076_equilibrated.vel
Info: CENTER OF MASS MOVING INITIALLY? NO
Info: DIELECTRIC             1
Info: EXCLUDE                SCALED ONE-FOUR
Info: 1-4 ELECTROSTATICS SCALED BY 1
Info: MODIFIED 1-4 VDW PARAMETERS WILL BE USED
Info: DCD FILENAME           mobley_7988076_backwards.dcd
Info: DCD FREQUENCY          500
Info: DCD FIRST STEP         500
Info: DCD FILE WILL CONTAIN UNIT CELL DATA
Info: NO EXTENDED SYSTEM TRAJECTORY OUTPUT
Info: NO VELOCITY DCD OUTPUT
Info: NO FORCE DCD OUTPUT
Info: OUTPUT FILENAME        mobley_7988076_backwards
Info: BINARY OUTPUT FILES WILL BE USED
Info: NO RESTART FILE
Info: SWITCHING ACTIVE
Info: SWITCHING ON           10
Info: SWITCHING OFF          12
Info: PAIRLIST DISTANCE      14
Info: PAIRLIST SHRINK RATE   0.01
Info: PAIRLIST GROW RATE     0.01
Info: PAIRLIST TRIGGER       0.3
Info: PAIRLISTS PER CYCLE    2
Info: PAIRLISTS ENABLED
Info: MARGIN                 8
Info: HYDROGEN GROUP CUTOFF  2.5
Info: PATCH DIMENSION        24.5
Info: ENERGY OUTPUT STEPS    500
Info: ENERGY EVALUATION STEPS    500
Info: OUTPUT ENERGY PRECISION 4
Info: CROSSTERM ENERGY INCLUDED IN DIHEDRAL
Info: TIMING OUTPUT STEPS    500
Info: PRESSURE OUTPUT STEPS  500
Info: ALCHEMICAL FEP ON
Info: FEP CURRENT LAMBDA VALUE     1
Info: FEP COMPARISON LAMBDA VALUE  0.9375
Info: FEP INTRA-ALCHEMICAL NON-BONDED INTERACTIONS WILL BE DECOUPLED
Info: FEP INTRA-ALCHEMICAL BONDED INTERACTIONS WILL BE RETAINED
Info: FEP VDW SHIFTING COEFFICIENT 6
Info: FEP ELEC. ACTIVE FOR ANNIHILATED PARTICLES BETWEEN LAMBDA = 0 AND LAMBDA = 0.5
Info: FEP ELEC. ACTIVE FOR EXNIHILATED PARTICLES BETWEEN LAMBDA = 0.5 AND LAMBDA = 1
Info: FEP VDW ACTIVE FOR ANNIHILATED PARTICLES BETWEEN LAMBDA = 0 AND LAMBDA = 1
Info: FEP VDW ACTIVE FOR EXNIHILATED PARTICLES BETWEEN LAMBDA = 0 AND LAMBDA = 1
Info: FEP BOND ACTIVE FOR ANNIHILATED PARTICLES BETWEEN LAMBDA = 1 AND LAMBDA = 1
Info: FEP BOND ACTIVE FOR EXNIHILATED PARTICLES BETWEEN LAMBDA = 0 AND LAMBDA = 0
Info: LANGEVIN DYNAMICS ACTIVE
Info: LANGEVIN TEMPERATURE   298
Info: LANGEVIN USING BBK INTEGRATOR
Info: LANGEVIN DAMPING COEFFICIENT IS 1 INVERSE PS
Info: LANGEVIN DYNAMICS NOT APPLIED TO HYDROGENS
Info: LANGEVIN PISTON PRESSURE CONTROL ACTIVE
Info:        TARGET PRESSURE IS 1.01325 BAR
Info:     OSCILLATION PERIOD IS 100 FS
Info:             DECAY TIME IS 50 FS
Info:     PISTON TEMPERATURE IS 298 K
Info:       PRESSURE CONTROL IS GROUP-BASED
Info:    INITIAL STRAIN RATE IS -5.47402e-05 -5.47402e-05 -5.47402e-05
Info:       CELL FLUCTUATION IS ISOTROPIC
Info: PARTICLE MESH EWALD (PME) ACTIVE
Info: PME TOLERANCE               1e-05
Info: PME EWALD COEFFICIENT       0.226635
Info: PME INTERPOLATION ORDER     4
Info: PME GRID DIMENSIONS         84 84 84
Info: PME MAXIMUM GRID SPACING    1
Info: FULL ELECTROSTATIC EVALUATION FREQUENCY      1
Info: USING VERLET I (r-RESPA) MTS SCHEME.
Info: C1 SPLITTING OF LONG RANGE ELECTROSTATICS
Info: PLACING ATOMS IN PATCHES BY HYDROGEN GROUPS
Info: RIGID BONDS TO HYDROGEN : ALL
Info:         ERROR TOLERANCE : 1e-08
Info:          MAX ITERATIONS : 100
Info: RIGID WATER USING SETTLE ALGORITHM
Info: RANDOM NUMBER SEED     1740650813
Info: USE HYDROGEN BONDS?    NO
Info: COORDINATE PDB         mobley_7988076.pdb
Info: STRUCTURE FILE         mobley_7988076.psf
Info: PARAMETER file: CHARMM format!
Info: PARAMETERS             ../common/par_all27_prot_lipid.inp
Info: PARAMETERS             mobley_7988076.prm
Info: USING ARITHMETIC MEAN TO COMBINE L-J SIGMA PARAMETERS
Info: BINARY COORDINATES     mobley_7988076_equilibrated.coor
Info: SUMMARY OF PARAMETERS:
Info: 187 BONDS
Info: 455 ANGLES
Info: 576 DIHEDRAL
Info: 50 IMPROPER
Info: 6 CROSSTERM
Info: 126 VDW
Info: 0 VDW_PAIRS
Info: 0 NBTHOLE_PAIRS
Info: To read alchdata from file: mobley_7988076.pdb
Info: To read alchflag data from column: 5
Info: STRUCTURE SUMMARY:
Info: 4887 ATOMS
Info: 3263 BONDS
Info: 1646 ANGLES
Info: 30 DIHEDRALS
Info: 7 IMPROPERS
Info: 0 CROSSTERMS
Info: 0 EXCLUSIONS
Info: 4878 RIGID BONDS
Info: ALCH: 0 ATOMS TO DISAPPEAR IN FINAL STATE
Info: ALCH: 15 ATOMS TO APPEAR IN FINAL STATE
Info: 9783 DEGREES OF FREEDOM
Info: 1633 HYDROGEN GROUPS
Info: 3 ATOMS IN LARGEST HYDROGEN GROUP
Info: 1633 MIGRATION GROUPS
Info: 3 ATOMS IN LARGEST MIGRATION GROUP
Info: TOTAL MASS = 29379.1 amu
Info: TOTAL CHARGE = -2.18861e-08 e
Info: MASS DENSITY = 0.0914444 g/cm^3
Info: ATOM DENSITY = 0.00916012 atoms/A^3
Info: ADDED 4936 IMPLICIT EXCLUSIONS
Info: NONBONDED TABLE R-SQUARED SPACING: 0.0625
Info: NONBONDED TABLE SIZE: 769 POINTS
Info: REMOVING COM VELOCITY 0.119404 0.174621 0.0304727
TCL: Running for 5000 steps
ETITLE: TS BOND ANGLE DIHED IMPRP ELECT VDW BOUNDARY MISC KINETIC TOTAL TEMP POTENTIAL TOTAL3 TEMPAVG PRESSURE GPRESSURE VOLUME PRESSAVG GPRESSAVG
ENERGY: 0 2.7176 2.8626 3.0400 0.2922 -16815.8335 1743.6686 0.0000 0.0000 2910.7673 -12152.4852 299.4510 -15063.2525 -12146.9187 299.4510 -25.5022 -25.5022 533508.3672 -25.5022 -25.5022
ENERGY: 1000 4.3709 5.2597 3.3548 0.3569 -16772.0112 1741.7617 0.0000 0.0000 2809.3177 -12207.5896 289.0142 -15016.9073 -12203.5938 297.6934 -27.0054 -27.3423 548425.6535 0.1803 0.1915
ENERGY: 2000 1.1134 2.7890 3.2603 0.3125 -16848.8798 1779.1399 0.0000 0.0000 2840.1834 -12222.0814 292.1896 -15062.2647 -12216.6711 295.4729 1.8984 2.3631 542560.3136 3.5897 3.5912
ENERGY: 3000 2.7133 1.4728 1.5166 0.1123 -16768.9486 1690.4871 0.0000 0.0000 2877.4450 -12195.2015 296.0229 -15072.6466 -12189.9899 297.7137 -33.6590 -33.1461 563105.2715 0.0795 0.0349
ENERGY: 4000 2.1642 4.8989 0.7727 0.2530 -16919.8770 1835.9243 0.0000 0.0000 2831.7991 -12244.0648 291.3270 -15075.8639 -12238.6363 295.5664 1.7633 0.9155 578317.8543 0.9394 0.9303
ENERGY: 5000 1.6865 2.7203 1.9361 0.3595 -16950.3900 1827.3858 0.0000 0.0000 2927.6337 -12188.6681 301.1862 -15116.3018 -12183.0740 298.4753 21.9330 21.9272 556921.4722 0.0776 0.0722
TCL: Running FEP window   2: Lambda1 0.9375 Lambda2 0.875  [dLambda -0.0625]
TCL: Setting parameter firsttimestep to 0
TCL: Setting parameter alchLambda to 0.9375
Info: NONBONDED TABLE R-SQUARED SPACING: 0.0625
Info: NONBONDED TABLE SIZE: 769 POINTS
TCL: Setting parameter alchLambda2 to 0.875
Info: NONBONDED TABLE R-SQUARED SPACING: 0.0625
Info: NONBONDED TABLE SIZE: 769 POINTS
TCL: Running for 5000 steps
ETITLE: TS BOND ANGLE DIHED IMPRP ELECT VDW BOUNDARY MISC KINETIC TOTAL TEMP POTENTIAL TOTAL3 TEMPAVG PRESSURE GPRESSURE VOLUME PRESSAVG GPRESSAVG
ENERGY: 0 1.6865 2.7203 1.9361 0.3595 -16945.3150 1824.4480 0.0000 0.0000 2927.5479 -12186.6168 301.1774 -15114.1646 -12180.8299 301.1774 19.9345 19.9345 556921.4722 19.9345 19.9345
ENERGY: 1000 2.0281 3.9654 0.8545 0.2934 -16849.5989 1764.7320 0.0000 0.0000 2863.8066 -12213.9189 294.6199 -15077.7254 -12207.5828 296.8004 -16.1864 -16.0445 565593.9826 1.1075 1.0903
ENERGY: 2000 2.8435 3.1839 2.4322 0.2117 -16787.4806 1686.2167 0.0000 0.0000 2884.7575 -12207.8350 296.7752 -15092.5925 -12202.5869 299.6114 -53.7177 -54.0027 556664.6297 0.8895 0.8740
ENERGY: 3000 1.5558 4.1310 4.6285 0.4067 -17051.8098 1922.8787 0.0000 0.0000 2832.8583 -12285.3508 291.4360 -15118.2091 -12280.1761 294.6286 68.5365 67.9803 556278.8156 2.1431 2.1626
ENERGY: 4000 5.8159 1.8959 8.1067 0.5727 -16917.2938 1821.0014 0.0000 0.0000 2949.2601 -12130.6410 303.4111 -15079.9011 -12124.8610 299.2951 19.5873 19.0236 564804.2003 0.3098 0.2866
ENERGY: 5000 3.7383 4.9004 3.3140 0.7688 -16876.0530 1709.9276 0.0000 0.0000 2903.1499 -12250.2540 298.6674 -15153.4039 -12245.7307 297.9716 -38.4206 -37.7655 563457.4857 1.0835 1.0629
TCL: Running FEP window   3: Lambda1 0.875  Lambda2 0.8125 [dLambda -0.0625]
TCL: Setting parameter firsttimestep to 0
TCL: Setting parameter alchLambda to 0.875
Info: NONBONDED TABLE R-SQUARED SPACING: 0.0625
Info: NONBONDED TABLE SIZE: 769 POINTS
TCL: Setting parameter alchLambda2 to 0.8125
Info: NONBONDED TABLE R-SQUARED SPACING: 0.0625
Info: NONBONDED TABLE SIZE: 769 POINTS
TCL: Running for 5000 steps
ETITLE: TS BOND ANGLE DIHED IMPRP ELECT VDW BOUNDARY MISC KINETIC TOTAL TEMP POTENTIAL TOTAL3 TEMPAVG PRESSURE GPRESSURE VOLUME PRESSAVG GPRESSAVG
ENERGY: 0 3.7383 4.9004 3.3140 0.7688 -16870.5709 1708.2505 0.0000 0.0000 2903.0620 -12246.5370 298.6583 -15149.5990 -12241.1455 298.6583 -39.0806 -39.0806 563457.4857 -39.0806 -39.0806
ENERGY: 1000 4.7656 2.7901 2.2052 0.1134 -16967.9510 1864.5903 0.0000 0.0000 2875.9373 -12217.5490 295.8678 -15093.4864 -12212.3089 297.7597 27.3656 26.7820 576450.7313 -0.7102 -0.7087
ENERGY: 2000 4.0740 3.3637 2.4326 0.1459 -16939.3848 1777.0807 0.0000 0.0000 2909.4679 -12242.8199 299.3174 -15152.2878 -12237.3203 296.6230 -2.7053 -2.6093 569825.9924 -1.2352 -1.2486
ENERGY: 3000 3.7009 2.3277 1.4850 0.1559 -16880.0375 1814.6157 0.0000 0.0000 2908.0985 -12149.6539 299.1765 -15057.7524 -12143.2332 300.0786 23.1239 23.3257 557275.4432 1.1114 1.1413
ENERGY: 4000 4.5566 3.1574 2.4326 0.3596 -16888.6013 1765.5763 0.0000 0.0000 2910.9866 -12201.5321 299.4736 -15112.5188 -12195.0407 295.4677 0.8814 1.3065 546451.7732 0.2523 0.2379
ENERGY: 5000 2.9687 5.8057 0.5452 0.3333 -17127.9419 1956.3200 0.0000 0.0000 2870.1366 -12291.8325 295.2711 -15161.9690 -12287.9018 295.2156 90.4080 90.3366 540098.6508 2.2191 2.1999
TCL: Running FEP window   4: Lambda1 0.8125 Lambda2 0.75   [dLambda -0.0625]
TCL: Setting parameter firsttimestep to 0
TCL: Setting parameter alchLambda to 0.8125
Info: NONBONDED TABLE R-SQUARED SPACING: 0.0625
Info: NONBONDED TABLE SIZE: 769 POINTS
TCL: Setting parameter alchLambda2 to 0.75
Info: NONBONDED TABLE R-SQUARED SPACING: 0.0625
Info: NONBONDED TABLE SIZE: 769 POINTS
TCL: Running for 5000 steps
ETITLE: TS BOND ANGLE DIHED IMPRP ELECT VDW BOUNDARY MISC KINETIC TOTAL TEMP POTENTIAL TOTAL3 TEMPAVG PRESSURE GPRESSURE VOLUME PRESSAVG GPRESSAVG
ENERGY: 0 2.9687 5.8057 0.5452 0.3333 -17123.0755 1955.3813 0.0000 0.0000 2870.0523 -12287.9891 295.2624 -15158.0413 -12282.6904 295.2624 89.5339 89.5339 540098.6508 89.5339 89.5339
ENERGY: 1000 6.5777 5.7390 2.5557 0.2802 -17005.3656 1815.8128 0.0000 0.0000 2915.8774 -12258.5229 299.9767 -15174.4003 -12254.3098 296.3495 26.3771 25.9872 530972.8558 1.0976 1.0646
ENERGY: 2000 1.9221 3.0826 2.7016 0.3057 -16856.1063 1702.5685 0.0000 0.0000 2903.7356 -12241.7900 298.7276 -15145.5257 -12234.5905 298.2617 -38.6900 -38.5985 514820.0122 1.2878 1.2542
ENERGY: 3000 0.4610 1.8758 2.5443 0.4406 -16946.7539 1737.3817 0.0000 0.0000 2869.2706 -12334.7800 295.1820 -15204.0506 -12331.0909 296.6563 -36.0706 -35.0462 489358.9332 -0.9836 -1.0226
ENERGY: 4000 1.0833 4.7275 2.8480 0.6037 -16986.6969 1823.7209 0.0000 0.0000 2889.6466 -12264.0669 297.2782 -15153.7134 -12258.5053 294.2929 11.2651 10.7275 508241.8891 -0.4726 -0.4716
ENERGY: 5000 4.3806 2.4107 3.2789 0.6375 -16878.3116 1781.1602 0.0000 0.0000 2910.8046 -12175.6392 299.4549 -15086.4438 -12170.0021 298.0256 -3.0785 -3.6905 525353.2775 2.8888 2.8310
TCL: Running FEP window   5: Lambda1 0.75   Lambda2 0.6875 [dLambda -0.0625]
TCL: Setting parameter firsttimestep to 0
TCL: Setting parameter alchLambda to 0.75
Info: NONBONDED TABLE R-SQUARED SPACING: 0.0625
Info: NONBONDED TABLE SIZE: 769 POINTS
TCL: Setting parameter alchLambda2 to 0.6875
Info: NONBONDED TABLE R-SQUARED SPACING: 0.0625
Info: NONBONDED TABLE SIZE: 769 POINTS
TCL: Running for 5000 steps
ETITLE: TS BOND ANGLE DIHED IMPRP ELECT VDW BOUNDARY MISC KINETIC TOTAL TEMP POTENTIAL TOTAL3 TEMPAVG PRESSURE GPRESSURE VOLUME PRESSAVG GPRESSAVG
ENERGY: 0 4.3806 2.4107 3.2789 0.6375 -16872.8736 1780.2702 0.0000 0.0000 2910.7106 -12171.1851 299.4452 -15081.8957 -12165.4409 299.4452 -4.2396 -4.2396 525353.2775 -4.2396 -4.2396
ENERGY: 1000 2.2566 5.2177 2.2505 2.4472 -16869.0371 1795.4605 0.0000 0.0000 2807.8828 -12253.5220 288.8666 -15061.4048 -12248.3822 297.0748 2.9208 2.7991 533363.8273 0.2776 0.3194
ENERGY: 2000 1.7084 5.9783 5.8066 0.7235 -16876.9857 1759.7489 0.0000 0.0000 2926.1602 -12176.8598 301.0346 -15103.0200 -12170.8424 296.8166 -6.3157 -6.2069 545027.7439 -1.2320 -1.2373
ENERGY: 3000 2.3406 4.1649 4.9674 0.5323 -16942.0640 1743.7740 0.0000 0.0000 2866.2330 -12320.0517 294.8695 -15186.2847 -12316.5161 293.7221 -20.4137 -20.9080 549782.9394 1.0100 0.9941
ENERGY: 4000 1.9065 2.5361 2.0089 0.3525 -16873.3197 1779.8884 0.0000 0.0000 2919.0169 -12167.6104 300.2997 -15086.6273 -12161.9816 296.9453 4.9082 5.8213 559385.0261 -0.2267 -0.2235
ENERGY: 5000 2.5696 4.5873 4.1710 0.6644 -16948.7840 1839.2285 0.0000 0.0000 2945.6066 -12151.9566 303.0352 -15097.5632 -12145.9220 298.0838 21.7444 21.6890 553754.1206 1.2908 1.2321
TCL: Running FEP window   6: Lambda1 0.6875 Lambda2 0.625  [dLambda -0.0625]
TCL: Setting parameter firsttimestep to 0
TCL: Setting parameter alchLambda to 0.6875
Info: NONBONDED TABLE R-SQUARED SPACING: 0.0625
Info: NONBONDED TABLE SIZE: 769 POINTS
TCL: Setting parameter alchLambda2 to 0.625
Info: NONBONDED TABLE R-SQUARED SPACING: 0.0625
Info: NONBONDED TABLE SIZE: 769 POINTS
TCL: Running for 5000 steps
ETITLE: TS BOND ANGLE DIHED IMPRP ELECT VDW BOUNDARY MISC KINETIC TOTAL TEMP POTENTIAL TOTAL3 TEMPAVG PRESSURE GPRESSURE VOLUME PRESSAVG GPRESSAVG
ENERGY: 0 2.5696 4.5873 4.1710 0.6644 -16944.2706 1839.3262 0.0000 0.0000 2945.5189 -12147.4332 303.0262 -15092.9521 -12142.5702 303.0262 21.6593 21.6593 553754.1206 21.6593 21.6593
ENERGY: 1000 1.3283 1.5608 3.5883 0.3305 -16939.6116 1808.7240 0.0000 0.0000 2869.3173 -12254.7625 295.1868 -15124.0798 -12249.3614 295.4581 16.1010 16.1180 539877.5947 0.3967 0.4026
ENERGY: 2000 3.4544 8.3044 4.8225 0.7503 -16821.2997 1762.8338 0.0000 0.0000 2880.3014 -12160.8329 296.3168 -15041.1343 -12154.8057 299.9231 -9.0913 -9.5267 546744.7244 -0.5701 -0.5455
ENERGY: 3000 6.3149 4.2016 4.8612 0.4517 -16975.9995 1838.2646 0.0000 0.0000 2920.3211 -12201.5843 300.4339 -15121.9054 -12195.0771 298.3385 34.2688 33.2711 529373.6411 3.5005 3.5002
ENERGY: 4000 1.1409 1.7131 6.9948 0.6705 -16870.7611 1764.3009 0.0000 0.0000 2851.4342 -12244.5068 293.3470 -15095.9410 -12239.2130 295.8263 -23.9554 -24.1454 522643.9046 -0.2563 -0.2194
ENERGY: 5000 0.8858 2.3093 4.7838 0.4191 -16826.3679 1764.7329 0.0000 0.0000 2893.8988 -12159.3383 297.7157 -15053.2371 -12152.8591 298.0452 -12.8924 -12.4797 523822.5941 0.5822 0.6022
TCL: Running FEP window   7: Lambda1 0.625  Lambda2 0.5625 [dLambda -0.0625]
TCL: Setting parameter firsttimestep to 0
TCL: Setting parameter alchLambda to 0.625
Info: NONBONDED TABLE R-SQUARED SPACING: 0.0625
Info: NONBONDED TABLE SIZE: 769 POINTS
TCL: Setting parameter alchLambda2 to 0.5625
Info: NONBONDED TABLE R-SQUARED SPACING: 0.0625
Info: NONBONDED TABLE SIZE: 769 POINTS
TCL: Running for 5000 steps
ETITLE: TS BOND ANGLE DIHED IMPRP ELECT VDW BOUNDARY MISC KINETIC TOTAL TEMP POTENTIAL TOTAL3 TEMPAVG PRESSURE GPRESSURE VOLUME PRESSAVG GPRESSAVG
ENERGY: 0 0.8858 2.3093 4.7838 0.4191 -16823.1807 1764.9914 0.0000 0.0000 2893.8022 -12155.9891 297.7057 -15049.7914 -12150.0791 297.7057 -12.3464 -12.3464 523822.5941 -12.3464 -12.3464
ENERGY: 1000 2.1578 5.0377 4.4031 0.4141 -16804.5641 1858.0607 0.0000 0.0000 2842.6681 -12091.8226 292.4452 -14934.4907 -12088.6492 296.9920 40.8062 41.0324 534943.3626 0.7390 0.7765
ENERGY: 2000 5.4032 2.5189 5.8907 0.7551 -16893.4942 1781.4075 0.0000 0.0000 2937.9431 -12159.5758 302.2468 -15097.5188 -12154.5216 298.3468 -7.7681 -8.4514 535019.9995 2.9618 2.9238
ENERGY: 3000 1.2683 4.7528 2.9686 0.5157 -16713.7461 1698.2875 0.0000 0.0000 2881.2572 -12124.6960 296.4151 -15005.9532 -12118.8984 298.2638 -17.2695 -17.5456 532538.8425 2.3901 2.4008
ENERGY: 4000 5.2650 3.0759 5.7936 1.9156 -16934.7410 1843.4882 0.0000 0.0000 2891.9477 -12183.2551 297.5149 -15075.2027 -12175.4253 299.2480 47.1093 46.0650 515291.1604 -0.6474 -0.6490
ENERGY: 5000 4.6426 2.7295 4.4902 0.5523 -16956.5567 1854.3688 0.0000 0.0000 2895.2812 -12194.4921 297.8579 -15089.7733 -12187.0901 296.6416 34.1338 34.8336 501012.4095 0.8011 0.8096
TCL: Running FEP window   8: Lambda1 0.5625 Lambda2 0.5    [dLambda -0.0625]
TCL: Setting parameter firsttimestep to 0
TCL: Setting parameter alchLambda to 0.5625
Info: NONBONDED TABLE R-SQUARED SPACING: 0.0625
Info: NONBONDED TABLE SIZE: 769 POINTS
TCL: Setting parameter alchLambda2 to 0.5
Info: NONBONDED TABLE R-SQUARED SPACING: 0.0625
Info: NONBONDED TABLE SIZE: 769 POINTS
TCL: Running for 5000 steps
ETITLE: TS BOND ANGLE DIHED IMPRP ELECT VDW BOUNDARY MISC KINETIC TOTAL TEMP POTENTIAL TOTAL3 TEMPAVG PRESSURE GPRESSURE VOLUME PRESSAVG GPRESSAVG
ENERGY: 0 4.6426 2.7295 4.4902 0.5523 -16953.0837 1853.9806 0.0000 0.0000 2895.1907 -12191.4977 297.8486 -15086.6884 -12186.6285 297.8486 34.7718 34.7718 501012.4095 34.7718 34.7718
ENERGY: 1000 1.4223 3.8520 2.2143 0.3178 -16782.1439 1724.5201 0.0000 0.0000 2859.7923 -12190.0251 294.2069 -15049.8174 -12183.3285 296.7249 -10.5507 -10.1675 486726.1753 -0.9327 -0.9534
ENERGY: 2000 1.0950 2.6448 3.3421 0.3001 -16840.3935 1800.8563 0.0000 0.0000 2869.6686 -12162.4864 295.2229 -15032.1550 -12156.9236 297.2970 16.9085 16.5445 496406.4486 0.8722 0.8525
ENERGY: 3000 1.5305 2.9103 4.1624 0.6387 -16682.1414 1701.8863 0.0000 0.0000 2882.8923 -12088.1210 296.5833 -14971.0133 -12082.0834 299.1383 -33.4887 -34.3301 493136.5541 3.5541 3.5423
ENERGY: 4000 3.9048 3.9035 3.5980 0.3128 -16805.0157 1774.7096 0.0000 0.0000 2885.4810 -12133.1060 296.8497 -15018.5870 -12127.6561 300.9843 0.5011 -0.4575 489417.7601 1.1367 1.1381
ENERGY: 5000 1.7165 5.9549 2.0900 0.0627 -16828.3378 1809.9151 0.0000 0.0000 2868.4568 -12140.1418 295.0983 -15008.5986 -12132.3837 301.7206 34.6214 35.1899 488744.1941 2.6698 2.6823
TCL: Running FEP window   9: Lambda1 0.5    Lambda2 0.4375 [dLambda -0.0625]
TCL: Setting parameter firsttimestep to 0
TCL: Setting parameter alchLambda to 0.5
Info: NONBONDED TABLE R-SQUARED SPACING: 0.0625
Info: NONBONDED TABLE SIZE: 769 POINTS
TCL: Setting parameter alchLambda2 to 0.4375
Info: NONBONDED TABLE R-SQUARED SPACING: 0.0625
Info: NONBONDED TABLE SIZE: 769 POINTS
TCL: Running for 5000 steps
ETITLE: TS BOND ANGLE DIHED IMPRP ELECT VDW BOUNDARY MISC KINETIC TOTAL TEMP POTENTIAL TOTAL3 TEMPAVG PRESSURE GPRESSURE VOLUME PRESSAVG GPRESSAVG
ENERGY: 0 1.7165 5.9549 2.0900 0.0627 -16825.6626 1810.0962 0.0000 0.0000 2868.3677 -12137.3747 295.0891 -15005.7423 -12132.2455 295.0891 35.4991 35.4991 488744.1941 35.4991 35.4991
ENERGY: 1000 0.8065 2.0976 3.4807 0.4058 -16880.6565 1794.3401 0.0000 0.0000 2857.1804 -12222.3455 293.9382 -15079.5259 -12216.9381 295.4396 -9.2802 -8.9127 506194.1605 0.5340 0.5720
ENERGY: 2000 2.8851 2.8412 4.8755 0.7522 -16908.2095 1843.9478 0.0000 0.0000 2863.9742 -12188.9335 294.6371 -15052.9077 -12183.3729 297.8606 12.4219 12.7691 503208.2274 0.7710 0.7640
ENERGY: 3000 2.8523 8.2127 3.1887 0.1697 -16744.5961 1716.3288 0.0000 0.0000 2882.0876 -12131.7563 296.5006 -15013.8440 -12125.4124 299.1356 -21.0226 -20.9340 511558.6406 0.8115 0.8270
ENERGY: 4000 2.5349 3.6273 2.4862 0.7408 -16653.7149 1675.5322 0.0000 0.0000 2851.2141 -12117.5794 293.3244 -14968.7935 -12112.1873 299.7334 -40.9027 -40.3369 517502.4063 1.1977 1.2030
ENERGY: 5000 1.9519 3.9400 5.8479 0.1603 -16931.0770 1829.8941 0.0000 0.0000 2876.1603 -12213.1225 295.8908 -15089.2828 -12208.8542 298.0974 33.0460 32.8618 510376.9464 0.8854 0.8608
TCL: Running FEP window  10: Lambda1 0.4375 Lambda2 0.375  [dLambda -0.0625]
TCL: Setting parameter firsttimestep to 0
TCL: Setting parameter alchLambda to 0.4375
Info: NONBONDED TABLE R-SQUARED SPACING: 0.0625
Info: NONBONDED TABLE SIZE: 769 POINTS
TCL: Setting parameter alchLambda2 to 0.375
Info: NONBONDED TABLE R-SQUARED SPACING: 0.0625
Info: NONBONDED TABLE SIZE: 769 POINTS
TCL: Running for 5000 steps
ETITLE: TS BOND ANGLE DIHED IMPRP ELECT VDW BOUNDARY MISC KINETIC TOTAL TEMP POTENTIAL TOTAL3 TEMPAVG PRESSURE GPRESSURE VOLUME PRESSAVG GPRESSAVG
ENERGY: 0 1.9519 3.9400 5.8479 0.1603 -16931.0770 1829.9767 0.0000 0.0000 2876.0758 -12213.1244 295.8821 -15089.2002 -12207.4507 295.8821 32.6687 32.6687 510376.9464 32.6687 32.6687
ENERGY: 1000 1.6577 3.8797 1.6192 0.1262 -16853.8242 1790.0854 0.0000 0.0000 2868.6700 -12187.7859 295.1202 -15056.4559 -12179.5389 296.0177 26.9793 27.0762 512476.2112 -1.2703 -1.3022
ENERGY: 2000 2.4822 4.1114 3.3254 0.1962 -16794.8081 1756.9782 0.0000 0.0000 2840.3519 -12187.3629 292.2069 -15027.7148 -12180.1215 298.0541 3.3656 3.3896 508200.7397 2.0570 2.0637
ENERGY: 3000 1.9626 5.0150 1.6529 0.1456 -16756.7614 1698.8174 0.0000 0.0000 2813.0453 -12236.1228 289.3977 -15049.1680 -12229.5549 296.9644 -32.4247 -32.7551 518976.3077 0.4940 0.4728
ENERGY: 4000 2.0980 3.4494 2.0506 0.1025 -16795.7695 1702.0654 0.0000 0.0000 2916.7079 -12169.2958 300.0622 -15086.0037 -12163.4751 294.7382 -55.7272 -55.5580 531763.0059 1.1431 1.1213
ENERGY: 5000 4.8503 2.4348 1.5010 0.5993 -16911.9423 1847.2401 0.0000 0.0000 2925.3683 -12129.9486 300.9531 -15055.3169 -12124.3950 299.6505 18.0953 17.7853 528326.3036 1.9443 1.9400
TCL: Running FEP window  11: Lambda1 0.375  Lambda2 0.3125 [dLambda -0.0625]
TCL: Setting parameter firsttimestep to 0
TCL: Setting parameter alchLambda to 0.375
Info: NONBONDED TABLE R-SQUARED SPACING: 0.0625
Info: NONBONDED TABLE SIZE: 769 POINTS
TCL: Setting parameter alchLambda2 to 0.3125
Info: NONBONDED TABLE R-SQUARED SPACING: 0.0625
Info: NONBONDED TABLE SIZE: 769 POINTS
TCL: Running for 5000 steps
ETITLE: TS BOND ANGLE DIHED IMPRP ELECT VDW BOUNDARY MISC KINETIC TOTAL TEMP POTENTIAL TOTAL3 TEMPAVG PRESSURE GPRESSURE VOLUME PRESSAVG GPRESSAVG
ENERGY: 0 4.8503 2.4348 1.5010 0.5993 -16911.9423 1847.4423 0.0000 0.0000 2925.2798 -12129.8348 300.9440 -15055.1146 -12123.8414 300.9440 17.7445 17.7445 528326.3036 17.7445 17.7445
ENERGY: 1000 1.8319 2.1610 4.4959 0.3861 -16813.9535 1759.6597 0.0000 0.0000 2923.5985 -12121.8205 300.7711 -15045.4190 -12115.1818 299.1282 5.3288 4.6077 517048.1433 -0.4742 -0.4590
ENERGY: 2000 1.3788 4.4977 3.9290 1.2284 -16790.3272 1800.6380 0.0000 0.0000 2925.2985 -12053.3569 300.9460 -14978.6554 -12048.3520 301.5030 27.8413 27.7862 510119.3341 1.0227 1.0443
ENERGY: 3000 1.2680 1.8812 6.1836 0.7186 -16764.8532 1835.0309 0.0000 0.0000 2925.4926 -11994.2783 300.9659 -14919.7709 -11988.2869 302.5549 34.6200 35.2014 528174.7675 0.6442 0.6120
ENERGY: 4000 1.5210 3.5881 4.2955 2.0834 -16764.2203 1736.4532 0.0000 0.0000 2925.0603 -12091.2189 300.9215 -15016.2792 -12087.8340 300.1703 -12.9366 -13.3838 528212.7297 2.3858 2.4146
ENERGY: 5000 1.8847 0.8839 4.5460 0.7514 -16801.3015 1786.9342 0.0000 0.0000 2904.0869 -12102.2144 298.7638 -15006.3014 -12097.6687 300.0356 6.5818 5.5029 526284.6899 0.7082 0.6713
TCL: Running FEP window  12: Lambda1 0.3125 Lambda2 0.25   [dLambda -0.0625]
TCL: Setting parameter firsttimestep to 0
TCL: Setting parameter alchLambda to 0.3125
Info: NONBONDED TABLE R-SQUARED SPACING: 0.0625
Info: NONBONDED TABLE SIZE: 769 POINTS
TCL: Setting parameter alchLambda2 to 0.25
Info: NONBONDED TABLE R-SQUARED SPACING: 0.0625
Info: NONBONDED TABLE SIZE: 769 POINTS
TCL: Running for 5000 steps
ETITLE: TS BOND ANGLE DIHED IMPRP ELECT VDW BOUNDARY MISC KINETIC TOTAL TEMP POTENTIAL TOTAL3 TEMPAVG PRESSURE GPRESSURE VOLUME PRESSAVG GPRESSAVG
ENERGY: 0 1.8847 0.8839 4.5460 0.7514 -16801.3015 1786.9875 0.0000 0.0000 2903.9956 -12102.2525 298.7544 -15006.2481 -12096.7162 298.7544 5.3953 5.3953 526284.6899 5.3953 5.3953
ENERGY: 1000 3.0361 3.1483 3.3864 0.3240 -16701.7926 1718.5006 0.0000 0.0000 2930.0115 -12043.3857 301.4308 -14973.3971 -12036.9701 301.2664 -32.7073 -32.7405 519088.0989 -0.9614 -0.9868
ENERGY: 2000 2.6343 5.1156 2.3504 0.2018 -16759.5974 1753.3469 0.0000 0.0000 2979.7623 -12016.1862 306.5490 -14995.9485 -12008.6497 302.5838 0.1179 -0.0151 510397.1854 1.3550 1.3782
ENERGY: 3000 1.9727 4.5504 6.2261 0.9031 -16757.3756 1726.0829 0.0000 0.0000 2930.0259 -12087.6146 301.4323 -15017.6404 -12083.6650 300.4930 -25.2431 -25.9281 497832.6570 1.3978 1.3609
ENERGY: 4000 2.6855 3.6085 5.3163 0.7073 -16657.6208 1714.5669 0.0000 0.0000 2852.1192 -12078.6172 293.4175 -14930.7364 -12073.2720 300.9019 -30.8522 -31.3507 496293.3864 2.4274 2.4232
ENERGY: 5000 0.9802 6.9027 4.7151 0.5960 -16776.6367 1775.9128 0.0000 0.0000 2884.9693 -12102.5606 296.7970 -14987.5300 -12098.8000 297.1624 -20.2160 -20.5165 492402.1155 -0.6485 -0.6541
TCL: Running FEP window  13: Lambda1 0.25   Lambda2 0.1875 [dLambda -0.0625]
TCL: Setting parameter firsttimestep to 0
TCL: Setting parameter alchLambda to 0.25
Info: NONBONDED TABLE R-SQUARED SPACING: 0.0625
Info: NONBONDED TABLE SIZE: 769 POINTS
TCL: Setting parameter alchLambda2 to 0.1875
Info: NONBONDED TABLE R-SQUARED SPACING: 0.0625
Info: NONBONDED TABLE SIZE: 769 POINTS
TCL: Running for 5000 steps
ETITLE: TS BOND ANGLE DIHED IMPRP ELECT VDW BOUNDARY MISC KINETIC TOTAL TEMP POTENTIAL TOTAL3 TEMPAVG PRESSURE GPRESSURE VOLUME PRESSAVG GPRESSAVG
ENERGY: 0 0.9802 6.9027 4.7151 0.5960 -16776.6367 1775.9708 0.0000 0.0000 2884.8779 -12102.5941 296.7876 -14987.4720 -12096.5591 296.7876 -20.7649 -20.7649 492402.1155 -20.7649 -20.7649
ENERGY: 1000 1.9533 4.8050 2.2871 0.2517 -16823.8482 1700.7821 0.0000 0.0000 2960.3121 -12153.4569 304.5481 -15113.7690 -12146.4733 299.7302 -54.0288 -53.6616 473978.0858 -0.2446 -0.2367
ENERGY: 2000 2.3494 3.1983 1.7063 0.1528 -16880.0435 1769.6806 0.0000 0.0000 2895.8503 -12207.1058 297.9164 -15102.9561 -12202.5528 297.5030 -7.1529 -7.6495 453346.0083 1.7479 1.7343
ENERGY: 3000 4.5315 5.0693 1.4618 0.9464 -16867.5247 1764.9770 0.0000 0.0000 2878.8555 -12211.6831 296.1680 -15090.5386 -12206.9957 296.6014 11.0999 10.7120 445143.5851 -0.0443 -0.0400
ENERGY: 4000 7.1606 3.6048 4.1687 0.2934 -17068.5076 1934.3772 0.0000 0.0000 2925.1864 -12193.7165 300.9344 -15118.9030 -12188.4486 297.6486 92.7133 91.1644 437439.6894 0.6261 0.6131
ENERGY: 5000 3.9337 3.3718 2.9080 1.2298 -16964.9508 1815.1033 0.0000 0.0000 2830.0585 -12308.3457 291.1480 -15138.4042 -12303.2032 295.0402 30.0858 30.6873 419723.7023 -0.6734 -0.6561
TCL: Running FEP window  14: Lambda1 0.1875 Lambda2 0.125  [dLambda -0.0625]
TCL: Setting parameter firsttimestep to 0
TCL: Setting parameter alchLambda to 0.1875
Info: NONBONDED TABLE R-SQUARED SPACING: 0.0625
Info: NONBONDED TABLE SIZE: 769 POINTS
TCL: Setting parameter alchLambda2 to 0.125
Info: NONBONDED TABLE R-SQUARED SPACING: 0.0625
Info: NONBONDED TABLE SIZE: 769 POINTS
TCL: Running for 5000 steps
ETITLE: TS BOND ANGLE DIHED IMPRP ELECT VDW BOUNDARY MISC KINETIC TOTAL TEMP POTENTIAL TOTAL3 TEMPAVG PRESSURE GPRESSURE VOLUME PRESSAVG GPRESSAVG
ENERGY: 0 3.9337 3.3718 2.9080 1.2298 -16964.9508 1815.2226 0.0000 0.0000 2829.9676 -12308.3174 291.1386 -15138.2849 -12302.6769 291.1386 30.6322 30.6322 419723.7023 30.6322 30.6322
ENERGY: 1000 1.6217 4.5243 2.4232 0.2435 -16879.4186 1688.2240 0.0000 0.0000 2945.4538 -12236.9281 303.0195 -15182.3820 -12230.9492 293.5653 -66.4664 -66.5514 415061.0139 0.3054 0.3793
ENERGY: 2000 2.4743 1.6391 2.3065 0.2991 -16888.5185 1755.0484 0.0000 0.0000 2909.2616 -12217.4896 299.2961 -15126.7512 -12212.9055 294.8939 -21.3400 -21.2134 415959.8719 -1.0694 -1.1405
ENERGY: 3000 2.7978 4.4520 5.0018 0.7251 -16935.0466 1859.5224 0.0000 0.0000 2883.9383 -12178.6091 296.6909 -15062.5474 -12174.2011 298.3286 50.4419 50.5085 415324.0920 -0.5066 -0.4886
ENERGY: 4000 3.2366 4.5559 2.7709 0.2492 -16974.1806 1836.5332 0.0000 0.0000 2924.4017 -12202.4331 300.8537 -15126.8348 -12197.8596 297.1824 22.3472 22.3613 410852.2811 -0.1722 -0.1695
ENERGY: 5000 1.1046 1.3473 2.0479 0.3170 -16914.6469 1789.2544 0.0000 0.0000 2930.9932 -12189.5824 301.5318 -15120.5757 -12182.5411 297.6887 4.0454 4.1939 394153.9415 -0.8664 -0.7861
TCL: Running FEP window  15: Lambda1 0.125  Lambda2 0.0625 [dLambda -0.0625]
TCL: Setting parameter firsttimestep to 0
TCL: Setting parameter alchLambda to 0.125
Info: NONBONDED TABLE R-SQUARED SPACING: 0.0625
Info: NONBONDED TABLE SIZE: 769 POINTS
TCL: Setting parameter alchLambda2 to 0.0625
Info: NONBONDED TABLE R-SQUARED SPACING: 0.0625
Info: NONBONDED TABLE SIZE: 769 POINTS
TCL: Running for 5000 steps
ETITLE: TS BOND ANGLE DIHED IMPRP ELECT VDW BOUNDARY MISC KINETIC TOTAL TEMP POTENTIAL TOTAL3 TEMPAVG PRESSURE GPRESSURE VOLUME PRESSAVG GPRESSAVG
ENERGY: 0 1.1046 1.3473 2.0479 0.3170 -16914.6469 1789.3252 0.0000 0.0000 2930.9063 -12189.5986 301.5229 -15120.5049 -12183.3669 301.5229 4.2611 4.2611 394153.9415 4.2611 4.2611
ENERGY: 1000 3.1838 5.0805 4.0034 0.6984 -16840.8776 1763.8761 0.0000 0.0000 2934.8972 -12129.1382 301.9334 -15064.0354 -12122.9658 300.0289 4.1999 3.1319 376400.3138 0.0684 0.0459
ENERGY: 2000 2.7513 2.7327 1.3184 0.4668 -16883.3689 1831.7786 0.0000 0.0000 2857.3036 -12187.0174 293.9508 -15044.3210 -12183.1815 297.2427 57.9202 57.0779 360808.0787 1.6815 1.7058
ENERGY: 3000 3.0254 3.4429 1.6271 0.1145 -17046.8444 1834.2343 0.0000 0.0000 2908.5809 -12295.8193 299.2261 -15204.4002 -12289.6622 292.8456 1.7807 2.0744 377726.4466 1.5944 1.5958
ENERGY: 4000 2.2623 2.8089 2.9895 0.3552 -16901.6620 1808.3198 0.0000 0.0000 2848.9016 -12236.0248 293.0865 -15084.9263 -12230.8277 294.0658 9.6394 10.8784 368425.5901 1.7270 1.7584
ENERGY: 5000 2.1535 2.2640 2.2450 0.5383 -16990.8119 1804.7364 0.0000 0.0000 2937.0653 -12241.8093 302.1565 -15178.8747 -12235.5000 297.1609 -5.1711 -6.4950 364597.2456 1.7153 1.7373
TCL: Running FEP window  16: Lambda1 0.0625 Lambda2 0.0    [dLambda -0.0625]
TCL: Setting parameter firsttimestep to 0
TCL: Setting parameter alchLambda to 0.0625
Info: NONBONDED TABLE R-SQUARED SPACING: 0.0625
Info: NONBONDED TABLE SIZE: 769 POINTS
TCL: Setting parameter alchLambda2 to 0.0
Info: NONBONDED TABLE R-SQUARED SPACING: 0.0625
Info: NONBONDED TABLE SIZE: 769 POINTS
TCL: Running for 5000 steps
ETITLE: TS BOND ANGLE DIHED IMPRP ELECT VDW BOUNDARY MISC KINETIC TOTAL TEMP POTENTIAL TOTAL3 TEMPAVG PRESSURE GPRESSURE VOLUME PRESSAVG GPRESSAVG
ENERGY: 0 2.1535 2.2640 2.2450 0.5383 -16990.8119 1805.0216 0.0000 0.0000 2936.9786 -12241.6109 302.1476 -15178.5895 -12235.8215 302.1476 -6.3642 -6.3642 364597.2456 -6.3642 -6.3642
ENERGY: 1000 0.4796 6.9333 5.3498 0.2978 -16952.8236 1893.0770 0.0000 0.0000 2867.5653 -12179.1209 295.0065 -15046.6862 -12174.4083 299.3479 91.7073 91.5989 345826.2461 0.8373 0.8298
ENERGY: 2000 2.1993 3.7917 4.1267 0.3028 -16873.7837 1805.0146 0.0000 0.0000 2912.4117 -12145.9368 299.6202 -15058.3485 -12140.3903 298.6650 57.6158 57.4112 334149.0962 0.3509 0.3870
ENERGY: 3000 3.5122 3.4987 2.8988 0.7458 -16905.7427 1841.4415 0.0000 0.0000 2948.9822 -12104.6635 303.3825 -15053.6457 -12099.6090 298.8396 92.1088 91.9316 325213.1300 0.5945 0.6629
ENERGY: 4000 2.7937 3.5712 1.8964 0.6779 -16787.9669 1741.7659 0.0000 0.0000 2957.2868 -12079.9750 304.2368 -15037.2618 -12072.7670 297.9646 -68.0071 -66.4988 329530.7836 2.2182 2.2572
ENERGY: 5000 1.5330 5.1464 2.8251 0.2947 -16638.8378 1672.8275 0.0000 0.0000 2886.8523 -12069.3589 296.9907 -14956.2111 -12064.5007 302.5322 -58.1667 -56.9876 315422.6720 2.7049 2.7245
