Info: SIMULATION PARAMETERS:
Info: TIMESTEP               2
Info: NUMBER OF STEPS        0
Info: STEPS PER CYCLE        10
Info: PERIODIC CELL BASIS 1  40.176 0 0
Info: PERIODIC CELL BASIS 2  0 37.796 0
Info: PERIODIC CELL BASIS 3  0 0 42.009
Info: PERIODIC CELL CENTER   0 0 0
Info: WRAPPING WATERS AROUND PERIODIC BOUNDARIES ON OUTPUT.
Info: WRAPPING ALL CLUSTERS AROUND PERIODIC BOUNDARIES ON OUTPUT.
Info: FIRST LDB TIMESTEP     50
Info: LAST LDB TIMESTEP     -1
Info: HOM BACKGROUND SCALING 1
Info: PME BACKGROUND SCALING 1
Info: MIN ATOMS PER PATCH    40
Info: EMPTY PATCH LOAD       40 ATOMS
Info: INITIAL TEMPERATURE    300
Info: CENTER OF MASS MOVING INITIALLY? NO
Info: DIELECTRIC             1
Info: EXCLUDE                SCALED ONE-FOUR
Info: 1-4 ELECTROSTATICS SCALED BY 0.833333
Info: MODIFIED 1-4 VDW PARAMETERS WILL BE USED
Info: DCD FILENAME           mobley_5449201_min.dcd
Info: DCD FREQUENCY          5000
Info: DCD FIRST STEP         5000
Info: DCD FILE WILL CONTAIN UNIT CELL DATA
Info: XST FILENAME           mobley_5449201_min.xst
Info: XST FREQUENCY          5000
Info: NO VELOCITY DCD OUTPUT
Info: NO FORCE DCD OUTPUT
Info: OUTPUT FILENAME        mobley_5449201_min
Info: BINARY OUTPUT FILES WILL BE USED
Info: RESTART FILENAME       mobley_5449201_min.restart
Info: RESTART FREQUENCY      5000
Info: BINARY RESTART FILES WILL BE USED
Info: CUTOFF                 9
Info: PAIRLIST DISTANCE      11
Info: PAIRLIST SHRINK RATE   0.01
Info: PAIRLIST GROW RATE     0.01
Info: PAIRLIST TRIGGER       0.3
Info: PAIRLISTS PER CYCLE    2
Info: PAIRLISTS ENABLED
Info: MARGIN                 8
Info: HYDROGEN GROUP CUTOFF  2.5
Info: PATCH DIMENSION        21.5
Info: ENERGY OUTPUT STEPS    5000
Info: ENERGY EVALUATION STEPS    5000
Info: OUTPUT ENERGY PRECISION 4
Info: CROSSTERM ENERGY INCLUDED IN DIHEDRAL
Info: TIMING OUTPUT STEPS    50000
Info: PRESSURE OUTPUT STEPS  5000
Info: LANGEVIN DYNAMICS ACTIVE
Info: LANGEVIN TEMPERATURE   300
Info: LANGEVIN USING BBK INTEGRATOR
Info: LANGEVIN DAMPING COEFFICIENT IS 1 INVERSE PS
Info: LANGEVIN DYNAMICS APPLIED TO HYDROGENS
Info: LANGEVIN PISTON PRESSURE CONTROL ACTIVE
Info:        TARGET PRESSURE IS 1.01325 BAR
Info:     OSCILLATION PERIOD IS 50 FS
Info:             DECAY TIME IS 25 FS
Info:     PISTON TEMPERATURE IS 300 K
Info:       PRESSURE CONTROL IS GROUP-BASED
Info:    INITIAL STRAIN RATE IS 0 0 0
Info:       CELL FLUCTUATION IS ISOTROPIC
Info: PARTICLE MESH EWALD (PME) ACTIVE
Info: PME TOLERANCE               1e-06
Info: PME EWALD COEFFICIENT       0.348832
Info: PME INTERPOLATION ORDER     4
Info: PME GRID DIMENSIONS         44 40 44
Info: PME MAXIMUM GRID SPACING    1
Info: FULL ELECTROSTATIC EVALUATION FREQUENCY      2
Info: USING VERLET I (r-RESPA) MTS SCHEME.
Info: C1 SPLITTING OF LONG RANGE ELECTROSTATICS
Info: PLACING ATOMS IN PATCHES BY HYDROGEN GROUPS
Info: RIGID BONDS TO HYDROGEN : ALL
Info:         ERROR TOLERANCE : 1e-08
Info:          MAX ITERATIONS : 100
Info: RIGID WATER USING SETTLE ALGORITHM
Info: RANDOM NUMBER SEED     1741345038
Info: USE HYDROGEN BONDS?    NO
Info: Using AMBER format force field!
Info: AMBER PARM FILE        mobley_5449201.prmtop
Info: COORDINATE PDB         mobley_5449201.pdb
Info: Exclusions will be read from PARM file!
Info: SCNB (VDW SCALING)     2
Info: USING ARITHMETIC MEAN TO COMBINE L-J SIGMA PARAMETERS
Info: SUMMARY OF PARAMETERS:
Info: 4 BONDS
Info: 3 ANGLES
Info:   3 HARMONIC
Info:   0 COSINE-BASED
Info: 3 DIHEDRAL
Info: 0 IMPROPER
Info: 0 CROSSTERM
Info: 0 VDW
Info: 10 VDW_PAIRS
Info: 0 NBTHOLE_PAIRS
Info: STRUCTURE SUMMARY:
Info: 4502 ATOMS
Info: 4501 BONDS
Info: 30 ANGLES
Info: 36 DIHEDRALS
Info: 0 IMPROPERS
Info: 0 CROSSTERMS
Info: 4567 EXCLUSIONS
Info: 4497 RIGID BONDS
Info: 9009 DEGREES OF FREEDOM
Info: 1500 HYDROGEN GROUPS
Info: 4 ATOMS IN LARGEST HYDROGEN GROUP
Info: 1500 MIGRATION GROUPS
Info: 4 ATOMS IN LARGEST MIGRATION GROUP
Info: TOTAL MASS = 27006.1 amu
Info: TOTAL CHARGE = -0.000200011 e
Info: MASS DENSITY = 0.703017 g/cm^3
Info: ATOM DENSITY = 0.070575 atoms/A^3
Info: ADDED 0 IMPLICIT EXCLUSIONS
Info: NONBONDED TABLE R-SQUARED SPACING: 0.0625
Info: NONBONDED TABLE SIZE: 705 POINTS
Info: REMOVING COM VELOCITY -0.133023 -0.0455557 0.0159044
TCL: Minimizing for 2000 steps
ETITLE: TS BOND ANGLE DIHED IMPRP ELECT VDW BOUNDARY MISC KINETIC TOTAL TEMP POTENTIAL TOTAL3 TEMPAVG PRESSURE GPRESSURE VOLUME PRESSAVG GPRESSAVG
ENERGY: 0 0.1313 0.2165 0.0117 0.0000 -14015.3401 1615.6152 0.0000 0.0000 0.0000 -12399.3653 0.0000 -12399.3653 -12399.3653 0.0000 10954.1708 -15325.4571 63790.3345 10954.1708 -15325.4571
ENERGY: 400 1.3674 1.2424 0.0378 0.0000 -18980.4312 2813.8268 0.0000 0.0000 0.0000 -16163.9568 0.0000 -16163.9568 -16163.9568 0.0000 15688.4257 15830.5170 63790.3345 15688.4257 15830.5170
ENERGY: 800 12.6568 8.1424 0.0992 0.0000 -19978.0381 3283.7102 0.0000 0.0000 0.0000 -16673.4294 0.0000 -16673.4294 -16673.4294 0.0000 17968.9490 18085.2685 63790.3345 17968.9490 18085.2685
ENERGY: 1200 1.5059 0.8640 0.0241 0.0000 -20386.7338 3458.2131 0.0000 0.0000 0.0000 -16926.1267 0.0000 -16926.1267 -16926.1267 0.0000 18885.1743 19014.8648 63790.3345 18885.1743 19014.8648
ENERGY: 1600 0.2587 0.3686 0.0219 0.0000 -20570.2808 3523.6080 0.0000 0.0000 0.0000 -17046.0236 0.0000 -17046.0236 -17046.0236 0.0000 19255.7484 19370.2460 63790.3345 19255.7484 19370.2460
ENERGY: 2000 0.1689 0.2050 0.0426 0.0000 -20692.0762 3580.2379 0.0000 0.0000 0.0000 -17111.4218 0.0000 -17111.4218 -17111.4218 0.0000 19594.7866 19700.3647 63790.3345 19594.7866 19700.3647
TCL: Exiting due to exit command.
Info: NAMD 3.0.1 for Linux-x86_64-multicore
Info: Please visit http://www.ks.uiuc.edu/Research/namd/
Info: for updates, documentation, and support information.
Info: Please cite Phillips et al., J. Chem. Phys. 153:044130 (2020) doi:10.1063/5.0014475
Info: in all publications reporting results obtained with NAMD.
Info: Based on Charm++/Converse 80000 for multicore-linux-x86_64-gcc
Info: Built Mon Oct 14 11:11:06 CDT 2024 by dhardy on athine.ks.uiuc.edu
Info: 1 NAMD  3.0.1  Linux-x86_64-multicore  16    k064  z5358697
Info: Running on 16 processors, 1 nodes, 1 physical nodes.
Info: CPU topology information available.
Info: Charm++/Converse parallel runtime startup completed at 0.0107991 s
Info: 1043.46 MB of memory in use based on /proc/self/stat
Info: Configuration file is mobley_5449201_equil.namd
Info: Working in the current directory /srv/scratch/z5358697/prod_prep_6/5449201
TCL: Running 25000 steps at 30 kelvin.
TCL: Suspending until startup complete.
Info: SIMULATION PARAMETERS:
Info: TIMESTEP               2
Info: NUMBER OF STEPS        0
Info: STEPS PER CYCLE        10
Info: PERIODIC CELL BASIS 1  40.176 0 0
Info: PERIODIC CELL BASIS 2  0 37.796 0
Info: PERIODIC CELL BASIS 3  0 0 42.009
Info: PERIODIC CELL CENTER   0 0 0
Info: WRAPPING WATERS AROUND PERIODIC BOUNDARIES ON OUTPUT.
Info: WRAPPING ALL CLUSTERS AROUND PERIODIC BOUNDARIES ON OUTPUT.
Info: FIRST LDB TIMESTEP     50
Info: LAST LDB TIMESTEP     -1
Info: HOM BACKGROUND SCALING 1
Info: PME BACKGROUND SCALING 1
Info: MIN ATOMS PER PATCH    40
Info: EMPTY PATCH LOAD       40 ATOMS
Info: INITIAL TEMPERATURE    300
Info: CENTER OF MASS MOVING INITIALLY? NO
Info: DIELECTRIC             1
Info: EXCLUDE                SCALED ONE-FOUR
Info: 1-4 ELECTROSTATICS SCALED BY 0.833333
Info: MODIFIED 1-4 VDW PARAMETERS WILL BE USED
Info: DCD FILENAME           mobley_5449201_equil.dcd
Info: DCD FREQUENCY          5000
Info: DCD FIRST STEP         5000
Info: DCD FILE WILL CONTAIN UNIT CELL DATA
Info: XST FILENAME           mobley_5449201_equil.xst
Info: XST FREQUENCY          5000
Info: NO VELOCITY DCD OUTPUT
Info: NO FORCE DCD OUTPUT
Info: OUTPUT FILENAME        mobley_5449201_equil
Info: BINARY OUTPUT FILES WILL BE USED
Info: RESTART FILENAME       mobley_5449201_equil.restart
Info: RESTART FREQUENCY      5000
Info: BINARY RESTART FILES WILL BE USED
Info: CUTOFF                 9
Info: PAIRLIST DISTANCE      11
Info: PAIRLIST SHRINK RATE   0.01
Info: PAIRLIST GROW RATE     0.01
Info: PAIRLIST TRIGGER       0.3
Info: PAIRLISTS PER CYCLE    2
Info: PAIRLISTS ENABLED
Info: MARGIN                 8
Info: HYDROGEN GROUP CUTOFF  2.5
Info: PATCH DIMENSION        21.5
Info: ENERGY OUTPUT STEPS    5000
Info: ENERGY EVALUATION STEPS    5000
Info: OUTPUT ENERGY PRECISION 4
Info: CROSSTERM ENERGY INCLUDED IN DIHEDRAL
Info: TIMING OUTPUT STEPS    50000
Info: PRESSURE OUTPUT STEPS  5000
Info: LANGEVIN DYNAMICS ACTIVE
Info: LANGEVIN TEMPERATURE   30
Info: LANGEVIN USING BBK INTEGRATOR
Info: LANGEVIN DAMPING COEFFICIENT IS 1 INVERSE PS
Info: LANGEVIN DYNAMICS APPLIED TO HYDROGENS
Info: LANGEVIN PISTON PRESSURE CONTROL ACTIVE
Info:        TARGET PRESSURE IS 1.01325 BAR
Info:     OSCILLATION PERIOD IS 50 FS
Info:             DECAY TIME IS 25 FS
Info:     PISTON TEMPERATURE IS 300 K
Info:       PRESSURE CONTROL IS GROUP-BASED
Info:    INITIAL STRAIN RATE IS 0 0 0
Info:       CELL FLUCTUATION IS ISOTROPIC
Info: PARTICLE MESH EWALD (PME) ACTIVE
Info: PME TOLERANCE               1e-06
Info: PME EWALD COEFFICIENT       0.348832
Info: PME INTERPOLATION ORDER     4
Info: PME GRID DIMENSIONS         44 40 44
Info: PME MAXIMUM GRID SPACING    1
Info: FULL ELECTROSTATIC EVALUATION FREQUENCY      2
Info: USING VERLET I (r-RESPA) MTS SCHEME.
Info: C1 SPLITTING OF LONG RANGE ELECTROSTATICS
Info: PLACING ATOMS IN PATCHES BY HYDROGEN GROUPS
Info: RIGID BONDS TO HYDROGEN : ALL
Info:         ERROR TOLERANCE : 1e-08
Info:          MAX ITERATIONS : 100
Info: RIGID WATER USING SETTLE ALGORITHM
Info: RANDOM NUMBER SEED     1741345053
Info: USE HYDROGEN BONDS?    NO
Info: Using AMBER format force field!
Info: AMBER PARM FILE        mobley_5449201.prmtop
Info: COORDINATE PDB         mobley_5449201.pdb
Info: Exclusions will be read from PARM file!
Info: SCNB (VDW SCALING)     2
Info: USING ARITHMETIC MEAN TO COMBINE L-J SIGMA PARAMETERS
Info: BINARY COORDINATES     mobley_5449201_min.coor
Info: SUMMARY OF PARAMETERS:
Info: 4 BONDS
Info: 3 ANGLES
Info:   3 HARMONIC
Info:   0 COSINE-BASED
Info: 3 DIHEDRAL
Info: 0 IMPROPER
Info: 0 CROSSTERM
Info: 0 VDW
Info: 10 VDW_PAIRS
Info: 0 NBTHOLE_PAIRS
Info: STRUCTURE SUMMARY:
Info: 4502 ATOMS
Info: 4501 BONDS
Info: 30 ANGLES
Info: 36 DIHEDRALS
Info: 0 IMPROPERS
Info: 0 CROSSTERMS
Info: 4567 EXCLUSIONS
Info: 4497 RIGID BONDS
Info: 9009 DEGREES OF FREEDOM
Info: 1500 HYDROGEN GROUPS
Info: 4 ATOMS IN LARGEST HYDROGEN GROUP
Info: 1500 MIGRATION GROUPS
Info: 4 ATOMS IN LARGEST MIGRATION GROUP
Info: TOTAL MASS = 27006.1 amu
Info: TOTAL CHARGE = -0.000200011 e
Info: MASS DENSITY = 0.703017 g/cm^3
Info: ATOM DENSITY = 0.070575 atoms/A^3
Info: ADDED 0 IMPLICIT EXCLUSIONS
Info: NONBONDED TABLE R-SQUARED SPACING: 0.0625
Info: NONBONDED TABLE SIZE: 705 POINTS
Info: REMOVING COM VELOCITY -0.104946 0.0790506 -0.149448
TCL: Running for 25000 steps
ETITLE: TS BOND ANGLE DIHED IMPRP ELECT VDW BOUNDARY MISC KINETIC TOTAL TEMP POTENTIAL TOTAL3 TEMPAVG PRESSURE GPRESSURE VOLUME PRESSAVG GPRESSAVG
ENERGY: 0 0.1689 0.2050 0.0426 0.0000 -20692.0762 3580.2379 0.0000 0.0000 2688.3795 -14423.0423 300.3339 -17111.4218 -14422.4837 300.3339 205.7454 227.7415 63790.3345 205.7454 227.7415
ENERGY: 5000 0.1877 0.8639 0.2035 0.0000 -21596.8278 3774.8490 0.0000 0.0000 274.9841 -17545.7397 30.7200 -17820.7237 -17545.0450 46.9367 94.7257 156.4858 44333.0335 2.7196 2.7259
ENERGY: 10000 0.4152 0.5807 0.1438 0.0000 -21428.8012 3572.6833 0.0000 0.0000 268.2793 -17586.6989 29.9710 -17854.9782 -17585.9240 30.2747 -1074.8035 -1017.9758 44451.7517 2.6414 2.7994
ENERGY: 15000 0.1100 0.7550 0.2361 0.0000 -21494.2488 3616.4760 0.0000 0.0000 279.9099 -17596.7619 31.2703 -17876.6718 -17595.9226 30.0171 -809.1664 -741.3289 44116.2159 2.5397 2.6174
ENERGY: 20000 0.1312 1.4991 0.1879 0.0000 -21599.6489 3694.9820 0.0000 0.0000 269.1289 -17633.7198 30.0659 -17902.8487 -17632.9070 30.3520 -381.5902 -310.6337 43900.4912 8.0296 7.9568
ENERGY: 25000 0.0419 0.7596 0.0836 0.0000 -21760.2188 3841.6996 0.0000 0.0000 273.1283 -17644.5058 30.5127 -17917.6341 -17643.9613 30.1894 400.2369 441.0722 43729.7529 2.9092 2.7242
TCL: Running 25000 steps at 60 kelvin.
TCL: Setting parameter langevinTemp to 60
TCL: Running for 25000 steps
ETITLE: TS BOND ANGLE DIHED IMPRP ELECT VDW BOUNDARY MISC KINETIC TOTAL TEMP POTENTIAL TOTAL3 TEMPAVG PRESSURE GPRESSURE VOLUME PRESSAVG GPRESSAVG
ENERGY: 25000 0.0419 0.7596 0.0836 0.0000 -21760.2188 3841.6996 0.0000 0.0000 272.9934 -17644.6408 30.4976 -17917.6341 -17644.1610 30.4976 387.2828 441.1079 43729.7529 387.2828 441.1079
ENERGY: 30000 0.0510 1.4138 0.1437 0.0000 -21255.5846 3580.2710 0.0000 0.0000 546.7616 -17126.9435 61.0818 -17673.7050 -17125.5045 57.5174 -409.1270 -375.7945 44134.1573 2.8473 2.9812
ENERGY: 35000 0.1295 1.1798 0.1407 0.0000 -21347.8614 3645.7862 0.0000 0.0000 518.4698 -17182.1554 57.9212 -17700.6252 -17180.8774 59.8994 -121.8695 -83.2661 43922.3851 -1.3645 -1.7116
ENERGY: 40000 0.1385 1.8557 0.1220 0.0000 -21375.6876 3669.9299 0.0000 0.0000 540.1639 -17163.4776 60.3447 -17703.6416 -17162.3989 59.9239 -10.6321 40.7948 43876.0602 7.9695 7.3444
ENERGY: 45000 0.4292 0.9644 0.0760 0.0000 -21428.5796 3701.0494 0.0000 0.0000 550.8189 -17175.2416 61.5351 -17726.0606 -17173.5643 60.1048 111.7073 172.5487 43834.1971 3.3392 3.1635
ENERGY: 50000 0.0842 1.1136 0.6580 0.0000 -21448.2361 3728.4802 0.0000 0.0000 543.9838 -17173.9162 60.7715 -17717.9001 -17172.6596 60.0880 388.7372 450.8174 43711.4208 1.8684 1.5871
TCL: Running 25000 steps at 90 kelvin.
TCL: Setting parameter langevinTemp to 90
TCL: Running for 25000 steps
ETITLE: TS BOND ANGLE DIHED IMPRP ELECT VDW BOUNDARY MISC KINETIC TOTAL TEMP POTENTIAL TOTAL3 TEMPAVG PRESSURE GPRESSURE VOLUME PRESSAVG GPRESSAVG
ENERGY: 50000 0.0842 1.1136 0.6580 0.0000 -21448.2361 3728.4802 0.0000 0.0000 543.7208 -17174.1793 60.7421 -17717.9001 -17173.1149 60.7421 395.9529 450.8204 43711.4208 395.9529 450.8204
ENERGY: 55000 0.4110 2.1793 0.4556 0.0000 -20962.7863 3511.1960 0.0000 0.0000 803.4988 -16645.0456 89.7633 -17448.5444 -16643.9388 87.5026 -224.7790 -199.9458 44255.4246 -0.6982 -0.5903
ENERGY: 60000 0.3111 2.5588 0.3964 0.0000 -20973.3165 3492.8730 0.0000 0.0000 825.2275 -16651.9497 92.1908 -17477.1772 -16649.7381 90.4382 -414.7993 -367.3353 44217.6617 4.4219 4.5079
ENERGY: 65000 0.1652 2.0616 0.1478 0.0000 -21196.8869 3681.4964 0.0000 0.0000 791.0001 -16722.0158 88.3671 -17513.0160 -16720.4750 89.7740 614.2311 670.2054 43720.1365 2.8830 2.9004
ENERGY: 70000 0.2483 2.2287 0.4419 0.0000 -20971.0097 3457.4361 0.0000 0.0000 796.4790 -16714.1756 88.9791 -17510.6547 -16712.3819 90.2000 -685.5545 -609.9083 44082.3163 4.4650 4.5732
ENERGY: 75000 0.3777 2.9828 0.3591 0.0000 -21213.0151 3651.2850 0.0000 0.0000 805.2203 -16752.7902 89.9557 -17558.0105 -16751.2664 89.8751 420.5885 466.3158 43644.7203 5.9772 5.6812
TCL: Running 25000 steps at 120 kelvin.
TCL: Setting parameter langevinTemp to 120
TCL: Running for 25000 steps
ETITLE: TS BOND ANGLE DIHED IMPRP ELECT VDW BOUNDARY MISC KINETIC TOTAL TEMP POTENTIAL TOTAL3 TEMPAVG PRESSURE GPRESSURE VOLUME PRESSAVG GPRESSAVG
ENERGY: 75000 0.3777 2.9828 0.3591 0.0000 -21213.0151 3651.2850 0.0000 0.0000 804.8098 -16753.2007 89.9098 -17558.0105 -16751.7417 89.9098 410.4958 465.9547 43644.7203 410.4958 465.9547
ENERGY: 80000 0.6923 3.0725 0.9200 0.0000 -20536.8860 3304.8130 0.0000 0.0000 1056.1460 -16171.2424 117.9880 -17227.3884 -16167.8966 117.2032 -823.5569 -750.0110 44348.7218 3.2880 3.2647
ENERGY: 85000 0.4314 1.4888 0.2210 0.0000 -20692.2084 3407.6297 0.0000 0.0000 1066.4389 -16215.9987 119.1379 -17282.4376 -16213.1212 119.4230 -515.3693 -437.0151 44458.0846 4.4149 4.3672
ENERGY: 90000 0.9995 2.5381 0.4315 0.0000 -20704.8291 3388.6357 0.0000 0.0000 1085.0946 -16227.1297 121.2220 -17312.2243 -16224.5020 120.5195 -520.2514 -414.9658 44235.6782 7.9084 7.7240
ENERGY: 95000 0.4819 2.4897 0.0769 0.0000 -21013.3343 3655.2280 0.0000 0.0000 1089.7833 -16265.2746 121.7458 -17355.0579 -16263.1331 120.6624 847.1428 905.6296 43971.7577 1.5559 1.4567
ENERGY: 100000 1.0174 3.0417 0.7530 0.0000 -20811.0695 3454.2083 0.0000 0.0000 1047.8582 -16304.1909 117.0621 -17352.0491 -16301.1109 119.3499 -278.7175 -179.1180 44023.8060 3.0321 3.2467
TCL: Running 25000 steps at 150 kelvin.
TCL: Setting parameter langevinTemp to 150
TCL: Running for 25000 steps
ETITLE: TS BOND ANGLE DIHED IMPRP ELECT VDW BOUNDARY MISC KINETIC TOTAL TEMP POTENTIAL TOTAL3 TEMPAVG PRESSURE GPRESSURE VOLUME PRESSAVG GPRESSAVG
ENERGY: 100000 1.0174 3.0417 0.7530 0.0000 -20811.0695 3454.2083 0.0000 0.0000 1047.3145 -16304.7346 117.0014 -17352.0491 -16302.4154 117.0014 -244.5165 -178.5091 44023.8060 -244.5165 -178.5091
ENERGY: 105000 0.6678 3.2706 0.5954 0.0000 -20447.1948 3468.8359 0.0000 0.0000 1303.3002 -15670.5251 145.5990 -16973.8252 -15668.5118 146.2751 715.4994 782.3895 43986.9687 5.1831 5.0515
ENERGY: 110000 1.0834 5.3119 0.4052 0.0000 -20190.1593 3182.6605 0.0000 0.0000 1330.7407 -15669.9576 148.6645 -17000.6984 -15665.7433 150.1323 -899.9765 -850.9546 44267.9245 2.9071 2.7629
ENERGY: 115000 0.3971 5.0673 0.7736 0.0000 -20370.2141 3314.7098 0.0000 0.0000 1321.1379 -15728.1283 147.5917 -17049.2663 -15725.9053 150.9472 -319.4672 -284.5803 44066.9987 3.1116 3.2986
ENERGY: 120000 0.6040 3.2707 0.3188 0.0000 -20420.4570 3333.7742 0.0000 0.0000 1384.5911 -15697.8981 154.6804 -17082.4892 -15695.1393 151.1495 -266.5370 -236.4141 44113.2787 0.0915 -0.3129
ENERGY: 125000 0.4250 4.3854 1.3303 0.0000 -20396.8381 3277.0564 0.0000 0.0000 1336.4523 -15777.1887 149.3026 -17113.6410 -15773.6639 150.0808 -692.3322 -625.3544 44076.7359 2.8239 2.8167
TCL: Running 50000 steps at 180 kelvin.
TCL: Setting parameter langevinTemp to 180
TCL: Running for 50000 steps
ETITLE: TS BOND ANGLE DIHED IMPRP ELECT VDW BOUNDARY MISC KINETIC TOTAL TEMP POTENTIAL TOTAL3 TEMPAVG PRESSURE GPRESSURE VOLUME PRESSAVG GPRESSAVG
ENERGY: 125000 0.4250 4.3854 1.3303 0.0000 -20396.8381 3277.0564 0.0000 0.0000 1335.7869 -15777.8541 149.2282 -17113.6410 -15775.2377 149.2282 -678.0660 -624.9478 44076.7359 -678.0660 -624.9478
ENERGY: 135000 2.3022 4.2844 1.2428 0.0000 -19885.5427 3200.0035 0.0000 0.0000 1626.2680 -15051.4419 181.6795 -16677.7098 -15048.8902 178.9696 34.5538 117.3736 43726.3321 4.1485 3.9193
ENERGY: 145000 0.5486 4.4231 0.8125 0.0000 -20065.8360 3346.9970 0.0000 0.0000 1592.9923 -15120.0626 177.9621 -16713.0549 -15116.7444 180.0362 787.9510 824.4167 43676.1492 -1.5855 -1.2358
ENERGY: 155000 0.3701 4.4179 0.5169 0.0000 -19907.1356 3174.2077 0.0000 0.0000 1594.2449 -15133.3780 178.1020 -16727.6229 -15130.2248 181.0018 -22.5936 25.5111 43670.1893 0.7281 0.5761
ENERGY: 165000 0.5385 6.6726 0.4824 0.0000 -20119.4055 3383.9216 0.0000 0.0000 1615.8644 -15111.9260 180.5173 -16727.7904 -15110.0049 180.5287 938.6552 1039.3297 43530.1525 3.9809 4.2323
ENERGY: 175000 1.3108 3.4457 0.5338 0.0000 -19883.1179 3160.9668 0.0000 0.0000 1630.2591 -15086.6018 182.1254 -16716.8609 -15081.0046 178.8049 -229.4623 -108.4051 43740.7130 1.1553 1.5719
TCL: Running 50000 steps at 210 kelvin.
TCL: Setting parameter langevinTemp to 210
TCL: Running for 50000 steps
ETITLE: TS BOND ANGLE DIHED IMPRP ELECT VDW BOUNDARY MISC KINETIC TOTAL TEMP POTENTIAL TOTAL3 TEMPAVG PRESSURE GPRESSURE VOLUME PRESSAVG GPRESSAVG
ENERGY: 175000 1.3108 3.4457 0.5338 0.0000 -19883.1179 3160.9668 0.0000 0.0000 1629.4788 -15087.3821 182.0382 -16716.8609 -15085.0791 182.0382 -165.1106 -107.8614 43740.7130 -165.1106 -107.8614
ENERGY: 185000 0.5043 7.9212 0.9619 0.0000 -18807.7001 2755.2980 0.0000 0.0000 1869.6836 -14173.3311 208.8728 -16043.0147 -14169.5815 209.4012 -786.5702 -727.7364 44003.6125 1.9137 2.4726
ENERGY: 195000 3.0110 5.4496 0.4612 0.0000 -18901.4514 2801.2049 0.0000 0.0000 1860.8808 -14230.4440 207.8894 -16091.3247 -14226.2959 210.3158 -465.3844 -388.1413 43641.2966 0.3420 -0.2324
ENERGY: 205000 1.8367 2.7247 0.6506 0.0000 -18917.2365 2882.1724 0.0000 0.0000 1848.4816 -14181.3705 206.5042 -16029.8522 -14178.0566 209.7028 178.1402 226.0971 43337.0889 1.1895 1.1491
ENERGY: 215000 0.6903 2.7403 2.0722 0.0000 -18901.4162 2934.6397 0.0000 0.0000 1851.5571 -14109.7165 206.8478 -15961.2737 -14105.5454 210.0813 605.2744 626.3404 43426.3193 4.8693 4.9676
ENERGY: 225000 0.2607 5.6189 1.0199 0.0000 -18988.7220 2917.4486 0.0000 0.0000 1891.8351 -14172.5389 211.3475 -16064.3739 -14167.9997 209.7622 123.1314 157.5753 43853.6794 4.6675 4.4316
TCL: Running 50000 steps at 240 kelvin.
TCL: Setting parameter langevinTemp to 240
TCL: Running for 50000 steps
ETITLE: TS BOND ANGLE DIHED IMPRP ELECT VDW BOUNDARY MISC KINETIC TOTAL TEMP POTENTIAL TOTAL3 TEMPAVG PRESSURE GPRESSURE VOLUME PRESSAVG GPRESSAVG
ENERGY: 225000 0.2607 5.6189 1.0199 0.0000 -18988.7220 2917.4486 0.0000 0.0000 1890.9006 -14173.4733 211.2431 -16064.3739 -14170.6133 211.2431 89.3268 157.4516 43853.6794 89.3268 157.4516
ENERGY: 235000 1.6454 4.7216 1.4705 0.0000 -17978.1962 2629.2910 0.0000 0.0000 2133.9501 -13207.1176 238.3955 -15341.0677 -13202.9280 240.9948 180.7357 271.3336 44223.3704 2.4521 1.7306
ENERGY: 245000 2.2398 8.2906 1.8822 0.0000 -17915.0924 2511.5580 0.0000 0.0000 2120.7219 -13270.3999 236.9177 -15391.1218 -13267.1541 239.0741 -797.0859 -706.5678 44534.5622 1.1560 2.0538
ENERGY: 255000 0.7208 5.9031 0.5252 0.0000 -17991.3133 2606.8638 0.0000 0.0000 2182.6972 -13194.6033 243.8413 -15377.3004 -13188.6356 239.7766 60.4328 114.2963 43967.3328 -0.5053 -0.7639
ENERGY: 265000 1.6907 6.2293 0.3010 0.0000 -18006.8910 2647.7819 0.0000 0.0000 2160.0326 -13190.8555 241.3093 -15350.8881 -13187.7872 240.3138 -71.5075 31.8906 44808.3648 -1.1843 -0.8482
ENERGY: 275000 0.3173 9.8174 1.5809 0.0000 -18067.8450 2618.1089 0.0000 0.0000 2217.5237 -13220.4967 247.7320 -15438.0204 -13213.5919 239.0701 -92.9260 4.2394 44186.2229 1.4094 0.8764
TCL: Running 50000 steps at 270 kelvin.
TCL: Setting parameter langevinTemp to 270
TCL: Running for 50000 steps
ETITLE: TS BOND ANGLE DIHED IMPRP ELECT VDW BOUNDARY MISC KINETIC TOTAL TEMP POTENTIAL TOTAL3 TEMPAVG PRESSURE GPRESSURE VOLUME PRESSAVG GPRESSAVG
ENERGY: 275000 0.3173 9.8174 1.5809 0.0000 -18067.8450 2618.1089 0.0000 0.0000 2216.4556 -13221.5648 247.6127 -15438.0204 -13217.5815 247.6127 -77.1607 6.2412 44186.2229 -77.1607 6.2412
ENERGY: 285000 0.7083 5.7257 1.1164 0.0000 -17095.3075 2398.0957 0.0000 0.0000 2429.7551 -12259.9062 271.4415 -14689.6613 -12255.6341 269.4857 65.2793 177.3844 45180.9097 7.2640 6.7658
ENERGY: 295000 0.1747 8.0589 0.8428 0.0000 -17255.2280 2486.9392 0.0000 0.0000 2381.3259 -12377.8864 266.0312 -14759.2123 -12372.8600 270.6901 657.0106 765.3690 44648.8296 3.5510 3.6948
ENERGY: 305000 0.3776 8.7402 1.5459 0.0000 -17110.8142 2385.1543 0.0000 0.0000 2440.7752 -12274.2209 272.6726 -14714.9961 -12270.8184 270.8304 -105.2920 -36.6948 45148.6204 1.3635 1.3364
ENERGY: 315000 0.5478 6.3716 0.4456 0.0000 -17174.3921 2381.5404 0.0000 0.0000 2477.1341 -12308.3526 276.7345 -14785.4867 -12302.2857 270.3350 -91.9020 -7.1254 45076.5330 1.0152 1.4184
ENERGY: 325000 2.5828 3.8232 1.6043 0.0000 -17128.8659 2271.6176 0.0000 0.0000 2359.0942 -12490.1439 263.5476 -14849.2380 -12484.5084 269.4123 -1056.5185 -912.6631 45569.5840 5.0596 4.9117
TCL: Running 1000000 steps at 300 kelvin.
TCL: Setting parameter langevinTemp to 300
TCL: Running for 1000000 steps
ETITLE: TS BOND ANGLE DIHED IMPRP ELECT VDW BOUNDARY MISC KINETIC TOTAL TEMP POTENTIAL TOTAL3 TEMPAVG PRESSURE GPRESSURE VOLUME PRESSAVG GPRESSAVG
ENERGY: 325000 2.5828 3.8232 1.6043 0.0000 -17128.8659 2271.6176 0.0000 0.0000 2357.8396 -12491.3984 263.4075 -14849.2380 -12487.3661 263.4075 -996.8250 -913.0813 45569.5840 -996.8250 -913.0813
ENERGY: 525000 0.2328 9.1138 1.3960 0.0000 -16328.4751 2195.5778 0.0000 0.0000 2711.1953 -11410.9594 302.8828 -14122.1547 -11406.1611 299.3742 -23.7369 66.3890 46268.1499 5.4921 5.0557
ENERGY: 725000 1.1495 4.2627 0.9236 0.0000 -16291.3639 2149.0500 0.0000 0.0000 2710.9752 -11425.0029 302.8582 -14135.9781 -11420.1439 300.2793 76.4974 116.2036 45982.8096 1.2559 1.5162
ENERGY: 925000 3.6290 7.2630 0.9520 0.0000 -16213.5921 2138.2790 0.0000 0.0000 2738.4089 -11325.0602 305.9230 -14063.4690 -11321.1969 304.1010 -411.0878 -325.1770 46965.5783 4.1540 3.1640
ENERGY: 1125000 2.0634 7.1878 2.0726 0.0000 -16440.5981 2296.5007 0.0000 0.0000 2678.3993 -11454.3743 299.2190 -14132.7736 -11449.9162 300.1865 167.6113 310.1921 46993.3731 7.5125 7.2350
ENERGY: 1325000 1.2379 7.6176 1.7957 0.0000 -16303.7125 2185.3932 0.0000 0.0000 2691.2802 -11416.3879 300.6580 -14107.6681 -11411.8309 298.7489 -64.9080 57.8159 46240.6207 2.5662 2.2152
TCL: Exiting due to exit command.
