Info: SIMULATION PARAMETERS:
Info: TIMESTEP               2
Info: NUMBER OF STEPS        0
Info: STEPS PER CYCLE        10
Info: PERIODIC CELL BASIS 1  34.207 0 0
Info: PERIODIC CELL BASIS 2  0 34.696 0
Info: PERIODIC CELL BASIS 3  0 0 36.199
Info: PERIODIC CELL CENTER   0 0 0
Info: WRAPPING WATERS AROUND PERIODIC BOUNDARIES ON OUTPUT.
Info: WRAPPING ALL CLUSTERS AROUND PERIODIC BOUNDARIES ON OUTPUT.
Info: FIRST LDB TIMESTEP     50
Info: LAST LDB TIMESTEP     -1
Info: HOM BACKGROUND SCALING 1
Info: PME BACKGROUND SCALING 1
Info: MIN ATOMS PER PATCH    40
Info: EMPTY PATCH LOAD       40 ATOMS
Info: INITIAL TEMPERATURE    300
Info: CENTER OF MASS MOVING INITIALLY? NO
Info: DIELECTRIC             1
Info: EXCLUDE                SCALED ONE-FOUR
Info: 1-4 ELECTROSTATICS SCALED BY 0.833333
Info: MODIFIED 1-4 VDW PARAMETERS WILL BE USED
Info: DCD FILENAME           mobley_303222_equil.dcd
Info: DCD FREQUENCY          100000
Info: DCD FIRST STEP         100000
Info: DCD FILE WILL CONTAIN UNIT CELL DATA
Info: XST FILENAME           mobley_303222_equil.xst
Info: XST FREQUENCY          100000
Info: NO VELOCITY DCD OUTPUT
Info: NO FORCE DCD OUTPUT
Info: OUTPUT FILENAME        mobley_303222_equil
Info: BINARY OUTPUT FILES WILL BE USED
Info: RESTART FILENAME       mobley_303222_equil.restart
Info: RESTART FREQUENCY      100000
Info: BINARY RESTART FILES WILL BE USED
Info: CUTOFF                 9
Info: PAIRLIST DISTANCE      11
Info: PAIRLIST SHRINK RATE   0.01
Info: PAIRLIST GROW RATE     0.01
Info: PAIRLIST TRIGGER       0.3
Info: PAIRLISTS PER CYCLE    2
Info: PAIRLISTS ENABLED
Info: MARGIN                 8
Info: HYDROGEN GROUP CUTOFF  2.5
Info: PATCH DIMENSION        21.5
Info: ENERGY OUTPUT STEPS    100000
Info: ENERGY EVALUATION STEPS    100000
Info: OUTPUT ENERGY PRECISION 4
Info: CROSSTERM ENERGY INCLUDED IN DIHEDRAL
Info: TIMING OUTPUT STEPS    1000000
Info: PRESSURE OUTPUT STEPS  100000
Info: FIXED ATOMS ACTIVE
Info: LANGEVIN DYNAMICS ACTIVE
Info: LANGEVIN TEMPERATURE   30
Info: LANGEVIN USING BBK INTEGRATOR
Info: LANGEVIN DAMPING COEFFICIENT IS 1 INVERSE PS
Info: LANGEVIN DYNAMICS APPLIED TO HYDROGENS
Info: LANGEVIN PISTON PRESSURE CONTROL ACTIVE
Info:        TARGET PRESSURE IS 1.01325 BAR
Info:     OSCILLATION PERIOD IS 50 FS
Info:             DECAY TIME IS 25 FS
Info:     PISTON TEMPERATURE IS 300 K
Info:       PRESSURE CONTROL IS GROUP-BASED
Info:    INITIAL STRAIN RATE IS 0 0 0
Info:       CELL FLUCTUATION IS ISOTROPIC
Info: PARTICLE MESH EWALD (PME) ACTIVE
Info: PME TOLERANCE               1e-06
Info: PME EWALD COEFFICIENT       0.348832
Info: PME INTERPOLATION ORDER     4
Info: PME GRID DIMENSIONS         36 36 40
Info: PME MAXIMUM GRID SPACING    1
Info: FULL ELECTROSTATIC EVALUATION FREQUENCY      2
Info: USING VERLET I (r-RESPA) MTS SCHEME.
Info: C1 SPLITTING OF LONG RANGE ELECTROSTATICS
Info: PLACING ATOMS IN PATCHES BY HYDROGEN GROUPS
Info: RIGID BONDS TO HYDROGEN : ALL
Info:         ERROR TOLERANCE : 1e-08
Info:          MAX ITERATIONS : 100
Info: RIGID WATER USING SETTLE ALGORITHM
Info: RANDOM NUMBER SEED     1742364951
Info: USE HYDROGEN BONDS?    NO
Info: Using AMBER format force field!
Info: AMBER PARM FILE        mobley_303222.prmtop
Info: COORDINATE PDB         mobley_303222.pdb
Info: Exclusions will be read from PARM file!
Info: SCNB (VDW SCALING)     2
Info: USING ARITHMETIC MEAN TO COMBINE L-J SIGMA PARAMETERS
Info: BINARY COORDINATES     mobley_303222_min.coor
Info: SUMMARY OF PARAMETERS:
Info: 6 BONDS
Info: 6 ANGLES
Info:   6 HARMONIC
Info:   0 COSINE-BASED
Info: 3 DIHEDRAL
Info: 0 IMPROPER
Info: 0 CROSSTERM
Info: 0 VDW
Info: 21 VDW_PAIRS
Info: 0 NBTHOLE_PAIRS
Info: STRUCTURE SUMMARY:
Info: 2958 ATOMS
Info: 2957 BONDS
Info: 12 ANGLES
Info: 10 DIHEDRALS
Info: 0 IMPROPERS
Info: 0 CROSSTERMS
Info: 2979 EXCLUSIONS
Info: 9 FIXED ATOMS
Info: 2955 RIGID BONDS
Info: 6 RIGID BONDS BETWEEN FIXED ATOMS
Info: 5898 DEGREES OF FREEDOM
Info: 986 HYDROGEN GROUPS
Info: 4 ATOMS IN LARGEST HYDROGEN GROUP
Info: 986 MIGRATION GROUPS
Info: 4 ATOMS IN LARGEST MIGRATION GROUP
Info: 3 HYDROGEN GROUPS WITH ALL ATOMS FIXED
Info: TOTAL MASS = 17751.8 amu
Info: TOTAL CHARGE = -9.99942e-05 e
Info: MASS DENSITY = 0.686137 g/cm^3
Info: ATOM DENSITY = 0.0688505 atoms/A^3
Info: ADDED 0 IMPLICIT EXCLUSIONS
Info: NONBONDED TABLE R-SQUARED SPACING: 0.0625
Info: NONBONDED TABLE SIZE: 705 POINTS
Info: REMOVING COM VELOCITY 0.0112951 -0.241381 0.0440006
TCL: Running for 100000 steps
ETITLE: TS BOND ANGLE DIHED IMPRP ELECT VDW BOUNDARY MISC KINETIC TOTAL TEMP POTENTIAL TOTAL3 TEMPAVG PRESSURE GPRESSURE VOLUME PRESSAVG GPRESSAVG
ENERGY: 0 0.0000 0.0000 0.0000 0.0000 -13715.4687 2403.0117 0.0000 0.0000 1735.8478 -9576.6092 296.2083 -11312.4570 -9576.2797 296.2083 454.7005 494.9312 42962.6410 454.7005 494.9312
ENERGY: 100000 0.0000 0.0000 0.0000 0.0000 -14248.8752 2477.9717 0.0000 0.0000 178.7472 -11592.1562 30.5018 -11770.9034 -11591.9736 30.8288 17.6735 70.8927 29046.3860 3.8561 3.8551
TCL: Running 100000 steps at 60 kelvin.
TCL: Setting parameter langevinTemp to 60
TCL: Running for 100000 steps
ETITLE: TS BOND ANGLE DIHED IMPRP ELECT VDW BOUNDARY MISC KINETIC TOTAL TEMP POTENTIAL TOTAL3 TEMPAVG PRESSURE GPRESSURE VOLUME PRESSAVG GPRESSAVG
ENERGY: 100000 0.0000 0.0000 0.0000 0.0000 -14248.8752 2477.9717 0.0000 0.0000 178.6590 -11592.2445 30.4867 -11770.9034 -11591.8422 30.4867 13.4646 70.8693 29046.3860 13.4646 70.8693
ENERGY: 200000 0.0000 0.0000 0.0000 0.0000 -14194.8450 2439.6091 0.0000 0.0000 343.8668 -11411.3692 58.6781 -11755.2359 -11410.7688 59.8639 -81.1429 -18.3435 28931.7038 2.6531 2.6716
TCL: Running 100000 steps at 90 kelvin.
TCL: Setting parameter langevinTemp to 90
TCL: Running for 100000 steps
ETITLE: TS BOND ANGLE DIHED IMPRP ELECT VDW BOUNDARY MISC KINETIC TOTAL TEMP POTENTIAL TOTAL3 TEMPAVG PRESSURE GPRESSURE VOLUME PRESSAVG GPRESSAVG
ENERGY: 200000 0.0000 0.0000 0.0000 0.0000 -14194.8450 2439.6091 0.0000 0.0000 343.6880 -11411.5479 58.6476 -11755.2359 -11410.9318 58.6476 -71.0074 -18.5125 28931.7038 -71.0074 -18.5125
ENERGY: 300000 0.0000 0.0000 0.0000 0.0000 -13940.8272 2321.9030 0.0000 0.0000 520.6677 -11098.2566 88.8477 -11618.9243 -11097.1631 90.0999 -607.1445 -580.4643 29041.9939 2.3850 2.4272
TCL: Running 100000 steps at 120 kelvin.
TCL: Setting parameter langevinTemp to 120
TCL: Running for 100000 steps
ETITLE: TS BOND ANGLE DIHED IMPRP ELECT VDW BOUNDARY MISC KINETIC TOTAL TEMP POTENTIAL TOTAL3 TEMPAVG PRESSURE GPRESSURE VOLUME PRESSAVG GPRESSAVG
ENERGY: 300000 0.0000 0.0000 0.0000 0.0000 -13940.8272 2321.9030 0.0000 0.0000 520.4198 -11098.5045 88.8054 -11618.9243 -11097.3023 88.8054 -629.2254 -581.0938 29041.9939 -629.2254 -581.0938
ENERGY: 400000 0.0000 0.0000 0.0000 0.0000 -13765.1565 2270.0235 0.0000 0.0000 681.5037 -10813.6292 116.2931 -11495.1330 -10811.5510 120.0564 -557.6163 -504.4328 28903.3551 3.5466 3.6768
TCL: Running 100000 steps at 150 kelvin.
TCL: Setting parameter langevinTemp to 150
TCL: Running for 100000 steps
ETITLE: TS BOND ANGLE DIHED IMPRP ELECT VDW BOUNDARY MISC KINETIC TOTAL TEMP POTENTIAL TOTAL3 TEMPAVG PRESSURE GPRESSURE VOLUME PRESSAVG GPRESSAVG
ENERGY: 400000 0.0000 0.0000 0.0000 0.0000 -13765.1565 2270.0235 0.0000 0.0000 681.1397 -10813.9932 116.2310 -11495.1330 -10812.6153 116.2310 -566.2723 -504.1069 28903.3551 -566.2723 -504.1069
ENERGY: 500000 0.0000 0.0000 0.0000 0.0000 -13586.9338 2247.8001 0.0000 0.0000 886.0746 -10453.0591 151.2014 -11339.1337 -10450.7090 149.7867 -154.6807 -122.6646 28906.6528 2.9837 2.9644
TCL: Running 100000 steps at 180 kelvin.
TCL: Setting parameter langevinTemp to 180
TCL: Running for 100000 steps
ETITLE: TS BOND ANGLE DIHED IMPRP ELECT VDW BOUNDARY MISC KINETIC TOTAL TEMP POTENTIAL TOTAL3 TEMPAVG PRESSURE GPRESSURE VOLUME PRESSAVG GPRESSAVG
ENERGY: 500000 0.0000 0.0000 0.0000 0.0000 -13586.9338 2247.8001 0.0000 0.0000 885.6227 -10453.5110 151.1243 -11339.1337 -10451.7205 151.1243 -172.0256 -123.3771 28906.6528 -172.0256 -123.3771
ENERGY: 600000 0.0000 0.0000 0.0000 0.0000 -13195.1648 2152.4016 0.0000 0.0000 1077.0264 -9965.7368 183.7858 -11042.7632 -9962.8799 179.7071 110.9009 196.5698 29080.4139 2.9608 2.9965
TCL: Running 100000 steps at 210 kelvin.
TCL: Setting parameter langevinTemp to 210
TCL: Running for 100000 steps
ETITLE: TS BOND ANGLE DIHED IMPRP ELECT VDW BOUNDARY MISC KINETIC TOTAL TEMP POTENTIAL TOTAL3 TEMPAVG PRESSURE GPRESSURE VOLUME PRESSAVG GPRESSAVG
ENERGY: 600000 0.0000 0.0000 0.0000 0.0000 -13195.1648 2152.4016 0.0000 0.0000 1076.4732 -9966.2900 183.6914 -11042.7632 -9964.5983 183.6914 128.3842 196.0954 29080.4139 128.3842 196.0954
ENERGY: 700000 0.0000 0.0000 0.0000 0.0000 -12574.0258 2015.5096 0.0000 0.0000 1274.1310 -9284.3852 217.4201 -10558.5162 -9281.4703 210.0171 1002.0963 1047.4124 28590.7914 4.0491 3.9535
TCL: Running 100000 steps at 240 kelvin.
TCL: Setting parameter langevinTemp to 240
TCL: Running for 100000 steps
ETITLE: TS BOND ANGLE DIHED IMPRP ELECT VDW BOUNDARY MISC KINETIC TOTAL TEMP POTENTIAL TOTAL3 TEMPAVG PRESSURE GPRESSURE VOLUME PRESSAVG GPRESSAVG
ENERGY: 700000 0.0000 0.0000 0.0000 0.0000 -12574.0258 2015.5096 0.0000 0.0000 1273.5085 -9285.0076 217.3139 -10558.5162 -9282.6108 217.3139 968.8734 1048.1499 28590.7914 968.8734 1048.1499
ENERGY: 800000 0.0000 0.0000 0.0000 0.0000 -11874.6534 1786.2346 0.0000 0.0000 1363.4421 -8724.9767 232.6603 -10088.4188 -8722.1457 240.1446 323.7037 477.1748 29302.3790 1.8764 1.8129
TCL: Running 100000 steps at 270 kelvin.
TCL: Setting parameter langevinTemp to 270
TCL: Running for 100000 steps
ETITLE: TS BOND ANGLE DIHED IMPRP ELECT VDW BOUNDARY MISC KINETIC TOTAL TEMP POTENTIAL TOTAL3 TEMPAVG PRESSURE GPRESSURE VOLUME PRESSAVG GPRESSAVG
ENERGY: 800000 0.0000 0.0000 0.0000 0.0000 -11874.6534 1786.2346 0.0000 0.0000 1362.7372 -8725.6816 232.5400 -10088.4188 -8723.5698 232.5400 389.7405 479.2818 29302.3790 389.7405 479.2818
ENERGY: 900000 0.0000 0.0000 0.0000 0.0000 -11389.3080 1640.5941 0.0000 0.0000 1540.4865 -8208.2274 262.8715 -9748.7138 -8203.7673 269.5667 377.4638 432.8980 29650.0488 3.6116 3.7273
TCL: Running 1000000 steps at 300 kelvin.
TCL: Setting parameter langevinTemp to 300
TCL: Running for 1000000 steps
ETITLE: TS BOND ANGLE DIHED IMPRP ELECT VDW BOUNDARY MISC KINETIC TOTAL TEMP POTENTIAL TOTAL3 TEMPAVG PRESSURE GPRESSURE VOLUME PRESSAVG GPRESSAVG
ENERGY: 900000 0.0000 0.0000 0.0000 0.0000 -11389.3080 1640.5941 0.0000 0.0000 1539.7032 -8209.0106 262.7378 -9748.7138 -8206.9965 262.7378 357.2766 434.0646 29650.0488 357.2766 434.0646
ENERGY: 1100000 0.0000 0.0000 0.0000 0.0000 -10687.3500 1400.7173 0.0000 0.0000 1804.7483 -7481.8845 307.9656 -9286.6328 -7477.5468 300.5027 -193.8369 -167.9304 30515.5501 2.0370 2.0555
ENERGY: 1300000 0.0000 0.0000 0.0000 0.0000 -10751.0374 1469.8316 0.0000 0.0000 1753.9717 -7527.2341 299.3010 -9281.2058 -7522.0482 299.4693 -5.8073 57.8576 31080.5773 3.9195 3.8564
ENERGY: 1500000 0.0000 0.0000 0.0000 0.0000 -10924.7499 1559.4125 0.0000 0.0000 1738.9634 -7626.3741 296.7400 -9365.3374 -7624.8340 299.7430 832.9341 932.1343 30146.4596 2.7778 2.7379
ENERGY: 1700000 0.0000 0.0000 0.0000 0.0000 -10703.1817 1396.3987 0.0000 0.0000 1780.8324 -7525.9506 303.8846 -9306.7830 -7523.8624 300.0760 -505.3669 -372.3033 30579.7489 3.1896 3.1046
ENERGY: 1900000 0.0000 0.0000 0.0000 0.0000 -10724.0379 1459.7552 0.0000 0.0000 1739.1517 -7525.1310 296.7721 -9264.2827 -7521.3401 299.5041 103.9111 168.6560 30536.1889 2.0914 2.0462
TCL: Exiting due to exit command.
