Info: SIMULATION PARAMETERS:
Info: TIMESTEP               2
Info: NUMBER OF STEPS        0
Info: STEPS PER CYCLE        10
Info: PERIODIC CELL BASIS 1  35.436 0 0
Info: PERIODIC CELL BASIS 2  0 33.542 0
Info: PERIODIC CELL BASIS 3  0 0 36.199
Info: PERIODIC CELL CENTER   0 0 0
Info: WRAPPING WATERS AROUND PERIODIC BOUNDARIES ON OUTPUT.
Info: WRAPPING ALL CLUSTERS AROUND PERIODIC BOUNDARIES ON OUTPUT.
Info: FIRST LDB TIMESTEP     50
Info: LAST LDB TIMESTEP     -1
Info: HOM BACKGROUND SCALING 1
Info: PME BACKGROUND SCALING 1
Info: MIN ATOMS PER PATCH    40
Info: EMPTY PATCH LOAD       40 ATOMS
Info: INITIAL TEMPERATURE    300
Info: CENTER OF MASS MOVING INITIALLY? NO
Info: DIELECTRIC             1
Info: EXCLUDE                SCALED ONE-FOUR
Info: 1-4 ELECTROSTATICS SCALED BY 0.833333
Info: MODIFIED 1-4 VDW PARAMETERS WILL BE USED
Info: DCD FILENAME           mobley_7200804_equil.dcd
Info: DCD FREQUENCY          100000
Info: DCD FIRST STEP         100000
Info: DCD FILE WILL CONTAIN UNIT CELL DATA
Info: XST FILENAME           mobley_7200804_equil.xst
Info: XST FREQUENCY          100000
Info: NO VELOCITY DCD OUTPUT
Info: NO FORCE DCD OUTPUT
Info: OUTPUT FILENAME        mobley_7200804_equil
Info: BINARY OUTPUT FILES WILL BE USED
Info: RESTART FILENAME       mobley_7200804_equil.restart
Info: RESTART FREQUENCY      100000
Info: BINARY RESTART FILES WILL BE USED
Info: CUTOFF                 9
Info: PAIRLIST DISTANCE      11
Info: PAIRLIST SHRINK RATE   0.01
Info: PAIRLIST GROW RATE     0.01
Info: PAIRLIST TRIGGER       0.3
Info: PAIRLISTS PER CYCLE    2
Info: PAIRLISTS ENABLED
Info: MARGIN                 8
Info: HYDROGEN GROUP CUTOFF  2.5
Info: PATCH DIMENSION        21.5
Info: ENERGY OUTPUT STEPS    100000
Info: ENERGY EVALUATION STEPS    100000
Info: OUTPUT ENERGY PRECISION 4
Info: CROSSTERM ENERGY INCLUDED IN DIHEDRAL
Info: TIMING OUTPUT STEPS    1000000
Info: PRESSURE OUTPUT STEPS  100000
Info: LANGEVIN DYNAMICS ACTIVE
Info: LANGEVIN TEMPERATURE   30
Info: LANGEVIN USING BBK INTEGRATOR
Info: LANGEVIN DAMPING COEFFICIENT IS 1 INVERSE PS
Info: LANGEVIN DYNAMICS APPLIED TO HYDROGENS
Info: LANGEVIN PISTON PRESSURE CONTROL ACTIVE
Info:        TARGET PRESSURE IS 1.01325 BAR
Info:     OSCILLATION PERIOD IS 50 FS
Info:             DECAY TIME IS 25 FS
Info:     PISTON TEMPERATURE IS 300 K
Info:       PRESSURE CONTROL IS GROUP-BASED
Info:    INITIAL STRAIN RATE IS 0 0 0
Info:       CELL FLUCTUATION IS ISOTROPIC
Info: PARTICLE MESH EWALD (PME) ACTIVE
Info: PME TOLERANCE               1e-06
Info: PME EWALD COEFFICIENT       0.348832
Info: PME INTERPOLATION ORDER     4
Info: PME GRID DIMENSIONS         36 36 40
Info: PME MAXIMUM GRID SPACING    1
Info: FULL ELECTROSTATIC EVALUATION FREQUENCY      2
Info: USING VERLET I (r-RESPA) MTS SCHEME.
Info: C1 SPLITTING OF LONG RANGE ELECTROSTATICS
Info: PLACING ATOMS IN PATCHES BY HYDROGEN GROUPS
Info: RIGID BONDS TO HYDROGEN : ALL
Info:         ERROR TOLERANCE : 1e-08
Info:          MAX ITERATIONS : 100
Info: RIGID WATER USING SETTLE ALGORITHM
Info: RANDOM NUMBER SEED     1742523926
Info: USE HYDROGEN BONDS?    NO
Info: Using AMBER format force field!
Info: AMBER PARM FILE        mobley_7200804.prmtop
Info: COORDINATE PDB         mobley_7200804.pdb
Info: Exclusions will be read from PARM file!
Info: SCNB (VDW SCALING)     2
Info: USING ARITHMETIC MEAN TO COMBINE L-J SIGMA PARAMETERS
Info: BINARY COORDINATES     mobley_7200804_min.coor
Info: SUMMARY OF PARAMETERS:
Info: 7 BONDS
Info: 5 ANGLES
Info:   5 HARMONIC
Info:   0 COSINE-BASED
Info: 3 DIHEDRAL
Info: 0 IMPROPER
Info: 0 CROSSTERM
Info: 0 VDW
Info: 28 VDW_PAIRS
Info: 0 NBTHOLE_PAIRS
Info: STRUCTURE SUMMARY:
Info: 2911 ATOMS
Info: 2911 BONDS
Info: 19 ANGLES
Info: 31 DIHEDRALS
Info: 0 IMPROPERS
Info: 0 CROSSTERMS
Info: 2953 EXCLUSIONS
Info: 2903 RIGID BONDS
Info: 5830 DEGREES OF FREEDOM
Info: 974 HYDROGEN GROUPS
Info: 3 ATOMS IN LARGEST HYDROGEN GROUP
Info: 974 MIGRATION GROUPS
Info: 3 ATOMS IN LARGEST MIGRATION GROUP
Info: TOTAL MASS = 17515.6 amu
Info: TOTAL CHARGE = -0.000100017 e
Info: MASS DENSITY = 0.67601 g/cm^3
Info: ATOM DENSITY = 0.0676569 atoms/A^3
Info: ADDED 0 IMPLICIT EXCLUSIONS
Info: NONBONDED TABLE R-SQUARED SPACING: 0.0625
Info: NONBONDED TABLE SIZE: 705 POINTS
Info: REMOVING COM VELOCITY 0.153207 0.0699107 0.100569
TCL: Running for 100000 steps
ETITLE: TS BOND ANGLE DIHED IMPRP ELECT VDW BOUNDARY MISC KINETIC TOTAL TEMP POTENTIAL TOTAL3 TEMPAVG PRESSURE GPRESSURE VOLUME PRESSAVG GPRESSAVG
ENERGY: 0 0.1362 0.1343 0.2633 0.0000 -13478.2267 2370.2417 0.0000 0.0000 1774.3186 -9333.1327 306.3045 -11107.4512 -9332.7630 306.3045 332.6723 363.2423 43025.9255 332.6723 363.2423
ENERGY: 100000 0.6454 0.4114 1.0279 0.0000 -13851.3756 2271.6878 0.0000 0.0000 176.3830 -11401.2200 30.4494 -11577.6031 -11400.5420 30.9196 -1688.3131 -1619.0588 29248.2992 3.7150 3.6917
TCL: Running 100000 steps at 60 kelvin.
TCL: Setting parameter langevinTemp to 60
TCL: Running for 100000 steps
ETITLE: TS BOND ANGLE DIHED IMPRP ELECT VDW BOUNDARY MISC KINETIC TOTAL TEMP POTENTIAL TOTAL3 TEMPAVG PRESSURE GPRESSURE VOLUME PRESSAVG GPRESSAVG
ENERGY: 100000 0.6454 0.4114 1.0279 0.0000 -13851.3756 2271.6878 0.0000 0.0000 176.2938 -11401.3093 30.4340 -11577.6031 -11400.7952 30.4340 -1682.6164 -1618.9265 29248.2992 -1682.6164 -1618.9265
ENERGY: 200000 1.0204 0.4900 0.4251 0.0000 -13887.9924 2371.7185 0.0000 0.0000 347.9758 -11166.3626 60.0718 -11514.3384 -11165.8276 59.9165 -442.1673 -370.8094 28651.3493 3.6031 3.6230
TCL: Running 100000 steps at 90 kelvin.
TCL: Setting parameter langevinTemp to 90
TCL: Running for 100000 steps
ETITLE: TS BOND ANGLE DIHED IMPRP ELECT VDW BOUNDARY MISC KINETIC TOTAL TEMP POTENTIAL TOTAL3 TEMPAVG PRESSURE GPRESSURE VOLUME PRESSAVG GPRESSAVG
ENERGY: 200000 1.0204 0.4900 0.4251 0.0000 -13887.9924 2371.7185 0.0000 0.0000 347.8047 -11166.5337 60.0423 -11514.3384 -11165.8498 60.0423 -422.2495 -370.9947 28651.3493 -422.2495 -370.9947
ENERGY: 300000 1.0488 1.1042 1.4431 0.0000 -13788.6962 2371.2623 0.0000 0.0000 516.0208 -10897.8171 89.0818 -11413.8379 -10896.3400 89.9643 -51.0778 -10.8273 28614.5059 4.2524 4.3166
TCL: Running 100000 steps at 120 kelvin.
TCL: Setting parameter langevinTemp to 120
TCL: Running for 100000 steps
ETITLE: TS BOND ANGLE DIHED IMPRP ELECT VDW BOUNDARY MISC KINETIC TOTAL TEMP POTENTIAL TOTAL3 TEMPAVG PRESSURE GPRESSURE VOLUME PRESSAVG GPRESSAVG
ENERGY: 300000 1.0488 1.1042 1.4431 0.0000 -13788.6962 2371.2623 0.0000 0.0000 515.7535 -10898.0844 89.0357 -11413.8379 -10896.9223 89.0357 -51.9203 -10.2803 28614.5059 -51.9203 -10.2803
ENERGY: 400000 0.6793 0.8155 1.8473 0.0000 -13613.9619 2305.6612 0.0000 0.0000 678.8009 -10626.1577 117.1829 -11304.9586 -10625.0519 120.1819 12.4640 65.0792 28410.8527 4.1294 4.1431
TCL: Running 100000 steps at 150 kelvin.
TCL: Setting parameter langevinTemp to 150
TCL: Running for 100000 steps
ETITLE: TS BOND ANGLE DIHED IMPRP ELECT VDW BOUNDARY MISC KINETIC TOTAL TEMP POTENTIAL TOTAL3 TEMPAVG PRESSURE GPRESSURE VOLUME PRESSAVG GPRESSAVG
ENERGY: 400000 0.6793 0.8155 1.8473 0.0000 -13613.9619 2305.6612 0.0000 0.0000 678.4550 -10626.5036 117.1232 -11304.9586 -10625.2625 117.1232 15.7230 64.0191 28410.8527 15.7230 64.0191
ENERGY: 500000 1.5577 1.1236 3.0941 0.0000 -13360.3008 2262.3805 0.0000 0.0000 873.8229 -10218.3220 150.8500 -11092.1450 -10216.7360 149.9370 391.8879 420.9217 28694.9726 4.3430 4.3627
TCL: Running 100000 steps at 180 kelvin.
TCL: Setting parameter langevinTemp to 180
TCL: Running for 100000 steps
ETITLE: TS BOND ANGLE DIHED IMPRP ELECT VDW BOUNDARY MISC KINETIC TOTAL TEMP POTENTIAL TOTAL3 TEMPAVG PRESSURE GPRESSURE VOLUME PRESSAVG GPRESSAVG
ENERGY: 500000 1.5577 1.1236 3.0941 0.0000 -13360.3008 2262.3805 0.0000 0.0000 873.3968 -10218.7482 150.7764 -11092.1450 -10217.2384 150.7764 372.8009 420.9250 28694.9726 372.8009 420.9250
ENERGY: 600000 1.5250 1.9606 3.7998 0.0000 -12908.3614 2043.8154 0.0000 0.0000 1056.7455 -9800.5152 182.4283 -10857.2607 -9799.6047 179.9675 -583.8839 -461.6794 28745.9210 3.4745 3.5368
TCL: Running 100000 steps at 210 kelvin.
TCL: Setting parameter langevinTemp to 210
TCL: Running for 100000 steps
ETITLE: TS BOND ANGLE DIHED IMPRP ELECT VDW BOUNDARY MISC KINETIC TOTAL TEMP POTENTIAL TOTAL3 TEMPAVG PRESSURE GPRESSURE VOLUME PRESSAVG GPRESSAVG
ENERGY: 600000 1.5250 1.9606 3.7998 0.0000 -12908.3614 2043.8154 0.0000 0.0000 1056.2371 -9801.0235 182.3406 -10857.2607 -9799.1166 182.3406 -521.4711 -463.2731 28745.9210 -521.4711 -463.2731
ENERGY: 700000 2.5301 1.4711 1.3952 0.0000 -12279.3946 1902.3581 0.0000 0.0000 1232.0123 -9139.6278 212.6850 -10371.6401 -9137.7999 209.8904 68.3575 161.9822 28705.6620 3.7274 3.6818
TCL: Running 100000 steps at 240 kelvin.
TCL: Setting parameter langevinTemp to 240
TCL: Running for 100000 steps
ETITLE: TS BOND ANGLE DIHED IMPRP ELECT VDW BOUNDARY MISC KINETIC TOTAL TEMP POTENTIAL TOTAL3 TEMPAVG PRESSURE GPRESSURE VOLUME PRESSAVG GPRESSAVG
ENERGY: 700000 2.5301 1.4711 1.3952 0.0000 -12279.3946 1902.3581 0.0000 0.0000 1231.4021 -9140.2380 212.5797 -10371.6401 -9138.3409 212.5797 105.7117 163.0414 28705.6620 105.7117 163.0414
ENERGY: 800000 2.2518 1.7609 2.2252 0.0000 -11559.5038 1602.8793 0.0000 0.0000 1382.5909 -8567.7958 238.6797 -9950.3867 -8566.1575 239.7833 -1077.4387 -969.2793 29040.1409 2.8958 2.8435
TCL: Running 100000 steps at 270 kelvin.
TCL: Setting parameter langevinTemp to 270
TCL: Running for 100000 steps
ETITLE: TS BOND ANGLE DIHED IMPRP ELECT VDW BOUNDARY MISC KINETIC TOTAL TEMP POTENTIAL TOTAL3 TEMPAVG PRESSURE GPRESSURE VOLUME PRESSAVG GPRESSAVG
ENERGY: 800000 2.2518 1.7609 2.2252 0.0000 -11559.5038 1602.8793 0.0000 0.0000 1381.8930 -8568.4937 238.5592 -9950.3867 -8566.4364 238.5592 -1059.4077 -970.8926 29040.1409 -1059.4077 -970.8926
ENERGY: 900000 2.5395 4.1304 3.3324 0.0000 -10983.4234 1507.2914 0.0000 0.0000 1569.2023 -7896.9273 270.8949 -9466.1296 -7891.7655 269.9425 -118.9758 -8.1705 29144.4512 3.2304 3.3807
TCL: Running 1000000 steps at 300 kelvin.
TCL: Setting parameter langevinTemp to 300
TCL: Running for 1000000 steps
ETITLE: TS BOND ANGLE DIHED IMPRP ELECT VDW BOUNDARY MISC KINETIC TOTAL TEMP POTENTIAL TOTAL3 TEMPAVG PRESSURE GPRESSURE VOLUME PRESSAVG GPRESSAVG
ENERGY: 900000 2.5395 4.1304 3.3324 0.0000 -10983.4234 1507.2914 0.0000 0.0000 1568.4127 -7897.7169 270.7586 -9466.1296 -7895.6176 270.7586 -97.4297 -7.0373 29144.4512 -97.4297 -7.0373
ENERGY: 1100000 1.6417 2.1586 3.1806 0.0000 -10446.1818 1445.9462 0.0000 0.0000 1757.6237 -7235.6310 303.4225 -8993.2547 -7231.7706 299.9579 328.0344 480.5642 30175.5420 4.4881 4.3902
ENERGY: 1300000 0.8945 5.9280 1.1608 0.0000 -10432.8970 1412.9639 0.0000 0.0000 1723.0634 -7288.8864 297.4562 -9011.9498 -7284.6091 300.6465 313.5261 404.7649 30105.9120 2.1539 2.3262
ENERGY: 1500000 3.0799 1.7322 2.0588 0.0000 -10619.1947 1466.7058 0.0000 0.0000 1761.6782 -7383.9398 304.1224 -9145.6180 -7381.3061 299.4290 491.0520 595.3662 29737.6752 3.0416 3.0431
ENERGY: 1700000 3.3516 6.6243 3.8192 0.0000 -10541.6250 1510.6270 0.0000 0.0000 1719.5076 -7297.6954 296.8424 -9017.2029 -7297.2903 299.9239 1049.3931 1156.1306 30256.3010 2.8840 2.8783
ENERGY: 1900000 0.9650 3.4584 4.9513 0.0000 -10429.4224 1332.4951 0.0000 0.0000 1694.5343 -7393.0183 292.5312 -9087.5526 -7390.0109 299.8722 -497.9213 -420.4846 30146.3489 3.8543 4.1632
TCL: Exiting due to exit command.
