Info: SIMULATION PARAMETERS:
Info: TIMESTEP               2
Info: NUMBER OF STEPS        0
Info: STEPS PER CYCLE        10
Info: PERIODIC CELL BASIS 1  35.89 0 0
Info: PERIODIC CELL BASIS 2  0 34.1 0
Info: PERIODIC CELL BASIS 3  0 0 36.583
Info: PERIODIC CELL CENTER   0 0 0
Info: WRAPPING WATERS AROUND PERIODIC BOUNDARIES ON OUTPUT.
Info: WRAPPING ALL CLUSTERS AROUND PERIODIC BOUNDARIES ON OUTPUT.
Info: FIRST LDB TIMESTEP     50
Info: LAST LDB TIMESTEP     -1
Info: HOM BACKGROUND SCALING 1
Info: PME BACKGROUND SCALING 1
Info: MIN ATOMS PER PATCH    40
Info: EMPTY PATCH LOAD       40 ATOMS
Info: INITIAL TEMPERATURE    300
Info: CENTER OF MASS MOVING INITIALLY? NO
Info: DIELECTRIC             1
Info: EXCLUDE                SCALED ONE-FOUR
Info: 1-4 ELECTROSTATICS SCALED BY 0.833333
Info: MODIFIED 1-4 VDW PARAMETERS WILL BE USED
Info: DCD FILENAME           mobley_3053621_equil.dcd
Info: DCD FREQUENCY          100000
Info: DCD FIRST STEP         100000
Info: DCD FILE WILL CONTAIN UNIT CELL DATA
Info: XST FILENAME           mobley_3053621_equil.xst
Info: XST FREQUENCY          100000
Info: NO VELOCITY DCD OUTPUT
Info: NO FORCE DCD OUTPUT
Info: OUTPUT FILENAME        mobley_3053621_equil
Info: BINARY OUTPUT FILES WILL BE USED
Info: RESTART FILENAME       mobley_3053621_equil.restart
Info: RESTART FREQUENCY      100000
Info: BINARY RESTART FILES WILL BE USED
Info: CUTOFF                 9
Info: PAIRLIST DISTANCE      11
Info: PAIRLIST SHRINK RATE   0.01
Info: PAIRLIST GROW RATE     0.01
Info: PAIRLIST TRIGGER       0.3
Info: PAIRLISTS PER CYCLE    2
Info: PAIRLISTS ENABLED
Info: MARGIN                 8
Info: HYDROGEN GROUP CUTOFF  2.5
Info: PATCH DIMENSION        21.5
Info: ENERGY OUTPUT STEPS    100000
Info: ENERGY EVALUATION STEPS    100000
Info: OUTPUT ENERGY PRECISION 4
Info: CROSSTERM ENERGY INCLUDED IN DIHEDRAL
Info: TIMING OUTPUT STEPS    1000000
Info: PRESSURE OUTPUT STEPS  100000
Info: FIXED ATOMS ACTIVE
Info: LANGEVIN DYNAMICS ACTIVE
Info: LANGEVIN TEMPERATURE   30
Info: LANGEVIN USING BBK INTEGRATOR
Info: LANGEVIN DAMPING COEFFICIENT IS 1 INVERSE PS
Info: LANGEVIN DYNAMICS APPLIED TO HYDROGENS
Info: LANGEVIN PISTON PRESSURE CONTROL ACTIVE
Info:        TARGET PRESSURE IS 1.01325 BAR
Info:     OSCILLATION PERIOD IS 50 FS
Info:             DECAY TIME IS 25 FS
Info:     PISTON TEMPERATURE IS 300 K
Info:       PRESSURE CONTROL IS GROUP-BASED
Info:    INITIAL STRAIN RATE IS 0 0 0
Info:       CELL FLUCTUATION IS ISOTROPIC
Info: PARTICLE MESH EWALD (PME) ACTIVE
Info: PME TOLERANCE               1e-06
Info: PME EWALD COEFFICIENT       0.348832
Info: PME INTERPOLATION ORDER     4
Info: PME GRID DIMENSIONS         36 36 40
Info: PME MAXIMUM GRID SPACING    1
Info: FULL ELECTROSTATIC EVALUATION FREQUENCY      2
Info: USING VERLET I (r-RESPA) MTS SCHEME.
Info: C1 SPLITTING OF LONG RANGE ELECTROSTATICS
Info: PLACING ATOMS IN PATCHES BY HYDROGEN GROUPS
Info: RIGID BONDS TO HYDROGEN : ALL
Info:         ERROR TOLERANCE : 1e-08
Info:          MAX ITERATIONS : 100
Info: RIGID WATER USING SETTLE ALGORITHM
Info: RANDOM NUMBER SEED     1742141857
Info: USE HYDROGEN BONDS?    NO
Info: Using AMBER format force field!
Info: AMBER PARM FILE        mobley_3053621.prmtop
Info: COORDINATE PDB         mobley_3053621.pdb
Info: Exclusions will be read from PARM file!
Info: SCNB (VDW SCALING)     2
Info: USING ARITHMETIC MEAN TO COMBINE L-J SIGMA PARAMETERS
Info: BINARY COORDINATES     mobley_3053621_min.coor
Info: SUMMARY OF PARAMETERS:
Info: 4 BONDS
Info: 2 ANGLES
Info:   2 HARMONIC
Info:   0 COSINE-BASED
Info: 2 DIHEDRAL
Info: 0 IMPROPER
Info: 0 CROSSTERM
Info: 0 VDW
Info: 10 VDW_PAIRS
Info: 0 NBTHOLE_PAIRS
Info: STRUCTURE SUMMARY:
Info: 2976 ATOMS
Info: 2976 BONDS
Info: 18 ANGLES
Info: 30 DIHEDRALS
Info: 0 IMPROPERS
Info: 0 CROSSTERMS
Info: 3015 EXCLUSIONS
Info: 12 FIXED ATOMS
Info: 2970 RIGID BONDS
Info: 6 RIGID BONDS BETWEEN FIXED ATOMS
Info: 5928 DEGREES OF FREEDOM
Info: 994 HYDROGEN GROUPS
Info: 3 ATOMS IN LARGEST HYDROGEN GROUP
Info: 994 MIGRATION GROUPS
Info: 3 ATOMS IN LARGEST MIGRATION GROUP
Info: 6 HYDROGEN GROUPS WITH ALL ATOMS FIXED
Info: TOTAL MASS = 17877.9 amu
Info: TOTAL CHARGE = -0.000100002 e
Info: MASS DENSITY = 0.663085 g/cm^3
Info: ATOM DENSITY = 0.06647 atoms/A^3
Info: ADDED 0 IMPLICIT EXCLUSIONS
Info: NONBONDED TABLE R-SQUARED SPACING: 0.0625
Info: NONBONDED TABLE SIZE: 705 POINTS
Info: REMOVING COM VELOCITY 0.123275 0.191189 -0.181574
TCL: Running for 100000 steps
ETITLE: TS BOND ANGLE DIHED IMPRP ELECT VDW BOUNDARY MISC KINETIC TOTAL TEMP POTENTIAL TOTAL3 TEMPAVG PRESSURE GPRESSURE VOLUME PRESSAVG GPRESSAVG
ENERGY: 0 0.0000 0.0000 0.0000 0.0000 -13785.0162 2414.7374 0.0000 0.0000 1755.5742 -9614.7047 298.0584 -11370.2789 -9614.3646 298.0584 511.8654 548.4618 44772.0680 511.8654 548.4618
ENERGY: 100000 0.0000 0.0000 0.0000 0.0000 -14256.1386 2425.9912 0.0000 0.0000 174.7906 -11655.3568 29.6757 -11830.1474 -11654.6577 30.8985 -695.2030 -653.3641 30477.4156 3.4313 3.4371
TCL: Running 100000 steps at 60 kelvin.
TCL: Setting parameter langevinTemp to 60
TCL: Running for 100000 steps
ETITLE: TS BOND ANGLE DIHED IMPRP ELECT VDW BOUNDARY MISC KINETIC TOTAL TEMP POTENTIAL TOTAL3 TEMPAVG PRESSURE GPRESSURE VOLUME PRESSAVG GPRESSAVG
ENERGY: 100000 0.0000 0.0000 0.0000 0.0000 -14256.1386 2425.9912 0.0000 0.0000 174.7038 -11655.4436 29.6609 -11830.1474 -11655.0193 29.6609 -702.6660 -652.9846 30477.4156 -702.6660 -652.9846
ENERGY: 200000 0.0000 0.0000 0.0000 0.0000 -14055.6814 2314.7862 0.0000 0.0000 349.8535 -11391.0418 59.3975 -11740.8952 -11389.9096 60.0032 -1074.3121 -1009.9233 30125.5846 3.8960 3.9162
TCL: Running 100000 steps at 90 kelvin.
TCL: Setting parameter langevinTemp to 90
TCL: Running for 100000 steps
ETITLE: TS BOND ANGLE DIHED IMPRP ELECT VDW BOUNDARY MISC KINETIC TOTAL TEMP POTENTIAL TOTAL3 TEMPAVG PRESSURE GPRESSURE VOLUME PRESSAVG GPRESSAVG
ENERGY: 200000 0.0000 0.0000 0.0000 0.0000 -14055.6814 2314.7862 0.0000 0.0000 349.6791 -11391.2161 59.3679 -11740.8952 -11390.1220 59.3679 -1067.0289 -1010.2674 30125.5846 -1067.0289 -1010.2674
ENERGY: 300000 0.0000 0.0000 0.0000 0.0000 -14058.9472 2405.7497 0.0000 0.0000 540.6808 -11112.5166 91.7959 -11653.1975 -11111.0554 89.8574 89.9754 108.3839 29764.6806 3.8070 3.8126
TCL: Running 100000 steps at 120 kelvin.
TCL: Setting parameter langevinTemp to 120
TCL: Running for 100000 steps
ETITLE: TS BOND ANGLE DIHED IMPRP ELECT VDW BOUNDARY MISC KINETIC TOTAL TEMP POTENTIAL TOTAL3 TEMPAVG PRESSURE GPRESSURE VOLUME PRESSAVG GPRESSAVG
ENERGY: 300000 0.0000 0.0000 0.0000 0.0000 -14058.9472 2405.7497 0.0000 0.0000 540.4090 -11112.7885 91.7497 -11653.1975 -11111.6237 91.7497 60.0387 108.2643 29764.6806 60.0387 108.2643
ENERGY: 400000 0.0000 0.0000 0.0000 0.0000 -13809.3567 2307.2300 0.0000 0.0000 730.8838 -10771.2430 124.0882 -11502.1268 -10769.4593 119.9667 -161.6130 -91.4573 29256.3913 3.6938 3.7484
TCL: Running 100000 steps at 150 kelvin.
TCL: Setting parameter langevinTemp to 150
TCL: Running for 100000 steps
ETITLE: TS BOND ANGLE DIHED IMPRP ELECT VDW BOUNDARY MISC KINETIC TOTAL TEMP POTENTIAL TOTAL3 TEMPAVG PRESSURE GPRESSURE VOLUME PRESSAVG GPRESSAVG
ENERGY: 400000 0.0000 0.0000 0.0000 0.0000 -13809.3567 2307.2300 0.0000 0.0000 730.5309 -10771.5959 124.0283 -11502.1268 -10770.2473 124.0283 -150.7184 -90.9567 29256.3913 -150.7184 -90.9567
ENERGY: 500000 0.0000 0.0000 0.0000 0.0000 -13568.9853 2163.8243 0.0000 0.0000 882.3114 -10522.8496 149.7973 -11405.1610 -10521.4066 150.2265 -979.6006 -889.8088 29155.3152 4.7452 4.6977
TCL: Running 100000 steps at 180 kelvin.
TCL: Setting parameter langevinTemp to 180
TCL: Running for 100000 steps
ETITLE: TS BOND ANGLE DIHED IMPRP ELECT VDW BOUNDARY MISC KINETIC TOTAL TEMP POTENTIAL TOTAL3 TEMPAVG PRESSURE GPRESSURE VOLUME PRESSAVG GPRESSAVG
ENERGY: 500000 0.0000 0.0000 0.0000 0.0000 -13568.9853 2163.8243 0.0000 0.0000 881.8847 -10523.2762 149.7249 -11405.1610 -10521.6580 149.7249 -946.5706 -891.0343 29155.3152 -946.5706 -891.0343
ENERGY: 600000 0.0000 0.0000 0.0000 0.0000 -13158.1288 2115.5890 0.0000 0.0000 1056.5207 -9986.0191 179.3743 -11042.5398 -9983.8897 179.8508 -317.6121 -199.6923 29526.4153 3.6405 3.5588
TCL: Running 100000 steps at 210 kelvin.
TCL: Setting parameter langevinTemp to 210
TCL: Running for 100000 steps
ETITLE: TS BOND ANGLE DIHED IMPRP ELECT VDW BOUNDARY MISC KINETIC TOTAL TEMP POTENTIAL TOTAL3 TEMPAVG PRESSURE GPRESSURE VOLUME PRESSAVG GPRESSAVG
ENERGY: 600000 0.0000 0.0000 0.0000 0.0000 -13158.1288 2115.5890 0.0000 0.0000 1056.0162 -9986.5235 179.2886 -11042.5398 -9984.5471 179.2886 -265.5464 -199.4556 29526.4153 -265.5464 -199.4556
ENERGY: 700000 0.0000 0.0000 0.0000 0.0000 -12510.2402 1908.3004 0.0000 0.0000 1224.0871 -9377.8527 207.8234 -10601.9398 -9377.0806 209.9555 10.9423 91.2393 29082.2660 4.4463 4.3476
TCL: Running 100000 steps at 240 kelvin.
TCL: Setting parameter langevinTemp to 240
TCL: Running for 100000 steps
ETITLE: TS BOND ANGLE DIHED IMPRP ELECT VDW BOUNDARY MISC KINETIC TOTAL TEMP POTENTIAL TOTAL3 TEMPAVG PRESSURE GPRESSURE VOLUME PRESSAVG GPRESSAVG
ENERGY: 700000 0.0000 0.0000 0.0000 0.0000 -12510.2402 1908.3004 0.0000 0.0000 1223.4597 -9378.4801 207.7169 -10601.9398 -9377.1981 207.7169 15.7288 89.7007 29082.2660 15.7288 89.7007
ENERGY: 800000 0.0000 0.0000 0.0000 0.0000 -11843.6408 1641.9691 0.0000 0.0000 1430.8225 -8770.8493 242.9226 -10201.6717 -8768.1942 240.2143 -926.9198 -853.9771 29549.5890 2.8136 2.8080
TCL: Running 100000 steps at 270 kelvin.
TCL: Setting parameter langevinTemp to 270
TCL: Running for 100000 steps
ETITLE: TS BOND ANGLE DIHED IMPRP ELECT VDW BOUNDARY MISC KINETIC TOTAL TEMP POTENTIAL TOTAL3 TEMPAVG PRESSURE GPRESSURE VOLUME PRESSAVG GPRESSAVG
ENERGY: 800000 0.0000 0.0000 0.0000 0.0000 -11843.6408 1641.9691 0.0000 0.0000 1430.1225 -8771.5493 242.8038 -10201.6717 -8768.8390 242.8038 -942.7159 -854.6082 29549.5890 -942.7159 -854.6082
ENERGY: 900000 0.0000 0.0000 0.0000 0.0000 -11338.8580 1540.6856 0.0000 0.0000 1582.1007 -8216.0716 268.6064 -9798.1723 -8209.3230 271.1313 -481.2101 -402.3656 29868.2665 3.2907 3.0166
TCL: Running 1000000 steps at 300 kelvin.
TCL: Setting parameter langevinTemp to 300
TCL: Running for 1000000 steps
ETITLE: TS BOND ANGLE DIHED IMPRP ELECT VDW BOUNDARY MISC KINETIC TOTAL TEMP POTENTIAL TOTAL3 TEMPAVG PRESSURE GPRESSURE VOLUME PRESSAVG GPRESSAVG
ENERGY: 900000 0.0000 0.0000 0.0000 0.0000 -11338.8580 1540.6856 0.0000 0.0000 1581.2927 -8216.8796 268.4692 -9798.1723 -8214.3916 268.4692 -483.9713 -398.1189 29868.2665 -483.9713 -398.1189
ENERGY: 1100000 0.0000 0.0000 0.0000 0.0000 -10967.5124 1512.3088 0.0000 0.0000 1803.1335 -7652.0700 306.1329 -9455.2035 -7646.7378 300.5476 247.9101 335.5590 30596.1501 2.3813 2.2408
ENERGY: 1300000 0.0000 0.0000 0.0000 0.0000 -10729.3514 1412.4958 0.0000 0.0000 1794.4538 -7522.4017 304.6593 -9316.8556 -7521.3936 300.1397 -297.4775 -270.8170 30970.9768 3.1598 3.3165
ENERGY: 1500000 0.0000 0.0000 0.0000 0.0000 -10737.5915 1412.1070 0.0000 0.0000 1757.3793 -7568.1052 298.3649 -9325.4845 -7565.6650 300.2076 -355.7807 -310.3424 31084.2329 2.8477 2.7955
ENERGY: 1700000 0.0000 0.0000 0.0000 0.0000 -10825.0841 1473.9544 0.0000 0.0000 1740.3066 -7610.8230 295.4663 -9351.1296 -7608.4731 300.4874 279.6360 337.0948 30408.6738 4.1712 4.1788
ENERGY: 1900000 0.0000 0.0000 0.0000 0.0000 -10782.1353 1454.7665 0.0000 0.0000 1766.7711 -7560.5977 299.9594 -9327.3688 -7558.0534 300.0975 344.9291 413.5172 30309.6382 3.7093 3.5747
TCL: Exiting due to exit command.
