Info: SIMULATION PARAMETERS:
Info: TIMESTEP               2
Info: NUMBER OF STEPS        0
Info: STEPS PER CYCLE        10
Info: PERIODIC CELL BASIS 1  44.537 0 0
Info: PERIODIC CELL BASIS 2  0 41.628 0
Info: PERIODIC CELL BASIS 3  0 0 44.5
Info: PERIODIC CELL CENTER   0 0 0
Info: WRAPPING WATERS AROUND PERIODIC BOUNDARIES ON OUTPUT.
Info: WRAPPING ALL CLUSTERS AROUND PERIODIC BOUNDARIES ON OUTPUT.
Info: FIRST LDB TIMESTEP     50
Info: LAST LDB TIMESTEP     -1
Info: HOM BACKGROUND SCALING 1
Info: PME BACKGROUND SCALING 1
Info: MIN ATOMS PER PATCH    40
Info: EMPTY PATCH LOAD       40 ATOMS
Info: INITIAL TEMPERATURE    300
Info: CENTER OF MASS MOVING INITIALLY? NO
Info: DIELECTRIC             1
Info: EXCLUDE                SCALED ONE-FOUR
Info: 1-4 ELECTROSTATICS SCALED BY 0.833333
Info: MODIFIED 1-4 VDW PARAMETERS WILL BE USED
Info: DCD FILENAME           mobley_2099370_min.dcd
Info: DCD FREQUENCY          5000
Info: DCD FIRST STEP         5000
Info: DCD FILE WILL CONTAIN UNIT CELL DATA
Info: XST FILENAME           mobley_2099370_min.xst
Info: XST FREQUENCY          5000
Info: NO VELOCITY DCD OUTPUT
Info: NO FORCE DCD OUTPUT
Info: OUTPUT FILENAME        mobley_2099370_min
Info: BINARY OUTPUT FILES WILL BE USED
Info: RESTART FILENAME       mobley_2099370_min.restart
Info: RESTART FREQUENCY      5000
Info: BINARY RESTART FILES WILL BE USED
Info: CUTOFF                 9
Info: PAIRLIST DISTANCE      11
Info: PAIRLIST SHRINK RATE   0.01
Info: PAIRLIST GROW RATE     0.01
Info: PAIRLIST TRIGGER       0.3
Info: PAIRLISTS PER CYCLE    2
Info: PAIRLISTS ENABLED
Info: MARGIN                 8
Info: HYDROGEN GROUP CUTOFF  2.5
Info: PATCH DIMENSION        21.5
Info: ENERGY OUTPUT STEPS    5000
Info: ENERGY EVALUATION STEPS    5000
Info: OUTPUT ENERGY PRECISION 4
Info: CROSSTERM ENERGY INCLUDED IN DIHEDRAL
Info: TIMING OUTPUT STEPS    50000
Info: PRESSURE OUTPUT STEPS  5000
Info: LANGEVIN DYNAMICS ACTIVE
Info: LANGEVIN TEMPERATURE   300
Info: LANGEVIN USING BBK INTEGRATOR
Info: LANGEVIN DAMPING COEFFICIENT IS 1 INVERSE PS
Info: LANGEVIN DYNAMICS APPLIED TO HYDROGENS
Info: LANGEVIN PISTON PRESSURE CONTROL ACTIVE
Info:        TARGET PRESSURE IS 1.01325 BAR
Info:     OSCILLATION PERIOD IS 50 FS
Info:             DECAY TIME IS 25 FS
Info:     PISTON TEMPERATURE IS 300 K
Info:       PRESSURE CONTROL IS GROUP-BASED
Info:    INITIAL STRAIN RATE IS 0 0 0
Info:       CELL FLUCTUATION IS ISOTROPIC
Info: PARTICLE MESH EWALD (PME) ACTIVE
Info: PME TOLERANCE               1e-06
Info: PME EWALD COEFFICIENT       0.348832
Info: PME INTERPOLATION ORDER     4
Info: PME GRID DIMENSIONS         48 44 48
Info: PME MAXIMUM GRID SPACING    1
Info: FULL ELECTROSTATIC EVALUATION FREQUENCY      2
Info: USING VERLET I (r-RESPA) MTS SCHEME.
Info: C1 SPLITTING OF LONG RANGE ELECTROSTATICS
Info: PLACING ATOMS IN PATCHES BY HYDROGEN GROUPS
Info: RIGID BONDS TO HYDROGEN : ALL
Info:         ERROR TOLERANCE : 1e-08
Info:          MAX ITERATIONS : 100
Info: RIGID WATER USING SETTLE ALGORITHM
Info: RANDOM NUMBER SEED     1741342437
Info: USE HYDROGEN BONDS?    NO
Info: Using AMBER format force field!
Info: AMBER PARM FILE        mobley_2099370.prmtop
Info: COORDINATE PDB         mobley_2099370.pdb
Info: Exclusions will be read from PARM file!
Info: SCNB (VDW SCALING)     2
Info: USING ARITHMETIC MEAN TO COMBINE L-J SIGMA PARAMETERS
Info: SUMMARY OF PARAMETERS:
Info: 12 BONDS
Info: 17 ANGLES
Info:   17 HARMONIC
Info:   0 COSINE-BASED
Info: 19 DIHEDRAL
Info: 0 IMPROPER
Info: 0 CROSSTERM
Info: 0 VDW
Info: 45 VDW_PAIRS
Info: 0 NBTHOLE_PAIRS
Info: STRUCTURE SUMMARY:
Info: 5976 ATOMS
Info: 5977 BONDS
Info: 55 ANGLES
Info: 95 DIHEDRALS
Info: 0 IMPROPERS
Info: 0 CROSSTERMS
Info: 6105 EXCLUSIONS
Info: 5957 RIGID BONDS
Info: 11971 DEGREES OF FREEDOM
Info: 2000 HYDROGEN GROUPS
Info: 4 ATOMS IN LARGEST HYDROGEN GROUP
Info: 2000 MIGRATION GROUPS
Info: 4 ATOMS IN LARGEST MIGRATION GROUP
Info: TOTAL MASS = 35944 amu
Info: TOTAL CHARGE = -0.000199955 e
Info: MASS DENSITY = 0.723467 g/cm^3
Info: ATOM DENSITY = 0.0724343 atoms/A^3
Info: ADDED 0 IMPLICIT EXCLUSIONS
Info: NONBONDED TABLE R-SQUARED SPACING: 0.0625
Info: NONBONDED TABLE SIZE: 705 POINTS
Info: REMOVING COM VELOCITY -0.0979163 0.135533 -0.0224528
TCL: Minimizing for 2000 steps
ETITLE: TS BOND ANGLE DIHED IMPRP ELECT VDW BOUNDARY MISC KINETIC TOTAL TEMP POTENTIAL TOTAL3 TEMPAVG PRESSURE GPRESSURE VOLUME PRESSAVG GPRESSAVG
ENERGY: 0 0.8380 3.4556 15.6441 0.0000 -18504.4999 2051.7076 0.0000 0.0000 0.0000 -16432.8546 0.0000 -16432.8546 -16432.8546 0.0000 11040.0864 -16014.7455 82502.3875 11040.0864 -16014.7455
ENERGY: 400 19.9970 10.7570 13.0959 0.0000 -24873.6599 3585.1994 0.0000 0.0000 0.0000 -21244.6107 0.0000 -21244.6107 -21244.6107 0.0000 15555.8790 15701.1342 82502.3875 15555.8790 15701.1342
ENERGY: 800 6.7999 2.2387 9.7651 0.0000 -26293.9038 4224.1447 0.0000 0.0000 0.0000 -22050.9553 0.0000 -22050.9553 -22050.9553 0.0000 18002.7591 18136.4676 82502.3875 18002.7591 18136.4676
ENERGY: 1200 1.5845 1.2730 8.5112 0.0000 -26828.4689 4460.8955 0.0000 0.0000 0.0000 -22356.2047 0.0000 -22356.2047 -22356.2047 0.0000 18973.8405 19104.0439 82502.3875 18973.8405 19104.0439
ENERGY: 1600 1.1319 1.1172 8.4584 0.0000 -27111.9991 4570.6722 0.0000 0.0000 0.0000 -22530.6195 0.0000 -22530.6195 -22530.6195 0.0000 19470.0391 19588.4171 82502.3875 19470.0391 19588.4171
ENERGY: 2000 1.2187 1.1323 9.2502 0.0000 -27321.0208 4654.3367 0.0000 0.0000 0.0000 -22655.0830 0.0000 -22655.0830 -22655.0830 0.0000 19810.8362 19929.8770 82502.3875 19810.8362 19929.8770
TCL: Exiting due to exit command.
Info: NAMD 3.0.1 for Linux-x86_64-multicore
Info: Please visit http://www.ks.uiuc.edu/Research/namd/
Info: for updates, documentation, and support information.
Info: Please cite Phillips et al., J. Chem. Phys. 153:044130 (2020) doi:10.1063/5.0014475
Info: in all publications reporting results obtained with NAMD.
Info: Based on Charm++/Converse 80000 for multicore-linux-x86_64-gcc
Info: Built Mon Oct 14 11:11:06 CDT 2024 by dhardy on athine.ks.uiuc.edu
Info: 1 NAMD  3.0.1  Linux-x86_64-multicore  16    k010  z5358697
Info: Running on 16 processors, 1 nodes, 1 physical nodes.
Info: CPU topology information available.
Info: Charm++/Converse parallel runtime startup completed at 0.00909645 s
Info: 1043.45 MB of memory in use based on /proc/self/stat
Info: Configuration file is mobley_2099370_equil.namd
Info: Working in the current directory /srv/scratch/z5358697/prod_prep_1/2099370
TCL: Running 25000 steps at 30 kelvin.
TCL: Suspending until startup complete.
Info: SIMULATION PARAMETERS:
Info: TIMESTEP               2
Info: NUMBER OF STEPS        0
Info: STEPS PER CYCLE        10
Info: PERIODIC CELL BASIS 1  44.537 0 0
Info: PERIODIC CELL BASIS 2  0 41.628 0
Info: PERIODIC CELL BASIS 3  0 0 44.5
Info: PERIODIC CELL CENTER   0 0 0
Info: WRAPPING WATERS AROUND PERIODIC BOUNDARIES ON OUTPUT.
Info: WRAPPING ALL CLUSTERS AROUND PERIODIC BOUNDARIES ON OUTPUT.
Info: FIRST LDB TIMESTEP     50
Info: LAST LDB TIMESTEP     -1
Info: HOM BACKGROUND SCALING 1
Info: PME BACKGROUND SCALING 1
Info: MIN ATOMS PER PATCH    40
Info: EMPTY PATCH LOAD       40 ATOMS
Info: INITIAL TEMPERATURE    300
Info: CENTER OF MASS MOVING INITIALLY? NO
Info: DIELECTRIC             1
Info: EXCLUDE                SCALED ONE-FOUR
Info: 1-4 ELECTROSTATICS SCALED BY 0.833333
Info: MODIFIED 1-4 VDW PARAMETERS WILL BE USED
Info: DCD FILENAME           mobley_2099370_equil.dcd
Info: DCD FREQUENCY          5000
Info: DCD FIRST STEP         5000
Info: DCD FILE WILL CONTAIN UNIT CELL DATA
Info: XST FILENAME           mobley_2099370_equil.xst
Info: XST FREQUENCY          5000
Info: NO VELOCITY DCD OUTPUT
Info: NO FORCE DCD OUTPUT
Info: OUTPUT FILENAME        mobley_2099370_equil
Info: BINARY OUTPUT FILES WILL BE USED
Info: RESTART FILENAME       mobley_2099370_equil.restart
Info: RESTART FREQUENCY      5000
Info: BINARY RESTART FILES WILL BE USED
Info: CUTOFF                 9
Info: PAIRLIST DISTANCE      11
Info: PAIRLIST SHRINK RATE   0.01
Info: PAIRLIST GROW RATE     0.01
Info: PAIRLIST TRIGGER       0.3
Info: PAIRLISTS PER CYCLE    2
Info: PAIRLISTS ENABLED
Info: MARGIN                 8
Info: HYDROGEN GROUP CUTOFF  2.5
Info: PATCH DIMENSION        21.5
Info: ENERGY OUTPUT STEPS    5000
Info: ENERGY EVALUATION STEPS    5000
Info: OUTPUT ENERGY PRECISION 4
Info: CROSSTERM ENERGY INCLUDED IN DIHEDRAL
Info: TIMING OUTPUT STEPS    50000
Info: PRESSURE OUTPUT STEPS  5000
Info: LANGEVIN DYNAMICS ACTIVE
Info: LANGEVIN TEMPERATURE   30
Info: LANGEVIN USING BBK INTEGRATOR
Info: LANGEVIN DAMPING COEFFICIENT IS 1 INVERSE PS
Info: LANGEVIN DYNAMICS APPLIED TO HYDROGENS
Info: LANGEVIN PISTON PRESSURE CONTROL ACTIVE
Info:        TARGET PRESSURE IS 1.01325 BAR
Info:     OSCILLATION PERIOD IS 50 FS
Info:             DECAY TIME IS 25 FS
Info:     PISTON TEMPERATURE IS 300 K
Info:       PRESSURE CONTROL IS GROUP-BASED
Info:    INITIAL STRAIN RATE IS 0 0 0
Info:       CELL FLUCTUATION IS ISOTROPIC
Info: PARTICLE MESH EWALD (PME) ACTIVE
Info: PME TOLERANCE               1e-06
Info: PME EWALD COEFFICIENT       0.348832
Info: PME INTERPOLATION ORDER     4
Info: PME GRID DIMENSIONS         48 44 48
Info: PME MAXIMUM GRID SPACING    1
Info: FULL ELECTROSTATIC EVALUATION FREQUENCY      2
Info: USING VERLET I (r-RESPA) MTS SCHEME.
Info: C1 SPLITTING OF LONG RANGE ELECTROSTATICS
Info: PLACING ATOMS IN PATCHES BY HYDROGEN GROUPS
Info: RIGID BONDS TO HYDROGEN : ALL
Info:         ERROR TOLERANCE : 1e-08
Info:          MAX ITERATIONS : 100
Info: RIGID WATER USING SETTLE ALGORITHM
Info: RANDOM NUMBER SEED     1741342466
Info: USE HYDROGEN BONDS?    NO
Info: Using AMBER format force field!
Info: AMBER PARM FILE        mobley_2099370.prmtop
Info: COORDINATE PDB         mobley_2099370.pdb
Info: Exclusions will be read from PARM file!
Info: SCNB (VDW SCALING)     2
Info: USING ARITHMETIC MEAN TO COMBINE L-J SIGMA PARAMETERS
Info: BINARY COORDINATES     mobley_2099370_min.coor
Info: SUMMARY OF PARAMETERS:
Info: 12 BONDS
Info: 17 ANGLES
Info:   17 HARMONIC
Info:   0 COSINE-BASED
Info: 19 DIHEDRAL
Info: 0 IMPROPER
Info: 0 CROSSTERM
Info: 0 VDW
Info: 45 VDW_PAIRS
Info: 0 NBTHOLE_PAIRS
Info: STRUCTURE SUMMARY:
Info: 5976 ATOMS
Info: 5977 BONDS
Info: 55 ANGLES
Info: 95 DIHEDRALS
Info: 0 IMPROPERS
Info: 0 CROSSTERMS
Info: 6105 EXCLUSIONS
Info: 5957 RIGID BONDS
Info: 11971 DEGREES OF FREEDOM
Info: 2000 HYDROGEN GROUPS
Info: 4 ATOMS IN LARGEST HYDROGEN GROUP
Info: 2000 MIGRATION GROUPS
Info: 4 ATOMS IN LARGEST MIGRATION GROUP
Info: TOTAL MASS = 35944 amu
Info: TOTAL CHARGE = -0.000199955 e
Info: MASS DENSITY = 0.723467 g/cm^3
Info: ATOM DENSITY = 0.0724343 atoms/A^3
Info: ADDED 0 IMPLICIT EXCLUSIONS
Info: NONBONDED TABLE R-SQUARED SPACING: 0.0625
Info: NONBONDED TABLE SIZE: 705 POINTS
Info: REMOVING COM VELOCITY 0.156408 -0.0444934 0.0130955
TCL: Running for 25000 steps
ETITLE: TS BOND ANGLE DIHED IMPRP ELECT VDW BOUNDARY MISC KINETIC TOTAL TEMP POTENTIAL TOTAL3 TEMPAVG PRESSURE GPRESSURE VOLUME PRESSAVG GPRESSAVG
ENERGY: 0 1.2187 1.1323 9.2502 0.0000 -27321.0208 4654.3367 0.0000 0.0000 3491.5464 -19163.5366 293.5471 -22655.0830 -19162.8211 293.5471 28.1388 66.0119 82502.3875 28.1388 66.0119
ENERGY: 5000 1.0204 3.1026 7.9692 0.0000 -28624.6816 4970.4319 0.0000 0.0000 365.3969 -23276.7606 30.7203 -23642.1575 -23275.5037 47.0168 215.7685 249.4344 57807.1021 -3.3380 -3.2572
ENERGY: 10000 1.4910 2.3860 9.1949 0.0000 -28765.4821 5045.0029 0.0000 0.0000 358.8566 -23348.5507 30.1704 -23707.4073 -23347.3545 30.0128 409.3287 469.1946 57608.7467 -2.0914 -2.1500
ENERGY: 15000 2.3002 2.9151 8.9809 0.0000 -28618.7299 4885.8582 0.0000 0.0000 356.7265 -23361.9489 29.9913 -23718.6755 -23360.7802 30.0087 -350.6446 -275.8194 57859.0021 1.1460 1.1007
ENERGY: 20000 1.6789 3.1409 8.5893 0.0000 -28634.2362 4886.2452 0.0000 0.0000 357.0881 -23377.4938 30.0217 -23734.5819 -23376.4742 30.0798 -346.2903 -292.6801 57705.6036 1.3250 1.4287
ENERGY: 25000 2.0292 2.2233 9.2594 0.0000 -28720.0504 4957.4708 0.0000 0.0000 353.8976 -23395.1701 29.7535 -23749.0677 -23394.2545 29.9568 -76.7756 -8.1712 57668.1428 3.0975 3.1050
TCL: Running 25000 steps at 60 kelvin.
TCL: Setting parameter langevinTemp to 60
TCL: Running for 25000 steps
ETITLE: TS BOND ANGLE DIHED IMPRP ELECT VDW BOUNDARY MISC KINETIC TOTAL TEMP POTENTIAL TOTAL3 TEMPAVG PRESSURE GPRESSURE VOLUME PRESSAVG GPRESSAVG
ENERGY: 25000 2.0292 2.2233 9.2594 0.0000 -28720.0504 4957.4708 0.0000 0.0000 353.7164 -23395.3513 29.7382 -23749.0677 -23394.5120 29.7382 -70.2648 -8.1926 57668.1428 -70.2648 -8.1926
ENERGY: 30000 2.0940 3.9669 10.5953 0.0000 -28233.8053 4793.3583 0.0000 0.0000 718.6497 -22705.1411 60.4195 -23423.7909 -22703.8340 57.3593 -56.6858 8.9575 57805.7250 0.3142 0.2083
ENERGY: 35000 2.3374 2.3277 10.9648 0.0000 -28294.0830 4793.9652 0.0000 0.0000 722.1297 -22762.3581 60.7121 -23484.4879 -22760.8524 60.3009 -168.2879 -100.6782 57666.8533 4.1900 4.6064
ENERGY: 40000 2.6284 4.5882 10.9873 0.0000 -28400.5763 4848.8156 0.0000 0.0000 716.1367 -22817.4202 60.2082 -23533.5568 -22815.6712 60.6766 -5.4243 40.2006 57627.6136 1.0444 1.1241
ENERGY: 45000 1.3474 3.8611 9.9674 0.0000 -28305.3966 4752.9343 0.0000 0.0000 726.2134 -22811.0730 61.0554 -23537.2864 -22809.2923 60.5480 -369.0585 -332.7239 57677.5550 4.3290 4.6168
ENERGY: 50000 3.2993 5.1435 8.6696 0.0000 -28348.2104 4760.3358 0.0000 0.0000 737.8547 -22832.9076 62.0341 -23570.7622 -22831.0090 60.4332 -545.2123 -484.5812 57815.4061 -1.1577 -1.0168
TCL: Running 25000 steps at 90 kelvin.
TCL: Setting parameter langevinTemp to 90
TCL: Running for 25000 steps
ETITLE: TS BOND ANGLE DIHED IMPRP ELECT VDW BOUNDARY MISC KINETIC TOTAL TEMP POTENTIAL TOTAL3 TEMPAVG PRESSURE GPRESSURE VOLUME PRESSAVG GPRESSAVG
ENERGY: 50000 3.2993 5.1435 8.6696 0.0000 -28348.2104 4760.3358 0.0000 0.0000 737.5020 -22833.2603 62.0045 -23570.7622 -22831.6225 62.0045 -539.3006 -484.7564 57815.4061 -539.3006 -484.7564
ENERGY: 55000 1.3946 5.1118 10.6730 0.0000 -28179.9057 4959.3077 0.0000 0.0000 1087.9546 -22115.4638 91.4683 -23203.4184 -22112.2200 87.1615 1092.2794 1125.0139 57642.8054 2.1558 2.1517
ENERGY: 60000 2.1680 5.5651 9.2453 0.0000 -28010.3487 4725.0131 0.0000 0.0000 1066.8334 -22201.5239 89.6926 -23268.3573 -22199.0782 90.9645 -77.9477 -21.3198 57823.3120 0.9566 0.8189
ENERGY: 65000 4.9484 3.6507 10.1756 0.0000 -28038.2017 4727.0354 0.0000 0.0000 1069.3840 -22223.0078 89.9070 -23292.3917 -22219.6785 90.2930 -109.3914 -43.9609 57743.1328 3.1108 3.3891
ENERGY: 70000 2.3192 4.5530 10.6378 0.0000 -28167.5399 4858.4704 0.0000 0.0000 1089.8055 -22201.7540 91.6239 -23291.5595 -22199.6843 89.8055 599.4986 652.8753 57517.5754 2.3418 2.3920
ENERGY: 75000 3.3602 4.9446 9.2427 0.0000 -28189.6389 4847.3706 0.0000 0.0000 1068.6830 -22256.0378 89.8481 -23324.7208 -22253.2905 89.9972 433.2137 469.4357 57459.3272 4.7745 4.6548
TCL: Running 25000 steps at 120 kelvin.
TCL: Setting parameter langevinTemp to 120
TCL: Running for 25000 steps
ETITLE: TS BOND ANGLE DIHED IMPRP ELECT VDW BOUNDARY MISC KINETIC TOTAL TEMP POTENTIAL TOTAL3 TEMPAVG PRESSURE GPRESSURE VOLUME PRESSAVG GPRESSAVG
ENERGY: 75000 3.3602 4.9446 9.2427 0.0000 -28189.6389 4847.3706 0.0000 0.0000 1068.1485 -22256.5723 89.8032 -23324.7208 -22254.3233 89.8032 416.7931 469.2516 57459.3272 416.7931 469.2516
ENERGY: 80000 2.9636 5.2595 10.8430 0.0000 -27387.3966 4447.0179 0.0000 0.0000 1442.5211 -21478.7914 121.2780 -22921.3126 -21475.2930 117.0145 -525.7164 -441.0097 57916.1772 1.8838 1.5699
ENERGY: 85000 3.3955 3.8091 10.3526 0.0000 -27557.5183 4548.3663 0.0000 0.0000 1406.1169 -21585.4779 118.2174 -22991.5948 -21581.0733 120.3017 -151.2216 -102.4848 57738.7681 2.5358 2.4213
ENERGY: 90000 3.4917 4.7530 8.9616 0.0000 -27665.9521 4662.4942 0.0000 0.0000 1436.7391 -21549.5125 120.7919 -22986.2516 -21546.3064 119.5205 310.3080 358.8023 57573.6809 3.9156 4.4164
ENERGY: 95000 2.7772 6.0197 10.5217 0.0000 -27580.5879 4557.9750 0.0000 0.0000 1407.2304 -21596.0637 118.3110 -23003.2942 -21593.1402 120.0796 -217.7990 -136.1007 57636.5219 0.7587 0.4702
ENERGY: 100000 3.1118 3.4133 9.2604 0.0000 -27626.7609 4569.7143 0.0000 0.0000 1463.8411 -21577.4199 123.0705 -23041.2611 -21572.8238 119.8413 -249.4086 -191.1234 57719.9968 -1.1688 -1.0219
TCL: Running 25000 steps at 150 kelvin.
TCL: Setting parameter langevinTemp to 150
TCL: Running for 25000 steps
ETITLE: TS BOND ANGLE DIHED IMPRP ELECT VDW BOUNDARY MISC KINETIC TOTAL TEMP POTENTIAL TOTAL3 TEMPAVG PRESSURE GPRESSURE VOLUME PRESSAVG GPRESSAVG
ENERGY: 100000 3.1118 3.4133 9.2604 0.0000 -27626.7609 4569.7143 0.0000 0.0000 1463.1257 -21578.1354 123.0103 -23041.2611 -21575.3956 123.0103 -246.6672 -190.7010 57719.9968 -246.6672 -190.7010
ENERGY: 105000 3.9825 5.7400 11.4736 0.0000 -26832.2043 4253.6777 0.0000 0.0000 1794.0519 -20763.2785 150.8325 -22557.3304 -20758.6371 146.4503 -614.4699 -574.9280 58292.5928 4.9818 4.8795
ENERGY: 110000 2.9323 4.6818 11.9137 0.0000 -27143.8178 4478.6734 0.0000 0.0000 1781.6627 -20863.9539 149.7909 -22645.6166 -20858.6765 150.3313 175.8312 238.1716 57958.9332 1.4329 1.4584
ENERGY: 115000 5.9864 7.7560 8.7663 0.0000 -27143.4986 4461.6753 0.0000 0.0000 1766.8765 -20892.4382 148.5478 -22659.3147 -20888.5809 150.9072 -18.5837 78.5364 57952.4890 0.0254 -0.4432
ENERGY: 120000 3.5681 6.0138 12.6051 0.0000 -27144.9532 4424.2620 0.0000 0.0000 1819.2239 -20879.2803 152.9488 -22698.5042 -20876.4997 149.6495 -147.2936 -90.7705 57956.7874 6.6609 6.5418
ENERGY: 125000 5.5172 8.2057 8.4218 0.0000 -27119.1179 4366.4173 0.0000 0.0000 1795.9312 -20934.6247 150.9905 -22730.5559 -20928.7525 150.0824 -557.5156 -491.7393 57999.2498 3.6539 4.1485
TCL: Running 50000 steps at 180 kelvin.
TCL: Setting parameter langevinTemp to 180
TCL: Running for 50000 steps
ETITLE: TS BOND ANGLE DIHED IMPRP ELECT VDW BOUNDARY MISC KINETIC TOTAL TEMP POTENTIAL TOTAL3 TEMPAVG PRESSURE GPRESSURE VOLUME PRESSAVG GPRESSAVG
ENERGY: 125000 5.5172 8.2057 8.4218 0.0000 -27119.1179 4366.4173 0.0000 0.0000 1795.0539 -20935.5020 150.9167 -22730.5559 -20931.9219 150.9167 -553.1687 -492.0453 57999.2498 -553.1687 -492.0453
ENERGY: 135000 3.5297 8.5130 12.8287 0.0000 -26427.0149 4279.2581 0.0000 0.0000 2104.7132 -20018.1722 176.9509 -22122.8854 -20013.0543 180.1895 98.0568 179.9189 58395.0046 0.2225 -0.2071
ENERGY: 145000 6.3797 6.7940 10.3121 0.0000 -26326.4993 4121.6997 0.0000 0.0000 2196.3314 -19984.9825 184.6536 -22181.3139 -19978.3635 179.7655 -787.4276 -693.3122 59007.6468 2.7037 2.7491
ENERGY: 155000 3.8173 8.0683 12.3066 0.0000 -26701.2809 4448.3296 0.0000 0.0000 2125.0646 -20103.6945 178.6620 -22228.7591 -20097.6130 179.5460 861.3708 894.0961 57890.4829 1.2199 1.1440
ENERGY: 165000 3.7312 6.1395 10.0000 0.0000 -26611.5683 4377.5761 0.0000 0.0000 2135.9415 -20078.1799 179.5764 -22214.1214 -20071.5472 181.1349 406.2026 482.5305 58281.2985 3.7983 3.4232
ENERGY: 175000 3.5620 7.6542 12.8480 0.0000 -26487.8017 4287.0846 0.0000 0.0000 2192.4616 -19984.1912 184.3283 -22176.6528 -19979.6055 180.6572 2.9623 54.5445 58581.4207 1.6193 1.7720
TCL: Running 50000 steps at 210 kelvin.
TCL: Setting parameter langevinTemp to 210
TCL: Running for 50000 steps
ETITLE: TS BOND ANGLE DIHED IMPRP ELECT VDW BOUNDARY MISC KINETIC TOTAL TEMP POTENTIAL TOTAL3 TEMPAVG PRESSURE GPRESSURE VOLUME PRESSAVG GPRESSAVG
ENERGY: 175000 3.5620 7.6542 12.8480 0.0000 -26487.8017 4287.0846 0.0000 0.0000 2191.4058 -19985.2470 184.2395 -22176.6528 -19981.0692 184.2395 -16.3448 54.8171 58581.4207 -16.3448 54.8171
ENERGY: 185000 3.5559 4.9991 12.0695 0.0000 -25305.0049 3884.5721 0.0000 0.0000 2547.1143 -18852.6941 214.1452 -21399.8084 -18848.0026 208.5620 -86.2960 -38.8325 58671.9288 -0.1092 0.0789
ENERGY: 195000 5.0467 7.6264 12.9621 0.0000 -25183.7416 3819.2626 0.0000 0.0000 2551.1763 -18787.6675 214.4867 -21338.8439 -18780.1970 209.6340 -407.5890 -339.5347 58928.7517 -0.2607 -0.2836
ENERGY: 205000 6.5221 7.5135 12.1987 0.0000 -25329.9706 4008.2283 0.0000 0.0000 2486.5566 -18808.9514 209.0539 -21295.5080 -18802.2432 210.8511 680.1107 736.6992 58052.8492 4.1430 3.8949
ENERGY: 215000 7.3246 6.1515 10.5935 0.0000 -25155.0434 3776.2356 0.0000 0.0000 2448.3815 -18906.3568 205.8444 -21354.7383 -18901.4713 209.1438 -612.3393 -559.9668 58603.4015 1.5090 2.0418
ENERGY: 225000 4.9356 9.4621 13.7000 0.0000 -24993.6327 3731.4492 0.0000 0.0000 2533.4814 -18700.6044 212.9991 -21234.0858 -18692.4474 211.0953 -429.6520 -330.1473 58542.3425 2.1747 1.9055
TCL: Running 50000 steps at 240 kelvin.
TCL: Setting parameter langevinTemp to 240
TCL: Running for 50000 steps
ETITLE: TS BOND ANGLE DIHED IMPRP ELECT VDW BOUNDARY MISC KINETIC TOTAL TEMP POTENTIAL TOTAL3 TEMPAVG PRESSURE GPRESSURE VOLUME PRESSAVG GPRESSAVG
ENERGY: 225000 4.9356 9.4621 13.7000 0.0000 -24993.6327 3731.4492 0.0000 0.0000 2532.2671 -18701.8187 212.8970 -21234.0858 -18697.2890 212.8970 -418.5500 -328.5225 58542.3425 -418.5500 -328.5225
ENERGY: 235000 10.4360 10.8910 14.0690 0.0000 -23749.1697 3380.4295 0.0000 0.0000 2810.4138 -17522.9304 236.2818 -20333.3442 -17515.4774 239.3708 -334.4079 -244.9700 58713.4198 6.1387 6.0302
ENERGY: 245000 3.4180 10.7720 12.8718 0.0000 -23913.7208 3432.3630 0.0000 0.0000 2898.0259 -17556.2702 243.6476 -20454.2960 -17548.6789 240.6938 -266.0508 -167.9264 58950.0053 4.3308 4.1801
ENERGY: 255000 3.6144 5.3867 12.7908 0.0000 -23977.7995 3545.9116 0.0000 0.0000 2891.7562 -17518.3398 243.1205 -20410.0959 -17511.3480 239.2796 705.1268 745.2965 57570.8684 -0.6620 -0.7260
ENERGY: 265000 6.3239 11.2969 9.5181 0.0000 -23737.9510 3365.9983 0.0000 0.0000 2831.9543 -17512.8595 238.0928 -20344.8137 -17505.7437 239.9416 -195.8749 -120.0340 58309.0903 -0.8185 -0.7027
ENERGY: 275000 3.8052 9.9962 13.1573 0.0000 -24035.9553 3578.8247 0.0000 0.0000 2843.5440 -17586.6280 239.0671 -20430.1720 -17578.1630 239.7191 125.4747 232.4583 59369.3675 -0.6795 -0.8043
TCL: Running 50000 steps at 270 kelvin.
TCL: Setting parameter langevinTemp to 270
TCL: Running for 50000 steps
ETITLE: TS BOND ANGLE DIHED IMPRP ELECT VDW BOUNDARY MISC KINETIC TOTAL TEMP POTENTIAL TOTAL3 TEMPAVG PRESSURE GPRESSURE VOLUME PRESSAVG GPRESSAVG
ENERGY: 275000 3.8052 9.9962 13.1573 0.0000 -24035.9553 3578.8247 0.0000 0.0000 2842.1465 -17588.0254 238.9497 -20430.1720 -17583.0255 238.9497 146.8409 232.2189 59369.3675 146.8409 232.2189
ENERGY: 285000 9.3551 15.4977 13.4818 0.0000 -22685.1626 3131.9201 0.0000 0.0000 3253.8963 -16261.0116 273.5670 -19514.9079 -16254.3901 270.6853 -204.3081 -103.3308 60286.6714 0.5888 0.3186
ENERGY: 295000 4.8785 9.0333 16.6562 0.0000 -22870.2051 3166.0385 0.0000 0.0000 3221.9649 -16451.6337 270.8824 -19673.5986 -16444.3439 269.5494 -249.1890 -156.7510 59892.4392 4.7413 4.7775
ENERGY: 305000 7.0133 10.3053 11.0529 0.0000 -22635.8370 3073.0740 0.0000 0.0000 3163.3457 -16371.0458 265.9541 -19534.3915 -16361.0219 268.2689 -541.4144 -438.8876 60893.0828 5.9597 5.8468
ENERGY: 315000 4.6390 11.8446 17.2870 0.0000 -22902.4935 3250.9815 0.0000 0.0000 3242.3215 -16375.4199 272.5938 -19617.7414 -16368.1378 271.1552 174.3031 231.6359 60082.6921 1.2852 1.2293
ENERGY: 325000 5.8181 11.3462 12.6572 0.0000 -22686.4883 3135.9262 0.0000 0.0000 3174.8662 -16345.8743 266.9226 -19520.7405 -16339.0226 269.1839 -240.9910 -144.2855 60510.4705 -1.4542 -1.5375
TCL: Running 1000000 steps at 300 kelvin.
TCL: Setting parameter langevinTemp to 300
TCL: Running for 1000000 steps
ETITLE: TS BOND ANGLE DIHED IMPRP ELECT VDW BOUNDARY MISC KINETIC TOTAL TEMP POTENTIAL TOTAL3 TEMPAVG PRESSURE GPRESSURE VOLUME PRESSAVG GPRESSAVG
ENERGY: 325000 5.8181 11.3462 12.6572 0.0000 -22686.4883 3135.9262 0.0000 0.0000 3173.2644 -16347.4762 266.7879 -19520.7405 -16342.5510 266.7879 -232.2229 -143.4428 60510.4705 -232.2229 -143.4428
ENERGY: 525000 8.1376 9.0751 14.1248 0.0000 -21758.5223 2995.4070 0.0000 0.0000 3635.7839 -15095.9940 305.6737 -18731.7778 -15093.1813 300.2255 338.7667 439.9965 61515.6418 3.0853 2.9700
ENERGY: 725000 5.4797 8.5202 16.4405 0.0000 -21526.3440 2888.1452 0.0000 0.0000 3633.8737 -14973.8847 305.5131 -18607.7584 -14965.7031 298.6085 157.0897 212.0001 61743.2267 -5.8067 -5.3858
ENERGY: 925000 4.8086 7.3691 14.8641 0.0000 -21471.1715 2797.3283 0.0000 0.0000 3691.8523 -14954.9491 310.3875 -18646.8014 -14948.6506 301.8925 -143.6756 -46.5468 61428.3224 2.3371 2.3220
ENERGY: 1125000 9.7066 17.0773 15.0555 0.0000 -21658.6079 2891.9644 0.0000 0.0000 3632.0977 -15092.7063 305.3637 -18724.8040 -15082.4874 298.7983 -307.1468 -212.9269 61750.2195 1.7296 1.3107
ENERGY: 1325000 4.8521 10.8427 17.9603 0.0000 -21756.8638 2981.9459 0.0000 0.0000 3601.8201 -15139.4426 302.8182 -18741.2627 -15135.5945 301.6033 502.5720 625.8360 60671.4488 -1.1194 -0.4581
TCL: Exiting due to exit command.
