Info: SIMULATION PARAMETERS:
Info: TIMESTEP               2
Info: NUMBER OF STEPS        0
Info: STEPS PER CYCLE        10
Info: PERIODIC CELL BASIS 1  32.3457 0 0
Info: PERIODIC CELL BASIS 2  0 30.2843 0
Info: PERIODIC CELL BASIS 3  0 0 31.5775
Info: PERIODIC CELL CENTER   0 0 0
Info: WRAPPING WATERS AROUND PERIODIC BOUNDARIES ON OUTPUT.
Info: WRAPPING ALL CLUSTERS AROUND PERIODIC BOUNDARIES ON OUTPUT.
Info: FIRST LDB TIMESTEP     50
Info: LAST LDB TIMESTEP     -1
Info: HOM BACKGROUND SCALING 1
Info: PME BACKGROUND SCALING 1
Info: MIN ATOMS PER PATCH    40
Info: EMPTY PATCH LOAD       40 ATOMS
Info: VELOCITY FILE          mobley_6804509_equil.vel
Info: CENTER OF MASS MOVING INITIALLY? NO
Info: DIELECTRIC             1
Info: EXCLUDE                SCALED ONE-FOUR
Info: 1-4 ELECTROSTATICS SCALED BY 0.833333
Info: MODIFIED 1-4 VDW PARAMETERS WILL BE USED
Info: DCD FILENAME           mobley_6804509_prod.dcd
Info: DCD FREQUENCY          100000
Info: DCD FIRST STEP         100000
Info: DCD FILE WILL CONTAIN UNIT CELL DATA
Info: XST FILENAME           mobley_6804509_prod.xst
Info: XST FREQUENCY          100000
Info: NO VELOCITY DCD OUTPUT
Info: NO FORCE DCD OUTPUT
Info: OUTPUT FILENAME        mobley_6804509_prod
Info: BINARY OUTPUT FILES WILL BE USED
Info: RESTART FILENAME       mobley_6804509_prod.restart
Info: RESTART FREQUENCY      100000
Info: BINARY RESTART FILES WILL BE USED
Info: CUTOFF                 9
Info: PAIRLIST DISTANCE      11
Info: PAIRLIST SHRINK RATE   0.01
Info: PAIRLIST GROW RATE     0.01
Info: PAIRLIST TRIGGER       0.3
Info: PAIRLISTS PER CYCLE    2
Info: PAIRLISTS ENABLED
Info: MARGIN                 2
Info: HYDROGEN GROUP CUTOFF  2.5
Info: PATCH DIMENSION        15.5
Info: ENERGY OUTPUT STEPS    100000
Info: ENERGY EVALUATION STEPS    100000
Info: OUTPUT ENERGY PRECISION 4
Info: CROSSTERM ENERGY INCLUDED IN DIHEDRAL
Info: TIMING OUTPUT STEPS    1000000
Info: PRESSURE OUTPUT STEPS  100000
Info: ALCHEMICAL FEP ON
Info: FEP CURRENT LAMBDA VALUE     0
Info: FEP COMPARISON LAMBDA VALUE  0.05
Info: FEP INTRA-ALCHEMICAL NON-BONDED INTERACTIONS WILL BE RETAINED
Info: FEP INTRA-ALCHEMICAL BONDED INTERACTIONS WILL BE RETAINED
Info: FEP VDW SHIFTING COEFFICIENT 5
Info: FEP ELEC. ACTIVE FOR ANNIHILATED PARTICLES BETWEEN LAMBDA = 0 AND LAMBDA = 0.5
Info: FEP ELEC. ACTIVE FOR EXNIHILATED PARTICLES BETWEEN LAMBDA = 0.5 AND LAMBDA = 1
Info: FEP VDW ACTIVE FOR ANNIHILATED PARTICLES BETWEEN LAMBDA = 0 AND LAMBDA = 1
Info: FEP VDW ACTIVE FOR EXNIHILATED PARTICLES BETWEEN LAMBDA = 0 AND LAMBDA = 1
Info: FEP BOND ACTIVE FOR ANNIHILATED PARTICLES BETWEEN LAMBDA = 1 AND LAMBDA = 1
Info: FEP BOND ACTIVE FOR EXNIHILATED PARTICLES BETWEEN LAMBDA = 0 AND LAMBDA = 0
Info: LANGEVIN DYNAMICS ACTIVE
Info: LANGEVIN TEMPERATURE   300
Info: LANGEVIN USING BBK INTEGRATOR
Info: LANGEVIN DAMPING COEFFICIENT IS 1 INVERSE PS
Info: LANGEVIN DYNAMICS APPLIED TO HYDROGENS
Info: LANGEVIN PISTON PRESSURE CONTROL ACTIVE
Info:        TARGET PRESSURE IS 1.01325 BAR
Info:     OSCILLATION PERIOD IS 50 FS
Info:             DECAY TIME IS 25 FS
Info:     PISTON TEMPERATURE IS 300 K
Info:       PRESSURE CONTROL IS GROUP-BASED
Info:    INITIAL STRAIN RATE IS -0.000122337 -0.000122337 -0.000122337
Info:       CELL FLUCTUATION IS ISOTROPIC
Info: PARTICLE MESH EWALD (PME) ACTIVE
Info: PME TOLERANCE               1e-06
Info: PME EWALD COEFFICIENT       0.348832
Info: PME INTERPOLATION ORDER     4
Info: PME GRID DIMENSIONS         36 32 32
Info: PME MAXIMUM GRID SPACING    1
Info: PME CALCULATION WILL BE PERFORMED ON GPU
Info: FULL ELECTROSTATIC EVALUATION FREQUENCY      2
Info: USING VERLET I (r-RESPA) MTS SCHEME.
Info: C1 SPLITTING OF LONG RANGE ELECTROSTATICS
Info: PLACING ATOMS IN PATCHES BY HYDROGEN GROUPS
Info: RIGID BONDS TO HYDROGEN : ALL
Info:         ERROR TOLERANCE : 1e-08
Info:          MAX ITERATIONS : 100
Info: RIGID WATER USING SETTLE ALGORITHM
Info: RANDOM NUMBER SEED     1742242432
Info: USE HYDROGEN BONDS?    NO
Info: Using AMBER format force field!
Info: AMBER PARM FILE        mobley_6804509.prmtop
Info: COORDINATE PDB         mobley_6804509.pdb
Info: Exclusions will be read from PARM file!
Info: SCNB (VDW SCALING)     2
Info: USING ARITHMETIC MEAN TO COMBINE L-J SIGMA PARAMETERS
Info: BINARY COORDINATES     mobley_6804509_equil.coor
Info: SUMMARY OF PARAMETERS:
Info: 5 BONDS
Info: 3 ANGLES
Info:   3 HARMONIC
Info:   0 COSINE-BASED
Info: 2 DIHEDRAL
Info: 0 IMPROPER
Info: 0 CROSSTERM
Info: 0 VDW
Info: 15 VDW_PAIRS
Info: 0 NBTHOLE_PAIRS
Info: To read alchdata from file: mobley_6804509.pdb
Info: To read alchflag data from column: 5
Info: STRUCTURE SUMMARY:
Info: 2967 ATOMS
Info: 2967 BONDS
Info: 18 ANGLES
Info: 30 DIHEDRALS
Info: 0 IMPROPERS
Info: 0 CROSSTERMS
Info: 3006 EXCLUSIONS
Info: 2957 RIGID BONDS
Info: ALCH: 0 ATOMS TO DISAPPEAR IN FINAL STATE
Info: ALCH: 12 ATOMS TO APPEAR IN FINAL STATE
Info: 5944 DEGREES OF FREEDOM
Info: 995 HYDROGEN GROUPS
Info: 3 ATOMS IN LARGEST HYDROGEN GROUP
Info: 995 MIGRATION GROUPS
Info: 3 ATOMS IN LARGEST MIGRATION GROUP
Info: TOTAL MASS = 17961.6 amu
Info: TOTAL CHARGE = -9.99942e-05 e
Info: MASS DENSITY = 0.964258 g/cm^3
Info: ATOM DENSITY = 0.0959192 atoms/A^3
Info: ADDED 0 IMPLICIT EXCLUSIONS
Info: NONBONDED TABLE R-SQUARED SPACING: 0.0625
Info: NONBONDED TABLE SIZE: 705 POINTS
Info: REMOVING COM VELOCITY -0.236439 -0.207462 0.0935737
Info: Use 3D box decompostion in PME FFT.
Info: Updated CUDA force table with 4096 elements.
Info: Updated CUDA LJ table with 5 x 5 elements.
Info: Found 14 unique exclusion lists needing 24 bytes
TCL: Running for 1500000 steps
ETITLE: TS BOND ANGLE DIHED IMPRP ELECT VDW BOUNDARY MISC KINETIC TOTAL TEMP POTENTIAL TOTALAVG TEMPAVG PRESSURE GPRESSURE VOLUME PRESSAVG GPRESSAVG
ENERGY: 0 2.4018 2.6680 4.1609 0.0000 -10719.8108 1427.8545 0.0000 0.0000 1787.3716 -7495.3541 302.6401 -9282.7257 -7495.3541 302.6401 -332.1690 -249.1366 30932.2873 -332.1690 -249.1366
ENERGY: 300000 5.0204 8.8361 2.1887 0.0000 -10892.8166 1408.6789 0.0000 0.0000 1793.4004 -7674.6921 303.6609 -9468.0925 -7570.3768 300.4881 -673.0136 -648.1592 30294.3109 -203.8861 -148.3310
ENERGY: 600000 5.4099 4.1901 1.6654 0.0000 -10814.3048 1455.8284 0.0000 0.0000 1781.9150 -7565.2960 301.7162 -9347.2110 -7552.2635 301.5542 23.7471 155.1353 30032.9218 -195.3615 -142.4551
ENERGY: 900000 5.5294 3.3234 1.8191 0.0000 -10809.9067 1494.6200 0.0000 0.0000 1782.3265 -7522.2883 301.7858 -9304.6148 -7540.3330 302.7823 395.5087 517.0368 30136.0027 -83.6916 -26.9557
ENERGY: 1200000 2.8586 2.9569 3.2590 0.0000 -10663.6209 1389.8208 0.0000 0.0000 1734.2840 -7530.4415 293.6512 -9264.7256 -7543.1030 301.4051 -364.8540 -350.6878 30420.0057 -32.3418 14.6411
ENERGY: 1500000 1.8269 2.0605 2.1070 0.0000 -10587.3190 1367.6403 0.0000 0.0000 1754.0226 -7459.6618 296.9934 -9213.6843 -7531.4210 301.7652 -579.9550 -571.7097 30878.9670 -45.1459 0.7128
TCL: Running FEP window   2: Lambda1 0.05   Lambda2 0.1    [dLambda 0.05  ]
TCL: Setting parameter firsttimestep to 0
TCL: Setting parameter alchLambda to 0.05
Info: NONBONDED TABLE R-SQUARED SPACING: 0.0625
Info: NONBONDED TABLE SIZE: 705 POINTS
TCL: Setting parameter alchLambda2 to 0.1
Info: NONBONDED TABLE R-SQUARED SPACING: 0.0625
Info: NONBONDED TABLE SIZE: 705 POINTS
TCL: Running for 1500000 steps
ETITLE: TS BOND ANGLE DIHED IMPRP ELECT VDW BOUNDARY MISC KINETIC TOTAL TEMP POTENTIAL TOTALAVG TEMPAVG PRESSURE GPRESSURE VOLUME PRESSAVG GPRESSAVG
ENERGY: 0 1.8269 2.0605 2.1070 0.0000 -10587.3186 1370.1593 0.0000 0.0000 1753.1457 -7458.0193 296.8449 -9211.1650 -7458.0193 296.8449 -630.6921 -560.3554 30878.9670 -630.6921 -560.3554
ENERGY: 300000 2.5601 2.2608 3.3880 0.0000 -10795.7909 1482.4206 0.0000 0.0000 1753.7161 -7551.4453 296.9415 -9305.1614 -7500.3313 301.3618 333.9744 415.7356 30195.6871 51.6690 141.2097
ENERGY: 600000 2.7956 2.0367 0.9683 0.0000 -10721.8483 1437.8903 0.0000 0.0000 1821.4349 -7456.7224 308.4077 -9278.1573 -7506.2859 301.4333 50.8325 147.3251 30355.6234 119.6624 194.5591
ENERGY: 900000 1.3794 6.7575 3.5210 0.0000 -10756.0692 1438.9329 0.0000 0.0000 1801.0745 -7504.4039 304.9603 -9305.4784 -7503.4718 300.9574 -163.5896 -45.8739 30578.7500 176.4035 254.0964
ENERGY: 1200000 3.2602 2.9517 3.1185 0.0000 -10934.7451 1526.3982 0.0000 0.0000 1758.8997 -7640.1168 297.8192 -9399.0165 -7517.8130 300.0786 81.7593 199.3072 30552.5044 81.3573 162.9089
ENERGY: 1500000 1.9594 1.7697 1.2669 0.0000 -10669.3032 1357.0071 0.0000 0.0000 1717.2765 -7590.0235 290.7715 -9307.3000 -7520.5108 299.8510 -978.1691 -772.9364 30589.4081 52.2605 141.6138
TCL: Running FEP window   3: Lambda1 0.1    Lambda2 0.15000000000000002 [dLambda 0.05000000000000002]
TCL: Setting parameter firsttimestep to 0
TCL: Setting parameter alchLambda to 0.1
Info: NONBONDED TABLE R-SQUARED SPACING: 0.0625
Info: NONBONDED TABLE SIZE: 705 POINTS
TCL: Setting parameter alchLambda2 to 0.15000000000000002
Info: NONBONDED TABLE R-SQUARED SPACING: 0.0625
Info: NONBONDED TABLE SIZE: 705 POINTS
TCL: Running for 1500000 steps
ETITLE: TS BOND ANGLE DIHED IMPRP ELECT VDW BOUNDARY MISC KINETIC TOTAL TEMP POTENTIAL TOTALAVG TEMPAVG PRESSURE GPRESSURE VOLUME PRESSAVG GPRESSAVG
ENERGY: 0 1.9594 1.7697 1.2668 0.0000 -10669.3027 1364.6652 0.0000 0.0000 1716.3934 -7583.2481 290.6220 -9299.6415 -7583.2481 290.6220 -858.4199 -754.7042 30589.4081 -858.4199 -754.7042
ENERGY: 300000 3.7913 2.1828 2.6747 0.0000 -10813.2823 1469.5528 0.0000 0.0000 1776.5549 -7558.5259 300.8086 -9335.0808 -7548.7177 297.6101 114.5142 222.0711 30205.1895 -113.6139 -44.6894
ENERGY: 600000 2.4024 1.7493 2.6724 0.0000 -10760.7168 1443.4820 0.0000 0.0000 1744.9495 -7565.4612 295.4571 -9310.4107 -7554.4044 298.3330 -65.0562 6.7567 30079.7103 -89.2343 -9.8456
ENERGY: 900000 0.9316 3.5982 1.1413 0.0000 -10796.8767 1449.1687 0.0000 0.0000 1824.1904 -7517.8466 308.8743 -9342.0370 -7528.6145 301.2349 37.2037 65.8736 30317.3254 17.0240 89.9429
ENERGY: 1200000 2.2654 2.4797 3.6967 0.0000 -10757.8246 1451.2377 0.0000 0.0000 1792.6771 -7505.4681 303.5384 -9298.1452 -7523.8605 300.9852 -20.7459 53.7936 30438.2555 42.7810 113.9373
ENERGY: 1500000 1.7288 1.5106 5.1643 0.0000 -10673.1927 1367.9819 0.0000 0.0000 1758.3970 -7538.4102 297.7341 -9296.8072 -7531.0250 300.1343 -707.4321 -625.8098 30833.6260 0.3075 70.8050
TCL: Running FEP window   4: Lambda1 0.15000000000000002 Lambda2 0.2    [dLambda 0.04999999999999999]
TCL: Setting parameter firsttimestep to 0
TCL: Setting parameter alchLambda to 0.15000000000000002
Info: NONBONDED TABLE R-SQUARED SPACING: 0.0625
Info: NONBONDED TABLE SIZE: 705 POINTS
TCL: Setting parameter alchLambda2 to 0.2
Info: NONBONDED TABLE R-SQUARED SPACING: 0.0625
Info: NONBONDED TABLE SIZE: 705 POINTS
TCL: Running for 1500000 steps
ETITLE: TS BOND ANGLE DIHED IMPRP ELECT VDW BOUNDARY MISC KINETIC TOTAL TEMP POTENTIAL TOTALAVG TEMPAVG PRESSURE GPRESSURE VOLUME PRESSAVG GPRESSAVG
ENERGY: 0 1.7288 1.5106 5.1643 0.0000 -10673.1920 1368.0941 0.0000 0.0000 1757.5300 -7539.1641 297.5873 -9296.6942 -7539.1641 297.5873 -697.3470 -620.7002 30833.6260 -697.3470 -620.7002
ENERGY: 300000 3.2904 1.2687 1.7081 0.0000 -10754.1610 1409.8088 0.0000 0.0000 1724.1604 -7613.9247 291.9371 -9338.0852 -7522.1328 298.9009 -759.1173 -626.9654 30652.9125 -368.3578 -285.7047
ENERGY: 600000 1.0495 1.5372 2.5060 0.0000 -10940.0208 1515.6544 0.0000 0.0000 1757.4919 -7661.7817 297.5808 -9419.2737 -7532.7229 298.0959 307.5692 359.2365 30146.1876 -217.3676 -123.7913
ENERGY: 900000 8.2696 2.8455 4.6903 0.0000 -10792.4029 1464.8866 0.0000 0.0000 1774.8199 -7536.8909 300.5148 -9311.7108 -7547.4310 298.5446 -91.7390 9.3336 30615.9978 -225.8117 -140.6545
ENERGY: 1200000 3.0114 4.1959 1.5615 0.0000 -10716.8090 1448.4553 0.0000 0.0000 1778.1580 -7481.4269 301.0800 -9259.5849 -7531.2526 297.9859 61.9792 143.9456 30672.8053 -270.8756 -194.0233
ENERGY: 1500000 1.4873 6.7204 2.6200 0.0000 -10675.0579 1419.3251 0.0000 0.0000 1774.9646 -7469.9405 300.5393 -9244.9051 -7521.2538 298.4268 -97.3088 -41.2322 30438.6053 -257.0160 -185.0397
TCL: Running FEP window   5: Lambda1 0.2    Lambda2 0.25   [dLambda 0.04999999999999999]
TCL: Setting parameter firsttimestep to 0
TCL: Setting parameter alchLambda to 0.2
Info: NONBONDED TABLE R-SQUARED SPACING: 0.0625
Info: NONBONDED TABLE SIZE: 705 POINTS
TCL: Setting parameter alchLambda2 to 0.25
Info: NONBONDED TABLE R-SQUARED SPACING: 0.0625
Info: NONBONDED TABLE SIZE: 705 POINTS
TCL: Running for 1500000 steps
ETITLE: TS BOND ANGLE DIHED IMPRP ELECT VDW BOUNDARY MISC KINETIC TOTAL TEMP POTENTIAL TOTALAVG TEMPAVG PRESSURE GPRESSURE VOLUME PRESSAVG GPRESSAVG
ENERGY: 0 1.4873 6.7204 2.6200 0.0000 -10675.0581 1420.1233 0.0000 0.0000 1774.0677 -7470.0394 300.3874 -9244.1070 -7470.0394 300.3874 -117.1855 -30.1833 30438.6053 -117.1855 -30.1833
ENERGY: 300000 1.7353 3.9334 0.6592 0.0000 -10602.1586 1307.4053 0.0000 0.0000 1715.2848 -7573.1406 290.4342 -9288.4254 -7523.2996 295.5301 -1045.6770 -932.8132 30422.1591 -116.2791 -62.4672
ENERGY: 600000 5.7103 3.2626 1.2115 0.0000 -10644.4639 1448.3745 0.0000 0.0000 1763.3200 -7422.5850 298.5676 -9185.9050 -7503.5632 297.9074 117.5326 190.4682 30904.0800 85.4096 148.0425
ENERGY: 900000 4.0599 4.2474 1.4449 0.0000 -10709.5434 1433.0573 0.0000 0.0000 1765.1529 -7501.5810 298.8780 -9266.7340 -7501.9421 297.6983 -115.9836 -77.6269 30598.6705 242.7605 305.7587
ENERGY: 1200000 2.4910 1.8078 3.7390 0.0000 -10623.3225 1363.3553 0.0000 0.0000 1775.2518 -7476.6776 300.5879 -9251.9293 -7497.2099 298.3779 -468.0773 -416.3534 30448.1361 149.4529 213.2090
ENERGY: 1500000 2.1577 2.1827 2.2285 0.0000 -10734.9226 1468.0861 0.0000 0.0000 1787.5777 -7472.6900 302.6750 -9260.2677 -7497.6031 298.3063 293.9827 324.2164 30675.4087 70.7330 135.9759
TCL: Running FEP window   6: Lambda1 0.25   Lambda2 0.3    [dLambda 0.04999999999999999]
TCL: Setting parameter firsttimestep to 0
TCL: Setting parameter alchLambda to 0.25
Info: NONBONDED TABLE R-SQUARED SPACING: 0.0625
Info: NONBONDED TABLE SIZE: 705 POINTS
TCL: Setting parameter alchLambda2 to 0.3
Info: NONBONDED TABLE R-SQUARED SPACING: 0.0625
Info: NONBONDED TABLE SIZE: 705 POINTS
TCL: Running for 1500000 steps
ETITLE: TS BOND ANGLE DIHED IMPRP ELECT VDW BOUNDARY MISC KINETIC TOTAL TEMP POTENTIAL TOTALAVG TEMPAVG PRESSURE GPRESSURE VOLUME PRESSAVG GPRESSAVG
ENERGY: 0 2.1577 2.1827 2.2285 0.0000 -10734.9224 1471.9847 0.0000 0.0000 1786.6652 -7469.7036 302.5205 -9256.3688 -7469.7036 302.5205 268.4665 348.0511 30675.4087 268.4665 348.0511
ENERGY: 300000 4.4049 1.9979 2.4712 0.0000 -10648.5180 1356.8976 0.0000 0.0000 1754.5726 -7528.1738 297.0865 -9282.7464 -7496.9373 299.0971 -842.9180 -776.1548 30669.4635 -345.2626 -265.0146
ENERGY: 600000 1.7896 5.4104 0.3715 0.0000 -10872.0389 1539.1983 0.0000 0.0000 1761.2510 -7564.0181 298.2173 -9325.2691 -7534.0433 299.4090 662.8538 701.3690 30439.2114 -77.8849 -0.2544
ENERGY: 900000 3.8838 1.2133 2.7101 0.0000 -10758.9736 1487.4495 0.0000 0.0000 1770.8945 -7492.8224 299.8502 -9263.7169 -7521.8968 300.5082 293.4290 288.9812 30693.8112 -42.4732 29.4518
ENERGY: 1200000 1.2490 0.8870 2.2972 0.0000 -10748.9785 1440.2633 0.0000 0.0000 1844.3778 -7459.9041 312.2924 -9304.2819 -7524.4229 301.2538 211.5245 317.8174 30067.5219 -22.6539 55.9803
ENERGY: 1500000 3.5847 2.6902 3.0793 0.0000 -10787.0028 1469.1619 0.0000 0.0000 1801.7111 -7506.7755 305.0681 -9308.4866 -7526.2425 301.6258 36.2840 213.6988 30407.2669 26.1583 110.5638
TCL: Running FEP window   7: Lambda1 0.3    Lambda2 0.35   [dLambda 0.04999999999999999]
TCL: Setting parameter firsttimestep to 0
TCL: Setting parameter alchLambda to 0.3
Info: NONBONDED TABLE R-SQUARED SPACING: 0.0625
Info: NONBONDED TABLE SIZE: 705 POINTS
TCL: Setting parameter alchLambda2 to 0.35
Info: NONBONDED TABLE R-SQUARED SPACING: 0.0625
Info: NONBONDED TABLE SIZE: 705 POINTS
TCL: Running for 1500000 steps
ETITLE: TS BOND ANGLE DIHED IMPRP ELECT VDW BOUNDARY MISC KINETIC TOTAL TEMP POTENTIAL TOTALAVG TEMPAVG PRESSURE GPRESSURE VOLUME PRESSAVG GPRESSAVG
ENERGY: 0 3.5847 2.6902 3.0793 0.0000 -10787.0024 1469.0844 0.0000 0.0000 1800.8437 -7507.7201 304.9212 -9308.5638 -7507.7201 304.9212 111.7197 216.9873 30407.2669 111.7197 216.9873
ENERGY: 300000 4.1552 1.6357 3.5131 0.0000 -10760.4536 1445.8206 0.0000 0.0000 1712.2595 -7593.0694 289.9220 -9305.3289 -7551.8408 300.0192 -117.2388 -60.9554 30475.1405 242.7913 314.8648
ENERGY: 600000 2.2445 5.1984 2.8005 0.0000 -10790.4015 1419.4891 0.0000 0.0000 1764.0483 -7596.6208 298.6909 -9360.6691 -7558.5663 300.1682 -552.9158 -467.8682 30676.3610 -9.3550 66.5084
ENERGY: 900000 3.7901 2.7896 2.5000 0.0000 -10847.0561 1503.7667 0.0000 0.0000 1754.4938 -7579.7159 297.0732 -9334.2097 -7554.4557 300.6132 128.5222 206.2214 30338.7684 -5.5449 66.5091
ENERGY: 1200000 3.9765 2.5646 10.9825 0.0000 -10517.1709 1317.0644 0.0000 0.0000 1837.1801 -7345.4030 311.0737 -9182.5830 -7522.7581 302.9140 -751.1463 -688.1737 30752.3488 -31.9941 38.4811
ENERGY: 1500000 4.1897 1.5557 3.3202 0.0000 -10920.4552 1513.4485 0.0000 0.0000 1773.9861 -7623.9549 300.3736 -9397.9411 -7530.0416 302.9066 41.7116 93.5884 30632.7247 -5.8700 60.4577
TCL: Running FEP window   8: Lambda1 0.35   Lambda2 0.39999999999999997 [dLambda 0.04999999999999999]
TCL: Setting parameter firsttimestep to 0
TCL: Setting parameter alchLambda to 0.35
Info: NONBONDED TABLE R-SQUARED SPACING: 0.0625
Info: NONBONDED TABLE SIZE: 705 POINTS
TCL: Setting parameter alchLambda2 to 0.39999999999999997
Info: NONBONDED TABLE R-SQUARED SPACING: 0.0625
Info: NONBONDED TABLE SIZE: 705 POINTS
TCL: Running for 1500000 steps
ETITLE: TS BOND ANGLE DIHED IMPRP ELECT VDW BOUNDARY MISC KINETIC TOTAL TEMP POTENTIAL TOTALAVG TEMPAVG PRESSURE GPRESSURE VOLUME PRESSAVG GPRESSAVG
ENERGY: 0 4.1897 1.5557 3.3202 0.0000 -10920.4541 1513.4526 0.0000 0.0000 1773.0751 -7624.8608 300.2194 -9397.9359 -7624.8608 300.2194 23.0190 98.8020 30632.7247 23.0190 98.8020
ENERGY: 300000 1.6019 4.3727 4.2023 0.0000 -10599.6578 1342.2324 0.0000 0.0000 1782.4043 -7464.8442 301.7990 -9247.2485 -7543.1929 300.6385 -695.0715 -558.8871 30807.1286 -120.0299 -40.4296
ENERGY: 600000 3.2058 3.6897 3.3152 0.0000 -10846.2416 1476.7539 0.0000 0.0000 1742.2834 -7616.9936 295.0057 -9359.2769 -7547.9803 299.8109 207.9441 278.2243 30321.7387 -69.0189 5.5364
ENERGY: 900000 5.3693 0.6841 1.4438 0.0000 -10914.7147 1514.1183 0.0000 0.0000 1775.6629 -7617.4362 300.6575 -9393.0991 -7558.4703 298.5162 281.4549 302.1809 30173.3884 -20.6986 42.5976
ENERGY: 1200000 0.9118 2.8532 1.9964 0.0000 -10701.9118 1437.3935 0.0000 0.0000 1746.6939 -7512.0630 295.7525 -9258.7568 -7546.0100 298.4639 129.8340 125.3098 30661.2675 6.4494 68.0327
ENERGY: 1500000 6.5209 4.2741 1.6522 0.0000 -10755.1659 1392.4075 0.0000 0.0000 1765.5752 -7584.7360 298.9495 -9350.3112 -7542.7874 298.7159 -609.4704 -558.1692 30521.2120 -75.0593 -17.7970
TCL: Running FEP window   9: Lambda1 0.39999999999999997 Lambda2 0.44999999999999996 [dLambda 0.04999999999999999]
TCL: Setting parameter firsttimestep to 0
TCL: Setting parameter alchLambda to 0.39999999999999997
Info: NONBONDED TABLE R-SQUARED SPACING: 0.0625
Info: NONBONDED TABLE SIZE: 705 POINTS
TCL: Setting parameter alchLambda2 to 0.44999999999999996
Info: NONBONDED TABLE R-SQUARED SPACING: 0.0625
Info: NONBONDED TABLE SIZE: 705 POINTS
TCL: Running for 1500000 steps
ETITLE: TS BOND ANGLE DIHED IMPRP ELECT VDW BOUNDARY MISC KINETIC TOTAL TEMP POTENTIAL TOTALAVG TEMPAVG PRESSURE GPRESSURE VOLUME PRESSAVG GPRESSAVG
ENERGY: 0 6.5209 4.2741 1.6522 0.0000 -10755.1655 1392.1624 0.0000 0.0000 1764.7255 -7585.8304 298.8056 -9350.5560 -7585.8304 298.8056 -634.1060 -552.7968 30521.2120 -634.1060 -552.7968
ENERGY: 300000 3.8295 1.0985 2.9093 0.0000 -10817.7086 1497.8180 0.0000 0.0000 1804.0703 -7507.9829 305.4675 -9312.0532 -7531.7135 299.6137 653.7878 712.6331 29959.5624 -116.4690 -43.8004
ENERGY: 600000 7.3808 3.3823 6.4363 0.0000 -10728.4383 1472.1314 0.0000 0.0000 1762.8549 -7476.2526 298.4889 -9239.1075 -7531.9266 299.7907 104.5138 167.7745 30750.4865 -67.8887 -4.9257
ENERGY: 900000 4.4270 3.8869 1.6902 0.0000 -10706.3222 1455.2586 0.0000 0.0000 1811.3040 -7429.7555 306.6923 -9241.0595 -7534.6907 299.5911 302.5369 360.6312 30418.0663 -90.6807 -28.1588
ENERGY: 1200000 1.5037 2.6942 3.4103 0.0000 -10631.2729 1351.6600 0.0000 0.0000 1786.7745 -7485.2302 302.5390 -9272.0047 -7529.5696 299.6018 -745.1018 -670.2860 30900.0617 -245.1042 -176.5101
ENERGY: 1500000 3.7424 1.3901 1.8646 0.0000 -10946.0352 1591.7446 0.0000 0.0000 1748.5844 -7598.7092 296.0726 -9347.2936 -7531.9651 300.3780 1073.1057 1126.9492 30179.9384 -69.6327 -2.3134
TCL: Running FEP window  10: Lambda1 0.44999999999999996 Lambda2 0.49999999999999994 [dLambda 0.04999999999999999]
TCL: Setting parameter firsttimestep to 0
TCL: Setting parameter alchLambda to 0.44999999999999996
Info: NONBONDED TABLE R-SQUARED SPACING: 0.0625
Info: NONBONDED TABLE SIZE: 705 POINTS
TCL: Setting parameter alchLambda2 to 0.49999999999999994
Info: NONBONDED TABLE R-SQUARED SPACING: 0.0625
Info: NONBONDED TABLE SIZE: 705 POINTS
TCL: Running for 1500000 steps
ETITLE: TS BOND ANGLE DIHED IMPRP ELECT VDW BOUNDARY MISC KINETIC TOTAL TEMP POTENTIAL TOTALAVG TEMPAVG PRESSURE GPRESSURE VOLUME PRESSAVG GPRESSAVG
ENERGY: 0 3.7424 1.3901 1.8646 0.0000 -10946.0371 1591.3617 0.0000 0.0000 1747.6859 -7599.9924 295.9204 -9347.6783 -7599.9924 295.9204 1063.3541 1130.2674 30179.9384 1063.3541 1130.2674
ENERGY: 300000 2.7996 4.7231 2.5570 0.0000 -10638.6245 1407.3818 0.0000 0.0000 1754.5583 -7466.6048 297.0841 -9221.1631 -7558.7601 297.3927 47.5316 52.6162 30227.2155 325.1412 357.9282
ENERGY: 600000 4.2386 2.0365 2.4577 0.0000 -10626.0459 1349.2472 0.0000 0.0000 1713.2316 -7554.8344 290.0866 -9268.0660 -7540.9214 300.2638 -742.7462 -672.1467 30475.1219 51.2752 100.8021
ENERGY: 900000 2.4019 3.2443 3.1643 0.0000 -10667.0900 1393.1806 0.0000 0.0000 1719.6701 -7545.4289 291.1768 -9265.0990 -7550.1459 298.2556 -204.6158 -104.0687 30270.0125 -52.5268 9.2142
ENERGY: 1200000 4.2386 4.3329 2.2492 0.0000 -10669.9207 1393.7822 0.0000 0.0000 1821.5941 -7443.7237 308.4347 -9265.3178 -7544.1743 298.8526 -341.7118 -245.9345 30666.5390 -7.4063 59.0959
ENERGY: 1500000 3.4921 3.3276 1.8417 0.0000 -10862.6129 1507.8648 0.0000 0.0000 1807.0670 -7539.0197 305.9749 -9346.0868 -7544.2566 299.1453 362.2435 457.4583 30080.2700 94.0912 155.8172
TCL: Running FEP window  11: Lambda1 0.49999999999999994 Lambda2 0.5499999999999999 [dLambda 0.04999999999999999]
TCL: Setting parameter firsttimestep to 0
TCL: Setting parameter alchLambda to 0.49999999999999994
Info: NONBONDED TABLE R-SQUARED SPACING: 0.0625
Info: NONBONDED TABLE SIZE: 705 POINTS
TCL: Setting parameter alchLambda2 to 0.5499999999999999
Info: NONBONDED TABLE R-SQUARED SPACING: 0.0625
Info: NONBONDED TABLE SIZE: 705 POINTS
TCL: Running for 1500000 steps
ETITLE: TS BOND ANGLE DIHED IMPRP ELECT VDW BOUNDARY MISC KINETIC TOTAL TEMP POTENTIAL TOTALAVG TEMPAVG PRESSURE GPRESSURE VOLUME PRESSAVG GPRESSAVG
ENERGY: 0 3.4921 3.3276 1.8417 0.0000 -10862.6110 1507.3040 0.0000 0.0000 1806.1488 -7540.4968 305.8195 -9346.6456 -7540.4968 305.8195 376.9874 459.9608 30080.2700 376.9874 459.9608
ENERGY: 300000 1.0429 3.8043 4.1706 0.0000 -10686.6949 1404.0141 0.0000 0.0000 1716.6909 -7556.9722 290.6723 -9273.6630 -7503.7085 300.9320 -454.3914 -414.4462 31068.4969 -200.2214 -113.0638
ENERGY: 600000 1.0450 7.1474 2.3896 0.0000 -10780.7034 1372.7861 0.0000 0.0000 1757.1604 -7640.1750 297.5247 -9397.3354 -7541.3031 300.7605 -846.2800 -790.8768 30318.4385 -288.6002 -213.1977
ENERGY: 900000 1.2195 2.0191 6.2431 0.0000 -10792.6248 1492.5412 0.0000 0.0000 1713.1630 -7577.4390 290.0750 -9290.6020 -7544.7477 299.7236 175.6892 174.4885 30857.5406 -123.8688 -49.5404
ENERGY: 1200000 3.7058 1.3681 2.7069 0.0000 -10736.3945 1445.9553 0.0000 0.0000 1770.2408 -7512.4176 299.7395 -9282.6584 -7539.7208 300.8152 107.7467 110.8439 30221.3200 -116.6790 -54.3540
ENERGY: 1500000 1.6497 2.6829 1.6232 0.0000 -10664.2237 1429.1776 0.0000 0.0000 1741.6987 -7487.3917 294.9067 -9229.0903 -7531.5620 300.5959 -121.8108 -56.8426 30765.9568 -73.8035 -8.0514
TCL: Running FEP window  12: Lambda1 0.5499999999999999 Lambda2 0.6    [dLambda 0.050000000000000044]
TCL: Setting parameter firsttimestep to 0
TCL: Setting parameter alchLambda to 0.5499999999999999
Info: NONBONDED TABLE R-SQUARED SPACING: 0.0625
Info: NONBONDED TABLE SIZE: 705 POINTS
TCL: Setting parameter alchLambda2 to 0.6
Info: NONBONDED TABLE R-SQUARED SPACING: 0.0625
Info: NONBONDED TABLE SIZE: 705 POINTS
TCL: Running for 1500000 steps
ETITLE: TS BOND ANGLE DIHED IMPRP ELECT VDW BOUNDARY MISC KINETIC TOTAL TEMP POTENTIAL TOTALAVG TEMPAVG PRESSURE GPRESSURE VOLUME PRESSAVG GPRESSAVG
ENERGY: 0 1.6497 2.6829 1.6232 0.0000 -10664.1796 1430.5617 0.0000 0.0000 1740.7840 -7486.8782 294.7518 -9227.6622 -7486.8782 294.7518 -122.1940 -35.7825 30765.9568 -122.1940 -35.7825
ENERGY: 300000 1.1349 3.3021 2.2423 0.0000 -10669.9168 1397.0378 0.0000 0.0000 1785.0845 -7481.1152 302.2528 -9266.1997 -7519.0755 300.1407 -164.5961 -129.3924 30661.0709 -130.7365 -87.7219
ENERGY: 600000 2.8763 2.7793 0.4588 0.0000 -10771.4006 1421.6603 0.0000 0.0000 1816.3535 -7527.2724 307.5473 -9343.6258 -7522.8508 299.9678 -153.6818 -162.8226 30512.0267 -192.2510 -144.1338
ENERGY: 900000 4.0873 4.0993 3.0212 0.0000 -10701.0997 1417.3281 0.0000 0.0000 1739.6260 -7532.9377 294.5557 -9272.5637 -7521.2846 298.5286 -140.2800 -131.7423 30658.1766 -152.3698 -100.3293
ENERGY: 1200000 2.0075 6.1465 2.2573 0.0000 -10803.1138 1507.2563 0.0000 0.0000 1774.6881 -7510.7582 300.4925 -9285.4463 -7525.2464 298.3494 427.6501 547.4781 30393.1828 -125.8850 -58.9730
ENERGY: 1500000 1.9069 1.9332 2.0560 0.0000 -10920.3289 1503.8854 0.0000 0.0000 1796.6690 -7613.8783 304.2143 -9410.5472 -7522.2075 299.4020 257.2612 281.0196 30495.0535 -77.9117 -22.6317
TCL: Running FEP window  13: Lambda1 0.6    Lambda2 0.65   [dLambda 0.050000000000000044]
TCL: Setting parameter firsttimestep to 0
TCL: Setting parameter alchLambda to 0.6
Info: NONBONDED TABLE R-SQUARED SPACING: 0.0625
Info: NONBONDED TABLE SIZE: 705 POINTS
TCL: Setting parameter alchLambda2 to 0.65
Info: NONBONDED TABLE R-SQUARED SPACING: 0.0625
Info: NONBONDED TABLE SIZE: 705 POINTS
TCL: Running for 1500000 steps
ETITLE: TS BOND ANGLE DIHED IMPRP ELECT VDW BOUNDARY MISC KINETIC TOTAL TEMP POTENTIAL TOTALAVG TEMPAVG PRESSURE GPRESSURE VOLUME PRESSAVG GPRESSAVG
ENERGY: 0 1.9069 1.9332 2.0560 0.0000 -10920.0142 1503.1097 0.0000 0.0000 1795.8061 -7615.2023 304.0682 -9411.0084 -7615.2023 304.0682 202.6822 279.4654 30495.0535 202.6822 279.4654
ENERGY: 300000 3.3254 2.1209 1.6652 0.0000 -10832.1887 1499.3745 0.0000 0.0000 1732.7569 -7592.9458 293.3926 -9325.7027 -7594.8665 295.7873 343.0508 378.0561 30746.0723 -163.5552 -103.4497
ENERGY: 600000 0.9804 2.1338 2.5584 0.0000 -10741.6860 1435.8566 0.0000 0.0000 1779.7681 -7520.3886 301.3526 -9300.1566 -7568.9653 297.2294 37.7033 74.6613 30521.8547 -94.5989 -46.1666
ENERGY: 900000 2.5306 3.9205 3.4454 0.0000 -10782.4821 1444.8346 0.0000 0.0000 1785.4823 -7542.2686 302.3202 -9327.7509 -7562.0180 298.3536 -169.7463 -126.9421 30593.9287 -57.0248 -1.7815
ENERGY: 1200000 3.2644 2.1169 3.5298 0.0000 -10757.0773 1513.1380 0.0000 0.0000 1793.8129 -7441.2155 303.7307 -9235.0283 -7552.0662 299.9740 431.8573 509.3163 30959.7754 14.3640 73.1547
ENERGY: 1500000 2.3024 2.1500 2.3329 0.0000 -10803.7137 1478.9416 0.0000 0.0000 1752.0724 -7565.9144 296.6632 -9317.9867 -7544.3067 300.3827 118.1550 223.1229 30879.2096 -3.9810 55.1898
TCL: Running FEP window  14: Lambda1 0.65   Lambda2 0.7000000000000001 [dLambda 0.050000000000000044]
TCL: Setting parameter firsttimestep to 0
TCL: Setting parameter alchLambda to 0.65
Info: NONBONDED TABLE R-SQUARED SPACING: 0.0625
Info: NONBONDED TABLE SIZE: 705 POINTS
TCL: Setting parameter alchLambda2 to 0.7000000000000001
Info: NONBONDED TABLE R-SQUARED SPACING: 0.0625
Info: NONBONDED TABLE SIZE: 705 POINTS
TCL: Running for 1500000 steps
ETITLE: TS BOND ANGLE DIHED IMPRP ELECT VDW BOUNDARY MISC KINETIC TOTAL TEMP POTENTIAL TOTALAVG TEMPAVG PRESSURE GPRESSURE VOLUME PRESSAVG GPRESSAVG
ENERGY: 0 2.3024 2.1500 2.3329 0.0000 -10803.4644 1479.1473 0.0000 0.0000 1751.2326 -7566.2992 296.5210 -9317.5318 -7566.2992 296.5210 154.2802 236.1248 30879.2096 154.2802 236.1248
ENERGY: 300000 1.5573 2.7107 2.5741 0.0000 -10666.0654 1360.4800 0.0000 0.0000 1787.5228 -7511.2205 302.6657 -9298.7433 -7567.4284 298.0364 -587.7486 -526.7331 30547.2920 -199.4491 -96.8625
ENERGY: 600000 2.3758 2.1746 4.5192 0.0000 -10728.8576 1383.4600 0.0000 0.0000 1768.7691 -7567.5589 299.4903 -9336.3280 -7545.1102 299.8338 -360.8160 -227.7413 30164.4074 -185.0061 -101.2122
ENERGY: 900000 5.3945 4.4880 1.4141 0.0000 -10652.5948 1370.4253 0.0000 0.0000 1778.9998 -7491.8731 301.2225 -9270.8729 -7532.7102 299.3855 -609.2947 -534.6126 30975.4475 -137.7694 -59.3673
ENERGY: 1200000 6.8861 1.9332 2.4206 0.0000 -10821.9627 1526.8684 0.0000 0.0000 1804.9444 -7478.9100 305.6155 -9283.8544 -7515.5504 300.6874 536.0115 616.0719 30825.5949 -37.0797 42.0703
ENERGY: 1500000 3.8886 1.3060 1.9334 0.0000 -10610.8545 1353.6140 0.0000 0.0000 1797.4764 -7452.6363 304.3510 -9250.1126 -7514.8829 300.1575 -575.9690 -519.7763 30458.1649 -50.5233 25.8741
TCL: Running FEP window  15: Lambda1 0.7000000000000001 Lambda2 0.7500000000000001 [dLambda 0.050000000000000044]
TCL: Setting parameter firsttimestep to 0
TCL: Setting parameter alchLambda to 0.7000000000000001
Info: NONBONDED TABLE R-SQUARED SPACING: 0.0625
Info: NONBONDED TABLE SIZE: 705 POINTS
TCL: Setting parameter alchLambda2 to 0.7500000000000001
Info: NONBONDED TABLE R-SQUARED SPACING: 0.0625
Info: NONBONDED TABLE SIZE: 705 POINTS
TCL: Running for 1500000 steps
ETITLE: TS BOND ANGLE DIHED IMPRP ELECT VDW BOUNDARY MISC KINETIC TOTAL TEMP POTENTIAL TOTALAVG TEMPAVG PRESSURE GPRESSURE VOLUME PRESSAVG GPRESSAVG
ENERGY: 0 3.8886 1.3060 1.9334 0.0000 -10610.8716 1353.0990 0.0000 0.0000 1796.6110 -7454.0336 304.2045 -9250.6446 -7454.0336 304.2045 -597.0820 -516.6402 30458.1649 -597.0820 -516.6402
ENERGY: 300000 0.8604 4.3350 2.0295 0.0000 -10817.4512 1436.1671 0.0000 0.0000 1732.7374 -7641.3218 293.3893 -9374.0592 -7559.8133 299.2315 -393.1351 -354.5139 30879.3774 -282.5815 -197.9614
ENERGY: 600000 6.6360 2.3720 1.9971 0.0000 -10685.4469 1399.8090 0.0000 0.0000 1728.9572 -7545.6756 292.7493 -9274.6328 -7536.3844 299.1091 -410.4641 -340.2366 30824.1945 -261.4420 -193.0714
ENERGY: 900000 4.4769 3.4709 2.8846 0.0000 -10947.0860 1487.9815 0.0000 0.0000 1812.2675 -7636.0046 306.8555 -9448.2722 -7540.5896 300.5545 -57.1313 -34.2238 30487.0425 -199.4847 -130.0202
ENERGY: 1200000 5.0633 3.9046 1.9019 0.0000 -10889.3943 1583.1064 0.0000 0.0000 1767.3106 -7528.1075 299.2433 -9295.4181 -7535.7787 300.7236 681.8253 778.0704 31160.9718 -98.0776 -28.0401
ENERGY: 1500000 4.9516 6.7697 2.0601 0.0000 -10720.5019 1412.5455 0.0000 0.0000 1750.9806 -7543.1944 296.4783 -9294.1750 -7531.7337 300.2496 -272.9171 -195.6872 30698.0059 -147.3524 -70.6272
TCL: Running FEP window  16: Lambda1 0.7500000000000001 Lambda2 0.8000000000000002 [dLambda 0.050000000000000044]
TCL: Setting parameter firsttimestep to 0
TCL: Setting parameter alchLambda to 0.7500000000000001
Info: NONBONDED TABLE R-SQUARED SPACING: 0.0625
Info: NONBONDED TABLE SIZE: 705 POINTS
TCL: Setting parameter alchLambda2 to 0.8000000000000002
Info: NONBONDED TABLE R-SQUARED SPACING: 0.0625
Info: NONBONDED TABLE SIZE: 705 POINTS
TCL: Running for 1500000 steps
ETITLE: TS BOND ANGLE DIHED IMPRP ELECT VDW BOUNDARY MISC KINETIC TOTAL TEMP POTENTIAL TOTALAVG TEMPAVG PRESSURE GPRESSURE VOLUME PRESSAVG GPRESSAVG
ENERGY: 0 4.9516 6.7697 2.0601 0.0000 -10720.7093 1411.9875 0.0000 0.0000 1750.1246 -7544.8158 296.3334 -9294.9404 -7544.8158 296.3334 -273.9069 -189.4707 30698.0059 -273.9069 -189.4707
ENERGY: 300000 2.3303 3.0479 6.5584 0.0000 -10856.1402 1520.7921 0.0000 0.0000 1806.1439 -7517.2676 305.8186 -9323.4115 -7531.2040 299.6197 683.9361 731.7328 30388.6534 123.3154 186.9049
ENERGY: 600000 4.5453 6.1574 3.4652 0.0000 -10704.6735 1409.0270 0.0000 0.0000 1807.1874 -7474.2912 305.9953 -9281.4786 -7532.7723 299.7321 -427.8400 -353.6197 30916.0576 86.0446 148.8951
ENERGY: 900000 2.1468 0.7345 1.3171 0.0000 -10580.2384 1316.6307 0.0000 0.0000 1752.6658 -7506.7435 296.7636 -9259.4093 -7516.0911 298.9790 -453.2642 -431.3862 30257.4706 -32.9142 17.8921
ENERGY: 1200000 5.4630 2.8712 2.5079 0.0000 -10734.6696 1499.1419 0.0000 0.0000 1772.5087 -7452.1769 300.1235 -9224.6856 -7507.3772 299.6936 590.6355 588.7610 30894.6267 9.7924 62.8487
ENERGY: 1500000 5.4812 3.5575 4.2791 0.0000 -10895.3150 1578.7277 0.0000 0.0000 1789.8999 -7513.3696 303.0682 -9303.2695 -7516.1082 299.4229 1265.1984 1354.0921 30203.0634 65.6134 117.7677
TCL: Running FEP window  17: Lambda1 0.8000000000000002 Lambda2 0.8500000000000002 [dLambda 0.050000000000000044]
TCL: Setting parameter firsttimestep to 0
TCL: Setting parameter alchLambda to 0.8000000000000002
Info: NONBONDED TABLE R-SQUARED SPACING: 0.0625
Info: NONBONDED TABLE SIZE: 705 POINTS
TCL: Setting parameter alchLambda2 to 0.8500000000000002
Info: NONBONDED TABLE R-SQUARED SPACING: 0.0625
Info: NONBONDED TABLE SIZE: 705 POINTS
TCL: Running for 1500000 steps
ETITLE: TS BOND ANGLE DIHED IMPRP ELECT VDW BOUNDARY MISC KINETIC TOTAL TEMP POTENTIAL TOTALAVG TEMPAVG PRESSURE GPRESSURE VOLUME PRESSAVG GPRESSAVG
ENERGY: 0 5.4812 3.5575 4.2790 0.0000 -10895.2740 1578.7977 0.0000 0.0000 1788.9787 -7514.1798 302.9122 -9303.1586 -7514.1798 302.9122 1275.1609 1370.1424 30203.0634 1275.1609 1370.1424
ENERGY: 300000 4.7635 3.6784 1.5093 0.0000 -10745.7429 1453.5102 0.0000 0.0000 1770.5517 -7511.7298 299.7921 -9282.2815 -7541.1973 299.1567 74.8407 201.9905 30644.9737 343.1709 429.8794
ENERGY: 600000 5.7679 0.9955 2.1105 0.0000 -10752.5565 1452.4689 0.0000 0.0000 1783.4577 -7507.7559 301.9774 -9291.2136 -7540.8436 297.6468 -67.5030 15.8917 30772.4177 212.2204 294.9205
ENERGY: 900000 2.5364 2.8508 1.6882 0.0000 -10816.1820 1488.6458 0.0000 0.0000 1787.2322 -7533.2286 302.6165 -9320.4608 -7538.5620 298.9300 446.8812 427.2637 30552.6665 159.0600 232.0954
ENERGY: 1200000 2.0826 1.8028 1.7419 0.0000 -10823.6358 1476.9752 0.0000 0.0000 1796.9395 -7544.0938 304.2601 -9341.0332 -7540.4331 299.6705 5.9958 38.2408 30890.5472 109.7799 182.0226
ENERGY: 1500000 0.8632 1.9113 1.7576 0.0000 -10798.1125 1459.9040 0.0000 0.0000 1771.7568 -7561.9196 299.9962 -9333.6765 -7544.6776 299.3112 105.5520 153.2448 30800.4148 85.7249 154.3099
TCL: Running FEP window  18: Lambda1 0.8500000000000002 Lambda2 0.9000000000000002 [dLambda 0.050000000000000044]
TCL: Setting parameter firsttimestep to 0
TCL: Setting parameter alchLambda to 0.8500000000000002
Info: NONBONDED TABLE R-SQUARED SPACING: 0.0625
Info: NONBONDED TABLE SIZE: 705 POINTS
TCL: Setting parameter alchLambda2 to 0.9000000000000002
Info: NONBONDED TABLE R-SQUARED SPACING: 0.0625
Info: NONBONDED TABLE SIZE: 705 POINTS
TCL: Running for 1500000 steps
ETITLE: TS BOND ANGLE DIHED IMPRP ELECT VDW BOUNDARY MISC KINETIC TOTAL TEMP POTENTIAL TOTALAVG TEMPAVG PRESSURE GPRESSURE VOLUME PRESSAVG GPRESSAVG
ENERGY: 0 0.8632 1.9113 1.7576 0.0000 -10798.2638 1459.6308 0.0000 0.0000 1770.8332 -7563.2678 299.8398 -9334.1010 -7563.2678 299.8398 79.3686 162.1045 30800.4148 79.3686 162.1045
ENERGY: 300000 1.3507 1.7731 1.9927 0.0000 -10766.9357 1463.9940 0.0000 0.0000 1790.7208 -7507.1045 303.2072 -9297.8253 -7509.9551 301.4581 441.6418 467.9753 30278.0788 -148.1312 -71.7665
ENERGY: 600000 2.6684 2.9140 4.6454 0.0000 -10683.5722 1441.9177 0.0000 0.0000 1784.6813 -7446.7453 302.1846 -9231.4267 -7500.6153 302.3418 59.8895 201.6948 30879.7256 -87.2767 -2.0660
ENERGY: 900000 4.6550 2.6478 1.8844 0.0000 -10936.6998 1520.0181 0.0000 0.0000 1778.3598 -7629.1347 301.1142 -9407.4945 -7511.0915 302.5246 526.3896 519.0548 30103.0490 7.2682 73.6363
ENERGY: 1200000 3.5200 2.5496 3.9234 0.0000 -10680.8975 1393.7308 0.0000 0.0000 1748.0305 -7529.1433 295.9788 -9277.1738 -7510.4485 302.3377 -162.3155 -105.4976 30402.5254 52.1653 113.4557
ENERGY: 1500000 3.0498 1.9347 3.9661 0.0000 -10879.0177 1534.8745 0.0000 0.0000 1743.7700 -7591.4228 295.2574 -9335.1928 -7520.3761 302.0024 591.8841 589.4444 30692.4290 79.8934 139.1260
TCL: Running FEP window  19: Lambda1 0.9000000000000002 Lambda2 0.9500000000000003 [dLambda 0.050000000000000044]
TCL: Setting parameter firsttimestep to 0
TCL: Setting parameter alchLambda to 0.9000000000000002
Info: NONBONDED TABLE R-SQUARED SPACING: 0.0625
Info: NONBONDED TABLE SIZE: 705 POINTS
TCL: Setting parameter alchLambda2 to 0.9500000000000003
Info: NONBONDED TABLE R-SQUARED SPACING: 0.0625
Info: NONBONDED TABLE SIZE: 705 POINTS
TCL: Running for 1500000 steps
ETITLE: TS BOND ANGLE DIHED IMPRP ELECT VDW BOUNDARY MISC KINETIC TOTAL TEMP POTENTIAL TOTALAVG TEMPAVG PRESSURE GPRESSURE VOLUME PRESSAVG GPRESSAVG
ENERGY: 0 3.0498 1.9347 3.9661 0.0000 -10879.0782 1534.4740 0.0000 0.0000 1742.9214 -7592.7323 295.1137 -9335.6537 -7592.7323 295.1137 527.8572 595.5710 30692.4290 527.8572 595.5710
ENERGY: 300000 5.8534 3.0599 4.1296 0.0000 -10697.2899 1432.5111 0.0000 0.0000 1812.3223 -7439.4136 306.8648 -9251.7359 -7544.6212 300.7980 -126.7785 -70.0142 30966.8959 104.3669 144.0786
ENERGY: 600000 3.5138 5.6514 1.6967 0.0000 -10806.8238 1427.8098 0.0000 0.0000 1763.1075 -7605.0446 298.5317 -9368.1521 -7529.1829 301.0393 -347.2637 -364.8845 30719.8237 -92.8584 -53.9648
ENERGY: 900000 2.9045 2.5506 2.2567 0.0000 -10742.6562 1412.7472 0.0000 0.0000 1718.1452 -7604.0520 290.9186 -9322.1972 -7547.5344 299.5859 -269.9923 -201.8653 30361.1373 -154.5755 -111.8485
ENERGY: 1200000 1.0748 2.2391 1.8092 0.0000 -10765.7912 1481.2958 0.0000 0.0000 1779.9424 -7499.4298 301.3821 -9279.3722 -7539.3430 300.6626 270.9820 341.7083 30759.7065 -115.3780 -64.0056
ENERGY: 1500000 3.3548 3.2352 2.5230 0.0000 -10776.8548 1489.3390 0.0000 0.0000 1828.8966 -7449.5061 309.6711 -9278.4027 -7545.9285 300.6053 499.3061 562.6934 30879.4688 -128.7429 -76.8976
TCL: Running FEP window  20: Lambda1 0.9500000000000003 Lambda2 1.0    [dLambda 0.04999999999999971]
TCL: Setting parameter firsttimestep to 0
TCL: Setting parameter alchLambda to 0.9500000000000003
Info: NONBONDED TABLE R-SQUARED SPACING: 0.0625
Info: NONBONDED TABLE SIZE: 705 POINTS
TCL: Setting parameter alchLambda2 to 1.0
Info: NONBONDED TABLE R-SQUARED SPACING: 0.0625
Info: NONBONDED TABLE SIZE: 705 POINTS
TCL: Running for 1500000 steps
ETITLE: TS BOND ANGLE DIHED IMPRP ELECT VDW BOUNDARY MISC KINETIC TOTAL TEMP POTENTIAL TOTALAVG TEMPAVG PRESSURE GPRESSURE VOLUME PRESSAVG GPRESSAVG
ENERGY: 0 3.3549 3.2352 2.5230 0.0000 -10777.0797 1489.4091 0.0000 0.0000 1828.0115 -7450.5460 309.5213 -9278.5575 -7450.5460 309.5213 488.4296 576.1129 30879.4688 488.4296 576.1129
ENERGY: 300000 3.5518 1.8962 3.8045 0.0000 -10937.8090 1494.3804 0.0000 0.0000 1831.6037 -7602.5724 310.1295 -9434.1761 -7487.0191 308.4654 141.3917 245.1620 30161.0527 384.7117 438.6622
ENERGY: 600000 5.5013 3.9494 2.8474 0.0000 -10728.0796 1403.8706 0.0000 0.0000 1811.9180 -7499.9930 306.7963 -9311.9110 -7502.2603 306.1229 -385.3142 -353.6134 30480.8418 346.5359 402.6895
ENERGY: 900000 1.5530 5.2613 4.0115 0.0000 -10631.2943 1381.0356 0.0000 0.0000 1815.1226 -7424.3103 307.3389 -9239.4328 -7505.1734 304.3577 -233.4004 -153.4200 30794.9101 249.0743 304.0692
ENERGY: 1200000 1.6493 5.9933 4.7546 0.0000 -10823.7346 1484.5696 0.0000 0.0000 1771.9325 -7554.8352 300.0259 -9326.7677 -7511.9692 302.9020 204.5159 252.8364 30520.6749 134.2109 187.8356
ENERGY: 1500000 4.5981 1.7633 2.3135 0.0000 -10848.0433 1500.6439 0.0000 0.0000 1776.0857 -7562.6390 300.7291 -9338.7246 -7520.1098 301.7661 385.3253 357.6254 30517.6436 121.9628 175.1145
TCL: Exiting due to exit command.
