Info: SIMULATION PARAMETERS:
Info: TIMESTEP               2
Info: NUMBER OF STEPS        0
Info: STEPS PER CYCLE        10
Info: PERIODIC CELL BASIS 1  41.123 0 0
Info: PERIODIC CELL BASIS 2  0 41.628 0
Info: PERIODIC CELL BASIS 3  0 0 40.136
Info: PERIODIC CELL CENTER   0 0 0
Info: WRAPPING WATERS AROUND PERIODIC BOUNDARIES ON OUTPUT.
Info: WRAPPING ALL CLUSTERS AROUND PERIODIC BOUNDARIES ON OUTPUT.
Info: FIRST LDB TIMESTEP     50
Info: LAST LDB TIMESTEP     -1
Info: HOM BACKGROUND SCALING 1
Info: PME BACKGROUND SCALING 1
Info: MIN ATOMS PER PATCH    40
Info: EMPTY PATCH LOAD       40 ATOMS
Info: INITIAL TEMPERATURE    300
Info: CENTER OF MASS MOVING INITIALLY? NO
Info: DIELECTRIC             1
Info: EXCLUDE                SCALED ONE-FOUR
Info: 1-4 ELECTROSTATICS SCALED BY 0.833333
Info: MODIFIED 1-4 VDW PARAMETERS WILL BE USED
Info: DCD FILENAME           mobley_5286200_min.dcd
Info: DCD FREQUENCY          5000
Info: DCD FIRST STEP         5000
Info: DCD FILE WILL CONTAIN UNIT CELL DATA
Info: XST FILENAME           mobley_5286200_min.xst
Info: XST FREQUENCY          5000
Info: NO VELOCITY DCD OUTPUT
Info: NO FORCE DCD OUTPUT
Info: OUTPUT FILENAME        mobley_5286200_min
Info: BINARY OUTPUT FILES WILL BE USED
Info: RESTART FILENAME       mobley_5286200_min.restart
Info: RESTART FREQUENCY      5000
Info: BINARY RESTART FILES WILL BE USED
Info: CUTOFF                 9
Info: PAIRLIST DISTANCE      11
Info: PAIRLIST SHRINK RATE   0.01
Info: PAIRLIST GROW RATE     0.01
Info: PAIRLIST TRIGGER       0.3
Info: PAIRLISTS PER CYCLE    2
Info: PAIRLISTS ENABLED
Info: MARGIN                 8
Info: HYDROGEN GROUP CUTOFF  2.5
Info: PATCH DIMENSION        21.5
Info: ENERGY OUTPUT STEPS    5000
Info: ENERGY EVALUATION STEPS    5000
Info: OUTPUT ENERGY PRECISION 4
Info: CROSSTERM ENERGY INCLUDED IN DIHEDRAL
Info: TIMING OUTPUT STEPS    50000
Info: PRESSURE OUTPUT STEPS  5000
Info: LANGEVIN DYNAMICS ACTIVE
Info: LANGEVIN TEMPERATURE   300
Info: LANGEVIN USING BBK INTEGRATOR
Info: LANGEVIN DAMPING COEFFICIENT IS 1 INVERSE PS
Info: LANGEVIN DYNAMICS APPLIED TO HYDROGENS
Info: LANGEVIN PISTON PRESSURE CONTROL ACTIVE
Info:        TARGET PRESSURE IS 1.01325 BAR
Info:     OSCILLATION PERIOD IS 50 FS
Info:             DECAY TIME IS 25 FS
Info:     PISTON TEMPERATURE IS 300 K
Info:       PRESSURE CONTROL IS GROUP-BASED
Info:    INITIAL STRAIN RATE IS 0 0 0
Info:       CELL FLUCTUATION IS ISOTROPIC
Info: PARTICLE MESH EWALD (PME) ACTIVE
Info: PME TOLERANCE               1e-06
Info: PME EWALD COEFFICIENT       0.348832
Info: PME INTERPOLATION ORDER     4
Info: PME GRID DIMENSIONS         44 44 44
Info: PME MAXIMUM GRID SPACING    1
Info: FULL ELECTROSTATIC EVALUATION FREQUENCY      2
Info: USING VERLET I (r-RESPA) MTS SCHEME.
Info: C1 SPLITTING OF LONG RANGE ELECTROSTATICS
Info: PLACING ATOMS IN PATCHES BY HYDROGEN GROUPS
Info: RIGID BONDS TO HYDROGEN : ALL
Info:         ERROR TOLERANCE : 1e-08
Info:          MAX ITERATIONS : 100
Info: RIGID WATER USING SETTLE ALGORITHM
Info: RANDOM NUMBER SEED     1741356138
Info: USE HYDROGEN BONDS?    NO
Info: Using AMBER format force field!
Info: AMBER PARM FILE        mobley_5286200.prmtop
Info: COORDINATE PDB         mobley_5286200.pdb
Info: Exclusions will be read from PARM file!
Info: SCNB (VDW SCALING)     2
Info: USING ARITHMETIC MEAN TO COMBINE L-J SIGMA PARAMETERS
Info: SUMMARY OF PARAMETERS:
Info: 6 BONDS
Info: 7 ANGLES
Info:   7 HARMONIC
Info:   0 COSINE-BASED
Info: 5 DIHEDRAL
Info: 0 IMPROPER
Info: 0 CROSSTERM
Info: 0 VDW
Info: 21 VDW_PAIRS
Info: 0 NBTHOLE_PAIRS
Info: STRUCTURE SUMMARY:
Info: 4949 ATOMS
Info: 4948 BONDS
Info: 24 ANGLES
Info: 27 DIHEDRALS
Info: 0 IMPROPERS
Info: 0 CROSSTERMS
Info: 4999 EXCLUSIONS
Info: 4943 RIGID BONDS
Info: 9904 DEGREES OF FREEDOM
Info: 1651 HYDROGEN GROUPS
Info: 3 ATOMS IN LARGEST HYDROGEN GROUP
Info: 1651 MIGRATION GROUPS
Info: 3 ATOMS IN LARGEST MIGRATION GROUP
Info: TOTAL MASS = 29763.3 amu
Info: TOTAL CHARGE = 0.00029999 e
Info: MASS DENSITY = 0.719343 g/cm^3
Info: ATOM DENSITY = 0.0720299 atoms/A^3
Info: ADDED 0 IMPLICIT EXCLUSIONS
Info: NONBONDED TABLE R-SQUARED SPACING: 0.0625
Info: NONBONDED TABLE SIZE: 705 POINTS
Info: REMOVING COM VELOCITY -0.0736716 0.108437 -0.238927
TCL: Minimizing for 2000 steps
ETITLE: TS BOND ANGLE DIHED IMPRP ELECT VDW BOUNDARY MISC KINETIC TOTAL TEMP POTENTIAL TOTAL3 TEMPAVG PRESSURE GPRESSURE VOLUME PRESSAVG GPRESSAVG
ENERGY: 0 0.3575 0.3658 0.0370 0.0000 -15314.9356 1714.9894 0.0000 0.0000 0.0000 -13599.1859 0.0000 -13599.1859 -13599.1859 0.0000 10938.3339 -15759.9511 68707.5438 10938.3339 -15759.9511
ENERGY: 400 13.6597 6.0450 0.3386 0.0000 -20775.1100 3029.3323 0.0000 0.0000 0.0000 -17725.7343 0.0000 -17725.7343 -17725.7343 0.0000 15784.1387 15919.7308 68707.5438 15784.1387 15919.7308
ENERGY: 800 0.7369 0.9132 0.1838 0.0000 -21827.9588 3515.0169 0.0000 0.0000 0.0000 -18311.1080 0.0000 -18311.1080 -18311.1080 0.0000 17992.7695 18120.7522 68707.5438 17992.7695 18120.7522
ENERGY: 1200 0.3885 0.3548 0.0326 0.0000 -22370.6509 3789.8022 0.0000 0.0000 0.0000 -18580.0729 0.0000 -18580.0729 -18580.0729 0.0000 19301.5060 19411.6236 68707.5438 19301.5060 19411.6236
ENERGY: 1600 0.2025 0.2537 0.1616 0.0000 -22634.6197 3927.7652 0.0000 0.0000 0.0000 -18706.2368 0.0000 -18706.2368 -18706.2368 0.0000 19982.9794 20088.6322 68707.5438 19982.9794 20088.6322
ENERGY: 2000 0.1102 0.2871 0.1899 0.0000 -22728.8860 3949.1300 0.0000 0.0000 0.0000 -18779.1688 0.0000 -18779.1688 -18779.1688 0.0000 20084.2022 20191.1356 68707.5438 20084.2022 20191.1356
TCL: Exiting due to exit command.
Info: NAMD 3.0.1 for Linux-x86_64-multicore
Info: Please visit http://www.ks.uiuc.edu/Research/namd/
Info: for updates, documentation, and support information.
Info: Please cite Phillips et al., J. Chem. Phys. 153:044130 (2020) doi:10.1063/5.0014475
Info: in all publications reporting results obtained with NAMD.
Info: Based on Charm++/Converse 80000 for multicore-linux-x86_64-gcc
Info: Built Mon Oct 14 11:11:06 CDT 2024 by dhardy on athine.ks.uiuc.edu
Info: 1 NAMD  3.0.1  Linux-x86_64-multicore  16    k063  z5358697
Info: Running on 16 processors, 1 nodes, 1 physical nodes.
Info: CPU topology information available.
Info: Charm++/Converse parallel runtime startup completed at 0.0103742 s
Info: 1043.46 MB of memory in use based on /proc/self/stat
Info: Configuration file is mobley_5286200_equil.namd
Info: Working in the current directory /srv/scratch/z5358697/prod_prep_6/5286200
TCL: Running 25000 steps at 30 kelvin.
TCL: Suspending until startup complete.
Info: SIMULATION PARAMETERS:
Info: TIMESTEP               2
Info: NUMBER OF STEPS        0
Info: STEPS PER CYCLE        10
Info: PERIODIC CELL BASIS 1  41.123 0 0
Info: PERIODIC CELL BASIS 2  0 41.628 0
Info: PERIODIC CELL BASIS 3  0 0 40.136
Info: PERIODIC CELL CENTER   0 0 0
Info: WRAPPING WATERS AROUND PERIODIC BOUNDARIES ON OUTPUT.
Info: WRAPPING ALL CLUSTERS AROUND PERIODIC BOUNDARIES ON OUTPUT.
Info: FIRST LDB TIMESTEP     50
Info: LAST LDB TIMESTEP     -1
Info: HOM BACKGROUND SCALING 1
Info: PME BACKGROUND SCALING 1
Info: MIN ATOMS PER PATCH    40
Info: EMPTY PATCH LOAD       40 ATOMS
Info: INITIAL TEMPERATURE    300
Info: CENTER OF MASS MOVING INITIALLY? NO
Info: DIELECTRIC             1
Info: EXCLUDE                SCALED ONE-FOUR
Info: 1-4 ELECTROSTATICS SCALED BY 0.833333
Info: MODIFIED 1-4 VDW PARAMETERS WILL BE USED
Info: DCD FILENAME           mobley_5286200_equil.dcd
Info: DCD FREQUENCY          5000
Info: DCD FIRST STEP         5000
Info: DCD FILE WILL CONTAIN UNIT CELL DATA
Info: XST FILENAME           mobley_5286200_equil.xst
Info: XST FREQUENCY          5000
Info: NO VELOCITY DCD OUTPUT
Info: NO FORCE DCD OUTPUT
Info: OUTPUT FILENAME        mobley_5286200_equil
Info: BINARY OUTPUT FILES WILL BE USED
Info: RESTART FILENAME       mobley_5286200_equil.restart
Info: RESTART FREQUENCY      5000
Info: BINARY RESTART FILES WILL BE USED
Info: CUTOFF                 9
Info: PAIRLIST DISTANCE      11
Info: PAIRLIST SHRINK RATE   0.01
Info: PAIRLIST GROW RATE     0.01
Info: PAIRLIST TRIGGER       0.3
Info: PAIRLISTS PER CYCLE    2
Info: PAIRLISTS ENABLED
Info: MARGIN                 8
Info: HYDROGEN GROUP CUTOFF  2.5
Info: PATCH DIMENSION        21.5
Info: ENERGY OUTPUT STEPS    5000
Info: ENERGY EVALUATION STEPS    5000
Info: OUTPUT ENERGY PRECISION 4
Info: CROSSTERM ENERGY INCLUDED IN DIHEDRAL
Info: TIMING OUTPUT STEPS    50000
Info: PRESSURE OUTPUT STEPS  5000
Info: LANGEVIN DYNAMICS ACTIVE
Info: LANGEVIN TEMPERATURE   30
Info: LANGEVIN USING BBK INTEGRATOR
Info: LANGEVIN DAMPING COEFFICIENT IS 1 INVERSE PS
Info: LANGEVIN DYNAMICS APPLIED TO HYDROGENS
Info: LANGEVIN PISTON PRESSURE CONTROL ACTIVE
Info:        TARGET PRESSURE IS 1.01325 BAR
Info:     OSCILLATION PERIOD IS 50 FS
Info:             DECAY TIME IS 25 FS
Info:     PISTON TEMPERATURE IS 300 K
Info:       PRESSURE CONTROL IS GROUP-BASED
Info:    INITIAL STRAIN RATE IS 0 0 0
Info:       CELL FLUCTUATION IS ISOTROPIC
Info: PARTICLE MESH EWALD (PME) ACTIVE
Info: PME TOLERANCE               1e-06
Info: PME EWALD COEFFICIENT       0.348832
Info: PME INTERPOLATION ORDER     4
Info: PME GRID DIMENSIONS         44 44 44
Info: PME MAXIMUM GRID SPACING    1
Info: FULL ELECTROSTATIC EVALUATION FREQUENCY      2
Info: USING VERLET I (r-RESPA) MTS SCHEME.
Info: C1 SPLITTING OF LONG RANGE ELECTROSTATICS
Info: PLACING ATOMS IN PATCHES BY HYDROGEN GROUPS
Info: RIGID BONDS TO HYDROGEN : ALL
Info:         ERROR TOLERANCE : 1e-08
Info:          MAX ITERATIONS : 100
Info: RIGID WATER USING SETTLE ALGORITHM
Info: RANDOM NUMBER SEED     1741356153
Info: USE HYDROGEN BONDS?    NO
Info: Using AMBER format force field!
Info: AMBER PARM FILE        mobley_5286200.prmtop
Info: COORDINATE PDB         mobley_5286200.pdb
Info: Exclusions will be read from PARM file!
Info: SCNB (VDW SCALING)     2
Info: USING ARITHMETIC MEAN TO COMBINE L-J SIGMA PARAMETERS
Info: BINARY COORDINATES     mobley_5286200_min.coor
Info: SUMMARY OF PARAMETERS:
Info: 6 BONDS
Info: 7 ANGLES
Info: 5 DIHEDRAL
Info: 0 IMPROPER
Info: 0 CROSSTERM
Info: 0 VDW
Info: 21 VDW_PAIRS
Info: 0 NBTHOLE_PAIRS
Info: STRUCTURE SUMMARY:
Info: 4949 ATOMS
Info: 4948 BONDS
Info: 24 ANGLES
Info: 27 DIHEDRALS
Info: 0 IMPROPERS
Info: 0 CROSSTERMS
Info: 4999 EXCLUSIONS
Info: 4943 RIGID BONDS
Info: 9904 DEGREES OF FREEDOM
Info: 1651 HYDROGEN GROUPS
Info: 3 ATOMS IN LARGEST HYDROGEN GROUP
Info: 1651 MIGRATION GROUPS
Info: 3 ATOMS IN LARGEST MIGRATION GROUP
Info: TOTAL MASS = 29763.3 amu
Info: TOTAL CHARGE = 0.00029999 e
Info: MASS DENSITY = 0.719343 g/cm^3
Info: ATOM DENSITY = 0.0720299 atoms/A^3
Info: ADDED 0 IMPLICIT EXCLUSIONS
Info: NONBONDED TABLE R-SQUARED SPACING: 0.0625
Info: NONBONDED TABLE SIZE: 705 POINTS
Info: REMOVING COM VELOCITY 0.0725131 -0.177164 -0.0140366
TCL: Running for 25000 steps
ETITLE: TS BOND ANGLE DIHED IMPRP ELECT VDW BOUNDARY MISC KINETIC TOTAL TEMP POTENTIAL TOTAL3 TEMPAVG PRESSURE GPRESSURE VOLUME PRESSAVG GPRESSAVG
ENERGY: 0 0.1102 0.2871 0.1899 0.0000 -22728.8860 3949.1300 0.0000 0.0000 2968.4965 -15810.6723 301.6590 -18779.1688 -15810.0495 301.6590 317.4315 358.0661 68707.5438 317.4315 358.0661
ENERGY: 5000 0.4206 0.9600 0.0813 0.0000 -23567.4640 3955.4861 0.0000 0.0000 307.1658 -19303.3502 31.2142 -19610.5160 -19302.4825 47.7677 -920.9025 -858.2854 48786.3831 -3.4425 -3.5276
ENERGY: 10000 0.2815 1.1381 0.1312 0.0000 -23742.1033 4074.8410 0.0000 0.0000 296.0080 -19369.7035 30.0804 -19665.7115 -19369.0519 30.3272 -360.6522 -297.8475 48456.7223 3.5228 3.3453
ENERGY: 15000 0.1906 1.0018 0.0908 0.0000 -23885.8836 4209.3638 0.0000 0.0000 290.0675 -19385.1690 29.4767 -19675.2366 -19384.5600 30.1847 357.1482 409.7083 48068.4545 4.8964 5.0627
ENERGY: 20000 0.0420 0.7910 0.2071 0.0000 -23906.0481 4231.3786 0.0000 0.0000 290.0689 -19383.5604 29.4768 -19673.6293 -19382.9834 29.9027 391.7552 478.5441 48088.7056 5.0401 4.9741
ENERGY: 25000 0.0531 0.6558 0.0830 0.0000 -23817.2968 4138.0761 0.0000 0.0000 302.2352 -19376.1935 30.7132 -19678.4287 -19375.2717 30.2539 -72.1873 -21.6036 48270.9858 6.5875 6.5028
TCL: Running 25000 steps at 60 kelvin.
TCL: Setting parameter langevinTemp to 60
TCL: Running for 25000 steps
ETITLE: TS BOND ANGLE DIHED IMPRP ELECT VDW BOUNDARY MISC KINETIC TOTAL TEMP POTENTIAL TOTAL3 TEMPAVG PRESSURE GPRESSURE VOLUME PRESSAVG GPRESSAVG
ENERGY: 25000 0.0531 0.6558 0.0830 0.0000 -23817.2968 4138.0761 0.0000 0.0000 302.0929 -19376.3358 30.6987 -19678.4287 -19375.7119 30.6987 -87.8241 -21.6129 48270.9858 -87.8241 -21.6129
ENERGY: 30000 0.3946 1.6120 0.3465 0.0000 -23502.0169 4094.9475 0.0000 0.0000 607.4710 -18797.2453 61.7313 -19404.7163 -18795.4310 57.3386 338.1667 419.4760 48242.5121 0.1455 0.1112
ENERGY: 35000 0.1670 1.2505 0.1273 0.0000 -23606.0883 4156.7302 0.0000 0.0000 587.9398 -18859.8736 59.7465 -19447.8134 -18858.0101 60.4063 552.1075 609.4145 48204.8188 3.4744 3.0262
ENERGY: 40000 0.1139 2.4637 0.2231 0.0000 -23612.6561 4134.0666 0.0000 0.0000 595.3376 -18880.4512 60.4983 -19475.7888 -18879.5381 60.1027 377.0103 451.1161 48198.2304 1.1879 1.2298
ENERGY: 45000 0.4908 1.6400 0.0676 0.0000 -23506.6561 3980.5896 0.0000 0.0000 600.0500 -18923.8182 60.9772 -19523.8681 -18921.8710 59.8894 -423.3667 -371.9364 48423.5907 1.8307 1.7094
ENERGY: 50000 0.4023 1.7353 0.0757 0.0000 -23649.7523 4123.5741 0.0000 0.0000 587.8660 -18936.0988 59.7390 -19523.9648 -18934.4423 59.8175 300.3896 355.8989 48201.2815 0.7859 0.8833
TCL: Running 25000 steps at 90 kelvin.
TCL: Setting parameter langevinTemp to 90
TCL: Running for 25000 steps
ETITLE: TS BOND ANGLE DIHED IMPRP ELECT VDW BOUNDARY MISC KINETIC TOTAL TEMP POTENTIAL TOTAL3 TEMPAVG PRESSURE GPRESSURE VOLUME PRESSAVG GPRESSAVG
ENERGY: 50000 0.4023 1.7353 0.0757 0.0000 -23649.7523 4123.5741 0.0000 0.0000 587.5717 -18936.3931 59.7091 -19523.9648 -18935.1328 59.7091 302.4731 355.8367 48201.2815 302.4731 355.8367
ENERGY: 55000 1.1150 2.7191 0.6607 0.0000 -23083.7075 3897.0440 0.0000 0.0000 903.2852 -18278.8835 91.7920 -19182.1687 -18276.3491 86.9780 -124.7668 -95.3268 48607.5631 2.3878 2.5257
ENERGY: 60000 0.1900 1.4395 0.4612 0.0000 -23199.1380 3945.1334 0.0000 0.0000 890.2329 -18361.6811 90.4656 -19251.9139 -18360.3638 90.6391 34.2220 83.0111 48562.1211 6.2211 5.7417
ENERGY: 65000 0.3511 2.0268 0.7850 0.0000 -23436.8500 4165.0169 0.0000 0.0000 909.7121 -18358.9580 92.4451 -19268.6702 -18356.5406 90.6208 1075.3727 1154.0837 48039.2143 6.4711 6.0762
ENERGY: 70000 0.2023 2.5909 0.5089 0.0000 -23219.8261 3920.6908 0.0000 0.0000 885.1187 -18410.7144 89.9459 -19295.8332 -18407.9996 89.6033 -245.7020 -164.6346 48449.0473 6.5483 6.6424
ENERGY: 75000 0.3982 1.5587 0.8369 0.0000 -23262.2729 3940.4607 0.0000 0.0000 886.2776 -18432.7407 90.0636 -19319.0183 -18430.7027 89.7114 -48.2255 -9.6814 48042.4046 3.7430 3.6487
TCL: Running 25000 steps at 120 kelvin.
TCL: Setting parameter langevinTemp to 120
TCL: Running for 25000 steps
ETITLE: TS BOND ANGLE DIHED IMPRP ELECT VDW BOUNDARY MISC KINETIC TOTAL TEMP POTENTIAL TOTAL3 TEMPAVG PRESSURE GPRESSURE VOLUME PRESSAVG GPRESSAVG
ENERGY: 75000 0.3982 1.5587 0.8369 0.0000 -23262.2729 3940.4607 0.0000 0.0000 885.8581 -18433.1602 90.0210 -19319.0183 -18431.2840 90.0210 -62.3900 -9.1183 48042.4046 -62.3900 -9.1183
ENERGY: 80000 0.1011 3.5232 0.2936 0.0000 -22671.8854 3701.1949 0.0000 0.0000 1187.2249 -17779.5478 120.6460 -18966.7727 -17777.7142 116.9978 -585.9340 -547.9141 48704.0435 3.8788 4.1133
ENERGY: 85000 0.6994 2.6943 0.3337 0.0000 -22848.4742 3797.6717 0.0000 0.0000 1144.5005 -17902.5747 116.3043 -19047.0752 -17900.4191 120.5405 -288.8652 -190.0072 48440.3116 1.3197 1.5906
ENERGY: 90000 0.2340 1.9577 0.3592 0.0000 -22857.2051 3807.5805 0.0000 0.0000 1187.4352 -17859.6385 120.6673 -19047.0737 -17856.5047 120.0733 -144.8370 -70.1811 48161.1897 2.2551 2.2807
ENERGY: 95000 0.6293 2.8248 0.1508 0.0000 -22881.7933 3802.8231 0.0000 0.0000 1166.5477 -17908.8177 118.5447 -19075.3654 -17906.1667 120.7739 -412.4442 -379.1382 48517.2283 1.7378 1.8049
ENERGY: 100000 0.2318 2.0088 0.2838 0.0000 -23101.2055 3950.9767 0.0000 0.0000 1181.0468 -17966.6576 120.0181 -19147.7044 -17963.5668 120.0382 354.3231 375.2618 48096.5999 5.2754 5.4508
TCL: Running 25000 steps at 150 kelvin.
TCL: Setting parameter langevinTemp to 150
TCL: Running for 25000 steps
ETITLE: TS BOND ANGLE DIHED IMPRP ELECT VDW BOUNDARY MISC KINETIC TOTAL TEMP POTENTIAL TOTAL3 TEMPAVG PRESSURE GPRESSURE VOLUME PRESSAVG GPRESSAVG
ENERGY: 100000 0.2318 2.0088 0.2838 0.0000 -23101.2055 3950.9767 0.0000 0.0000 1180.4764 -17967.2280 119.9602 -19147.7044 -17965.0222 119.9602 329.5823 375.8648 48096.5999 329.5823 375.8648
ENERGY: 105000 0.3189 1.4608 0.1486 0.0000 -22597.5604 3820.9650 0.0000 0.0000 1464.3767 -17310.2904 148.8102 -18774.6671 -17306.6297 146.6388 517.5693 512.1796 48518.8773 1.0342 0.5822
ENERGY: 110000 0.5337 3.4771 0.6888 0.0000 -22292.9174 3527.0608 0.0000 0.0000 1461.9798 -17299.1772 148.5666 -18761.1570 -17294.6101 149.8991 -1152.9888 -1096.3542 49287.8492 -3.4063 -3.0904
ENERGY: 115000 0.7353 2.3133 0.4439 0.0000 -22534.9263 3743.1744 0.0000 0.0000 1455.1390 -17333.1203 147.8714 -18788.2594 -17329.0138 150.6245 -72.3585 -30.8793 48827.9364 -0.8264 -0.2106
ENERGY: 120000 0.8357 2.8548 0.6012 0.0000 -22643.8092 3811.3080 0.0000 0.0000 1484.2689 -17343.9405 150.8316 -18828.2095 -17340.7315 149.8835 232.3360 310.2718 48711.7590 6.8938 6.4928
ENERGY: 125000 0.5773 2.8191 0.2621 0.0000 -22660.7156 3821.3404 0.0000 0.0000 1511.2522 -17324.4644 153.5737 -18835.7167 -17320.2844 150.3338 386.5767 464.4316 48353.4883 2.7774 2.8144
TCL: Running 50000 steps at 180 kelvin.
TCL: Setting parameter langevinTemp to 180
TCL: Running for 50000 steps
ETITLE: TS BOND ANGLE DIHED IMPRP ELECT VDW BOUNDARY MISC KINETIC TOTAL TEMP POTENTIAL TOTAL3 TEMPAVG PRESSURE GPRESSURE VOLUME PRESSAVG GPRESSAVG
ENERGY: 125000 0.5773 2.8191 0.2621 0.0000 -22660.7156 3821.3404 0.0000 0.0000 1510.5130 -17325.2037 153.4985 -18835.7167 -17321.8641 153.4985 406.2358 464.6781 48353.4883 406.2358 464.6781
ENERGY: 135000 1.1526 3.0354 1.3641 0.0000 -21822.5887 3465.5696 0.0000 0.0000 1750.3642 -16601.1028 177.8722 -18351.4670 -16596.5705 180.4689 -538.5932 -485.7631 48963.6918 4.5858 4.2476
ENERGY: 145000 0.3254 2.6713 0.4308 0.0000 -21943.9009 3566.7244 0.0000 0.0000 1775.3119 -16598.4370 180.4074 -18373.7489 -16595.3962 179.9814 41.2710 138.4894 48634.2805 2.7453 2.9700
ENERGY: 155000 0.3653 3.3069 1.1155 0.0000 -21963.1137 3545.1882 0.0000 0.0000 1724.8426 -16688.2953 175.2787 -18413.1378 -16685.1390 180.4168 -249.7263 -190.5037 48983.5261 0.0866 -0.5749
ENERGY: 165000 0.7058 5.0417 0.2231 0.0000 -21897.6396 3512.2112 0.0000 0.0000 1725.7135 -16653.7442 175.3672 -18379.4578 -16649.1659 179.4467 -380.0122 -283.0614 48985.5053 0.1916 -0.2024
ENERGY: 175000 0.0835 4.3254 0.5097 0.0000 -22039.4157 3598.4067 0.0000 0.0000 1749.0470 -16687.0434 177.7384 -18436.0904 -16681.4519 179.9118 87.8637 138.3725 48669.1269 0.5688 0.7722
TCL: Running 50000 steps at 210 kelvin.
TCL: Setting parameter langevinTemp to 210
TCL: Running for 50000 steps
ETITLE: TS BOND ANGLE DIHED IMPRP ELECT VDW BOUNDARY MISC KINETIC TOTAL TEMP POTENTIAL TOTAL3 TEMPAVG PRESSURE GPRESSURE VOLUME PRESSAVG GPRESSAVG
ENERGY: 175000 0.0835 4.3254 0.5097 0.0000 -22039.4157 3598.4067 0.0000 0.0000 1748.1425 -16687.9479 177.6465 -18436.0904 -16684.4416 177.6465 76.4607 138.6246 48669.1269 76.4607 138.6246
ENERGY: 185000 2.0399 3.2524 0.6009 0.0000 -20627.8580 3004.3418 0.0000 0.0000 2092.2929 -15525.3301 212.6191 -17617.6230 -15519.3698 209.4220 -1003.4861 -963.7991 48955.8442 2.4823 2.4783
ENERGY: 195000 0.4674 3.4077 0.0540 0.0000 -20977.0813 3236.9936 0.0000 0.0000 2097.1717 -15638.9869 213.1149 -17736.1585 -15634.3932 209.9942 10.0903 95.4688 48482.4414 1.1017 1.0756
ENERGY: 205000 0.8531 3.6163 0.2418 0.0000 -20806.9742 3204.4692 0.0000 0.0000 2071.5938 -15526.2000 210.5156 -17597.7938 -15522.7340 210.5092 193.4249 313.3217 48036.0844 1.3929 0.6373
ENERGY: 215000 1.3630 4.5136 0.6207 0.0000 -20897.5795 3235.4809 0.0000 0.0000 2044.4270 -15611.1742 207.7549 -17655.6012 -15606.5073 209.2106 224.6710 306.9089 48051.8889 4.9253 5.1536
ENERGY: 225000 1.4648 3.6136 0.2335 0.0000 -20890.8432 3241.4575 0.0000 0.0000 2087.2675 -15556.8063 212.1084 -17644.0737 -15554.0081 210.8218 190.7758 278.5502 48414.9203 4.2044 4.2276
TCL: Running 50000 steps at 240 kelvin.
TCL: Setting parameter langevinTemp to 240
TCL: Running for 50000 steps
ETITLE: TS BOND ANGLE DIHED IMPRP ELECT VDW BOUNDARY MISC KINETIC TOTAL TEMP POTENTIAL TOTAL3 TEMPAVG PRESSURE GPRESSURE VOLUME PRESSAVG GPRESSAVG
ENERGY: 225000 1.4648 3.6136 0.2335 0.0000 -20890.8432 3241.4575 0.0000 0.0000 2086.2807 -15557.7930 212.0081 -17644.0737 -15554.3483 212.0081 203.5313 277.8287 48414.9203 203.5313 277.8287
ENERGY: 235000 3.4910 6.0970 0.7973 0.0000 -19765.0367 2871.5500 0.0000 0.0000 2374.9550 -14508.1463 241.3432 -16883.1013 -14503.4476 239.6981 -45.0138 9.9455 48866.3892 2.4821 3.0190
ENERGY: 245000 0.9668 4.7991 0.2920 0.0000 -19762.0263 2856.0570 0.0000 0.0000 2387.2182 -14512.6933 242.5894 -16899.9115 -14507.1529 240.6793 -181.8004 -72.7825 48899.0853 0.7854 0.5406
ENERGY: 255000 1.4004 3.5187 0.4376 0.0000 -19842.0779 2920.8768 0.0000 0.0000 2364.0452 -14551.7991 240.2346 -16915.8443 -14544.7414 240.0205 97.9142 167.9323 48830.0552 1.4371 1.6336
ENERGY: 265000 1.2866 3.7819 0.0783 0.0000 -19745.6886 2828.8927 0.0000 0.0000 2353.0953 -14558.5538 239.1219 -16911.6491 -14556.7147 241.4919 -257.1659 -163.0387 48681.1444 -0.9061 -1.2204
ENERGY: 275000 0.4529 4.9073 0.2582 0.0000 -19649.4488 2755.4382 0.0000 0.0000 2297.6387 -14590.7536 233.4863 -16888.3922 -14588.0952 237.5158 -709.7980 -665.6054 49231.3230 1.2268 0.8172
TCL: Running 50000 steps at 270 kelvin.
TCL: Setting parameter langevinTemp to 270
TCL: Running for 50000 steps
ETITLE: TS BOND ANGLE DIHED IMPRP ELECT VDW BOUNDARY MISC KINETIC TOTAL TEMP POTENTIAL TOTAL3 TEMPAVG PRESSURE GPRESSURE VOLUME PRESSAVG GPRESSAVG
ENERGY: 275000 0.4529 4.9073 0.2582 0.0000 -19649.4488 2755.4382 0.0000 0.0000 2296.4487 -14591.9435 233.3654 -16888.3922 -14587.5730 233.3654 -743.7537 -667.1331 49231.3230 -743.7537 -667.1331
ENERGY: 285000 1.4765 5.6290 1.3272 0.0000 -18855.9963 2594.5173 0.0000 0.0000 2703.6736 -13549.3727 274.7477 -16253.0463 -13545.7454 269.4260 -187.2626 -62.7909 49350.4402 4.5224 4.5358
ENERGY: 295000 1.0487 5.8601 0.5950 0.0000 -18720.9174 2581.6176 0.0000 0.0000 2585.1290 -13546.6669 262.7012 -16131.7959 -13543.2485 269.8123 -393.5777 -309.7984 50357.4496 0.8426 1.2333
ENERGY: 305000 1.9175 2.3720 1.9270 0.0000 -18973.1362 2620.1728 0.0000 0.0000 2677.8509 -13668.8960 272.1236 -16346.7469 -13662.9119 268.2290 -395.0620 -266.1262 49728.3773 2.3633 1.8528
ENERGY: 315000 1.1605 8.1414 0.1370 0.0000 -18696.2093 2544.3109 0.0000 0.0000 2615.1951 -13527.2643 265.7565 -16142.4594 -13522.9821 270.0816 -449.4963 -356.7412 50027.5043 2.4509 2.8350
ENERGY: 325000 0.5379 6.4756 1.8647 0.0000 -18844.2868 2618.9134 0.0000 0.0000 2681.6105 -13534.8846 272.5056 -16216.4951 -13528.3553 269.3160 -83.6046 -68.3406 49932.3860 5.2564 4.6999
TCL: Running 1000000 steps at 300 kelvin.
TCL: Setting parameter langevinTemp to 300
TCL: Running for 1000000 steps
ETITLE: TS BOND ANGLE DIHED IMPRP ELECT VDW BOUNDARY MISC KINETIC TOTAL TEMP POTENTIAL TOTAL3 TEMPAVG PRESSURE GPRESSURE VOLUME PRESSAVG GPRESSAVG
ENERGY: 325000 0.5379 6.4756 1.8647 0.0000 -18844.2868 2618.9134 0.0000 0.0000 2680.2946 -13536.2005 272.3719 -16216.4951 -13532.1178 272.3719 -155.5808 -66.8986 49932.3860 -155.5808 -66.8986
ENERGY: 525000 0.2122 7.4886 1.7893 0.0000 -18006.4155 2402.4874 0.0000 0.0000 2930.3046 -12664.1334 297.7779 -15594.4380 -12657.6683 299.7326 -286.5370 -200.4827 51410.0689 -0.6594 -1.1152
ENERGY: 725000 3.2221 7.9214 1.2144 0.0000 -17956.5270 2491.4227 0.0000 0.0000 2940.8709 -12511.8755 298.8517 -15452.7464 -12507.5426 300.1061 308.1640 404.7010 51150.6600 7.4446 7.3813
ENERGY: 925000 1.2181 8.1768 0.8631 0.0000 -17958.0308 2375.4616 0.0000 0.0000 2932.5394 -12639.7718 298.0050 -15572.3112 -12633.7392 298.6981 -150.2874 -58.0541 50713.2032 3.5871 3.5882
ENERGY: 1125000 1.9262 5.6957 1.0202 0.0000 -18071.9644 2444.2966 0.0000 0.0000 2985.7732 -12633.2526 303.4147 -15619.0258 -12627.2701 300.0100 -151.7612 -30.5897 50807.0008 2.3733 2.4663
ENERGY: 1325000 1.7161 7.1044 1.1078 0.0000 -17820.3040 2320.4527 0.0000 0.0000 2904.9707 -12584.9523 295.2035 -15489.9231 -12579.6748 300.4071 -456.8880 -386.2169 51035.4548 -0.7604 -0.7019
TCL: Exiting due to exit command.
