Info: SIMULATION PARAMETERS:
Info: TIMESTEP               2
Info: NUMBER OF STEPS        0
Info: STEPS PER CYCLE        10
Info: PERIODIC CELL BASIS 1  41.545 0 0
Info: PERIODIC CELL BASIS 2  0 39.93 0
Info: PERIODIC CELL BASIS 3  0 0 39.119
Info: PERIODIC CELL CENTER   0 0 0
Info: WRAPPING WATERS AROUND PERIODIC BOUNDARIES ON OUTPUT.
Info: WRAPPING ALL CLUSTERS AROUND PERIODIC BOUNDARIES ON OUTPUT.
Info: FIRST LDB TIMESTEP     50
Info: LAST LDB TIMESTEP     -1
Info: HOM BACKGROUND SCALING 1
Info: PME BACKGROUND SCALING 1
Info: MIN ATOMS PER PATCH    40
Info: EMPTY PATCH LOAD       40 ATOMS
Info: INITIAL TEMPERATURE    300
Info: CENTER OF MASS MOVING INITIALLY? NO
Info: DIELECTRIC             1
Info: EXCLUDE                SCALED ONE-FOUR
Info: 1-4 ELECTROSTATICS SCALED BY 0.833333
Info: MODIFIED 1-4 VDW PARAMETERS WILL BE USED
Info: DCD FILENAME           mobley_1019269_min.dcd
Info: DCD FREQUENCY          5000
Info: DCD FIRST STEP         5000
Info: DCD FILE WILL CONTAIN UNIT CELL DATA
Info: XST FILENAME           mobley_1019269_min.xst
Info: XST FREQUENCY          5000
Info: NO VELOCITY DCD OUTPUT
Info: NO FORCE DCD OUTPUT
Info: OUTPUT FILENAME        mobley_1019269_min
Info: BINARY OUTPUT FILES WILL BE USED
Info: RESTART FILENAME       mobley_1019269_min.restart
Info: RESTART FREQUENCY      5000
Info: BINARY RESTART FILES WILL BE USED
Info: CUTOFF                 9
Info: PAIRLIST DISTANCE      11
Info: PAIRLIST SHRINK RATE   0.01
Info: PAIRLIST GROW RATE     0.01
Info: PAIRLIST TRIGGER       0.3
Info: PAIRLISTS PER CYCLE    2
Info: PAIRLISTS ENABLED
Info: MARGIN                 1
Info: HYDROGEN GROUP CUTOFF  2.5
Info: PATCH DIMENSION        14.5
Info: ENERGY OUTPUT STEPS    5000
Info: ENERGY EVALUATION STEPS    5000
Info: OUTPUT ENERGY PRECISION 4
Info: CROSSTERM ENERGY INCLUDED IN DIHEDRAL
Info: TIMING OUTPUT STEPS    50000
Info: PRESSURE OUTPUT STEPS  5000
Info: LANGEVIN DYNAMICS ACTIVE
Info: LANGEVIN TEMPERATURE   300
Info: LANGEVIN USING BBK INTEGRATOR
Info: LANGEVIN DAMPING COEFFICIENT IS 1 INVERSE PS
Info: LANGEVIN DYNAMICS APPLIED TO HYDROGENS
Info: LANGEVIN PISTON PRESSURE CONTROL ACTIVE
Info:        TARGET PRESSURE IS 1.01325 BAR
Info:     OSCILLATION PERIOD IS 50 FS
Info:             DECAY TIME IS 25 FS
Info:     PISTON TEMPERATURE IS 300 K
Info:       PRESSURE CONTROL IS GROUP-BASED
Info:    INITIAL STRAIN RATE IS 0 0 0
Info:       CELL FLUCTUATION IS ISOTROPIC
Info: PARTICLE MESH EWALD (PME) ACTIVE
Info: PME TOLERANCE               1e-06
Info: PME EWALD COEFFICIENT       0.348832
Info: PME INTERPOLATION ORDER     4
Info: PME GRID DIMENSIONS         44 40 40
Info: PME MAXIMUM GRID SPACING    1
Info: FULL ELECTROSTATIC EVALUATION FREQUENCY      2
Info: USING VERLET I (r-RESPA) MTS SCHEME.
Info: C1 SPLITTING OF LONG RANGE ELECTROSTATICS
Info: PLACING ATOMS IN PATCHES BY HYDROGEN GROUPS
Info: RIGID BONDS TO HYDROGEN : ALL
Info:         ERROR TOLERANCE : 1e-08
Info:          MAX ITERATIONS : 100
Info: RIGID WATER USING SETTLE ALGORITHM
Info: RANDOM NUMBER SEED     1741062815
Info: USE HYDROGEN BONDS?    NO
Info: Using AMBER format force field!
Info: AMBER PARM FILE        mobley_1019269.prmtop
Info: COORDINATE PDB         mobley_1019269.pdb
Info: Exclusions will be read from PARM file!
Info: SCNB (VDW SCALING)     2
Info: USING ARITHMETIC MEAN TO COMBINE L-J SIGMA PARAMETERS
Info: SUMMARY OF PARAMETERS:
Info: 7 BONDS
Info: 8 ANGLES
Info:   8 HARMONIC
Info:   0 COSINE-BASED
Info: 8 DIHEDRAL
Info: 0 IMPROPER
Info: 0 CROSSTERM
Info: 0 VDW
Info: 28 VDW_PAIRS
Info: 0 NBTHOLE_PAIRS
Info: STRUCTURE SUMMARY:
Info: 4695 ATOMS
Info: 4694 BONDS
Info: 25 ANGLES
Info: 30 DIHEDRALS
Info: 0 IMPROPERS
Info: 0 CROSSTERMS
Info: 4749 EXCLUSIONS
Info: 4690 RIGID BONDS
Info: 9395 DEGREES OF FREEDOM
Info: 1565 HYDROGEN GROUPS
Info: 4 ATOMS IN LARGEST HYDROGEN GROUP
Info: 1565 MIGRATION GROUPS
Info: 4 ATOMS IN LARGEST MIGRATION GROUP
Info: TOTAL MASS = 28179.1 amu
Info: TOTAL CHARGE = 0.000199992 e
Info: MASS DENSITY = 0.721075 g/cm^3
Info: ATOM DENSITY = 0.0723485 atoms/A^3
Info: ADDED 0 IMPLICIT EXCLUSIONS
Info: NONBONDED TABLE R-SQUARED SPACING: 0.0625
Info: NONBONDED TABLE SIZE: 705 POINTS
Info: REMOVING COM VELOCITY 0.126595 -0.0710077 -0.0342795
TCL: Minimizing for 2000 steps
ETITLE: TS BOND ANGLE DIHED IMPRP ELECT VDW BOUNDARY MISC KINETIC TOTAL TEMP POTENTIAL TOTAL3 TEMPAVG PRESSURE GPRESSURE VOLUME PRESSAVG GPRESSAVG
ENERGY: 0 0.1105 0.3445 0.0130 0.0000 -14664.4476 1643.7797 0.0000 0.0000 0.0000 -13020.1999 0.0000 -13020.1999 -13020.1999 0.0000 10964.2054 -16516.5423 64894.1903 10964.2054 -16516.5423
ENERGY: 400 2.6631 2.6734 0.0723 0.0000 -19792.9184 2909.0409 0.0000 0.0000 0.0000 -16878.4687 0.0000 -16878.4687 -16878.4687 0.0000 15906.7850 16074.8758 64894.1903 15906.7850 16074.8758
ENERGY: 800 3.0782 2.4693 0.0753 0.0000 -20898.0721 3440.2077 0.0000 0.0000 0.0000 -17452.2415 0.0000 -17452.2415 -17452.2415 0.0000 18496.2661 18642.4708 64894.1903 18496.2661 18642.4708
ENERGY: 1200 0.1565 0.4248 0.0254 0.0000 -21213.8104 3588.6420 0.0000 0.0000 0.0000 -17624.5617 0.0000 -17624.5617 -17624.5617 0.0000 19283.9718 19409.3414 64894.1903 19283.9718 19409.3414
ENERGY: 1600 0.2559 0.2027 0.0458 0.0000 -21402.4684 3686.8977 0.0000 0.0000 0.0000 -17715.0664 0.0000 -17715.0664 -17715.0664 0.0000 19788.7228 19913.9442 64894.1903 19788.7228 19913.9442
ENERGY: 2000 0.1238 0.1893 0.1473 0.0000 -21555.7846 3780.7371 0.0000 0.0000 0.0000 -17774.5871 0.0000 -17774.5871 -17774.5871 0.0000 20304.4772 20423.7180 64894.1903 20304.4772 20423.7180
TCL: Exiting due to exit command.
Info: NAMD 3.0.1 for Linux-x86_64-multicore
Info: Please visit http://www.ks.uiuc.edu/Research/namd/
Info: for updates, documentation, and support information.
Info: Please cite Phillips et al., J. Chem. Phys. 153:044130 (2020) doi:10.1063/5.0014475
Info: in all publications reporting results obtained with NAMD.
Info: Based on Charm++/Converse 80000 for multicore-linux-x86_64-gcc
Info: Built Mon Oct 14 11:11:06 CDT 2024 by dhardy on athine.ks.uiuc.edu
Info: 1 NAMD  3.0.1  Linux-x86_64-multicore  16    k120  z5358697
Info: Running on 16 processors, 1 nodes, 1 physical nodes.
Info: CPU topology information available.
Info: Charm++/Converse parallel runtime startup completed at 0.00735911 s
Info: 1043.48 MB of memory in use based on /proc/self/stat
Info: Configuration file is mobley_1019269_equil.namd
Info: Working in the current directory /srv/scratch/z5358697/prod/1019269/prep
TCL: Running 25000 steps at 30 kelvin.
TCL: Suspending until startup complete.
Info: SIMULATION PARAMETERS:
Info: TIMESTEP               2
Info: NUMBER OF STEPS        0
Info: STEPS PER CYCLE        10
Info: PERIODIC CELL BASIS 1  41.545 0 0
Info: PERIODIC CELL BASIS 2  0 39.93 0
Info: PERIODIC CELL BASIS 3  0 0 39.119
Info: PERIODIC CELL CENTER   0 0 0
Info: WRAPPING WATERS AROUND PERIODIC BOUNDARIES ON OUTPUT.
Info: WRAPPING ALL CLUSTERS AROUND PERIODIC BOUNDARIES ON OUTPUT.
Info: FIRST LDB TIMESTEP     50
Info: LAST LDB TIMESTEP     -1
Info: HOM BACKGROUND SCALING 1
Info: PME BACKGROUND SCALING 1
Info: MIN ATOMS PER PATCH    40
Info: EMPTY PATCH LOAD       40 ATOMS
Info: INITIAL TEMPERATURE    300
Info: CENTER OF MASS MOVING INITIALLY? NO
Info: DIELECTRIC             1
Info: EXCLUDE                SCALED ONE-FOUR
Info: 1-4 ELECTROSTATICS SCALED BY 0.833333
Info: MODIFIED 1-4 VDW PARAMETERS WILL BE USED
Info: DCD FILENAME           mobley_1019269_equil.dcd
Info: DCD FREQUENCY          5000
Info: DCD FIRST STEP         5000
Info: DCD FILE WILL CONTAIN UNIT CELL DATA
Info: XST FILENAME           mobley_1019269_equil.xst
Info: XST FREQUENCY          5000
Info: NO VELOCITY DCD OUTPUT
Info: NO FORCE DCD OUTPUT
Info: OUTPUT FILENAME        mobley_1019269_equil
Info: BINARY OUTPUT FILES WILL BE USED
Info: RESTART FILENAME       mobley_1019269_equil.restart
Info: RESTART FREQUENCY      5000
Info: BINARY RESTART FILES WILL BE USED
Info: CUTOFF                 9
Info: PAIRLIST DISTANCE      11
Info: PAIRLIST SHRINK RATE   0.01
Info: PAIRLIST GROW RATE     0.01
Info: PAIRLIST TRIGGER       0.3
Info: PAIRLISTS PER CYCLE    2
Info: PAIRLISTS ENABLED
Info: MARGIN                 1
Info: HYDROGEN GROUP CUTOFF  2.5
Info: PATCH DIMENSION        14.5
Info: ENERGY OUTPUT STEPS    5000
Info: ENERGY EVALUATION STEPS    5000
Info: OUTPUT ENERGY PRECISION 4
Info: CROSSTERM ENERGY INCLUDED IN DIHEDRAL
Info: TIMING OUTPUT STEPS    50000
Info: PRESSURE OUTPUT STEPS  5000
Info: LANGEVIN DYNAMICS ACTIVE
Info: LANGEVIN TEMPERATURE   30
Info: LANGEVIN USING BBK INTEGRATOR
Info: LANGEVIN DAMPING COEFFICIENT IS 1 INVERSE PS
Info: LANGEVIN DYNAMICS APPLIED TO HYDROGENS
Info: LANGEVIN PISTON PRESSURE CONTROL ACTIVE
Info:        TARGET PRESSURE IS 1.01325 BAR
Info:     OSCILLATION PERIOD IS 50 FS
Info:             DECAY TIME IS 25 FS
Info:     PISTON TEMPERATURE IS 300 K
Info:       PRESSURE CONTROL IS GROUP-BASED
Info:    INITIAL STRAIN RATE IS 0 0 0
Info:       CELL FLUCTUATION IS ISOTROPIC
Info: PARTICLE MESH EWALD (PME) ACTIVE
Info: PME TOLERANCE               1e-06
Info: PME EWALD COEFFICIENT       0.348832
Info: PME INTERPOLATION ORDER     4
Info: PME GRID DIMENSIONS         44 40 40
Info: PME MAXIMUM GRID SPACING    1
Info: FULL ELECTROSTATIC EVALUATION FREQUENCY      2
Info: USING VERLET I (r-RESPA) MTS SCHEME.
Info: C1 SPLITTING OF LONG RANGE ELECTROSTATICS
Info: PLACING ATOMS IN PATCHES BY HYDROGEN GROUPS
Info: RIGID BONDS TO HYDROGEN : ALL
Info:         ERROR TOLERANCE : 1e-08
Info:          MAX ITERATIONS : 100
Info: RIGID WATER USING SETTLE ALGORITHM
Info: RANDOM NUMBER SEED     1741062832
Info: USE HYDROGEN BONDS?    NO
Info: Using AMBER format force field!
Info: AMBER PARM FILE        mobley_1019269.prmtop
Info: COORDINATE PDB         mobley_1019269.pdb
Info: Exclusions will be read from PARM file!
Info: SCNB (VDW SCALING)     2
Info: USING ARITHMETIC MEAN TO COMBINE L-J SIGMA PARAMETERS
Info: BINARY COORDINATES     mobley_1019269_min.coor
Info: SUMMARY OF PARAMETERS:
Info: 7 BONDS
Info: 8 ANGLES
Info:   8 HARMONIC
Info:   0 COSINE-BASED
Info: 8 DIHEDRAL
Info: 0 IMPROPER
Info: 0 CROSSTERM
Info: 0 VDW
Info: 28 VDW_PAIRS
Info: 0 NBTHOLE_PAIRS
Info: STRUCTURE SUMMARY:
Info: 4695 ATOMS
Info: 4694 BONDS
Info: 25 ANGLES
Info: 30 DIHEDRALS
Info: 0 IMPROPERS
Info: 0 CROSSTERMS
Info: 4749 EXCLUSIONS
Info: 4690 RIGID BONDS
Info: 9395 DEGREES OF FREEDOM
Info: 1565 HYDROGEN GROUPS
Info: 4 ATOMS IN LARGEST HYDROGEN GROUP
Info: 1565 MIGRATION GROUPS
Info: 4 ATOMS IN LARGEST MIGRATION GROUP
Info: TOTAL MASS = 28179.1 amu
Info: TOTAL CHARGE = 0.000199992 e
Info: MASS DENSITY = 0.721075 g/cm^3
Info: ATOM DENSITY = 0.0723485 atoms/A^3
Info: ADDED 0 IMPLICIT EXCLUSIONS
Info: NONBONDED TABLE R-SQUARED SPACING: 0.0625
Info: NONBONDED TABLE SIZE: 705 POINTS
Info: REMOVING COM VELOCITY 0.0466046 0.0269913 0.0566609
TCL: Running for 25000 steps
ETITLE: TS BOND ANGLE DIHED IMPRP ELECT VDW BOUNDARY MISC KINETIC TOTAL TEMP POTENTIAL TOTAL3 TEMPAVG PRESSURE GPRESSURE VOLUME PRESSAVG GPRESSAVG
ENERGY: 0 0.1238 0.1893 0.1473 0.0000 -21555.7846 3780.7371 0.0000 0.0000 2805.1455 -14969.4416 300.5031 -17774.5871 -14968.8779 300.5031 432.2766 471.5250 64894.1903 432.2766 471.5250
ENERGY: 5000 0.0430 0.9311 0.1721 0.0000 -22629.0556 3964.8171 0.0000 0.0000 291.6400 -18371.4523 31.2421 -18663.0923 -18370.5810 48.2384 363.3457 436.0485 45148.9444 1.1411 1.1878
ENERGY: 10000 0.1165 0.6569 0.1371 0.0000 -22612.1088 3915.7247 0.0000 0.0000 282.8128 -18412.6609 30.2965 -18695.4737 -18412.2912 30.4219 47.9081 100.0163 45153.8606 -0.9059 -1.0219
ENERGY: 15000 0.5784 0.7151 0.2614 0.0000 -22486.1825 3779.9911 0.0000 0.0000 279.1299 -18425.5066 29.9020 -18704.6364 -18424.5826 30.0825 -819.3327 -742.1970 45462.0052 1.9643 1.7998
ENERGY: 20000 0.1435 0.7348 0.5003 0.0000 -22692.5271 3966.6103 0.0000 0.0000 287.6710 -18436.8672 30.8170 -18724.5382 -18436.2276 30.2365 245.4323 282.5954 45143.0901 4.2777 4.2958
ENERGY: 25000 0.3522 0.7438 0.1503 0.0000 -22618.2458 3893.7928 0.0000 0.0000 282.4732 -18440.7334 30.2601 -18723.2066 -18439.8713 30.0142 -162.7673 -112.1225 45296.6531 4.4566 4.3867
TCL: Running 25000 steps at 60 kelvin.
TCL: Setting parameter langevinTemp to 60
TCL: Running for 25000 steps
ETITLE: TS BOND ANGLE DIHED IMPRP ELECT VDW BOUNDARY MISC KINETIC TOTAL TEMP POTENTIAL TOTAL3 TEMPAVG PRESSURE GPRESSURE VOLUME PRESSAVG GPRESSAVG
ENERGY: 25000 0.3522 0.7438 0.1503 0.0000 -22618.2458 3893.7928 0.0000 0.0000 282.3326 -18440.8740 30.2451 -18723.2066 -18440.2051 30.2451 -165.5491 -112.0570 45296.6531 -165.5491 -112.0570
ENERGY: 30000 0.3244 1.7809 0.1303 0.0000 -22117.5356 3668.9241 0.0000 0.0000 559.3356 -17887.0404 59.9192 -18446.3759 -17885.8637 56.8182 -740.1684 -686.6918 45821.0845 0.6979 0.7920
ENERGY: 35000 0.2160 0.6601 0.1958 0.0000 -22317.3150 3807.0697 0.0000 0.0000 562.8290 -17946.3444 60.2934 -18509.1734 -17945.2273 60.3798 -56.1901 17.6900 45259.8360 -2.3133 -2.5828
ENERGY: 40000 0.5007 1.3112 0.2813 0.0000 -22359.7009 3850.3231 0.0000 0.0000 567.2780 -17940.0065 60.7700 -18507.2845 -17938.2965 60.3698 250.4660 311.4126 45075.9350 2.6502 2.4655
ENERGY: 45000 0.3410 0.8566 0.1326 0.0000 -22196.4032 3647.3110 0.0000 0.0000 555.2783 -17992.4836 59.4846 -18547.7619 -17990.6782 60.3926 -967.4212 -950.0308 45427.3531 7.6835 7.7849
ENERGY: 50000 0.1872 1.6630 0.1307 0.0000 -22200.6332 3653.4340 0.0000 0.0000 560.4604 -17984.7579 60.0397 -18545.2183 -17983.4447 60.2695 -989.2816 -957.5801 45507.3642 8.9617 8.8669
TCL: Running 25000 steps at 90 kelvin.
TCL: Setting parameter langevinTemp to 90
TCL: Running for 25000 steps
ETITLE: TS BOND ANGLE DIHED IMPRP ELECT VDW BOUNDARY MISC KINETIC TOTAL TEMP POTENTIAL TOTAL3 TEMPAVG PRESSURE GPRESSURE VOLUME PRESSAVG GPRESSAVG
ENERGY: 50000 0.1872 1.6630 0.1307 0.0000 -22200.6332 3653.4340 0.0000 0.0000 560.1810 -17985.0374 60.0098 -18545.2183 -17983.6794 60.0098 -1012.3575 -957.6566 45507.3642 -1012.3575 -957.6566
ENERGY: 55000 0.5644 1.4638 0.4527 0.0000 -21956.2648 3681.3957 0.0000 0.0000 850.5108 -17421.8773 91.1116 -18272.3882 -17420.3409 87.1806 -63.1343 -0.9203 45293.9882 4.5143 4.6845
ENERGY: 60000 0.1327 1.8872 0.3399 0.0000 -22001.2354 3665.3767 0.0000 0.0000 827.7959 -17505.7031 88.6782 -18333.4990 -17503.2226 91.0354 -336.9812 -309.5981 45377.8377 -0.7064 -0.7021
ENERGY: 65000 0.7446 1.9566 0.3721 0.0000 -22105.2355 3753.0527 0.0000 0.0000 851.0625 -17498.0470 91.1707 -18349.1095 -17496.1971 90.3894 59.1839 103.5392 45150.1490 1.9056 2.2323
ENERGY: 70000 0.2430 2.5841 0.2637 0.0000 -22146.2223 3740.8656 0.0000 0.0000 829.3366 -17572.9293 88.8433 -18402.2659 -17571.0670 89.8174 -181.4944 -112.9930 45303.9890 6.1448 5.7913
ENERGY: 75000 0.5880 2.3261 0.2983 0.0000 -22200.1329 3773.7410 0.0000 0.0000 857.6199 -17565.5596 91.8731 -18423.1795 -17563.5559 89.4084 -63.8127 22.8715 45301.0475 2.8399 2.7414
TCL: Running 25000 steps at 120 kelvin.
TCL: Setting parameter langevinTemp to 120
TCL: Running for 25000 steps
ETITLE: TS BOND ANGLE DIHED IMPRP ELECT VDW BOUNDARY MISC KINETIC TOTAL TEMP POTENTIAL TOTAL3 TEMPAVG PRESSURE GPRESSURE VOLUME PRESSAVG GPRESSAVG
ENERGY: 75000 0.5880 2.3261 0.2983 0.0000 -22200.1329 3773.7410 0.0000 0.0000 857.2053 -17565.9742 91.8287 -18423.1795 -17564.3594 91.8287 -33.1368 23.0610 45301.0475 -33.1368 23.0610
ENERGY: 80000 0.3364 2.3735 0.0990 0.0000 -21709.9724 3606.3857 0.0000 0.0000 1126.5197 -16974.2581 120.6792 -18100.7778 -16970.8516 116.6507 -211.5851 -169.3438 45725.0855 -0.3314 -0.1419
ENERGY: 85000 0.2194 1.7279 0.8932 0.0000 -21881.4246 3757.8635 0.0000 0.0000 1145.7112 -16975.0095 122.7351 -18120.7207 -16972.4507 120.9337 420.1684 528.0984 45623.0534 -0.5955 -0.3198
ENERGY: 90000 0.3775 2.2571 0.3006 0.0000 -21685.1964 3510.8325 0.0000 0.0000 1151.7951 -17019.6337 123.3868 -18171.4288 -17015.4433 120.6263 -820.2085 -754.1011 45654.0935 4.8316 5.1116
ENERGY: 95000 0.2658 1.1648 1.4939 0.0000 -21769.8799 3576.4817 0.0000 0.0000 1098.2665 -17092.2073 117.6525 -18190.4737 -17089.9402 120.6027 -548.5419 -467.5339 45560.3703 5.6468 4.9503
ENERGY: 100000 0.1941 3.7008 0.1902 0.0000 -21902.9065 3719.9975 0.0000 0.0000 1111.4206 -17067.4034 119.0617 -18178.8239 -17065.1521 119.1792 337.8442 376.8578 45323.1076 2.2324 2.3345
TCL: Running 25000 steps at 150 kelvin.
TCL: Setting parameter langevinTemp to 150
TCL: Running for 25000 steps
ETITLE: TS BOND ANGLE DIHED IMPRP ELECT VDW BOUNDARY MISC KINETIC TOTAL TEMP POTENTIAL TOTAL3 TEMPAVG PRESSURE GPRESSURE VOLUME PRESSAVG GPRESSAVG
ENERGY: 100000 0.1941 3.7008 0.1902 0.0000 -21902.9065 3719.9975 0.0000 0.0000 1110.8626 -17067.9613 119.0019 -18178.8239 -17065.8021 119.0019 314.4602 376.4525 45323.1076 314.4602 376.4525
ENERGY: 105000 0.1351 3.5532 0.2465 0.0000 -21501.9665 3704.9035 0.0000 0.0000 1372.8210 -16420.3072 147.0644 -17793.1282 -16418.7974 146.6138 929.8740 952.5737 45867.1927 3.6455 3.9769
ENERGY: 110000 1.3160 3.0312 1.0088 0.0000 -21441.2143 3581.4960 0.0000 0.0000 1436.1007 -16418.2617 153.8433 -17854.3623 -16414.9810 150.1425 -11.3473 109.2103 46158.4553 -3.4131 -3.1849
ENERGY: 115000 0.3772 1.3434 0.8205 0.0000 -21400.8515 3541.2615 0.0000 0.0000 1373.7153 -16483.3336 147.1602 -17857.0488 -16479.5506 149.0930 -166.2309 -98.2276 46151.4935 4.8181 4.4353
ENERGY: 120000 0.4454 4.4723 1.1125 0.0000 -21317.4138 3444.0770 0.0000 0.0000 1406.5854 -16460.7212 150.6814 -17867.3066 -16456.4847 151.1307 -632.4826 -592.8696 46182.6515 8.3261 8.3584
ENERGY: 125000 0.5971 3.7956 0.2823 0.0000 -21499.4032 3594.5794 0.0000 0.0000 1391.9375 -16508.2114 149.1123 -17900.1489 -16504.7490 150.2999 159.2614 204.3837 45894.8960 1.6770 1.7598
TCL: Running 50000 steps at 180 kelvin.
TCL: Setting parameter langevinTemp to 180
TCL: Running for 50000 steps
ETITLE: TS BOND ANGLE DIHED IMPRP ELECT VDW BOUNDARY MISC KINETIC TOTAL TEMP POTENTIAL TOTAL3 TEMPAVG PRESSURE GPRESSURE VOLUME PRESSAVG GPRESSAVG
ENERGY: 125000 0.5971 3.7956 0.2823 0.0000 -21499.4032 3594.5794 0.0000 0.0000 1391.2549 -16508.8940 149.0391 -17900.1489 -16507.0073 149.0391 142.7787 205.0783 45894.8960 142.7787 205.0783
ENERGY: 135000 0.6587 5.0997 0.4041 0.0000 -20906.6485 3398.4001 0.0000 0.0000 1685.9005 -15816.1853 180.6032 -17502.0858 -15811.2223 180.1576 74.6247 137.3157 46000.9743 5.9324 5.8494
ENERGY: 145000 0.5737 6.5984 0.4786 0.0000 -20937.3657 3435.1497 0.0000 0.0000 1670.2746 -15824.2908 178.9293 -17494.5654 -15821.4690 179.1803 243.6106 298.4051 45910.6085 0.8544 0.7042
ENERGY: 155000 1.3413 4.5431 0.3272 0.0000 -20725.8600 3211.6842 0.0000 0.0000 1650.1091 -15857.8550 176.7691 -17507.9642 -15853.0481 180.5933 -1031.9532 -995.0509 46231.6302 5.0725 4.3503
ENERGY: 165000 1.1210 3.7522 0.7425 0.0000 -21060.0981 3482.6926 0.0000 0.0000 1682.4535 -15889.3363 180.2340 -17571.7898 -15885.6475 179.7344 331.3367 403.6649 45908.1946 2.9158 2.9054
ENERGY: 175000 0.7553 2.5764 0.2989 0.0000 -20802.7167 3293.7590 0.0000 0.0000 1670.6138 -15834.7132 178.9656 -17505.3271 -15831.6957 179.0678 -376.3519 -336.2213 45919.1135 3.9012 3.7837
TCL: Running 50000 steps at 210 kelvin.
TCL: Setting parameter langevinTemp to 210
TCL: Running for 50000 steps
ETITLE: TS BOND ANGLE DIHED IMPRP ELECT VDW BOUNDARY MISC KINETIC TOTAL TEMP POTENTIAL TOTAL3 TEMPAVG PRESSURE GPRESSURE VOLUME PRESSAVG GPRESSAVG
ENERGY: 175000 0.7553 2.5764 0.2989 0.0000 -20802.7167 3293.7590 0.0000 0.0000 1669.7608 -15835.5663 178.8743 -17505.3271 -15832.7541 178.8743 -385.9540 -335.8175 45919.1135 -385.9540 -335.8175
ENERGY: 185000 0.1393 6.2364 1.5008 0.0000 -19826.1198 2986.5779 0.0000 0.0000 2005.5221 -14826.1432 214.8429 -16831.6653 -14819.4978 211.3459 -467.2621 -357.3948 46057.1726 3.9544 4.6087
ENERGY: 195000 1.3149 3.6249 2.0515 0.0000 -19680.7502 2922.3937 0.0000 0.0000 1957.3292 -14794.0360 209.6802 -16751.3652 -14791.6726 209.5271 -732.9029 -620.8233 46169.0996 3.8224 3.3254
ENERGY: 205000 0.4347 3.9460 0.4616 0.0000 -19895.8343 3064.0383 0.0000 0.0000 1960.3787 -14866.5750 210.0069 -16826.9537 -14861.1346 210.9214 -9.5052 79.5534 45808.5194 6.8289 6.1794
ENERGY: 215000 0.4036 7.0576 0.7191 0.0000 -19764.4712 3002.3556 0.0000 0.0000 1941.1025 -14812.8328 207.9419 -16753.9353 -14810.1822 209.4755 -12.0580 80.2409 45393.5096 1.8708 2.2077
ENERGY: 225000 1.7732 7.0320 0.6149 0.0000 -19900.7790 3122.1455 0.0000 0.0000 1976.5360 -14792.6774 211.7378 -16769.2134 -14788.8156 210.6286 509.5070 536.5620 45720.8693 2.0590 2.3636
TCL: Running 50000 steps at 240 kelvin.
TCL: Setting parameter langevinTemp to 240
TCL: Running for 50000 steps
ETITLE: TS BOND ANGLE DIHED IMPRP ELECT VDW BOUNDARY MISC KINETIC TOTAL TEMP POTENTIAL TOTAL3 TEMPAVG PRESSURE GPRESSURE VOLUME PRESSAVG GPRESSAVG
ENERGY: 225000 1.7732 7.0320 0.6149 0.0000 -19900.7790 3122.1455 0.0000 0.0000 1975.5551 -14793.6584 211.6327 -16769.2134 -14790.8034 211.6327 464.4758 537.0863 45720.8693 464.4758 537.0863
ENERGY: 235000 1.0201 3.4405 0.2159 0.0000 -18939.5705 2873.3385 0.0000 0.0000 2192.4973 -13869.0581 234.8728 -16061.5554 -13862.0219 240.7806 629.9839 762.7931 46014.9615 4.3791 4.7615
ENERGY: 245000 1.9093 5.6532 0.5708 0.0000 -18695.7632 2641.8745 0.0000 0.0000 2226.1456 -13819.6099 238.4774 -16045.7554 -13812.2697 240.3128 -464.5437 -417.6124 46098.7506 8.6519 9.2951
ENERGY: 255000 1.4031 4.2874 0.4554 0.0000 -18910.7742 2797.1625 0.0000 0.0000 2280.5922 -13826.8737 244.3100 -16107.4659 -13826.9805 242.8491 301.6722 375.9860 46132.4333 3.5390 3.3491
ENERGY: 265000 1.1969 4.7969 0.9063 0.0000 -19022.3225 2831.2752 0.0000 0.0000 2204.8838 -13979.2633 236.1997 -16184.1471 -13973.3716 239.8229 62.2616 132.6177 46345.1130 7.3105 5.8154
ENERGY: 275000 0.5337 6.4152 0.8445 0.0000 -19020.3635 2899.5781 0.0000 0.0000 2257.9576 -13855.0345 241.8852 -16112.9920 -13850.5082 241.7597 569.5679 669.4975 46335.0783 5.1115 4.9027
TCL: Running 50000 steps at 270 kelvin.
TCL: Setting parameter langevinTemp to 270
TCL: Running for 50000 steps
ETITLE: TS BOND ANGLE DIHED IMPRP ELECT VDW BOUNDARY MISC KINETIC TOTAL TEMP POTENTIAL TOTAL3 TEMPAVG PRESSURE GPRESSURE VOLUME PRESSAVG GPRESSAVG
ENERGY: 275000 0.5337 6.4152 0.8445 0.0000 -19020.3635 2899.5781 0.0000 0.0000 2256.8632 -13856.1289 241.7680 -16112.9920 -13852.5840 241.7680 584.2701 670.0108 46335.0783 584.2701 670.0108
ENERGY: 285000 0.9404 5.0622 0.5470 0.0000 -17919.3943 2479.8739 0.0000 0.0000 2486.3456 -12946.6253 266.3515 -15432.9708 -12939.4271 270.4640 -245.8167 -238.2310 47250.8794 3.2293 3.0251
ENERGY: 295000 0.8876 4.5332 0.4830 0.0000 -17844.6613 2486.1772 0.0000 0.0000 2529.2963 -12823.2840 270.9526 -15352.5804 -12819.9205 271.3114 -98.3399 -13.6409 47472.6148 -0.3665 0.0247
ENERGY: 305000 2.2779 4.1813 0.4542 0.0000 -18058.9136 2567.0470 0.0000 0.0000 2506.8482 -12978.1051 268.5478 -15484.9533 -12972.5823 271.5766 195.7498 245.8133 46762.3991 2.8270 2.3557
ENERGY: 315000 1.1701 5.1376 0.3665 0.0000 -17851.1264 2437.8055 0.0000 0.0000 2619.6528 -12786.9940 280.6321 -15406.6468 -12779.7059 269.0106 -340.7314 -266.1242 47274.9671 1.6960 1.0121
ENERGY: 325000 1.5220 6.7050 1.5952 0.0000 -17784.0040 2431.0130 0.0000 0.0000 2544.9139 -12798.2549 272.6256 -15343.1688 -12791.2416 271.3672 -253.1862 -150.5255 47128.2039 2.5615 1.5954
TCL: Running 1000000 steps at 300 kelvin.
TCL: Setting parameter langevinTemp to 300
TCL: Running for 1000000 steps
ETITLE: TS BOND ANGLE DIHED IMPRP ELECT VDW BOUNDARY MISC KINETIC TOTAL TEMP POTENTIAL TOTAL3 TEMPAVG PRESSURE GPRESSURE VOLUME PRESSAVG GPRESSAVG
ENERGY: 325000 1.5220 6.7050 1.5952 0.0000 -17784.0040 2431.0130 0.0000 0.0000 2543.6685 -12799.5003 272.4922 -15343.1688 -12795.6936 272.4922 -234.1195 -148.6941 47128.2039 -234.1195 -148.6941
ENERGY: 525000 1.4785 3.5636 1.7323 0.0000 -17292.7620 2411.7946 0.0000 0.0000 2744.1950 -12129.9981 293.9738 -14874.1931 -12126.6399 301.4047 402.3662 511.7250 47818.0992 -1.4867 -1.0632
ENERGY: 725000 0.7334 10.0084 0.4232 0.0000 -16994.4604 2240.9526 0.0000 0.0000 2798.5358 -11943.8071 299.7951 -14742.3429 -11935.4802 302.2223 -236.2068 -188.3959 48523.4993 5.1998 4.8587
ENERGY: 925000 0.3931 4.3372 2.5926 0.0000 -17006.9536 2311.7689 0.0000 0.0000 2806.6159 -11881.2459 300.6606 -14687.8618 -11878.2561 299.4615 -13.7592 35.2003 48790.3035 5.1354 4.9538
ENERGY: 1125000 1.4462 9.6536 2.0533 0.0000 -16916.0762 2207.5855 0.0000 0.0000 2769.1986 -11926.1390 296.6523 -14695.3376 -11923.3140 300.0024 -455.8070 -371.0971 48689.1580 -1.0239 -0.5024
ENERGY: 1325000 0.3649 4.3274 0.3825 0.0000 -17120.5463 2323.3944 0.0000 0.0000 2828.8071 -11963.2700 303.0379 -14792.0771 -11958.4216 300.5060 191.7051 265.1425 48252.7484 5.2943 5.3500
TCL: Exiting due to exit command.
