Info: SIMULATION PARAMETERS:
Info: TIMESTEP               2
Info: NUMBER OF STEPS        0
Info: STEPS PER CYCLE        10
Info: PERIODIC CELL BASIS 1  38.861 0 0
Info: PERIODIC CELL BASIS 2  0 39.013 0
Info: PERIODIC CELL BASIS 3  0 0 39.271
Info: PERIODIC CELL CENTER   0 0 0
Info: WRAPPING WATERS AROUND PERIODIC BOUNDARIES ON OUTPUT.
Info: WRAPPING ALL CLUSTERS AROUND PERIODIC BOUNDARIES ON OUTPUT.
Info: FIRST LDB TIMESTEP     50
Info: LAST LDB TIMESTEP     -1
Info: HOM BACKGROUND SCALING 1
Info: PME BACKGROUND SCALING 1
Info: MIN ATOMS PER PATCH    40
Info: EMPTY PATCH LOAD       40 ATOMS
Info: INITIAL TEMPERATURE    300
Info: CENTER OF MASS MOVING INITIALLY? NO
Info: DIELECTRIC             1
Info: EXCLUDE                SCALED ONE-FOUR
Info: 1-4 ELECTROSTATICS SCALED BY 0.833333
Info: MODIFIED 1-4 VDW PARAMETERS WILL BE USED
Info: DCD FILENAME           mobley_3034976_min.dcd
Info: DCD FREQUENCY          5000
Info: DCD FIRST STEP         5000
Info: DCD FILE WILL CONTAIN UNIT CELL DATA
Info: XST FILENAME           mobley_3034976_min.xst
Info: XST FREQUENCY          5000
Info: NO VELOCITY DCD OUTPUT
Info: NO FORCE DCD OUTPUT
Info: OUTPUT FILENAME        mobley_3034976_min
Info: BINARY OUTPUT FILES WILL BE USED
Info: RESTART FILENAME       mobley_3034976_min.restart
Info: RESTART FREQUENCY      5000
Info: BINARY RESTART FILES WILL BE USED
Info: CUTOFF                 9
Info: PAIRLIST DISTANCE      11
Info: PAIRLIST SHRINK RATE   0.01
Info: PAIRLIST GROW RATE     0.01
Info: PAIRLIST TRIGGER       0.3
Info: PAIRLISTS PER CYCLE    2
Info: PAIRLISTS ENABLED
Info: MARGIN                 8
Info: HYDROGEN GROUP CUTOFF  2.5
Info: PATCH DIMENSION        21.5
Info: ENERGY OUTPUT STEPS    5000
Info: ENERGY EVALUATION STEPS    5000
Info: OUTPUT ENERGY PRECISION 4
Info: CROSSTERM ENERGY INCLUDED IN DIHEDRAL
Info: TIMING OUTPUT STEPS    50000
Info: PRESSURE OUTPUT STEPS  5000
Info: LANGEVIN DYNAMICS ACTIVE
Info: LANGEVIN TEMPERATURE   300
Info: LANGEVIN USING BBK INTEGRATOR
Info: LANGEVIN DAMPING COEFFICIENT IS 1 INVERSE PS
Info: LANGEVIN DYNAMICS APPLIED TO HYDROGENS
Info: LANGEVIN PISTON PRESSURE CONTROL ACTIVE
Info:        TARGET PRESSURE IS 1.01325 BAR
Info:     OSCILLATION PERIOD IS 50 FS
Info:             DECAY TIME IS 25 FS
Info:     PISTON TEMPERATURE IS 300 K
Info:       PRESSURE CONTROL IS GROUP-BASED
Info:    INITIAL STRAIN RATE IS 0 0 0
Info:       CELL FLUCTUATION IS ISOTROPIC
Info: PARTICLE MESH EWALD (PME) ACTIVE
Info: PME TOLERANCE               1e-06
Info: PME EWALD COEFFICIENT       0.348832
Info: PME INTERPOLATION ORDER     4
Info: PME GRID DIMENSIONS         40 40 40
Info: PME MAXIMUM GRID SPACING    1
Info: FULL ELECTROSTATIC EVALUATION FREQUENCY      2
Info: USING VERLET I (r-RESPA) MTS SCHEME.
Info: C1 SPLITTING OF LONG RANGE ELECTROSTATICS
Info: PLACING ATOMS IN PATCHES BY HYDROGEN GROUPS
Info: RIGID BONDS TO HYDROGEN : ALL
Info:         ERROR TOLERANCE : 1e-08
Info:          MAX ITERATIONS : 100
Info: RIGID WATER USING SETTLE ALGORITHM
Info: RANDOM NUMBER SEED     1741324720
Info: USE HYDROGEN BONDS?    NO
Info: Using AMBER format force field!
Info: AMBER PARM FILE        mobley_3034976.prmtop
Info: COORDINATE PDB         mobley_3034976.pdb
Info: Exclusions will be read from PARM file!
Info: SCNB (VDW SCALING)     2
Info: USING ARITHMETIC MEAN TO COMBINE L-J SIGMA PARAMETERS
Info: SUMMARY OF PARAMETERS:
Info: 7 BONDS
Info: 6 ANGLES
Info:   6 HARMONIC
Info:   0 COSINE-BASED
Info: 7 DIHEDRAL
Info: 0 IMPROPER
Info: 0 CROSSTERM
Info: 0 VDW
Info: 36 VDW_PAIRS
Info: 0 NBTHOLE_PAIRS
Info: STRUCTURE SUMMARY:
Info: 4178 ATOMS
Info: 4177 BONDS
Info: 10 ANGLES
Info: 13 DIHEDRALS
Info: 0 IMPROPERS
Info: 0 CROSSTERMS
Info: 4195 EXCLUSIONS
Info: 4174 RIGID BONDS
Info: 8360 DEGREES OF FREEDOM
Info: 1394 HYDROGEN GROUPS
Info: 4 ATOMS IN LARGEST HYDROGEN GROUP
Info: 1394 MIGRATION GROUPS
Info: 4 ATOMS IN LARGEST MIGRATION GROUP
Info: TOTAL MASS = 25102.3 amu
Info: TOTAL CHARGE = -9.98899e-05 e
Info: MASS DENSITY = 0.700128 g/cm^3
Info: ATOM DENSITY = 0.0701735 atoms/A^3
Info: ADDED 0 IMPLICIT EXCLUSIONS
Info: NONBONDED TABLE R-SQUARED SPACING: 0.0625
Info: NONBONDED TABLE SIZE: 705 POINTS
Info: REMOVING COM VELOCITY -0.11886 0.144166 -0.167628
TCL: Minimizing for 2000 steps
ETITLE: TS BOND ANGLE DIHED IMPRP ELECT VDW BOUNDARY MISC KINETIC TOTAL TEMP POTENTIAL TOTAL3 TEMPAVG PRESSURE GPRESSURE VOLUME PRESSAVG GPRESSAVG
ENERGY: 0 0.2364 1.1106 23.2851 0.0000 -12868.9448 1478.7056 0.0000 0.0000 0.0000 -11365.6072 0.0000 -11365.6072 -11365.6072 0.0000 10690.8833 -15044.1872 59538.1423 10690.8833 -15044.1872
ENERGY: 400 8.9385 1.3392 22.0567 0.0000 -17672.7423 2619.8327 0.0000 0.0000 0.0000 -15020.5752 0.0000 -15020.5752 -15020.5752 0.0000 15656.7029 15743.1293 59538.1423 15656.7029 15743.1293
ENERGY: 800 0.5396 0.8392 21.9704 0.0000 -18544.3461 3050.4551 0.0000 0.0000 0.0000 -15470.5418 0.0000 -15470.5418 -15470.5418 0.0000 17918.6236 18007.4923 59538.1423 17918.6236 18007.4923
ENERGY: 1200 0.1033 0.8938 21.7314 0.0000 -18969.5873 3254.6444 0.0000 0.0000 0.0000 -15692.2144 0.0000 -15692.2144 -15692.2144 0.0000 19071.5733 19134.5524 59538.1423 19071.5733 19134.5524
ENERGY: 1600 0.2773 0.7871 21.7192 0.0000 -19074.8547 3282.0076 0.0000 0.0000 0.0000 -15770.0635 0.0000 -15770.0635 -15770.0635 0.0000 19251.9324 19305.8932 59538.1423 19251.9324 19305.8932
ENERGY: 2000 0.1487 1.3156 21.4628 0.0000 -19172.7997 3326.2702 0.0000 0.0000 0.0000 -15823.6024 0.0000 -15823.6024 -15823.6024 0.0000 19486.7803 19532.8452 59538.1423 19486.7803 19532.8452
TCL: Exiting due to exit command.
Info: NAMD 3.0.1 for Linux-x86_64-multicore
Info: Please visit http://www.ks.uiuc.edu/Research/namd/
Info: for updates, documentation, and support information.
Info: Please cite Phillips et al., J. Chem. Phys. 153:044130 (2020) doi:10.1063/5.0014475
Info: in all publications reporting results obtained with NAMD.
Info: Based on Charm++/Converse 80000 for multicore-linux-x86_64-gcc
Info: Built Mon Oct 14 11:11:06 CDT 2024 by dhardy on athine.ks.uiuc.edu
Info: 1 NAMD  3.0.1  Linux-x86_64-multicore  16    k119  z5358697
Info: Running on 16 processors, 1 nodes, 1 physical nodes.
Info: CPU topology information available.
Info: Charm++/Converse parallel runtime startup completed at 0.00713778 s
Info: 1043.48 MB of memory in use based on /proc/self/stat
Info: Configuration file is mobley_3034976_equil.namd
Info: Working in the current directory /srv/scratch/z5358697/prod_prep_3/3034976
TCL: Running 25000 steps at 30 kelvin.
TCL: Suspending until startup complete.
Info: SIMULATION PARAMETERS:
Info: TIMESTEP               2
Info: NUMBER OF STEPS        0
Info: STEPS PER CYCLE        10
Info: PERIODIC CELL BASIS 1  38.861 0 0
Info: PERIODIC CELL BASIS 2  0 39.013 0
Info: PERIODIC CELL BASIS 3  0 0 39.271
Info: PERIODIC CELL CENTER   0 0 0
Info: WRAPPING WATERS AROUND PERIODIC BOUNDARIES ON OUTPUT.
Info: WRAPPING ALL CLUSTERS AROUND PERIODIC BOUNDARIES ON OUTPUT.
Info: FIRST LDB TIMESTEP     50
Info: LAST LDB TIMESTEP     -1
Info: HOM BACKGROUND SCALING 1
Info: PME BACKGROUND SCALING 1
Info: MIN ATOMS PER PATCH    40
Info: EMPTY PATCH LOAD       40 ATOMS
Info: INITIAL TEMPERATURE    300
Info: CENTER OF MASS MOVING INITIALLY? NO
Info: DIELECTRIC             1
Info: EXCLUDE                SCALED ONE-FOUR
Info: 1-4 ELECTROSTATICS SCALED BY 0.833333
Info: MODIFIED 1-4 VDW PARAMETERS WILL BE USED
Info: DCD FILENAME           mobley_3034976_equil.dcd
Info: DCD FREQUENCY          5000
Info: DCD FIRST STEP         5000
Info: DCD FILE WILL CONTAIN UNIT CELL DATA
Info: XST FILENAME           mobley_3034976_equil.xst
Info: XST FREQUENCY          5000
Info: NO VELOCITY DCD OUTPUT
Info: NO FORCE DCD OUTPUT
Info: OUTPUT FILENAME        mobley_3034976_equil
Info: BINARY OUTPUT FILES WILL BE USED
Info: RESTART FILENAME       mobley_3034976_equil.restart
Info: RESTART FREQUENCY      5000
Info: BINARY RESTART FILES WILL BE USED
Info: CUTOFF                 9
Info: PAIRLIST DISTANCE      11
Info: PAIRLIST SHRINK RATE   0.01
Info: PAIRLIST GROW RATE     0.01
Info: PAIRLIST TRIGGER       0.3
Info: PAIRLISTS PER CYCLE    2
Info: PAIRLISTS ENABLED
Info: MARGIN                 8
Info: HYDROGEN GROUP CUTOFF  2.5
Info: PATCH DIMENSION        21.5
Info: ENERGY OUTPUT STEPS    5000
Info: ENERGY EVALUATION STEPS    5000
Info: OUTPUT ENERGY PRECISION 4
Info: CROSSTERM ENERGY INCLUDED IN DIHEDRAL
Info: TIMING OUTPUT STEPS    50000
Info: PRESSURE OUTPUT STEPS  5000
Info: LANGEVIN DYNAMICS ACTIVE
Info: LANGEVIN TEMPERATURE   30
Info: LANGEVIN USING BBK INTEGRATOR
Info: LANGEVIN DAMPING COEFFICIENT IS 1 INVERSE PS
Info: LANGEVIN DYNAMICS APPLIED TO HYDROGENS
Info: LANGEVIN PISTON PRESSURE CONTROL ACTIVE
Info:        TARGET PRESSURE IS 1.01325 BAR
Info:     OSCILLATION PERIOD IS 50 FS
Info:             DECAY TIME IS 25 FS
Info:     PISTON TEMPERATURE IS 300 K
Info:       PRESSURE CONTROL IS GROUP-BASED
Info:    INITIAL STRAIN RATE IS 0 0 0
Info:       CELL FLUCTUATION IS ISOTROPIC
Info: PARTICLE MESH EWALD (PME) ACTIVE
Info: PME TOLERANCE               1e-06
Info: PME EWALD COEFFICIENT       0.348832
Info: PME INTERPOLATION ORDER     4
Info: PME GRID DIMENSIONS         40 40 40
Info: PME MAXIMUM GRID SPACING    1
Info: FULL ELECTROSTATIC EVALUATION FREQUENCY      2
Info: USING VERLET I (r-RESPA) MTS SCHEME.
Info: C1 SPLITTING OF LONG RANGE ELECTROSTATICS
Info: PLACING ATOMS IN PATCHES BY HYDROGEN GROUPS
Info: RIGID BONDS TO HYDROGEN : ALL
Info:         ERROR TOLERANCE : 1e-08
Info:          MAX ITERATIONS : 100
Info: RIGID WATER USING SETTLE ALGORITHM
Info: RANDOM NUMBER SEED     1741324735
Info: USE HYDROGEN BONDS?    NO
Info: Using AMBER format force field!
Info: AMBER PARM FILE        mobley_3034976.prmtop
Info: COORDINATE PDB         mobley_3034976.pdb
Info: Exclusions will be read from PARM file!
Info: SCNB (VDW SCALING)     2
Info: USING ARITHMETIC MEAN TO COMBINE L-J SIGMA PARAMETERS
Info: BINARY COORDINATES     mobley_3034976_min.coor
Info: SUMMARY OF PARAMETERS:
Info: 7 BONDS
Info: 6 ANGLES
Info:   6 HARMONIC
Info:   0 COSINE-BASED
Info: 7 DIHEDRAL
Info: 0 IMPROPER
Info: 0 CROSSTERM
Info: 0 VDW
Info: 36 VDW_PAIRS
Info: 0 NBTHOLE_PAIRS
Info: STRUCTURE SUMMARY:
Info: 4178 ATOMS
Info: 4177 BONDS
Info: 10 ANGLES
Info: 13 DIHEDRALS
Info: 0 IMPROPERS
Info: 0 CROSSTERMS
Info: 4195 EXCLUSIONS
Info: 4174 RIGID BONDS
Info: 8360 DEGREES OF FREEDOM
Info: 1394 HYDROGEN GROUPS
Info: 4 ATOMS IN LARGEST HYDROGEN GROUP
Info: 1394 MIGRATION GROUPS
Info: 4 ATOMS IN LARGEST MIGRATION GROUP
Info: TOTAL MASS = 25102.3 amu
Info: TOTAL CHARGE = -9.98899e-05 e
Info: MASS DENSITY = 0.700128 g/cm^3
Info: ATOM DENSITY = 0.0701735 atoms/A^3
Info: ADDED 0 IMPLICIT EXCLUSIONS
Info: NONBONDED TABLE R-SQUARED SPACING: 0.0625
Info: NONBONDED TABLE SIZE: 705 POINTS
Info: REMOVING COM VELOCITY -0.0945462 0.0633422 0.0185847
TCL: Running for 25000 steps
ETITLE: TS BOND ANGLE DIHED IMPRP ELECT VDW BOUNDARY MISC KINETIC TOTAL TEMP POTENTIAL TOTAL3 TEMPAVG PRESSURE GPRESSURE VOLUME PRESSAVG GPRESSAVG
ENERGY: 0 0.1487 1.3156 21.4628 0.0000 -19172.7997 3326.2702 0.0000 0.0000 2526.0669 -13297.5355 304.1088 -15823.6024 -13296.9763 304.1088 230.4386 267.3672 59538.1423 230.4386 267.3672
ENERGY: 5000 0.0587 1.0071 21.7218 0.0000 -19910.0002 3336.1477 0.0000 0.0000 245.0063 -16306.0586 29.4959 -16551.0649 -16305.6488 48.0244 -771.8057 -724.3708 41733.8169 3.8232 3.7399
ENERGY: 10000 0.0970 0.6595 22.0232 0.0000 -20065.1169 3463.2220 0.0000 0.0000 250.5236 -16328.5917 30.1601 -16579.1153 -16327.7962 30.3072 -70.3775 -7.5294 41639.4578 2.6914 2.6745
ENERGY: 15000 0.0737 0.3512 22.5520 0.0000 -20089.6188 3460.2981 0.0000 0.0000 247.8411 -16358.5026 29.8372 -16606.3437 -16357.7522 30.0662 -173.7893 -90.3177 41707.4620 5.3172 5.5289
ENERGY: 20000 0.0818 1.2597 21.4357 0.0000 -20171.6270 3537.6052 0.0000 0.0000 252.4847 -16358.7600 30.3962 -16611.2446 -16358.1137 29.9914 285.4399 350.2051 41545.5527 -0.7358 -0.3095
ENERGY: 25000 0.1237 1.1893 21.7814 0.0000 -20207.5825 3575.0887 0.0000 0.0000 246.6305 -16362.7690 29.6914 -16609.3995 -16362.3371 30.1460 530.8200 615.3874 41372.4472 7.8742 7.7604
TCL: Running 25000 steps at 60 kelvin.
TCL: Setting parameter langevinTemp to 60
TCL: Running for 25000 steps
ETITLE: TS BOND ANGLE DIHED IMPRP ELECT VDW BOUNDARY MISC KINETIC TOTAL TEMP POTENTIAL TOTAL3 TEMPAVG PRESSURE GPRESSURE VOLUME PRESSAVG GPRESSAVG
ENERGY: 25000 0.1237 1.1893 21.7814 0.0000 -20207.5825 3575.0887 0.0000 0.0000 246.5005 -16362.8989 29.6758 -16609.3995 -16362.4614 29.6758 550.8867 615.3437 41372.4472 550.8867 615.3437
ENERGY: 30000 0.0606 0.6561 22.5654 0.0000 -19833.1474 3430.6693 0.0000 0.0000 498.1494 -15881.0466 59.9713 -16379.1961 -15880.0568 57.5773 260.8161 319.6846 41682.3995 6.3320 6.1283
ENERGY: 35000 0.1483 1.4731 21.6096 0.0000 -19928.2446 3461.1493 0.0000 0.0000 497.6377 -15946.2266 59.9097 -16443.8643 -15945.1626 60.9308 286.7638 372.0641 41531.9664 -1.1751 -1.0593
ENERGY: 40000 0.1817 2.3184 21.2355 0.0000 -19945.3727 3448.9179 0.0000 0.0000 506.0568 -15966.6623 60.9233 -16472.7191 -15964.9818 60.3532 169.3208 252.9528 41416.0421 3.3040 3.4663
ENERGY: 45000 0.2734 0.8143 22.0698 0.0000 -19887.4834 3379.2786 0.0000 0.0000 518.8151 -15966.2323 62.4592 -16485.0473 -15964.6321 60.1896 -295.5729 -220.8118 41647.9825 0.0479 -0.0962
ENERGY: 50000 0.1510 1.7010 22.3168 0.0000 -19798.7136 3283.3262 0.0000 0.0000 495.8572 -15995.3615 59.6954 -16491.2187 -15994.0601 60.2877 -897.3687 -825.6245 41718.3719 0.7465 1.1661
TCL: Running 25000 steps at 90 kelvin.
TCL: Setting parameter langevinTemp to 90
TCL: Running for 25000 steps
ETITLE: TS BOND ANGLE DIHED IMPRP ELECT VDW BOUNDARY MISC KINETIC TOTAL TEMP POTENTIAL TOTAL3 TEMPAVG PRESSURE GPRESSURE VOLUME PRESSAVG GPRESSAVG
ENERGY: 50000 0.1510 1.7010 22.3168 0.0000 -19798.7136 3283.3262 0.0000 0.0000 495.6140 -15995.6047 59.6661 -16491.2187 -15994.6511 59.6661 -890.6140 -825.4161 41718.3719 -890.6140 -825.4161
ENERGY: 55000 0.4637 0.9392 22.0082 0.0000 -19715.2826 3439.6846 0.0000 0.0000 726.0289 -15526.1580 87.4054 -16252.1869 -15525.1889 87.0648 669.1590 744.8281 41477.2215 6.7521 6.8247
ENERGY: 60000 0.1808 1.8814 21.7787 0.0000 -19675.7390 3366.4551 0.0000 0.0000 752.3723 -15533.0707 90.5768 -16285.4430 -15531.5227 90.2971 267.2052 312.5819 41301.3463 6.2891 6.4233
ENERGY: 65000 0.3450 0.9572 22.6207 0.0000 -19735.4636 3403.7475 0.0000 0.0000 754.6807 -15553.1125 90.8547 -16307.7932 -15550.4788 90.5324 301.1948 368.0320 41512.4196 1.4629 1.8073
ENERGY: 70000 0.0320 1.3546 22.0192 0.0000 -19703.4094 3350.5129 0.0000 0.0000 757.6876 -15571.8032 91.2167 -16329.4908 -15570.1732 89.8037 -60.9729 -38.3007 41597.4123 -0.9110 -0.8449
ENERGY: 75000 0.2997 1.2991 21.7952 0.0000 -19732.0239 3373.0697 0.0000 0.0000 738.9225 -15596.6376 88.9576 -16335.5601 -15595.1507 90.3223 -40.0854 39.6534 41635.1828 3.0765 3.2396
TCL: Running 25000 steps at 120 kelvin.
TCL: Setting parameter langevinTemp to 120
TCL: Running for 25000 steps
ETITLE: TS BOND ANGLE DIHED IMPRP ELECT VDW BOUNDARY MISC KINETIC TOTAL TEMP POTENTIAL TOTAL3 TEMPAVG PRESSURE GPRESSURE VOLUME PRESSAVG GPRESSAVG
ENERGY: 75000 0.2997 1.2991 21.7952 0.0000 -19732.0239 3373.0697 0.0000 0.0000 738.5609 -15596.9992 88.9141 -16335.5601 -15595.6840 88.9141 -16.9794 39.6854 41635.1828 -16.9794 39.6854
ENERGY: 80000 0.1365 2.8337 22.6321 0.0000 -19487.1482 3414.7620 0.0000 0.0000 1030.2826 -15016.5013 124.0339 -16046.7839 -15013.6682 117.7449 970.2108 1038.0135 41673.9041 5.3299 5.4024
ENERGY: 85000 0.5406 1.6485 22.1016 0.0000 -19385.8789 3295.0206 0.0000 0.0000 999.6014 -15066.9663 120.3403 -16066.5676 -15064.6388 120.5663 288.5989 331.5996 41546.7282 4.3135 4.0846
ENERGY: 90000 0.0339 1.9215 21.6846 0.0000 -19373.9746 3256.6503 0.0000 0.0000 1012.0328 -15081.6514 121.8369 -16093.6842 -15079.1255 121.1801 -197.2841 -128.0963 41868.2625 4.9182 4.6998
ENERGY: 95000 0.8374 2.1446 20.8595 0.0000 -19410.8800 3217.2179 0.0000 0.0000 961.3433 -15208.4774 115.7344 -16169.8207 -15206.4859 120.4060 -476.5577 -429.6120 41607.1467 3.3808 3.5914
ENERGY: 100000 0.4059 1.0144 22.9552 0.0000 -19475.8779 3269.1710 0.0000 0.0000 1017.5421 -15164.7893 122.5001 -16182.3314 -15162.1949 119.2932 -130.3570 -88.4322 41441.6953 9.1363 8.9474
TCL: Running 25000 steps at 150 kelvin.
TCL: Setting parameter langevinTemp to 150
TCL: Running for 25000 steps
ETITLE: TS BOND ANGLE DIHED IMPRP ELECT VDW BOUNDARY MISC KINETIC TOTAL TEMP POTENTIAL TOTAL3 TEMPAVG PRESSURE GPRESSURE VOLUME PRESSAVG GPRESSAVG
ENERGY: 100000 0.4059 1.0144 22.9552 0.0000 -19475.8779 3269.1710 0.0000 0.0000 1017.0410 -15165.2904 122.4398 -16182.3314 -15163.0386 122.4398 -150.9617 -88.0866 41441.6953 -150.9617 -88.0866
ENERGY: 105000 0.3063 2.2880 21.6926 0.0000 -19008.6951 3105.4601 0.0000 0.0000 1244.9942 -14633.9538 149.8827 -15878.9481 -14630.3439 146.9064 -356.0530 -307.8288 41609.1425 -1.2854 -1.4581
ENERGY: 110000 0.3170 1.9756 21.2088 0.0000 -18710.9452 2851.3617 0.0000 0.0000 1259.0392 -14577.0429 151.5735 -15836.0820 -14573.4151 149.6833 -1799.2932 -1696.3829 41957.4332 1.9413 2.0619
ENERGY: 115000 0.9166 0.7455 23.2712 0.0000 -19079.5156 3166.6473 0.0000 0.0000 1246.4268 -14641.5082 150.0551 -15887.9350 -14639.3880 150.6155 45.0804 83.3293 41338.1246 2.3552 2.5040
ENERGY: 120000 0.6773 0.8325 22.8328 0.0000 -19154.0578 3214.5409 0.0000 0.0000 1260.1909 -14654.9833 151.7122 -15915.1742 -14652.5927 150.8730 223.4377 292.1874 41221.0737 2.8717 3.2885
ENERGY: 125000 0.7467 1.5137 22.7956 0.0000 -19290.0328 3318.2732 0.0000 0.0000 1248.3342 -14698.3694 150.2848 -15946.7036 -14696.2629 149.3281 856.6708 940.4375 40804.5090 3.5346 3.7436
TCL: Running 50000 steps at 180 kelvin.
TCL: Setting parameter langevinTemp to 180
TCL: Running for 50000 steps
ETITLE: TS BOND ANGLE DIHED IMPRP ELECT VDW BOUNDARY MISC KINETIC TOTAL TEMP POTENTIAL TOTAL3 TEMPAVG PRESSURE GPRESSURE VOLUME PRESSAVG GPRESSAVG
ENERGY: 125000 0.7467 1.5137 22.7956 0.0000 -19290.0328 3318.2732 0.0000 0.0000 1247.7330 -14698.9706 150.2124 -15946.7036 -14696.4575 150.2124 881.1456 940.0185 40804.5090 881.1456 940.0185
ENERGY: 135000 1.0803 4.3401 21.2624 0.0000 -18582.7684 2987.5716 0.0000 0.0000 1516.1426 -14052.3714 182.5258 -15568.5140 -14050.0948 179.8148 -181.3699 -112.4646 41490.1330 0.2224 -0.7626
ENERGY: 145000 0.8751 2.6623 22.7674 0.0000 -18600.9574 2999.4625 0.0000 0.0000 1500.9590 -14074.2311 180.6978 -15575.1901 -14073.0691 179.1698 -76.1524 -15.7621 41129.8467 1.0515 1.1419
ENERGY: 155000 0.8418 5.2979 19.9457 0.0000 -18646.9893 3064.8863 0.0000 0.0000 1539.4436 -14016.5740 185.3309 -15556.0176 -14013.2841 179.5734 601.8993 679.7162 40361.3076 4.4557 4.3687
ENERGY: 165000 0.6294 1.4400 22.1963 0.0000 -18651.1160 3045.1258 0.0000 0.0000 1471.7443 -14109.9801 177.1807 -15581.7244 -14107.1881 179.7873 429.6019 474.0976 40379.1341 5.2605 4.8898
ENERGY: 175000 0.4938 1.2341 22.4636 0.0000 -18655.7322 3027.8000 0.0000 0.0000 1519.1479 -14084.5930 182.8876 -15603.7408 -14082.5544 179.0642 271.3143 334.8949 40529.2986 5.9532 6.3831
TCL: Running 50000 steps at 210 kelvin.
TCL: Setting parameter langevinTemp to 210
TCL: Running for 50000 steps
ETITLE: TS BOND ANGLE DIHED IMPRP ELECT VDW BOUNDARY MISC KINETIC TOTAL TEMP POTENTIAL TOTAL3 TEMPAVG PRESSURE GPRESSURE VOLUME PRESSAVG GPRESSAVG
ENERGY: 175000 0.4938 1.2341 22.4636 0.0000 -18655.7322 3027.8000 0.0000 0.0000 1518.3913 -14085.3495 182.7965 -15603.7408 -14082.7671 182.7965 276.1538 333.8719 40529.2986 276.1538 333.8719
ENERGY: 185000 0.5353 2.1734 24.1197 0.0000 -17774.3326 2706.0784 0.0000 0.0000 1712.8284 -13328.5974 206.2044 -15041.4258 -13325.5574 208.9869 -192.6363 -140.7131 40779.8995 -3.0017 -3.2270
ENERGY: 195000 1.1627 1.2176 22.5550 0.0000 -17704.8658 2754.0475 0.0000 0.0000 1728.0916 -13197.7913 208.0419 -14925.8829 -13191.4430 211.1106 403.2904 454.2178 40676.7384 3.5573 2.0366
ENERGY: 205000 0.6150 3.9422 20.1943 0.0000 -17620.4136 2698.0006 0.0000 0.0000 1759.7818 -13137.8797 211.8571 -14897.6616 -13133.6096 210.4658 -55.9772 77.0174 40884.1892 4.0627 4.5929
ENERGY: 215000 1.1544 5.1204 22.1970 0.0000 -17551.2126 2635.0032 0.0000 0.0000 1800.8658 -13086.8717 216.8031 -14887.7376 -13082.4674 211.1272 -318.3469 -202.7215 40931.1900 5.1041 5.3333
ENERGY: 225000 1.2750 1.6222 22.8636 0.0000 -17816.2177 2789.4528 0.0000 0.0000 1769.3182 -13231.6859 213.0051 -15001.0041 -13228.2126 210.4714 470.4264 521.4265 40742.1728 3.4647 3.3743
TCL: Running 50000 steps at 240 kelvin.
TCL: Setting parameter langevinTemp to 240
TCL: Running for 50000 steps
ETITLE: TS BOND ANGLE DIHED IMPRP ELECT VDW BOUNDARY MISC KINETIC TOTAL TEMP POTENTIAL TOTAL3 TEMPAVG PRESSURE GPRESSURE VOLUME PRESSAVG GPRESSAVG
ENERGY: 225000 1.2750 1.6222 22.8636 0.0000 -17816.2177 2789.4528 0.0000 0.0000 1768.4529 -13232.5512 212.9010 -15001.0041 -13229.6565 212.9010 444.3315 521.6170 40742.1728 444.3315 521.6170
ENERGY: 235000 1.6333 2.2700 22.3935 0.0000 -16832.9166 2434.8569 0.0000 0.0000 1973.1839 -12398.5790 237.5482 -14371.7628 -12397.3169 237.7928 -149.3285 -54.7077 40992.9458 -1.8124 -1.6769
ENERGY: 245000 1.0227 5.8428 20.1355 0.0000 -16974.7894 2549.3171 0.0000 0.0000 1984.7596 -12413.7117 238.9417 -14398.4712 -12408.2499 239.6440 411.5906 508.4438 40795.9462 6.3999 6.7837
ENERGY: 255000 2.6405 5.1344 21.3592 0.0000 -16679.2537 2349.3145 0.0000 0.0000 1995.5470 -12305.2581 240.2404 -14300.8051 -12300.7804 239.1168 -213.6407 -133.4794 40746.6611 5.4500 5.1388
ENERGY: 265000 1.9657 5.2863 22.5074 0.0000 -16829.0842 2475.0867 0.0000 0.0000 1961.5414 -12362.6967 236.1465 -14324.2381 -12357.7369 240.8631 365.2718 436.0424 40736.2887 3.3709 4.0401
ENERGY: 275000 0.3378 3.3145 21.9857 0.0000 -16691.9706 2349.2981 0.0000 0.0000 1947.1995 -12369.8350 234.4199 -14317.0345 -12367.6103 237.7143 -712.8762 -579.7731 41501.2399 4.7365 3.7612
TCL: Running 50000 steps at 270 kelvin.
TCL: Setting parameter langevinTemp to 270
TCL: Running for 50000 steps
ETITLE: TS BOND ANGLE DIHED IMPRP ELECT VDW BOUNDARY MISC KINETIC TOTAL TEMP POTENTIAL TOTAL3 TEMPAVG PRESSURE GPRESSURE VOLUME PRESSAVG GPRESSAVG
ENERGY: 275000 0.3378 3.3145 21.9857 0.0000 -16691.9706 2349.2981 0.0000 0.0000 1946.2366 -12370.7979 234.3040 -14317.0345 -12366.4829 234.3040 -658.8689 -581.0161 41501.2399 -658.8689 -581.0161
ENERGY: 285000 0.2876 0.7208 24.4767 0.0000 -15929.6692 2160.0966 0.0000 0.0000 2293.6671 -11450.4205 276.1306 -13744.0875 -11446.3324 271.5043 -470.4297 -348.4341 41995.0569 2.4824 2.7053
ENERGY: 295000 1.1594 2.4906 22.6075 0.0000 -16122.8697 2311.9002 0.0000 0.0000 2300.0687 -11484.6433 276.9012 -13784.7119 -11481.1783 269.9326 369.8788 459.5873 41908.6417 -3.0579 -2.7910
ENERGY: 305000 0.2095 3.1990 22.6242 0.0000 -16133.0652 2281.1774 0.0000 0.0000 2257.1017 -11568.7534 271.7285 -13825.8550 -11563.0708 268.9696 -76.2080 57.2456 42309.4436 5.2352 4.9102
ENERGY: 315000 1.0549 3.1887 22.1832 0.0000 -15843.7567 2110.1787 0.0000 0.0000 2266.2729 -11440.8782 272.8326 -13707.1511 -11435.5541 270.1934 -929.6976 -804.8750 42762.2233 -2.1285 -2.3101
ENERGY: 325000 1.0286 3.7086 22.2801 0.0000 -16192.3307 2401.6221 0.0000 0.0000 2240.0501 -11523.6412 269.6757 -13763.6913 -11518.5235 269.9729 865.5394 975.6059 41693.4876 -1.7028 -2.1199
TCL: Running 1000000 steps at 300 kelvin.
TCL: Setting parameter langevinTemp to 300
TCL: Running for 1000000 steps
ETITLE: TS BOND ANGLE DIHED IMPRP ELECT VDW BOUNDARY MISC KINETIC TOTAL TEMP POTENTIAL TOTAL3 TEMPAVG PRESSURE GPRESSURE VOLUME PRESSAVG GPRESSAVG
ENERGY: 325000 1.0286 3.7086 22.2801 0.0000 -16192.3307 2401.6221 0.0000 0.0000 2238.9329 -11524.7584 269.5412 -13763.6913 -11522.2531 269.5412 888.4505 976.0194 41693.4876 888.4505 976.0194
ENERGY: 525000 1.0457 2.0769 23.7702 0.0000 -15219.6926 2047.5001 0.0000 0.0000 2483.8871 -10661.4126 299.0308 -13145.2997 -10654.9555 297.3339 50.3397 129.5015 42925.8498 1.0533 1.4604
ENERGY: 725000 0.9700 3.8152 21.7603 0.0000 -15204.2523 1984.7969 0.0000 0.0000 2608.5623 -10584.3477 314.0402 -13192.9099 -10578.7851 301.9723 -553.3259 -475.5843 43328.6098 2.6079 2.7433
ENERGY: 925000 0.1150 3.4671 22.5295 0.0000 -15186.7553 1987.4193 0.0000 0.0000 2557.5251 -10615.6992 307.8960 -13173.2243 -10609.3452 303.5251 -471.6643 -417.9530 43535.3172 2.0132 2.3047
ENERGY: 1125000 0.1375 4.3286 21.8123 0.0000 -15385.1863 2131.5737 0.0000 0.0000 2445.9194 -10781.4150 294.4600 -13227.3343 -10781.5686 300.8754 310.5270 338.0495 43301.8759 6.6453 6.6629
ENERGY: 1325000 0.5726 6.0934 20.3484 0.0000 -15114.2176 2029.0729 0.0000 0.0000 2501.0522 -10557.0780 301.0973 -13058.1303 -10552.5836 300.8976 34.9359 134.6065 43124.2044 7.2875 7.7678
TCL: Exiting due to exit command.
