Info: SIMULATION PARAMETERS:
Info: TIMESTEP               2
Info: NUMBER OF STEPS        0
Info: STEPS PER CYCLE        10
Info: PERIODIC CELL BASIS 1  30.8908 0 0
Info: PERIODIC CELL BASIS 2  0 30.6348 0
Info: PERIODIC CELL BASIS 3  0 0 31.4718
Info: PERIODIC CELL CENTER   0 0 0
Info: WRAPPING WATERS AROUND PERIODIC BOUNDARIES ON OUTPUT.
Info: WRAPPING ALL CLUSTERS AROUND PERIODIC BOUNDARIES ON OUTPUT.
Info: FIRST LDB TIMESTEP     50
Info: LAST LDB TIMESTEP     -1
Info: HOM BACKGROUND SCALING 1
Info: PME BACKGROUND SCALING 1
Info: MIN ATOMS PER PATCH    40
Info: EMPTY PATCH LOAD       40 ATOMS
Info: VELOCITY FILE          mobley_2310185_equil.vel
Info: CENTER OF MASS MOVING INITIALLY? NO
Info: DIELECTRIC             1
Info: EXCLUDE                SCALED ONE-FOUR
Info: 1-4 ELECTROSTATICS SCALED BY 0.833333
Info: MODIFIED 1-4 VDW PARAMETERS WILL BE USED
Info: DCD FILENAME           mobley_2310185_prod.dcd
Info: DCD FREQUENCY          100000
Info: DCD FIRST STEP         100000
Info: DCD FILE WILL CONTAIN UNIT CELL DATA
Info: XST FILENAME           mobley_2310185_prod.xst
Info: XST FREQUENCY          100000
Info: NO VELOCITY DCD OUTPUT
Info: NO FORCE DCD OUTPUT
Info: OUTPUT FILENAME        mobley_2310185_prod
Info: BINARY OUTPUT FILES WILL BE USED
Info: RESTART FILENAME       mobley_2310185_prod.restart
Info: RESTART FREQUENCY      100000
Info: BINARY RESTART FILES WILL BE USED
Info: CUTOFF                 9
Info: PAIRLIST DISTANCE      11
Info: PAIRLIST SHRINK RATE   0.01
Info: PAIRLIST GROW RATE     0.01
Info: PAIRLIST TRIGGER       0.3
Info: PAIRLISTS PER CYCLE    2
Info: PAIRLISTS ENABLED
Info: MARGIN                 2
Info: HYDROGEN GROUP CUTOFF  2.5
Info: PATCH DIMENSION        15.5
Info: ENERGY OUTPUT STEPS    100000
Info: ENERGY EVALUATION STEPS    100000
Info: OUTPUT ENERGY PRECISION 4
Info: CROSSTERM ENERGY INCLUDED IN DIHEDRAL
Info: TIMING OUTPUT STEPS    1000000
Info: PRESSURE OUTPUT STEPS  100000
Info: ALCHEMICAL FEP ON
Info: FEP CURRENT LAMBDA VALUE     1
Info: FEP COMPARISON LAMBDA VALUE  0.95
Info: FEP INTRA-ALCHEMICAL NON-BONDED INTERACTIONS WILL BE RETAINED
Info: FEP INTRA-ALCHEMICAL BONDED INTERACTIONS WILL BE RETAINED
Info: FEP VDW SHIFTING COEFFICIENT 5
Info: FEP ELEC. ACTIVE FOR ANNIHILATED PARTICLES BETWEEN LAMBDA = 0 AND LAMBDA = 0.5
Info: FEP ELEC. ACTIVE FOR EXNIHILATED PARTICLES BETWEEN LAMBDA = 0.5 AND LAMBDA = 1
Info: FEP VDW ACTIVE FOR ANNIHILATED PARTICLES BETWEEN LAMBDA = 0 AND LAMBDA = 1
Info: FEP VDW ACTIVE FOR EXNIHILATED PARTICLES BETWEEN LAMBDA = 0 AND LAMBDA = 1
Info: FEP BOND ACTIVE FOR ANNIHILATED PARTICLES BETWEEN LAMBDA = 1 AND LAMBDA = 1
Info: FEP BOND ACTIVE FOR EXNIHILATED PARTICLES BETWEEN LAMBDA = 0 AND LAMBDA = 0
Info: LANGEVIN DYNAMICS ACTIVE
Info: LANGEVIN TEMPERATURE   300
Info: LANGEVIN USING BBK INTEGRATOR
Info: LANGEVIN DAMPING COEFFICIENT IS 1 INVERSE PS
Info: LANGEVIN DYNAMICS APPLIED TO HYDROGENS
Info: LANGEVIN PISTON PRESSURE CONTROL ACTIVE
Info:        TARGET PRESSURE IS 1.01325 BAR
Info:     OSCILLATION PERIOD IS 50 FS
Info:             DECAY TIME IS 25 FS
Info:     PISTON TEMPERATURE IS 300 K
Info:       PRESSURE CONTROL IS GROUP-BASED
Info:    INITIAL STRAIN RATE IS -0.000557606 -0.000557606 -0.000557606
Info:       CELL FLUCTUATION IS ISOTROPIC
Info: PARTICLE MESH EWALD (PME) ACTIVE
Info: PME TOLERANCE               1e-06
Info: PME EWALD COEFFICIENT       0.348832
Info: PME INTERPOLATION ORDER     4
Info: PME GRID DIMENSIONS         32 32 32
Info: PME MAXIMUM GRID SPACING    1
Info: PME CALCULATION WILL BE PERFORMED ON GPU
Info: FULL ELECTROSTATIC EVALUATION FREQUENCY      2
Info: USING VERLET I (r-RESPA) MTS SCHEME.
Info: C1 SPLITTING OF LONG RANGE ELECTROSTATICS
Info: PLACING ATOMS IN PATCHES BY HYDROGEN GROUPS
Info: RIGID BONDS TO HYDROGEN : ALL
Info:         ERROR TOLERANCE : 1e-08
Info:          MAX ITERATIONS : 100
Info: RIGID WATER USING SETTLE ALGORITHM
Info: RANDOM NUMBER SEED     1742436292
Info: USE HYDROGEN BONDS?    NO
Info: Using AMBER format force field!
Info: AMBER PARM FILE        mobley_2310185.prmtop
Info: COORDINATE PDB         mobley_2310185.pdb
Info: Exclusions will be read from PARM file!
Info: SCNB (VDW SCALING)     2
Info: USING ARITHMETIC MEAN TO COMBINE L-J SIGMA PARAMETERS
Info: BINARY COORDINATES     mobley_2310185_equil.coor
Info: SUMMARY OF PARAMETERS:
Info: 7 BONDS
Info: 7 ANGLES
Info:   7 HARMONIC
Info:   0 COSINE-BASED
Info: 4 DIHEDRAL
Info: 0 IMPROPER
Info: 0 CROSSTERM
Info: 0 VDW
Info: 28 VDW_PAIRS
Info: 0 NBTHOLE_PAIRS
Info: To read alchdata from file: mobley_2310185.pdb
Info: To read alchflag data from column: 5
Info: STRUCTURE SUMMARY:
Info: 2907 ATOMS
Info: 2906 BONDS
Info: 13 ANGLES
Info: 12 DIHEDRALS
Info: 0 IMPROPERS
Info: 0 CROSSTERMS
Info: 2931 EXCLUSIONS
Info: 2904 RIGID BONDS
Info: ALCH: 0 ATOMS TO DISAPPEAR IN FINAL STATE
Info: ALCH: 9 ATOMS TO APPEAR IN FINAL STATE
Info: 5817 DEGREES OF FREEDOM
Info: 969 HYDROGEN GROUPS
Info: 4 ATOMS IN LARGEST HYDROGEN GROUP
Info: 969 MIGRATION GROUPS
Info: 4 ATOMS IN LARGEST MIGRATION GROUP
Info: TOTAL MASS = 17449.5 amu
Info: TOTAL CHARGE = -9.99831e-05 e
Info: MASS DENSITY = 0.972919 g/cm^3
Info: ATOM DENSITY = 0.0976065 atoms/A^3
Info: ADDED 0 IMPLICIT EXCLUSIONS
Info: NONBONDED TABLE R-SQUARED SPACING: 0.0625
Info: NONBONDED TABLE SIZE: 705 POINTS
Info: REMOVING COM VELOCITY 0.0694804 0.166996 0.0200805
Info: Use 3D box decompostion in PME FFT.
Info: Updated CUDA force table with 4096 elements.
Info: Updated CUDA LJ table with 7 x 7 elements.
Info: Found 12 unique exclusion lists needing 16 bytes
TCL: Running for 1500000 steps
ETITLE: TS BOND ANGLE DIHED IMPRP ELECT VDW BOUNDARY MISC KINETIC TOTAL TEMP POTENTIAL TOTALAVG TEMPAVG PRESSURE GPRESSURE VOLUME PRESSAVG GPRESSAVG
ENERGY: 0 1.2357 2.4026 0.0327 0.0000 -10626.7962 1468.6928 0.0000 0.0000 1724.8682 -7429.5642 298.4333 -9154.4324 -7429.5642 298.4333 391.4905 462.6352 29782.8524 391.4905 462.6352
ENERGY: 300000 0.1648 0.5542 0.6628 0.0000 -10505.8424 1409.2322 0.0000 0.0000 1703.5374 -7391.6910 294.7427 -9095.2284 -7421.1765 297.4474 18.5830 86.8781 29813.5481 -115.0645 -53.4751
ENERGY: 600000 0.2031 7.8431 0.9641 0.0000 -10619.4867 1463.5508 0.0000 0.0000 1725.4789 -7421.4466 298.5389 -9146.9255 -7427.5446 298.1964 85.3484 171.0149 30252.5053 -323.0351 -258.9115
ENERGY: 900000 0.5370 2.9910 0.2486 0.0000 -10548.6556 1412.4740 0.0000 0.0000 1738.4345 -7393.9705 300.7805 -9132.4050 -7412.4014 298.6403 -78.4134 -37.8471 29946.9898 -234.6082 -175.0767
ENERGY: 1200000 0.3587 5.9633 0.2415 0.0000 -10549.6500 1436.9778 0.0000 0.0000 1740.1494 -7365.9593 301.0772 -9106.1087 -7413.1890 298.4611 157.2325 230.5895 30022.0216 -44.4833 16.5928
ENERGY: 1500000 0.9719 3.5118 0.9091 0.0000 -10621.6795 1417.6706 0.0000 0.0000 1766.6931 -7431.9229 305.6697 -9198.6160 -7410.5513 298.9766 -375.9659 -258.5822 30175.9967 -97.9559 -30.1310
TCL: Running FEP window   2: Lambda1 0.95   Lambda2 0.8999999999999999 [dLambda -0.050000000000000044]
TCL: Setting parameter firsttimestep to 0
TCL: Setting parameter alchLambda to 0.95
Info: NONBONDED TABLE R-SQUARED SPACING: 0.0625
Info: NONBONDED TABLE SIZE: 705 POINTS
TCL: Setting parameter alchLambda2 to 0.8999999999999999
Info: NONBONDED TABLE R-SQUARED SPACING: 0.0625
Info: NONBONDED TABLE SIZE: 705 POINTS
TCL: Running for 1500000 steps
ETITLE: TS BOND ANGLE DIHED IMPRP ELECT VDW BOUNDARY MISC KINETIC TOTAL TEMP POTENTIAL TOTALAVG TEMPAVG PRESSURE GPRESSURE VOLUME PRESSAVG GPRESSAVG
ENERGY: 0 0.9719 3.5118 0.9091 0.0000 -10620.2881 1415.6502 0.0000 0.0000 1765.8693 -7433.3758 305.5272 -9199.2450 -7433.3758 305.5272 -369.2399 -285.6740 30175.9967 -369.2399 -285.6740
ENERGY: 300000 1.2310 1.6424 0.8987 0.0000 -10695.6843 1516.7752 0.0000 0.0000 1711.3139 -7463.8232 296.0881 -9175.1370 -7452.9143 300.8511 605.3358 641.9088 29854.9209 -112.9887 -50.7845
ENERGY: 600000 0.3767 2.1177 0.5964 0.0000 -10413.4133 1362.1942 0.0000 0.0000 1678.9779 -7369.1505 290.4934 -9048.1285 -7425.5679 299.0686 -298.1943 -237.5611 30110.8562 -338.1809 -283.7110
ENERGY: 900000 0.2117 3.3068 0.5701 0.0000 -10358.0536 1289.8721 0.0000 0.0000 1705.9942 -7358.0988 295.1677 -9064.0930 -7412.5611 298.7504 -1046.2316 -915.7872 30140.8885 -403.2952 -337.1753
ENERGY: 1200000 0.1353 2.8228 1.2978 0.0000 -10457.4238 1383.0869 0.0000 0.0000 1676.9746 -7393.1063 290.1468 -9070.0809 -7412.8521 297.9074 -311.6673 -261.5156 30377.5659 -383.3916 -319.2643
ENERGY: 1500000 1.4257 3.1572 0.7296 0.0000 -10504.3322 1388.4688 0.0000 0.0000 1691.7302 -7418.8207 292.6998 -9110.5509 -7413.8552 298.4271 -236.9569 -179.6767 30064.5422 -312.9530 -250.4494
TCL: Running FEP window   3: Lambda1 0.8999999999999999 Lambda2 0.8499999999999999 [dLambda -0.050000000000000044]
TCL: Setting parameter firsttimestep to 0
TCL: Setting parameter alchLambda to 0.8999999999999999
Info: NONBONDED TABLE R-SQUARED SPACING: 0.0625
Info: NONBONDED TABLE SIZE: 705 POINTS
TCL: Setting parameter alchLambda2 to 0.8499999999999999
Info: NONBONDED TABLE R-SQUARED SPACING: 0.0625
Info: NONBONDED TABLE SIZE: 705 POINTS
TCL: Running for 1500000 steps
ETITLE: TS BOND ANGLE DIHED IMPRP ELECT VDW BOUNDARY MISC KINETIC TOTAL TEMP POTENTIAL TOTALAVG TEMPAVG PRESSURE GPRESSURE VOLUME PRESSAVG GPRESSAVG
ENERGY: 0 1.4257 3.1572 0.7296 0.0000 -10502.0290 1387.1933 0.0000 0.0000 1690.8625 -7418.6606 292.5497 -9109.5231 -7418.6606 292.5497 -277.2062 -192.8622 30064.5422 -277.2062 -192.8622
ENERGY: 300000 0.0097 4.8633 0.7376 0.0000 -10575.6270 1431.6511 0.0000 0.0000 1774.3428 -7364.0226 306.9933 -9138.3653 -7396.0479 301.0044 60.3274 71.1218 29861.3151 -230.7244 -180.4624
ENERGY: 600000 0.1747 2.8385 0.6432 0.0000 -10553.8218 1405.4695 0.0000 0.0000 1772.6838 -7372.0121 306.7062 -9144.6959 -7399.9278 301.4440 -277.4097 -162.8253 30082.4388 -139.5100 -90.6754
ENERGY: 900000 0.3803 3.6310 1.0538 0.0000 -10596.6480 1435.4682 0.0000 0.0000 1708.0156 -7448.0991 295.5175 -9156.1147 -7412.1525 299.6667 -8.2193 43.2531 30075.2472 -224.6600 -168.2689
ENERGY: 1200000 0.0157 2.1871 0.6831 0.0000 -10606.2870 1497.4181 0.0000 0.0000 1780.6277 -7325.3554 308.0807 -9105.9830 -7390.5332 301.3419 939.6677 988.9870 29472.2372 -24.9319 37.1671
ENERGY: 1500000 0.3368 2.5023 0.6131 0.0000 -10720.7733 1456.3777 0.0000 0.0000 1724.2886 -7536.6547 298.3330 -9260.9434 -7407.2095 300.4022 -86.4604 68.8806 29309.5360 -54.6742 13.7903
TCL: Running FEP window   4: Lambda1 0.8499999999999999 Lambda2 0.7999999999999998 [dLambda -0.050000000000000044]
TCL: Setting parameter firsttimestep to 0
TCL: Setting parameter alchLambda to 0.8499999999999999
Info: NONBONDED TABLE R-SQUARED SPACING: 0.0625
Info: NONBONDED TABLE SIZE: 705 POINTS
TCL: Setting parameter alchLambda2 to 0.7999999999999998
Info: NONBONDED TABLE R-SQUARED SPACING: 0.0625
Info: NONBONDED TABLE SIZE: 705 POINTS
TCL: Running for 1500000 steps
ETITLE: TS BOND ANGLE DIHED IMPRP ELECT VDW BOUNDARY MISC KINETIC TOTAL TEMP POTENTIAL TOTALAVG TEMPAVG PRESSURE GPRESSURE VOLUME PRESSAVG GPRESSAVG
ENERGY: 0 0.3368 2.5023 0.6131 0.0000 -10719.1999 1455.4118 0.0000 0.0000 1723.4042 -7536.9317 298.1800 -9260.3359 -7536.9317 298.1800 -42.4994 54.2342 29309.5360 -42.4994 54.2342
ENERGY: 300000 0.4089 3.1205 0.2659 0.0000 -10526.9574 1408.8101 0.0000 0.0000 1742.0569 -7372.2951 301.4072 -9114.3519 -7386.5497 303.8671 17.7030 81.7708 29648.4201 -362.3855 -295.3834
ENERGY: 600000 0.6248 10.1600 0.7678 0.0000 -10614.8247 1372.7547 0.0000 0.0000 1740.2765 -7490.2411 301.0992 -9230.5176 -7412.4944 301.9114 -556.2014 -422.7533 29511.5656 -276.8081 -209.0884
ENERGY: 900000 1.8597 3.8475 0.0708 0.0000 -10601.4270 1425.2973 0.0000 0.0000 1721.6270 -7448.7246 297.8725 -9170.3516 -7401.8742 302.4023 194.1122 235.3576 29312.5767 -171.8722 -109.8877
ENERGY: 1200000 0.7204 6.7550 0.1585 0.0000 -10572.3557 1519.0431 0.0000 0.0000 1768.0753 -7277.6034 305.9089 -9045.6787 -7387.1959 302.5054 1020.2747 1074.5171 30015.5160 -31.3288 19.5541
ENERGY: 1500000 1.2835 2.3276 0.5697 0.0000 -10554.0746 1426.3428 0.0000 0.0000 1741.4151 -7382.1358 301.2962 -9123.5509 -7390.9773 301.4806 164.2673 238.2764 29814.1523 5.3027 52.8133
TCL: Running FEP window   5: Lambda1 0.7999999999999998 Lambda2 0.7499999999999998 [dLambda -0.050000000000000044]
TCL: Setting parameter firsttimestep to 0
TCL: Setting parameter alchLambda to 0.7999999999999998
Info: NONBONDED TABLE R-SQUARED SPACING: 0.0625
Info: NONBONDED TABLE SIZE: 705 POINTS
TCL: Setting parameter alchLambda2 to 0.7499999999999998
Info: NONBONDED TABLE R-SQUARED SPACING: 0.0625
Info: NONBONDED TABLE SIZE: 705 POINTS
TCL: Running for 1500000 steps
ETITLE: TS BOND ANGLE DIHED IMPRP ELECT VDW BOUNDARY MISC KINETIC TOTAL TEMP POTENTIAL TOTALAVG TEMPAVG PRESSURE GPRESSURE VOLUME PRESSAVG GPRESSAVG
ENERGY: 0 1.2835 2.3276 0.5697 0.0000 -10552.4684 1424.9123 0.0000 0.0000 1740.5733 -7382.8019 301.1505 -9123.3752 -7382.8019 301.1505 134.8484 218.9702 29814.1523 134.8484 218.9702
ENERGY: 300000 0.4450 3.3567 0.7569 0.0000 -10458.1620 1378.7460 0.0000 0.0000 1821.3279 -7253.5295 315.1225 -9074.8574 -7353.6350 306.2821 -332.2878 -272.0072 30359.3722 -104.2088 -55.5544
ENERGY: 600000 1.0300 4.6012 0.7187 0.0000 -10493.8082 1427.9020 0.0000 0.0000 1725.6623 -7333.8940 298.5707 -9059.5563 -7364.9881 304.0694 68.6552 94.2758 30486.5668 46.3338 80.1336
ENERGY: 900000 0.0091 5.2131 0.5766 0.0000 -10450.1448 1369.1105 0.0000 0.0000 1704.0852 -7371.1503 294.8374 -9075.2355 -7365.0305 303.1507 -319.5852 -253.0309 30082.3828 50.1190 88.8647
ENERGY: 1200000 0.6654 2.5986 0.3595 0.0000 -10794.4792 1642.7105 0.0000 0.0000 1768.3873 -7379.7579 305.9629 -9148.1452 -7374.6600 302.7844 2009.1739 2037.3789 29374.3025 220.8660 258.0059
ENERGY: 1500000 0.1049 1.6698 0.1581 0.0000 -10532.7492 1374.8704 0.0000 0.0000 1702.8804 -7453.0656 294.6290 -9155.9460 -7384.0074 302.1056 -667.8505 -586.8667 30340.9228 99.6012 139.2455
TCL: Running FEP window   6: Lambda1 0.7499999999999998 Lambda2 0.6999999999999997 [dLambda -0.050000000000000044]
TCL: Setting parameter firsttimestep to 0
TCL: Setting parameter alchLambda to 0.7499999999999998
Info: NONBONDED TABLE R-SQUARED SPACING: 0.0625
Info: NONBONDED TABLE SIZE: 705 POINTS
TCL: Setting parameter alchLambda2 to 0.6999999999999997
Info: NONBONDED TABLE R-SQUARED SPACING: 0.0625
Info: NONBONDED TABLE SIZE: 705 POINTS
TCL: Running for 1500000 steps
ETITLE: TS BOND ANGLE DIHED IMPRP ELECT VDW BOUNDARY MISC KINETIC TOTAL TEMP POTENTIAL TOTALAVG TEMPAVG PRESSURE GPRESSURE VOLUME PRESSAVG GPRESSAVG
ENERGY: 0 0.1049 1.6698 0.1581 0.0000 -10531.4251 1374.8027 0.0000 0.0000 1702.0387 -7452.6508 294.4834 -9154.6895 -7452.6508 294.4834 -669.1074 -589.3653 30340.9228 -669.1074 -589.3653
ENERGY: 300000 2.2818 3.7066 0.1112 0.0000 -10456.6900 1340.9296 0.0000 0.0000 1756.4112 -7353.2496 303.8908 -9109.6608 -7403.6425 298.2045 -581.2848 -500.1391 29859.3529 -309.4011 -254.2338
ENERGY: 600000 0.1667 4.1715 0.3362 0.0000 -10578.2312 1422.4422 0.0000 0.0000 1731.2189 -7419.8957 299.5321 -9151.1146 -7380.7917 299.2756 -194.7222 -118.4248 30066.0172 -345.3218 -293.4710
ENERGY: 900000 0.0166 2.5795 0.4332 0.0000 -10605.4674 1410.5468 0.0000 0.0000 1754.6193 -7437.2720 303.5808 -9191.8914 -7399.7804 299.2117 -312.6744 -309.3417 29924.4860 -240.8465 -197.8995
ENERGY: 1200000 0.8451 1.2337 0.4249 0.0000 -10585.3397 1398.7197 0.0000 0.0000 1748.8971 -7435.2193 302.5907 -9184.1163 -7407.6833 299.5801 -512.1245 -451.9998 30299.1126 -307.6890 -253.0833
ENERGY: 1500000 0.0993 5.5311 0.3429 0.0000 -10576.4880 1452.0692 0.0000 0.0000 1740.3596 -7378.0858 301.1136 -9118.4454 -7406.9974 299.9576 78.2398 93.6092 30476.5077 -270.4260 -210.8742
TCL: Running FEP window   7: Lambda1 0.6999999999999997 Lambda2 0.6499999999999997 [dLambda -0.050000000000000044]
TCL: Setting parameter firsttimestep to 0
TCL: Setting parameter alchLambda to 0.6999999999999997
Info: NONBONDED TABLE R-SQUARED SPACING: 0.0625
Info: NONBONDED TABLE SIZE: 705 POINTS
TCL: Setting parameter alchLambda2 to 0.6499999999999997
Info: NONBONDED TABLE R-SQUARED SPACING: 0.0625
Info: NONBONDED TABLE SIZE: 705 POINTS
TCL: Running for 1500000 steps
ETITLE: TS BOND ANGLE DIHED IMPRP ELECT VDW BOUNDARY MISC KINETIC TOTAL TEMP POTENTIAL TOTALAVG TEMPAVG PRESSURE GPRESSURE VOLUME PRESSAVG GPRESSAVG
ENERGY: 0 0.0993 5.5311 0.3429 0.0000 -10575.4811 1451.6830 0.0000 0.0000 1739.4962 -7378.3285 300.9642 -9117.8248 -7378.3285 300.9642 0.3115 81.5296 30476.5077 0.3115 81.5296
ENERGY: 300000 0.2578 3.1636 0.0946 0.0000 -10584.5488 1431.7766 0.0000 0.0000 1719.7449 -7429.5113 297.5469 -9149.2562 -7368.4534 302.0794 160.5373 191.8356 29882.2097 225.0236 290.1210
ENERGY: 600000 0.3281 2.9256 0.2256 0.0000 -10697.7872 1538.6829 0.0000 0.0000 1746.5361 -7409.0889 302.1822 -9155.6249 -7377.9760 301.8457 745.6841 908.4099 29828.6760 210.7931 291.6082
ENERGY: 900000 0.5338 2.2227 0.3917 0.0000 -10534.0987 1370.6083 0.0000 0.0000 1743.9236 -7416.4187 301.7302 -9160.3423 -7378.8314 301.5634 -320.2859 -266.1707 29799.4172 -54.9246 30.4657
ENERGY: 1200000 1.0724 2.4867 0.6276 0.0000 -10524.2351 1390.7867 0.0000 0.0000 1747.7602 -7381.5016 302.3940 -9129.2618 -7386.4916 301.4002 -310.4871 -284.9029 30280.3594 -11.0775 59.2129
ENERGY: 1500000 0.2155 2.5170 1.2811 0.0000 -10442.3302 1374.3506 0.0000 0.0000 1758.9458 -7305.0202 304.3293 -9063.9659 -7383.4602 301.4691 -80.9463 -79.6774 30119.5293 -74.2161 -9.4960
TCL: Running FEP window   8: Lambda1 0.6499999999999997 Lambda2 0.5999999999999996 [dLambda -0.050000000000000044]
TCL: Setting parameter firsttimestep to 0
TCL: Setting parameter alchLambda to 0.6499999999999997
Info: NONBONDED TABLE R-SQUARED SPACING: 0.0625
Info: NONBONDED TABLE SIZE: 705 POINTS
TCL: Setting parameter alchLambda2 to 0.5999999999999996
Info: NONBONDED TABLE R-SQUARED SPACING: 0.0625
Info: NONBONDED TABLE SIZE: 705 POINTS
TCL: Running for 1500000 steps
ETITLE: TS BOND ANGLE DIHED IMPRP ELECT VDW BOUNDARY MISC KINETIC TOTAL TEMP POTENTIAL TOTALAVG TEMPAVG PRESSURE GPRESSURE VOLUME PRESSAVG GPRESSAVG
ENERGY: 0 0.2155 2.5170 1.2811 0.0000 -10441.6928 1374.2943 0.0000 0.0000 1758.1049 -7305.2800 304.1838 -9063.3848 -7305.2800 304.1838 -163.1905 -82.9551 30119.5293 -163.1905 -82.9551
ENERGY: 300000 2.2738 3.8705 0.4229 0.0000 -10484.7001 1350.9548 0.0000 0.0000 1721.7821 -7405.3960 297.8993 -9127.1781 -7392.5209 301.5830 -392.7908 -361.1196 29863.5185 -186.2952 -121.8182
ENERGY: 600000 0.1816 4.6136 0.9935 0.0000 -10490.3219 1423.0060 0.0000 0.0000 1662.0459 -7399.4814 287.5639 -9061.5273 -7381.7713 300.4757 238.3663 254.9925 29795.9764 -161.3783 -99.7564
ENERGY: 900000 0.3035 4.1380 0.3086 0.0000 -10455.7510 1384.1727 0.0000 0.0000 1702.7072 -7364.1209 294.5990 -9066.8281 -7384.3618 299.8422 -292.9235 -257.2463 30413.9606 -195.2899 -138.6423
ENERGY: 1200000 0.2107 1.5395 0.7911 0.0000 -10546.4908 1474.2031 0.0000 0.0000 1731.5110 -7338.2354 299.5826 -9069.7464 -7379.6524 300.7418 416.9485 522.0150 30055.7444 -124.0099 -64.0716
ENERGY: 1500000 1.4114 4.7797 0.0839 0.0000 -10567.9628 1397.5486 0.0000 0.0000 1688.6987 -7475.4404 292.1753 -9164.1391 -7380.4134 300.8872 -281.3702 -204.6708 29966.4819 -137.9120 -77.6332
TCL: Running FEP window   9: Lambda1 0.5999999999999996 Lambda2 0.5499999999999996 [dLambda -0.050000000000000044]
TCL: Setting parameter firsttimestep to 0
TCL: Setting parameter alchLambda to 0.5999999999999996
Info: NONBONDED TABLE R-SQUARED SPACING: 0.0625
Info: NONBONDED TABLE SIZE: 705 POINTS
TCL: Setting parameter alchLambda2 to 0.5499999999999996
Info: NONBONDED TABLE R-SQUARED SPACING: 0.0625
Info: NONBONDED TABLE SIZE: 705 POINTS
TCL: Running for 1500000 steps
ETITLE: TS BOND ANGLE DIHED IMPRP ELECT VDW BOUNDARY MISC KINETIC TOTAL TEMP POTENTIAL TOTALAVG TEMPAVG PRESSURE GPRESSURE VOLUME PRESSAVG GPRESSAVG
ENERGY: 0 1.4114 4.7797 0.0839 0.0000 -10567.3907 1397.7967 0.0000 0.0000 1687.8524 -7475.4666 292.0289 -9163.3190 -7475.4666 292.0289 -284.4520 -207.1484 29966.4819 -284.4520 -207.1484
ENERGY: 300000 1.7114 1.7814 0.1795 0.0000 -10613.7086 1407.1264 0.0000 0.0000 1772.8627 -7430.0473 306.7372 -9202.9100 -7418.2658 302.2437 -203.6919 -137.6514 29623.2730 173.0069 243.3959
ENERGY: 600000 0.0409 5.0059 0.1496 0.0000 -10410.7081 1366.9532 0.0000 0.0000 1678.1560 -7360.4025 290.3512 -9038.5585 -7406.5496 298.5314 -172.4007 -99.7430 29969.7295 144.3871 208.2557
ENERGY: 900000 0.3797 4.0832 0.8927 0.0000 -10566.4851 1428.8178 0.0000 0.0000 1735.6887 -7396.6231 300.3054 -9132.3118 -7414.6781 298.5391 159.1521 210.5066 29872.3013 248.9887 312.5477
ENERGY: 1200000 0.2340 8.1352 0.0772 0.0000 -10417.0331 1361.3846 0.0000 0.0000 1791.1871 -7256.0149 309.9076 -9047.2021 -7397.8510 299.6011 -325.4569 -280.0899 30321.2394 71.8242 136.6570
ENERGY: 1500000 0.4017 1.9315 0.3386 0.0000 -10567.9309 1465.4456 0.0000 0.0000 1708.8908 -7390.9228 295.6689 -9099.8136 -7398.3428 299.3329 594.1166 626.0139 29611.9144 100.4343 161.5374
TCL: Running FEP window  10: Lambda1 0.5499999999999996 Lambda2 0.4999999999999996 [dLambda -0.04999999999999999]
TCL: Setting parameter firsttimestep to 0
TCL: Setting parameter alchLambda to 0.5499999999999996
Info: NONBONDED TABLE R-SQUARED SPACING: 0.0625
Info: NONBONDED TABLE SIZE: 705 POINTS
TCL: Setting parameter alchLambda2 to 0.4999999999999996
Info: NONBONDED TABLE R-SQUARED SPACING: 0.0625
Info: NONBONDED TABLE SIZE: 705 POINTS
TCL: Running for 1500000 steps
ETITLE: TS BOND ANGLE DIHED IMPRP ELECT VDW BOUNDARY MISC KINETIC TOTAL TEMP POTENTIAL TOTALAVG TEMPAVG PRESSURE GPRESSURE VOLUME PRESSAVG GPRESSAVG
ENERGY: 0 0.4017 1.9315 0.3386 0.0000 -10567.8668 1465.6217 0.0000 0.0000 1708.0597 -7391.5137 295.5251 -9099.5733 -7391.5137 295.5251 534.8991 621.4427 29611.9144 534.8991 621.4427
ENERGY: 300000 0.1199 3.3682 0.9933 0.0000 -10655.8328 1519.0628 0.0000 0.0000 1747.9290 -7384.3596 302.4232 -9132.2886 -7370.9695 301.4039 1113.5626 1179.6942 29185.7253 894.9682 935.3954
ENERGY: 600000 0.0724 3.7301 0.2198 0.0000 -10585.5616 1432.7255 0.0000 0.0000 1753.3784 -7395.4354 303.3661 -9148.8138 -7376.5287 300.8948 373.8500 460.3513 29427.2675 691.5290 738.9627
ENERGY: 900000 1.4984 2.3467 1.4056 0.0000 -10480.2962 1355.4575 0.0000 0.0000 1713.1529 -7406.4351 296.4063 -9119.5880 -7374.9578 299.5587 -565.5834 -475.2400 30292.9995 444.7960 491.6617
ENERGY: 1200000 0.2378 6.5791 0.1826 0.0000 -10678.1818 1496.7934 0.0000 0.0000 1727.7905 -7446.5984 298.9389 -9174.3889 -7380.2092 299.5753 651.3316 631.8362 29758.5174 347.0243 394.0546
ENERGY: 1500000 0.4850 4.6153 0.1506 0.0000 -10631.0597 1440.2868 0.0000 0.0000 1710.2101 -7475.3119 295.8972 -9185.5220 -7384.7396 299.1968 273.8795 332.3900 29393.5501 280.0377 332.2055
TCL: Running FEP window  11: Lambda1 0.4999999999999996 Lambda2 0.4499999999999996 [dLambda -0.04999999999999999]
TCL: Setting parameter firsttimestep to 0
TCL: Setting parameter alchLambda to 0.4999999999999996
Info: NONBONDED TABLE R-SQUARED SPACING: 0.0625
Info: NONBONDED TABLE SIZE: 705 POINTS
TCL: Setting parameter alchLambda2 to 0.4499999999999996
Info: NONBONDED TABLE R-SQUARED SPACING: 0.0625
Info: NONBONDED TABLE SIZE: 705 POINTS
TCL: Running for 1500000 steps
ETITLE: TS BOND ANGLE DIHED IMPRP ELECT VDW BOUNDARY MISC KINETIC TOTAL TEMP POTENTIAL TOTALAVG TEMPAVG PRESSURE GPRESSURE VOLUME PRESSAVG GPRESSAVG
ENERGY: 0 0.4850 4.6153 0.1506 0.0000 -10630.7718 1440.5055 0.0000 0.0000 1709.3399 -7475.6754 295.7466 -9185.0153 -7475.6754 295.7466 241.7976 331.0615 29393.5501 241.7976 331.0615
ENERGY: 300000 0.1199 8.8132 0.1865 0.0000 -10518.3928 1454.0983 0.0000 0.0000 1718.3699 -7336.8049 297.3089 -9055.1748 -7380.1980 298.6839 414.8469 442.8055 30017.6882 278.1159 328.3999
ENERGY: 600000 0.1923 7.1552 0.3438 0.0000 -10606.9806 1473.3238 0.0000 0.0000 1761.8520 -7364.1135 304.8321 -9125.9655 -7373.1009 299.5182 454.5193 608.5648 29770.1212 217.9419 278.5110
ENERGY: 900000 0.2882 5.6836 1.0846 0.0000 -10522.4737 1383.8046 0.0000 0.0000 1715.4863 -7416.1265 296.8100 -9131.6127 -7393.7332 298.1188 -253.6213 -186.8247 29810.8580 81.4646 144.8929
ENERGY: 1200000 1.1203 6.5142 0.2321 0.0000 -10567.5603 1361.9861 0.0000 0.0000 1690.0185 -7507.6891 292.4036 -9197.7076 -7410.1315 297.7492 -845.4107 -746.5120 30031.2208 -64.6721 6.5761
ENERGY: 1500000 0.6038 5.8890 0.0542 0.0000 -10588.0925 1432.1221 0.0000 0.0000 1751.1217 -7398.3016 302.9756 -9149.4234 -7405.4136 298.2954 124.6982 155.2572 29844.6302 -77.0063 -10.5716
TCL: Running FEP window  12: Lambda1 0.4499999999999996 Lambda2 0.39999999999999963 [dLambda -0.04999999999999999]
TCL: Setting parameter firsttimestep to 0
TCL: Setting parameter alchLambda to 0.4499999999999996
Info: NONBONDED TABLE R-SQUARED SPACING: 0.0625
Info: NONBONDED TABLE SIZE: 705 POINTS
TCL: Setting parameter alchLambda2 to 0.39999999999999963
Info: NONBONDED TABLE R-SQUARED SPACING: 0.0625
Info: NONBONDED TABLE SIZE: 705 POINTS
TCL: Running for 1500000 steps
ETITLE: TS BOND ANGLE DIHED IMPRP ELECT VDW BOUNDARY MISC KINETIC TOTAL TEMP POTENTIAL TOTALAVG TEMPAVG PRESSURE GPRESSURE VOLUME PRESSAVG GPRESSAVG
ENERGY: 0 0.6038 5.8890 0.0542 0.0000 -10588.0917 1432.0612 0.0000 0.0000 1750.2742 -7399.2093 302.8290 -9149.4835 -7399.2093 302.8290 63.3561 152.1340 29844.6302 63.3561 152.1340
ENERGY: 300000 0.1039 3.4442 2.2910 0.0000 -10563.1175 1401.3349 0.0000 0.0000 1734.7843 -7421.1591 300.1489 -9155.9434 -7389.3566 302.4861 -222.5589 -112.1320 29556.0258 -266.7746 -190.0279
ENERGY: 600000 0.0472 4.5910 0.5209 0.0000 -10396.1701 1331.4316 0.0000 0.0000 1711.8690 -7347.7104 296.1842 -9059.5794 -7381.6553 300.8402 -608.4193 -601.0379 30084.6140 -280.3794 -212.2842
ENERGY: 900000 2.3490 3.5654 0.4292 0.0000 -10631.1491 1453.0464 0.0000 0.0000 1765.2959 -7406.4632 305.4280 -9171.7591 -7389.4197 301.4801 -78.6514 -56.9407 30458.1916 -238.0000 -169.8007
ENERGY: 1200000 0.0072 3.1809 0.7249 0.0000 -10553.4155 1420.5024 0.0000 0.0000 1735.9287 -7393.0714 300.3469 -9129.0001 -7384.7812 302.4494 89.0418 131.2920 29775.7829 -191.0341 -125.6865
ENERGY: 1500000 0.0995 1.8650 0.1746 0.0000 -10588.9335 1483.1021 0.0000 0.0000 1706.9938 -7396.6986 295.3407 -9103.6924 -7394.9091 301.3270 557.1311 569.7230 29986.4902 -176.6278 -111.9393
TCL: Running FEP window  13: Lambda1 0.39999999999999963 Lambda2 0.34999999999999964 [dLambda -0.04999999999999999]
TCL: Setting parameter firsttimestep to 0
TCL: Setting parameter alchLambda to 0.39999999999999963
Info: NONBONDED TABLE R-SQUARED SPACING: 0.0625
Info: NONBONDED TABLE SIZE: 705 POINTS
TCL: Setting parameter alchLambda2 to 0.34999999999999964
Info: NONBONDED TABLE R-SQUARED SPACING: 0.0625
Info: NONBONDED TABLE SIZE: 705 POINTS
TCL: Running for 1500000 steps
ETITLE: TS BOND ANGLE DIHED IMPRP ELECT VDW BOUNDARY MISC KINETIC TOTAL TEMP POTENTIAL TOTALAVG TEMPAVG PRESSURE GPRESSURE VOLUME PRESSAVG GPRESSAVG
ENERGY: 0 0.0995 1.8650 0.1746 0.0000 -10588.9335 1483.1440 0.0000 0.0000 1706.1240 -7397.5264 295.1902 -9103.6504 -7397.5264 295.1902 497.0883 566.7730 29986.4902 497.0883 566.7730
ENERGY: 300000 0.4600 3.7234 0.6154 0.0000 -10482.7491 1373.6504 0.0000 0.0000 1783.9602 -7320.3396 308.6573 -9104.2999 -7364.6701 302.3107 -438.7360 -421.9578 30362.4272 -87.3326 -13.6944
ENERGY: 600000 0.1319 2.7861 0.0576 0.0000 -10427.5044 1346.6986 0.0000 0.0000 1769.8968 -7307.9334 306.2240 -9077.8302 -7372.5277 302.2835 -422.8406 -379.8443 30159.1784 -163.5363 -110.0552
ENERGY: 900000 0.0831 2.3356 1.5349 0.0000 -10642.2547 1465.8367 0.0000 0.0000 1721.0807 -7451.3838 297.7780 -9172.4644 -7387.6797 300.3561 382.9038 419.5814 29488.0090 -179.0885 -136.7217
ENERGY: 1200000 0.3829 1.9847 0.5534 0.0000 -10531.7413 1334.1253 0.0000 0.0000 1717.9390 -7476.7560 297.2344 -9194.6951 -7397.0084 300.2410 -809.0960 -718.0759 29532.9740 -189.9767 -136.3421
ENERGY: 1500000 1.3313 4.7855 0.7779 0.0000 -10542.6450 1397.8187 0.0000 0.0000 1752.1741 -7385.7574 303.1577 -9137.9314 -7387.6038 300.3326 -336.0990 -293.1904 30107.9375 -274.7252 -215.6519
TCL: Running FEP window  14: Lambda1 0.34999999999999964 Lambda2 0.29999999999999966 [dLambda -0.04999999999999999]
TCL: Setting parameter firsttimestep to 0
TCL: Setting parameter alchLambda to 0.34999999999999964
Info: NONBONDED TABLE R-SQUARED SPACING: 0.0625
Info: NONBONDED TABLE SIZE: 705 POINTS
TCL: Setting parameter alchLambda2 to 0.29999999999999966
Info: NONBONDED TABLE R-SQUARED SPACING: 0.0625
Info: NONBONDED TABLE SIZE: 705 POINTS
TCL: Running for 1500000 steps
ETITLE: TS BOND ANGLE DIHED IMPRP ELECT VDW BOUNDARY MISC KINETIC TOTAL TEMP POTENTIAL TOTALAVG TEMPAVG PRESSURE GPRESSURE VOLUME PRESSAVG GPRESSAVG
ENERGY: 0 1.3313 4.7855 0.7779 0.0000 -10542.6462 1397.8264 0.0000 0.0000 1751.3436 -7386.5813 303.0140 -9137.9250 -7386.5813 303.0140 -383.1212 -294.2865 30107.9375 -383.1212 -294.2865
ENERGY: 300000 0.3580 6.2531 0.6466 0.0000 -10592.3246 1402.5238 0.0000 0.0000 1753.1134 -7429.4296 303.3202 -9182.5431 -7365.5039 306.3640 -185.9352 -118.5845 29737.5070 -454.4444 -381.8028
ENERGY: 600000 1.0162 4.2663 0.7829 0.0000 -10526.3098 1392.9889 0.0000 0.0000 1751.6242 -7375.6313 303.0625 -9127.2555 -7366.2658 305.7287 -402.3391 -265.6959 29997.0531 -231.7704 -159.6657
ENERGY: 900000 0.7223 1.5036 0.1188 0.0000 -10629.0152 1475.5112 0.0000 0.0000 1765.5446 -7385.6147 305.4710 -9151.1593 -7372.9153 305.4575 598.0977 662.6157 29609.1951 -144.7765 -76.1505
ENERGY: 1200000 0.9439 2.6986 0.3295 0.0000 -10534.3892 1366.1264 0.0000 0.0000 1718.2939 -7445.9969 297.2958 -9164.2908 -7383.4797 303.4712 -311.2398 -223.6850 29531.0144 -146.0043 -78.9966
ENERGY: 1500000 1.1154 2.4766 0.0555 0.0000 -10464.5733 1346.0922 0.0000 0.0000 1741.5921 -7373.2415 301.3268 -9114.8336 -7389.6074 302.8278 -463.2391 -414.5449 29867.3992 -165.1137 -102.8544
TCL: Running FEP window  15: Lambda1 0.29999999999999966 Lambda2 0.24999999999999967 [dLambda -0.04999999999999999]
TCL: Setting parameter firsttimestep to 0
TCL: Setting parameter alchLambda to 0.29999999999999966
Info: NONBONDED TABLE R-SQUARED SPACING: 0.0625
Info: NONBONDED TABLE SIZE: 705 POINTS
TCL: Setting parameter alchLambda2 to 0.24999999999999967
Info: NONBONDED TABLE R-SQUARED SPACING: 0.0625
Info: NONBONDED TABLE SIZE: 705 POINTS
TCL: Running for 1500000 steps
ETITLE: TS BOND ANGLE DIHED IMPRP ELECT VDW BOUNDARY MISC KINETIC TOTAL TEMP POTENTIAL TOTALAVG TEMPAVG PRESSURE GPRESSURE VOLUME PRESSAVG GPRESSAVG
ENERGY: 0 1.1154 2.4766 0.0555 0.0000 -10464.5734 1345.6382 0.0000 0.0000 1740.7167 -7374.5711 301.1753 -9115.2878 -7374.5711 301.1753 -498.4760 -419.0800 29867.3992 -498.4760 -419.0800
ENERGY: 300000 0.3196 3.3492 0.8213 0.0000 -10615.1997 1471.1030 0.0000 0.0000 1694.9702 -7444.6366 293.2604 -9139.6068 -7428.3160 296.7846 319.1661 331.1605 29910.7325 163.1327 190.2192
ENERGY: 600000 0.4046 3.8219 0.6718 0.0000 -10494.1343 1438.4909 0.0000 0.0000 1757.0319 -7293.7132 303.9982 -9050.7451 -7415.8026 295.5895 311.5597 344.2548 30106.0991 167.3491 213.7019
ENERGY: 900000 0.0588 3.3084 0.2036 0.0000 -10743.2991 1506.3212 0.0000 0.0000 1721.1837 -7512.2234 297.7958 -9233.4072 -7426.8396 295.0933 481.4473 581.9105 29497.9319 -41.4440 16.3450
ENERGY: 1200000 0.6533 1.2070 0.0496 0.0000 -10482.6609 1445.3048 0.0000 0.0000 1763.3013 -7272.1448 305.0829 -9035.4462 -7416.6080 295.6831 520.5905 507.1979 29786.7293 -5.9719 53.8332
ENERGY: 1500000 0.8876 5.1786 0.3243 0.0000 -10524.8642 1375.6708 0.0000 0.0000 1695.0597 -7447.7432 293.2759 -9142.8029 -7418.4004 295.5027 -408.0984 -309.9103 29729.1011 49.7395 117.7098
TCL: Running FEP window  16: Lambda1 0.24999999999999967 Lambda2 0.19999999999999968 [dLambda -0.04999999999999999]
TCL: Setting parameter firsttimestep to 0
TCL: Setting parameter alchLambda to 0.24999999999999967
Info: NONBONDED TABLE R-SQUARED SPACING: 0.0625
Info: NONBONDED TABLE SIZE: 705 POINTS
TCL: Setting parameter alchLambda2 to 0.19999999999999968
Info: NONBONDED TABLE R-SQUARED SPACING: 0.0625
Info: NONBONDED TABLE SIZE: 705 POINTS
TCL: Running for 1500000 steps
ETITLE: TS BOND ANGLE DIHED IMPRP ELECT VDW BOUNDARY MISC KINETIC TOTAL TEMP POTENTIAL TOTALAVG TEMPAVG PRESSURE GPRESSURE VOLUME PRESSAVG GPRESSAVG
ENERGY: 0 0.8876 5.1786 0.3243 0.0000 -10524.8641 1375.5724 0.0000 0.0000 1694.1901 -7448.7111 293.1254 -9142.9012 -7448.7111 293.1254 -420.9012 -314.2468 29729.1011 -420.9012 -314.2468
ENERGY: 300000 0.0342 3.1671 0.6046 0.0000 -10612.0179 1478.1393 0.0000 0.0000 1702.0461 -7428.0267 294.4846 -9130.0728 -7418.4183 294.4276 287.5974 330.3066 29934.5935 -72.1369 -30.4055
ENERGY: 600000 0.5286 1.3272 0.6225 0.0000 -10553.6151 1415.1249 0.0000 0.0000 1701.5122 -7434.4997 294.3923 -9136.0119 -7390.3570 296.5485 15.7054 96.5367 29777.9471 -242.5517 -191.6010
ENERGY: 900000 0.5499 5.7118 0.2802 0.0000 -10543.8030 1362.4478 0.0000 0.0000 1777.3026 -7397.5108 307.5054 -9174.8134 -7388.9796 298.7748 -618.4805 -562.0886 29905.2894 -307.9233 -259.2392
ENERGY: 1200000 0.4040 3.2826 0.0266 0.0000 -10581.4878 1415.4405 0.0000 0.0000 1729.8036 -7432.5305 299.2872 -9162.3341 -7401.9449 298.0367 131.2756 165.5628 29305.0654 -313.2170 -261.3669
ENERGY: 1500000 0.8261 2.1303 0.4597 0.0000 -10619.2316 1457.8247 0.0000 0.0000 1705.1803 -7452.8106 295.0269 -9157.9909 -7403.0099 297.9279 125.0098 229.8587 29681.1502 -247.0263 -186.8682
TCL: Running FEP window  17: Lambda1 0.19999999999999968 Lambda2 0.1499999999999997 [dLambda -0.04999999999999999]
TCL: Setting parameter firsttimestep to 0
TCL: Setting parameter alchLambda to 0.19999999999999968
Info: NONBONDED TABLE R-SQUARED SPACING: 0.0625
Info: NONBONDED TABLE SIZE: 705 POINTS
TCL: Setting parameter alchLambda2 to 0.1499999999999997
Info: NONBONDED TABLE R-SQUARED SPACING: 0.0625
Info: NONBONDED TABLE SIZE: 705 POINTS
TCL: Running for 1500000 steps
ETITLE: TS BOND ANGLE DIHED IMPRP ELECT VDW BOUNDARY MISC KINETIC TOTAL TEMP POTENTIAL TOTALAVG TEMPAVG PRESSURE GPRESSURE VOLUME PRESSAVG GPRESSAVG
ENERGY: 0 0.8261 2.1303 0.4597 0.0000 -10619.2318 1457.8172 0.0000 0.0000 1704.3286 -7453.6701 294.8795 -9157.9986 -7453.6701 294.8795 148.5820 228.6937 29681.1502 148.5820 228.6937
ENERGY: 300000 0.0287 5.3711 1.4321 0.0000 -10469.4922 1364.8741 0.0000 0.0000 1789.7854 -7308.0008 309.6651 -9097.7862 -7382.0607 299.6991 -593.7514 -493.2618 30326.9512 90.9941 184.6532
ENERGY: 600000 0.9728 5.0550 0.0969 0.0000 -10549.4747 1457.3698 0.0000 0.0000 1787.0803 -7298.8998 309.1971 -9085.9801 -7381.2716 300.5890 161.2511 203.9891 30325.9754 174.4379 247.1500
ENERGY: 900000 0.1866 4.4650 0.2385 0.0000 -10632.2395 1484.7299 0.0000 0.0000 1733.3408 -7409.2787 299.8992 -9142.6196 -7377.9151 300.8509 291.1485 347.8625 30121.1558 -0.9502 77.9844
ENERGY: 1200000 0.1685 5.6006 0.8925 0.0000 -10629.3528 1474.8199 0.0000 0.0000 1788.4296 -7359.4416 309.4305 -9147.8712 -7374.8187 301.2868 322.8795 398.6274 29774.3083 -25.7543 47.7059
ENERGY: 1500000 0.7379 4.8589 1.4764 0.0000 -10658.6882 1520.1641 0.0000 0.0000 1702.5291 -7428.9218 294.5682 -9131.4510 -7374.2827 300.8664 568.4603 630.8483 29957.6094 -20.4427 54.7684
TCL: Running FEP window  18: Lambda1 0.1499999999999997 Lambda2 0.09999999999999969 [dLambda -0.05 ]
TCL: Setting parameter firsttimestep to 0
TCL: Setting parameter alchLambda to 0.1499999999999997
Info: NONBONDED TABLE R-SQUARED SPACING: 0.0625
Info: NONBONDED TABLE SIZE: 705 POINTS
TCL: Setting parameter alchLambda2 to 0.09999999999999969
Info: NONBONDED TABLE R-SQUARED SPACING: 0.0625
Info: NONBONDED TABLE SIZE: 705 POINTS
TCL: Running for 1500000 steps
ETITLE: TS BOND ANGLE DIHED IMPRP ELECT VDW BOUNDARY MISC KINETIC TOTAL TEMP POTENTIAL TOTALAVG TEMPAVG PRESSURE GPRESSURE VOLUME PRESSAVG GPRESSAVG
ENERGY: 0 0.7379 4.8589 1.4764 0.0000 -10658.6892 1519.7282 0.0000 0.0000 1701.6628 -7430.2250 294.4183 -9131.8878 -7430.2250 294.4183 545.2456 628.1390 29957.6094 545.2456 628.1390
ENERGY: 300000 2.4643 1.9645 0.4791 0.0000 -10524.5934 1381.8259 0.0000 0.0000 1756.4743 -7381.3853 303.9017 -9137.8596 -7392.1456 298.5664 -324.2350 -274.0025 29932.3293 -54.3424 -3.8801
ENERGY: 600000 0.9874 2.8530 1.4957 0.0000 -10561.5708 1448.6047 0.0000 0.0000 1721.6808 -7385.9494 297.8818 -9107.6301 -7411.7675 299.5596 60.8574 141.6251 30144.7297 23.3584 62.8798
ENERGY: 900000 0.0359 0.8360 0.1735 0.0000 -10461.0066 1378.8388 0.0000 0.0000 1761.4647 -7319.6577 304.7651 -9081.1224 -7385.6584 301.2106 -257.2880 -136.1322 29700.1158 -129.8554 -73.7121
ENERGY: 1200000 1.9959 0.8302 0.3456 0.0000 -10692.2332 1454.5396 0.0000 0.0000 1698.1165 -7536.4054 293.8047 -9234.5219 -7392.3301 299.9198 -143.5661 -130.2669 29984.9680 -276.6917 -225.3855
ENERGY: 1500000 1.0890 3.1775 0.3366 0.0000 -10605.4367 1353.3162 0.0000 0.0000 1646.6062 -7600.9111 284.8925 -9247.5174 -7402.5933 299.5418 -821.1143 -798.8856 29740.0242 -246.8844 -197.8272
TCL: Running FEP window  19: Lambda1 0.09999999999999969 Lambda2 0.049999999999999684 [dLambda -0.05 ]
TCL: Setting parameter firsttimestep to 0
TCL: Setting parameter alchLambda to 0.09999999999999969
Info: NONBONDED TABLE R-SQUARED SPACING: 0.0625
Info: NONBONDED TABLE SIZE: 705 POINTS
TCL: Setting parameter alchLambda2 to 0.049999999999999684
Info: NONBONDED TABLE R-SQUARED SPACING: 0.0625
Info: NONBONDED TABLE SIZE: 705 POINTS
TCL: Running for 1500000 steps
ETITLE: TS BOND ANGLE DIHED IMPRP ELECT VDW BOUNDARY MISC KINETIC TOTAL TEMP POTENTIAL TOTALAVG TEMPAVG PRESSURE GPRESSURE VOLUME PRESSAVG GPRESSAVG
ENERGY: 0 1.0890 3.1775 0.3366 0.0000 -10605.4369 1352.5448 0.0000 0.0000 1645.7391 -7602.5500 284.7425 -9248.2891 -7602.5500 284.7425 -882.2601 -801.9119 29740.0242 -882.2601 -801.9119
ENERGY: 300000 0.0399 2.6940 0.7547 0.0000 -10423.6095 1353.2283 0.0000 0.0000 1698.0255 -7368.8672 293.7890 -9066.8927 -7426.8414 295.3090 -234.1990 -236.1780 29801.1159 -533.5425 -512.7538
ENERGY: 600000 0.3295 4.7777 0.2837 0.0000 -10648.3734 1498.4209 0.0000 0.0000 1747.6124 -7396.9493 302.3684 -9144.5617 -7388.4503 297.0610 485.9703 548.7056 29652.7787 -318.2188 -266.7917
ENERGY: 900000 1.9702 2.6726 0.2054 0.0000 -10506.8409 1367.0052 0.0000 0.0000 1702.9079 -7432.0796 294.6337 -9134.9875 -7408.0360 297.5750 -433.8087 -385.8514 30006.5302 -239.5546 -181.5884
ENERGY: 1200000 0.4912 6.4994 0.3119 0.0000 -10575.9817 1465.3093 0.0000 0.0000 1787.1128 -7316.2571 309.2027 -9103.3699 -7397.0433 298.8357 345.0996 417.4018 29924.6331 -116.7767 -58.9279
ENERGY: 1500000 0.1571 3.2906 0.3231 0.0000 -10429.0396 1358.7679 0.0000 0.0000 1737.6936 -7328.8072 300.6523 -9066.5008 -7389.8390 299.8223 -93.9650 -38.7962 29641.2563 -111.1072 -56.2827
TCL: Running FEP window  20: Lambda1 0.049999999999999684 Lambda2 0.0    [dLambda -0.049999999999999684]
TCL: Setting parameter firsttimestep to 0
TCL: Setting parameter alchLambda to 0.049999999999999684
Info: NONBONDED TABLE R-SQUARED SPACING: 0.0625
Info: NONBONDED TABLE SIZE: 705 POINTS
TCL: Setting parameter alchLambda2 to 0.0
Info: NONBONDED TABLE R-SQUARED SPACING: 0.0625
Info: NONBONDED TABLE SIZE: 705 POINTS
TCL: Running for 1500000 steps
ETITLE: TS BOND ANGLE DIHED IMPRP ELECT VDW BOUNDARY MISC KINETIC TOTAL TEMP POTENTIAL TOTALAVG TEMPAVG PRESSURE GPRESSURE VOLUME PRESSAVG GPRESSAVG
ENERGY: 0 0.1571 3.2906 0.3231 0.0000 -10429.0391 1357.8951 0.0000 0.0000 1736.8235 -7330.5496 300.5018 -9067.3731 -7330.5496 300.5018 -136.7293 -42.4351 29641.2563 -136.7293 -42.4351
ENERGY: 300000 0.7838 2.3593 0.5553 0.0000 -10575.2182 1483.3746 0.0000 0.0000 1747.6203 -7340.5248 302.3698 -9088.1451 -7356.2670 305.0110 610.8609 571.7582 29950.5491 50.8870 97.8541
ENERGY: 600000 0.1989 3.3793 0.5608 0.0000 -10674.9964 1480.1403 0.0000 0.0000 1753.1121 -7437.6049 303.3200 -9190.7170 -7386.7865 300.1181 649.9491 700.7661 29151.0895 174.9671 231.9739
ENERGY: 900000 1.4504 3.0985 0.8015 0.0000 -10494.5817 1384.7439 0.0000 0.0000 1681.0280 -7423.4595 290.8481 -9104.4875 -7399.4394 299.2703 -400.0518 -322.7199 30080.5988 148.2867 199.2250
ENERGY: 1200000 0.3953 2.4217 0.2370 0.0000 -10533.7939 1453.3762 0.0000 0.0000 1718.6799 -7358.6838 297.3626 -9077.3637 -7400.3773 299.0662 307.1718 371.0690 29891.3141 149.6616 205.9254
ENERGY: 1500000 0.1864 2.7215 0.5420 0.0000 -10624.3868 1456.3409 0.0000 0.0000 1667.4047 -7497.1913 288.4911 -9164.5960 -7401.7469 298.2432 246.9088 305.5927 29774.7216 133.8531 191.2055
TCL: Exiting due to exit command.
