Info: SIMULATION PARAMETERS:
Info: TIMESTEP               2
Info: NUMBER OF STEPS        0
Info: STEPS PER CYCLE        10
Info: PERIODIC CELL BASIS 1  40.176 0 0
Info: PERIODIC CELL BASIS 2  0 39.013 0
Info: PERIODIC CELL BASIS 3  0 0 42.009
Info: PERIODIC CELL CENTER   0 0 0
Info: WRAPPING WATERS AROUND PERIODIC BOUNDARIES ON OUTPUT.
Info: WRAPPING ALL CLUSTERS AROUND PERIODIC BOUNDARIES ON OUTPUT.
Info: FIRST LDB TIMESTEP     50
Info: LAST LDB TIMESTEP     -1
Info: HOM BACKGROUND SCALING 1
Info: PME BACKGROUND SCALING 1
Info: MIN ATOMS PER PATCH    40
Info: EMPTY PATCH LOAD       40 ATOMS
Info: INITIAL TEMPERATURE    300
Info: CENTER OF MASS MOVING INITIALLY? NO
Info: DIELECTRIC             1
Info: EXCLUDE                SCALED ONE-FOUR
Info: 1-4 ELECTROSTATICS SCALED BY 0.833333
Info: MODIFIED 1-4 VDW PARAMETERS WILL BE USED
Info: DCD FILENAME           mobley_4035953_min.dcd
Info: DCD FREQUENCY          5000
Info: DCD FIRST STEP         5000
Info: DCD FILE WILL CONTAIN UNIT CELL DATA
Info: XST FILENAME           mobley_4035953_min.xst
Info: XST FREQUENCY          5000
Info: NO VELOCITY DCD OUTPUT
Info: NO FORCE DCD OUTPUT
Info: OUTPUT FILENAME        mobley_4035953_min
Info: BINARY OUTPUT FILES WILL BE USED
Info: RESTART FILENAME       mobley_4035953_min.restart
Info: RESTART FREQUENCY      5000
Info: BINARY RESTART FILES WILL BE USED
Info: CUTOFF                 9
Info: PAIRLIST DISTANCE      11
Info: PAIRLIST SHRINK RATE   0.01
Info: PAIRLIST GROW RATE     0.01
Info: PAIRLIST TRIGGER       0.3
Info: PAIRLISTS PER CYCLE    2
Info: PAIRLISTS ENABLED
Info: MARGIN                 8
Info: HYDROGEN GROUP CUTOFF  2.5
Info: PATCH DIMENSION        21.5
Info: ENERGY OUTPUT STEPS    5000
Info: ENERGY EVALUATION STEPS    5000
Info: OUTPUT ENERGY PRECISION 4
Info: CROSSTERM ENERGY INCLUDED IN DIHEDRAL
Info: TIMING OUTPUT STEPS    50000
Info: PRESSURE OUTPUT STEPS  5000
Info: LANGEVIN DYNAMICS ACTIVE
Info: LANGEVIN TEMPERATURE   300
Info: LANGEVIN USING BBK INTEGRATOR
Info: LANGEVIN DAMPING COEFFICIENT IS 1 INVERSE PS
Info: LANGEVIN DYNAMICS APPLIED TO HYDROGENS
Info: LANGEVIN PISTON PRESSURE CONTROL ACTIVE
Info:        TARGET PRESSURE IS 1.01325 BAR
Info:     OSCILLATION PERIOD IS 50 FS
Info:             DECAY TIME IS 25 FS
Info:     PISTON TEMPERATURE IS 300 K
Info:       PRESSURE CONTROL IS GROUP-BASED
Info:    INITIAL STRAIN RATE IS 0 0 0
Info:       CELL FLUCTUATION IS ISOTROPIC
Info: PARTICLE MESH EWALD (PME) ACTIVE
Info: PME TOLERANCE               1e-06
Info: PME EWALD COEFFICIENT       0.348832
Info: PME INTERPOLATION ORDER     4
Info: PME GRID DIMENSIONS         44 40 44
Info: PME MAXIMUM GRID SPACING    1
Info: FULL ELECTROSTATIC EVALUATION FREQUENCY      2
Info: USING VERLET I (r-RESPA) MTS SCHEME.
Info: C1 SPLITTING OF LONG RANGE ELECTROSTATICS
Info: PLACING ATOMS IN PATCHES BY HYDROGEN GROUPS
Info: RIGID BONDS TO HYDROGEN : ALL
Info:         ERROR TOLERANCE : 1e-08
Info:          MAX ITERATIONS : 100
Info: RIGID WATER USING SETTLE ALGORITHM
Info: RANDOM NUMBER SEED     1741332854
Info: USE HYDROGEN BONDS?    NO
Info: Using AMBER format force field!
Info: AMBER PARM FILE        mobley_4035953.prmtop
Info: COORDINATE PDB         mobley_4035953.pdb
Info: Exclusions will be read from PARM file!
Info: SCNB (VDW SCALING)     2
Info: USING ARITHMETIC MEAN TO COMBINE L-J SIGMA PARAMETERS
Info: SUMMARY OF PARAMETERS:
Info: 8 BONDS
Info: 7 ANGLES
Info:   7 HARMONIC
Info:   0 COSINE-BASED
Info: 4 DIHEDRAL
Info: 0 IMPROPER
Info: 0 CROSSTERM
Info: 0 VDW
Info: 36 VDW_PAIRS
Info: 0 NBTHOLE_PAIRS
Info: STRUCTURE SUMMARY:
Info: 4726 ATOMS
Info: 4726 BONDS
Info: 25 ANGLES
Info: 37 DIHEDRALS
Info: 0 IMPROPERS
Info: 0 CROSSTERMS
Info: 4780 EXCLUSIONS
Info: 4718 RIGID BONDS
Info: 9460 DEGREES OF FREEDOM
Info: 1578 HYDROGEN GROUPS
Info: 4 ATOMS IN LARGEST HYDROGEN GROUP
Info: 1578 MIGRATION GROUPS
Info: 4 ATOMS IN LARGEST MIGRATION GROUP
Info: TOTAL MASS = 28393.3 amu
Info: TOTAL CHARGE = -9.99942e-05 e
Info: MASS DENSITY = 0.716071 g/cm^3
Info: ATOM DENSITY = 0.0717754 atoms/A^3
Info: ADDED 0 IMPLICIT EXCLUSIONS
Info: NONBONDED TABLE R-SQUARED SPACING: 0.0625
Info: NONBONDED TABLE SIZE: 705 POINTS
Info: REMOVING COM VELOCITY -0.0352643 0.0892136 0.0268277
TCL: Minimizing for 2000 steps
ETITLE: TS BOND ANGLE DIHED IMPRP ELECT VDW BOUNDARY MISC KINETIC TOTAL TEMP POTENTIAL TOTAL3 TEMPAVG PRESSURE GPRESSURE VOLUME PRESSAVG GPRESSAVG
ENERGY: 0 0.1446 0.1767 0.0002 0.0000 -14762.7078 1710.8674 0.0000 0.0000 0.0000 -13051.5189 0.0000 -13051.5189 -13051.5189 0.0000 11255.3698 -15547.7617 65844.3306 11255.3698 -15547.7617
ENERGY: 400 5.3826 3.1541 2.0406 0.0000 -19835.0330 2879.0256 0.0000 0.0000 0.0000 -16945.4300 0.0000 -16945.4300 -16945.4300 0.0000 15661.9299 15809.5043 65844.3306 15661.9299 15809.5043
ENERGY: 800 0.6766 0.6438 0.4227 0.0000 -20795.1250 3333.1384 0.0000 0.0000 0.0000 -17460.2436 0.0000 -17460.2436 -17460.2436 0.0000 17790.2781 17927.4779 65844.3306 17790.2781 17927.4779
ENERGY: 1200 0.5734 0.3553 0.2435 0.0000 -21245.5350 3542.7608 0.0000 0.0000 0.0000 -17701.6019 0.0000 -17701.6019 -17701.6019 0.0000 18826.7761 18952.9024 65844.3306 18826.7761 18952.9024
ENERGY: 1600 0.4268 0.3415 0.2424 0.0000 -21439.0156 3619.9379 0.0000 0.0000 0.0000 -17818.0669 0.0000 -17818.0669 -17818.0669 0.0000 19265.0131 19382.7562 65844.3306 19265.0131 19382.7562
ENERGY: 2000 0.3617 0.2394 0.2713 0.0000 -21565.2332 3665.1626 0.0000 0.0000 0.0000 -17899.1983 0.0000 -17899.1983 -17899.1983 0.0000 19509.7846 19625.0257 65844.3306 19509.7846 19625.0257
TCL: Exiting due to exit command.
Info: NAMD 3.0.1 for Linux-x86_64-multicore
Info: Please visit http://www.ks.uiuc.edu/Research/namd/
Info: for updates, documentation, and support information.
Info: Please cite Phillips et al., J. Chem. Phys. 153:044130 (2020) doi:10.1063/5.0014475
Info: in all publications reporting results obtained with NAMD.
Info: Based on Charm++/Converse 80000 for multicore-linux-x86_64-gcc
Info: Built Mon Oct 14 11:11:06 CDT 2024 by dhardy on athine.ks.uiuc.edu
Info: 1 NAMD  3.0.1  Linux-x86_64-multicore  16    k006  z5358697
Info: Running on 16 processors, 1 nodes, 1 physical nodes.
Info: CPU topology information available.
Info: Charm++/Converse parallel runtime startup completed at 0.00997804 s
Info: 1043.45 MB of memory in use based on /proc/self/stat
Info: Configuration file is mobley_4035953_equil.namd
Info: Working in the current directory /srv/scratch/z5358697/prod_prep_5/4035953
TCL: Running 25000 steps at 30 kelvin.
TCL: Suspending until startup complete.
Info: SIMULATION PARAMETERS:
Info: TIMESTEP               2
Info: NUMBER OF STEPS        0
Info: STEPS PER CYCLE        10
Info: PERIODIC CELL BASIS 1  40.176 0 0
Info: PERIODIC CELL BASIS 2  0 39.013 0
Info: PERIODIC CELL BASIS 3  0 0 42.009
Info: PERIODIC CELL CENTER   0 0 0
Info: WRAPPING WATERS AROUND PERIODIC BOUNDARIES ON OUTPUT.
Info: WRAPPING ALL CLUSTERS AROUND PERIODIC BOUNDARIES ON OUTPUT.
Info: FIRST LDB TIMESTEP     50
Info: LAST LDB TIMESTEP     -1
Info: HOM BACKGROUND SCALING 1
Info: PME BACKGROUND SCALING 1
Info: MIN ATOMS PER PATCH    40
Info: EMPTY PATCH LOAD       40 ATOMS
Info: INITIAL TEMPERATURE    300
Info: CENTER OF MASS MOVING INITIALLY? NO
Info: DIELECTRIC             1
Info: EXCLUDE                SCALED ONE-FOUR
Info: 1-4 ELECTROSTATICS SCALED BY 0.833333
Info: MODIFIED 1-4 VDW PARAMETERS WILL BE USED
Info: DCD FILENAME           mobley_4035953_equil.dcd
Info: DCD FREQUENCY          5000
Info: DCD FIRST STEP         5000
Info: DCD FILE WILL CONTAIN UNIT CELL DATA
Info: XST FILENAME           mobley_4035953_equil.xst
Info: XST FREQUENCY          5000
Info: NO VELOCITY DCD OUTPUT
Info: NO FORCE DCD OUTPUT
Info: OUTPUT FILENAME        mobley_4035953_equil
Info: BINARY OUTPUT FILES WILL BE USED
Info: RESTART FILENAME       mobley_4035953_equil.restart
Info: RESTART FREQUENCY      5000
Info: BINARY RESTART FILES WILL BE USED
Info: CUTOFF                 9
Info: PAIRLIST DISTANCE      11
Info: PAIRLIST SHRINK RATE   0.01
Info: PAIRLIST GROW RATE     0.01
Info: PAIRLIST TRIGGER       0.3
Info: PAIRLISTS PER CYCLE    2
Info: PAIRLISTS ENABLED
Info: MARGIN                 8
Info: HYDROGEN GROUP CUTOFF  2.5
Info: PATCH DIMENSION        21.5
Info: ENERGY OUTPUT STEPS    5000
Info: ENERGY EVALUATION STEPS    5000
Info: OUTPUT ENERGY PRECISION 4
Info: CROSSTERM ENERGY INCLUDED IN DIHEDRAL
Info: TIMING OUTPUT STEPS    50000
Info: PRESSURE OUTPUT STEPS  5000
Info: LANGEVIN DYNAMICS ACTIVE
Info: LANGEVIN TEMPERATURE   30
Info: LANGEVIN USING BBK INTEGRATOR
Info: LANGEVIN DAMPING COEFFICIENT IS 1 INVERSE PS
Info: LANGEVIN DYNAMICS APPLIED TO HYDROGENS
Info: LANGEVIN PISTON PRESSURE CONTROL ACTIVE
Info:        TARGET PRESSURE IS 1.01325 BAR
Info:     OSCILLATION PERIOD IS 50 FS
Info:             DECAY TIME IS 25 FS
Info:     PISTON TEMPERATURE IS 300 K
Info:       PRESSURE CONTROL IS GROUP-BASED
Info:    INITIAL STRAIN RATE IS 0 0 0
Info:       CELL FLUCTUATION IS ISOTROPIC
Info: PARTICLE MESH EWALD (PME) ACTIVE
Info: PME TOLERANCE               1e-06
Info: PME EWALD COEFFICIENT       0.348832
Info: PME INTERPOLATION ORDER     4
Info: PME GRID DIMENSIONS         44 40 44
Info: PME MAXIMUM GRID SPACING    1
Info: FULL ELECTROSTATIC EVALUATION FREQUENCY      2
Info: USING VERLET I (r-RESPA) MTS SCHEME.
Info: C1 SPLITTING OF LONG RANGE ELECTROSTATICS
Info: PLACING ATOMS IN PATCHES BY HYDROGEN GROUPS
Info: RIGID BONDS TO HYDROGEN : ALL
Info:         ERROR TOLERANCE : 1e-08
Info:          MAX ITERATIONS : 100
Info: RIGID WATER USING SETTLE ALGORITHM
Info: RANDOM NUMBER SEED     1741332870
Info: USE HYDROGEN BONDS?    NO
Info: Using AMBER format force field!
Info: AMBER PARM FILE        mobley_4035953.prmtop
Info: COORDINATE PDB         mobley_4035953.pdb
Info: Exclusions will be read from PARM file!
Info: SCNB (VDW SCALING)     2
Info: USING ARITHMETIC MEAN TO COMBINE L-J SIGMA PARAMETERS
Info: BINARY COORDINATES     mobley_4035953_min.coor
Info: SUMMARY OF PARAMETERS:
Info: 8 BONDS
Info: 7 ANGLES
Info:   7 HARMONIC
Info:   0 COSINE-BASED
Info: 4 DIHEDRAL
Info: 0 IMPROPER
Info: 0 CROSSTERM
Info: 0 VDW
Info: 36 VDW_PAIRS
Info: 0 NBTHOLE_PAIRS
Info: STRUCTURE SUMMARY:
Info: 4726 ATOMS
Info: 4726 BONDS
Info: 25 ANGLES
Info: 37 DIHEDRALS
Info: 0 IMPROPERS
Info: 0 CROSSTERMS
Info: 4780 EXCLUSIONS
Info: 4718 RIGID BONDS
Info: 9460 DEGREES OF FREEDOM
Info: 1578 HYDROGEN GROUPS
Info: 4 ATOMS IN LARGEST HYDROGEN GROUP
Info: 1578 MIGRATION GROUPS
Info: 4 ATOMS IN LARGEST MIGRATION GROUP
Info: TOTAL MASS = 28393.3 amu
Info: TOTAL CHARGE = -9.99942e-05 e
Info: MASS DENSITY = 0.716071 g/cm^3
Info: ATOM DENSITY = 0.0717754 atoms/A^3
Info: ADDED 0 IMPLICIT EXCLUSIONS
Info: NONBONDED TABLE R-SQUARED SPACING: 0.0625
Info: NONBONDED TABLE SIZE: 705 POINTS
Info: REMOVING COM VELOCITY -0.0883325 0.0832622 0.0416895
TCL: Running for 25000 steps
ETITLE: TS BOND ANGLE DIHED IMPRP ELECT VDW BOUNDARY MISC KINETIC TOTAL TEMP POTENTIAL TOTAL3 TEMPAVG PRESSURE GPRESSURE VOLUME PRESSAVG GPRESSAVG
ENERGY: 0 0.3617 0.2394 0.2713 0.0000 -21565.2332 3665.1626 0.0000 0.0000 2815.0891 -15084.1091 299.4963 -17899.1983 -15083.5390 299.4963 -22.0880 8.2818 65844.3306 -22.0880 8.2818
ENERGY: 5000 0.6190 0.9013 0.7326 0.0000 -22801.5194 4033.5439 0.0000 0.0000 284.0721 -18481.6506 30.2223 -18765.7227 -18481.2141 47.6775 591.8216 635.9869 45648.6032 3.6731 3.7945
ENERGY: 10000 0.5038 0.3537 0.3746 0.0000 -22769.9078 3971.0662 0.0000 0.0000 285.7683 -18511.8413 30.4028 -18797.6096 -18511.1449 30.1681 154.2347 198.0214 45654.9495 1.3031 1.0269
ENERGY: 15000 0.6326 0.7664 1.2445 0.0000 -22563.3632 3729.2180 0.0000 0.0000 287.2117 -18544.2900 30.5563 -18831.5016 -18543.1496 30.2513 -1201.9053 -1157.5182 46075.4630 0.3778 0.2593
ENERGY: 20000 0.7056 0.6774 0.2615 0.0000 -22815.1152 3950.4231 0.0000 0.0000 287.4657 -18575.5819 30.5834 -18863.0476 -18575.0378 30.0417 -109.5822 -44.5635 45646.3317 5.2849 5.2475
ENERGY: 25000 0.2404 0.2932 0.3301 0.0000 -22971.7916 4109.1164 0.0000 0.0000 287.8944 -18573.9172 30.6290 -18861.8116 -18572.7828 30.0498 840.8520 896.6614 45373.9895 3.3559 3.4713
TCL: Running 25000 steps at 60 kelvin.
TCL: Setting parameter langevinTemp to 60
TCL: Running for 25000 steps
ETITLE: TS BOND ANGLE DIHED IMPRP ELECT VDW BOUNDARY MISC KINETIC TOTAL TEMP POTENTIAL TOTAL3 TEMPAVG PRESSURE GPRESSURE VOLUME PRESSAVG GPRESSAVG
ENERGY: 25000 0.2404 0.2932 0.3301 0.0000 -22971.7916 4109.1164 0.0000 0.0000 287.7591 -18574.0525 30.6146 -18861.8116 -18573.5071 30.6146 841.2457 896.8042 45373.9895 841.2457 896.8042
ENERGY: 30000 0.2424 0.8093 0.8203 0.0000 -22241.8958 3664.4696 0.0000 0.0000 570.3594 -18005.1949 60.6803 -18575.5542 -18003.0468 57.1612 -885.6710 -808.6945 46078.2312 2.3588 2.2683
ENERGY: 35000 0.3233 0.9063 0.9762 0.0000 -22426.0416 3790.8690 0.0000 0.0000 550.2709 -18082.6959 58.5431 -18632.9668 -18081.4498 60.0012 -313.7236 -289.0231 45888.2668 3.5768 3.1863
ENERGY: 40000 0.1471 1.7638 0.2596 0.0000 -22593.5076 3933.2132 0.0000 0.0000 563.0148 -18095.1091 59.8989 -18658.1239 -18093.8501 60.1061 413.6366 460.7007 45509.8011 4.8356 4.6107
ENERGY: 45000 0.9698 0.2893 0.3309 0.0000 -22367.7500 3703.4424 0.0000 0.0000 573.9289 -18088.7886 61.0601 -18662.7175 -18086.6177 59.9121 -882.0424 -807.4890 45884.2053 4.4887 4.6923
ENERGY: 50000 0.5227 1.4333 0.4693 0.0000 -22475.8586 3796.3344 0.0000 0.0000 562.6736 -18114.4253 59.8626 -18677.0989 -18113.3375 60.5035 -385.7359 -359.2484 45810.8952 5.5302 5.1669
TCL: Running 25000 steps at 90 kelvin.
TCL: Setting parameter langevinTemp to 90
TCL: Running for 25000 steps
ETITLE: TS BOND ANGLE DIHED IMPRP ELECT VDW BOUNDARY MISC KINETIC TOTAL TEMP POTENTIAL TOTAL3 TEMPAVG PRESSURE GPRESSURE VOLUME PRESSAVG GPRESSAVG
ENERGY: 50000 0.5227 1.4333 0.4693 0.0000 -22475.8586 3796.3344 0.0000 0.0000 562.4009 -18114.6980 59.8336 -18677.0989 -18113.4161 59.8336 -419.2008 -359.6256 45810.8952 -419.2008 -359.6256
ENERGY: 55000 1.6704 2.8550 1.0905 0.0000 -22131.7413 3738.3762 0.0000 0.0000 848.4646 -17539.2847 90.2678 -18387.7492 -17537.2464 86.7675 -62.6360 6.1619 45904.3982 6.8091 6.8655
ENERGY: 60000 0.4458 1.4479 1.5643 0.0000 -22217.0054 3795.0210 0.0000 0.0000 857.2433 -17561.2831 91.2018 -18418.5264 -17559.3362 90.1512 176.4488 233.4288 45974.1926 2.3154 2.2822
ENERGY: 65000 0.7258 1.8174 0.6354 0.0000 -22283.1814 3799.2525 0.0000 0.0000 840.9329 -17639.8174 89.4665 -18480.7503 -17637.5759 91.2968 92.6287 139.6265 45893.6503 5.1880 5.0565
ENERGY: 70000 0.6381 1.1455 2.0252 0.0000 -22242.2081 3734.9572 0.0000 0.0000 846.1140 -17657.3281 90.0177 -18503.4422 -17655.1230 90.0703 -320.4047 -285.7478 45887.0947 1.6312 1.5800
ENERGY: 75000 0.9340 1.2168 1.2203 0.0000 -22288.6194 3761.9015 0.0000 0.0000 855.4765 -17667.8704 91.0138 -18523.3468 -17665.2776 90.1197 -216.8492 -153.4224 45821.1797 3.6990 4.0465
TCL: Running 25000 steps at 120 kelvin.
TCL: Setting parameter langevinTemp to 120
TCL: Running for 25000 steps
ETITLE: TS BOND ANGLE DIHED IMPRP ELECT VDW BOUNDARY MISC KINETIC TOTAL TEMP POTENTIAL TOTAL3 TEMPAVG PRESSURE GPRESSURE VOLUME PRESSAVG GPRESSAVG
ENERGY: 75000 0.9340 1.2168 1.2203 0.0000 -22288.6194 3761.9015 0.0000 0.0000 855.0571 -17668.2897 90.9692 -18523.3468 -17666.8899 90.9692 -209.2985 -153.1433 45821.1797 -209.2985 -153.1433
ENERGY: 80000 0.5173 2.3416 1.2040 0.0000 -21936.2232 3737.0452 0.0000 0.0000 1102.2684 -17092.8468 117.2699 -18195.1152 -17090.4710 116.9742 393.6733 471.3297 45920.2728 -3.0522 -2.9752
ENERGY: 85000 1.6910 2.0174 1.2038 0.0000 -21978.1159 3726.7470 0.0000 0.0000 1128.5245 -17117.9321 120.0633 -18246.4566 -17114.4726 120.0757 267.3088 268.4806 45878.4631 -4.4764 -4.7260
ENERGY: 90000 0.7447 2.4260 2.7165 0.0000 -21887.9998 3653.2314 0.0000 0.0000 1114.3799 -17114.5014 118.5584 -18228.8813 -17111.6223 120.3873 -94.1161 0.7494 46132.8406 5.6194 5.6427
ENERGY: 95000 1.4597 1.7579 1.1896 0.0000 -22124.2395 3850.7542 0.0000 0.0000 1122.6629 -17146.4152 119.4397 -18269.0780 -17144.4694 119.3431 910.0961 914.6281 45869.7940 -3.7352 -3.5655
ENERGY: 100000 0.6930 1.5136 1.4787 0.0000 -21839.0345 3535.2867 0.0000 0.0000 1152.5165 -17147.5460 122.6158 -18300.0625 -17143.3040 120.6455 -869.9591 -814.4224 46226.7199 -2.9166 -3.0189
TCL: Running 25000 steps at 150 kelvin.
TCL: Setting parameter langevinTemp to 150
TCL: Running for 25000 steps
ETITLE: TS BOND ANGLE DIHED IMPRP ELECT VDW BOUNDARY MISC KINETIC TOTAL TEMP POTENTIAL TOTAL3 TEMPAVG PRESSURE GPRESSURE VOLUME PRESSAVG GPRESSAVG
ENERGY: 100000 0.6930 1.5136 1.4787 0.0000 -21839.0345 3535.2867 0.0000 0.0000 1151.9482 -17148.1143 122.5553 -18300.0625 -17145.8929 122.5553 -861.4143 -814.3822 46226.7199 -861.4143 -814.3822
ENERGY: 105000 1.3028 1.6969 1.3048 0.0000 -21394.4735 3471.1053 0.0000 0.0000 1398.7150 -16520.3488 148.8088 -17919.0638 -16517.0304 146.8965 -497.5126 -458.6726 46722.7716 5.6318 5.8239
ENERGY: 110000 1.1998 1.9946 1.6088 0.0000 -21532.7366 3570.0183 0.0000 0.0000 1437.4166 -16520.4985 152.9262 -17957.9152 -16516.6169 149.0605 -11.7827 66.4836 46454.6365 4.0527 3.7383
ENERGY: 115000 2.2914 1.4630 3.7058 0.0000 -21240.6843 3330.4622 0.0000 0.0000 1453.0147 -16449.7472 154.5857 -17902.7619 -16447.0029 149.4224 -1138.9228 -1057.8556 46509.1928 2.8743 2.7500
ENERGY: 120000 0.8187 2.9550 1.6712 0.0000 -21515.1553 3563.9447 0.0000 0.0000 1415.4881 -16530.2775 150.5932 -17945.7656 -16526.3828 151.4710 -14.9125 55.8337 46332.3441 6.9022 6.8274
ENERGY: 125000 0.9773 1.8896 0.6060 0.0000 -21535.3786 3552.0775 0.0000 0.0000 1411.3608 -16568.4674 150.1541 -17979.8282 -16564.7932 149.8117 80.1352 162.7900 45883.5521 -1.3059 -1.5914
TCL: Running 50000 steps at 180 kelvin.
TCL: Setting parameter langevinTemp to 180
TCL: Running for 50000 steps
ETITLE: TS BOND ANGLE DIHED IMPRP ELECT VDW BOUNDARY MISC KINETIC TOTAL TEMP POTENTIAL TOTAL3 TEMPAVG PRESSURE GPRESSURE VOLUME PRESSAVG GPRESSAVG
ENERGY: 125000 0.9773 1.8896 0.6060 0.0000 -21535.3786 3552.0775 0.0000 0.0000 1410.6613 -16569.1669 150.0797 -17979.8282 -16566.5538 150.0797 101.5379 163.7418 45883.5521 101.5379 163.7418
ENERGY: 135000 0.9476 3.2345 1.7086 0.0000 -20890.8327 3406.9019 0.0000 0.0000 1674.9833 -15803.0568 178.2008 -17478.0401 -15797.3038 180.3105 396.3804 434.1539 46162.9863 2.4510 2.8943
ENERGY: 145000 1.3407 2.0197 2.8168 0.0000 -20932.0577 3346.0961 0.0000 0.0000 1710.4484 -15869.3361 181.9739 -17579.7844 -15864.8680 180.7447 -125.4714 -94.3858 46350.5263 3.2831 3.5001
ENERGY: 155000 1.1116 2.0297 0.9802 0.0000 -21080.1167 3460.2184 0.0000 0.0000 1670.8263 -15944.9505 177.7586 -17615.7768 -15942.1183 179.5789 406.2109 473.3920 45878.6555 3.7608 3.8085
ENERGY: 165000 1.4664 3.9214 1.7346 0.0000 -20787.0706 3200.0354 0.0000 0.0000 1684.5183 -15895.3945 179.2153 -17579.9128 -15892.6660 180.0822 -1003.2447 -920.3182 46576.1285 1.5276 1.7482
ENERGY: 175000 1.8229 1.7683 2.7108 0.0000 -21026.1436 3441.8621 0.0000 0.0000 1739.8249 -15838.1546 185.0993 -17577.9795 -15834.2278 179.8415 251.3121 317.7986 46110.5404 3.3310 3.3866
TCL: Running 50000 steps at 210 kelvin.
TCL: Setting parameter langevinTemp to 210
TCL: Running for 50000 steps
ETITLE: TS BOND ANGLE DIHED IMPRP ELECT VDW BOUNDARY MISC KINETIC TOTAL TEMP POTENTIAL TOTAL3 TEMPAVG PRESSURE GPRESSURE VOLUME PRESSAVG GPRESSAVG
ENERGY: 175000 1.8229 1.7683 2.7108 0.0000 -21026.1436 3441.8621 0.0000 0.0000 1738.9632 -15839.0164 185.0076 -17577.9795 -15835.7717 185.0076 258.3768 318.1415 46110.5404 258.3768 318.1415
ENERGY: 185000 1.1425 4.2530 2.3177 0.0000 -19794.6035 2924.3156 0.0000 0.0000 1953.4553 -14909.1193 207.8274 -16862.5746 -14900.2582 210.4424 -632.3866 -593.1090 46322.6442 0.3398 0.3127
ENERGY: 195000 1.1542 3.5949 1.8515 0.0000 -19928.9059 3053.9530 0.0000 0.0000 1957.8108 -14910.5415 208.2907 -16868.3523 -14905.9645 211.0143 175.6780 252.8704 45742.3175 3.0937 3.3242
ENERGY: 205000 0.5319 3.2167 2.2531 0.0000 -19863.1628 2996.0862 0.0000 0.0000 1961.0397 -14900.0351 208.6343 -16861.0749 -14895.8700 210.1846 -182.9526 -160.3202 46089.4562 5.0290 4.2525
ENERGY: 215000 1.4715 3.9262 0.7575 0.0000 -20138.2834 3196.6428 0.0000 0.0000 1997.6821 -14937.8033 212.5326 -16935.4853 -14933.9661 209.7809 871.5445 960.0616 45712.8725 1.7721 2.4442
ENERGY: 225000 3.3864 2.6484 1.5360 0.0000 -19826.4776 2911.2139 0.0000 0.0000 1982.3708 -14925.3220 210.9037 -16907.6928 -14919.7472 209.7958 -678.0913 -582.1348 46167.7930 5.4116 5.1866
TCL: Running 50000 steps at 240 kelvin.
TCL: Setting parameter langevinTemp to 240
TCL: Running for 50000 steps
ETITLE: TS BOND ANGLE DIHED IMPRP ELECT VDW BOUNDARY MISC KINETIC TOTAL TEMP POTENTIAL TOTAL3 TEMPAVG PRESSURE GPRESSURE VOLUME PRESSAVG GPRESSAVG
ENERGY: 225000 3.3864 2.6484 1.5360 0.0000 -19826.4776 2911.2139 0.0000 0.0000 1981.4424 -14926.2504 210.8049 -16907.6928 -14922.6213 210.8049 -670.3649 -580.9503 46167.7930 -670.3649 -580.9503
ENERGY: 235000 2.0452 4.8830 2.0524 0.0000 -18606.5544 2502.7124 0.0000 0.0000 2201.9229 -13892.9385 234.2617 -16094.8614 -13886.4754 240.7110 -1261.6712 -1195.5837 46872.8887 5.4200 5.2432
ENERGY: 245000 7.1162 5.8990 1.7258 0.0000 -18950.2024 2822.1575 0.0000 0.0000 2221.7328 -13891.5711 236.3693 -16113.3039 -13885.9935 240.2553 311.8880 386.3224 46527.2565 4.9512 4.7890
ENERGY: 255000 1.8458 5.1435 1.7198 0.0000 -19090.7289 2926.6363 0.0000 0.0000 2257.3562 -13898.0272 240.1593 -16155.3835 -13894.2931 242.1259 858.1474 957.1138 46338.7523 5.2307 5.5709
ENERGY: 265000 1.9833 6.2754 2.1388 0.0000 -18880.8002 2658.4182 0.0000 0.0000 2289.8675 -13922.1172 243.6181 -16211.9847 -13918.9813 240.9277 -812.3894 -715.1393 47192.8167 3.7870 3.7340
ENERGY: 275000 1.3477 6.1161 3.9971 0.0000 -19004.2286 2777.8835 0.0000 0.0000 2198.6526 -14016.2316 233.9138 -16214.8842 -14009.4943 238.5692 -78.8317 23.6766 46587.8173 3.9973 4.2516
TCL: Running 50000 steps at 270 kelvin.
TCL: Setting parameter langevinTemp to 270
TCL: Running for 50000 steps
ETITLE: TS BOND ANGLE DIHED IMPRP ELECT VDW BOUNDARY MISC KINETIC TOTAL TEMP POTENTIAL TOTAL3 TEMPAVG PRESSURE GPRESSURE VOLUME PRESSAVG GPRESSAVG
ENERGY: 275000 1.3477 6.1161 3.9971 0.0000 -19004.2286 2777.8835 0.0000 0.0000 2197.5342 -14017.3500 233.7948 -16214.8842 -14014.0880 233.7948 -57.6754 25.4656 46587.8173 -57.6754 25.4656
ENERGY: 285000 1.6927 4.1679 3.3888 0.0000 -17996.6246 2472.2995 0.0000 0.0000 2637.5047 -12877.5710 280.6031 -15515.0758 -12871.2096 271.5827 -214.4379 -107.0352 47555.4037 0.9109 0.8590
ENERGY: 295000 2.0058 5.5953 3.2615 0.0000 -17973.6092 2503.8723 0.0000 0.0000 2511.0640 -12947.8103 267.1511 -15458.8744 -12940.7289 270.0745 110.2105 131.2759 47231.9649 0.6375 0.1693
ENERGY: 305000 0.4558 1.7524 2.3563 0.0000 -17933.9779 2391.7916 0.0000 0.0000 2556.3220 -12981.2997 271.9661 -15537.6217 -12972.8854 270.3489 -631.3869 -558.1056 47224.9196 2.5100 2.5059
ENERGY: 315000 2.6961 4.3362 4.1400 0.0000 -17992.4757 2446.6293 0.0000 0.0000 2543.3519 -12991.3223 270.5862 -15534.6742 -12987.1894 270.0485 -562.6267 -486.4398 47773.7133 -0.1493 0.2852
ENERGY: 325000 2.6051 2.1480 2.1098 0.0000 -17795.7531 2409.2308 0.0000 0.0000 2525.6411 -12854.0183 268.7020 -15379.6594 -12847.7029 269.9041 -526.9255 -464.5019 48070.4612 -4.2885 -3.9758
TCL: Running 1000000 steps at 300 kelvin.
TCL: Setting parameter langevinTemp to 300
TCL: Running for 1000000 steps
ETITLE: TS BOND ANGLE DIHED IMPRP ELECT VDW BOUNDARY MISC KINETIC TOTAL TEMP POTENTIAL TOTAL3 TEMPAVG PRESSURE GPRESSURE VOLUME PRESSAVG GPRESSAVG
ENERGY: 325000 2.6051 2.1480 2.1098 0.0000 -17795.7531 2409.2308 0.0000 0.0000 2524.3618 -12855.2976 268.5659 -15379.6594 -12851.6547 268.5659 -541.2728 -462.5925 48070.4612 -541.2728 -462.5925
ENERGY: 525000 3.4071 6.2529 1.5725 0.0000 -17181.9355 2242.9493 0.0000 0.0000 2843.1631 -12084.5906 302.4830 -14927.7537 -12079.6463 297.4415 -348.9532 -250.3437 48418.5606 6.0955 5.4275
ENERGY: 725000 5.0706 7.7922 2.8129 0.0000 -17108.3939 2293.4452 0.0000 0.0000 2873.9885 -11925.2845 305.7625 -14799.2730 -11919.7608 301.0040 56.6658 158.9628 48388.2022 2.2790 2.7132
ENERGY: 925000 1.0485 6.8740 8.9931 0.0000 -17122.9827 2223.4880 0.0000 0.0000 2814.2384 -12068.3408 299.4057 -14882.5791 -12064.6136 301.5065 -493.2233 -462.6950 48709.3681 1.0418 0.6893
ENERGY: 1125000 1.5539 5.0425 3.6906 0.0000 -17207.8122 2360.7754 0.0000 0.0000 2803.1740 -12033.5757 298.2286 -14836.7498 -12030.8466 301.5720 159.8918 247.0872 48541.4198 -2.4456 -2.4730
ENERGY: 1325000 3.2664 6.3991 3.8389 0.0000 -17030.1840 2253.8630 0.0000 0.0000 2763.2188 -11999.5979 293.9778 -14762.8166 -11995.2840 302.1307 -469.9403 -419.8971 49363.2341 1.5830 2.0321
TCL: Exiting due to exit command.
