Info: SIMULATION PARAMETERS:
Info: TIMESTEP               2
Info: NUMBER OF STEPS        0
Info: STEPS PER CYCLE        10
Info: PERIODIC CELL BASIS 1  41.545 0 0
Info: PERIODIC CELL BASIS 2  0 40.459 0
Info: PERIODIC CELL BASIS 3  0 0 43.754
Info: PERIODIC CELL CENTER   0 0 0
Info: WRAPPING WATERS AROUND PERIODIC BOUNDARIES ON OUTPUT.
Info: WRAPPING ALL CLUSTERS AROUND PERIODIC BOUNDARIES ON OUTPUT.
Info: FIRST LDB TIMESTEP     50
Info: LAST LDB TIMESTEP     -1
Info: HOM BACKGROUND SCALING 1
Info: PME BACKGROUND SCALING 1
Info: MIN ATOMS PER PATCH    40
Info: EMPTY PATCH LOAD       40 ATOMS
Info: INITIAL TEMPERATURE    300
Info: CENTER OF MASS MOVING INITIALLY? NO
Info: DIELECTRIC             1
Info: EXCLUDE                SCALED ONE-FOUR
Info: 1-4 ELECTROSTATICS SCALED BY 0.833333
Info: MODIFIED 1-4 VDW PARAMETERS WILL BE USED
Info: DCD FILENAME           mobley_1160109_min.dcd
Info: DCD FREQUENCY          5000
Info: DCD FIRST STEP         5000
Info: DCD FILE WILL CONTAIN UNIT CELL DATA
Info: XST FILENAME           mobley_1160109_min.xst
Info: XST FREQUENCY          5000
Info: NO VELOCITY DCD OUTPUT
Info: NO FORCE DCD OUTPUT
Info: OUTPUT FILENAME        mobley_1160109_min
Info: BINARY OUTPUT FILES WILL BE USED
Info: RESTART FILENAME       mobley_1160109_min.restart
Info: RESTART FREQUENCY      5000
Info: BINARY RESTART FILES WILL BE USED
Info: CUTOFF                 9
Info: PAIRLIST DISTANCE      11
Info: PAIRLIST SHRINK RATE   0.01
Info: PAIRLIST GROW RATE     0.01
Info: PAIRLIST TRIGGER       0.3
Info: PAIRLISTS PER CYCLE    2
Info: PAIRLISTS ENABLED
Info: MARGIN                 8
Info: HYDROGEN GROUP CUTOFF  2.5
Info: PATCH DIMENSION        21.5
Info: ENERGY OUTPUT STEPS    5000
Info: ENERGY EVALUATION STEPS    5000
Info: OUTPUT ENERGY PRECISION 4
Info: CROSSTERM ENERGY INCLUDED IN DIHEDRAL
Info: TIMING OUTPUT STEPS    50000
Info: PRESSURE OUTPUT STEPS  5000
Info: LANGEVIN DYNAMICS ACTIVE
Info: LANGEVIN TEMPERATURE   300
Info: LANGEVIN USING BBK INTEGRATOR
Info: LANGEVIN DAMPING COEFFICIENT IS 1 INVERSE PS
Info: LANGEVIN DYNAMICS APPLIED TO HYDROGENS
Info: LANGEVIN PISTON PRESSURE CONTROL ACTIVE
Info:        TARGET PRESSURE IS 1.01325 BAR
Info:     OSCILLATION PERIOD IS 50 FS
Info:             DECAY TIME IS 25 FS
Info:     PISTON TEMPERATURE IS 300 K
Info:       PRESSURE CONTROL IS GROUP-BASED
Info:    INITIAL STRAIN RATE IS 0 0 0
Info:       CELL FLUCTUATION IS ISOTROPIC
Info: PARTICLE MESH EWALD (PME) ACTIVE
Info: PME TOLERANCE               1e-06
Info: PME EWALD COEFFICIENT       0.348832
Info: PME INTERPOLATION ORDER     4
Info: PME GRID DIMENSIONS         44 44 44
Info: PME MAXIMUM GRID SPACING    1
Info: FULL ELECTROSTATIC EVALUATION FREQUENCY      2
Info: USING VERLET I (r-RESPA) MTS SCHEME.
Info: C1 SPLITTING OF LONG RANGE ELECTROSTATICS
Info: PLACING ATOMS IN PATCHES BY HYDROGEN GROUPS
Info: RIGID BONDS TO HYDROGEN : ALL
Info:         ERROR TOLERANCE : 1e-08
Info:          MAX ITERATIONS : 100
Info: RIGID WATER USING SETTLE ALGORITHM
Info: RANDOM NUMBER SEED     1741309220
Info: USE HYDROGEN BONDS?    NO
Info: Using AMBER format force field!
Info: AMBER PARM FILE        mobley_1160109.prmtop
Info: COORDINATE PDB         mobley_1160109.pdb
Info: Exclusions will be read from PARM file!
Info: SCNB (VDW SCALING)     2
Info: USING ARITHMETIC MEAN TO COMBINE L-J SIGMA PARAMETERS
Info: SUMMARY OF PARAMETERS:
Info: 9 BONDS
Info: 13 ANGLES
Info:   13 HARMONIC
Info:   0 COSINE-BASED
Info: 19 DIHEDRAL
Info: 0 IMPROPER
Info: 0 CROSSTERM
Info: 0 VDW
Info: 28 VDW_PAIRS
Info: 0 NBTHOLE_PAIRS
Info: STRUCTURE SUMMARY:
Info: 5310 ATOMS
Info: 5310 BONDS
Info: 51 ANGLES
Info: 87 DIHEDRALS
Info: 0 IMPROPERS
Info: 0 CROSSTERMS
Info: 5431 EXCLUSIONS
Info: 5299 RIGID BONDS
Info: 10631 DEGREES OF FREEDOM
Info: 1772 HYDROGEN GROUPS
Info: 4 ATOMS IN LARGEST HYDROGEN GROUP
Info: 1772 MIGRATION GROUPS
Info: 4 ATOMS IN LARGEST MIGRATION GROUP
Info: TOTAL MASS = 31878.4 amu
Info: TOTAL CHARGE = -0.000199955 e
Info: MASS DENSITY = 0.719787 g/cm^3
Info: ATOM DENSITY = 0.0722009 atoms/A^3
Info: ADDED 0 IMPLICIT EXCLUSIONS
Info: NONBONDED TABLE R-SQUARED SPACING: 0.0625
Info: NONBONDED TABLE SIZE: 705 POINTS
Info: REMOVING COM VELOCITY -0.248816 -0.094917 -0.043726
TCL: Minimizing for 2000 steps
ETITLE: TS BOND ANGLE DIHED IMPRP ELECT VDW BOUNDARY MISC KINETIC TOTAL TEMP POTENTIAL TOTAL3 TEMPAVG PRESSURE GPRESSURE VOLUME PRESSAVG GPRESSAVG
ENERGY: 0 0.2006 1.3550 33.1825 0.0000 -16478.3107 1838.5674 0.0000 0.0000 0.0000 -14605.0052 0.0000 -14605.0052 -14605.0052 0.0000 11058.5295 -15423.6656 73544.7490 11058.5295 -15423.6656
ENERGY: 400 3.6857 4.5216 22.5937 0.0000 -22256.6482 3264.5468 0.0000 0.0000 0.0000 -18961.3004 0.0000 -18961.3004 -18961.3004 0.0000 15929.8354 10463.8832 73544.7490 15929.8354 10463.8832
ENERGY: 800 1.7464 3.1227 22.5340 0.0000 -23426.3365 3786.7629 0.0000 0.0000 0.0000 -19612.1705 0.0000 -19612.1705 -19612.1705 0.0000 18173.5531 12223.8667 73544.7490 18173.5531 12223.8667
ENERGY: 1200 1.1392 2.7507 22.7451 0.0000 -23872.0142 3974.1378 0.0000 0.0000 0.0000 -19871.2414 0.0000 -19871.2414 -19871.2414 0.0000 18966.9805 12683.3352 73544.7490 18966.9805 12683.3352
ENERGY: 1600 0.8010 3.0456 22.4928 0.0000 -24058.6509 4043.8735 0.0000 0.0000 0.0000 -19988.4380 0.0000 -19988.4380 -19988.4380 0.0000 19302.7260 12896.2958 73544.7490 19302.7260 12896.2958
ENERGY: 2000 1.8264 2.4686 23.2052 0.0000 -24231.3840 4136.3998 0.0000 0.0000 0.0000 -20067.4839 0.0000 -20067.4839 -20067.4839 0.0000 19731.2710 13242.9670 73544.7490 19731.2710 13242.9670
TCL: Exiting due to exit command.
Info: NAMD 3.0.1 for Linux-x86_64-multicore
Info: Please visit http://www.ks.uiuc.edu/Research/namd/
Info: for updates, documentation, and support information.
Info: Please cite Phillips et al., J. Chem. Phys. 153:044130 (2020) doi:10.1063/5.0014475
Info: in all publications reporting results obtained with NAMD.
Info: Based on Charm++/Converse 80000 for multicore-linux-x86_64-gcc
Info: Built Mon Oct 14 11:11:06 CDT 2024 by dhardy on athine.ks.uiuc.edu
Info: 1 NAMD  3.0.1  Linux-x86_64-multicore  16    k014  z5358697
Info: Running on 16 processors, 1 nodes, 1 physical nodes.
Info: CPU topology information available.
Info: Charm++/Converse parallel runtime startup completed at 0.0114505 s
Info: 1043.46 MB of memory in use based on /proc/self/stat
Info: Configuration file is mobley_1160109_equil.namd
Info: Working in the current directory /srv/scratch/z5358697/prod_prep/1160109
TCL: Running 25000 steps at 30 kelvin.
TCL: Suspending until startup complete.
Info: SIMULATION PARAMETERS:
Info: TIMESTEP               2
Info: NUMBER OF STEPS        0
Info: STEPS PER CYCLE        10
Info: PERIODIC CELL BASIS 1  41.545 0 0
Info: PERIODIC CELL BASIS 2  0 40.459 0
Info: PERIODIC CELL BASIS 3  0 0 43.754
Info: PERIODIC CELL CENTER   0 0 0
Info: WRAPPING WATERS AROUND PERIODIC BOUNDARIES ON OUTPUT.
Info: WRAPPING ALL CLUSTERS AROUND PERIODIC BOUNDARIES ON OUTPUT.
Info: FIRST LDB TIMESTEP     50
Info: LAST LDB TIMESTEP     -1
Info: HOM BACKGROUND SCALING 1
Info: PME BACKGROUND SCALING 1
Info: MIN ATOMS PER PATCH    40
Info: EMPTY PATCH LOAD       40 ATOMS
Info: INITIAL TEMPERATURE    300
Info: CENTER OF MASS MOVING INITIALLY? NO
Info: DIELECTRIC             1
Info: EXCLUDE                SCALED ONE-FOUR
Info: 1-4 ELECTROSTATICS SCALED BY 0.833333
Info: MODIFIED 1-4 VDW PARAMETERS WILL BE USED
Info: DCD FILENAME           mobley_1160109_equil.dcd
Info: DCD FREQUENCY          5000
Info: DCD FIRST STEP         5000
Info: DCD FILE WILL CONTAIN UNIT CELL DATA
Info: XST FILENAME           mobley_1160109_equil.xst
Info: XST FREQUENCY          5000
Info: NO VELOCITY DCD OUTPUT
Info: NO FORCE DCD OUTPUT
Info: OUTPUT FILENAME        mobley_1160109_equil
Info: BINARY OUTPUT FILES WILL BE USED
Info: RESTART FILENAME       mobley_1160109_equil.restart
Info: RESTART FREQUENCY      5000
Info: BINARY RESTART FILES WILL BE USED
Info: CUTOFF                 9
Info: PAIRLIST DISTANCE      11
Info: PAIRLIST SHRINK RATE   0.01
Info: PAIRLIST GROW RATE     0.01
Info: PAIRLIST TRIGGER       0.3
Info: PAIRLISTS PER CYCLE    2
Info: PAIRLISTS ENABLED
Info: MARGIN                 8
Info: HYDROGEN GROUP CUTOFF  2.5
Info: PATCH DIMENSION        21.5
Info: ENERGY OUTPUT STEPS    5000
Info: ENERGY EVALUATION STEPS    5000
Info: OUTPUT ENERGY PRECISION 4
Info: CROSSTERM ENERGY INCLUDED IN DIHEDRAL
Info: TIMING OUTPUT STEPS    50000
Info: PRESSURE OUTPUT STEPS  5000
Info: LANGEVIN DYNAMICS ACTIVE
Info: LANGEVIN TEMPERATURE   30
Info: LANGEVIN USING BBK INTEGRATOR
Info: LANGEVIN DAMPING COEFFICIENT IS 1 INVERSE PS
Info: LANGEVIN DYNAMICS APPLIED TO HYDROGENS
Info: LANGEVIN PISTON PRESSURE CONTROL ACTIVE
Info:        TARGET PRESSURE IS 1.01325 BAR
Info:     OSCILLATION PERIOD IS 50 FS
Info:             DECAY TIME IS 25 FS
Info:     PISTON TEMPERATURE IS 300 K
Info:       PRESSURE CONTROL IS GROUP-BASED
Info:    INITIAL STRAIN RATE IS 0 0 0
Info:       CELL FLUCTUATION IS ISOTROPIC
Info: PARTICLE MESH EWALD (PME) ACTIVE
Info: PME TOLERANCE               1e-06
Info: PME EWALD COEFFICIENT       0.348832
Info: PME INTERPOLATION ORDER     4
Info: PME GRID DIMENSIONS         44 44 44
Info: PME MAXIMUM GRID SPACING    1
Info: FULL ELECTROSTATIC EVALUATION FREQUENCY      2
Info: USING VERLET I (r-RESPA) MTS SCHEME.
Info: C1 SPLITTING OF LONG RANGE ELECTROSTATICS
Info: PLACING ATOMS IN PATCHES BY HYDROGEN GROUPS
Info: RIGID BONDS TO HYDROGEN : ALL
Info:         ERROR TOLERANCE : 1e-08
Info:          MAX ITERATIONS : 100
Info: RIGID WATER USING SETTLE ALGORITHM
Info: RANDOM NUMBER SEED     1741309237
Info: USE HYDROGEN BONDS?    NO
Info: Using AMBER format force field!
Info: AMBER PARM FILE        mobley_1160109.prmtop
Info: COORDINATE PDB         mobley_1160109.pdb
Info: Exclusions will be read from PARM file!
Info: SCNB (VDW SCALING)     2
Info: USING ARITHMETIC MEAN TO COMBINE L-J SIGMA PARAMETERS
Info: BINARY COORDINATES     mobley_1160109_min.coor
Info: SUMMARY OF PARAMETERS:
Info: 9 BONDS
Info: 13 ANGLES
Info:   13 HARMONIC
Info:   0 COSINE-BASED
Info: 19 DIHEDRAL
Info: 0 IMPROPER
Info: 0 CROSSTERM
Info: 0 VDW
Info: 28 VDW_PAIRS
Info: 0 NBTHOLE_PAIRS
Info: STRUCTURE SUMMARY:
Info: 5310 ATOMS
Info: 5310 BONDS
Info: 51 ANGLES
Info: 87 DIHEDRALS
Info: 0 IMPROPERS
Info: 0 CROSSTERMS
Info: 5431 EXCLUSIONS
Info: 5299 RIGID BONDS
Info: 10631 DEGREES OF FREEDOM
Info: 1772 HYDROGEN GROUPS
Info: 4 ATOMS IN LARGEST HYDROGEN GROUP
Info: 1772 MIGRATION GROUPS
Info: 4 ATOMS IN LARGEST MIGRATION GROUP
Info: TOTAL MASS = 31878.4 amu
Info: TOTAL CHARGE = -0.000199955 e
Info: MASS DENSITY = 0.719787 g/cm^3
Info: ATOM DENSITY = 0.0722009 atoms/A^3
Info: ADDED 0 IMPLICIT EXCLUSIONS
Info: NONBONDED TABLE R-SQUARED SPACING: 0.0625
Info: NONBONDED TABLE SIZE: 705 POINTS
Info: REMOVING COM VELOCITY 0.0432707 0.11788 0.0628722
TCL: Running for 25000 steps
ETITLE: TS BOND ANGLE DIHED IMPRP ELECT VDW BOUNDARY MISC KINETIC TOTAL TEMP POTENTIAL TOTAL3 TEMPAVG PRESSURE GPRESSURE VOLUME PRESSAVG GPRESSAVG
ENERGY: 0 1.8264 2.4686 23.2052 0.0000 -24231.3840 4136.3998 0.0000 0.0000 3199.5549 -16867.9291 302.9046 -20067.4839 -16867.2284 302.9046 106.4158 149.1108 73544.7490 106.4158 149.1108
ENERGY: 5000 0.6105 3.0382 23.1042 0.0000 -25455.5125 4407.2377 0.0000 0.0000 318.0247 -20703.4973 30.1077 -21021.5219 -20702.4398 48.0574 -19.9015 36.2942 52098.9404 1.0384 1.2066
ENERGY: 10000 1.1326 3.3305 23.0084 0.0000 -25580.3769 4488.8329 0.0000 0.0000 325.4887 -20738.5839 30.8143 -21064.0726 -20737.8251 30.2632 273.1514 332.5145 51903.0593 1.6989 1.7180
ENERGY: 15000 1.0216 3.1053 22.9779 0.0000 -25385.3904 4283.3641 0.0000 0.0000 314.6081 -20760.3133 29.7842 -21074.9214 -20759.4752 30.1763 -749.5110 -672.0204 52125.1087 4.5013 4.4321
ENERGY: 20000 0.4766 2.8908 23.3873 0.0000 -25617.1804 4499.2722 0.0000 0.0000 319.7622 -20771.3914 30.2722 -21091.1536 -20770.7334 30.1336 319.1835 390.9924 51656.9354 0.4685 0.4375
ENERGY: 25000 1.1810 3.5061 23.1132 0.0000 -25639.6476 4511.6710 0.0000 0.0000 317.5380 -20782.6383 30.0616 -21100.1764 -20781.6275 30.0570 364.7465 421.6572 51561.8386 5.5291 5.2678
TCL: Running 25000 steps at 60 kelvin.
TCL: Setting parameter langevinTemp to 60
TCL: Running for 25000 steps
ETITLE: TS BOND ANGLE DIHED IMPRP ELECT VDW BOUNDARY MISC KINETIC TOTAL TEMP POTENTIAL TOTAL3 TEMPAVG PRESSURE GPRESSURE VOLUME PRESSAVG GPRESSAVG
ENERGY: 25000 1.1810 3.5061 23.1132 0.0000 -25639.6476 4511.6710 0.0000 0.0000 317.3729 -20782.8035 30.0460 -21100.1764 -20782.1213 30.0460 364.2825 421.7310 51561.8386 364.2825 421.7310
ENERGY: 30000 0.6339 4.2320 23.7451 0.0000 -25047.2330 4213.4634 0.0000 0.0000 630.2502 -20174.9083 59.6663 -20805.1585 -20173.4964 56.5368 -505.1993 -429.3971 52286.9407 2.8696 3.1869
ENERGY: 35000 0.4821 6.8552 22.8401 0.0000 -25325.6165 4461.2993 0.0000 0.0000 630.3370 -20203.8028 59.6745 -20834.1398 -20202.2355 60.5520 665.4712 735.4126 51856.5974 0.6123 0.3337
ENERGY: 40000 1.2019 4.3564 25.6513 0.0000 -25268.4754 4361.5124 0.0000 0.0000 647.4537 -20228.2996 61.2950 -20875.7533 -20226.2830 60.5716 142.1645 212.3809 51695.2481 1.1585 0.9041
ENERGY: 45000 1.5844 4.6692 23.3446 0.0000 -25307.7740 4400.6064 0.0000 0.0000 638.8925 -20238.6769 60.4845 -20877.5694 -20237.1723 60.3321 226.0517 295.6085 51687.9273 0.4603 0.4462
ENERGY: 50000 0.8233 6.4446 22.7931 0.0000 -25291.7914 4338.6843 0.0000 0.0000 644.8612 -20278.1848 61.0496 -20923.0460 -20276.4301 60.3762 -80.9143 -18.9851 51762.8616 1.6221 1.5843
TCL: Running 25000 steps at 90 kelvin.
TCL: Setting parameter langevinTemp to 90
TCL: Running for 25000 steps
ETITLE: TS BOND ANGLE DIHED IMPRP ELECT VDW BOUNDARY MISC KINETIC TOTAL TEMP POTENTIAL TOTAL3 TEMPAVG PRESSURE GPRESSURE VOLUME PRESSAVG GPRESSAVG
ENERGY: 50000 0.8233 6.4446 22.7931 0.0000 -25291.7914 4338.6843 0.0000 0.0000 644.5447 -20278.5013 61.0196 -20923.0460 -20277.3114 61.0196 -76.0194 -18.9641 51762.8616 -76.0194 -18.9641
ENERGY: 55000 2.3633 3.9123 24.2842 0.0000 -24801.8789 4169.3739 0.0000 0.0000 956.3056 -19645.6395 90.5343 -20601.9451 -19643.9168 86.8116 -231.6847 -167.7113 52010.1753 3.9524 3.9573
ENERGY: 60000 0.9720 5.3301 24.2705 0.0000 -24934.6569 4273.7187 0.0000 0.0000 942.4777 -19687.8877 89.2252 -20630.3655 -19686.0703 90.0561 333.2357 409.3539 51412.6395 0.0395 -0.1922
ENERGY: 65000 0.6018 5.0373 22.4197 0.0000 -25009.5150 4334.0161 0.0000 0.0000 972.2643 -19675.1758 92.0451 -20647.4401 -19672.4184 90.0712 651.9641 707.0519 51274.1527 4.2744 4.1516
ENERGY: 70000 2.0621 6.0687 23.2606 0.0000 -24917.5035 4215.2764 0.0000 0.0000 957.4535 -19713.3824 90.6429 -20670.8358 -19711.8059 90.4875 -18.7768 6.0833 51491.9379 0.4289 0.4164
ENERGY: 75000 0.8760 6.0018 23.0663 0.0000 -24904.4520 4173.8023 0.0000 0.0000 965.6775 -19735.0280 91.4215 -20700.7055 -19731.4915 89.3956 -296.0024 -265.2171 51583.6990 2.8546 3.0491
TCL: Running 25000 steps at 120 kelvin.
TCL: Setting parameter langevinTemp to 120
TCL: Running for 25000 steps
ETITLE: TS BOND ANGLE DIHED IMPRP ELECT VDW BOUNDARY MISC KINETIC TOTAL TEMP POTENTIAL TOTAL3 TEMPAVG PRESSURE GPRESSURE VOLUME PRESSAVG GPRESSAVG
ENERGY: 75000 0.8760 6.0018 23.0663 0.0000 -24904.4520 4173.8023 0.0000 0.0000 965.2032 -19735.5023 91.3766 -20700.7055 -19733.5302 91.3766 -320.4924 -264.7215 51583.6990 -320.4924 -264.7215
ENERGY: 80000 1.0568 5.4646 26.2011 0.0000 -24289.6470 3937.8391 0.0000 0.0000 1261.4824 -19057.6029 119.4256 -20319.0854 -19056.0475 117.4851 -663.6554 -607.0223 52014.7239 0.0396 0.4398
ENERGY: 85000 3.2293 5.2544 22.8607 0.0000 -24415.1831 4026.3187 0.0000 0.0000 1268.9749 -19088.5453 120.1349 -20357.5201 -19086.1579 120.7968 -216.6155 -147.4312 51535.4902 -0.6923 -0.5564
ENERGY: 90000 2.1771 5.4655 24.1712 0.0000 -24282.9745 3868.4383 0.0000 0.0000 1278.0392 -19104.6832 120.9931 -20382.7224 -19100.5814 119.9786 -1114.9826 -1026.0897 51975.0080 3.4663 3.3222
ENERGY: 95000 1.9751 5.2540 25.0400 0.0000 -24575.0639 4122.2289 0.0000 0.0000 1266.3183 -19154.2476 119.8834 -20420.5659 -19150.3905 120.9696 208.8735 267.2973 51319.0457 3.9016 4.3631
ENERGY: 100000 1.4511 5.9818 24.3437 0.0000 -24767.0549 4330.8050 0.0000 0.0000 1245.3996 -19159.0737 117.9030 -20404.4733 -19155.4792 119.5472 1177.2392 1217.8789 51258.0082 -1.5270 -1.4262
TCL: Running 25000 steps at 150 kelvin.
TCL: Setting parameter langevinTemp to 150
TCL: Running for 25000 steps
ETITLE: TS BOND ANGLE DIHED IMPRP ELECT VDW BOUNDARY MISC KINETIC TOTAL TEMP POTENTIAL TOTAL3 TEMPAVG PRESSURE GPRESSURE VOLUME PRESSAVG GPRESSAVG
ENERGY: 100000 1.4511 5.9818 24.3437 0.0000 -24767.0549 4330.8050 0.0000 0.0000 1244.7844 -19159.6889 117.8448 -20404.4733 -19157.3842 117.8448 1166.9303 1218.2105 51258.0082 1166.9303 1218.2105
ENERGY: 105000 0.8495 7.2917 24.7546 0.0000 -24111.2030 4012.8226 0.0000 0.0000 1561.5151 -18503.9694 147.8300 -20065.4846 -18500.3791 146.0536 360.0374 434.6893 51766.4006 1.2652 1.2012
ENERGY: 110000 2.0192 7.7420 26.2210 0.0000 -24198.6050 4019.6728 0.0000 0.0000 1561.0967 -18581.8533 147.7903 -20142.9500 -18577.3195 149.2724 198.0420 283.4313 51796.2426 4.3127 4.0082
ENERGY: 115000 2.8187 10.7462 24.0635 0.0000 -23901.0345 3827.3267 0.0000 0.0000 1586.4639 -18449.6154 150.1919 -20036.0793 -18444.7456 150.0017 -671.4100 -569.0258 52253.0554 3.5509 3.4582
ENERGY: 120000 4.6892 9.0857 23.8472 0.0000 -24078.9096 3944.3444 0.0000 0.0000 1549.0929 -18547.8502 146.6539 -20096.9431 -18543.3014 150.3075 -303.6250 -245.6326 52075.5315 6.2786 6.2872
ENERGY: 125000 4.7129 7.5240 23.6371 0.0000 -24067.0107 3915.6642 0.0000 0.0000 1612.6006 -18502.8720 152.6663 -20115.4725 -18497.5892 149.8961 -394.3090 -353.1105 52047.4744 3.5913 3.6111
TCL: Running 50000 steps at 180 kelvin.
TCL: Setting parameter langevinTemp to 180
TCL: Running for 50000 steps
ETITLE: TS BOND ANGLE DIHED IMPRP ELECT VDW BOUNDARY MISC KINETIC TOTAL TEMP POTENTIAL TOTAL3 TEMPAVG PRESSURE GPRESSURE VOLUME PRESSAVG GPRESSAVG
ENERGY: 125000 4.7129 7.5240 23.6371 0.0000 -24067.0107 3915.6642 0.0000 0.0000 1611.8184 -18503.6541 152.5922 -20115.4725 -18500.1119 152.5922 -405.9120 -352.7777 52047.4744 -405.9120 -352.7777
ENERGY: 135000 3.3135 7.8333 26.1185 0.0000 -23485.0316 3799.4439 0.0000 0.0000 1874.8136 -17773.5088 177.4902 -19648.3223 -17768.8198 179.2036 27.6338 85.0957 51909.0444 3.4824 3.5878
ENERGY: 145000 1.0406 7.8989 24.6318 0.0000 -23487.0409 3836.9009 0.0000 0.0000 1926.2576 -17690.3112 182.3604 -19616.5688 -17687.9794 180.5773 442.1953 519.4988 51751.0023 3.6771 2.9425
ENERGY: 155000 2.6523 6.8601 25.4068 0.0000 -23393.0211 3709.9890 0.0000 0.0000 1938.6979 -17709.4151 183.5382 -19648.1130 -17706.7219 180.0166 -252.3280 -223.7452 52043.2455 4.1893 3.9632
ENERGY: 165000 1.8352 10.3073 23.7755 0.0000 -23458.1829 3739.4308 0.0000 0.0000 1871.2478 -17811.5863 177.1526 -19682.8340 -17807.4891 179.0410 -327.1839 -278.1556 52243.2429 -3.3064 -3.2442
ENERGY: 175000 2.7254 9.6652 24.8649 0.0000 -23511.3581 3801.7886 0.0000 0.0000 1880.8952 -17791.4189 178.0659 -19672.3141 -17787.6259 180.6380 -250.0149 -168.0010 52466.7063 -1.4921 -1.5728
TCL: Running 50000 steps at 210 kelvin.
TCL: Setting parameter langevinTemp to 210
TCL: Running for 50000 steps
ETITLE: TS BOND ANGLE DIHED IMPRP ELECT VDW BOUNDARY MISC KINETIC TOTAL TEMP POTENTIAL TOTAL3 TEMPAVG PRESSURE GPRESSURE VOLUME PRESSAVG GPRESSAVG
ENERGY: 175000 2.7254 9.6652 24.8649 0.0000 -23511.3581 3801.7886 0.0000 0.0000 1879.9599 -17792.3541 177.9774 -19672.3141 -17788.5056 177.9774 -239.5291 -167.7255 52466.7063 -239.5291 -167.7255
ENERGY: 185000 3.2712 11.0868 24.7701 0.0000 -22388.9566 3455.8310 0.0000 0.0000 2204.4925 -16689.5050 208.7012 -18893.9976 -16683.6777 209.4048 26.6411 115.5615 52082.6118 2.2097 2.0301
ENERGY: 195000 2.5763 12.5428 26.0941 0.0000 -22269.5107 3357.5537 0.0000 0.0000 2234.5975 -16636.1464 211.5512 -18870.7438 -16632.7888 209.7758 -334.7485 -251.8957 52123.7787 3.6453 3.7955
ENERGY: 205000 3.0376 10.6042 23.4149 0.0000 -22513.9680 3550.7785 0.0000 0.0000 2200.9535 -16725.1793 208.3661 -18926.1328 -16720.0852 209.3990 373.0553 429.5710 52119.5550 -0.7568 -0.9810
ENERGY: 215000 4.7152 8.4576 26.7039 0.0000 -22504.7125 3515.9636 0.0000 0.0000 2216.0470 -16732.8252 209.7950 -18948.8722 -16724.8027 209.5109 258.0119 374.5194 51688.3052 1.0504 0.4792
ENERGY: 225000 3.5782 13.8901 24.3066 0.0000 -22438.2266 3452.0683 0.0000 0.0000 2269.2682 -16675.1152 214.8335 -18944.3835 -16669.3353 209.2931 -74.9781 3.7228 52219.0509 4.7309 4.8308
TCL: Running 50000 steps at 240 kelvin.
TCL: Setting parameter langevinTemp to 240
TCL: Running for 50000 steps
ETITLE: TS BOND ANGLE DIHED IMPRP ELECT VDW BOUNDARY MISC KINETIC TOTAL TEMP POTENTIAL TOTAL3 TEMPAVG PRESSURE GPRESSURE VOLUME PRESSAVG GPRESSAVG
ENERGY: 225000 3.5782 13.8901 24.3066 0.0000 -22438.2266 3452.0683 0.0000 0.0000 2268.1600 -16676.2235 214.7286 -18944.3835 -16672.5933 214.7286 -67.3289 4.0187 52219.0509 -67.3289 4.0187
ENERGY: 235000 2.3136 12.6737 23.2239 0.0000 -21319.1696 3138.2009 0.0000 0.0000 2493.1297 -15649.6277 236.0267 -18142.7574 -15644.7261 240.5174 296.2947 354.6266 51849.9261 -0.2886 -0.7651
ENERGY: 245000 3.1718 13.4103 24.3443 0.0000 -21029.5080 2980.4999 0.0000 0.0000 2608.7836 -15399.2981 246.9758 -18008.0817 -15392.1763 240.4009 -357.9653 -289.1272 52454.1835 2.6733 2.3855
ENERGY: 255000 3.1075 12.7753 22.9196 0.0000 -21334.8770 3236.0443 0.0000 0.0000 2568.7370 -15491.2932 243.1845 -18060.0303 -15484.5728 241.6124 803.2228 896.5264 51973.3135 7.1201 6.7562
ENERGY: 265000 3.5745 10.1510 24.7175 0.0000 -20945.8938 2897.4309 0.0000 0.0000 2475.3309 -15534.6891 234.3417 -18010.0199 -15530.2540 238.5760 -918.2905 -827.0534 52610.6794 1.0471 1.1356
ENERGY: 275000 3.6485 10.6442 27.1492 0.0000 -21301.5604 3109.4105 0.0000 0.0000 2570.4521 -15580.2560 243.3469 -18150.7081 -15575.0007 239.9427 -56.0204 34.3557 52505.4152 -0.0005 0.3289
TCL: Running 50000 steps at 270 kelvin.
TCL: Setting parameter langevinTemp to 270
TCL: Running for 50000 steps
ETITLE: TS BOND ANGLE DIHED IMPRP ELECT VDW BOUNDARY MISC KINETIC TOTAL TEMP POTENTIAL TOTAL3 TEMPAVG PRESSURE GPRESSURE VOLUME PRESSAVG GPRESSAVG
ENERGY: 275000 3.6485 10.6442 27.1492 0.0000 -21301.5604 3109.4105 0.0000 0.0000 2569.1673 -15581.5408 243.2252 -18150.7081 -15576.3597 243.2252 -55.4862 34.2207 52505.4152 -55.4862 34.2207
ENERGY: 285000 3.3931 13.3431 23.8675 0.0000 -20078.3514 2662.0170 0.0000 0.0000 2931.9721 -14443.7585 277.5723 -17375.7307 -14435.5680 271.0668 -734.3200 -595.1910 53421.1862 3.4209 3.7171
ENERGY: 295000 4.1663 9.7196 25.1253 0.0000 -20054.8675 2798.4564 0.0000 0.0000 2847.1771 -14370.2228 269.5447 -17217.4000 -14361.4646 270.8873 5.0994 95.4350 53484.6384 1.8501 1.7280
ENERGY: 305000 1.6693 10.8736 25.4151 0.0000 -20388.8381 2959.6654 0.0000 0.0000 2830.8363 -14560.3785 267.9977 -17391.2147 -14554.9155 270.2509 555.5489 635.7204 53128.0645 0.9237 1.3251
ENERGY: 315000 3.2813 13.4837 26.2521 0.0000 -20123.9582 2782.2251 0.0000 0.0000 2792.2908 -14506.4252 264.3485 -17298.7160 -14504.6808 271.0581 -68.8763 -1.8249 53106.0816 5.2838 5.1743
ENERGY: 325000 4.1174 11.1763 23.4504 0.0000 -19963.5512 2605.6728 0.0000 0.0000 2818.3395 -14500.7949 266.8146 -17319.1344 -14495.9762 269.5791 -974.3001 -844.2425 53461.0620 3.3348 3.4068
TCL: Running 1000000 steps at 300 kelvin.
TCL: Setting parameter langevinTemp to 300
TCL: Running for 1000000 steps
ETITLE: TS BOND ANGLE DIHED IMPRP ELECT VDW BOUNDARY MISC KINETIC TOTAL TEMP POTENTIAL TOTAL3 TEMPAVG PRESSURE GPRESSURE VOLUME PRESSAVG GPRESSAVG
ENERGY: 325000 4.1174 11.1763 23.4504 0.0000 -19963.5512 2605.6728 0.0000 0.0000 2816.9229 -14502.2115 266.6805 -17319.1344 -14496.3277 266.6805 -934.9084 -845.3085 53461.0620 -934.9084 -845.3085
ENERGY: 525000 2.1940 11.3295 25.2727 0.0000 -19212.1958 2504.4447 0.0000 0.0000 3188.9167 -13480.0384 301.8974 -16668.9550 -13473.3959 299.1655 -392.8024 -278.2722 54424.3752 5.8031 6.4715
ENERGY: 725000 4.0626 14.6445 24.1855 0.0000 -19022.5509 2465.6228 0.0000 0.0000 3188.5185 -13325.5170 301.8597 -16514.0355 -13320.6941 300.5186 -252.2200 -175.8330 54747.0155 1.9713 1.1576
ENERGY: 925000 1.8023 12.7828 25.1809 0.0000 -19252.9245 2607.3779 0.0000 0.0000 3228.8604 -13376.9203 305.6789 -16605.7807 -13374.1388 300.3137 185.3979 290.5781 54675.0843 0.8640 0.3274
ENERGY: 1125000 4.0455 11.2007 25.2818 0.0000 -19093.6531 2427.0639 0.0000 0.0000 3111.2700 -13514.7912 294.5466 -16626.0612 -13509.2685 300.6552 -970.4134 -864.1407 55271.3664 0.1550 0.4863
ENERGY: 1325000 4.3154 16.0065 28.0955 0.0000 -19319.2744 2553.0994 0.0000 0.0000 3174.5824 -13543.1751 300.5404 -16717.7576 -13535.6369 301.0637 -245.7396 -106.6799 54362.7686 1.8649 1.7659
TCL: Exiting due to exit command.
