Info: SIMULATION PARAMETERS:
Info: TIMESTEP               2
Info: NUMBER OF STEPS        0
Info: STEPS PER CYCLE        10
Info: PERIODIC CELL BASIS 1  41.123 0 0
Info: PERIODIC CELL BASIS 2  0 39.303 0
Info: PERIODIC CELL BASIS 3  0 0 42.009
Info: PERIODIC CELL CENTER   0 0 0
Info: WRAPPING WATERS AROUND PERIODIC BOUNDARIES ON OUTPUT.
Info: WRAPPING ALL CLUSTERS AROUND PERIODIC BOUNDARIES ON OUTPUT.
Info: FIRST LDB TIMESTEP     50
Info: LAST LDB TIMESTEP     -1
Info: HOM BACKGROUND SCALING 1
Info: PME BACKGROUND SCALING 1
Info: MIN ATOMS PER PATCH    40
Info: EMPTY PATCH LOAD       40 ATOMS
Info: INITIAL TEMPERATURE    300
Info: CENTER OF MASS MOVING INITIALLY? NO
Info: DIELECTRIC             1
Info: EXCLUDE                SCALED ONE-FOUR
Info: 1-4 ELECTROSTATICS SCALED BY 0.833333
Info: MODIFIED 1-4 VDW PARAMETERS WILL BE USED
Info: DCD FILENAME           mobley_3452749_min.dcd
Info: DCD FREQUENCY          5000
Info: DCD FIRST STEP         5000
Info: DCD FILE WILL CONTAIN UNIT CELL DATA
Info: XST FILENAME           mobley_3452749_min.xst
Info: XST FREQUENCY          5000
Info: NO VELOCITY DCD OUTPUT
Info: NO FORCE DCD OUTPUT
Info: OUTPUT FILENAME        mobley_3452749_min
Info: BINARY OUTPUT FILES WILL BE USED
Info: RESTART FILENAME       mobley_3452749_min.restart
Info: RESTART FREQUENCY      5000
Info: BINARY RESTART FILES WILL BE USED
Info: CUTOFF                 9
Info: PAIRLIST DISTANCE      11
Info: PAIRLIST SHRINK RATE   0.01
Info: PAIRLIST GROW RATE     0.01
Info: PAIRLIST TRIGGER       0.3
Info: PAIRLISTS PER CYCLE    2
Info: PAIRLISTS ENABLED
Info: MARGIN                 8
Info: HYDROGEN GROUP CUTOFF  2.5
Info: PATCH DIMENSION        21.5
Info: ENERGY OUTPUT STEPS    5000
Info: ENERGY EVALUATION STEPS    5000
Info: OUTPUT ENERGY PRECISION 4
Info: CROSSTERM ENERGY INCLUDED IN DIHEDRAL
Info: TIMING OUTPUT STEPS    50000
Info: PRESSURE OUTPUT STEPS  5000
Info: LANGEVIN DYNAMICS ACTIVE
Info: LANGEVIN TEMPERATURE   300
Info: LANGEVIN USING BBK INTEGRATOR
Info: LANGEVIN DAMPING COEFFICIENT IS 1 INVERSE PS
Info: LANGEVIN DYNAMICS APPLIED TO HYDROGENS
Info: LANGEVIN PISTON PRESSURE CONTROL ACTIVE
Info:        TARGET PRESSURE IS 1.01325 BAR
Info:     OSCILLATION PERIOD IS 50 FS
Info:             DECAY TIME IS 25 FS
Info:     PISTON TEMPERATURE IS 300 K
Info:       PRESSURE CONTROL IS GROUP-BASED
Info:    INITIAL STRAIN RATE IS 0 0 0
Info:       CELL FLUCTUATION IS ISOTROPIC
Info: PARTICLE MESH EWALD (PME) ACTIVE
Info: PME TOLERANCE               1e-06
Info: PME EWALD COEFFICIENT       0.348832
Info: PME INTERPOLATION ORDER     4
Info: PME GRID DIMENSIONS         44 40 44
Info: PME MAXIMUM GRID SPACING    1
Info: FULL ELECTROSTATIC EVALUATION FREQUENCY      2
Info: USING VERLET I (r-RESPA) MTS SCHEME.
Info: C1 SPLITTING OF LONG RANGE ELECTROSTATICS
Info: PLACING ATOMS IN PATCHES BY HYDROGEN GROUPS
Info: RIGID BONDS TO HYDROGEN : ALL
Info:         ERROR TOLERANCE : 1e-08
Info:          MAX ITERATIONS : 100
Info: RIGID WATER USING SETTLE ALGORITHM
Info: RANDOM NUMBER SEED     1741331996
Info: USE HYDROGEN BONDS?    NO
Info: Using AMBER format force field!
Info: AMBER PARM FILE        mobley_3452749.prmtop
Info: COORDINATE PDB         mobley_3452749.pdb
Info: Exclusions will be read from PARM file!
Info: SCNB (VDW SCALING)     2
Info: USING ARITHMETIC MEAN TO COMBINE L-J SIGMA PARAMETERS
Info: SUMMARY OF PARAMETERS:
Info: 6 BONDS
Info: 5 ANGLES
Info:   5 HARMONIC
Info:   0 COSINE-BASED
Info: 3 DIHEDRAL
Info: 0 IMPROPER
Info: 0 CROSSTERM
Info: 0 VDW
Info: 21 VDW_PAIRS
Info: 0 NBTHOLE_PAIRS
Info: STRUCTURE SUMMARY:
Info: 4926 ATOMS
Info: 4926 BONDS
Info: 36 ANGLES
Info: 48 DIHEDRALS
Info: 0 IMPROPERS
Info: 0 CROSSTERMS
Info: 5001 EXCLUSIONS
Info: 4917 RIGID BONDS
Info: 9861 DEGREES OF FREEDOM
Info: 1644 HYDROGEN GROUPS
Info: 4 ATOMS IN LARGEST HYDROGEN GROUP
Info: 1644 MIGRATION GROUPS
Info: 4 ATOMS IN LARGEST MIGRATION GROUP
Info: TOTAL MASS = 29576.3 amu
Info: TOTAL CHARGE = 0.00010002 e
Info: MASS DENSITY = 0.723354 g/cm^3
Info: ATOM DENSITY = 0.0725507 atoms/A^3
Info: ADDED 0 IMPLICIT EXCLUSIONS
Info: NONBONDED TABLE R-SQUARED SPACING: 0.0625
Info: NONBONDED TABLE SIZE: 705 POINTS
Info: REMOVING COM VELOCITY -0.0189651 -0.00786704 0.0451781
TCL: Minimizing for 2000 steps
ETITLE: TS BOND ANGLE DIHED IMPRP ELECT VDW BOUNDARY MISC KINETIC TOTAL TEMP POTENTIAL TOTAL3 TEMPAVG PRESSURE GPRESSURE VOLUME PRESSAVG GPRESSAVG
ENERGY: 0 0.3233 0.2840 0.0003 0.0000 -15377.6687 1792.7727 0.0000 0.0000 0.0000 -13584.2884 0.0000 -13584.2884 -13584.2884 0.0000 11409.8863 -15527.9827 67897.3516 11409.8863 -15527.9827
ENERGY: 400 26.9406 21.3878 1.3668 0.0000 -20565.2126 2946.0145 0.0000 0.0000 0.0000 -17569.5029 0.0000 -17569.5029 -17569.5029 0.0000 15533.8944 15658.3697 67897.3516 15533.8944 15658.3697
ENERGY: 800 18.6853 10.8785 0.1307 0.0000 -21740.5238 3527.0006 0.0000 0.0000 0.0000 -18183.8288 0.0000 -18183.8288 -18183.8288 0.0000 18173.0573 18268.6704 67897.3516 18173.0573 18268.6704
ENERGY: 1200 0.8235 0.8495 0.0195 0.0000 -22120.1559 3683.7823 0.0000 0.0000 0.0000 -18434.6810 0.0000 -18434.6810 -18434.6810 0.0000 18901.0281 19012.0953 67897.3516 18901.0281 19012.0953
ENERGY: 1600 5.7987 2.7935 0.0925 0.0000 -22330.1817 3774.8948 0.0000 0.0000 0.0000 -18546.6022 0.0000 -18546.6022 -18546.6022 0.0000 19400.8362 19482.9126 67897.3516 19400.8362 19482.9126
ENERGY: 2000 0.7554 0.6505 0.0614 0.0000 -22507.5426 3872.9844 0.0000 0.0000 0.0000 -18633.0909 0.0000 -18633.0909 -18633.0909 0.0000 19916.5927 20012.1172 67897.3516 19916.5927 20012.1172
TCL: Exiting due to exit command.
Info: NAMD 3.0.1 for Linux-x86_64-multicore
Info: Please visit http://www.ks.uiuc.edu/Research/namd/
Info: for updates, documentation, and support information.
Info: Please cite Phillips et al., J. Chem. Phys. 153:044130 (2020) doi:10.1063/5.0014475
Info: in all publications reporting results obtained with NAMD.
Info: Based on Charm++/Converse 80000 for multicore-linux-x86_64-gcc
Info: Built Mon Oct 14 11:11:06 CDT 2024 by dhardy on athine.ks.uiuc.edu
Info: 1 NAMD  3.0.1  Linux-x86_64-multicore  16    k012  z5358697
Info: Running on 16 processors, 1 nodes, 1 physical nodes.
Info: CPU topology information available.
Info: Charm++/Converse parallel runtime startup completed at 0.00927276 s
Info: 1043.45 MB of memory in use based on /proc/self/stat
Info: Configuration file is mobley_3452749_equil.namd
Info: Working in the current directory /srv/scratch/z5358697/prod_prep_4/3452749
TCL: Running 25000 steps at 30 kelvin.
TCL: Suspending until startup complete.
Info: SIMULATION PARAMETERS:
Info: TIMESTEP               2
Info: NUMBER OF STEPS        0
Info: STEPS PER CYCLE        10
Info: PERIODIC CELL BASIS 1  41.123 0 0
Info: PERIODIC CELL BASIS 2  0 39.303 0
Info: PERIODIC CELL BASIS 3  0 0 42.009
Info: PERIODIC CELL CENTER   0 0 0
Info: WRAPPING WATERS AROUND PERIODIC BOUNDARIES ON OUTPUT.
Info: WRAPPING ALL CLUSTERS AROUND PERIODIC BOUNDARIES ON OUTPUT.
Info: FIRST LDB TIMESTEP     50
Info: LAST LDB TIMESTEP     -1
Info: HOM BACKGROUND SCALING 1
Info: PME BACKGROUND SCALING 1
Info: MIN ATOMS PER PATCH    40
Info: EMPTY PATCH LOAD       40 ATOMS
Info: INITIAL TEMPERATURE    300
Info: CENTER OF MASS MOVING INITIALLY? NO
Info: DIELECTRIC             1
Info: EXCLUDE                SCALED ONE-FOUR
Info: 1-4 ELECTROSTATICS SCALED BY 0.833333
Info: MODIFIED 1-4 VDW PARAMETERS WILL BE USED
Info: DCD FILENAME           mobley_3452749_equil.dcd
Info: DCD FREQUENCY          5000
Info: DCD FIRST STEP         5000
Info: DCD FILE WILL CONTAIN UNIT CELL DATA
Info: XST FILENAME           mobley_3452749_equil.xst
Info: XST FREQUENCY          5000
Info: NO VELOCITY DCD OUTPUT
Info: NO FORCE DCD OUTPUT
Info: OUTPUT FILENAME        mobley_3452749_equil
Info: BINARY OUTPUT FILES WILL BE USED
Info: RESTART FILENAME       mobley_3452749_equil.restart
Info: RESTART FREQUENCY      5000
Info: BINARY RESTART FILES WILL BE USED
Info: CUTOFF                 9
Info: PAIRLIST DISTANCE      11
Info: PAIRLIST SHRINK RATE   0.01
Info: PAIRLIST GROW RATE     0.01
Info: PAIRLIST TRIGGER       0.3
Info: PAIRLISTS PER CYCLE    2
Info: PAIRLISTS ENABLED
Info: MARGIN                 8
Info: HYDROGEN GROUP CUTOFF  2.5
Info: PATCH DIMENSION        21.5
Info: ENERGY OUTPUT STEPS    5000
Info: ENERGY EVALUATION STEPS    5000
Info: OUTPUT ENERGY PRECISION 4
Info: CROSSTERM ENERGY INCLUDED IN DIHEDRAL
Info: TIMING OUTPUT STEPS    50000
Info: PRESSURE OUTPUT STEPS  5000
Info: LANGEVIN DYNAMICS ACTIVE
Info: LANGEVIN TEMPERATURE   30
Info: LANGEVIN USING BBK INTEGRATOR
Info: LANGEVIN DAMPING COEFFICIENT IS 1 INVERSE PS
Info: LANGEVIN DYNAMICS APPLIED TO HYDROGENS
Info: LANGEVIN PISTON PRESSURE CONTROL ACTIVE
Info:        TARGET PRESSURE IS 1.01325 BAR
Info:     OSCILLATION PERIOD IS 50 FS
Info:             DECAY TIME IS 25 FS
Info:     PISTON TEMPERATURE IS 300 K
Info:       PRESSURE CONTROL IS GROUP-BASED
Info:    INITIAL STRAIN RATE IS 0 0 0
Info:       CELL FLUCTUATION IS ISOTROPIC
Info: PARTICLE MESH EWALD (PME) ACTIVE
Info: PME TOLERANCE               1e-06
Info: PME EWALD COEFFICIENT       0.348832
Info: PME INTERPOLATION ORDER     4
Info: PME GRID DIMENSIONS         44 40 44
Info: PME MAXIMUM GRID SPACING    1
Info: FULL ELECTROSTATIC EVALUATION FREQUENCY      2
Info: USING VERLET I (r-RESPA) MTS SCHEME.
Info: C1 SPLITTING OF LONG RANGE ELECTROSTATICS
Info: PLACING ATOMS IN PATCHES BY HYDROGEN GROUPS
Info: RIGID BONDS TO HYDROGEN : ALL
Info:         ERROR TOLERANCE : 1e-08
Info:          MAX ITERATIONS : 100
Info: RIGID WATER USING SETTLE ALGORITHM
Info: RANDOM NUMBER SEED     1741332012
Info: USE HYDROGEN BONDS?    NO
Info: Using AMBER format force field!
Info: AMBER PARM FILE        mobley_3452749.prmtop
Info: COORDINATE PDB         mobley_3452749.pdb
Info: Exclusions will be read from PARM file!
Info: SCNB (VDW SCALING)     2
Info: USING ARITHMETIC MEAN TO COMBINE L-J SIGMA PARAMETERS
Info: BINARY COORDINATES     mobley_3452749_min.coor
Info: SUMMARY OF PARAMETERS:
Info: 6 BONDS
Info: 5 ANGLES
Info:   5 HARMONIC
Info:   0 COSINE-BASED
Info: 3 DIHEDRAL
Info: 0 IMPROPER
Info: 0 CROSSTERM
Info: 0 VDW
Info: 21 VDW_PAIRS
Info: 0 NBTHOLE_PAIRS
Info: STRUCTURE SUMMARY:
Info: 4926 ATOMS
Info: 4926 BONDS
Info: 36 ANGLES
Info: 48 DIHEDRALS
Info: 0 IMPROPERS
Info: 0 CROSSTERMS
Info: 5001 EXCLUSIONS
Info: 4917 RIGID BONDS
Info: 9861 DEGREES OF FREEDOM
Info: 1644 HYDROGEN GROUPS
Info: 4 ATOMS IN LARGEST HYDROGEN GROUP
Info: 1644 MIGRATION GROUPS
Info: 4 ATOMS IN LARGEST MIGRATION GROUP
Info: TOTAL MASS = 29576.3 amu
Info: TOTAL CHARGE = 0.00010002 e
Info: MASS DENSITY = 0.723354 g/cm^3
Info: ATOM DENSITY = 0.0725507 atoms/A^3
Info: ADDED 0 IMPLICIT EXCLUSIONS
Info: NONBONDED TABLE R-SQUARED SPACING: 0.0625
Info: NONBONDED TABLE SIZE: 705 POINTS
Info: REMOVING COM VELOCITY -0.0561022 0.17999 0.0353958
TCL: Running for 25000 steps
ETITLE: TS BOND ANGLE DIHED IMPRP ELECT VDW BOUNDARY MISC KINETIC TOTAL TEMP POTENTIAL TOTAL3 TEMPAVG PRESSURE GPRESSURE VOLUME PRESSAVG GPRESSAVG
ENERGY: 0 0.7554 0.6505 0.0614 0.0000 -22507.5426 3872.9844 0.0000 0.0000 2912.8847 -15720.2062 297.2985 -18633.0909 -15719.5938 297.2985 93.8137 129.6297 67897.3516 93.8137 129.6297
ENERGY: 5000 1.3002 1.3500 0.1991 0.0000 -23457.8955 3892.6025 0.0000 0.0000 306.2520 -19256.1917 31.2571 -19562.4437 -19255.4401 47.8900 -1016.0779 -960.3334 47566.8680 -3.0879 -2.9180
ENERGY: 10000 0.7328 1.8623 0.3463 0.0000 -23739.9963 4139.4430 0.0000 0.0000 303.7812 -19293.8307 31.0049 -19597.6119 -19292.8162 30.1269 264.0562 290.3333 47197.6304 6.6790 6.5818
ENERGY: 15000 0.6313 1.2762 0.1993 0.0000 -23770.8579 4165.5434 0.0000 0.0000 299.4288 -19303.7788 30.5607 -19603.2077 -19302.8497 29.9705 371.2122 414.3219 47192.5998 5.7585 5.5979
ENERGY: 20000 0.8068 1.5638 0.3282 0.0000 -23782.5508 4164.8120 0.0000 0.0000 301.3497 -19313.6903 30.7567 -19615.0400 -19312.9958 29.8904 286.3860 351.6844 47040.1189 5.8743 5.9319
ENERGY: 25000 1.2241 1.0018 0.0921 0.0000 -23611.8803 3991.3726 0.0000 0.0000 298.1805 -19320.0092 30.4333 -19618.1897 -19319.3787 29.9094 -614.0285 -572.7938 47336.2354 -0.5965 -0.4897
TCL: Running 25000 steps at 60 kelvin.
TCL: Setting parameter langevinTemp to 60
TCL: Running for 25000 steps
ETITLE: TS BOND ANGLE DIHED IMPRP ELECT VDW BOUNDARY MISC KINETIC TOTAL TEMP POTENTIAL TOTAL3 TEMPAVG PRESSURE GPRESSURE VOLUME PRESSAVG GPRESSAVG
ENERGY: 25000 1.2241 1.0018 0.0921 0.0000 -23611.8803 3991.3726 0.0000 0.0000 298.0384 -19320.1513 30.4188 -19618.1897 -19319.4941 30.4188 -620.8032 -572.8601 47336.2354 -620.8032 -572.8601
ENERGY: 30000 1.5658 1.3296 0.5640 0.0000 -23371.3400 4037.6870 0.0000 0.0000 591.9052 -18738.2883 60.4118 -19330.1935 -18736.4387 56.4689 341.9960 401.7265 47143.1110 6.0061 6.0905
ENERGY: 35000 2.7773 1.5817 0.4717 0.0000 -23261.8551 3890.8573 0.0000 0.0000 587.2037 -18778.9634 59.9319 -19366.1671 -18778.2482 60.2075 -728.6856 -647.2355 47739.3720 4.1380 4.0712
ENERGY: 40000 1.0961 2.0219 0.6359 0.0000 -23322.8269 3930.6450 0.0000 0.0000 583.8396 -18804.5882 59.5886 -19388.4279 -18803.6131 60.6013 -438.5630 -389.1910 47492.4650 6.3944 6.1707
ENERGY: 45000 0.9613 2.9484 0.8099 0.0000 -23345.3812 3915.4878 0.0000 0.0000 590.1279 -18835.0459 60.2304 -19425.1738 -18833.2566 60.2200 -568.3953 -492.2942 47449.3151 2.6633 2.4689
ENERGY: 50000 0.8788 2.0101 0.1381 0.0000 -23299.9734 3875.5194 0.0000 0.0000 584.5293 -18836.8976 59.6590 -19421.4269 -18835.2178 60.4101 -820.1274 -764.9456 47601.1541 6.2518 6.0905
TCL: Running 25000 steps at 90 kelvin.
TCL: Setting parameter langevinTemp to 90
TCL: Running for 25000 steps
ETITLE: TS BOND ANGLE DIHED IMPRP ELECT VDW BOUNDARY MISC KINETIC TOTAL TEMP POTENTIAL TOTAL3 TEMPAVG PRESSURE GPRESSURE VOLUME PRESSAVG GPRESSAVG
ENERGY: 50000 0.8788 2.0101 0.1381 0.0000 -23299.9734 3875.5194 0.0000 0.0000 584.2424 -18837.1845 59.6297 -19421.4269 -18835.8384 59.6297 -817.1462 -765.1498 47601.1541 -817.1462 -765.1498
ENERGY: 55000 1.0619 3.4001 0.9183 0.0000 -22901.1126 3746.9760 0.0000 0.0000 861.2256 -18287.5306 87.8995 -19148.7563 -18285.6989 87.0838 -922.1629 -857.1167 48007.6079 -2.2008 -1.9051
ENERGY: 60000 1.3429 1.9602 0.7116 0.0000 -22791.1210 3631.6502 0.0000 0.0000 890.9418 -18264.5143 90.9324 -19155.4561 -18261.7003 90.2174 -1426.3895 -1378.0415 47873.8468 1.4499 1.2813
ENERGY: 65000 0.8827 4.6028 0.2406 0.0000 -23094.7737 3870.3342 0.0000 0.0000 879.5556 -18339.1578 89.7703 -19218.7134 -18336.9366 90.1014 -258.5061 -174.2066 47280.7647 4.1045 4.0363
ENERGY: 70000 1.4063 2.1016 0.8733 0.0000 -23250.2302 4033.1601 0.0000 0.0000 859.8320 -18352.8568 87.7573 -19212.6888 -18349.6179 89.7364 612.2689 685.3444 47117.8062 3.4742 3.1173
ENERGY: 75000 1.2497 2.7610 0.5514 0.0000 -23137.9825 3866.2518 0.0000 0.0000 869.4586 -18397.7101 88.7398 -19267.1686 -18395.5711 89.6056 -383.9264 -340.4806 47479.7913 1.8130 2.0990
TCL: Running 25000 steps at 120 kelvin.
TCL: Setting parameter langevinTemp to 120
TCL: Running for 25000 steps
ETITLE: TS BOND ANGLE DIHED IMPRP ELECT VDW BOUNDARY MISC KINETIC TOTAL TEMP POTENTIAL TOTAL3 TEMPAVG PRESSURE GPRESSURE VOLUME PRESSAVG GPRESSAVG
ENERGY: 75000 1.2497 2.7610 0.5514 0.0000 -23137.9825 3866.2518 0.0000 0.0000 869.0179 -18398.1508 88.6948 -19267.1686 -18396.2243 88.6948 -403.3700 -340.4736 47479.7913 -403.3700 -340.4736
ENERGY: 80000 1.9232 4.2460 0.6451 0.0000 -22941.3068 4041.9974 0.0000 0.0000 1167.3317 -17725.1634 119.1417 -18892.4950 -17722.6545 116.8154 1241.1732 1260.4698 47447.4211 3.9378 3.8955
ENERGY: 85000 2.5505 5.7391 1.4059 0.0000 -22785.0375 3819.4318 0.0000 0.0000 1195.0180 -17760.8921 121.9674 -18955.9101 -17757.5508 120.6889 -17.2752 27.6706 47715.3009 1.9617 2.4847
ENERGY: 90000 2.9958 1.4473 0.9681 0.0000 -22888.5180 3876.1319 0.0000 0.0000 1171.4191 -17835.5559 119.5588 -19006.9750 -17832.4042 119.8740 182.2106 273.0417 47537.3250 -1.8510 -1.7899
ENERGY: 95000 1.9160 2.8496 0.8133 0.0000 -22883.3621 3907.1193 0.0000 0.0000 1178.5220 -17792.1420 120.2838 -18970.6640 -17788.2539 119.4011 537.1375 606.7374 47252.3040 3.9067 3.9938
ENERGY: 100000 1.6029 2.1748 0.8884 0.0000 -22811.0988 3751.9264 0.0000 0.0000 1180.6701 -17873.8361 120.5030 -19054.5062 -17872.4488 120.6182 -547.6593 -471.3458 47750.1887 4.7546 4.5733
TCL: Running 25000 steps at 150 kelvin.
TCL: Setting parameter langevinTemp to 150
TCL: Running for 25000 steps
ETITLE: TS BOND ANGLE DIHED IMPRP ELECT VDW BOUNDARY MISC KINETIC TOTAL TEMP POTENTIAL TOTAL3 TEMPAVG PRESSURE GPRESSURE VOLUME PRESSAVG GPRESSAVG
ENERGY: 100000 1.6029 2.1748 0.8884 0.0000 -22811.0988 3751.9264 0.0000 0.0000 1180.0912 -17874.4151 120.4439 -19054.5062 -17871.6841 120.4439 -530.5610 -472.2013 47750.1887 -530.5610 -472.2013
ENERGY: 105000 1.3745 5.4429 0.6660 0.0000 -22302.2604 3647.6268 0.0000 0.0000 1464.6266 -17182.5236 149.4846 -18647.1502 -17179.1408 146.4219 -159.1670 -91.6246 47808.1765 3.6834 4.1696
ENERGY: 110000 2.9235 4.7888 1.8763 0.0000 -22488.3665 3779.5519 0.0000 0.0000 1470.2539 -17228.9722 150.0589 -18699.2260 -17226.1132 151.0724 416.1077 488.9448 47680.1348 2.4977 2.6954
ENERGY: 115000 2.2042 2.9119 0.9862 0.0000 -22362.0711 3648.7476 0.0000 0.0000 1457.2987 -17249.9226 148.7367 -18707.2213 -17246.6720 150.0776 -349.9816 -288.4780 47867.5696 2.1639 2.3276
ENERGY: 120000 1.6539 5.3779 1.6430 0.0000 -22349.7439 3610.4467 0.0000 0.0000 1490.4374 -17240.1849 152.1189 -18730.6223 -17236.0986 149.3634 -393.6733 -350.8311 47682.9331 0.9558 1.2682
ENERGY: 125000 2.8050 3.2578 0.6817 0.0000 -22459.7882 3703.0082 0.0000 0.0000 1495.3946 -17254.6408 152.6248 -18750.0354 -17250.0554 150.0696 -133.0713 -66.0012 47866.2401 4.5621 4.3900
TCL: Running 50000 steps at 180 kelvin.
TCL: Setting parameter langevinTemp to 180
TCL: Running for 50000 steps
ETITLE: TS BOND ANGLE DIHED IMPRP ELECT VDW BOUNDARY MISC KINETIC TOTAL TEMP POTENTIAL TOTAL3 TEMPAVG PRESSURE GPRESSURE VOLUME PRESSAVG GPRESSAVG
ENERGY: 125000 2.8050 3.2578 0.6817 0.0000 -22459.7882 3703.0082 0.0000 0.0000 1494.6346 -17255.4007 152.5473 -18750.0354 -17252.8397 152.5473 -130.6750 -65.3498 47866.2401 -130.6750 -65.3498
ENERGY: 135000 2.4730 3.9214 2.9758 0.0000 -21837.7909 3547.5102 0.0000 0.0000 1722.1734 -16558.7370 175.7706 -18280.9104 -16553.8761 180.1397 -99.4317 -42.8040 48505.4539 3.3754 3.7574
ENERGY: 145000 0.8109 4.3678 1.9127 0.0000 -21931.8665 3624.8491 0.0000 0.0000 1733.1900 -16566.7361 176.8950 -18299.9260 -16562.7712 180.4109 504.3572 550.6285 48110.0428 5.8257 5.8571
ENERGY: 155000 1.9488 5.0703 0.9299 0.0000 -21816.3990 3490.4201 0.0000 0.0000 1775.1647 -16542.8651 181.1791 -18318.0298 -16540.4480 180.3035 -279.4920 -227.8616 48508.1283 4.9552 4.9769
ENERGY: 165000 2.8523 3.6942 2.9875 0.0000 -21887.0752 3542.7787 0.0000 0.0000 1727.1851 -16607.5774 176.2821 -18334.7625 -16604.4319 180.2495 -60.6793 27.2977 48310.8920 3.4637 3.9892
ENERGY: 175000 0.3142 4.0878 2.2218 0.0000 -21732.0483 3465.7181 0.0000 0.0000 1770.9557 -16488.7506 180.7495 -18259.7064 -16484.3947 181.3368 -136.3056 -126.4828 48148.7207 5.2964 5.9048
TCL: Running 50000 steps at 210 kelvin.
TCL: Setting parameter langevinTemp to 210
TCL: Running for 50000 steps
ETITLE: TS BOND ANGLE DIHED IMPRP ELECT VDW BOUNDARY MISC KINETIC TOTAL TEMP POTENTIAL TOTAL3 TEMPAVG PRESSURE GPRESSURE VOLUME PRESSAVG GPRESSAVG
ENERGY: 175000 0.3142 4.0878 2.2218 0.0000 -21732.0483 3465.7181 0.0000 0.0000 1770.0758 -16489.6305 180.6597 -18259.7064 -16485.9279 180.6597 -189.5673 -126.1604 48148.7207 -189.5673 -126.1604
ENERGY: 185000 3.3857 4.8418 2.9844 0.0000 -20813.7581 3224.3232 0.0000 0.0000 2016.2748 -15561.9481 205.7876 -17578.2230 -15555.4420 210.4651 50.8243 143.2933 48356.6391 2.3055 2.3540
ENERGY: 195000 2.2923 6.2204 3.0400 0.0000 -20503.6947 3009.2705 0.0000 0.0000 2087.2178 -15395.6537 213.0282 -17482.8715 -15390.6642 210.1461 -820.5184 -713.3919 48628.1652 2.3202 2.1831
ENERGY: 205000 2.8638 6.4465 4.7431 0.0000 -20623.1655 3084.5939 0.0000 0.0000 2072.9692 -15451.5490 211.5740 -17524.5182 -15446.2337 212.3776 -408.9710 -346.3035 48053.7915 1.3839 1.3238
ENERGY: 215000 2.8486 6.8813 2.3268 0.0000 -20745.3355 3197.3197 0.0000 0.0000 2060.8072 -15475.1519 210.3327 -17535.9591 -15472.3670 210.7002 48.1671 126.1169 48355.7493 -0.8746 -0.7609
ENERGY: 225000 2.4895 3.1543 1.7372 0.0000 -20827.8258 3329.6004 0.0000 0.0000 2047.6203 -15443.2242 208.9868 -17490.8444 -15439.1092 210.4740 930.0004 990.0215 47894.6956 5.4512 5.2859
TCL: Running 50000 steps at 240 kelvin.
TCL: Setting parameter langevinTemp to 240
TCL: Running for 50000 steps
ETITLE: TS BOND ANGLE DIHED IMPRP ELECT VDW BOUNDARY MISC KINETIC TOTAL TEMP POTENTIAL TOTAL3 TEMPAVG PRESSURE GPRESSURE VOLUME PRESSAVG GPRESSAVG
ENERGY: 225000 2.4895 3.1543 1.7372 0.0000 -20827.8258 3329.6004 0.0000 0.0000 2046.5983 -15444.2461 208.8825 -17490.8444 -15440.8245 208.8825 918.8992 989.3572 47894.6956 918.8992 989.3572
ENERGY: 235000 1.7579 8.2687 1.1497 0.0000 -19716.4690 2909.1373 0.0000 0.0000 2366.5013 -14429.6543 241.5328 -16796.1555 -14424.2941 239.7070 347.0889 437.2143 48119.8031 2.1107 2.3512
ENERGY: 245000 1.8701 8.1060 0.9127 0.0000 -19797.5513 2921.3662 0.0000 0.0000 2285.4235 -14579.8728 233.2578 -16865.2963 -14573.8449 240.0529 217.6983 337.8083 48070.0031 0.6520 0.7957
ENERGY: 255000 2.7494 9.3753 1.1369 0.0000 -19524.2889 2848.2654 0.0000 0.0000 2428.7324 -14234.0293 247.8843 -16662.7618 -14229.3389 240.0593 89.0315 222.8798 48559.9683 2.5295 2.7838
ENERGY: 265000 2.5691 6.9105 0.8241 0.0000 -19727.9174 2848.3435 0.0000 0.0000 2319.7993 -14549.4710 236.7663 -16869.2703 -14543.4227 240.3796 -205.7700 -81.0565 48237.8678 5.6020 5.5625
ENERGY: 275000 1.4760 6.1024 2.6907 0.0000 -19752.2529 2919.5409 0.0000 0.0000 2404.8342 -14417.6087 245.4452 -16822.4429 -14412.6511 239.9760 418.4267 513.3743 48070.0641 3.9574 4.3859
TCL: Running 50000 steps at 270 kelvin.
TCL: Setting parameter langevinTemp to 270
TCL: Running for 50000 steps
ETITLE: TS BOND ANGLE DIHED IMPRP ELECT VDW BOUNDARY MISC KINETIC TOTAL TEMP POTENTIAL TOTAL3 TEMPAVG PRESSURE GPRESSURE VOLUME PRESSAVG GPRESSAVG
ENERGY: 275000 1.4760 6.1024 2.6907 0.0000 -19752.2529 2919.5409 0.0000 0.0000 2403.6678 -14418.7751 245.3262 -16822.4429 -14415.1911 245.3262 432.2129 513.1152 48070.0641 432.2129 513.1152
ENERGY: 285000 2.4633 4.8922 1.1459 0.0000 -18534.8921 2506.6697 0.0000 0.0000 2623.1018 -13396.6193 267.7223 -16019.7211 -13393.4752 270.0151 -271.8819 -174.9469 49207.7269 2.5871 2.3690
ENERGY: 295000 2.2791 5.9001 3.9016 0.0000 -19032.7650 2800.5499 0.0000 0.0000 2678.7423 -13541.3921 273.4012 -16220.1343 -13533.0530 269.5230 859.4720 980.5157 48921.8703 2.2432 2.5947
ENERGY: 305000 1.5441 7.7725 1.2753 0.0000 -18772.8297 2592.2421 0.0000 0.0000 2611.2950 -13558.7006 266.5173 -16169.9956 -13554.0978 268.7551 -43.3712 55.8537 48757.6798 0.9581 1.0432
ENERGY: 315000 1.4453 4.9036 2.4382 0.0000 -18651.5697 2512.6676 0.0000 0.0000 2710.9114 -13419.2035 276.6845 -16130.1149 -13411.3326 270.1311 -729.1760 -664.7609 50339.0144 2.6036 2.3448
ENERGY: 325000 3.0011 6.6169 2.1239 0.0000 -18795.6001 2653.7591 0.0000 0.0000 2689.3304 -13440.7687 274.4818 -16130.0991 -13434.6425 269.6679 394.9771 449.1799 48954.0279 -0.2517 -0.2966
TCL: Running 1000000 steps at 300 kelvin.
TCL: Setting parameter langevinTemp to 300
TCL: Running for 1000000 steps
ETITLE: TS BOND ANGLE DIHED IMPRP ELECT VDW BOUNDARY MISC KINETIC TOTAL TEMP POTENTIAL TOTAL3 TEMPAVG PRESSURE GPRESSURE VOLUME PRESSAVG GPRESSAVG
ENERGY: 325000 3.0011 6.6169 2.1239 0.0000 -18795.6001 2653.7591 0.0000 0.0000 2688.0130 -13442.0860 274.3474 -16130.0991 -13438.3473 274.3474 359.2222 450.0865 48954.0279 359.2222 450.0865
ENERGY: 525000 0.2538 11.5821 2.5644 0.0000 -17852.0080 2462.0439 0.0000 0.0000 2942.0607 -12433.5031 300.2763 -15375.5638 -12427.7614 301.7472 422.4826 573.3487 50820.3630 3.7419 3.4706
ENERGY: 725000 1.0451 7.3601 5.5170 0.0000 -17950.7872 2414.4158 0.0000 0.0000 2985.3725 -12537.0767 304.6968 -15522.4492 -12527.0565 299.3627 -22.7167 104.0917 50314.3731 -0.1563 -0.1711
ENERGY: 925000 2.7504 8.4805 1.9871 0.0000 -17703.6834 2288.9971 0.0000 0.0000 2934.3165 -12467.1519 299.4859 -15401.4684 -12460.9702 298.7107 -539.1002 -394.0198 50786.0010 1.7180 2.1169
ENERGY: 1125000 2.0784 7.6395 0.6262 0.0000 -17886.7056 2358.1379 0.0000 0.0000 2962.6613 -12555.5624 302.3789 -15518.2237 -12551.4729 298.9282 -411.9619 -316.4167 50774.2769 3.6416 2.7194
ENERGY: 1325000 5.8308 9.2349 1.7619 0.0000 -17785.1422 2329.8467 0.0000 0.0000 2902.6336 -12535.8344 296.2522 -15438.4680 -12533.9409 299.9433 -513.8799 -459.1680 50837.8636 2.3185 2.8109
TCL: Exiting due to exit command.
