Info: SIMULATION PARAMETERS:
Info: TIMESTEP               1
Info: NUMBER OF STEPS        0
Info: STEPS PER CYCLE        10
Info: PERIODIC CELL BASIS 1  30 0 0
Info: PERIODIC CELL BASIS 2  0 30 0
Info: PERIODIC CELL BASIS 3  0 0 30
Info: PERIODIC CELL CENTER   0 0 0
Info: WRAPPING ALL CLUSTERS AROUND PERIODIC BOUNDARIES ON OUTPUT.
Info: FIRST LDB TIMESTEP     50
Info: LAST LDB TIMESTEP     -1
Info: HOM BACKGROUND SCALING 1
Info: MIN ATOMS PER PATCH    40
Info: EMPTY PATCH LOAD       40 ATOMS
Info: INITIAL TEMPERATURE    298
Info: CENTER OF MASS MOVING INITIALLY? NO
Info: DIELECTRIC             1
Info: EXCLUDE                SCALED ONE-FOUR
Info: 1-4 ELECTROSTATICS SCALED BY 1
Info: MODIFIED 1-4 VDW PARAMETERS WILL BE USED
Info: DCD FILENAME           output.dcd
Info: DCD FREQUENCY          50000
Info: DCD FIRST STEP         50000
Info: DCD FILE WILL CONTAIN UNIT CELL DATA
Info: NO EXTENDED SYSTEM TRAJECTORY OUTPUT
Info: NO VELOCITY DCD OUTPUT
Info: NO FORCE DCD OUTPUT
Info: OUTPUT FILENAME        output
Info: BINARY OUTPUT FILES WILL BE USED
Info: NO RESTART FILE
Info: SWITCHING ACTIVE
Info: SWITCHING ON           10
Info: SWITCHING OFF          12
Info: PAIRLIST DISTANCE      14
Info: PAIRLIST SHRINK RATE   0.01
Info: PAIRLIST GROW RATE     0.01
Info: PAIRLIST TRIGGER       0.3
Info: PAIRLISTS PER CYCLE    2
Info: PAIRLISTS ENABLED
Info: MARGIN                 0
Info: HYDROGEN GROUP CUTOFF  2.5
Info: PATCH DIMENSION        16.5
Info: ENERGY OUTPUT STEPS    50000
Info: ENERGY EVALUATION STEPS    50000
Info: OUTPUT ENERGY PRECISION 4
Info: CROSSTERM ENERGY INCLUDED IN DIHEDRAL
Info: TIMING OUTPUT STEPS    50000
Info: TEMPERATURE COUPLING ACTIVE
Info: COUPLING TEMPERATURE   298
Info: MULTILEVEL SUMMATION METHOD (MSM) FOR ELECTROSTATICS ACTIVE
Info: MSM WITH C1 CUBIC INTERPOLATION AND C2 TAYLOR SPLITTING
Info: FULL ELECTROSTATIC EVALUATION FREQUENCY      1
Info: USING VERLET I (r-RESPA) MTS SCHEME.
Info: C1 SPLITTING OF LONG RANGE ELECTROSTATICS
Info: PLACING ATOMS IN PATCHES BY HYDROGEN GROUPS
Info: RIGID BONDS TO HYDROGEN : ALL
Info:         ERROR TOLERANCE : 1e-08
Info:          MAX ITERATIONS : 100
Info: RIGID WATER USING SETTLE ALGORITHM
Info: RANDOM NUMBER SEED     1740313162
Info: USE HYDROGEN BONDS?    NO
Info: COORDINATE PDB         ionized.pdb
Info: STRUCTURE FILE         ionized.psf
Info: PARAMETER file: CHARMM format!
Info: PARAMETERS             par_all27_prot_lipid.inp
Info: USING ARITHMETIC MEAN TO COMBINE L-J SIGMA PARAMETERS
Info: SUMMARY OF PARAMETERS:
Info: 180 BONDS
Info: 447 ANGLES
Info: 566 DIHEDRAL
Info: 46 IMPROPER
Info: 6 CROSSTERM
Info: 119 VDW
Info: 0 VDW_PAIRS
Info: 0 NBTHOLE_PAIRS
Info: STRUCTURE SUMMARY:
Info: 2476 ATOMS
Info: 1650 BONDS
Info: 825 ANGLES
Info: 0 DIHEDRALS
Info: 0 IMPROPERS
Info: 0 CROSSTERMS
Info: 0 EXCLUSIONS
Info: 2475 RIGID BONDS
Info: 4950 DEGREES OF FREEDOM
Info: 826 HYDROGEN GROUPS
Info: 3 ATOMS IN LARGEST HYDROGEN GROUP
Info: 826 MIGRATION GROUPS
Info: 3 ATOMS IN LARGEST MIGRATION GROUP
Info: TOTAL MASS = 14885.7 amu
Info: TOTAL CHARGE = 1 e
Info: MASS DENSITY = 0.915513 g/cm^3
Info: ATOM DENSITY = 0.0917037 atoms/A^3
Info: ADDED 2475 IMPLICIT EXCLUSIONS
Info: NONBONDED TABLE R-SQUARED SPACING: 0.0625
Info: NONBONDED TABLE SIZE: 769 POINTS
Info: REMOVING COM VELOCITY -0.124205 0.16874 0.107433
Info: MSM using C1 cubic interpolation
Info: MSM using C2 Taylor splitting function
Info: MSM block size decomposition along X is 8 grid points
Info: MSM block size decomposition along Y is 8 grid points
Info: MSM block size decomposition along Z is 8 grid points
Info: MSM grid spacing along X is 2.5 A
Info: MSM grid spacing along Y is 2.5 A
Info: MSM grid spacing along Z is 2.5 A
Info: MSM using 3 levels
Info:     level 0:  [0..11] x [0..11] x [0..11]
Info:     level 1:  [0..5] x [0..5] x [0..5]
Info:     level 2:  [0..2] x [0..2] x [0..2]
Info: MSM finished calculating stencils
Info: MSM finished creating map for grid levels
Info: MSM finished creating map for patches
Info: MSM has 9 interpolation / anterpolation objects (one per patch)
Info: MSM grid level 0 decomposed into 8 blocks ( 2 x 2 x 2 )
Info: MSM grid level 1 decomposed into 1 block ( 1 x 1 x 1 )
Info: MSM grid level 2 decomposed into 1 block ( 1 x 1 x 1 )
Info: MSM grid cutoff calculation decomposed into 783 work objects
TCL: Minimizing for 1000 steps
ETITLE: TS BOND ANGLE DIHED IMPRP ELECT VDW BOUNDARY MISC KINETIC TOTAL TEMP POTENTIAL TOTAL3 TEMPAVG PRESSURE GPRESSURE VOLUME PRESSAVG GPRESSAVG
ENERGY: 0 0.0000 0.0000 0.0000 0.0000 -7348.6497 6353.7252 0.0000 0.0000 0.0000 -994.9245 0.0000 -994.9245 -994.9245 0.0000 75204.0846 46356.0498 27000.0000 75204.0846 46356.0498
ENERGY: 200 0.0000 0.0000 0.0000 0.0000 -10375.0525 1009.0368 0.0000 0.0000 0.0000 -9366.0157 0.0000 -9366.0157 -9366.0157 0.0000 17728.2369 17666.7937 27000.0000 17728.2369 17666.7937
ENERGY: 400 0.0000 0.0000 0.0000 0.0000 -10935.6462 1266.7193 0.0000 0.0000 0.0000 -9668.9269 0.0000 -9668.9269 -9668.9269 0.0000 20614.5031 20515.7436 27000.0000 20614.5031 20515.7436
ENERGY: 600 0.0000 0.0000 0.0000 0.0000 -11095.3112 1294.2906 0.0000 0.0000 0.0000 -9801.0206 0.0000 -9801.0206 -9801.0206 0.0000 20936.2871 20859.0218 27000.0000 20936.2871 20859.0218
ENERGY: 800 0.0000 0.0000 0.0000 0.0000 -11187.5643 1315.1028 0.0000 0.0000 0.0000 -9872.4615 0.0000 -9872.4615 -9872.4615 0.0000 21155.6059 21095.2209 27000.0000 21155.6059 21095.2209
ENERGY: 1000 0.0000 0.0000 0.0000 0.0000 -11274.9148 1349.1838 0.0000 0.0000 0.0000 -9925.7310 0.0000 -9925.7310 -9925.7310 0.0000 21532.6130 21468.7345 27000.0000 21532.6130 21468.7345
TCL: Running for 10000000 steps
ETITLE: TS BOND ANGLE DIHED IMPRP ELECT VDW BOUNDARY MISC KINETIC TOTAL TEMP POTENTIAL TOTAL3 TEMPAVG PRESSURE GPRESSURE VOLUME PRESSAVG GPRESSAVG
ENERGY: 50000 0.0000 0.0000 0.0000 0.0000 -8869.3308 868.4781 0.0000 0.0000 1457.8616 -6542.9911 296.4159 -8000.8527 -6542.2978 293.9470 -1074.2363 -1074.2292 27000.0000 -1375.1236 -1375.1069
ENERGY: 950000 0.0000 0.0000 0.0000 0.0000 -8856.1203 848.8196 0.0000 0.0000 1508.0082 -6499.2925 306.6118 -8007.3007 -6498.5752 297.9506 -1187.2775 -1187.3136 27000.0000 -1337.8088 -1337.8086
ENERGY: 1850000 0.0000 0.0000 0.0000 0.0000 -8805.6154 801.1700 0.0000 0.0000 1468.1735 -6536.2719 298.5125 -8004.4454 -6535.5622 298.0296 -1769.3161 -1769.3182 27000.0000 -1319.8131 -1319.8133
ENERGY: 2700000 0.0000 0.0000 0.0000 0.0000 -8840.9273 840.9049 0.0000 0.0000 1454.4969 -6545.5255 295.7318 -8000.0224 -6544.7899 298.0383 -1231.8275 -1231.8185 27000.0000 -1330.4913 -1330.4915
ENERGY: 3600000 0.0000 0.0000 0.0000 0.0000 -8921.1047 881.0420 0.0000 0.0000 1481.1972 -6558.8655 301.1605 -8040.0627 -6558.1207 298.0102 -927.4239 -927.4374 27000.0000 -1345.6091 -1345.6091
ENERGY: 4500000 0.0000 0.0000 0.0000 0.0000 -8759.5555 761.0939 0.0000 0.0000 1437.2972 -6561.1643 292.2347 -7998.4616 -6560.4697 297.9909 -2025.8844 -2025.8599 27000.0000 -1332.4537 -1332.4537
