Info: SIMULATION PARAMETERS:
Info: TIMESTEP               2
Info: NUMBER OF STEPS        0
Info: STEPS PER CYCLE        10
Info: PERIODIC CELL BASIS 1  34.986 0 0
Info: PERIODIC CELL BASIS 2  0 33.314 0
Info: PERIODIC CELL BASIS 3  0 0 37.451
Info: PERIODIC CELL CENTER   0 0 0
Info: WRAPPING WATERS AROUND PERIODIC BOUNDARIES ON OUTPUT.
Info: WRAPPING ALL CLUSTERS AROUND PERIODIC BOUNDARIES ON OUTPUT.
Info: FIRST LDB TIMESTEP     50
Info: LAST LDB TIMESTEP     -1
Info: HOM BACKGROUND SCALING 1
Info: PME BACKGROUND SCALING 1
Info: MIN ATOMS PER PATCH    40
Info: EMPTY PATCH LOAD       40 ATOMS
Info: INITIAL TEMPERATURE    300
Info: CENTER OF MASS MOVING INITIALLY? NO
Info: DIELECTRIC             1
Info: EXCLUDE                SCALED ONE-FOUR
Info: 1-4 ELECTROSTATICS SCALED BY 0.833333
Info: MODIFIED 1-4 VDW PARAMETERS WILL BE USED
Info: DCD FILENAME           mobley_7599023_equil.dcd
Info: DCD FREQUENCY          100000
Info: DCD FIRST STEP         100000
Info: DCD FILE WILL CONTAIN UNIT CELL DATA
Info: XST FILENAME           mobley_7599023_equil.xst
Info: XST FREQUENCY          100000
Info: NO VELOCITY DCD OUTPUT
Info: NO FORCE DCD OUTPUT
Info: OUTPUT FILENAME        mobley_7599023_equil
Info: BINARY OUTPUT FILES WILL BE USED
Info: RESTART FILENAME       mobley_7599023_equil.restart
Info: RESTART FREQUENCY      100000
Info: BINARY RESTART FILES WILL BE USED
Info: CUTOFF                 9
Info: PAIRLIST DISTANCE      11
Info: PAIRLIST SHRINK RATE   0.01
Info: PAIRLIST GROW RATE     0.01
Info: PAIRLIST TRIGGER       0.3
Info: PAIRLISTS PER CYCLE    2
Info: PAIRLISTS ENABLED
Info: MARGIN                 8
Info: HYDROGEN GROUP CUTOFF  2.5
Info: PATCH DIMENSION        21.5
Info: ENERGY OUTPUT STEPS    100000
Info: ENERGY EVALUATION STEPS    100000
Info: OUTPUT ENERGY PRECISION 4
Info: CROSSTERM ENERGY INCLUDED IN DIHEDRAL
Info: TIMING OUTPUT STEPS    1000000
Info: PRESSURE OUTPUT STEPS  100000
Info: FIXED ATOMS ACTIVE
Info: LANGEVIN DYNAMICS ACTIVE
Info: LANGEVIN TEMPERATURE   30
Info: LANGEVIN USING BBK INTEGRATOR
Info: LANGEVIN DAMPING COEFFICIENT IS 1 INVERSE PS
Info: LANGEVIN DYNAMICS APPLIED TO HYDROGENS
Info: LANGEVIN PISTON PRESSURE CONTROL ACTIVE
Info:        TARGET PRESSURE IS 1.01325 BAR
Info:     OSCILLATION PERIOD IS 50 FS
Info:             DECAY TIME IS 25 FS
Info:     PISTON TEMPERATURE IS 300 K
Info:       PRESSURE CONTROL IS GROUP-BASED
Info:    INITIAL STRAIN RATE IS 0 0 0
Info:       CELL FLUCTUATION IS ISOTROPIC
Info: PARTICLE MESH EWALD (PME) ACTIVE
Info: PME TOLERANCE               1e-06
Info: PME EWALD COEFFICIENT       0.348832
Info: PME INTERPOLATION ORDER     4
Info: PME GRID DIMENSIONS         36 36 40
Info: PME MAXIMUM GRID SPACING    1
Info: FULL ELECTROSTATIC EVALUATION FREQUENCY      2
Info: USING VERLET I (r-RESPA) MTS SCHEME.
Info: C1 SPLITTING OF LONG RANGE ELECTROSTATICS
Info: PLACING ATOMS IN PATCHES BY HYDROGEN GROUPS
Info: RIGID BONDS TO HYDROGEN : ALL
Info:         ERROR TOLERANCE : 1e-08
Info:          MAX ITERATIONS : 100
Info: RIGID WATER USING SETTLE ALGORITHM
Info: RANDOM NUMBER SEED     1742146087
Info: USE HYDROGEN BONDS?    NO
Info: Using AMBER format force field!
Info: AMBER PARM FILE        mobley_7599023.prmtop
Info: COORDINATE PDB         mobley_7599023.pdb
Info: Exclusions will be read from PARM file!
Info: SCNB (VDW SCALING)     2
Info: USING ARITHMETIC MEAN TO COMBINE L-J SIGMA PARAMETERS
Info: BINARY COORDINATES     mobley_7599023_min.coor
Info: SUMMARY OF PARAMETERS:
Info: 5 BONDS
Info: 3 ANGLES
Info:   3 HARMONIC
Info:   0 COSINE-BASED
Info: 2 DIHEDRAL
Info: 0 IMPROPER
Info: 0 CROSSTERM
Info: 0 VDW
Info: 15 VDW_PAIRS
Info: 0 NBTHOLE_PAIRS
Info: STRUCTURE SUMMARY:
Info: 2925 ATOMS
Info: 2925 BONDS
Info: 18 ANGLES
Info: 30 DIHEDRALS
Info: 0 IMPROPERS
Info: 0 CROSSTERMS
Info: 2964 EXCLUSIONS
Info: 12 FIXED ATOMS
Info: 2918 RIGID BONDS
Info: 5 RIGID BONDS BETWEEN FIXED ATOMS
Info: 5826 DEGREES OF FREEDOM
Info: 978 HYDROGEN GROUPS
Info: 3 ATOMS IN LARGEST HYDROGEN GROUP
Info: 978 MIGRATION GROUPS
Info: 3 ATOMS IN LARGEST MIGRATION GROUP
Info: 7 HYDROGEN GROUPS WITH ALL ATOMS FIXED
Info: TOTAL MASS = 17650.5 amu
Info: TOTAL CHARGE = -5.58794e-09 e
Info: MASS DENSITY = 0.671479 g/cm^3
Info: ATOM DENSITY = 0.0670103 atoms/A^3
Info: ADDED 0 IMPLICIT EXCLUSIONS
Info: NONBONDED TABLE R-SQUARED SPACING: 0.0625
Info: NONBONDED TABLE SIZE: 705 POINTS
Info: REMOVING COM VELOCITY -0.0824175 0.0631937 0.165064
TCL: Running for 100000 steps
ETITLE: TS BOND ANGLE DIHED IMPRP ELECT VDW BOUNDARY MISC KINETIC TOTAL TEMP POTENTIAL TOTAL3 TEMPAVG PRESSURE GPRESSURE VOLUME PRESSAVG GPRESSAVG
ENERGY: 0 0.0000 0.0000 0.0000 0.0000 -13542.0812 2363.2778 0.0000 0.0000 1814.2202 -9364.5832 313.4079 -11178.8034 -9364.2096 313.4079 430.8977 471.4552 43650.0245 430.8977 471.4552
ENERGY: 100000 0.0000 0.0000 0.0000 0.0000 -14024.4068 2399.4655 0.0000 0.0000 176.7860 -11448.1554 30.5399 -11624.9413 -11447.6414 31.0024 -514.7911 -461.2564 29200.9301 2.5773 2.6017
TCL: Running 100000 steps at 60 kelvin.
TCL: Setting parameter langevinTemp to 60
TCL: Running for 100000 steps
ETITLE: TS BOND ANGLE DIHED IMPRP ELECT VDW BOUNDARY MISC KINETIC TOTAL TEMP POTENTIAL TOTAL3 TEMPAVG PRESSURE GPRESSURE VOLUME PRESSAVG GPRESSAVG
ENERGY: 100000 0.0000 0.0000 0.0000 0.0000 -14024.4068 2399.4655 0.0000 0.0000 176.7036 -11448.2377 30.5257 -11624.9413 -11447.8404 30.5257 -516.5335 -461.2709 29200.9301 -516.5335 -461.2709
ENERGY: 200000 0.0000 0.0000 0.0000 0.0000 -14151.3455 2541.4748 0.0000 0.0000 339.9830 -11269.8878 58.7323 -11609.8707 -11268.7034 59.9990 904.4126 975.8078 28487.8583 4.7059 4.7384
TCL: Running 100000 steps at 90 kelvin.
TCL: Setting parameter langevinTemp to 90
TCL: Running for 100000 steps
ETITLE: TS BOND ANGLE DIHED IMPRP ELECT VDW BOUNDARY MISC KINETIC TOTAL TEMP POTENTIAL TOTAL3 TEMPAVG PRESSURE GPRESSURE VOLUME PRESSAVG GPRESSAVG
ENERGY: 200000 0.0000 0.0000 0.0000 0.0000 -14151.3455 2541.4748 0.0000 0.0000 339.8117 -11270.0590 58.7027 -11609.8707 -11269.3083 58.7027 915.1104 975.9078 28487.8583 915.1104 975.9078
ENERGY: 300000 0.0000 0.0000 0.0000 0.0000 -13789.4867 2333.4144 0.0000 0.0000 517.1226 -10938.9497 89.3333 -11456.0723 -10937.8857 89.9108 -322.3653 -257.1977 28971.8406 2.8254 2.8282
TCL: Running 100000 steps at 120 kelvin.
TCL: Setting parameter langevinTemp to 120
TCL: Running for 100000 steps
ETITLE: TS BOND ANGLE DIHED IMPRP ELECT VDW BOUNDARY MISC KINETIC TOTAL TEMP POTENTIAL TOTAL3 TEMPAVG PRESSURE GPRESSURE VOLUME PRESSAVG GPRESSAVG
ENERGY: 300000 0.0000 0.0000 0.0000 0.0000 -13789.4867 2333.4144 0.0000 0.0000 516.8651 -10939.2072 89.2888 -11456.0723 -10938.3913 89.2888 -311.2409 -257.0306 28971.8406 -311.2409 -257.0306
ENERGY: 400000 0.0000 0.0000 0.0000 0.0000 -13632.6097 2262.2497 0.0000 0.0000 704.2300 -10666.1300 121.6563 -11370.3600 -10665.2213 119.9170 -406.0800 -347.1194 28707.9625 4.1460 4.1652
TCL: Running 100000 steps at 150 kelvin.
TCL: Setting parameter langevinTemp to 150
TCL: Running for 100000 steps
ETITLE: TS BOND ANGLE DIHED IMPRP ELECT VDW BOUNDARY MISC KINETIC TOTAL TEMP POTENTIAL TOTAL3 TEMPAVG PRESSURE GPRESSURE VOLUME PRESSAVG GPRESSAVG
ENERGY: 400000 0.0000 0.0000 0.0000 0.0000 -13632.6097 2262.2497 0.0000 0.0000 703.8808 -10666.4792 121.5959 -11370.3600 -10665.0150 121.5959 -387.7158 -347.5578 28707.9625 -387.7158 -347.5578
ENERGY: 500000 0.0000 0.0000 0.0000 0.0000 -13564.0806 2361.1780 0.0000 0.0000 863.2032 -10339.6994 149.1190 -11202.9026 -10338.3680 149.8747 780.8790 809.9421 29016.6317 4.1421 3.9449
TCL: Running 100000 steps at 180 kelvin.
TCL: Setting parameter langevinTemp to 180
TCL: Running for 100000 steps
ETITLE: TS BOND ANGLE DIHED IMPRP ELECT VDW BOUNDARY MISC KINETIC TOTAL TEMP POTENTIAL TOTAL3 TEMPAVG PRESSURE GPRESSURE VOLUME PRESSAVG GPRESSAVG
ENERGY: 500000 0.0000 0.0000 0.0000 0.0000 -13564.0806 2361.1780 0.0000 0.0000 862.7640 -10340.1386 149.0431 -11202.9026 -10338.5870 149.0431 763.7363 809.5888 29016.6317 763.7363 809.5888
ENERGY: 600000 0.0000 0.0000 0.0000 0.0000 -13013.4056 2091.4060 0.0000 0.0000 992.1060 -9929.8936 171.3870 -10921.9996 -9926.1651 179.9300 -140.9268 -24.1355 28531.5623 3.4677 3.5097
TCL: Running 100000 steps at 210 kelvin.
TCL: Setting parameter langevinTemp to 210
TCL: Running for 100000 steps
ETITLE: TS BOND ANGLE DIHED IMPRP ELECT VDW BOUNDARY MISC KINETIC TOTAL TEMP POTENTIAL TOTAL3 TEMPAVG PRESSURE GPRESSURE VOLUME PRESSAVG GPRESSAVG
ENERGY: 600000 0.0000 0.0000 0.0000 0.0000 -13013.4056 2091.4060 0.0000 0.0000 991.5936 -9930.4060 171.2985 -10921.9996 -9928.6535 171.2985 -91.3300 -22.8049 28531.5623 -91.3300 -22.8049
ENERGY: 700000 0.0000 0.0000 0.0000 0.0000 -12257.2739 1833.5524 0.0000 0.0000 1183.8077 -9239.9137 204.5037 -10423.7214 -9238.3526 210.1688 -204.0898 -88.4999 28234.0404 4.5769 4.5446
TCL: Running 100000 steps at 240 kelvin.
TCL: Setting parameter langevinTemp to 240
TCL: Running for 100000 steps
ETITLE: TS BOND ANGLE DIHED IMPRP ELECT VDW BOUNDARY MISC KINETIC TOTAL TEMP POTENTIAL TOTAL3 TEMPAVG PRESSURE GPRESSURE VOLUME PRESSAVG GPRESSAVG
ENERGY: 700000 0.0000 0.0000 0.0000 0.0000 -12257.2739 1833.5524 0.0000 0.0000 1183.1719 -9240.5496 204.3938 -10423.7214 -9238.9202 204.3938 -168.3106 -90.0819 28234.0404 -168.3106 -90.0819
ENERGY: 800000 0.0000 0.0000 0.0000 0.0000 -11876.6084 1787.1703 0.0000 0.0000 1405.4945 -8683.9436 242.8002 -10089.4381 -8679.8283 240.2913 613.5123 703.8947 28525.2268 3.8206 3.9151
TCL: Running 100000 steps at 270 kelvin.
TCL: Setting parameter langevinTemp to 270
TCL: Running for 100000 steps
ETITLE: TS BOND ANGLE DIHED IMPRP ELECT VDW BOUNDARY MISC KINETIC TOTAL TEMP POTENTIAL TOTAL3 TEMPAVG PRESSURE GPRESSURE VOLUME PRESSAVG GPRESSAVG
ENERGY: 800000 0.0000 0.0000 0.0000 0.0000 -11876.6084 1787.1703 0.0000 0.0000 1404.8186 -8684.6196 242.6834 -10089.4381 -8682.8942 242.6834 617.2277 704.0445 28525.2268 617.2277 704.0445
ENERGY: 900000 0.0000 0.0000 0.0000 0.0000 -11097.8422 1499.2130 0.0000 0.0000 1544.2313 -8054.3978 266.7671 -9598.6292 -8053.3772 269.7392 -497.2596 -413.8100 29501.6142 5.8186 5.6642
TCL: Running 1000000 steps at 300 kelvin.
TCL: Setting parameter langevinTemp to 300
TCL: Running for 1000000 steps
ETITLE: TS BOND ANGLE DIHED IMPRP ELECT VDW BOUNDARY MISC KINETIC TOTAL TEMP POTENTIAL TOTAL3 TEMPAVG PRESSURE GPRESSURE VOLUME PRESSAVG GPRESSAVG
ENERGY: 900000 0.0000 0.0000 0.0000 0.0000 -11097.8422 1499.2130 0.0000 0.0000 1543.4393 -8055.1899 266.6303 -9598.6292 -8053.3136 266.6303 -483.0382 -413.5115 29501.6142 -483.0382 -413.5115
ENERGY: 1100000 0.0000 0.0000 0.0000 0.0000 -10737.2319 1497.5634 0.0000 0.0000 1746.0734 -7493.5951 301.6355 -9239.6685 -7490.8376 300.2304 637.7241 746.7764 29648.2442 3.3333 3.3464
ENERGY: 1300000 0.0000 0.0000 0.0000 0.0000 -10521.3929 1385.7008 0.0000 0.0000 1742.8038 -7392.8884 301.0706 -9135.6921 -7392.2677 300.1272 -164.6643 -90.1268 30216.4059 2.5095 2.5588
ENERGY: 1500000 0.0000 0.0000 0.0000 0.0000 -10679.2179 1495.4474 0.0000 0.0000 1733.2138 -7450.5567 299.4140 -9183.7704 -7446.9116 300.0902 633.6460 662.0749 30153.8414 5.3010 5.0507
ENERGY: 1700000 0.0000 0.0000 0.0000 0.0000 -10606.6625 1400.4468 0.0000 0.0000 1749.4846 -7456.7310 302.2248 -9206.2157 -7453.4837 300.2669 -244.8209 -186.5673 30367.7708 3.8952 3.8870
ENERGY: 1900000 0.0000 0.0000 0.0000 0.0000 -10559.6440 1402.8790 0.0000 0.0000 1799.5320 -7357.2329 310.8705 -9156.7649 -7358.5602 300.2371 120.9859 173.9773 30151.0559 2.7228 2.8389
TCL: Exiting due to exit command.
