Info: SIMULATION PARAMETERS:
Info: TIMESTEP               2
Info: NUMBER OF STEPS        0
Info: STEPS PER CYCLE        10
Info: PERIODIC CELL BASIS 1  39.806 0 0
Info: PERIODIC CELL BASIS 2  0 37.835 0
Info: PERIODIC CELL BASIS 3  0 0 41.374
Info: PERIODIC CELL CENTER   0 0 0
Info: WRAPPING WATERS AROUND PERIODIC BOUNDARIES ON OUTPUT.
Info: WRAPPING ALL CLUSTERS AROUND PERIODIC BOUNDARIES ON OUTPUT.
Info: FIRST LDB TIMESTEP     50
Info: LAST LDB TIMESTEP     -1
Info: HOM BACKGROUND SCALING 1
Info: PME BACKGROUND SCALING 1
Info: MIN ATOMS PER PATCH    40
Info: EMPTY PATCH LOAD       40 ATOMS
Info: INITIAL TEMPERATURE    300
Info: CENTER OF MASS MOVING INITIALLY? NO
Info: DIELECTRIC             1
Info: EXCLUDE                SCALED ONE-FOUR
Info: 1-4 ELECTROSTATICS SCALED BY 0.833333
Info: MODIFIED 1-4 VDW PARAMETERS WILL BE USED
Info: DCD FILENAME           mobley_4483973_min.dcd
Info: DCD FREQUENCY          5000
Info: DCD FIRST STEP         5000
Info: DCD FILE WILL CONTAIN UNIT CELL DATA
Info: XST FILENAME           mobley_4483973_min.xst
Info: XST FREQUENCY          5000
Info: NO VELOCITY DCD OUTPUT
Info: NO FORCE DCD OUTPUT
Info: OUTPUT FILENAME        mobley_4483973_min
Info: BINARY OUTPUT FILES WILL BE USED
Info: RESTART FILENAME       mobley_4483973_min.restart
Info: RESTART FREQUENCY      5000
Info: BINARY RESTART FILES WILL BE USED
Info: CUTOFF                 9
Info: PAIRLIST DISTANCE      11
Info: PAIRLIST SHRINK RATE   0.01
Info: PAIRLIST GROW RATE     0.01
Info: PAIRLIST TRIGGER       0.3
Info: PAIRLISTS PER CYCLE    2
Info: PAIRLISTS ENABLED
Info: MARGIN                 8
Info: HYDROGEN GROUP CUTOFF  2.5
Info: PATCH DIMENSION        21.5
Info: ENERGY OUTPUT STEPS    5000
Info: ENERGY EVALUATION STEPS    5000
Info: OUTPUT ENERGY PRECISION 4
Info: CROSSTERM ENERGY INCLUDED IN DIHEDRAL
Info: TIMING OUTPUT STEPS    50000
Info: PRESSURE OUTPUT STEPS  5000
Info: LANGEVIN DYNAMICS ACTIVE
Info: LANGEVIN TEMPERATURE   300
Info: LANGEVIN USING BBK INTEGRATOR
Info: LANGEVIN DAMPING COEFFICIENT IS 1 INVERSE PS
Info: LANGEVIN DYNAMICS APPLIED TO HYDROGENS
Info: LANGEVIN PISTON PRESSURE CONTROL ACTIVE
Info:        TARGET PRESSURE IS 1.01325 BAR
Info:     OSCILLATION PERIOD IS 50 FS
Info:             DECAY TIME IS 25 FS
Info:     PISTON TEMPERATURE IS 300 K
Info:       PRESSURE CONTROL IS GROUP-BASED
Info:    INITIAL STRAIN RATE IS 0 0 0
Info:       CELL FLUCTUATION IS ISOTROPIC
Info: PARTICLE MESH EWALD (PME) ACTIVE
Info: PME TOLERANCE               1e-06
Info: PME EWALD COEFFICIENT       0.348832
Info: PME INTERPOLATION ORDER     4
Info: PME GRID DIMENSIONS         40 40 44
Info: PME MAXIMUM GRID SPACING    1
Info: FULL ELECTROSTATIC EVALUATION FREQUENCY      2
Info: USING VERLET I (r-RESPA) MTS SCHEME.
Info: C1 SPLITTING OF LONG RANGE ELECTROSTATICS
Info: PLACING ATOMS IN PATCHES BY HYDROGEN GROUPS
Info: RIGID BONDS TO HYDROGEN : ALL
Info:         ERROR TOLERANCE : 1e-08
Info:          MAX ITERATIONS : 100
Info: RIGID WATER USING SETTLE ALGORITHM
Info: RANDOM NUMBER SEED     1741342375
Info: USE HYDROGEN BONDS?    NO
Info: Using AMBER format force field!
Info: AMBER PARM FILE        mobley_4483973.prmtop
Info: COORDINATE PDB         mobley_4483973.pdb
Info: Exclusions will be read from PARM file!
Info: SCNB (VDW SCALING)     2
Info: USING ARITHMETIC MEAN TO COMBINE L-J SIGMA PARAMETERS
Info: SUMMARY OF PARAMETERS:
Info: 5 BONDS
Info: 3 ANGLES
Info:   3 HARMONIC
Info:   0 COSINE-BASED
Info: 2 DIHEDRAL
Info: 0 IMPROPER
Info: 0 CROSSTERM
Info: 0 VDW
Info: 15 VDW_PAIRS
Info: 0 NBTHOLE_PAIRS
Info: STRUCTURE SUMMARY:
Info: 4482 ATOMS
Info: 4482 BONDS
Info: 18 ANGLES
Info: 30 DIHEDRALS
Info: 0 IMPROPERS
Info: 0 CROSSTERMS
Info: 4521 EXCLUSIONS
Info: 4475 RIGID BONDS
Info: 8971 DEGREES OF FREEDOM
Info: 1497 HYDROGEN GROUPS
Info: 3 ATOMS IN LARGEST HYDROGEN GROUP
Info: 1497 MIGRATION GROUPS
Info: 3 ATOMS IN LARGEST MIGRATION GROUP
Info: TOTAL MASS = 26939.9 amu
Info: TOTAL CHARGE = 0 e
Info: MASS DENSITY = 0.717937 g/cm^3
Info: ATOM DENSITY = 0.0719287 atoms/A^3
Info: ADDED 0 IMPLICIT EXCLUSIONS
Info: NONBONDED TABLE R-SQUARED SPACING: 0.0625
Info: NONBONDED TABLE SIZE: 705 POINTS
Info: REMOVING COM VELOCITY -0.00489876 0.0255161 -0.106032
TCL: Minimizing for 2000 steps
ETITLE: TS BOND ANGLE DIHED IMPRP ELECT VDW BOUNDARY MISC KINETIC TOTAL TEMP POTENTIAL TOTAL3 TEMPAVG PRESSURE GPRESSURE VOLUME PRESSAVG GPRESSAVG
ENERGY: 0 0.0750 0.0574 0.0000 0.0000 -13980.2948 1631.1726 0.0000 0.0000 0.0000 -12348.9898 0.0000 -12348.9898 -12348.9898 0.0000 11301.3271 -15498.6905 62311.7269 11301.3271 -15498.6905
ENERGY: 400 1.4529 1.6518 0.0432 0.0000 -18692.1949 2706.5487 0.0000 0.0000 0.0000 -15982.4983 0.0000 -15982.4983 -15982.4983 0.0000 15554.7412 15670.9942 62311.7269 15554.7412 15670.9942
ENERGY: 800 5.9703 1.3400 1.1993 0.0000 -19803.4926 3236.7006 0.0000 0.0000 0.0000 -16558.2823 0.0000 -16558.2823 -16558.2823 0.0000 18231.1449 18338.9903 62311.7269 18231.1449 18338.9903
ENERGY: 1200 0.4299 0.1815 0.0411 0.0000 -20201.1349 3416.8222 0.0000 0.0000 0.0000 -16783.6602 0.0000 -16783.6602 -16783.6602 0.0000 19187.9643 19295.8409 62311.7269 19187.9643 19295.8409
ENERGY: 1600 0.1872 0.1479 0.0258 0.0000 -20410.1384 3503.7405 0.0000 0.0000 0.0000 -16906.0371 0.0000 -16906.0371 -16906.0371 0.0000 19671.8291 19775.1253 62311.7269 19671.8291 19775.1253
ENERGY: 2000 0.1598 0.1126 0.0102 0.0000 -20515.1516 3546.2273 0.0000 0.0000 0.0000 -16968.6418 0.0000 -16968.6418 -16968.6418 0.0000 19915.0903 20016.0367 62311.7269 19915.0903 20016.0367
TCL: Exiting due to exit command.
Info: NAMD 3.0.1 for Linux-x86_64-multicore
Info: Please visit http://www.ks.uiuc.edu/Research/namd/
Info: for updates, documentation, and support information.
Info: Please cite Phillips et al., J. Chem. Phys. 153:044130 (2020) doi:10.1063/5.0014475
Info: in all publications reporting results obtained with NAMD.
Info: Based on Charm++/Converse 80000 for multicore-linux-x86_64-gcc
Info: Built Mon Oct 14 11:11:06 CDT 2024 by dhardy on athine.ks.uiuc.edu
Info: 1 NAMD  3.0.1  Linux-x86_64-multicore  16    k134  z5358697
Info: Running on 16 processors, 1 nodes, 1 physical nodes.
Info: CPU topology information available.
Info: Charm++/Converse parallel runtime startup completed at 0.00736261 s
Info: 1043.48 MB of memory in use based on /proc/self/stat
Info: Configuration file is mobley_4483973_equil.namd
Info: Working in the current directory /srv/scratch/z5358697/prod_prep_5/4483973
TCL: Running 25000 steps at 30 kelvin.
TCL: Suspending until startup complete.
Info: SIMULATION PARAMETERS:
Info: TIMESTEP               2
Info: NUMBER OF STEPS        0
Info: STEPS PER CYCLE        10
Info: PERIODIC CELL BASIS 1  39.806 0 0
Info: PERIODIC CELL BASIS 2  0 37.835 0
Info: PERIODIC CELL BASIS 3  0 0 41.374
Info: PERIODIC CELL CENTER   0 0 0
Info: WRAPPING WATERS AROUND PERIODIC BOUNDARIES ON OUTPUT.
Info: WRAPPING ALL CLUSTERS AROUND PERIODIC BOUNDARIES ON OUTPUT.
Info: FIRST LDB TIMESTEP     50
Info: LAST LDB TIMESTEP     -1
Info: HOM BACKGROUND SCALING 1
Info: PME BACKGROUND SCALING 1
Info: MIN ATOMS PER PATCH    40
Info: EMPTY PATCH LOAD       40 ATOMS
Info: INITIAL TEMPERATURE    300
Info: CENTER OF MASS MOVING INITIALLY? NO
Info: DIELECTRIC             1
Info: EXCLUDE                SCALED ONE-FOUR
Info: 1-4 ELECTROSTATICS SCALED BY 0.833333
Info: MODIFIED 1-4 VDW PARAMETERS WILL BE USED
Info: DCD FILENAME           mobley_4483973_equil.dcd
Info: DCD FREQUENCY          5000
Info: DCD FIRST STEP         5000
Info: DCD FILE WILL CONTAIN UNIT CELL DATA
Info: XST FILENAME           mobley_4483973_equil.xst
Info: XST FREQUENCY          5000
Info: NO VELOCITY DCD OUTPUT
Info: NO FORCE DCD OUTPUT
Info: OUTPUT FILENAME        mobley_4483973_equil
Info: BINARY OUTPUT FILES WILL BE USED
Info: RESTART FILENAME       mobley_4483973_equil.restart
Info: RESTART FREQUENCY      5000
Info: BINARY RESTART FILES WILL BE USED
Info: CUTOFF                 9
Info: PAIRLIST DISTANCE      11
Info: PAIRLIST SHRINK RATE   0.01
Info: PAIRLIST GROW RATE     0.01
Info: PAIRLIST TRIGGER       0.3
Info: PAIRLISTS PER CYCLE    2
Info: PAIRLISTS ENABLED
Info: MARGIN                 8
Info: HYDROGEN GROUP CUTOFF  2.5
Info: PATCH DIMENSION        21.5
Info: ENERGY OUTPUT STEPS    5000
Info: ENERGY EVALUATION STEPS    5000
Info: OUTPUT ENERGY PRECISION 4
Info: CROSSTERM ENERGY INCLUDED IN DIHEDRAL
Info: TIMING OUTPUT STEPS    50000
Info: PRESSURE OUTPUT STEPS  5000
Info: LANGEVIN DYNAMICS ACTIVE
Info: LANGEVIN TEMPERATURE   30
Info: LANGEVIN USING BBK INTEGRATOR
Info: LANGEVIN DAMPING COEFFICIENT IS 1 INVERSE PS
Info: LANGEVIN DYNAMICS APPLIED TO HYDROGENS
Info: LANGEVIN PISTON PRESSURE CONTROL ACTIVE
Info:        TARGET PRESSURE IS 1.01325 BAR
Info:     OSCILLATION PERIOD IS 50 FS
Info:             DECAY TIME IS 25 FS
Info:     PISTON TEMPERATURE IS 300 K
Info:       PRESSURE CONTROL IS GROUP-BASED
Info:    INITIAL STRAIN RATE IS 0 0 0
Info:       CELL FLUCTUATION IS ISOTROPIC
Info: PARTICLE MESH EWALD (PME) ACTIVE
Info: PME TOLERANCE               1e-06
Info: PME EWALD COEFFICIENT       0.348832
Info: PME INTERPOLATION ORDER     4
Info: PME GRID DIMENSIONS         40 40 44
Info: PME MAXIMUM GRID SPACING    1
Info: FULL ELECTROSTATIC EVALUATION FREQUENCY      2
Info: USING VERLET I (r-RESPA) MTS SCHEME.
Info: C1 SPLITTING OF LONG RANGE ELECTROSTATICS
Info: PLACING ATOMS IN PATCHES BY HYDROGEN GROUPS
Info: RIGID BONDS TO HYDROGEN : ALL
Info:         ERROR TOLERANCE : 1e-08
Info:          MAX ITERATIONS : 100
Info: RIGID WATER USING SETTLE ALGORITHM
Info: RANDOM NUMBER SEED     1741342387
Info: USE HYDROGEN BONDS?    NO
Info: Using AMBER format force field!
Info: AMBER PARM FILE        mobley_4483973.prmtop
Info: COORDINATE PDB         mobley_4483973.pdb
Info: Exclusions will be read from PARM file!
Info: SCNB (VDW SCALING)     2
Info: USING ARITHMETIC MEAN TO COMBINE L-J SIGMA PARAMETERS
Info: BINARY COORDINATES     mobley_4483973_min.coor
Info: SUMMARY OF PARAMETERS:
Info: 5 BONDS
Info: 3 ANGLES
Info:   3 HARMONIC
Info:   0 COSINE-BASED
Info: 2 DIHEDRAL
Info: 0 IMPROPER
Info: 0 CROSSTERM
Info: 0 VDW
Info: 15 VDW_PAIRS
Info: 0 NBTHOLE_PAIRS
Info: STRUCTURE SUMMARY:
Info: 4482 ATOMS
Info: 4482 BONDS
Info: 18 ANGLES
Info: 30 DIHEDRALS
Info: 0 IMPROPERS
Info: 0 CROSSTERMS
Info: 4521 EXCLUSIONS
Info: 4475 RIGID BONDS
Info: 8971 DEGREES OF FREEDOM
Info: 1497 HYDROGEN GROUPS
Info: 3 ATOMS IN LARGEST HYDROGEN GROUP
Info: 1497 MIGRATION GROUPS
Info: 3 ATOMS IN LARGEST MIGRATION GROUP
Info: TOTAL MASS = 26939.9 amu
Info: TOTAL CHARGE = 0 e
Info: MASS DENSITY = 0.717937 g/cm^3
Info: ATOM DENSITY = 0.0719287 atoms/A^3
Info: ADDED 0 IMPLICIT EXCLUSIONS
Info: NONBONDED TABLE R-SQUARED SPACING: 0.0625
Info: NONBONDED TABLE SIZE: 705 POINTS
Info: REMOVING COM VELOCITY 0.0704034 -0.0454769 0.0985731
TCL: Running for 25000 steps
ETITLE: TS BOND ANGLE DIHED IMPRP ELECT VDW BOUNDARY MISC KINETIC TOTAL TEMP POTENTIAL TOTAL3 TEMPAVG PRESSURE GPRESSURE VOLUME PRESSAVG GPRESSAVG
ENERGY: 0 0.1598 0.1126 0.0102 0.0000 -20515.1516 3546.2273 0.0000 0.0000 2684.0012 -14284.6406 301.1149 -16968.6418 -14284.1093 301.1149 241.0980 265.8984 62311.7269 241.0980 265.8984
ENERGY: 5000 0.4512 0.3710 0.2321 0.0000 -21284.8510 3526.9905 0.0000 0.0000 271.7377 -17485.0686 30.4859 -17756.8063 -17484.2055 48.0339 -1001.5016 -939.8853 43886.5829 2.2010 2.2204
ENERGY: 10000 0.5213 0.2835 0.4947 0.0000 -21435.5654 3647.9593 0.0000 0.0000 270.5739 -17515.7327 30.3554 -17786.3066 -17515.3078 30.2571 -398.0060 -353.0948 43595.8711 2.8865 3.2386
ENERGY: 15000 0.4967 0.3822 0.1163 0.0000 -21489.5639 3675.5724 0.0000 0.0000 275.6623 -17537.3340 30.9262 -17812.9963 -17536.5546 30.3175 -290.7546 -227.6906 43559.7575 4.6883 4.8162
ENERGY: 20000 0.3047 0.2059 0.1306 0.0000 -21468.1083 3616.4123 0.0000 0.0000 256.4214 -17594.6334 28.7676 -17851.0548 -17594.2292 30.0776 -650.7773 -595.4573 43461.2050 -0.2574 -0.3012
ENERGY: 25000 0.3700 0.2339 0.2440 0.0000 -21656.4820 3793.3002 0.0000 0.0000 268.2231 -17594.1108 30.0916 -17862.3339 -17593.4141 29.8469 310.5420 385.2262 43202.1772 3.9308 3.9556
TCL: Running 25000 steps at 60 kelvin.
TCL: Setting parameter langevinTemp to 60
TCL: Running for 25000 steps
ETITLE: TS BOND ANGLE DIHED IMPRP ELECT VDW BOUNDARY MISC KINETIC TOTAL TEMP POTENTIAL TOTAL3 TEMPAVG PRESSURE GPRESSURE VOLUME PRESSAVG GPRESSAVG
ENERGY: 25000 0.3700 0.2339 0.2440 0.0000 -21656.4820 3793.3002 0.0000 0.0000 268.0892 -17594.2447 30.0766 -17862.3339 -17593.5399 30.0766 321.9306 385.2446 43202.1772 321.9306 385.2446
ENERGY: 30000 0.4039 0.6187 0.4646 0.0000 -21238.8087 3626.1896 0.0000 0.0000 549.8001 -17061.3317 61.6814 -17611.1318 -17059.6760 57.2025 -36.6583 24.3003 43663.3795 8.3303 8.6485
ENERGY: 35000 0.3833 0.4349 1.0394 0.0000 -21236.4678 3587.0671 0.0000 0.0000 534.6240 -17112.9191 59.9788 -17647.5432 -17112.0612 60.0485 -311.9245 -243.6165 43625.1679 3.1329 3.1072
ENERGY: 40000 0.4622 0.6048 0.0986 0.0000 -21431.6788 3755.9570 0.0000 0.0000 545.1452 -17129.4110 61.1592 -17674.5562 -17128.1150 60.1362 644.1387 708.8284 43322.9905 4.5148 4.5548
ENERGY: 45000 0.2219 0.2324 0.1897 0.0000 -21332.5894 3617.1897 0.0000 0.0000 545.2768 -17169.4788 61.1739 -17714.7556 -17167.7734 60.4921 -347.1735 -302.7202 43684.1527 4.3374 4.2471
ENERGY: 50000 0.7940 0.6123 0.9518 0.0000 -21354.0069 3644.9636 0.0000 0.0000 525.1884 -17181.4968 58.9203 -17706.6852 -17180.1252 60.1425 -231.2719 -173.0635 43689.8757 10.5152 10.8560
TCL: Running 25000 steps at 90 kelvin.
TCL: Setting parameter langevinTemp to 90
TCL: Running for 25000 steps
ETITLE: TS BOND ANGLE DIHED IMPRP ELECT VDW BOUNDARY MISC KINETIC TOTAL TEMP POTENTIAL TOTAL3 TEMPAVG PRESSURE GPRESSURE VOLUME PRESSAVG GPRESSAVG
ENERGY: 50000 0.7940 0.6123 0.9518 0.0000 -21354.0069 3644.9636 0.0000 0.0000 524.9131 -17181.7721 58.8894 -17706.6852 -17180.7810 58.8894 -238.0148 -173.0452 43689.8757 -238.0148 -173.0452
ENERGY: 55000 0.6369 0.8454 1.3725 0.0000 -21047.3723 3596.5368 0.0000 0.0000 809.9525 -16638.0282 90.8676 -17447.9807 -16635.5947 87.3116 82.4539 165.5273 43903.4885 1.4194 1.9249
ENERGY: 60000 0.9191 0.8563 1.1700 0.0000 -21094.1349 3617.6278 0.0000 0.0000 815.3706 -16658.1910 91.4755 -17473.5616 -16656.8849 90.3895 175.9315 234.5341 43816.3476 -2.2200 -1.8664
ENERGY: 65000 0.8848 0.9640 0.4867 0.0000 -21115.7824 3638.0031 0.0000 0.0000 800.2192 -16675.2246 89.7756 -17475.4438 -16674.3099 90.2234 209.4842 275.5787 43751.4322 -5.5509 -5.1601
ENERGY: 70000 2.0088 0.5992 1.4203 0.0000 -21120.6741 3599.3906 0.0000 0.0000 835.2459 -16682.0093 93.7052 -17517.2552 -16679.4703 90.6226 -168.9324 -106.4654 43885.4785 3.6763 3.4149
ENERGY: 75000 0.7106 0.7348 0.6597 0.0000 -21131.6157 3598.5453 0.0000 0.0000 813.6249 -16717.3403 91.2796 -17530.9652 -16715.1036 90.1732 -152.1007 -93.3998 44006.8649 2.7600 2.4705
TCL: Running 25000 steps at 120 kelvin.
TCL: Setting parameter langevinTemp to 120
TCL: Running for 25000 steps
ETITLE: TS BOND ANGLE DIHED IMPRP ELECT VDW BOUNDARY MISC KINETIC TOTAL TEMP POTENTIAL TOTAL3 TEMPAVG PRESSURE GPRESSURE VOLUME PRESSAVG GPRESSAVG
ENERGY: 75000 0.7106 0.7348 0.6597 0.0000 -21131.6157 3598.5453 0.0000 0.0000 813.2243 -16717.7410 91.2347 -17530.9652 -16715.9315 91.2347 -145.4265 -93.6733 44006.8649 -145.4265 -93.6733
ENERGY: 80000 0.8840 1.3651 0.9252 0.0000 -20541.8564 3315.7448 0.0000 0.0000 1072.7176 -16150.2198 120.3469 -17222.9374 -16147.4559 117.1050 -967.4827 -913.1171 44273.9328 -4.4116 -3.9516
ENERGY: 85000 1.6834 1.4825 1.5962 0.0000 -20787.4544 3531.6439 0.0000 0.0000 1074.0312 -16177.0173 120.4943 -17251.0485 -16175.4085 120.8857 148.1916 191.9665 44049.2127 -2.2407 -2.3340
ENERGY: 90000 0.5461 0.8468 0.5199 0.0000 -21014.2430 3721.5192 0.0000 0.0000 1055.1641 -16235.6469 118.3776 -17290.8110 -16233.7166 120.5377 1188.2620 1261.5308 43636.7299 1.2641 1.4995
ENERGY: 95000 0.2937 0.4353 0.8550 0.0000 -20722.5009 3429.5987 0.0000 0.0000 1068.1495 -16223.1686 119.8344 -17291.3182 -16219.3743 120.6361 -403.8773 -343.8693 44065.0294 6.5665 6.2609
ENERGY: 100000 0.9621 0.6895 0.7795 0.0000 -20846.4865 3508.4374 0.0000 0.0000 1105.7552 -16229.8628 124.0534 -17335.6180 -16227.4024 120.3256 82.1353 118.0231 43738.6405 6.5787 6.3360
TCL: Running 25000 steps at 150 kelvin.
TCL: Setting parameter langevinTemp to 150
TCL: Running for 25000 steps
ETITLE: TS BOND ANGLE DIHED IMPRP ELECT VDW BOUNDARY MISC KINETIC TOTAL TEMP POTENTIAL TOTAL3 TEMPAVG PRESSURE GPRESSURE VOLUME PRESSAVG GPRESSAVG
ENERGY: 100000 0.9621 0.6895 0.7795 0.0000 -20846.4865 3508.4374 0.0000 0.0000 1105.2322 -16230.3858 123.9947 -17335.6180 -16228.1695 123.9947 58.0154 118.3150 43738.6405 58.0154 118.3150
ENERGY: 105000 0.6376 1.3790 0.7128 0.0000 -20032.8281 3087.7017 0.0000 0.0000 1336.7453 -15605.6517 149.9679 -16942.3970 -15602.2187 146.7307 -1508.1250 -1441.4040 44651.9240 2.2639 1.9191
ENERGY: 110000 0.9357 1.1342 1.2632 0.0000 -20281.9285 3313.3397 0.0000 0.0000 1344.1486 -15621.1070 150.7984 -16965.2556 -15618.2234 150.3523 -351.2774 -284.5403 44282.7344 2.3706 2.6215
ENERGY: 115000 1.1878 1.8254 1.7891 0.0000 -20433.0464 3385.4057 0.0000 0.0000 1332.7191 -15710.1192 149.5162 -17042.8383 -15706.9895 150.8683 1.3506 92.2264 43916.1388 3.8061 3.7892
ENERGY: 120000 0.0953 1.3998 1.1447 0.0000 -20345.3482 3311.9011 0.0000 0.0000 1351.8287 -15678.9787 151.6601 -17030.8074 -15675.0878 149.7267 -280.5607 -225.1782 43783.5036 6.9518 6.6135
ENERGY: 125000 0.8598 0.9636 0.7122 0.0000 -20409.6599 3374.3781 0.0000 0.0000 1361.6790 -15671.0672 152.7651 -17032.7462 -15667.8240 150.4182 5.4210 74.1885 43677.1417 4.6010 4.3599
TCL: Running 50000 steps at 180 kelvin.
TCL: Setting parameter langevinTemp to 180
TCL: Running for 50000 steps
ETITLE: TS BOND ANGLE DIHED IMPRP ELECT VDW BOUNDARY MISC KINETIC TOTAL TEMP POTENTIAL TOTAL3 TEMPAVG PRESSURE GPRESSURE VOLUME PRESSAVG GPRESSAVG
ENERGY: 125000 0.8598 0.9636 0.7122 0.0000 -20409.6599 3374.3781 0.0000 0.0000 1361.0214 -15671.7248 152.6914 -17032.7462 -15669.2550 152.6914 21.4464 74.9559 43677.1417 21.4464 74.9559
ENERGY: 135000 0.9158 1.6159 1.1480 0.0000 -19820.5557 3139.3577 0.0000 0.0000 1606.2016 -15071.3167 180.1978 -16677.5183 -15068.0179 180.1063 -274.1655 -263.3197 43974.0868 5.9822 5.8022
ENERGY: 145000 2.0571 1.2416 1.4071 0.0000 -19817.5074 3134.3486 0.0000 0.0000 1638.4954 -15039.9577 183.8208 -16678.4531 -15033.4455 179.8912 -477.2634 -401.4516 43938.7157 6.2748 7.2510
ENERGY: 155000 0.8247 1.5076 1.9549 0.0000 -19882.5008 3233.1439 0.0000 0.0000 1613.8035 -15031.2663 181.0507 -16645.0697 -15028.0345 179.7795 27.5387 55.7002 44278.8865 6.3614 6.9892
ENERGY: 165000 0.5722 2.0320 1.3413 0.0000 -19807.8861 3122.0742 0.0000 0.0000 1633.5029 -15048.3635 183.2607 -16681.8664 -15044.5932 180.1100 -326.3101 -287.8090 43649.0068 4.8414 4.8113
ENERGY: 175000 0.4944 2.4979 0.7836 0.0000 -19725.7400 3049.1600 0.0000 0.0000 1594.8933 -15077.9107 178.9292 -16672.8040 -15073.6882 179.4421 -758.8682 -710.5918 43652.4318 4.7297 4.4718
TCL: Running 50000 steps at 210 kelvin.
TCL: Setting parameter langevinTemp to 210
TCL: Running for 50000 steps
ETITLE: TS BOND ANGLE DIHED IMPRP ELECT VDW BOUNDARY MISC KINETIC TOTAL TEMP POTENTIAL TOTAL3 TEMPAVG PRESSURE GPRESSURE VOLUME PRESSAVG GPRESSAVG
ENERGY: 175000 0.4944 2.4979 0.7836 0.0000 -19725.7400 3049.1600 0.0000 0.0000 1594.1106 -15078.6934 178.8414 -16672.8040 -15075.1122 178.8414 -771.9472 -710.1506 43652.4318 -771.9472 -710.1506
ENERGY: 185000 3.2536 6.7491 0.6531 0.0000 -18882.3576 2824.7423 0.0000 0.0000 1870.0015 -14176.9580 209.7932 -16046.9595 -14174.2827 210.5182 -568.3786 -512.2847 43768.6982 7.3351 8.0035
ENERGY: 195000 0.3379 0.6806 5.1892 0.0000 -19038.1175 2983.4092 0.0000 0.0000 1880.9476 -14167.5530 211.0213 -16048.5006 -14163.6514 208.9807 483.8375 540.8456 43456.0056 1.3903 1.2599
ENERGY: 205000 1.4049 1.8046 1.3666 0.0000 -18760.6371 2868.2520 0.0000 0.0000 1863.0434 -14024.7656 209.0126 -15887.8090 -14018.8038 210.1617 298.0820 371.9272 43419.5759 8.0760 8.3006
ENERGY: 215000 0.5115 4.3620 2.7559 0.0000 -18865.8580 2831.4423 0.0000 0.0000 1901.7852 -14125.0011 213.3590 -16026.7863 -14120.9590 209.7138 -297.7892 -256.1774 43592.3795 3.7943 3.5518
ENERGY: 225000 1.8331 1.1489 2.4312 0.0000 -18906.9659 2880.9688 0.0000 0.0000 1865.3674 -14155.2165 209.2733 -16020.5839 -14150.3485 209.7460 -265.3094 -174.9492 43788.7462 2.5756 2.4535
TCL: Running 50000 steps at 240 kelvin.
TCL: Setting parameter langevinTemp to 240
TCL: Running for 50000 steps
ETITLE: TS BOND ANGLE DIHED IMPRP ELECT VDW BOUNDARY MISC KINETIC TOTAL TEMP POTENTIAL TOTAL3 TEMPAVG PRESSURE GPRESSURE VOLUME PRESSAVG GPRESSAVG
ENERGY: 225000 1.8331 1.1489 2.4312 0.0000 -18906.9659 2880.9688 0.0000 0.0000 1864.4428 -14156.1410 209.1696 -16020.5839 -14152.7839 209.1696 -249.2989 -174.4970 43788.7462 -249.2989 -174.4970
ENERGY: 235000 1.7569 0.7120 3.7582 0.0000 -18014.5404 2629.8223 0.0000 0.0000 2202.7126 -13175.7784 247.1197 -15378.4910 -13170.5805 240.2230 -171.2488 -89.2961 44334.4944 7.8228 8.0370
ENERGY: 245000 1.3326 1.1148 1.5666 0.0000 -17961.9257 2611.6502 0.0000 0.0000 2117.2168 -13229.0446 237.5280 -15346.2614 -13226.0103 238.7014 -232.7654 -124.6334 44437.2963 3.5800 4.4203
ENERGY: 255000 1.5319 2.2778 0.7864 0.0000 -17680.1094 2425.1569 0.0000 0.0000 2112.6262 -13137.7302 237.0130 -15250.3564 -13130.5807 240.5834 -908.4093 -812.5122 44375.2228 1.4838 1.7119
ENERGY: 265000 1.4562 1.8082 2.3076 0.0000 -17897.3581 2580.5994 0.0000 0.0000 2093.4635 -13217.7232 234.8632 -15311.1867 -13214.3738 237.9156 -103.7661 6.7247 44010.8334 2.9564 3.1257
ENERGY: 275000 2.2637 1.6983 2.3498 0.0000 -17973.6839 2615.2425 0.0000 0.0000 2189.1304 -13162.9993 245.5959 -15352.1297 -13156.2163 239.5824 -113.6529 -16.6603 44191.4658 5.4197 5.1110
TCL: Running 50000 steps at 270 kelvin.
TCL: Setting parameter langevinTemp to 270
TCL: Running for 50000 steps
ETITLE: TS BOND ANGLE DIHED IMPRP ELECT VDW BOUNDARY MISC KINETIC TOTAL TEMP POTENTIAL TOTAL3 TEMPAVG PRESSURE GPRESSURE VOLUME PRESSAVG GPRESSAVG
ENERGY: 275000 2.2637 1.6983 2.3498 0.0000 -17973.6839 2615.2425 0.0000 0.0000 2188.0546 -13164.0751 245.4752 -15352.1297 -13160.6922 245.4752 -112.5878 -15.8776 44191.4658 -112.5878 -15.8776
ENERGY: 285000 0.4222 2.0501 3.5997 0.0000 -17090.7103 2392.8991 0.0000 0.0000 2435.3017 -12256.4376 273.2136 -14691.7392 -12252.1588 271.4402 231.5701 308.4372 44516.5809 4.3533 3.9837
ENERGY: 295000 1.3547 3.3263 1.6265 0.0000 -16967.5234 2298.4587 0.0000 0.0000 2409.8643 -12252.8929 270.3598 -14662.7571 -12248.3109 269.8904 -448.9905 -404.8921 45151.5925 4.7580 5.4194
ENERGY: 305000 1.1588 1.6686 2.3231 0.0000 -17038.3291 2398.1338 0.0000 0.0000 2329.7887 -12305.2560 261.3762 -14635.0447 -12301.8157 268.6774 102.8893 176.6110 45017.8973 2.2396 2.5981
ENERGY: 315000 1.8435 4.3085 2.8891 0.0000 -16979.9916 2353.9419 0.0000 0.0000 2422.4450 -12194.5636 271.7712 -14617.0086 -12190.4005 270.7493 -172.0938 -73.2112 45559.6070 -1.4852 -1.2236
ENERGY: 325000 0.9908 1.5736 4.6873 0.0000 -16980.2597 2350.6348 0.0000 0.0000 2429.7941 -12192.5790 272.5957 -14622.3732 -12186.7040 271.0397 -104.2884 -10.8345 45041.3772 5.3906 5.2610
TCL: Running 1000000 steps at 300 kelvin.
TCL: Setting parameter langevinTemp to 300
TCL: Running for 1000000 steps
ETITLE: TS BOND ANGLE DIHED IMPRP ELECT VDW BOUNDARY MISC KINETIC TOTAL TEMP POTENTIAL TOTAL3 TEMPAVG PRESSURE GPRESSURE VOLUME PRESSAVG GPRESSAVG
ENERGY: 325000 0.9908 1.5736 4.6873 0.0000 -16980.2597 2350.6348 0.0000 0.0000 2428.5952 -12193.7779 272.4612 -14622.3732 -12190.0797 272.4612 -93.1347 -11.2883 45041.3772 -93.1347 -11.2883
ENERGY: 525000 3.4584 1.5455 2.4519 0.0000 -16064.4642 2087.8709 0.0000 0.0000 2698.9570 -11270.1805 302.7928 -13969.1375 -11263.3465 301.4327 -295.4052 -243.0511 46094.3115 -0.2672 -0.2341
ENERGY: 725000 2.9850 3.2499 0.6644 0.0000 -16356.2142 2239.8642 0.0000 0.0000 2655.2744 -11454.1762 297.8921 -14109.4507 -11452.5009 299.0726 237.6926 278.3971 46001.4795 3.5737 3.5487
ENERGY: 925000 0.3638 1.9016 1.9449 0.0000 -16490.6258 2246.0416 0.0000 0.0000 2666.1651 -11574.2087 299.1139 -14240.3739 -11568.8532 301.0644 55.1223 120.9840 46021.7697 2.0538 2.3922
ENERGY: 1125000 1.2467 1.9944 0.6153 0.0000 -16271.8745 2156.7031 0.0000 0.0000 2708.5801 -11402.7348 303.8724 -14111.3149 -11396.2260 300.5615 -200.3049 -158.7182 46127.1216 2.3968 2.3046
ENERGY: 1325000 2.1386 1.5371 3.8247 0.0000 -15945.7195 1979.0229 0.0000 0.0000 2599.2765 -11359.9197 291.6097 -13959.1962 -11353.5148 299.5940 -1001.2329 -887.4347 46504.9366 7.0396 6.7519
TCL: Exiting due to exit command.
