Info: SIMULATION PARAMETERS:
Info: TIMESTEP               2
Info: NUMBER OF STEPS        0
Info: STEPS PER CYCLE        10
Info: PERIODIC CELL BASIS 1  88.5608 0 0
Info: PERIODIC CELL BASIS 2  0 88.5608 0
Info: PERIODIC CELL BASIS 3  0 0 88.5608
Info: PERIODIC CELL CENTER   39.995 39.995 39.995
Info: WRAPPING ALL CLUSTERS AROUND PERIODIC BOUNDARIES ON OUTPUT.
Info: FIRST LDB TIMESTEP     50
Info: LAST LDB TIMESTEP     -1
Info: HOM BACKGROUND SCALING 1
Info: PME BACKGROUND SCALING 1
Info: MIN ATOMS PER PATCH    40
Info: EMPTY PATCH LOAD       40 ATOMS
Info: VELOCITY FILE          mobley_5510474_equilibrated.vel
Info: CENTER OF MASS MOVING INITIALLY? NO
Info: DIELECTRIC             1
Info: EXCLUDE                SCALED ONE-FOUR
Info: 1-4 ELECTROSTATICS SCALED BY 1
Info: MODIFIED 1-4 VDW PARAMETERS WILL BE USED
Info: DCD FILENAME           mobley_5510474_forwards.dcd
Info: DCD FREQUENCY          500
Info: DCD FIRST STEP         500
Info: DCD FILE WILL CONTAIN UNIT CELL DATA
Info: NO EXTENDED SYSTEM TRAJECTORY OUTPUT
Info: NO VELOCITY DCD OUTPUT
Info: NO FORCE DCD OUTPUT
Info: OUTPUT FILENAME        mobley_5510474_forwards
Info: BINARY OUTPUT FILES WILL BE USED
Info: NO RESTART FILE
Info: SWITCHING ACTIVE
Info: SWITCHING ON           10
Info: SWITCHING OFF          12
Info: PAIRLIST DISTANCE      14
Info: PAIRLIST SHRINK RATE   0.01
Info: PAIRLIST GROW RATE     0.01
Info: PAIRLIST TRIGGER       0.3
Info: PAIRLISTS PER CYCLE    2
Info: PAIRLISTS ENABLED
Info: MARGIN                 8
Info: HYDROGEN GROUP CUTOFF  2.5
Info: PATCH DIMENSION        24.5
Info: ENERGY OUTPUT STEPS    500
Info: ENERGY EVALUATION STEPS    500
Info: OUTPUT ENERGY PRECISION 4
Info: CROSSTERM ENERGY INCLUDED IN DIHEDRAL
Info: TIMING OUTPUT STEPS    500
Info: PRESSURE OUTPUT STEPS  500
Info: ALCHEMICAL FEP ON
Info: FEP CURRENT LAMBDA VALUE     0
Info: FEP COMPARISON LAMBDA VALUE  0.0625
Info: FEP INTRA-ALCHEMICAL NON-BONDED INTERACTIONS WILL BE DECOUPLED
Info: FEP INTRA-ALCHEMICAL BONDED INTERACTIONS WILL BE RETAINED
Info: FEP VDW SHIFTING COEFFICIENT 6
Info: FEP ELEC. ACTIVE FOR ANNIHILATED PARTICLES BETWEEN LAMBDA = 0 AND LAMBDA = 0.5
Info: FEP ELEC. ACTIVE FOR EXNIHILATED PARTICLES BETWEEN LAMBDA = 0.5 AND LAMBDA = 1
Info: FEP VDW ACTIVE FOR ANNIHILATED PARTICLES BETWEEN LAMBDA = 0 AND LAMBDA = 1
Info: FEP VDW ACTIVE FOR EXNIHILATED PARTICLES BETWEEN LAMBDA = 0 AND LAMBDA = 1
Info: FEP BOND ACTIVE FOR ANNIHILATED PARTICLES BETWEEN LAMBDA = 1 AND LAMBDA = 1
Info: FEP BOND ACTIVE FOR EXNIHILATED PARTICLES BETWEEN LAMBDA = 0 AND LAMBDA = 0
Info: LANGEVIN DYNAMICS ACTIVE
Info: LANGEVIN TEMPERATURE   298
Info: LANGEVIN USING BBK INTEGRATOR
Info: LANGEVIN DAMPING COEFFICIENT IS 1 INVERSE PS
Info: LANGEVIN DYNAMICS NOT APPLIED TO HYDROGENS
Info: LANGEVIN PISTON PRESSURE CONTROL ACTIVE
Info:        TARGET PRESSURE IS 1.01325 BAR
Info:     OSCILLATION PERIOD IS 100 FS
Info:             DECAY TIME IS 50 FS
Info:     PISTON TEMPERATURE IS 298 K
Info:       PRESSURE CONTROL IS GROUP-BASED
Info:    INITIAL STRAIN RATE IS -5.47789e-05 -5.47789e-05 -5.47789e-05
Info:       CELL FLUCTUATION IS ISOTROPIC
Info: PARTICLE MESH EWALD (PME) ACTIVE
Info: PME TOLERANCE               1e-05
Info: PME EWALD COEFFICIENT       0.226635
Info: PME INTERPOLATION ORDER     4
Info: PME GRID DIMENSIONS         96 96 96
Info: PME MAXIMUM GRID SPACING    1
Info: FULL ELECTROSTATIC EVALUATION FREQUENCY      1
Info: USING VERLET I (r-RESPA) MTS SCHEME.
Info: C1 SPLITTING OF LONG RANGE ELECTROSTATICS
Info: PLACING ATOMS IN PATCHES BY HYDROGEN GROUPS
Info: RIGID BONDS TO HYDROGEN : ALL
Info:         ERROR TOLERANCE : 1e-08
Info:          MAX ITERATIONS : 100
Info: RIGID WATER USING SETTLE ALGORITHM
Info: RANDOM NUMBER SEED     1740645739
Info: USE HYDROGEN BONDS?    NO
Info: COORDINATE PDB         mobley_5510474.pdb
Info: STRUCTURE FILE         mobley_5510474.psf
Info: PARAMETER file: CHARMM format!
Info: PARAMETERS             ../common/par_all27_prot_lipid.inp
Info: PARAMETERS             mobley_5510474.prm
Info: USING ARITHMETIC MEAN TO COMBINE L-J SIGMA PARAMETERS
Info: BINARY COORDINATES     mobley_5510474_equilibrated.coor
Info: SUMMARY OF PARAMETERS:
Info: 184 BONDS
Info: 452 ANGLES
Info: 576 DIHEDRAL
Info: 49 IMPROPER
Info: 6 CROSSTERM
Info: 123 VDW
Info: 0 VDW_PAIRS
Info: 0 NBTHOLE_PAIRS
Info: To read alchdata from file: mobley_5510474.pdb
Info: To read alchflag data from column: 5
Info: STRUCTURE SUMMARY:
Info: 6397 ATOMS
Info: 4274 BONDS
Info: 2163 ANGLES
Info: 56 DIHEDRALS
Info: 12 IMPROPERS
Info: 0 CROSSTERMS
Info: 0 EXCLUSIONS
Info: 6379 RIGID BONDS
Info: ALCH: 0 ATOMS TO DISAPPEAR IN FINAL STATE
Info: ALCH: 22 ATOMS TO APPEAR IN FINAL STATE
Info: 12812 DEGREES OF FREEDOM
Info: 2143 HYDROGEN GROUPS
Info: 3 ATOMS IN LARGEST HYDROGEN GROUP
Info: 2143 MIGRATION GROUPS
Info: 3 ATOMS IN LARGEST MIGRATION GROUP
Info: TOTAL MASS = 38604.7 amu
Info: TOTAL CHARGE = -1.49012e-08 e
Info: MASS DENSITY = 0.0922942 g/cm^3
Info: ATOM DENSITY = 0.00920983 atoms/A^3
Info: ADDED 6484 IMPLICIT EXCLUSIONS
Info: NONBONDED TABLE R-SQUARED SPACING: 0.0625
Info: NONBONDED TABLE SIZE: 769 POINTS
Info: REMOVING COM VELOCITY 0.0689966 -0.0715165 -0.0227653
TCL: Running for 5000 steps
ETITLE: TS BOND ANGLE DIHED IMPRP ELECT VDW BOUNDARY MISC KINETIC TOTAL TEMP POTENTIAL TOTAL3 TEMPAVG PRESSURE GPRESSURE VOLUME PRESSAVG GPRESSAVG
ENERGY: 0 7.6731 4.4835 3.8461 0.2616 -22202.4218 2317.6419 0.0000 0.0000 3749.6546 -16118.8610 294.5539 -19868.5156 -16111.6627 294.5539 -36.0209 -36.0209 694583.7619 -36.0209 -36.0209
ENERGY: 1000 4.6667 6.7546 5.0606 0.4830 -22218.4257 2297.1066 0.0000 0.0000 3836.7418 -16067.6124 301.3950 -19904.3542 -16057.6707 295.5298 -10.3213 -11.0459 688934.2233 1.2845 1.2829
ENERGY: 2000 3.6385 8.3417 4.8763 0.4993 -22559.7136 2655.6994 0.0000 0.0000 3784.7042 -16101.9542 297.3072 -19886.6584 -16096.7020 298.3824 126.3508 126.4848 672610.2651 0.6939 0.7289
ENERGY: 3000 6.2197 6.2898 3.5652 0.2401 -22039.3637 2215.8794 0.0000 0.0000 3783.1790 -16023.9904 297.1874 -19807.1694 -16016.8509 297.0477 -43.0213 -42.9993 680559.5847 0.4631 0.4742
ENERGY: 4000 3.3372 6.8049 6.2257 0.5427 -22144.5287 2341.3102 0.0000 0.0000 3770.8689 -16015.4391 296.2204 -19786.3080 -16010.2799 298.6387 13.5923 13.6453 685969.3396 3.2658 3.2591
ENERGY: 5000 5.1332 5.4435 4.8520 0.5213 -22168.9232 2337.2092 0.0000 0.0000 3833.7723 -15981.9917 301.1617 -19815.7639 -15974.9763 299.2204 11.4241 11.1411 676929.2198 3.3508 3.3334
TCL: Running FEP window   2: Lambda1 0.0625 Lambda2 0.125  [dLambda 0.0625]
TCL: Setting parameter firsttimestep to 0
TCL: Setting parameter alchLambda to 0.0625
Info: NONBONDED TABLE R-SQUARED SPACING: 0.0625
Info: NONBONDED TABLE SIZE: 769 POINTS
TCL: Setting parameter alchLambda2 to 0.125
Info: NONBONDED TABLE R-SQUARED SPACING: 0.0625
Info: NONBONDED TABLE SIZE: 769 POINTS
TCL: Running for 5000 steps
ETITLE: TS BOND ANGLE DIHED IMPRP ELECT VDW BOUNDARY MISC KINETIC TOTAL TEMP POTENTIAL TOTAL3 TEMPAVG PRESSURE GPRESSURE VOLUME PRESSAVG GPRESSAVG
ENERGY: 0 5.1332 5.4435 4.8520 0.5213 -22168.9232 2338.8491 0.0000 0.0000 3833.6511 -15980.4730 301.1522 -19814.1241 -15973.7167 301.1522 11.3461 11.3461 676929.2198 11.3461 11.3461
ENERGY: 1000 7.6300 6.6141 3.0594 0.2717 -22011.4842 2270.2095 0.0000 0.0000 3745.3210 -15978.3784 294.2134 -19723.6994 -15970.9560 298.0095 -42.2742 -42.4886 698050.9163 -0.2451 -0.2386
ENERGY: 2000 7.6444 3.3339 5.1838 0.5964 -22204.6600 2369.2808 0.0000 0.0000 3774.9051 -16043.7157 296.5374 -19818.6208 -16036.6398 297.2221 6.8676 6.1193 707762.7734 1.0675 1.0851
ENERGY: 3000 6.9185 4.5020 4.6066 0.2473 -22172.8216 2358.1376 0.0000 0.0000 3843.9462 -15954.4634 301.9609 -19798.4096 -15949.4017 298.1297 13.5339 13.8945 711297.3242 2.3385 2.3450
ENERGY: 4000 5.9627 6.3210 6.9182 0.1886 -22150.4669 2317.8403 0.0000 0.0000 3898.1412 -15915.0949 306.2182 -19813.2361 -15906.8266 300.8090 9.8308 10.0483 707029.0962 1.8453 1.8171
ENERGY: 5000 5.4503 6.6167 5.8148 0.4589 -22014.4343 2259.8416 0.0000 0.0000 3817.0629 -15919.1891 299.8491 -19736.2520 -15911.3694 297.1964 -8.4099 -8.8021 697235.1276 -0.9372 -0.9664
TCL: Running FEP window   3: Lambda1 0.125  Lambda2 0.1875 [dLambda 0.0625]
TCL: Setting parameter firsttimestep to 0
TCL: Setting parameter alchLambda to 0.125
Info: NONBONDED TABLE R-SQUARED SPACING: 0.0625
Info: NONBONDED TABLE SIZE: 769 POINTS
TCL: Setting parameter alchLambda2 to 0.1875
Info: NONBONDED TABLE R-SQUARED SPACING: 0.0625
Info: NONBONDED TABLE SIZE: 769 POINTS
TCL: Running for 5000 steps
ETITLE: TS BOND ANGLE DIHED IMPRP ELECT VDW BOUNDARY MISC KINETIC TOTAL TEMP POTENTIAL TOTAL3 TEMPAVG PRESSURE GPRESSURE VOLUME PRESSAVG GPRESSAVG
ENERGY: 0 5.4503 6.6167 5.8148 0.4589 -22014.4343 2263.6204 0.0000 0.0000 3816.9451 -15915.5282 299.8399 -19732.4732 -15908.4602 299.8399 -8.3346 -8.3346 697235.1276 -8.3346 -8.3346
ENERGY: 1000 4.7672 4.4937 3.2438 0.3873 -22074.4015 2340.8899 0.0000 0.0000 3844.4183 -15876.2013 301.9980 -19720.6196 -15865.2208 299.2265 8.4962 8.8054 691520.4413 1.5438 1.5617
ENERGY: 2000 4.3852 3.9989 4.2048 0.3321 -21830.2237 2171.5068 0.0000 0.0000 3784.0691 -15861.7267 297.2573 -19645.7958 -15854.0138 297.9553 -56.2416 -56.1516 677852.1227 -0.0449 -0.0541
ENERGY: 3000 5.7744 6.2709 6.1322 0.4425 -21988.9319 2258.0474 0.0000 0.0000 3820.1560 -15892.1086 300.0921 -19712.2645 -15886.9211 299.8376 -13.2924 -13.0491 645678.1559 0.5663 0.5634
ENERGY: 4000 4.9345 4.5216 5.0991 0.2416 -22284.1322 2446.6542 0.0000 0.0000 3926.6408 -15896.0405 308.4570 -19822.6813 -15886.9396 298.4633 50.8514 51.1621 650672.6597 1.4927 1.4857
ENERGY: 5000 5.4672 5.3006 7.2495 0.6533 -22075.3403 2292.3586 0.0000 0.0000 3813.8752 -15950.4360 299.5987 -19764.3112 -15943.1665 299.4050 5.0831 5.4457 633767.0915 -0.1430 -0.1247
TCL: Running FEP window   4: Lambda1 0.1875 Lambda2 0.25   [dLambda 0.0625]
TCL: Setting parameter firsttimestep to 0
TCL: Setting parameter alchLambda to 0.1875
Info: NONBONDED TABLE R-SQUARED SPACING: 0.0625
Info: NONBONDED TABLE SIZE: 769 POINTS
TCL: Setting parameter alchLambda2 to 0.25
Info: NONBONDED TABLE R-SQUARED SPACING: 0.0625
Info: NONBONDED TABLE SIZE: 769 POINTS
TCL: Running for 5000 steps
ETITLE: TS BOND ANGLE DIHED IMPRP ELECT VDW BOUNDARY MISC KINETIC TOTAL TEMP POTENTIAL TOTAL3 TEMPAVG PRESSURE GPRESSURE VOLUME PRESSAVG GPRESSAVG
ENERGY: 0 5.4672 5.3006 7.2495 0.6533 -22075.3403 2298.5173 0.0000 0.0000 3813.7613 -15944.3912 299.5898 -19758.1525 -15936.6775 299.5898 6.6711 6.6711 633767.0915 6.6711 6.6711
ENERGY: 1000 7.7423 2.8405 6.0775 0.6748 -21957.5102 2262.0967 0.0000 0.0000 3781.1251 -15896.9532 297.0260 -19678.0784 -15886.4746 301.4991 -21.2952 -21.0643 622739.2177 1.3143 1.2893
ENERGY: 2000 4.5602 7.1431 3.3030 0.3718 -22194.5756 2345.8997 0.0000 0.0000 3811.6272 -16021.6705 299.4221 -19833.2977 -16014.4816 295.7533 27.3223 26.7488 599648.6819 1.1459 1.1194
ENERGY: 3000 6.9073 4.5240 5.3615 0.4073 -22315.2092 2416.1283 0.0000 0.0000 3773.2278 -16108.6529 296.4057 -19881.8807 -16102.9689 294.9444 4.7556 4.7526 615818.4459 0.2780 0.2689
ENERGY: 4000 6.1229 4.9957 3.6570 0.3513 -21980.9426 2235.4725 0.0000 0.0000 3761.0971 -15969.2461 295.4527 -19730.3432 -15961.9974 298.3725 -30.0657 -28.9970 633950.1267 1.8938 1.9457
ENERGY: 5000 10.0484 3.2961 4.2278 0.3393 -22140.9559 2317.3509 0.0000 0.0000 3809.8578 -15995.8356 299.2831 -19805.6934 -15987.1357 295.4709 -3.3459 -3.4218 650454.5721 0.7570 0.7566
TCL: Running FEP window   5: Lambda1 0.25   Lambda2 0.3125 [dLambda 0.0625]
TCL: Setting parameter firsttimestep to 0
TCL: Setting parameter alchLambda to 0.25
Info: NONBONDED TABLE R-SQUARED SPACING: 0.0625
Info: NONBONDED TABLE SIZE: 769 POINTS
TCL: Setting parameter alchLambda2 to 0.3125
Info: NONBONDED TABLE R-SQUARED SPACING: 0.0625
Info: NONBONDED TABLE SIZE: 769 POINTS
TCL: Running for 5000 steps
ETITLE: TS BOND ANGLE DIHED IMPRP ELECT VDW BOUNDARY MISC KINETIC TOTAL TEMP POTENTIAL TOTAL3 TEMPAVG PRESSURE GPRESSURE VOLUME PRESSAVG GPRESSAVG
ENERGY: 0 10.0484 3.2961 4.2278 0.3393 -22140.9559 2320.9874 0.0000 0.0000 3809.7387 -15992.3182 299.2738 -19802.0569 -15985.0899 299.2738 -2.0755 -2.0755 650454.5721 -2.0755 -2.0755
ENERGY: 1000 6.2792 8.2582 8.1975 0.8202 -22129.3552 2316.2269 0.0000 0.0000 3799.2493 -15990.3239 298.4498 -19789.5732 -15983.2932 297.1984 -8.8675 -9.3223 663051.0867 1.6686 1.6992
ENERGY: 2000 3.3426 3.7448 6.6216 0.4577 -22169.4836 2420.5027 0.0000 0.0000 3829.1374 -15905.6767 300.7976 -19734.8142 -15899.2002 300.3031 48.3959 49.3309 677603.6989 0.4102 0.3891
ENERGY: 3000 5.5968 4.9587 4.8355 0.2515 -22106.2977 2346.6321 0.0000 0.0000 3774.7576 -15969.2655 296.5258 -19744.0231 -15960.5851 297.4281 30.5595 31.2697 662280.1105 0.6071 0.5944
ENERGY: 4000 8.0290 7.0466 4.9925 0.5192 -22249.8571 2358.5097 0.0000 0.0000 3846.4992 -16024.2609 302.1615 -19870.7601 -16015.8461 296.0974 30.5458 31.1861 664334.4718 1.4224 1.4318
ENERGY: 5000 3.9005 3.2055 4.8649 0.3098 -22113.9791 2298.7000 0.0000 0.0000 3819.6771 -15983.3213 300.0545 -19802.9983 -15974.6190 297.6879 -5.8397 -6.2357 679177.6697 -0.3135 -0.3523
TCL: Running FEP window   6: Lambda1 0.3125 Lambda2 0.375  [dLambda 0.0625]
TCL: Setting parameter firsttimestep to 0
TCL: Setting parameter alchLambda to 0.3125
Info: NONBONDED TABLE R-SQUARED SPACING: 0.0625
Info: NONBONDED TABLE SIZE: 769 POINTS
TCL: Setting parameter alchLambda2 to 0.375
Info: NONBONDED TABLE R-SQUARED SPACING: 0.0625
Info: NONBONDED TABLE SIZE: 769 POINTS
TCL: Running for 5000 steps
ETITLE: TS BOND ANGLE DIHED IMPRP ELECT VDW BOUNDARY MISC KINETIC TOTAL TEMP POTENTIAL TOTAL3 TEMPAVG PRESSURE GPRESSURE VOLUME PRESSAVG GPRESSAVG
ENERGY: 0 3.9005 3.2055 4.8649 0.3098 -22113.9791 2299.3991 0.0000 0.0000 3819.5555 -15982.7437 300.0449 -19802.2992 -15974.6024 300.0449 -5.5540 -5.5540 679177.6697 -5.5540 -5.5540
ENERGY: 1000 4.5773 7.6710 5.2536 0.2221 -22140.1692 2382.5519 0.0000 0.0000 3773.3715 -15966.5218 296.4169 -19739.8934 -15953.9108 295.5241 33.8034 33.9745 689640.1633 0.9556 0.9503
ENERGY: 2000 6.5343 2.8400 3.1165 0.1728 -22210.0173 2396.5399 0.0000 0.0000 3827.2455 -15973.5683 300.6490 -19800.8138 -15968.5979 299.3805 42.0671 42.2704 686437.5332 2.9656 2.9821
ENERGY: 3000 3.5270 7.3690 3.7959 0.2730 -22171.8886 2301.4756 0.0000 0.0000 3842.4243 -16013.0237 301.8414 -19855.4481 -16005.7690 297.8815 8.1533 8.7759 657219.6992 2.4954 2.5009
ENERGY: 4000 7.1101 3.8608 3.9224 0.1021 -21842.5260 2133.7125 0.0000 0.0000 3778.5357 -15915.2825 296.8226 -19693.8182 -15909.1269 299.8569 -65.5440 -65.3163 663123.5491 0.3872 0.4117
ENERGY: 5000 3.4729 3.7809 3.9484 0.3232 -22030.5488 2319.2358 0.0000 0.0000 3780.8987 -15918.8890 297.0082 -19699.7876 -15908.0092 298.7948 22.2601 21.7762 650123.0005 1.3935 1.3949
TCL: Running FEP window   7: Lambda1 0.375  Lambda2 0.4375 [dLambda 0.0625]
TCL: Setting parameter firsttimestep to 0
TCL: Setting parameter alchLambda to 0.375
Info: NONBONDED TABLE R-SQUARED SPACING: 0.0625
Info: NONBONDED TABLE SIZE: 769 POINTS
TCL: Setting parameter alchLambda2 to 0.4375
Info: NONBONDED TABLE R-SQUARED SPACING: 0.0625
Info: NONBONDED TABLE SIZE: 769 POINTS
TCL: Running for 5000 steps
ETITLE: TS BOND ANGLE DIHED IMPRP ELECT VDW BOUNDARY MISC KINETIC TOTAL TEMP POTENTIAL TOTAL3 TEMPAVG PRESSURE GPRESSURE VOLUME PRESSAVG GPRESSAVG
ENERGY: 0 3.4729 3.7809 3.9484 0.3232 -22030.5488 2318.9449 0.0000 0.0000 3780.7820 -15919.2965 296.9991 -19700.0785 -15911.7633 296.9991 22.4876 22.4876 650123.0005 22.4876 22.4876
ENERGY: 1000 6.4291 6.3613 4.6623 0.4021 -22058.8802 2313.5651 0.0000 0.0000 3768.3539 -15959.1065 296.0228 -19727.4604 -15952.8916 297.2489 0.0307 0.1813 644267.1210 -0.1850 -0.1580
ENERGY: 2000 7.2379 4.9784 4.9070 0.3788 -22112.8724 2295.4128 0.0000 0.0000 3790.5756 -16009.3819 297.7684 -19799.9575 -16003.9893 298.1199 5.1911 4.4378 645412.6581 -0.8608 -0.8781
ENERGY: 3000 10.2417 3.7220 6.0458 0.5530 -22196.7452 2376.8097 0.0000 0.0000 3792.1552 -16007.2179 297.8925 -19799.3731 -15997.1941 297.6054 14.0188 13.3533 670318.3420 1.1521 1.1681
ENERGY: 4000 6.0645 5.5491 9.5525 0.9038 -22216.2353 2292.8859 0.0000 0.0000 3794.9452 -16106.3342 298.1117 -19901.2795 -16099.9089 295.9418 -34.2684 -33.7459 651348.4544 2.1541 2.1239
ENERGY: 5000 4.9501 5.4720 4.6520 0.2555 -22038.4084 2280.2836 0.0000 0.0000 3797.6083 -15945.1870 298.3209 -19742.7953 -15937.9963 297.0042 -12.2652 -12.8241 643162.8412 1.6072 1.6192
TCL: Running FEP window   8: Lambda1 0.4375 Lambda2 0.5    [dLambda 0.0625]
TCL: Setting parameter firsttimestep to 0
TCL: Setting parameter alchLambda to 0.4375
Info: NONBONDED TABLE R-SQUARED SPACING: 0.0625
Info: NONBONDED TABLE SIZE: 769 POINTS
TCL: Setting parameter alchLambda2 to 0.5
Info: NONBONDED TABLE R-SQUARED SPACING: 0.0625
Info: NONBONDED TABLE SIZE: 769 POINTS
TCL: Running for 5000 steps
ETITLE: TS BOND ANGLE DIHED IMPRP ELECT VDW BOUNDARY MISC KINETIC TOTAL TEMP POTENTIAL TOTAL3 TEMPAVG PRESSURE GPRESSURE VOLUME PRESSAVG GPRESSAVG
ENERGY: 0 4.9501 5.4720 4.6520 0.2555 -22038.4084 2281.9904 0.0000 0.0000 3797.4986 -15943.5899 298.3122 -19741.0885 -15936.0132 298.3122 -11.3739 -11.3739 643162.8412 -11.3739 -11.3739
ENERGY: 1000 8.2994 5.0480 2.9985 0.3577 -22318.2585 2410.0817 0.0000 0.0000 3794.1787 -16097.2946 298.0515 -19891.4733 -16089.7134 295.6221 22.4779 22.5555 644291.5910 0.5384 0.5792
ENERGY: 2000 4.6976 5.5471 2.6513 0.2457 -22084.4935 2277.6808 0.0000 0.0000 3753.2864 -16040.3846 294.8392 -19793.6710 -16031.1889 296.9888 -26.4469 -26.2700 637024.7432 2.8737 2.8474
ENERGY: 3000 5.3278 6.5768 5.9955 0.4227 -22252.4392 2308.1893 0.0000 0.0000 3810.0088 -16115.9184 299.2950 -19925.9272 -16106.0668 296.7744 -15.8650 -16.3870 615781.9278 0.1853 0.1477
ENERGY: 4000 6.6068 6.5475 3.4921 0.2010 -22203.6441 2360.8333 0.0000 0.0000 3712.7634 -16113.2000 291.6559 -19825.9634 -16105.0758 293.5483 9.8880 9.4448 611648.9123 -0.4575 -0.5113
ENERGY: 5000 5.5741 6.0746 8.7756 0.8207 -22256.7867 2323.5670 0.0000 0.0000 3733.2972 -16178.6775 293.2689 -19911.9747 -16171.7710 294.1321 -0.4285 -0.6170 596723.1533 1.2104 1.1867
TCL: Running FEP window   9: Lambda1 0.5    Lambda2 0.5625 [dLambda 0.0625]
TCL: Setting parameter firsttimestep to 0
TCL: Setting parameter alchLambda to 0.5
Info: NONBONDED TABLE R-SQUARED SPACING: 0.0625
Info: NONBONDED TABLE SIZE: 769 POINTS
TCL: Setting parameter alchLambda2 to 0.5625
Info: NONBONDED TABLE R-SQUARED SPACING: 0.0625
Info: NONBONDED TABLE SIZE: 769 POINTS
TCL: Running for 5000 steps
ETITLE: TS BOND ANGLE DIHED IMPRP ELECT VDW BOUNDARY MISC KINETIC TOTAL TEMP POTENTIAL TOTAL3 TEMPAVG PRESSURE GPRESSURE VOLUME PRESSAVG GPRESSAVG
ENERGY: 0 5.5741 6.0746 8.7756 0.8207 -22256.7867 2326.4561 0.0000 0.0000 3733.1817 -16175.9039 293.2598 -19909.0856 -16168.5028 293.2598 1.3173 1.3173 596723.1533 1.3173 1.3173
ENERGY: 1000 3.2786 7.2607 6.5366 0.5080 -22178.1598 2344.4003 0.0000 0.0000 3701.2864 -16114.8892 290.7543 -19816.1756 -16107.9610 293.9852 22.6858 21.9259 597328.0820 0.6128 0.6374
ENERGY: 2000 5.5037 6.6736 3.2441 0.1899 -22069.5779 2202.9399 0.0000 0.0000 3715.9969 -16135.0298 291.9099 -19851.0267 -16126.5154 294.6539 -60.5268 -60.1708 598956.9828 -1.4177 -1.3966
ENERGY: 3000 5.3031 4.4330 4.6872 0.3178 -22252.2509 2398.2135 0.0000 0.0000 3706.4515 -16132.8448 291.1600 -19839.2963 -16127.0361 296.0593 45.3087 45.6907 585824.5601 1.5951 1.5928
ENERGY: 4000 8.8245 5.4257 7.4579 0.7265 -22136.7425 2316.8089 0.0000 0.0000 3741.2669 -16056.2321 293.8950 -19797.4990 -16049.3165 295.6590 29.5035 29.3868 575854.9564 2.0799 2.1033
ENERGY: 5000 7.1193 3.9519 5.8936 0.4531 -22072.1505 2282.0848 0.0000 0.0000 3714.8835 -16057.7642 291.8224 -19772.6477 -16049.9860 296.9869 -24.1930 -23.7096 587879.9102 -0.0048 0.0063
TCL: Running FEP window  10: Lambda1 0.5625 Lambda2 0.625  [dLambda 0.0625]
TCL: Setting parameter firsttimestep to 0
TCL: Setting parameter alchLambda to 0.5625
Info: NONBONDED TABLE R-SQUARED SPACING: 0.0625
Info: NONBONDED TABLE SIZE: 769 POINTS
TCL: Setting parameter alchLambda2 to 0.625
Info: NONBONDED TABLE R-SQUARED SPACING: 0.0625
Info: NONBONDED TABLE SIZE: 769 POINTS
TCL: Running for 5000 steps
ETITLE: TS BOND ANGLE DIHED IMPRP ELECT VDW BOUNDARY MISC KINETIC TOTAL TEMP POTENTIAL TOTAL3 TEMPAVG PRESSURE GPRESSURE VOLUME PRESSAVG GPRESSAVG
ENERGY: 0 7.1193 3.9519 5.8936 0.4531 -22070.8851 2282.5809 0.0000 0.0000 3714.7680 -16056.1182 291.8133 -19770.8863 -16049.4383 291.8133 -22.1298 -22.1298 587879.9102 -22.1298 -22.1298
ENERGY: 1000 5.8128 3.5008 4.6890 0.3475 -22118.4737 2297.1190 0.0000 0.0000 3745.6314 -16061.3733 294.2378 -19807.0046 -16053.5383 294.9578 -0.2825 -0.8506 608577.0295 0.1658 0.1871
ENERGY: 2000 6.2471 4.3347 2.2931 0.1526 -22187.6856 2345.3650 0.0000 0.0000 3848.5396 -15980.7535 302.3218 -19829.2931 -15970.5995 299.3958 15.9895 16.3718 623985.6072 2.5652 2.5666
ENERGY: 3000 6.3843 4.7685 5.3337 0.4625 -22110.0275 2289.7885 0.0000 0.0000 3826.0457 -15977.2444 300.5548 -19803.2900 -15970.0710 299.4841 -21.9135 -21.7485 606625.9125 2.6505 2.6770
ENERGY: 4000 9.4881 3.5231 4.6810 0.4373 -22078.6211 2240.7130 0.0000 0.0000 3806.5657 -16013.2129 299.0245 -19819.7786 -16008.1882 297.4297 -39.2791 -39.3878 585502.7376 3.9907 3.9568
ENERGY: 5000 4.4788 5.5221 4.3930 0.2936 -22178.9859 2347.2790 0.0000 0.0000 3824.5411 -15992.4783 300.4366 -19817.0193 -15986.5417 297.7653 10.8278 11.3837 584822.7183 -0.4775 -0.4762
TCL: Running FEP window  11: Lambda1 0.625  Lambda2 0.6875 [dLambda 0.0625]
TCL: Setting parameter firsttimestep to 0
TCL: Setting parameter alchLambda to 0.625
Info: NONBONDED TABLE R-SQUARED SPACING: 0.0625
Info: NONBONDED TABLE SIZE: 769 POINTS
TCL: Setting parameter alchLambda2 to 0.6875
Info: NONBONDED TABLE R-SQUARED SPACING: 0.0625
Info: NONBONDED TABLE SIZE: 769 POINTS
TCL: Running for 5000 steps
ETITLE: TS BOND ANGLE DIHED IMPRP ELECT VDW BOUNDARY MISC KINETIC TOTAL TEMP POTENTIAL TOTAL3 TEMPAVG PRESSURE GPRESSURE VOLUME PRESSAVG GPRESSAVG
ENERGY: 0 4.4788 5.5221 4.3930 0.2936 -22178.8304 2347.3618 0.0000 0.0000 3824.4253 -15992.3559 300.4275 -19816.7811 -15984.8074 300.4275 12.5203 12.5203 584822.7183 12.5203 12.5203
ENERGY: 1000 5.8189 6.8427 8.6894 0.7722 -22090.9936 2391.3650 0.0000 0.0000 3826.9198 -15850.5856 300.6234 -19677.5054 -15843.6806 299.3242 37.0113 37.2375 593210.4113 -0.4585 -0.4412
ENERGY: 2000 5.1073 6.6703 6.4654 0.6146 -21999.5666 2294.3572 0.0000 0.0000 3815.3480 -15871.0038 299.7144 -19686.3518 -15864.7757 301.9629 12.9234 13.4633 581206.8274 3.2035 3.2234
ENERGY: 3000 8.3318 2.2856 5.5307 0.4760 -22056.2695 2222.0838 0.0000 0.0000 3798.3726 -16019.1891 298.3809 -19817.5616 -16011.8915 298.5334 -28.9424 -28.6538 576078.2670 0.2475 0.2641
ENERGY: 4000 4.2124 5.4671 7.0096 0.6887 -22096.6058 2369.7137 0.0000 0.0000 3828.4734 -15881.0408 300.7455 -19709.5142 -15872.5705 299.9624 43.2961 43.2817 591032.2757 1.1409 1.1495
ENERGY: 5000 3.8950 4.2968 6.8020 0.4449 -22053.4772 2380.9757 0.0000 0.0000 3862.3509 -15794.7119 303.4067 -19657.0628 -15786.7924 302.8457 51.4393 52.4955 590791.2108 2.6589 2.7064
TCL: Running FEP window  12: Lambda1 0.6875 Lambda2 0.75   [dLambda 0.0625]
TCL: Setting parameter firsttimestep to 0
TCL: Setting parameter alchLambda to 0.6875
Info: NONBONDED TABLE R-SQUARED SPACING: 0.0625
Info: NONBONDED TABLE SIZE: 769 POINTS
TCL: Setting parameter alchLambda2 to 0.75
Info: NONBONDED TABLE R-SQUARED SPACING: 0.0625
Info: NONBONDED TABLE SIZE: 769 POINTS
TCL: Running for 5000 steps
ETITLE: TS BOND ANGLE DIHED IMPRP ELECT VDW BOUNDARY MISC KINETIC TOTAL TEMP POTENTIAL TOTAL3 TEMPAVG PRESSURE GPRESSURE VOLUME PRESSAVG GPRESSAVG
ENERGY: 0 3.8950 4.2968 6.8020 0.4449 -22053.4647 2381.2555 0.0000 0.0000 3862.2362 -15794.5342 303.3977 -19656.7704 -15786.4779 303.3977 53.8155 53.8155 590791.2108 53.8155 53.8155
ENERGY: 1000 9.8347 4.0571 3.4393 0.3095 -21965.2780 2296.5851 0.0000 0.0000 3808.4016 -15842.6508 299.1687 -19651.0524 -15834.9863 301.9942 14.5042 13.4058 615044.1493 -1.6716 -1.6783
ENERGY: 2000 4.2243 3.7525 6.8284 0.2721 -22080.4660 2361.6681 0.0000 0.0000 3813.7885 -15889.9322 299.5919 -19703.7207 -15886.0957 301.1284 46.1646 45.1839 604985.1282 2.5988 2.5943
ENERGY: 3000 5.7648 5.3204 5.1505 0.4816 -22121.0760 2371.0823 0.0000 0.0000 3800.4024 -15932.8739 298.5404 -19733.2763 -15924.8367 299.9409 26.4929 26.0656 611854.1250 1.6825 1.6604
ENERGY: 4000 5.7734 5.9174 7.2521 0.4929 -22187.2267 2401.1562 0.0000 0.0000 3851.2535 -15915.3812 302.5350 -19766.6347 -15907.6226 301.9588 64.4524 64.4125 611249.7360 -1.6875 -1.6827
ENERGY: 5000 7.9280 9.2465 4.7082 0.3235 -22338.3639 2410.3774 0.0000 0.0000 3896.8905 -16008.8898 306.1200 -19905.7803 -16002.9370 297.7673 35.5412 35.1245 620533.4746 0.2939 0.2821
TCL: Running FEP window  13: Lambda1 0.75   Lambda2 0.8125 [dLambda 0.0625]
TCL: Setting parameter firsttimestep to 0
TCL: Setting parameter alchLambda to 0.75
Info: NONBONDED TABLE R-SQUARED SPACING: 0.0625
Info: NONBONDED TABLE SIZE: 769 POINTS
TCL: Setting parameter alchLambda2 to 0.8125
Info: NONBONDED TABLE R-SQUARED SPACING: 0.0625
Info: NONBONDED TABLE SIZE: 769 POINTS
TCL: Running for 5000 steps
ETITLE: TS BOND ANGLE DIHED IMPRP ELECT VDW BOUNDARY MISC KINETIC TOTAL TEMP POTENTIAL TOTAL3 TEMPAVG PRESSURE GPRESSURE VOLUME PRESSAVG GPRESSAVG
ENERGY: 0 7.9280 9.2465 4.7082 0.3235 -22337.7391 2409.9903 0.0000 0.0000 3896.7712 -16008.7714 306.1106 -19905.5426 -16001.4434 306.1106 36.2753 36.2753 620533.4746 36.2753 36.2753
ENERGY: 1000 2.9828 4.2935 5.2528 0.4278 -22028.6475 2212.6156 0.0000 0.0000 3846.7945 -15956.2805 302.1847 -19803.0750 -15950.9387 299.2668 -36.3128 -36.7233 625378.8739 -0.7488 -0.7881
ENERGY: 2000 5.0975 7.0780 5.3397 0.4352 -22232.1896 2304.9698 0.0000 0.0000 3818.7521 -16090.5173 299.9818 -19909.2694 -16084.1341 296.8864 -1.8451 -1.5877 617772.3682 1.4610 1.4467
ENERGY: 3000 6.0127 5.9234 5.8398 0.4603 -22055.5962 2332.0804 0.0000 0.0000 3781.8061 -15923.4736 297.0795 -19705.2797 -15916.6990 298.2890 35.9910 35.2259 635690.5274 0.3054 0.2807
ENERGY: 4000 4.2455 4.6405 3.0052 0.2438 -22069.8680 2312.4256 0.0000 0.0000 3835.3652 -15909.9423 301.2869 -19745.3075 -15901.7139 298.5901 21.1021 21.6933 629623.7480 1.3384 1.3487
ENERGY: 5000 6.3028 4.3376 7.2455 0.4258 -22246.5272 2395.9811 0.0000 0.0000 3751.0945 -16081.1399 294.6670 -19832.2344 -16072.9615 296.2908 38.6872 38.5765 618040.5592 1.1032 1.0654
TCL: Running FEP window  14: Lambda1 0.8125 Lambda2 0.875  [dLambda 0.0625]
TCL: Setting parameter firsttimestep to 0
TCL: Setting parameter alchLambda to 0.8125
Info: NONBONDED TABLE R-SQUARED SPACING: 0.0625
Info: NONBONDED TABLE SIZE: 769 POINTS
TCL: Setting parameter alchLambda2 to 0.875
Info: NONBONDED TABLE R-SQUARED SPACING: 0.0625
Info: NONBONDED TABLE SIZE: 769 POINTS
TCL: Running for 5000 steps
ETITLE: TS BOND ANGLE DIHED IMPRP ELECT VDW BOUNDARY MISC KINETIC TOTAL TEMP POTENTIAL TOTAL3 TEMPAVG PRESSURE GPRESSURE VOLUME PRESSAVG GPRESSAVG
ENERGY: 0 6.3028 4.3376 7.2455 0.4258 -22246.0678 2396.9533 0.0000 0.0000 3750.9779 -16079.8250 294.6578 -19830.8029 -16072.7412 294.6578 40.7420 40.7420 618040.5592 40.7420 40.7420
ENERGY: 1000 7.4388 5.1407 3.7955 0.2278 -22236.9928 2356.5204 0.0000 0.0000 3733.1229 -16130.7467 293.2552 -19863.8696 -16123.7103 294.9478 -0.8477 -0.8852 621834.7047 -0.8830 -0.9082
ENERGY: 2000 6.2772 3.1552 6.0424 0.3310 -22134.0939 2322.5584 0.0000 0.0000 3825.5009 -15970.2288 300.5120 -19795.7297 -15962.2909 297.0584 -3.6713 -3.9383 617676.5383 1.0994 1.1097
ENERGY: 3000 5.5343 9.2657 3.8517 0.3363 -22264.4369 2421.3610 0.0000 0.0000 3779.3431 -16044.7447 296.8860 -19824.0879 -16040.3542 297.4142 40.0178 40.7699 599459.6060 0.8702 0.8307
ENERGY: 4000 6.5108 3.4364 5.1945 0.3704 -22201.5265 2389.6918 0.0000 0.0000 3683.2741 -16113.0485 289.3393 -19796.3226 -16106.2005 294.3308 26.6122 26.5612 579434.0255 -0.0122 -0.0046
ENERGY: 5000 4.0821 4.0648 9.3130 0.6269 -22179.5192 2313.8661 0.0000 0.0000 3786.4679 -16061.0983 297.4457 -19847.5663 -16055.9538 294.1725 12.4762 12.3158 570321.4239 0.5384 0.5426
TCL: Running FEP window  15: Lambda1 0.875  Lambda2 0.9375 [dLambda 0.0625]
TCL: Setting parameter firsttimestep to 0
TCL: Setting parameter alchLambda to 0.875
Info: NONBONDED TABLE R-SQUARED SPACING: 0.0625
Info: NONBONDED TABLE SIZE: 769 POINTS
TCL: Setting parameter alchLambda2 to 0.9375
Info: NONBONDED TABLE R-SQUARED SPACING: 0.0625
Info: NONBONDED TABLE SIZE: 769 POINTS
TCL: Running for 5000 steps
ETITLE: TS BOND ANGLE DIHED IMPRP ELECT VDW BOUNDARY MISC KINETIC TOTAL TEMP POTENTIAL TOTAL3 TEMPAVG PRESSURE GPRESSURE VOLUME PRESSAVG GPRESSAVG
ENERGY: 0 4.0821 4.0648 9.3130 0.6269 -22178.9552 2316.6630 0.0000 0.0000 3786.3510 -16057.8543 297.4365 -19844.2053 -16050.9626 297.4365 15.5743 15.5743 570321.4239 15.5743 15.5743
ENERGY: 1000 5.9863 3.4058 6.1389 0.4183 -22207.8517 2354.0336 0.0000 0.0000 3691.1275 -16146.7412 289.9563 -19837.8687 -16139.6101 293.6115 2.9520 2.6066 563764.8278 2.1148 2.1393
ENERGY: 2000 7.2135 4.6005 4.2469 0.4536 -22314.8063 2428.8703 0.0000 0.0000 3743.7134 -16125.7081 294.0871 -19869.4215 -16119.3535 294.6077 69.7141 70.0426 541565.4774 -1.6697 -1.6974
ENERGY: 3000 6.6050 3.0942 4.9631 0.3823 -22141.7126 2337.2922 0.0000 0.0000 3764.5115 -16024.8642 295.7209 -19789.3757 -16016.7969 296.8050 29.1528 29.4275 539231.3144 0.0800 0.0760
ENERGY: 4000 5.6499 5.2458 4.2215 0.4471 -22101.2867 2237.0854 0.0000 0.0000 3819.2506 -16029.3865 300.0210 -19848.6370 -16022.5524 298.7158 -47.6546 -47.6487 551043.8467 1.7229 1.7307
ENERGY: 5000 5.5900 9.6790 5.3846 0.3198 -21964.1509 2188.0073 0.0000 0.0000 3699.7994 -16055.3707 290.6375 -19755.1701 -16047.2983 296.8627 -47.1870 -46.8687 544370.0146 2.3387 2.3556
TCL: Running FEP window  16: Lambda1 0.9375 Lambda2 1.0    [dLambda 0.0625]
TCL: Setting parameter firsttimestep to 0
TCL: Setting parameter alchLambda to 0.9375
Info: NONBONDED TABLE R-SQUARED SPACING: 0.0625
Info: NONBONDED TABLE SIZE: 769 POINTS
TCL: Setting parameter alchLambda2 to 1.0
Info: NONBONDED TABLE R-SQUARED SPACING: 0.0625
Info: NONBONDED TABLE SIZE: 769 POINTS
TCL: Running for 5000 steps
ETITLE: TS BOND ANGLE DIHED IMPRP ELECT VDW BOUNDARY MISC KINETIC TOTAL TEMP POTENTIAL TOTAL3 TEMPAVG PRESSURE GPRESSURE VOLUME PRESSAVG GPRESSAVG
ENERGY: 0 5.5900 9.6790 5.3846 0.3198 -21963.5220 2190.6764 0.0000 0.0000 3699.6840 -16052.1882 290.6284 -19751.8721 -16045.1816 290.6284 -43.3714 -43.3714 544370.0146 -43.3714 -43.3714
ENERGY: 1000 8.0697 2.5373 4.8533 0.2627 -22066.3443 2265.9537 0.0000 0.0000 3709.3956 -16075.2720 291.3913 -19784.6676 -16067.8741 293.2405 -18.7015 -18.1311 533542.6708 0.6149 0.6377
ENERGY: 2000 4.4425 6.3559 5.2138 0.5501 -22144.8879 2265.8181 0.0000 0.0000 3719.1136 -16143.3940 292.1547 -19862.5076 -16135.8715 294.5568 -25.2020 -24.7837 531643.3263 0.5168 0.5573
ENERGY: 3000 7.4251 6.4026 3.6087 0.3583 -22258.4299 2276.6453 0.0000 0.0000 3677.8224 -16286.1675 288.9111 -19963.9899 -16277.8346 291.6375 -58.5695 -57.9107 531958.1835 0.6046 0.5943
ENERGY: 4000 7.5128 4.5053 6.9581 0.8489 -22165.8909 2280.9200 0.0000 0.0000 3761.6899 -16103.4559 295.4993 -19865.1458 -16096.0443 294.9672 -22.8077 -22.6696 535247.0477 0.7261 0.7116
ENERGY: 5000 5.0981 4.4766 4.7724 0.4988 -22168.5151 2336.1777 0.0000 0.0000 3719.0930 -16098.3985 292.1531 -19817.4915 -16091.2974 296.0940 4.0265 3.3112 508403.1550 2.6861 2.6713
