Info: SIMULATION PARAMETERS:
Info: TIMESTEP               2
Info: NUMBER OF STEPS        0
Info: STEPS PER CYCLE        10
Info: PERIODIC CELL BASIS 1  88.5608 0 0
Info: PERIODIC CELL BASIS 2  0 88.5608 0
Info: PERIODIC CELL BASIS 3  0 0 88.5608
Info: PERIODIC CELL CENTER   39.995 39.995 39.995
Info: WRAPPING ALL CLUSTERS AROUND PERIODIC BOUNDARIES ON OUTPUT.
Info: FIRST LDB TIMESTEP     50
Info: LAST LDB TIMESTEP     -1
Info: HOM BACKGROUND SCALING 1
Info: PME BACKGROUND SCALING 1
Info: MIN ATOMS PER PATCH    40
Info: EMPTY PATCH LOAD       40 ATOMS
Info: VELOCITY FILE          mobley_5510474_equilibrated.vel
Info: CENTER OF MASS MOVING INITIALLY? NO
Info: DIELECTRIC             1
Info: EXCLUDE                SCALED ONE-FOUR
Info: 1-4 ELECTROSTATICS SCALED BY 1
Info: MODIFIED 1-4 VDW PARAMETERS WILL BE USED
Info: DCD FILENAME           mobley_5510474_backwards.dcd
Info: DCD FREQUENCY          500
Info: DCD FIRST STEP         500
Info: DCD FILE WILL CONTAIN UNIT CELL DATA
Info: NO EXTENDED SYSTEM TRAJECTORY OUTPUT
Info: NO VELOCITY DCD OUTPUT
Info: NO FORCE DCD OUTPUT
Info: OUTPUT FILENAME        mobley_5510474_backwards
Info: BINARY OUTPUT FILES WILL BE USED
Info: NO RESTART FILE
Info: SWITCHING ACTIVE
Info: SWITCHING ON           10
Info: SWITCHING OFF          12
Info: PAIRLIST DISTANCE      14
Info: PAIRLIST SHRINK RATE   0.01
Info: PAIRLIST GROW RATE     0.01
Info: PAIRLIST TRIGGER       0.3
Info: PAIRLISTS PER CYCLE    2
Info: PAIRLISTS ENABLED
Info: MARGIN                 8
Info: HYDROGEN GROUP CUTOFF  2.5
Info: PATCH DIMENSION        24.5
Info: ENERGY OUTPUT STEPS    500
Info: ENERGY EVALUATION STEPS    500
Info: OUTPUT ENERGY PRECISION 4
Info: CROSSTERM ENERGY INCLUDED IN DIHEDRAL
Info: TIMING OUTPUT STEPS    500
Info: PRESSURE OUTPUT STEPS  500
Info: ALCHEMICAL FEP ON
Info: FEP CURRENT LAMBDA VALUE     1
Info: FEP COMPARISON LAMBDA VALUE  0.9375
Info: FEP INTRA-ALCHEMICAL NON-BONDED INTERACTIONS WILL BE DECOUPLED
Info: FEP INTRA-ALCHEMICAL BONDED INTERACTIONS WILL BE RETAINED
Info: FEP VDW SHIFTING COEFFICIENT 6
Info: FEP ELEC. ACTIVE FOR ANNIHILATED PARTICLES BETWEEN LAMBDA = 0 AND LAMBDA = 0.5
Info: FEP ELEC. ACTIVE FOR EXNIHILATED PARTICLES BETWEEN LAMBDA = 0.5 AND LAMBDA = 1
Info: FEP VDW ACTIVE FOR ANNIHILATED PARTICLES BETWEEN LAMBDA = 0 AND LAMBDA = 1
Info: FEP VDW ACTIVE FOR EXNIHILATED PARTICLES BETWEEN LAMBDA = 0 AND LAMBDA = 1
Info: FEP BOND ACTIVE FOR ANNIHILATED PARTICLES BETWEEN LAMBDA = 1 AND LAMBDA = 1
Info: FEP BOND ACTIVE FOR EXNIHILATED PARTICLES BETWEEN LAMBDA = 0 AND LAMBDA = 0
Info: LANGEVIN DYNAMICS ACTIVE
Info: LANGEVIN TEMPERATURE   298
Info: LANGEVIN USING BBK INTEGRATOR
Info: LANGEVIN DAMPING COEFFICIENT IS 1 INVERSE PS
Info: LANGEVIN DYNAMICS NOT APPLIED TO HYDROGENS
Info: LANGEVIN PISTON PRESSURE CONTROL ACTIVE
Info:        TARGET PRESSURE IS 1.01325 BAR
Info:     OSCILLATION PERIOD IS 100 FS
Info:             DECAY TIME IS 50 FS
Info:     PISTON TEMPERATURE IS 298 K
Info:       PRESSURE CONTROL IS GROUP-BASED
Info:    INITIAL STRAIN RATE IS -5.47789e-05 -5.47789e-05 -5.47789e-05
Info:       CELL FLUCTUATION IS ISOTROPIC
Info: PARTICLE MESH EWALD (PME) ACTIVE
Info: PME TOLERANCE               1e-05
Info: PME EWALD COEFFICIENT       0.226635
Info: PME INTERPOLATION ORDER     4
Info: PME GRID DIMENSIONS         96 96 96
Info: PME MAXIMUM GRID SPACING    1
Info: FULL ELECTROSTATIC EVALUATION FREQUENCY      1
Info: USING VERLET I (r-RESPA) MTS SCHEME.
Info: C1 SPLITTING OF LONG RANGE ELECTROSTATICS
Info: PLACING ATOMS IN PATCHES BY HYDROGEN GROUPS
Info: RIGID BONDS TO HYDROGEN : ALL
Info:         ERROR TOLERANCE : 1e-08
Info:          MAX ITERATIONS : 100
Info: RIGID WATER USING SETTLE ALGORITHM
Info: RANDOM NUMBER SEED     1740645751
Info: USE HYDROGEN BONDS?    NO
Info: COORDINATE PDB         mobley_5510474.pdb
Info: STRUCTURE FILE         mobley_5510474.psf
Info: PARAMETER file: CHARMM format!
Info: PARAMETERS             ../common/par_all27_prot_lipid.inp
Info: PARAMETERS             mobley_5510474.prm
Info: USING ARITHMETIC MEAN TO COMBINE L-J SIGMA PARAMETERS
Info: BINARY COORDINATES     mobley_5510474_equilibrated.coor
Info: SUMMARY OF PARAMETERS:
Info: 184 BONDS
Info: 452 ANGLES
Info: 576 DIHEDRAL
Info: 49 IMPROPER
Info: 6 CROSSTERM
Info: 123 VDW
Info: 0 VDW_PAIRS
Info: 0 NBTHOLE_PAIRS
Info: To read alchdata from file: mobley_5510474.pdb
Info: To read alchflag data from column: 5
Info: STRUCTURE SUMMARY:
Info: 6397 ATOMS
Info: 4274 BONDS
Info: 2163 ANGLES
Info: 56 DIHEDRALS
Info: 12 IMPROPERS
Info: 0 CROSSTERMS
Info: 0 EXCLUSIONS
Info: 6379 RIGID BONDS
Info: ALCH: 0 ATOMS TO DISAPPEAR IN FINAL STATE
Info: ALCH: 22 ATOMS TO APPEAR IN FINAL STATE
Info: 12812 DEGREES OF FREEDOM
Info: 2143 HYDROGEN GROUPS
Info: 3 ATOMS IN LARGEST HYDROGEN GROUP
Info: 2143 MIGRATION GROUPS
Info: 3 ATOMS IN LARGEST MIGRATION GROUP
Info: TOTAL MASS = 38604.7 amu
Info: TOTAL CHARGE = -1.49012e-08 e
Info: MASS DENSITY = 0.0922942 g/cm^3
Info: ATOM DENSITY = 0.00920983 atoms/A^3
Info: ADDED 6484 IMPLICIT EXCLUSIONS
Info: NONBONDED TABLE R-SQUARED SPACING: 0.0625
Info: NONBONDED TABLE SIZE: 769 POINTS
Info: REMOVING COM VELOCITY 0.0689966 -0.0715165 -0.0227653
TCL: Running for 5000 steps
ETITLE: TS BOND ANGLE DIHED IMPRP ELECT VDW BOUNDARY MISC KINETIC TOTAL TEMP POTENTIAL TOTAL3 TEMPAVG PRESSURE GPRESSURE VOLUME PRESSAVG GPRESSAVG
ENERGY: 0 7.6731 4.4835 3.8461 0.2616 -22197.5182 2299.4094 0.0000 0.0000 3749.6546 -16132.1899 294.5539 -19881.8445 -16124.9953 294.5539 -27.3777 -27.3777 694583.7619 -27.3777 -27.3777
ENERGY: 1000 5.1822 3.1881 2.8647 0.1897 -22328.8569 2374.5021 0.0000 0.0000 3818.0321 -16124.8980 299.9253 -19942.9302 -16116.1608 294.9977 32.0545 31.3743 663050.2919 1.1288 1.1219
ENERGY: 2000 3.8068 4.2666 3.7310 0.1905 -22229.1576 2304.2880 0.0000 0.0000 3759.5076 -16153.3672 295.3279 -19912.8748 -16146.4547 296.2690 -26.6011 -25.7855 653101.7722 1.3176 1.3714
ENERGY: 3000 6.3675 5.8334 4.8871 0.4126 -22275.3594 2373.8205 0.0000 0.0000 3778.7294 -16105.3089 296.8378 -19884.0383 -16099.4287 294.1133 15.6693 16.1367 638589.8388 0.3428 0.3406
ENERGY: 4000 5.5812 5.0034 4.6058 0.2524 -22302.1500 2458.6485 0.0000 0.0000 3773.0327 -16055.0260 296.3903 -19828.0587 -16049.6178 295.5429 64.2358 64.0582 621402.3758 0.5491 0.5379
ENERGY: 5000 4.3498 2.8992 3.5795 0.3321 -22199.2882 2332.1978 0.0000 0.0000 3721.8118 -16134.1180 292.3667 -19855.9298 -16126.9096 295.6099 -2.5935 -1.8820 626187.3826 1.0935 1.0980
TCL: Running FEP window   2: Lambda1 0.9375 Lambda2 0.875  [dLambda -0.0625]
TCL: Setting parameter firsttimestep to 0
TCL: Setting parameter alchLambda to 0.9375
Info: NONBONDED TABLE R-SQUARED SPACING: 0.0625
Info: NONBONDED TABLE SIZE: 769 POINTS
TCL: Setting parameter alchLambda2 to 0.875
Info: NONBONDED TABLE R-SQUARED SPACING: 0.0625
Info: NONBONDED TABLE SIZE: 769 POINTS
TCL: Running for 5000 steps
ETITLE: TS BOND ANGLE DIHED IMPRP ELECT VDW BOUNDARY MISC KINETIC TOTAL TEMP POTENTIAL TOTAL3 TEMPAVG PRESSURE GPRESSURE VOLUME PRESSAVG GPRESSAVG
ENERGY: 0 4.3498 2.8992 3.5795 0.3321 -22199.2444 2327.9547 0.0000 0.0000 3721.6957 -16138.4334 292.3576 -19860.1291 -16131.5862 292.3576 -6.1023 -6.1023 626187.3826 -6.1023 -6.1023
ENERGY: 1000 5.2183 3.7798 2.7531 0.1392 -22390.9187 2395.7579 0.0000 0.0000 3822.2647 -16161.0058 300.2577 -19983.2705 -16154.6545 295.2115 26.7101 28.0906 638535.1802 1.7560 1.7626
ENERGY: 2000 5.9280 9.3223 5.9767 0.4881 -22147.6338 2217.6852 0.0000 0.0000 3761.7463 -16146.4872 295.5037 -19908.2335 -16139.6493 294.1967 -40.5966 -40.3814 659788.1204 1.9159 1.9514
ENERGY: 3000 5.5228 2.5091 4.4293 0.4616 -22245.0124 2334.4968 0.0000 0.0000 3731.6810 -16165.9119 293.1419 -19897.5928 -16159.2146 293.6575 12.9542 12.2463 659468.2238 -1.3141 -1.2918
ENERGY: 4000 6.5856 5.8843 3.0999 0.3418 -22374.6628 2372.1427 0.0000 0.0000 3778.0353 -16208.5731 296.7833 -19986.6085 -16201.0420 293.2146 9.2309 9.6859 664990.6396 -0.1516 -0.1932
ENERGY: 5000 3.2698 6.2880 6.2390 0.5125 -22125.5699 2267.2791 0.0000 0.0000 3766.8895 -16075.0920 295.9077 -19841.9815 -16071.1513 294.4754 1.0872 0.8341 659358.7592 -0.5395 -0.5367
TCL: Running FEP window   3: Lambda1 0.875  Lambda2 0.8125 [dLambda -0.0625]
TCL: Setting parameter firsttimestep to 0
TCL: Setting parameter alchLambda to 0.875
Info: NONBONDED TABLE R-SQUARED SPACING: 0.0625
Info: NONBONDED TABLE SIZE: 769 POINTS
TCL: Setting parameter alchLambda2 to 0.8125
Info: NONBONDED TABLE R-SQUARED SPACING: 0.0625
Info: NONBONDED TABLE SIZE: 769 POINTS
TCL: Running for 5000 steps
ETITLE: TS BOND ANGLE DIHED IMPRP ELECT VDW BOUNDARY MISC KINETIC TOTAL TEMP POTENTIAL TOTAL3 TEMPAVG PRESSURE GPRESSURE VOLUME PRESSAVG GPRESSAVG
ENERGY: 0 3.2698 6.2880 6.2390 0.5125 -22126.3418 2264.9540 0.0000 0.0000 3766.7698 -16078.3087 295.8983 -19845.0785 -16071.9375 295.8983 -2.4001 -2.4001 659358.7592 -2.4001 -2.4001
ENERGY: 1000 3.7845 5.3810 4.8870 0.3189 -22267.1969 2269.0986 0.0000 0.0000 3806.2842 -16177.4426 299.0024 -19983.7268 -16170.3556 296.1628 -30.1627 -30.0281 664642.5918 0.3604 0.3464
ENERGY: 2000 5.7005 6.4543 2.4982 0.2361 -22216.9846 2386.5674 0.0000 0.0000 3684.6852 -16130.8428 289.4502 -19815.5281 -16123.8405 293.8257 22.4748 22.8254 658475.1712 0.7988 0.8000
ENERGY: 3000 6.0325 3.4760 4.0779 0.2370 -22241.8374 2423.0997 0.0000 0.0000 3842.2822 -15962.6321 301.8302 -19804.9142 -15953.7431 296.6616 51.3360 52.0502 652144.7087 2.1538 2.1925
ENERGY: 4000 7.3015 4.1089 6.2823 0.5730 -21966.0226 2286.6052 0.0000 0.0000 3873.8622 -15787.2894 304.3110 -19661.1517 -15779.5674 302.1965 -8.1575 -7.6741 640662.5348 2.7871 2.7512
ENERGY: 5000 3.7321 5.0801 8.7374 0.8174 -22182.8873 2401.6693 0.0000 0.0000 3864.8204 -15898.0306 303.6007 -19762.8509 -15890.4962 299.3815 41.2624 40.6876 622849.7765 0.4515 0.4438
TCL: Running FEP window   4: Lambda1 0.8125 Lambda2 0.75   [dLambda -0.0625]
TCL: Setting parameter firsttimestep to 0
TCL: Setting parameter alchLambda to 0.8125
Info: NONBONDED TABLE R-SQUARED SPACING: 0.0625
Info: NONBONDED TABLE SIZE: 769 POINTS
TCL: Setting parameter alchLambda2 to 0.75
Info: NONBONDED TABLE R-SQUARED SPACING: 0.0625
Info: NONBONDED TABLE SIZE: 769 POINTS
TCL: Running for 5000 steps
ETITLE: TS BOND ANGLE DIHED IMPRP ELECT VDW BOUNDARY MISC KINETIC TOTAL TEMP POTENTIAL TOTAL3 TEMPAVG PRESSURE GPRESSURE VOLUME PRESSAVG GPRESSAVG
ENERGY: 0 3.7321 5.0801 8.7374 0.8174 -22183.2018 2400.8479 0.0000 0.0000 3864.6992 -15899.2876 303.5912 -19763.9868 -15892.3055 303.5912 38.6166 38.6166 622849.7765 38.6166 38.6166
ENERGY: 1000 6.8636 6.1495 3.7952 0.3872 -22087.5729 2283.2235 0.0000 0.0000 3844.8469 -15942.3070 302.0317 -19787.1539 -15936.3332 300.2374 19.4662 19.7698 595698.8644 0.8253 0.8293
ENERGY: 2000 4.4616 4.2578 5.4384 0.5244 -22089.7607 2288.9405 0.0000 0.0000 3837.7900 -15948.3480 301.4773 -19786.1380 -15939.9889 297.3616 -12.2359 -11.7068 581154.3241 1.0447 1.0011
ENERGY: 3000 4.7702 5.7411 7.0224 0.5397 -21985.4363 2185.7262 0.0000 0.0000 3797.8596 -15983.7771 298.3406 -19781.6367 -15977.7471 300.5251 -38.9201 -37.6425 573763.7599 1.5320 1.5190
ENERGY: 4000 7.5675 4.2121 3.5434 0.1782 -22128.0781 2340.7436 0.0000 0.0000 3818.9074 -15952.9260 299.9940 -19771.8334 -15946.8502 299.8089 19.5655 19.5626 583645.7179 3.1779 3.1777
ENERGY: 5000 5.6841 7.1800 7.0340 0.6471 -22109.7283 2304.5946 0.0000 0.0000 3854.4258 -15930.1628 302.7842 -19784.5886 -15919.7503 299.2830 -11.4625 -11.1024 579400.5451 1.8871 1.8886
TCL: Running FEP window   5: Lambda1 0.75   Lambda2 0.6875 [dLambda -0.0625]
TCL: Setting parameter firsttimestep to 0
TCL: Setting parameter alchLambda to 0.75
Info: NONBONDED TABLE R-SQUARED SPACING: 0.0625
Info: NONBONDED TABLE SIZE: 769 POINTS
TCL: Setting parameter alchLambda2 to 0.6875
Info: NONBONDED TABLE R-SQUARED SPACING: 0.0625
Info: NONBONDED TABLE SIZE: 769 POINTS
TCL: Running for 5000 steps
ETITLE: TS BOND ANGLE DIHED IMPRP ELECT VDW BOUNDARY MISC KINETIC TOTAL TEMP POTENTIAL TOTAL3 TEMPAVG PRESSURE GPRESSURE VOLUME PRESSAVG GPRESSAVG
ENERGY: 0 5.6841 7.1800 7.0340 0.6471 -22109.8153 2304.9079 0.0000 0.0000 3854.3103 -15930.0520 302.7751 -19784.3623 -15923.5035 302.7751 -12.1515 -12.1515 579400.5451 -12.1515 -12.1515
ENERGY: 1000 5.9293 5.4490 3.0084 0.1247 -21955.8641 2166.3770 0.0000 0.0000 3805.4482 -15969.5273 298.9367 -19774.9755 -15960.9957 300.4076 -48.0639 -47.8452 587930.6090 -1.1313 -1.1550
ENERGY: 2000 5.8771 2.9486 4.5314 0.3211 -22104.9291 2194.7786 0.0000 0.0000 3831.7970 -16064.6753 301.0065 -19896.4723 -16057.9337 298.7298 -51.3777 -51.4806 607319.8122 2.3351 2.3373
ENERGY: 3000 4.0628 5.2722 4.4884 0.3837 -22255.1740 2387.6424 0.0000 0.0000 3752.7999 -16100.5246 294.8009 -19853.3245 -16096.0803 294.2658 15.3071 15.2251 588286.2740 -0.9946 -1.0200
ENERGY: 4000 5.4872 6.3738 4.4469 0.4644 -22166.3909 2353.7675 0.0000 0.0000 3790.8152 -16005.0359 297.7872 -19795.8511 -15997.1662 296.3426 34.8741 34.6117 555152.6936 0.5957 0.5967
ENERGY: 5000 3.5862 5.8437 3.7166 0.2146 -22022.0458 2255.1462 0.0000 0.0000 3780.1780 -15973.3604 296.9516 -19753.5384 -15967.5342 298.7084 -13.8053 -13.7999 548574.9236 0.7207 0.7068
TCL: Running FEP window   6: Lambda1 0.6875 Lambda2 0.625  [dLambda -0.0625]
TCL: Setting parameter firsttimestep to 0
TCL: Setting parameter alchLambda to 0.6875
Info: NONBONDED TABLE R-SQUARED SPACING: 0.0625
Info: NONBONDED TABLE SIZE: 769 POINTS
TCL: Setting parameter alchLambda2 to 0.625
Info: NONBONDED TABLE R-SQUARED SPACING: 0.0625
Info: NONBONDED TABLE SIZE: 769 POINTS
TCL: Running for 5000 steps
ETITLE: TS BOND ANGLE DIHED IMPRP ELECT VDW BOUNDARY MISC KINETIC TOTAL TEMP POTENTIAL TOTAL3 TEMPAVG PRESSURE GPRESSURE VOLUME PRESSAVG GPRESSAVG
ENERGY: 0 3.5862 5.8437 3.7166 0.2146 -22022.2035 2255.9910 0.0000 0.0000 3780.0714 -15972.7799 296.9433 -19752.8513 -15965.6974 296.9433 -15.0977 -15.0977 548574.9236 -15.0977 -15.0977
ENERGY: 1000 2.9334 6.5653 3.1174 0.2729 -22022.0228 2192.8747 0.0000 0.0000 3853.5607 -15962.6984 302.7162 -19816.2591 -15954.9175 297.6959 -47.2395 -46.7121 547626.0689 2.5991 2.5878
ENERGY: 2000 6.7219 5.4807 7.2931 0.5799 -22173.5267 2393.8090 0.0000 0.0000 3851.9696 -15907.6724 302.5912 -19759.6420 -15901.0715 299.3042 31.9945 31.4124 563133.0247 2.5112 2.5301
ENERGY: 3000 7.6118 4.6541 5.5870 0.5543 -22275.9156 2452.8063 0.0000 0.0000 3762.7251 -16041.9771 295.5806 -19804.7022 -16033.0927 298.4976 78.8725 78.9412 549102.2225 3.5475 3.5399
ENERGY: 4000 7.1395 5.1264 6.6497 0.5214 -22198.0077 2264.3620 0.0000 0.0000 3827.8916 -16086.3172 300.6998 -19914.2087 -16078.8331 297.6728 -14.3199 -14.3162 534305.0280 2.4814 2.4673
ENERGY: 5000 6.0216 6.2602 4.8965 0.2786 -21991.8392 2260.1705 0.0000 0.0000 3755.1070 -15959.1047 294.9822 -19714.2117 -15951.1718 299.7270 -9.3896 -8.9463 559090.7654 2.7508 2.8158
TCL: Running FEP window   7: Lambda1 0.625  Lambda2 0.5625 [dLambda -0.0625]
TCL: Setting parameter firsttimestep to 0
TCL: Setting parameter alchLambda to 0.625
Info: NONBONDED TABLE R-SQUARED SPACING: 0.0625
Info: NONBONDED TABLE SIZE: 769 POINTS
TCL: Setting parameter alchLambda2 to 0.5625
Info: NONBONDED TABLE R-SQUARED SPACING: 0.0625
Info: NONBONDED TABLE SIZE: 769 POINTS
TCL: Running for 5000 steps
ETITLE: TS BOND ANGLE DIHED IMPRP ELECT VDW BOUNDARY MISC KINETIC TOTAL TEMP POTENTIAL TOTAL3 TEMPAVG PRESSURE GPRESSURE VOLUME PRESSAVG GPRESSAVG
ENERGY: 0 6.0216 6.2602 4.8965 0.2786 -21992.6841 2260.4701 0.0000 0.0000 3754.9909 -15959.7661 294.9731 -19714.7570 -15952.3516 294.9731 -10.2372 -10.2372 559090.7654 -10.2372 -10.2372
ENERGY: 1000 6.0708 6.2011 3.9435 0.3610 -22090.0474 2201.0256 0.0000 0.0000 3783.2124 -16089.2330 297.1900 -19872.4455 -16081.8205 294.3322 -60.7192 -60.5187 555701.7522 0.1738 0.1389
ENERGY: 2000 8.6098 7.5733 7.0485 0.2431 -22354.0439 2389.3198 0.0000 0.0000 3763.8417 -16177.4077 295.6683 -19941.2494 -16170.5776 295.9292 38.0879 38.5793 550484.7683 1.2435 1.3004
ENERGY: 3000 9.4047 4.5417 4.7876 0.3071 -22062.8235 2218.3677 0.0000 0.0000 3713.1963 -16112.2184 291.6899 -19825.4147 -16106.7274 296.0901 -64.1167 -63.4921 558292.8837 1.4578 1.3953
ENERGY: 4000 6.6111 6.5167 4.8196 0.4622 -22322.0633 2407.3259 0.0000 0.0000 3839.4567 -16056.8710 301.6083 -19896.3277 -16050.4275 297.2100 37.7758 37.8414 544669.1547 -0.3107 -0.3292
ENERGY: 5000 5.1081 7.6664 4.4104 0.3435 -22189.8494 2377.8645 0.0000 0.0000 3753.2858 -16041.1707 294.8391 -19794.4565 -16033.2623 297.3526 28.8264 29.6007 545085.2004 3.9787 3.9665
TCL: Running FEP window   8: Lambda1 0.5625 Lambda2 0.5    [dLambda -0.0625]
TCL: Setting parameter firsttimestep to 0
TCL: Setting parameter alchLambda to 0.5625
Info: NONBONDED TABLE R-SQUARED SPACING: 0.0625
Info: NONBONDED TABLE SIZE: 769 POINTS
TCL: Setting parameter alchLambda2 to 0.5
Info: NONBONDED TABLE R-SQUARED SPACING: 0.0625
Info: NONBONDED TABLE SIZE: 769 POINTS
TCL: Running for 5000 steps
ETITLE: TS BOND ANGLE DIHED IMPRP ELECT VDW BOUNDARY MISC KINETIC TOTAL TEMP POTENTIAL TOTAL3 TEMPAVG PRESSURE GPRESSURE VOLUME PRESSAVG GPRESSAVG
ENERGY: 0 5.1081 7.6664 4.4104 0.3435 -22190.5879 2379.5290 0.0000 0.0000 3753.1707 -16040.3598 294.8301 -19793.5305 -16033.7183 294.8301 29.2899 29.2899 545085.2004 29.2899 29.2899
ENERGY: 1000 4.1803 4.2389 3.7796 0.3059 -22165.6303 2355.4750 0.0000 0.0000 3752.4071 -16045.2435 294.7701 -19797.6506 -16038.5149 295.9502 38.2563 38.3965 556871.8582 -1.1169 -1.0942
ENERGY: 2000 10.9132 5.7753 6.0795 0.4192 -22134.6857 2367.9453 0.0000 0.0000 3749.5970 -15993.9561 294.5493 -19743.5531 -15987.2853 296.1378 27.6982 26.2650 541291.1512 1.5105 1.5137
ENERGY: 3000 7.8350 4.8847 7.0265 0.3700 -22007.3336 2239.5205 0.0000 0.0000 3745.1358 -16002.5611 294.1989 -19747.6969 -15995.6438 298.3198 -26.9902 -26.8612 548775.4812 1.1756 1.1843
ENERGY: 4000 4.4268 7.1454 3.4968 0.3345 -21947.8525 2201.2573 0.0000 0.0000 3811.5518 -15919.6400 299.4162 -19731.1918 -15912.5998 299.2914 -38.8287 -39.0942 541140.2075 2.5661 2.5816
ENERGY: 5000 9.2157 4.2314 5.4798 0.4047 -22001.0127 2338.4113 0.0000 0.0000 3869.1486 -15774.1211 303.9407 -19643.2697 -15767.7747 300.5892 47.2464 46.6484 526312.0368 -0.0037 -0.0191
TCL: Running FEP window   9: Lambda1 0.5    Lambda2 0.4375 [dLambda -0.0625]
TCL: Setting parameter firsttimestep to 0
TCL: Setting parameter alchLambda to 0.5
Info: NONBONDED TABLE R-SQUARED SPACING: 0.0625
Info: NONBONDED TABLE SIZE: 769 POINTS
TCL: Setting parameter alchLambda2 to 0.4375
Info: NONBONDED TABLE R-SQUARED SPACING: 0.0625
Info: NONBONDED TABLE SIZE: 769 POINTS
TCL: Running for 5000 steps
ETITLE: TS BOND ANGLE DIHED IMPRP ELECT VDW BOUNDARY MISC KINETIC TOTAL TEMP POTENTIAL TOTAL3 TEMPAVG PRESSURE GPRESSURE VOLUME PRESSAVG GPRESSAVG
ENERGY: 0 9.2157 4.2314 5.4798 0.4047 -22002.3407 2339.1539 0.0000 0.0000 3869.0375 -15774.8175 303.9320 -19643.8550 -15767.4471 303.9320 45.8589 45.8589 526312.0368 45.8589 45.8589
ENERGY: 1000 5.1524 7.7644 11.0518 0.7914 -22073.2365 2365.1729 0.0000 0.0000 3838.0757 -15845.2279 301.4998 -19683.3036 -15839.4116 300.7797 68.5031 68.6221 515720.3308 0.5235 0.5432
ENERGY: 2000 3.8069 6.8933 6.2029 0.3973 -22044.6916 2297.3830 0.0000 0.0000 3790.7623 -15939.2459 297.7831 -19730.0082 -15933.8662 300.9261 3.0894 2.8399 513140.8779 0.4224 0.3879
ENERGY: 3000 6.4375 5.7149 6.5602 0.4682 -22137.2819 2339.5494 0.0000 0.0000 3801.5372 -15977.0145 298.6295 -19778.5517 -15971.7299 297.3933 -0.5362 -0.0989 496226.5824 0.5939 0.5899
ENERGY: 4000 9.4191 5.3659 3.6827 0.1138 -22038.6348 2312.8408 0.0000 0.0000 3813.5436 -15893.6689 299.5727 -19707.2125 -15886.9617 300.4651 24.2139 24.6252 477875.4928 1.6504 1.6677
ENERGY: 5000 5.6040 3.9280 7.8181 0.6711 -22007.6498 2229.6687 0.0000 0.0000 3839.5086 -15920.4514 301.6123 -19759.9600 -15913.7657 300.6688 -24.6008 -23.9749 467734.2699 -1.5217 -1.4925
TCL: Running FEP window  10: Lambda1 0.4375 Lambda2 0.375  [dLambda -0.0625]
TCL: Setting parameter firsttimestep to 0
TCL: Setting parameter alchLambda to 0.4375
Info: NONBONDED TABLE R-SQUARED SPACING: 0.0625
Info: NONBONDED TABLE SIZE: 769 POINTS
TCL: Setting parameter alchLambda2 to 0.375
Info: NONBONDED TABLE R-SQUARED SPACING: 0.0625
Info: NONBONDED TABLE SIZE: 769 POINTS
TCL: Running for 5000 steps
ETITLE: TS BOND ANGLE DIHED IMPRP ELECT VDW BOUNDARY MISC KINETIC TOTAL TEMP POTENTIAL TOTAL3 TEMPAVG PRESSURE GPRESSURE VOLUME PRESSAVG GPRESSAVG
ENERGY: 0 5.6040 3.9280 7.8181 0.6711 -22007.6498 2230.7562 0.0000 0.0000 3839.3948 -15919.4777 301.6034 -19758.8725 -15912.4146 301.6034 -24.6909 -24.6909 467734.2699 -24.6909 -24.6909
ENERGY: 1000 5.6268 7.0419 4.7930 0.4393 -22115.5747 2412.4984 0.0000 0.0000 3745.3465 -15939.8287 294.2154 -19685.1752 -15931.1701 298.2590 55.9369 55.1261 469126.2044 -0.3844 -0.3958
ENERGY: 2000 5.7548 5.6769 7.7477 0.7207 -22039.8133 2337.7079 0.0000 0.0000 3800.7952 -15881.4101 298.5712 -19682.2053 -15874.1632 300.5055 36.9936 36.7808 461372.8783 3.1313 3.1728
ENERGY: 3000 7.2171 5.3552 4.5325 0.4403 -22207.1384 2390.8831 0.0000 0.0000 3926.5302 -15872.1799 308.4483 -19798.7101 -15866.3102 301.2661 61.7332 61.7511 442900.3817 1.2280 1.2916
ENERGY: 4000 6.2052 6.7655 5.0676 0.4278 -22161.5509 2286.0321 0.0000 0.0000 3847.1322 -16009.9204 302.2112 -19857.0526 -16002.3887 297.6586 -33.3263 -33.0469 438374.4173 -0.5931 -0.6065
ENERGY: 5000 7.9303 5.3517 6.4256 0.4655 -22178.2395 2317.0143 0.0000 0.0000 3801.9939 -16039.0584 298.6654 -19841.0522 -16030.0622 296.6757 -11.6618 -12.4252 448239.6127 -0.8566 -0.8152
TCL: Running FEP window  11: Lambda1 0.375  Lambda2 0.3125 [dLambda -0.0625]
TCL: Setting parameter firsttimestep to 0
TCL: Setting parameter alchLambda to 0.375
Info: NONBONDED TABLE R-SQUARED SPACING: 0.0625
Info: NONBONDED TABLE SIZE: 769 POINTS
TCL: Setting parameter alchLambda2 to 0.3125
Info: NONBONDED TABLE R-SQUARED SPACING: 0.0625
Info: NONBONDED TABLE SIZE: 769 POINTS
TCL: Running for 5000 steps
ETITLE: TS BOND ANGLE DIHED IMPRP ELECT VDW BOUNDARY MISC KINETIC TOTAL TEMP POTENTIAL TOTAL3 TEMPAVG PRESSURE GPRESSURE VOLUME PRESSAVG GPRESSAVG
ENERGY: 0 7.9303 5.3517 6.4256 0.4655 -22178.2395 2318.5413 0.0000 0.0000 3801.8782 -16037.6470 298.6563 -19839.5252 -16030.3032 298.6563 -12.6000 -12.6000 448239.6127 -12.6000 -12.6000
ENERGY: 1000 8.3054 4.5233 5.0319 0.3777 -22228.2961 2271.3043 0.0000 0.0000 3738.5933 -16200.1603 293.6849 -19938.7536 -16190.8669 294.3780 -68.2051 -67.7643 455095.2808 2.3168 2.2860
ENERGY: 2000 6.3817 6.6391 4.9320 0.6061 -22308.2848 2354.6538 0.0000 0.0000 3849.4583 -16085.6139 302.3939 -19935.0722 -16077.1616 294.5563 -17.6430 -18.8376 462096.4922 3.4938 3.4504
ENERGY: 3000 6.6913 4.5672 5.4954 0.4592 -22115.2299 2293.6090 0.0000 0.0000 3808.2476 -15996.1603 299.1566 -19804.4079 -15989.2440 297.7607 0.9645 0.4555 464893.9680 0.3942 0.3989
ENERGY: 4000 5.1354 6.0964 7.3566 0.7422 -22278.6040 2450.0346 0.0000 0.0000 3855.7903 -15953.4486 302.8913 -19809.2388 -15946.1949 298.9542 81.9121 81.7389 467248.3303 -0.6579 -0.5948
ENERGY: 5000 6.5131 6.2513 7.2088 0.7251 -22024.8702 2295.7053 0.0000 0.0000 3839.6073 -15868.8591 301.6201 -19708.4665 -15859.4628 301.2160 -20.4371 -20.6363 476154.1811 2.7810 2.7896
TCL: Running FEP window  12: Lambda1 0.3125 Lambda2 0.25   [dLambda -0.0625]
TCL: Setting parameter firsttimestep to 0
TCL: Setting parameter alchLambda to 0.3125
Info: NONBONDED TABLE R-SQUARED SPACING: 0.0625
Info: NONBONDED TABLE SIZE: 769 POINTS
TCL: Setting parameter alchLambda2 to 0.25
Info: NONBONDED TABLE R-SQUARED SPACING: 0.0625
Info: NONBONDED TABLE SIZE: 769 POINTS
TCL: Running for 5000 steps
ETITLE: TS BOND ANGLE DIHED IMPRP ELECT VDW BOUNDARY MISC KINETIC TOTAL TEMP POTENTIAL TOTAL3 TEMPAVG PRESSURE GPRESSURE VOLUME PRESSAVG GPRESSAVG
ENERGY: 0 6.5131 6.2513 7.2088 0.7251 -22024.8702 2296.6559 0.0000 0.0000 3839.4923 -15868.0236 301.6111 -19707.5159 -15860.1166 301.6111 -21.0624 -21.0624 476154.1811 -21.0624 -21.0624
ENERGY: 1000 6.0060 2.8071 4.4923 0.4510 -22304.3231 2446.7574 0.0000 0.0000 3831.4482 -16012.3610 300.9792 -19843.8093 -16004.5385 299.4053 65.2689 64.6789 470733.8080 2.4683 2.4573
ENERGY: 2000 6.4893 4.3026 4.8694 0.4210 -22258.0597 2379.6429 0.0000 0.0000 3721.4767 -16140.8578 292.3403 -19862.3345 -16135.3021 294.0781 21.1567 20.6978 475048.8653 0.8762 0.8980
ENERGY: 3000 3.0721 7.5807 4.3057 0.4023 -22360.0365 2446.9238 0.0000 0.0000 3788.6988 -16109.0531 297.6210 -19897.7520 -16098.8473 295.3483 48.2135 47.3621 458415.7465 0.3296 0.3903
ENERGY: 4000 6.0121 5.0038 9.8438 1.1328 -22369.3983 2436.0936 0.0000 0.0000 3729.2827 -16182.0296 292.9535 -19911.3122 -16174.2021 293.8139 64.4279 63.7158 435659.0389 -1.2187 -1.2029
ENERGY: 5000 5.4274 5.2595 2.9610 0.1867 -22283.2518 2365.7151 0.0000 0.0000 3772.1200 -16131.5819 296.3186 -19903.7019 -16123.3807 294.3968 -2.7744 -2.8556 438690.5948 -0.6915 -0.6995
TCL: Running FEP window  13: Lambda1 0.25   Lambda2 0.1875 [dLambda -0.0625]
TCL: Setting parameter firsttimestep to 0
TCL: Setting parameter alchLambda to 0.25
Info: NONBONDED TABLE R-SQUARED SPACING: 0.0625
Info: NONBONDED TABLE SIZE: 769 POINTS
TCL: Setting parameter alchLambda2 to 0.1875
Info: NONBONDED TABLE R-SQUARED SPACING: 0.0625
Info: NONBONDED TABLE SIZE: 769 POINTS
TCL: Running for 5000 steps
ETITLE: TS BOND ANGLE DIHED IMPRP ELECT VDW BOUNDARY MISC KINETIC TOTAL TEMP POTENTIAL TOTAL3 TEMPAVG PRESSURE GPRESSURE VOLUME PRESSAVG GPRESSAVG
ENERGY: 0 5.4274 5.2595 2.9610 0.1867 -22283.2518 2366.3727 0.0000 0.0000 3772.0062 -16131.0381 296.3097 -19903.0444 -16123.8738 296.3097 -3.2597 -3.2597 438690.5948 -3.2597 -3.2597
ENERGY: 1000 8.9570 5.3740 5.0722 0.5390 -22434.8121 2452.1403 0.0000 0.0000 3797.0583 -16165.6714 298.2777 -19962.7296 -16159.0115 293.4858 83.5352 83.7240 433398.4073 2.7872 2.7966
ENERGY: 2000 5.6511 5.0717 5.2559 0.3457 -22308.8470 2349.1240 0.0000 0.0000 3682.8480 -16260.5506 289.3059 -19943.3986 -16254.1837 290.6290 -31.2826 -31.9383 443748.7698 1.0336 1.1046
ENERGY: 3000 5.1184 3.2881 6.6789 0.6402 -22320.6698 2362.8704 0.0000 0.0000 3802.3999 -16139.6738 298.6973 -19942.0737 -16133.3575 294.8442 1.4062 1.8933 438434.1415 2.3017 2.2970
ENERGY: 4000 6.6966 4.3950 5.1248 0.4027 -22045.6002 2249.9780 0.0000 0.0000 3747.3207 -16031.6824 294.3705 -19779.0031 -16023.3124 297.3320 -51.8218 -51.4437 449780.1746 -0.1700 -0.1765
ENERGY: 5000 7.1180 5.9937 6.7127 0.6221 -22018.9110 2260.8137 0.0000 0.0000 3826.5429 -15911.1079 300.5938 -19737.6508 -15903.1080 301.0463 -22.4641 -22.5892 443611.2396 2.4312 2.4596
TCL: Running FEP window  14: Lambda1 0.1875 Lambda2 0.125  [dLambda -0.0625]
TCL: Setting parameter firsttimestep to 0
TCL: Setting parameter alchLambda to 0.1875
Info: NONBONDED TABLE R-SQUARED SPACING: 0.0625
Info: NONBONDED TABLE SIZE: 769 POINTS
TCL: Setting parameter alchLambda2 to 0.125
Info: NONBONDED TABLE R-SQUARED SPACING: 0.0625
Info: NONBONDED TABLE SIZE: 769 POINTS
TCL: Running for 5000 steps
ETITLE: TS BOND ANGLE DIHED IMPRP ELECT VDW BOUNDARY MISC KINETIC TOTAL TEMP POTENTIAL TOTAL3 TEMPAVG PRESSURE GPRESSURE VOLUME PRESSAVG GPRESSAVG
ENERGY: 0 7.1180 5.9937 6.7127 0.6221 -22018.9110 2261.1065 0.0000 0.0000 3826.4298 -15910.9282 300.5849 -19737.3580 -15903.8831 300.5849 -22.8995 -22.8995 443611.2396 -22.8995 -22.8995
ENERGY: 1000 4.4836 4.3055 4.9765 0.3035 -22285.2496 2416.6475 0.0000 0.0000 3748.7187 -16105.8144 294.4803 -19854.5331 -16098.8428 297.1163 39.0631 39.2364 432542.7580 1.6837 1.6821
ENERGY: 2000 7.2085 5.4317 4.7081 0.2995 -22403.2295 2509.4504 0.0000 0.0000 3767.1511 -16108.9803 295.9283 -19876.1313 -16103.6952 295.5236 129.8507 127.3460 431440.9905 1.4751 1.4727
ENERGY: 3000 5.6889 4.1600 2.9031 0.2018 -22279.0456 2364.7540 0.0000 0.0000 3773.7288 -16127.6090 296.4450 -19901.3378 -16119.1415 295.4317 8.6235 7.6714 434116.4199 1.5148 1.5076
ENERGY: 4000 7.3256 5.6748 2.0891 0.1562 -22269.4660 2383.5782 0.0000 0.0000 3778.2009 -16092.4412 296.7963 -19870.6420 -16085.0614 296.1475 21.8870 21.0401 437357.0881 0.9311 0.9444
ENERGY: 5000 6.9892 3.2157 4.1781 0.1731 -22265.9253 2409.9588 0.0000 0.0000 3765.7105 -16075.7000 295.8151 -19841.4104 -16067.7950 296.5720 57.5994 59.1445 426008.4969 1.6835 1.6803
TCL: Running FEP window  15: Lambda1 0.125  Lambda2 0.0625 [dLambda -0.0625]
TCL: Setting parameter firsttimestep to 0
TCL: Setting parameter alchLambda to 0.125
Info: NONBONDED TABLE R-SQUARED SPACING: 0.0625
Info: NONBONDED TABLE SIZE: 769 POINTS
TCL: Setting parameter alchLambda2 to 0.0625
Info: NONBONDED TABLE R-SQUARED SPACING: 0.0625
Info: NONBONDED TABLE SIZE: 769 POINTS
TCL: Running for 5000 steps
ETITLE: TS BOND ANGLE DIHED IMPRP ELECT VDW BOUNDARY MISC KINETIC TOTAL TEMP POTENTIAL TOTAL3 TEMPAVG PRESSURE GPRESSURE VOLUME PRESSAVG GPRESSAVG
ENERGY: 0 6.9892 3.2157 4.1781 0.1731 -22265.9253 2410.6004 0.0000 0.0000 3765.5958 -16075.1730 295.8061 -19840.7688 -16067.3998 295.8061 58.9237 58.9237 426008.4969 58.9237 58.9237
ENERGY: 1000 3.5171 3.8849 5.0605 0.3667 -21980.1522 2226.8115 0.0000 0.0000 3747.5504 -15992.9611 294.3886 -19740.5116 -15986.0200 298.4492 -39.2038 -38.0180 432957.6677 0.0215 0.0335
ENERGY: 2000 5.7754 7.0438 3.5918 0.3409 -22209.4866 2454.1137 0.0000 0.0000 3753.6400 -15984.9810 294.8669 -19738.6210 -15976.5978 297.8019 111.6590 112.0434 422695.5938 1.6767 1.7157
ENERGY: 3000 4.4230 7.0268 2.5654 0.2325 -22074.5703 2360.2053 0.0000 0.0000 3718.5569 -15981.5603 292.1110 -19700.1173 -15975.0442 299.8446 27.6224 28.0800 429058.1124 1.0103 1.0143
ENERGY: 4000 5.8875 4.6172 6.2854 0.3634 -22089.0580 2285.5466 0.0000 0.0000 3860.6048 -15925.7530 303.2695 -19786.3578 -15917.7924 300.0349 -13.0155 -14.0480 432135.6314 -0.2392 -0.2835
ENERGY: 5000 9.2358 2.8269 8.1074 0.4386 -22188.0652 2397.2486 0.0000 0.0000 3814.7221 -15955.4857 299.6652 -19770.2079 -15948.0259 298.6603 68.1497 67.5014 437368.8021 4.4532 4.4226
TCL: Running FEP window  16: Lambda1 0.0625 Lambda2 0.0    [dLambda -0.0625]
TCL: Setting parameter firsttimestep to 0
TCL: Setting parameter alchLambda to 0.0625
Info: NONBONDED TABLE R-SQUARED SPACING: 0.0625
Info: NONBONDED TABLE SIZE: 769 POINTS
TCL: Setting parameter alchLambda2 to 0.0
Info: NONBONDED TABLE R-SQUARED SPACING: 0.0625
Info: NONBONDED TABLE SIZE: 769 POINTS
TCL: Running for 5000 steps
ETITLE: TS BOND ANGLE DIHED IMPRP ELECT VDW BOUNDARY MISC KINETIC TOTAL TEMP POTENTIAL TOTAL3 TEMPAVG PRESSURE GPRESSURE VOLUME PRESSAVG GPRESSAVG
ENERGY: 0 9.2358 2.8269 8.1074 0.4386 -22188.0652 2396.4918 0.0000 0.0000 3814.6108 -15956.3539 299.6565 -19770.9647 -15949.2341 299.6565 67.0245 67.0245 437368.8021 67.0245 67.0245
ENERGY: 1000 3.2455 5.1307 4.0847 0.4198 -22255.3309 2377.2546 0.0000 0.0000 3846.3131 -16018.8826 302.1469 -19865.1957 -16012.3138 298.3974 17.1616 17.8237 418326.9748 2.0783 2.1018
ENERGY: 2000 6.4889 5.8004 5.7223 0.2530 -22154.0534 2283.7527 0.0000 0.0000 3851.1202 -16000.9159 302.5245 -19852.0362 -15992.2738 298.2287 -39.1483 -40.2737 429547.7390 3.5431 3.4944
ENERGY: 3000 4.4336 5.5072 3.7379 0.4624 -22107.9569 2311.4208 0.0000 0.0000 3794.4897 -15987.9053 298.0759 -19782.3949 -15981.6370 298.1530 -33.0226 -32.5908 423374.5831 -1.5785 -1.6119
ENERGY: 4000 5.6889 3.9959 7.0119 0.3938 -22149.6191 2381.3370 0.0000 0.0000 3790.8801 -15960.3115 297.7923 -19751.1916 -15954.2873 300.2302 57.9787 58.9713 407926.1086 2.6612 2.6231
ENERGY: 5000 4.4627 4.8581 15.6777 1.3816 -22274.0164 2426.7234 0.0000 0.0000 3912.6342 -15908.2786 307.3567 -19820.9128 -15901.0478 301.3599 66.8345 66.1421 415393.7841 3.8562 3.8810
