Info: SIMULATION PARAMETERS:
Info: TIMESTEP               2
Info: NUMBER OF STEPS        0
Info: STEPS PER CYCLE        10
Info: PERIODIC CELL BASIS 1  31.667 0 0
Info: PERIODIC CELL BASIS 2  0 29.9916 0
Info: PERIODIC CELL BASIS 3  0 0 31.536
Info: PERIODIC CELL CENTER   0 0 0
Info: WRAPPING WATERS AROUND PERIODIC BOUNDARIES ON OUTPUT.
Info: WRAPPING ALL CLUSTERS AROUND PERIODIC BOUNDARIES ON OUTPUT.
Info: FIRST LDB TIMESTEP     50
Info: LAST LDB TIMESTEP     -1
Info: HOM BACKGROUND SCALING 1
Info: PME BACKGROUND SCALING 1
Info: MIN ATOMS PER PATCH    40
Info: EMPTY PATCH LOAD       40 ATOMS
Info: VELOCITY FILE          mobley_2689721_equil.vel
Info: CENTER OF MASS MOVING INITIALLY? NO
Info: DIELECTRIC             1
Info: EXCLUDE                SCALED ONE-FOUR
Info: 1-4 ELECTROSTATICS SCALED BY 0.833333
Info: MODIFIED 1-4 VDW PARAMETERS WILL BE USED
Info: DCD FILENAME           mobley_2689721_prod.dcd
Info: DCD FREQUENCY          100000
Info: DCD FIRST STEP         100000
Info: DCD FILE WILL CONTAIN UNIT CELL DATA
Info: XST FILENAME           mobley_2689721_prod.xst
Info: XST FREQUENCY          100000
Info: NO VELOCITY DCD OUTPUT
Info: NO FORCE DCD OUTPUT
Info: OUTPUT FILENAME        mobley_2689721_prod
Info: BINARY OUTPUT FILES WILL BE USED
Info: RESTART FILENAME       mobley_2689721_prod.restart
Info: RESTART FREQUENCY      100000
Info: BINARY RESTART FILES WILL BE USED
Info: CUTOFF                 9
Info: PAIRLIST DISTANCE      11
Info: PAIRLIST SHRINK RATE   0.01
Info: PAIRLIST GROW RATE     0.01
Info: PAIRLIST TRIGGER       0.3
Info: PAIRLISTS PER CYCLE    2
Info: PAIRLISTS ENABLED
Info: MARGIN                 2
Info: HYDROGEN GROUP CUTOFF  2.5
Info: PATCH DIMENSION        15.5
Info: ENERGY OUTPUT STEPS    100000
Info: ENERGY EVALUATION STEPS    100000
Info: OUTPUT ENERGY PRECISION 4
Info: CROSSTERM ENERGY INCLUDED IN DIHEDRAL
Info: TIMING OUTPUT STEPS    1000000
Info: PRESSURE OUTPUT STEPS  100000
Info: ALCHEMICAL FEP ON
Info: FEP CURRENT LAMBDA VALUE     1
Info: FEP COMPARISON LAMBDA VALUE  0.95
Info: FEP INTRA-ALCHEMICAL NON-BONDED INTERACTIONS WILL BE RETAINED
Info: FEP INTRA-ALCHEMICAL BONDED INTERACTIONS WILL BE RETAINED
Info: FEP VDW SHIFTING COEFFICIENT 5
Info: FEP ELEC. ACTIVE FOR ANNIHILATED PARTICLES BETWEEN LAMBDA = 0 AND LAMBDA = 0.5
Info: FEP ELEC. ACTIVE FOR EXNIHILATED PARTICLES BETWEEN LAMBDA = 0.5 AND LAMBDA = 1
Info: FEP VDW ACTIVE FOR ANNIHILATED PARTICLES BETWEEN LAMBDA = 0 AND LAMBDA = 1
Info: FEP VDW ACTIVE FOR EXNIHILATED PARTICLES BETWEEN LAMBDA = 0 AND LAMBDA = 1
Info: FEP BOND ACTIVE FOR ANNIHILATED PARTICLES BETWEEN LAMBDA = 1 AND LAMBDA = 1
Info: FEP BOND ACTIVE FOR EXNIHILATED PARTICLES BETWEEN LAMBDA = 0 AND LAMBDA = 0
Info: LANGEVIN DYNAMICS ACTIVE
Info: LANGEVIN TEMPERATURE   300
Info: LANGEVIN USING BBK INTEGRATOR
Info: LANGEVIN DAMPING COEFFICIENT IS 1 INVERSE PS
Info: LANGEVIN DYNAMICS APPLIED TO HYDROGENS
Info: LANGEVIN PISTON PRESSURE CONTROL ACTIVE
Info:        TARGET PRESSURE IS 1.01325 BAR
Info:     OSCILLATION PERIOD IS 50 FS
Info:             DECAY TIME IS 25 FS
Info:     PISTON TEMPERATURE IS 300 K
Info:       PRESSURE CONTROL IS GROUP-BASED
Info:    INITIAL STRAIN RATE IS -1.22395e-05 -1.22395e-05 -1.22395e-05
Info:       CELL FLUCTUATION IS ISOTROPIC
Info: PARTICLE MESH EWALD (PME) ACTIVE
Info: PME TOLERANCE               1e-06
Info: PME EWALD COEFFICIENT       0.348832
Info: PME INTERPOLATION ORDER     4
Info: PME GRID DIMENSIONS         32 32 32
Info: PME MAXIMUM GRID SPACING    1
Info: PME CALCULATION WILL BE PERFORMED ON GPU
Info: FULL ELECTROSTATIC EVALUATION FREQUENCY      2
Info: USING VERLET I (r-RESPA) MTS SCHEME.
Info: C1 SPLITTING OF LONG RANGE ELECTROSTATICS
Info: PLACING ATOMS IN PATCHES BY HYDROGEN GROUPS
Info: RIGID BONDS TO HYDROGEN : ALL
Info:         ERROR TOLERANCE : 1e-08
Info:          MAX ITERATIONS : 100
Info: RIGID WATER USING SETTLE ALGORITHM
Info: RANDOM NUMBER SEED     1742431199
Info: USE HYDROGEN BONDS?    NO
Info: Using AMBER format force field!
Info: AMBER PARM FILE        mobley_2689721.prmtop
Info: COORDINATE PDB         mobley_2689721.pdb
Info: Exclusions will be read from PARM file!
Info: SCNB (VDW SCALING)     2
Info: USING ARITHMETIC MEAN TO COMBINE L-J SIGMA PARAMETERS
Info: BINARY COORDINATES     mobley_2689721_equil.coor
Info: SUMMARY OF PARAMETERS:
Info: 4 BONDS
Info: 3 ANGLES
Info:   3 HARMONIC
Info:   0 COSINE-BASED
Info: 3 DIHEDRAL
Info: 0 IMPROPER
Info: 0 CROSSTERM
Info: 0 VDW
Info: 10 VDW_PAIRS
Info: 0 NBTHOLE_PAIRS
Info: To read alchdata from file: mobley_2689721.pdb
Info: To read alchflag data from column: 5
Info: STRUCTURE SUMMARY:
Info: 2904 ATOMS
Info: 2904 BONDS
Info: 36 ANGLES
Info: 54 DIHEDRALS
Info: 0 IMPROPERS
Info: 0 CROSSTERMS
Info: 2991 EXCLUSIONS
Info: 2898 RIGID BONDS
Info: ALCH: 0 ATOMS TO DISAPPEAR IN FINAL STATE
Info: ALCH: 18 ATOMS TO APPEAR IN FINAL STATE
Info: 5814 DEGREES OF FREEDOM
Info: 968 HYDROGEN GROUPS
Info: 3 ATOMS IN LARGEST HYDROGEN GROUP
Info: 968 MIGRATION GROUPS
Info: 3 ATOMS IN LARGEST MIGRATION GROUP
Info: TOTAL MASS = 17415.5 amu
Info: TOTAL CHARGE = 0.000499971 e
Info: MASS DENSITY = 0.965569 g/cm^3
Info: ATOM DENSITY = 0.096958 atoms/A^3
Info: ADDED 0 IMPLICIT EXCLUSIONS
Info: NONBONDED TABLE R-SQUARED SPACING: 0.0625
Info: NONBONDED TABLE SIZE: 705 POINTS
Info: REMOVING COM VELOCITY -0.101256 -0.0944768 0.0404401
Info: Use 3D box decompostion in PME FFT.
Info: Updated CUDA force table with 4096 elements.
Info: Updated CUDA LJ table with 4 x 4 elements.
Info: Found 21 unique exclusion lists needing 56 bytes
TCL: Running for 1500000 steps
ETITLE: TS BOND ANGLE DIHED IMPRP ELECT VDW BOUNDARY MISC KINETIC TOTAL TEMP POTENTIAL TOTALAVG TEMPAVG PRESSURE GPRESSURE VOLUME PRESSAVG GPRESSAVG
ENERGY: 0 0.7980 11.4976 0.6605 0.0000 -10567.8294 1495.5025 0.0000 0.0000 1770.7567 -7288.6141 306.5309 -9059.3708 -7288.6141 306.5309 774.8887 856.1440 29951.1076 774.8887 856.1440
ENERGY: 300000 2.0638 8.8480 1.3349 0.0000 -10335.7429 1341.8153 0.0000 0.0000 1742.1019 -7239.5790 301.5705 -8981.6809 -7311.2846 306.3801 -338.2057 -344.4184 30382.5128 260.8372 317.3517
ENERGY: 600000 1.6045 8.3168 1.7575 0.0000 -10511.0231 1375.6795 0.0000 0.0000 1725.9500 -7397.7148 298.7745 -9123.6648 -7331.9489 304.9010 -466.2391 -428.5069 30215.6416 120.8891 184.9211
ENERGY: 900000 1.5410 9.9802 1.6112 0.0000 -10506.0328 1442.2596 0.0000 0.0000 1726.1996 -7324.4413 298.8177 -9050.6409 -7332.9424 303.5096 251.5152 324.1146 29996.3773 -19.5525 52.0662
ENERGY: 1200000 3.5724 9.9551 1.4058 0.0000 -10479.9698 1376.2327 0.0000 0.0000 1748.8004 -7340.0034 302.7301 -9088.8038 -7324.5215 303.4889 -325.9079 -330.0003 29937.1454 -22.2282 37.8123
ENERGY: 1500000 2.0198 7.2084 0.8922 0.0000 -10426.8729 1392.7205 0.0000 0.0000 1726.2743 -7297.7577 298.8307 -9024.0319 -7324.7189 303.2715 -95.4403 -78.1561 29956.5165 -8.0767 48.3316
TCL: Running FEP window   2: Lambda1 0.95   Lambda2 0.8999999999999999 [dLambda -0.050000000000000044]
TCL: Setting parameter firsttimestep to 0
TCL: Setting parameter alchLambda to 0.95
Info: NONBONDED TABLE R-SQUARED SPACING: 0.0625
Info: NONBONDED TABLE SIZE: 705 POINTS
TCL: Setting parameter alchLambda2 to 0.8999999999999999
Info: NONBONDED TABLE R-SQUARED SPACING: 0.0625
Info: NONBONDED TABLE SIZE: 705 POINTS
TCL: Running for 1500000 steps
ETITLE: TS BOND ANGLE DIHED IMPRP ELECT VDW BOUNDARY MISC KINETIC TOTAL TEMP POTENTIAL TOTALAVG TEMPAVG PRESSURE GPRESSURE VOLUME PRESSAVG GPRESSAVG
ENERGY: 0 2.0198 7.2084 0.8922 0.0000 -10426.9109 1392.6089 0.0000 0.0000 1725.4143 -7298.7672 298.6818 -9024.1815 -7298.7672 298.6818 -168.4593 -95.0062 29956.5165 -168.4593 -95.0062
ENERGY: 300000 1.3251 8.0368 0.8340 0.0000 -10535.9810 1452.7588 0.0000 0.0000 1776.7527 -7296.2735 307.5689 -9073.0263 -7343.1103 300.3880 386.3787 449.0891 29888.5354 189.2792 250.5592
ENERGY: 600000 1.1168 9.4577 0.9947 0.0000 -10568.5135 1434.6315 0.0000 0.0000 1709.9148 -7412.3981 295.9987 -9122.3128 -7359.5893 300.2937 70.9950 184.1175 29562.3833 244.1808 316.3543
ENERGY: 900000 2.4827 9.3005 1.1605 0.0000 -10561.4806 1437.6739 0.0000 0.0000 1721.0257 -7389.8374 297.9221 -9110.8631 -7373.5119 299.1198 274.6980 362.5577 29491.9816 180.0549 252.9283
ENERGY: 1200000 1.5392 6.1415 1.0524 0.0000 -10421.5346 1367.4620 0.0000 0.0000 1771.1346 -7274.2048 306.5963 -9045.3395 -7360.9877 299.3715 -262.0305 -189.1562 30132.8166 33.3482 98.5251
ENERGY: 1500000 5.9422 5.0126 0.3235 0.0000 -10483.1644 1364.0783 0.0000 0.0000 1695.0893 -7412.7185 293.4323 -9107.8078 -7352.9854 300.1161 -743.1750 -656.7249 29952.0447 39.3599 99.4286
TCL: Running FEP window   3: Lambda1 0.8999999999999999 Lambda2 0.8499999999999999 [dLambda -0.050000000000000044]
TCL: Setting parameter firsttimestep to 0
TCL: Setting parameter alchLambda to 0.8999999999999999
Info: NONBONDED TABLE R-SQUARED SPACING: 0.0625
Info: NONBONDED TABLE SIZE: 705 POINTS
TCL: Setting parameter alchLambda2 to 0.8499999999999999
Info: NONBONDED TABLE R-SQUARED SPACING: 0.0625
Info: NONBONDED TABLE SIZE: 705 POINTS
TCL: Running for 1500000 steps
ETITLE: TS BOND ANGLE DIHED IMPRP ELECT VDW BOUNDARY MISC KINETIC TOTAL TEMP POTENTIAL TOTALAVG TEMPAVG PRESSURE GPRESSURE VOLUME PRESSAVG GPRESSAVG
ENERGY: 0 5.9422 5.0126 0.3235 0.0000 -10483.1549 1364.6848 0.0000 0.0000 1694.2438 -7412.9480 293.2859 -9107.1918 -7412.9480 293.2859 -746.8617 -662.7438 29952.0447 -746.8617 -662.7438
ENERGY: 300000 1.0571 9.4751 0.3404 0.0000 -10467.2999 1457.7391 0.0000 0.0000 1758.7919 -7239.8963 304.4597 -8998.6882 -7327.0906 300.7053 461.8387 584.0968 30245.8919 -16.4921 42.1467
ENERGY: 600000 1.7348 7.1954 1.0533 0.0000 -10597.0274 1463.0104 0.0000 0.0000 1695.9376 -7428.0958 293.5792 -9124.0335 -7352.9060 301.4614 355.4915 396.8266 29718.3809 36.6619 83.6720
ENERGY: 900000 2.0694 7.6291 0.8851 0.0000 -10492.7271 1386.0260 0.0000 0.0000 1759.4111 -7336.7063 304.5669 -9096.1174 -7353.1636 301.5187 -556.7136 -496.7210 30651.2830 -30.2419 18.3990
ENERGY: 1200000 2.3467 5.3029 1.1572 0.0000 -10755.7032 1527.4363 0.0000 0.0000 1739.1498 -7480.3103 301.0595 -9219.4601 -7354.6956 301.4344 804.7760 930.2920 29028.7693 3.0831 63.1367
ENERGY: 1500000 1.3589 8.9731 0.8545 0.0000 -10376.2937 1289.2244 0.0000 0.0000 1753.3041 -7322.5788 303.5097 -9075.8829 -7341.2398 302.4056 -836.1052 -826.9792 29789.6795 -63.3026 -7.9361
TCL: Running FEP window   4: Lambda1 0.8499999999999999 Lambda2 0.7999999999999998 [dLambda -0.050000000000000044]
TCL: Setting parameter firsttimestep to 0
TCL: Setting parameter alchLambda to 0.8499999999999999
Info: NONBONDED TABLE R-SQUARED SPACING: 0.0625
Info: NONBONDED TABLE SIZE: 705 POINTS
TCL: Setting parameter alchLambda2 to 0.7999999999999998
Info: NONBONDED TABLE R-SQUARED SPACING: 0.0625
Info: NONBONDED TABLE SIZE: 705 POINTS
TCL: Running for 1500000 steps
ETITLE: TS BOND ANGLE DIHED IMPRP ELECT VDW BOUNDARY MISC KINETIC TOTAL TEMP POTENTIAL TOTALAVG TEMPAVG PRESSURE GPRESSURE VOLUME PRESSAVG GPRESSAVG
ENERGY: 0 1.3589 8.9731 0.8545 0.0000 -10376.2486 1289.5633 0.0000 0.0000 1752.4437 -7323.0552 303.3608 -9075.4989 -7323.0552 303.3608 -916.4177 -833.8466 29789.6795 -916.4177 -833.8466
ENERGY: 300000 3.5681 7.1432 1.4698 0.0000 -10487.5973 1376.5995 0.0000 0.0000 1782.9147 -7315.9021 308.6355 -9098.8168 -7335.1112 302.8201 -315.3961 -278.6058 30108.1807 -729.2728 -666.5497
ENERGY: 600000 0.4350 6.4630 0.7183 0.0000 -10515.0872 1379.3104 0.0000 0.0000 1751.2696 -7376.8908 303.1575 -9128.1604 -7331.0149 302.7120 -339.5545 -289.4650 30034.7539 -363.3323 -309.8428
ENERGY: 900000 3.2580 8.4645 0.5591 0.0000 -10482.9201 1377.1452 0.0000 0.0000 1684.4840 -7409.0092 291.5965 -9093.4933 -7334.4589 300.9545 -692.0291 -589.2499 30073.4311 -333.6884 -278.3004
ENERGY: 1200000 1.6149 8.1769 1.1533 0.0000 -10448.1790 1316.8957 0.0000 0.0000 1728.8773 -7391.4609 299.2813 -9120.3382 -7323.4256 302.0929 -997.1634 -998.5695 30651.3622 -398.6079 -350.3607
ENERGY: 1500000 0.2920 8.0505 1.3219 0.0000 -10482.7740 1425.7553 0.0000 0.0000 1723.8230 -7323.5312 298.4063 -9047.3543 -7325.0496 301.2949 295.3317 303.8465 29942.4836 -272.0086 -225.4558
TCL: Running FEP window   5: Lambda1 0.7999999999999998 Lambda2 0.7499999999999998 [dLambda -0.050000000000000044]
TCL: Setting parameter firsttimestep to 0
TCL: Setting parameter alchLambda to 0.7999999999999998
Info: NONBONDED TABLE R-SQUARED SPACING: 0.0625
Info: NONBONDED TABLE SIZE: 705 POINTS
TCL: Setting parameter alchLambda2 to 0.7499999999999998
Info: NONBONDED TABLE R-SQUARED SPACING: 0.0625
Info: NONBONDED TABLE SIZE: 705 POINTS
TCL: Running for 1500000 steps
ETITLE: TS BOND ANGLE DIHED IMPRP ELECT VDW BOUNDARY MISC KINETIC TOTAL TEMP POTENTIAL TOTALAVG TEMPAVG PRESSURE GPRESSURE VOLUME PRESSAVG GPRESSAVG
ENERGY: 0 0.2920 8.0505 1.3219 0.0000 -10482.7622 1426.4749 0.0000 0.0000 1722.9985 -7323.6243 298.2636 -9046.6228 -7323.6243 298.2636 214.6021 301.6831 29942.4836 214.6021 301.6831
ENERGY: 300000 0.6671 7.8871 1.1477 0.0000 -10534.9724 1372.8675 0.0000 0.0000 1764.7462 -7387.6568 305.4904 -9152.4030 -7338.5878 304.3004 -175.3611 -103.5901 29339.1589 113.7151 177.6666
ENERGY: 600000 1.7643 8.1922 1.4625 0.0000 -10550.1259 1426.4745 0.0000 0.0000 1742.8731 -7369.3592 301.7040 -9112.2323 -7326.9806 302.8202 206.3550 246.3866 29738.1426 231.2623 289.9652
ENERGY: 900000 1.6154 4.0157 1.5598 0.0000 -10540.8139 1465.1424 0.0000 0.0000 1733.3686 -7335.1121 300.0587 -9068.4806 -7322.8831 303.2911 418.6057 465.2670 30011.2594 123.0327 174.2604
ENERGY: 1200000 1.1554 10.6112 0.8409 0.0000 -10366.6449 1379.8193 0.0000 0.0000 1735.5071 -7238.7112 300.4289 -8974.2183 -7319.8935 302.3621 -72.5952 -1.4499 30094.3033 157.3295 211.4520
ENERGY: 1500000 4.3856 10.0681 1.1053 0.0000 -10608.0234 1530.6864 0.0000 0.0000 1755.4918 -7306.2862 303.8884 -9061.7780 -7320.4881 302.1338 775.8672 872.3796 30111.3300 160.2145 213.9457
TCL: Running FEP window   6: Lambda1 0.7499999999999998 Lambda2 0.6999999999999997 [dLambda -0.050000000000000044]
TCL: Setting parameter firsttimestep to 0
TCL: Setting parameter alchLambda to 0.7499999999999998
Info: NONBONDED TABLE R-SQUARED SPACING: 0.0625
Info: NONBONDED TABLE SIZE: 705 POINTS
TCL: Setting parameter alchLambda2 to 0.6999999999999997
Info: NONBONDED TABLE R-SQUARED SPACING: 0.0625
Info: NONBONDED TABLE SIZE: 705 POINTS
TCL: Running for 1500000 steps
ETITLE: TS BOND ANGLE DIHED IMPRP ELECT VDW BOUNDARY MISC KINETIC TOTAL TEMP POTENTIAL TOTALAVG TEMPAVG PRESSURE GPRESSURE VOLUME PRESSAVG GPRESSAVG
ENERGY: 0 4.3856 10.0681 1.1053 0.0000 -10608.0381 1530.8104 0.0000 0.0000 1754.6405 -7307.0282 303.7411 -9061.6687 -7307.0282 303.7411 786.7430 862.1560 30111.3300 786.7430 862.1560
ENERGY: 300000 3.1217 6.7358 1.1055 0.0000 -10426.1571 1327.4030 0.0000 0.0000 1705.9779 -7381.8133 295.3172 -9087.7911 -7342.9458 299.4438 -895.6107 -765.7730 30093.0009 30.3386 113.9932
ENERGY: 600000 1.7311 9.0280 3.5054 0.0000 -10560.4043 1411.2204 0.0000 0.0000 1684.2816 -7450.6377 291.5614 -9134.9193 -7355.9225 298.6985 -434.5958 -322.0492 30180.0346 -32.1650 48.8453
ENERGY: 900000 2.5076 6.0884 1.1168 0.0000 -10580.9574 1413.7572 0.0000 0.0000 1739.7702 -7417.7172 301.1669 -9157.4874 -7357.9606 299.2606 63.5135 62.7212 29594.3425 -26.0472 40.7018
ENERGY: 1200000 2.8526 5.6705 2.1189 0.0000 -10524.3860 1369.6220 0.0000 0.0000 1745.1576 -7398.9643 302.0995 -9144.1219 -7352.4858 300.2044 -536.7086 -506.6770 29836.3194 -53.5731 8.2102
ENERGY: 1500000 1.6969 6.7443 1.9351 0.0000 -10615.5654 1441.4928 0.0000 0.0000 1706.0480 -7457.6483 295.3293 -9163.6963 -7359.4329 299.6399 4.6832 61.1927 29837.8569 -139.9432 -78.8723
TCL: Running FEP window   7: Lambda1 0.6999999999999997 Lambda2 0.6499999999999997 [dLambda -0.050000000000000044]
TCL: Setting parameter firsttimestep to 0
TCL: Setting parameter alchLambda to 0.6999999999999997
Info: NONBONDED TABLE R-SQUARED SPACING: 0.0625
Info: NONBONDED TABLE SIZE: 705 POINTS
TCL: Setting parameter alchLambda2 to 0.6499999999999997
Info: NONBONDED TABLE R-SQUARED SPACING: 0.0625
Info: NONBONDED TABLE SIZE: 705 POINTS
TCL: Running for 1500000 steps
ETITLE: TS BOND ANGLE DIHED IMPRP ELECT VDW BOUNDARY MISC KINETIC TOTAL TEMP POTENTIAL TOTALAVG TEMPAVG PRESSURE GPRESSURE VOLUME PRESSAVG GPRESSAVG
ENERGY: 0 1.6969 6.7443 1.9351 0.0000 -10615.6252 1442.0036 0.0000 0.0000 1705.1451 -7458.1003 295.1730 -9163.2453 -7458.1003 295.1730 -22.6938 57.7348 29837.8569 -22.6938 57.7348
ENERGY: 300000 1.8834 6.1391 2.3496 0.0000 -10539.4015 1480.5318 0.0000 0.0000 1757.8375 -7290.6600 304.2945 -9048.4975 -7386.7820 299.3885 376.4305 446.4677 30432.4462 -12.4716 62.2687
ENERGY: 600000 1.7613 12.8481 0.9605 0.0000 -10443.4019 1424.9580 0.0000 0.0000 1728.9708 -7273.9033 299.2974 -9002.8741 -7353.9103 301.5435 29.5111 112.8271 30075.8206 116.6327 197.0192
ENERGY: 900000 2.4863 6.5345 1.6031 0.0000 -10472.5444 1353.8843 0.0000 0.0000 1730.4699 -7377.5661 299.5570 -9108.0361 -7356.1259 301.1635 -317.8654 -271.8627 29450.4492 64.0646 142.1603
ENERGY: 1200000 1.3398 8.6952 0.5238 0.0000 -10499.1727 1442.8680 0.0000 0.0000 1705.6844 -7340.0614 295.2664 -9045.7458 -7362.6524 300.6693 93.9639 226.9741 30138.7954 -56.1034 32.3693
ENERGY: 1500000 1.0460 4.4126 0.5459 0.0000 -10535.7655 1426.9367 0.0000 0.0000 1715.0313 -7387.7932 296.8844 -9102.8245 -7356.7070 300.5002 -75.1472 -27.6292 29883.2046 -64.0862 20.8691
TCL: Running FEP window   8: Lambda1 0.6499999999999997 Lambda2 0.5999999999999996 [dLambda -0.050000000000000044]
TCL: Setting parameter firsttimestep to 0
TCL: Setting parameter alchLambda to 0.6499999999999997
Info: NONBONDED TABLE R-SQUARED SPACING: 0.0625
Info: NONBONDED TABLE SIZE: 705 POINTS
TCL: Setting parameter alchLambda2 to 0.5999999999999996
Info: NONBONDED TABLE R-SQUARED SPACING: 0.0625
Info: NONBONDED TABLE SIZE: 705 POINTS
TCL: Running for 1500000 steps
ETITLE: TS BOND ANGLE DIHED IMPRP ELECT VDW BOUNDARY MISC KINETIC TOTAL TEMP POTENTIAL TOTALAVG TEMPAVG PRESSURE GPRESSURE VOLUME PRESSAVG GPRESSAVG
ENERGY: 0 1.0460 4.4125 0.5459 0.0000 -10535.7705 1427.5464 0.0000 0.0000 1714.1850 -7388.0347 296.7379 -9102.2197 -7388.0347 296.7379 -96.2681 -24.1836 29883.2046 -96.2681 -24.1836
ENERGY: 300000 1.9945 7.5652 0.6866 0.0000 -10503.2596 1366.0982 0.0000 0.0000 1736.9972 -7389.9179 300.6869 -9126.9152 -7388.5433 297.5571 -747.2221 -703.1796 30144.6099 -181.3888 -148.7759
ENERGY: 600000 3.1946 5.7938 0.9679 0.0000 -10479.8652 1357.6203 0.0000 0.0000 1721.8526 -7390.4360 298.0652 -9112.2886 -7366.0837 297.6299 -747.5102 -665.9986 30195.3770 -193.1022 -134.9851
ENERGY: 900000 0.8083 11.4232 1.1858 0.0000 -10574.7033 1443.8981 0.0000 0.0000 1751.5221 -7365.8658 303.2012 -9117.3879 -7355.6962 299.5644 366.0741 425.0939 29640.7870 -83.3769 -35.7946
ENERGY: 1200000 1.9229 10.3447 0.6239 0.0000 -10558.6788 1402.7516 0.0000 0.0000 1675.8109 -7467.2249 290.0951 -9143.0358 -7363.0656 298.3461 -88.8624 -49.4388 29435.3222 -79.8722 -35.6446
ENERGY: 1500000 3.9636 10.8530 2.1880 0.0000 -10501.2311 1395.6891 0.0000 0.0000 1754.6822 -7333.8553 303.7483 -9088.5375 -7350.3862 299.9476 -121.4940 -45.6440 29548.1593 -27.9143 21.1874
TCL: Running FEP window   9: Lambda1 0.5999999999999996 Lambda2 0.5499999999999996 [dLambda -0.050000000000000044]
TCL: Setting parameter firsttimestep to 0
TCL: Setting parameter alchLambda to 0.5999999999999996
Info: NONBONDED TABLE R-SQUARED SPACING: 0.0625
Info: NONBONDED TABLE SIZE: 705 POINTS
TCL: Setting parameter alchLambda2 to 0.5499999999999996
Info: NONBONDED TABLE R-SQUARED SPACING: 0.0625
Info: NONBONDED TABLE SIZE: 705 POINTS
TCL: Running for 1500000 steps
ETITLE: TS BOND ANGLE DIHED IMPRP ELECT VDW BOUNDARY MISC KINETIC TOTAL TEMP POTENTIAL TOTALAVG TEMPAVG PRESSURE GPRESSURE VOLUME PRESSAVG GPRESSAVG
ENERGY: 0 3.9636 10.8530 2.1880 0.0000 -10501.2127 1396.1254 0.0000 0.0000 1753.7975 -7334.2853 303.5951 -9088.0828 -7334.2853 303.5951 -136.3211 -49.7596 29548.1593 -136.3211 -49.7596
ENERGY: 300000 2.5753 10.2553 0.5006 0.0000 -10533.1388 1430.7883 0.0000 0.0000 1733.9838 -7355.0355 300.1652 -9089.0193 -7360.7877 301.5697 -120.5797 -91.4392 30127.9762 -154.4093 -120.2948
ENERGY: 600000 2.3645 6.1677 3.2225 0.0000 -10456.5313 1402.7616 0.0000 0.0000 1724.8880 -7317.1270 298.5907 -9042.0150 -7339.4215 302.0238 -110.5069 -52.9318 30090.9948 -338.4521 -304.9960
ENERGY: 900000 0.9775 6.5567 0.3524 0.0000 -10487.0691 1382.2207 0.0000 0.0000 1747.9086 -7349.0532 302.5757 -9096.9618 -7345.7275 302.2286 -296.2360 -238.2321 29754.1008 -328.9405 -296.2467
ENERGY: 1200000 1.5320 10.1474 0.5861 0.0000 -10525.2977 1386.7514 0.0000 0.0000 1712.6438 -7413.6370 296.4711 -9126.2808 -7354.9961 301.0617 -515.3260 -444.3482 30111.9098 -278.7855 -239.1020
ENERGY: 1500000 2.0028 9.9918 1.2348 0.0000 -10492.9907 1415.7771 0.0000 0.0000 1679.3293 -7384.6548 290.7041 -9063.9842 -7351.0466 301.1037 8.2895 48.9489 29533.0928 -210.2247 -162.0271
TCL: Running FEP window  10: Lambda1 0.5499999999999996 Lambda2 0.4999999999999996 [dLambda -0.04999999999999999]
TCL: Setting parameter firsttimestep to 0
TCL: Setting parameter alchLambda to 0.5499999999999996
Info: NONBONDED TABLE R-SQUARED SPACING: 0.0625
Info: NONBONDED TABLE SIZE: 705 POINTS
TCL: Setting parameter alchLambda2 to 0.4999999999999996
Info: NONBONDED TABLE R-SQUARED SPACING: 0.0625
Info: NONBONDED TABLE SIZE: 705 POINTS
TCL: Running for 1500000 steps
ETITLE: TS BOND ANGLE DIHED IMPRP ELECT VDW BOUNDARY MISC KINETIC TOTAL TEMP POTENTIAL TOTALAVG TEMPAVG PRESSURE GPRESSURE VOLUME PRESSAVG GPRESSAVG
ENERGY: 0 2.0028 9.9918 1.2348 0.0000 -10492.9592 1416.1787 0.0000 0.0000 1678.4658 -7385.0853 290.5547 -9063.5511 -7385.0853 290.5547 -43.4857 43.5654 29533.0928 -43.4857 43.5654
ENERGY: 300000 1.1754 9.6620 0.8935 0.0000 -10597.1614 1470.5357 0.0000 0.0000 1720.9368 -7393.9579 297.9067 -9114.8947 -7369.1678 296.8850 414.4081 480.7872 29518.4076 326.8460 385.9049
ENERGY: 600000 1.0407 7.8651 1.1610 0.0000 -10538.0867 1484.9903 0.0000 0.0000 1788.2519 -7254.7776 309.5594 -9043.0295 -7356.9910 298.4545 675.6911 731.7869 29843.5951 500.6555 552.1895
ENERGY: 900000 1.7436 8.4639 0.7787 0.0000 -10612.3562 1473.1982 0.0000 0.0000 1767.2234 -7360.9483 305.9193 -9128.1718 -7363.9186 300.0885 251.7723 342.0029 29685.3132 342.6106 399.8545
ENERGY: 1200000 1.4103 13.1203 0.6015 0.0000 -10382.7084 1354.9731 0.0000 0.0000 1800.7316 -7211.8717 311.7198 -9012.6032 -7358.1622 299.6252 -479.8258 -432.2672 30408.7132 211.3815 265.9995
ENERGY: 1500000 0.2275 9.6582 0.9241 0.0000 -10547.8101 1420.2764 0.0000 0.0000 1710.2823 -7406.4416 296.0623 -9116.7239 -7352.1493 300.0611 154.0300 203.3767 29550.4536 191.0071 237.6312
TCL: Running FEP window  11: Lambda1 0.4999999999999996 Lambda2 0.4499999999999996 [dLambda -0.04999999999999999]
TCL: Setting parameter firsttimestep to 0
TCL: Setting parameter alchLambda to 0.4999999999999996
Info: NONBONDED TABLE R-SQUARED SPACING: 0.0625
Info: NONBONDED TABLE SIZE: 705 POINTS
TCL: Setting parameter alchLambda2 to 0.4499999999999996
Info: NONBONDED TABLE R-SQUARED SPACING: 0.0625
Info: NONBONDED TABLE SIZE: 705 POINTS
TCL: Running for 1500000 steps
ETITLE: TS BOND ANGLE DIHED IMPRP ELECT VDW BOUNDARY MISC KINETIC TOTAL TEMP POTENTIAL TOTALAVG TEMPAVG PRESSURE GPRESSURE VOLUME PRESSAVG GPRESSAVG
ENERGY: 0 0.2275 9.6582 0.9241 0.0000 -10547.7582 1420.1112 0.0000 0.0000 1709.4029 -7407.4344 295.9101 -9116.8373 -7407.4344 295.9101 111.2601 193.1771 29550.4536 111.2601 193.1771
ENERGY: 300000 2.9309 8.8336 0.6433 0.0000 -10511.3829 1427.3624 0.0000 0.0000 1716.1063 -7355.5063 297.0705 -9071.6127 -7353.8060 300.3014 162.3912 187.9375 29571.9517 -188.0338 -118.4350
ENERGY: 600000 1.4680 9.4132 1.1433 0.0000 -10545.8897 1392.5350 0.0000 0.0000 1756.0618 -7385.2684 303.9871 -9141.3302 -7359.5131 299.3799 -140.6916 -104.0214 29776.1886 -204.9233 -139.7928
ENERGY: 900000 2.4239 6.8509 1.0005 0.0000 -10365.9770 1270.9268 0.0000 0.0000 1780.8501 -7303.9247 308.2781 -9084.7748 -7356.2422 300.1181 -1206.9804 -1100.9109 30007.6052 -220.2214 -145.3423
ENERGY: 1200000 0.9618 10.9713 0.4747 0.0000 -10466.9859 1426.3131 0.0000 0.0000 1634.6695 -7393.5954 282.9732 -9028.2650 -7353.7314 299.0678 28.4016 112.1384 30341.9456 -203.8188 -134.4542
ENERGY: 1500000 1.3703 7.5409 2.5803 0.0000 -10613.3553 1504.8800 0.0000 0.0000 1733.9457 -7363.0381 300.1586 -9096.9838 -7354.3839 298.6983 645.8234 752.9591 29902.0944 -100.7147 -29.4144
TCL: Running FEP window  12: Lambda1 0.4499999999999996 Lambda2 0.39999999999999963 [dLambda -0.04999999999999999]
TCL: Setting parameter firsttimestep to 0
TCL: Setting parameter alchLambda to 0.4499999999999996
Info: NONBONDED TABLE R-SQUARED SPACING: 0.0625
Info: NONBONDED TABLE SIZE: 705 POINTS
TCL: Setting parameter alchLambda2 to 0.39999999999999963
Info: NONBONDED TABLE R-SQUARED SPACING: 0.0625
Info: NONBONDED TABLE SIZE: 705 POINTS
TCL: Running for 1500000 steps
ETITLE: TS BOND ANGLE DIHED IMPRP ELECT VDW BOUNDARY MISC KINETIC TOTAL TEMP POTENTIAL TOTALAVG TEMPAVG PRESSURE GPRESSURE VOLUME PRESSAVG GPRESSAVG
ENERGY: 0 1.3703 7.5409 2.5803 0.0000 -10613.3554 1505.0988 0.0000 0.0000 1733.0621 -7363.7031 300.0057 -9096.7652 -7363.7031 300.0057 669.0413 749.9641 29902.0944 669.0413 749.9641
ENERGY: 300000 1.7276 7.4982 1.3588 0.0000 -10504.9417 1374.6045 0.0000 0.0000 1744.5760 -7375.1765 301.9988 -9119.7525 -7362.2126 301.5625 -418.1394 -355.2859 29726.8576 233.5542 300.7530
ENERGY: 600000 1.9169 8.9967 0.6180 0.0000 -10422.0865 1423.0839 0.0000 0.0000 1685.4574 -7302.0136 291.7650 -8987.4710 -7353.6851 299.5408 216.0417 287.7643 29878.5333 6.5851 79.6734
ENERGY: 900000 0.2287 9.3097 1.4475 0.0000 -10495.0420 1441.0234 0.0000 0.0000 1731.4307 -7311.6021 299.7233 -9043.0328 -7347.1618 299.0601 517.0945 521.0329 29804.0074 40.1210 100.0157
ENERGY: 1200000 1.7473 6.5928 0.6743 0.0000 -10499.9704 1381.6311 0.0000 0.0000 1680.3385 -7428.9864 290.8788 -9109.3249 -7346.7003 299.1563 -582.6017 -441.8457 29992.5844 -6.9963 55.9448
ENERGY: 1500000 4.1469 8.0497 0.4289 0.0000 -10538.2974 1425.7029 0.0000 0.0000 1753.1609 -7346.8081 303.4849 -9099.9690 -7348.8857 298.9470 -100.6774 8.9204 29961.6540 -53.3186 11.6994
TCL: Running FEP window  13: Lambda1 0.39999999999999963 Lambda2 0.34999999999999964 [dLambda -0.04999999999999999]
TCL: Setting parameter firsttimestep to 0
TCL: Setting parameter alchLambda to 0.39999999999999963
Info: NONBONDED TABLE R-SQUARED SPACING: 0.0625
Info: NONBONDED TABLE SIZE: 705 POINTS
TCL: Setting parameter alchLambda2 to 0.34999999999999964
Info: NONBONDED TABLE R-SQUARED SPACING: 0.0625
Info: NONBONDED TABLE SIZE: 705 POINTS
TCL: Running for 1500000 steps
ETITLE: TS BOND ANGLE DIHED IMPRP ELECT VDW BOUNDARY MISC KINETIC TOTAL TEMP POTENTIAL TOTALAVG TEMPAVG PRESSURE GPRESSURE VOLUME PRESSAVG GPRESSAVG
ENERGY: 0 4.1468 8.0497 0.4289 0.0000 -10538.2980 1426.2690 0.0000 0.0000 1752.3026 -7347.1008 303.3364 -9099.4035 -7347.1008 303.3364 -64.9859 5.9461 29961.6540 -64.9859 5.9461
ENERGY: 300000 0.1629 6.4489 0.5384 0.0000 -10480.5330 1353.0584 0.0000 0.0000 1742.9920 -7377.3325 301.7246 -9120.3245 -7345.3877 300.7924 -451.0971 -426.1255 29368.7025 82.7949 138.4524
ENERGY: 600000 1.2328 9.2560 0.6891 0.0000 -10512.3539 1350.0426 0.0000 0.0000 1714.8817 -7436.2518 296.8585 -9151.1334 -7366.6743 299.9341 -946.7329 -888.3043 30233.3031 -134.6852 -67.7049
ENERGY: 900000 3.6869 8.7793 1.3345 0.0000 -10471.7239 1388.3694 0.0000 0.0000 1688.5940 -7380.9599 292.3079 -9069.5539 -7355.9355 300.3098 -197.3862 -195.3195 29573.3147 -29.7159 28.4844
ENERGY: 1200000 4.6585 12.7368 1.2340 0.0000 -10616.7181 1448.6544 0.0000 0.0000 1801.4444 -7347.9900 311.8432 -9149.4344 -7344.7798 302.9216 -24.8103 34.8929 29588.2109 -46.9088 4.0843
ENERGY: 1500000 1.3109 7.4683 0.4037 0.0000 -10656.8903 1479.4452 0.0000 0.0000 1769.2314 -7399.0308 306.2668 -9168.2622 -7355.1315 302.2878 299.8241 440.9552 29655.8908 68.1908 117.3454
TCL: Running FEP window  14: Lambda1 0.34999999999999964 Lambda2 0.29999999999999966 [dLambda -0.04999999999999999]
TCL: Setting parameter firsttimestep to 0
TCL: Setting parameter alchLambda to 0.34999999999999964
Info: NONBONDED TABLE R-SQUARED SPACING: 0.0625
Info: NONBONDED TABLE SIZE: 705 POINTS
TCL: Setting parameter alchLambda2 to 0.29999999999999966
Info: NONBONDED TABLE R-SQUARED SPACING: 0.0625
Info: NONBONDED TABLE SIZE: 705 POINTS
TCL: Running for 1500000 steps
ETITLE: TS BOND ANGLE DIHED IMPRP ELECT VDW BOUNDARY MISC KINETIC TOTAL TEMP POTENTIAL TOTALAVG TEMPAVG PRESSURE GPRESSURE VOLUME PRESSAVG GPRESSAVG
ENERGY: 0 1.3109 7.4683 0.4037 0.0000 -10656.8896 1479.7918 0.0000 0.0000 1768.4038 -7399.5111 306.1236 -9167.9148 -7399.5111 306.1236 349.4447 438.9204 29655.8908 349.4447 438.9204
ENERGY: 300000 1.5185 12.0571 1.3659 0.0000 -10490.7981 1360.8840 0.0000 0.0000 1724.6920 -7390.2806 298.5568 -9114.9726 -7343.8515 304.1897 -532.2373 -489.1503 29752.2928 15.0105 93.6604
ENERGY: 600000 1.6266 6.8995 0.6008 0.0000 -10470.6793 1392.1289 0.0000 0.0000 1729.1769 -7340.2465 299.3331 -9069.4234 -7334.9422 302.9399 -185.0780 -149.0244 30042.5450 -212.4209 -147.8943
ENERGY: 900000 1.1473 4.6746 1.6170 0.0000 -10634.8328 1464.4945 0.0000 0.0000 1713.1429 -7449.7565 296.5575 -9162.8994 -7336.4330 302.9890 214.9661 276.3666 29800.5269 -249.5768 -188.3989
ENERGY: 1200000 0.4464 11.4693 1.8938 0.0000 -10521.2180 1458.3285 0.0000 0.0000 1725.0997 -7323.9803 298.6273 -9049.0800 -7335.8900 302.4847 392.3824 494.5204 29930.6838 -148.9972 -82.6454
ENERGY: 1500000 2.9729 8.7069 1.0331 0.0000 -10395.2617 1322.0789 0.0000 0.0000 1756.5118 -7303.9582 304.0650 -9060.4700 -7334.0276 301.9246 -548.3978 -530.2414 29542.6003 -142.2681 -78.7784
TCL: Running FEP window  15: Lambda1 0.29999999999999966 Lambda2 0.24999999999999967 [dLambda -0.04999999999999999]
TCL: Setting parameter firsttimestep to 0
TCL: Setting parameter alchLambda to 0.29999999999999966
Info: NONBONDED TABLE R-SQUARED SPACING: 0.0625
Info: NONBONDED TABLE SIZE: 705 POINTS
TCL: Setting parameter alchLambda2 to 0.24999999999999967
Info: NONBONDED TABLE R-SQUARED SPACING: 0.0625
Info: NONBONDED TABLE SIZE: 705 POINTS
TCL: Running for 1500000 steps
ETITLE: TS BOND ANGLE DIHED IMPRP ELECT VDW BOUNDARY MISC KINETIC TOTAL TEMP POTENTIAL TOTALAVG TEMPAVG PRESSURE GPRESSURE VOLUME PRESSAVG GPRESSAVG
ENERGY: 0 2.9729 8.7069 1.0331 0.0000 -10395.2618 1322.4454 0.0000 0.0000 1755.6634 -7304.4402 303.9181 -9060.1035 -7304.4402 303.9181 -618.3646 -531.6385 29542.6003 -618.3646 -531.6385
ENERGY: 300000 2.5586 8.9248 0.4680 0.0000 -10481.5680 1368.8832 0.0000 0.0000 1754.7637 -7345.9698 303.7624 -9100.7335 -7356.4493 302.2744 -407.8901 -351.6158 29568.2625 -292.9858 -236.0375
ENERGY: 600000 0.9195 12.0094 0.8004 0.0000 -10552.2144 1456.2705 0.0000 0.0000 1718.6525 -7363.5621 297.5113 -9082.2146 -7351.7393 301.3011 554.2631 588.3197 29611.9280 -219.3120 -158.8790
ENERGY: 900000 2.0541 9.0810 1.3289 0.0000 -10566.7127 1466.6426 0.0000 0.0000 1687.7489 -7399.8572 292.1616 -9087.6061 -7342.2841 300.5309 215.7070 262.2377 29829.5531 -11.2492 53.8690
ENERGY: 1200000 1.0521 5.3976 1.9237 0.0000 -10624.0071 1475.6413 0.0000 0.0000 1678.4873 -7461.5051 290.5584 -9139.9924 -7354.9036 299.3389 469.2739 480.1598 29503.8652 -10.9508 44.9581
ENERGY: 1500000 1.6719 5.7204 0.4401 0.0000 -10543.3993 1440.8807 0.0000 0.0000 1712.7188 -7381.9675 296.4841 -9094.6862 -7354.9789 300.0109 87.2870 131.1918 29986.9592 1.9328 59.5322
TCL: Running FEP window  16: Lambda1 0.24999999999999967 Lambda2 0.19999999999999968 [dLambda -0.04999999999999999]
TCL: Setting parameter firsttimestep to 0
TCL: Setting parameter alchLambda to 0.24999999999999967
Info: NONBONDED TABLE R-SQUARED SPACING: 0.0625
Info: NONBONDED TABLE SIZE: 705 POINTS
TCL: Setting parameter alchLambda2 to 0.19999999999999968
Info: NONBONDED TABLE R-SQUARED SPACING: 0.0625
Info: NONBONDED TABLE SIZE: 705 POINTS
TCL: Running for 1500000 steps
ETITLE: TS BOND ANGLE DIHED IMPRP ELECT VDW BOUNDARY MISC KINETIC TOTAL TEMP POTENTIAL TOTALAVG TEMPAVG PRESSURE GPRESSURE VOLUME PRESSAVG GPRESSAVG
ENERGY: 0 1.6719 5.7204 0.4401 0.0000 -10543.3991 1441.3331 0.0000 0.0000 1711.8515 -7382.3820 296.3340 -9094.2335 -7382.3820 296.3340 47.8937 128.5894 29986.9592 47.8937 128.5894
ENERGY: 300000 1.1817 3.3375 1.0807 0.0000 -10537.5479 1411.0169 0.0000 0.0000 1777.3126 -7343.6185 307.6658 -9120.9311 -7395.4977 298.2154 -204.5334 -177.4703 29870.3452 194.0296 240.8459
ENERGY: 600000 4.1109 9.8090 1.0830 0.0000 -10396.7672 1356.2172 0.0000 0.0000 1719.5698 -7305.9772 297.6701 -9025.5470 -7353.2292 299.2109 -346.2559 -310.8259 29867.7659 -22.0921 23.6793
ENERGY: 900000 2.7153 6.3929 0.8674 0.0000 -10420.2110 1328.7895 0.0000 0.0000 1721.9819 -7359.4639 298.0876 -9081.4458 -7348.4418 299.1537 -718.2098 -655.8392 29600.7511 -65.8241 -16.0470
ENERGY: 1200000 2.2154 9.9953 1.5019 0.0000 -10490.0239 1422.2162 0.0000 0.0000 1755.7942 -7298.3009 303.9408 -9054.0951 -7345.3045 299.9906 76.2664 163.4736 29969.5299 16.2631 72.4823
ENERGY: 1500000 1.5281 6.3139 0.6233 0.0000 -10623.7654 1441.7560 0.0000 0.0000 1732.9592 -7440.5849 299.9879 -9173.5441 -7348.9803 300.5186 101.6092 168.0333 29366.8947 -43.8473 7.7825
TCL: Running FEP window  17: Lambda1 0.19999999999999968 Lambda2 0.1499999999999997 [dLambda -0.04999999999999999]
TCL: Setting parameter firsttimestep to 0
TCL: Setting parameter alchLambda to 0.19999999999999968
Info: NONBONDED TABLE R-SQUARED SPACING: 0.0625
Info: NONBONDED TABLE SIZE: 705 POINTS
TCL: Setting parameter alchLambda2 to 0.1499999999999997
Info: NONBONDED TABLE R-SQUARED SPACING: 0.0625
Info: NONBONDED TABLE SIZE: 705 POINTS
TCL: Running for 1500000 steps
ETITLE: TS BOND ANGLE DIHED IMPRP ELECT VDW BOUNDARY MISC KINETIC TOTAL TEMP POTENTIAL TOTALAVG TEMPAVG PRESSURE GPRESSURE VOLUME PRESSAVG GPRESSAVG
ENERGY: 0 1.5281 6.3139 0.6233 0.0000 -10623.7654 1440.7835 0.0000 0.0000 1732.0713 -7442.4453 299.8342 -9174.5166 -7442.4453 299.8342 75.9296 158.5465 29366.8947 75.9296 158.5465
ENERGY: 300000 2.1733 7.1066 0.4291 0.0000 -10534.8811 1499.0402 0.0000 0.0000 1693.4991 -7332.6328 293.1570 -9026.1319 -7349.4108 296.9072 763.0111 819.6630 29577.4436 357.5308 425.6776
ENERGY: 600000 1.1630 7.5943 1.7817 0.0000 -10497.6173 1408.2484 0.0000 0.0000 1730.9190 -7347.9108 299.6347 -9078.8298 -7348.7704 297.8491 -56.3493 -14.5647 29752.3601 229.8052 297.7084
ENERGY: 900000 1.1306 7.7385 1.1208 0.0000 -10430.8395 1358.4920 0.0000 0.0000 1685.5414 -7376.8162 291.7795 -9062.3576 -7353.2884 297.2644 -555.3477 -413.9082 29705.8096 55.2824 119.3688
ENERGY: 1200000 1.5764 7.1053 0.6810 0.0000 -10389.8962 1398.7461 0.0000 0.0000 1659.4973 -7322.2901 287.2711 -8981.7874 -7353.3956 297.6117 185.1192 215.5685 29726.7448 45.1720 94.7466
ENERGY: 1500000 1.6099 10.4992 0.9004 0.0000 -10496.7328 1410.2288 0.0000 0.0000 1695.6310 -7377.8635 293.5261 -9073.4945 -7348.7024 298.4393 -178.3845 -135.7373 30076.4675 -24.2114 24.7551
TCL: Running FEP window  18: Lambda1 0.1499999999999997 Lambda2 0.09999999999999969 [dLambda -0.05 ]
TCL: Setting parameter firsttimestep to 0
TCL: Setting parameter alchLambda to 0.1499999999999997
Info: NONBONDED TABLE R-SQUARED SPACING: 0.0625
Info: NONBONDED TABLE SIZE: 705 POINTS
TCL: Setting parameter alchLambda2 to 0.09999999999999969
Info: NONBONDED TABLE R-SQUARED SPACING: 0.0625
Info: NONBONDED TABLE SIZE: 705 POINTS
TCL: Running for 1500000 steps
ETITLE: TS BOND ANGLE DIHED IMPRP ELECT VDW BOUNDARY MISC KINETIC TOTAL TEMP POTENTIAL TOTALAVG TEMPAVG PRESSURE GPRESSURE VOLUME PRESSAVG GPRESSAVG
ENERGY: 0 1.6099 10.4992 0.9004 0.0000 -10496.7319 1409.9390 0.0000 0.0000 1694.7567 -7379.0268 293.3747 -9073.7835 -7379.0268 293.3747 -231.7060 -139.6992 30076.4675 -231.7060 -139.6992
ENERGY: 300000 0.7953 8.7020 1.6230 0.0000 -10717.8719 1522.1038 0.0000 0.0000 1740.9472 -7443.7006 301.3707 -9184.6478 -7383.7372 297.1872 591.7449 642.0739 29522.0441 142.4450 198.9429
ENERGY: 600000 2.4516 9.6046 1.5779 0.0000 -10623.8394 1485.7391 0.0000 0.0000 1679.0891 -7445.3771 290.6626 -9124.4662 -7373.9614 297.0380 318.1247 415.9476 29929.9168 169.1930 238.1485
ENERGY: 900000 2.2395 5.7219 0.7467 0.0000 -10407.2825 1378.9893 0.0000 0.0000 1733.9119 -7285.6732 300.1528 -9019.5851 -7370.8220 297.0918 -289.6669 -238.3595 29929.5205 74.3035 136.5979
ENERGY: 1200000 1.9103 6.6395 0.5005 0.0000 -10570.1076 1470.1935 0.0000 0.0000 1674.2634 -7416.6005 289.8272 -9090.8639 -7377.2681 296.4446 111.9130 188.0995 30046.3534 99.3055 166.8793
ENERGY: 1500000 3.5836 11.2985 0.8752 0.0000 -10591.2978 1534.7516 0.0000 0.0000 1748.3364 -7292.4526 302.6498 -9040.7890 -7371.7614 297.7779 727.2112 815.5308 30032.8148 174.4363 241.8749
TCL: Running FEP window  19: Lambda1 0.09999999999999969 Lambda2 0.049999999999999684 [dLambda -0.05 ]
TCL: Setting parameter firsttimestep to 0
TCL: Setting parameter alchLambda to 0.09999999999999969
Info: NONBONDED TABLE R-SQUARED SPACING: 0.0625
Info: NONBONDED TABLE SIZE: 705 POINTS
TCL: Setting parameter alchLambda2 to 0.049999999999999684
Info: NONBONDED TABLE R-SQUARED SPACING: 0.0625
Info: NONBONDED TABLE SIZE: 705 POINTS
TCL: Running for 1500000 steps
ETITLE: TS BOND ANGLE DIHED IMPRP ELECT VDW BOUNDARY MISC KINETIC TOTAL TEMP POTENTIAL TOTALAVG TEMPAVG PRESSURE GPRESSURE VOLUME PRESSAVG GPRESSAVG
ENERGY: 0 3.5836 11.2985 0.8752 0.0000 -10591.2981 1534.8969 0.0000 0.0000 1747.4706 -7293.1734 302.4999 -9040.6440 -7293.1734 302.4999 724.6593 812.4451 30032.8148 724.6593 812.4451
ENERGY: 300000 2.3269 10.7967 1.7341 0.0000 -10533.0655 1464.5735 0.0000 0.0000 1666.5919 -7387.0424 288.4992 -9053.6343 -7346.0845 298.5814 483.4613 503.5808 29604.1837 470.0720 534.9376
ENERGY: 600000 1.8483 7.1540 0.5143 0.0000 -10570.2360 1498.2738 0.0000 0.0000 1743.1718 -7319.2739 301.7557 -9062.4457 -7345.3910 299.0276 832.0973 870.9927 29599.8697 422.8565 473.9617
ENERGY: 900000 3.1390 4.8283 0.8681 0.0000 -10571.5319 1415.2944 0.0000 0.0000 1702.1361 -7445.2660 294.6522 -9147.4021 -7362.8799 298.6446 -264.3307 -211.9991 29680.6866 249.8909 301.1492
ENERGY: 1200000 0.9391 6.9901 0.5217 0.0000 -10480.9507 1392.3075 0.0000 0.0000 1702.6451 -7377.5471 294.7403 -9080.1922 -7355.1457 299.4612 -126.2605 -82.3321 29486.0351 117.1931 172.9721
ENERGY: 1500000 1.7745 6.0639 1.8404 0.0000 -10499.8317 1378.3728 0.0000 0.0000 1714.1170 -7397.6631 296.7262 -9111.7802 -7355.8215 298.9918 -538.2761 -460.8390 29715.0846 96.6434 151.7934
TCL: Running FEP window  20: Lambda1 0.049999999999999684 Lambda2 0.0    [dLambda -0.049999999999999684]
TCL: Setting parameter firsttimestep to 0
TCL: Setting parameter alchLambda to 0.049999999999999684
Info: NONBONDED TABLE R-SQUARED SPACING: 0.0625
Info: NONBONDED TABLE SIZE: 705 POINTS
TCL: Setting parameter alchLambda2 to 0.0
Info: NONBONDED TABLE R-SQUARED SPACING: 0.0625
Info: NONBONDED TABLE SIZE: 705 POINTS
TCL: Running for 1500000 steps
ETITLE: TS BOND ANGLE DIHED IMPRP ELECT VDW BOUNDARY MISC KINETIC TOTAL TEMP POTENTIAL TOTALAVG TEMPAVG PRESSURE GPRESSURE VOLUME PRESSAVG GPRESSAVG
ENERGY: 0 1.7745 6.0639 1.8404 0.0000 -10499.8300 1378.0390 0.0000 0.0000 1713.2545 -7398.8577 296.5768 -9112.1122 -7398.8577 296.5768 -552.5519 -465.0032 29715.0846 -552.5519 -465.0032
ENERGY: 300000 3.2025 6.7310 1.0638 0.0000 -10497.9175 1354.5960 0.0000 0.0000 1807.2838 -7325.0403 312.8540 -9132.3241 -7357.0384 302.3857 -487.7909 -399.6563 29309.2730 -397.9771 -309.8128
ENERGY: 600000 1.4404 5.1331 1.0616 0.0000 -10622.6076 1471.1601 0.0000 0.0000 1776.3773 -7367.4351 307.5039 -9143.8124 -7344.4492 304.1655 164.7340 203.0604 30062.6224 -186.0436 -104.4753
ENERGY: 900000 2.4884 10.8290 1.6080 0.0000 -10480.1065 1445.8378 0.0000 0.0000 1707.7175 -7311.6258 295.6183 -9019.3432 -7334.6592 303.3719 237.8062 211.8847 30137.9949 -12.1039 48.7624
ENERGY: 1200000 1.3588 9.1487 2.1676 0.0000 -10686.9552 1537.8719 0.0000 0.0000 1714.9335 -7421.4747 296.8675 -9136.4082 -7350.1921 301.8659 816.0442 830.3640 29570.3445 108.9061 174.4668
ENERGY: 1500000 0.8715 5.8335 0.8559 0.0000 -10516.0972 1417.4734 0.0000 0.0000 1799.9921 -7291.0708 311.5918 -9091.0629 -7349.0219 302.0353 29.5218 80.9245 29836.2238 79.4909 145.8981
TCL: Exiting due to exit command.
