Info: SIMULATION PARAMETERS:
Info: TIMESTEP               2
Info: NUMBER OF STEPS        0
Info: STEPS PER CYCLE        10
Info: PERIODIC CELL BASIS 1  34.986 0 0
Info: PERIODIC CELL BASIS 2  0 35.779 0
Info: PERIODIC CELL BASIS 3  0 0 35.723
Info: PERIODIC CELL CENTER   0 0 0
Info: WRAPPING WATERS AROUND PERIODIC BOUNDARIES ON OUTPUT.
Info: WRAPPING ALL CLUSTERS AROUND PERIODIC BOUNDARIES ON OUTPUT.
Info: FIRST LDB TIMESTEP     50
Info: LAST LDB TIMESTEP     -1
Info: HOM BACKGROUND SCALING 1
Info: PME BACKGROUND SCALING 1
Info: MIN ATOMS PER PATCH    40
Info: EMPTY PATCH LOAD       40 ATOMS
Info: INITIAL TEMPERATURE    300
Info: CENTER OF MASS MOVING INITIALLY? NO
Info: DIELECTRIC             1
Info: EXCLUDE                SCALED ONE-FOUR
Info: 1-4 ELECTROSTATICS SCALED BY 0.833333
Info: MODIFIED 1-4 VDW PARAMETERS WILL BE USED
Info: DCD FILENAME           mobley_1650157_equil.dcd
Info: DCD FREQUENCY          100000
Info: DCD FIRST STEP         100000
Info: DCD FILE WILL CONTAIN UNIT CELL DATA
Info: XST FILENAME           mobley_1650157_equil.xst
Info: XST FREQUENCY          100000
Info: NO VELOCITY DCD OUTPUT
Info: NO FORCE DCD OUTPUT
Info: OUTPUT FILENAME        mobley_1650157_equil
Info: BINARY OUTPUT FILES WILL BE USED
Info: RESTART FILENAME       mobley_1650157_equil.restart
Info: RESTART FREQUENCY      100000
Info: BINARY RESTART FILES WILL BE USED
Info: CUTOFF                 9
Info: PAIRLIST DISTANCE      11
Info: PAIRLIST SHRINK RATE   0.01
Info: PAIRLIST GROW RATE     0.01
Info: PAIRLIST TRIGGER       0.3
Info: PAIRLISTS PER CYCLE    2
Info: PAIRLISTS ENABLED
Info: MARGIN                 8
Info: HYDROGEN GROUP CUTOFF  2.5
Info: PATCH DIMENSION        21.5
Info: ENERGY OUTPUT STEPS    100000
Info: ENERGY EVALUATION STEPS    100000
Info: OUTPUT ENERGY PRECISION 4
Info: CROSSTERM ENERGY INCLUDED IN DIHEDRAL
Info: TIMING OUTPUT STEPS    1000000
Info: PRESSURE OUTPUT STEPS  100000
Info: FIXED ATOMS ACTIVE
Info: LANGEVIN DYNAMICS ACTIVE
Info: LANGEVIN TEMPERATURE   30
Info: LANGEVIN USING BBK INTEGRATOR
Info: LANGEVIN DAMPING COEFFICIENT IS 1 INVERSE PS
Info: LANGEVIN DYNAMICS APPLIED TO HYDROGENS
Info: LANGEVIN PISTON PRESSURE CONTROL ACTIVE
Info:        TARGET PRESSURE IS 1.01325 BAR
Info:     OSCILLATION PERIOD IS 50 FS
Info:             DECAY TIME IS 25 FS
Info:     PISTON TEMPERATURE IS 300 K
Info:       PRESSURE CONTROL IS GROUP-BASED
Info:    INITIAL STRAIN RATE IS 0 0 0
Info:       CELL FLUCTUATION IS ISOTROPIC
Info: PARTICLE MESH EWALD (PME) ACTIVE
Info: PME TOLERANCE               1e-06
Info: PME EWALD COEFFICIENT       0.348832
Info: PME INTERPOLATION ORDER     4
Info: PME GRID DIMENSIONS         36 36 36
Info: PME MAXIMUM GRID SPACING    1
Info: FULL ELECTROSTATIC EVALUATION FREQUENCY      2
Info: USING VERLET I (r-RESPA) MTS SCHEME.
Info: C1 SPLITTING OF LONG RANGE ELECTROSTATICS
Info: PLACING ATOMS IN PATCHES BY HYDROGEN GROUPS
Info: RIGID BONDS TO HYDROGEN : ALL
Info:         ERROR TOLERANCE : 1e-08
Info:          MAX ITERATIONS : 100
Info: RIGID WATER USING SETTLE ALGORITHM
Info: RANDOM NUMBER SEED     1742215097
Info: USE HYDROGEN BONDS?    NO
Info: Using AMBER format force field!
Info: AMBER PARM FILE        mobley_1650157.prmtop
Info: COORDINATE PDB         mobley_1650157.pdb
Info: Exclusions will be read from PARM file!
Info: SCNB (VDW SCALING)     2
Info: USING ARITHMETIC MEAN TO COMBINE L-J SIGMA PARAMETERS
Info: BINARY COORDINATES     mobley_1650157_min.coor
Info: SUMMARY OF PARAMETERS:
Info: 6 BONDS
Info: 5 ANGLES
Info:   5 HARMONIC
Info:   0 COSINE-BASED
Info: 3 DIHEDRAL
Info: 0 IMPROPER
Info: 0 CROSSTERM
Info: 0 VDW
Info: 21 VDW_PAIRS
Info: 0 NBTHOLE_PAIRS
Info: STRUCTURE SUMMARY:
Info: 2976 ATOMS
Info: 2975 BONDS
Info: 25 ANGLES
Info: 30 DIHEDRALS
Info: 0 IMPROPERS
Info: 0 CROSSTERMS
Info: 3030 EXCLUSIONS
Info: 15 FIXED ATOMS
Info: 2971 RIGID BONDS
Info: 10 RIGID BONDS BETWEEN FIXED ATOMS
Info: 5922 DEGREES OF FREEDOM
Info: 992 HYDROGEN GROUPS
Info: 4 ATOMS IN LARGEST HYDROGEN GROUP
Info: 992 MIGRATION GROUPS
Info: 4 ATOMS IN LARGEST MIGRATION GROUP
Info: 5 HYDROGEN GROUPS WITH ALL ATOMS FIXED
Info: TOTAL MASS = 17855.9 amu
Info: TOTAL CHARGE = 0.000100017 e
Info: MASS DENSITY = 0.663088 g/cm^3
Info: ATOM DENSITY = 0.0665522 atoms/A^3
Info: ADDED 0 IMPLICIT EXCLUSIONS
Info: NONBONDED TABLE R-SQUARED SPACING: 0.0625
Info: NONBONDED TABLE SIZE: 705 POINTS
Info: REMOVING COM VELOCITY -0.122761 0.151252 -0.138201
TCL: Running for 100000 steps
ETITLE: TS BOND ANGLE DIHED IMPRP ELECT VDW BOUNDARY MISC KINETIC TOTAL TEMP POTENTIAL TOTAL3 TEMPAVG PRESSURE GPRESSURE VOLUME PRESSAVG GPRESSAVG
ENERGY: 0 0.0000 0.0000 0.0000 0.0000 -13858.6998 2460.0803 0.0000 0.0000 1796.8031 -9601.8164 305.3673 -11398.6195 -9601.4400 305.3673 591.6487 623.2779 44716.7687 591.6487 623.2779
ENERGY: 100000 0.0000 0.0000 0.0000 0.0000 -14584.6616 2649.6084 0.0000 0.0000 175.3496 -11759.7036 29.8007 -11935.0532 -11759.4487 30.9539 1189.9182 1216.2526 28630.8024 3.9775 3.9880
TCL: Running 100000 steps at 60 kelvin.
TCL: Setting parameter langevinTemp to 60
TCL: Running for 100000 steps
ETITLE: TS BOND ANGLE DIHED IMPRP ELECT VDW BOUNDARY MISC KINETIC TOTAL TEMP POTENTIAL TOTAL3 TEMPAVG PRESSURE GPRESSURE VOLUME PRESSAVG GPRESSAVG
ENERGY: 100000 0.0000 0.0000 0.0000 0.0000 -14584.6616 2649.6084 0.0000 0.0000 175.2633 -11759.7900 29.7860 -11935.0532 -11759.4754 29.7860 1173.4913 1215.9754 28630.8024 1173.4913 1215.9754
ENERGY: 200000 0.0000 0.0000 0.0000 0.0000 -14418.0151 2599.5184 0.0000 0.0000 353.1057 -11465.3910 60.0104 -11818.4967 -11464.5010 60.0502 1354.6208 1362.7968 28650.1924 4.6485 4.6010
TCL: Running 100000 steps at 90 kelvin.
TCL: Setting parameter langevinTemp to 90
TCL: Running for 100000 steps
ETITLE: TS BOND ANGLE DIHED IMPRP ELECT VDW BOUNDARY MISC KINETIC TOTAL TEMP POTENTIAL TOTAL3 TEMPAVG PRESSURE GPRESSURE VOLUME PRESSAVG GPRESSAVG
ENERGY: 200000 0.0000 0.0000 0.0000 0.0000 -14418.0151 2599.5184 0.0000 0.0000 352.9296 -11465.5671 59.9805 -11818.4967 -11464.9354 59.9805 1316.6821 1363.1848 28650.1924 1316.6821 1363.1848
ENERGY: 300000 0.0000 0.0000 0.0000 0.0000 -14098.5322 2372.4570 0.0000 0.0000 527.6616 -11198.4137 89.6762 -11726.0752 -11196.8967 89.9221 -299.6315 -276.0166 29055.6333 3.9038 3.8523
TCL: Running 100000 steps at 120 kelvin.
TCL: Setting parameter langevinTemp to 120
TCL: Running for 100000 steps
ETITLE: TS BOND ANGLE DIHED IMPRP ELECT VDW BOUNDARY MISC KINETIC TOTAL TEMP POTENTIAL TOTAL3 TEMPAVG PRESSURE GPRESSURE VOLUME PRESSAVG GPRESSAVG
ENERGY: 300000 0.0000 0.0000 0.0000 0.0000 -14098.5322 2372.4570 0.0000 0.0000 527.3948 -11198.6804 89.6309 -11726.0752 -11197.6171 89.6309 -333.2266 -275.9285 29055.6333 -333.2266 -275.9285
ENERGY: 400000 0.0000 0.0000 0.0000 0.0000 -13862.9555 2277.6944 0.0000 0.0000 695.7800 -10889.4811 118.2480 -11585.2611 -10887.2921 119.8797 -425.0586 -416.1551 28914.6167 3.3680 3.3615
TCL: Running 100000 steps at 150 kelvin.
TCL: Setting parameter langevinTemp to 150
TCL: Running for 100000 steps
ETITLE: TS BOND ANGLE DIHED IMPRP ELECT VDW BOUNDARY MISC KINETIC TOTAL TEMP POTENTIAL TOTAL3 TEMPAVG PRESSURE GPRESSURE VOLUME PRESSAVG GPRESSAVG
ENERGY: 400000 0.0000 0.0000 0.0000 0.0000 -13862.9555 2277.6944 0.0000 0.0000 695.4260 -10889.8351 118.1879 -11585.2611 -10888.7721 118.1879 -460.7620 -415.3199 28914.6167 -460.7620 -415.3199
ENERGY: 500000 0.0000 0.0000 0.0000 0.0000 -13674.9700 2255.0641 0.0000 0.0000 908.1169 -10511.7891 154.3347 -11419.9059 -10508.9828 149.5988 -222.6392 -194.2255 29227.4449 3.9221 3.9273
TCL: Running 100000 steps at 180 kelvin.
TCL: Setting parameter langevinTemp to 180
TCL: Running for 100000 steps
ETITLE: TS BOND ANGLE DIHED IMPRP ELECT VDW BOUNDARY MISC KINETIC TOTAL TEMP POTENTIAL TOTAL3 TEMPAVG PRESSURE GPRESSURE VOLUME PRESSAVG GPRESSAVG
ENERGY: 500000 0.0000 0.0000 0.0000 0.0000 -13674.9700 2255.0641 0.0000 0.0000 907.6830 -10512.2229 154.2610 -11419.9059 -10510.6223 154.2610 -233.4104 -193.6180 29227.4449 -233.4104 -193.6180
ENERGY: 600000 0.0000 0.0000 0.0000 0.0000 -13157.8762 2016.1822 0.0000 0.0000 1012.0631 -10129.6309 172.0004 -11141.6939 -10127.4462 180.0788 -977.4752 -929.4735 28905.6054 4.3170 4.5775
TCL: Running 100000 steps at 210 kelvin.
TCL: Setting parameter langevinTemp to 210
TCL: Running for 100000 steps
ETITLE: TS BOND ANGLE DIHED IMPRP ELECT VDW BOUNDARY MISC KINETIC TOTAL TEMP POTENTIAL TOTAL3 TEMPAVG PRESSURE GPRESSURE VOLUME PRESSAVG GPRESSAVG
ENERGY: 600000 0.0000 0.0000 0.0000 0.0000 -13157.8762 2016.1822 0.0000 0.0000 1011.5422 -10130.1517 171.9119 -11141.6939 -10127.8417 171.9119 -995.4008 -930.2847 28905.6054 -995.4008 -930.2847
ENERGY: 700000 0.0000 0.0000 0.0000 0.0000 -12532.6328 1917.6773 0.0000 0.0000 1236.1142 -9378.8413 210.0780 -10614.9556 -9376.8309 210.0358 313.5609 332.2910 28770.9315 3.2962 3.0913
TCL: Running 100000 steps at 240 kelvin.
TCL: Setting parameter langevinTemp to 240
TCL: Running for 100000 steps
ETITLE: TS BOND ANGLE DIHED IMPRP ELECT VDW BOUNDARY MISC KINETIC TOTAL TEMP POTENTIAL TOTAL3 TEMPAVG PRESSURE GPRESSURE VOLUME PRESSAVG GPRESSAVG
ENERGY: 700000 0.0000 0.0000 0.0000 0.0000 -12532.6328 1917.6773 0.0000 0.0000 1235.4857 -9379.4699 209.9712 -10614.9556 -9377.9508 209.9712 254.1555 332.9185 28770.9315 254.1555 332.9185
ENERGY: 800000 0.0000 0.0000 0.0000 0.0000 -11936.4110 1697.8088 0.0000 0.0000 1495.0357 -8743.5664 254.0818 -10238.6022 -8739.1552 240.0923 -262.5686 -139.1980 29205.8449 3.6040 3.6299
TCL: Running 100000 steps at 270 kelvin.
TCL: Setting parameter langevinTemp to 270
TCL: Running for 100000 steps
ETITLE: TS BOND ANGLE DIHED IMPRP ELECT VDW BOUNDARY MISC KINETIC TOTAL TEMP POTENTIAL TOTAL3 TEMPAVG PRESSURE GPRESSURE VOLUME PRESSAVG GPRESSAVG
ENERGY: 800000 0.0000 0.0000 0.0000 0.0000 -11936.4110 1697.8088 0.0000 0.0000 1494.3257 -8744.2765 253.9611 -10238.6022 -8741.3023 253.9611 -231.4934 -138.7963 29205.8449 -231.4934 -138.7963
ENERGY: 900000 0.0000 0.0000 0.0000 0.0000 -11355.2793 1546.9824 0.0000 0.0000 1523.0385 -8285.2584 258.8409 -9808.2969 -8282.3036 269.4656 -501.8239 -421.9890 29972.7122 3.4747 3.2529
TCL: Running 1000000 steps at 300 kelvin.
TCL: Setting parameter langevinTemp to 300
TCL: Running for 1000000 steps
ETITLE: TS BOND ANGLE DIHED IMPRP ELECT VDW BOUNDARY MISC KINETIC TOTAL TEMP POTENTIAL TOTAL3 TEMPAVG PRESSURE GPRESSURE VOLUME PRESSAVG GPRESSAVG
ENERGY: 900000 0.0000 0.0000 0.0000 0.0000 -11355.2793 1546.9824 0.0000 0.0000 1522.2788 -8286.0181 258.7118 -9808.2969 -8283.6043 258.7118 -517.6489 -422.1064 29972.7122 -517.6489 -422.1064
ENERGY: 1100000 0.0000 0.0000 0.0000 0.0000 -10758.3383 1453.8192 0.0000 0.0000 1713.1672 -7591.3519 291.1533 -9304.5191 -7590.5640 300.7325 -0.9452 91.4876 30913.1126 1.5250 1.1359
ENERGY: 1300000 0.0000 0.0000 0.0000 0.0000 -10832.7411 1382.2015 0.0000 0.0000 1807.7168 -7642.8228 307.2220 -9450.5396 -7640.4443 300.5047 -793.4554 -704.4365 30922.2403 2.4728 2.5139
ENERGY: 1500000 0.0000 0.0000 0.0000 0.0000 -10862.9056 1442.8584 0.0000 0.0000 1812.9435 -7607.1037 308.1103 -9420.0471 -7601.6062 300.1310 -282.7353 -182.2366 30831.7126 3.4147 3.2334
ENERGY: 1700000 0.0000 0.0000 0.0000 0.0000 -10827.2150 1493.1796 0.0000 0.0000 1759.0702 -7574.9652 298.9545 -9334.0354 -7571.5863 299.7923 329.2994 423.4182 30977.3668 3.3721 3.5446
ENERGY: 1900000 0.0000 0.0000 0.0000 0.0000 -10882.9686 1460.5235 0.0000 0.0000 1771.3834 -7651.0618 301.0472 -9422.4452 -7647.9779 299.8375 -175.3804 -25.2027 30867.1307 4.7899 4.7200
TCL: Exiting due to exit command.
