Info: SIMULATION PARAMETERS:
Info: TIMESTEP               2
Info: NUMBER OF STEPS        0
Info: STEPS PER CYCLE        10
Info: PERIODIC CELL BASIS 1  44.537 0 0
Info: PERIODIC CELL BASIS 2  0 41.628 0
Info: PERIODIC CELL BASIS 3  0 0 41.374
Info: PERIODIC CELL CENTER   0 0 0
Info: WRAPPING WATERS AROUND PERIODIC BOUNDARIES ON OUTPUT.
Info: WRAPPING ALL CLUSTERS AROUND PERIODIC BOUNDARIES ON OUTPUT.
Info: FIRST LDB TIMESTEP     50
Info: LAST LDB TIMESTEP     -1
Info: HOM BACKGROUND SCALING 1
Info: PME BACKGROUND SCALING 1
Info: MIN ATOMS PER PATCH    40
Info: EMPTY PATCH LOAD       40 ATOMS
Info: INITIAL TEMPERATURE    300
Info: CENTER OF MASS MOVING INITIALLY? NO
Info: DIELECTRIC             1
Info: EXCLUDE                SCALED ONE-FOUR
Info: 1-4 ELECTROSTATICS SCALED BY 0.833333
Info: MODIFIED 1-4 VDW PARAMETERS WILL BE USED
Info: DCD FILENAME           mobley_242480_min.dcd
Info: DCD FREQUENCY          5000
Info: DCD FIRST STEP         5000
Info: DCD FILE WILL CONTAIN UNIT CELL DATA
Info: XST FILENAME           mobley_242480_min.xst
Info: XST FREQUENCY          5000
Info: NO VELOCITY DCD OUTPUT
Info: NO FORCE DCD OUTPUT
Info: OUTPUT FILENAME        mobley_242480_min
Info: BINARY OUTPUT FILES WILL BE USED
Info: RESTART FILENAME       mobley_242480_min.restart
Info: RESTART FREQUENCY      5000
Info: BINARY RESTART FILES WILL BE USED
Info: CUTOFF                 9
Info: PAIRLIST DISTANCE      11
Info: PAIRLIST SHRINK RATE   0.01
Info: PAIRLIST GROW RATE     0.01
Info: PAIRLIST TRIGGER       0.3
Info: PAIRLISTS PER CYCLE    2
Info: PAIRLISTS ENABLED
Info: MARGIN                 8
Info: HYDROGEN GROUP CUTOFF  2.5
Info: PATCH DIMENSION        21.5
Info: ENERGY OUTPUT STEPS    5000
Info: ENERGY EVALUATION STEPS    5000
Info: OUTPUT ENERGY PRECISION 4
Info: CROSSTERM ENERGY INCLUDED IN DIHEDRAL
Info: TIMING OUTPUT STEPS    50000
Info: PRESSURE OUTPUT STEPS  5000
Info: LANGEVIN DYNAMICS ACTIVE
Info: LANGEVIN TEMPERATURE   300
Info: LANGEVIN USING BBK INTEGRATOR
Info: LANGEVIN DAMPING COEFFICIENT IS 1 INVERSE PS
Info: LANGEVIN DYNAMICS APPLIED TO HYDROGENS
Info: LANGEVIN PISTON PRESSURE CONTROL ACTIVE
Info:        TARGET PRESSURE IS 1.01325 BAR
Info:     OSCILLATION PERIOD IS 50 FS
Info:             DECAY TIME IS 25 FS
Info:     PISTON TEMPERATURE IS 300 K
Info:       PRESSURE CONTROL IS GROUP-BASED
Info:    INITIAL STRAIN RATE IS 0 0 0
Info:       CELL FLUCTUATION IS ISOTROPIC
Info: PARTICLE MESH EWALD (PME) ACTIVE
Info: PME TOLERANCE               1e-06
Info: PME EWALD COEFFICIENT       0.348832
Info: PME INTERPOLATION ORDER     4
Info: PME GRID DIMENSIONS         48 44 44
Info: PME MAXIMUM GRID SPACING    1
Info: FULL ELECTROSTATIC EVALUATION FREQUENCY      2
Info: USING VERLET I (r-RESPA) MTS SCHEME.
Info: C1 SPLITTING OF LONG RANGE ELECTROSTATICS
Info: PLACING ATOMS IN PATCHES BY HYDROGEN GROUPS
Info: RIGID BONDS TO HYDROGEN : ALL
Info:         ERROR TOLERANCE : 1e-08
Info:          MAX ITERATIONS : 100
Info: RIGID WATER USING SETTLE ALGORITHM
Info: RANDOM NUMBER SEED     1741320753
Info: USE HYDROGEN BONDS?    NO
Info: Using AMBER format force field!
Info: AMBER PARM FILE        mobley_242480.prmtop
Info: COORDINATE PDB         mobley_242480.pdb
Info: Exclusions will be read from PARM file!
Info: SCNB (VDW SCALING)     2
Info: USING ARITHMETIC MEAN TO COMBINE L-J SIGMA PARAMETERS
Info: SUMMARY OF PARAMETERS:
Info: 8 BONDS
Info: 8 ANGLES
Info:   8 HARMONIC
Info:   0 COSINE-BASED
Info: 6 DIHEDRAL
Info: 0 IMPROPER
Info: 0 CROSSTERM
Info: 0 VDW
Info: 28 VDW_PAIRS
Info: 0 NBTHOLE_PAIRS
Info: STRUCTURE SUMMARY:
Info: 5611 ATOMS
Info: 5613 BONDS
Info: 48 ANGLES
Info: 80 DIHEDRALS
Info: 0 IMPROPERS
Info: 0 CROSSTERMS
Info: 5724 EXCLUSIONS
Info: 5593 RIGID BONDS
Info: 11240 DEGREES OF FREEDOM
Info: 1879 HYDROGEN GROUPS
Info: 3 ATOMS IN LARGEST HYDROGEN GROUP
Info: 1879 MIGRATION GROUPS
Info: 3 ATOMS IN LARGEST MIGRATION GROUP
Info: TOTAL MASS = 33766 amu
Info: TOTAL CHARGE = 0.000299968 e
Info: MASS DENSITY = 0.730979 g/cm^3
Info: ATOM DENSITY = 0.0731486 atoms/A^3
Info: ADDED 0 IMPLICIT EXCLUSIONS
Info: NONBONDED TABLE R-SQUARED SPACING: 0.0625
Info: NONBONDED TABLE SIZE: 705 POINTS
Info: REMOVING COM VELOCITY 0.120593 -0.0602495 0.143202
TCL: Minimizing for 2000 steps
ETITLE: TS BOND ANGLE DIHED IMPRP ELECT VDW BOUNDARY MISC KINETIC TOTAL TEMP POTENTIAL TOTAL3 TEMPAVG PRESSURE GPRESSURE VOLUME PRESSAVG GPRESSAVG
ENERGY: 0 0.3191 3.4412 0.0501 0.0000 -17475.0245 1990.1818 0.0000 0.0000 0.0000 -15481.0323 0.0000 -15481.0323 -15481.0323 0.0000 11409.5585 -15475.3331 76706.8265 11409.5585 -15475.3331
ENERGY: 400 4.5162 2.7788 4.5945 0.0000 -23337.7802 3357.8701 0.0000 0.0000 0.0000 -19968.0206 0.0000 -19968.0206 -19968.0206 0.0000 15693.8906 15753.0631 76706.8265 15693.8906 15753.0631
ENERGY: 800 35.2166 18.1836 12.3139 0.0000 -24656.9896 4027.0494 0.0000 0.0000 0.0000 -20564.2260 0.0000 -20564.2260 -20564.2260 0.0000 18466.4081 18461.0611 76706.8265 18466.4081 18461.0611
ENERGY: 1200 16.6699 9.4408 4.9824 0.0000 -25137.1823 4171.4464 0.0000 0.0000 0.0000 -20934.6428 0.0000 -20934.6428 -20934.6428 0.0000 18961.4584 18965.3182 76706.8265 18961.4584 18965.3182
ENERGY: 1600 6.2419 4.6848 5.0737 0.0000 -25407.4529 4287.4207 0.0000 0.0000 0.0000 -21104.0318 0.0000 -21104.0318 -21104.0318 0.0000 19510.8820 19486.1896 76706.8265 19510.8820 19486.1896
ENERGY: 2000 1.6006 1.5650 5.0977 0.0000 -25522.0757 4315.1878 0.0000 0.0000 0.0000 -21198.6245 0.0000 -21198.6245 -21198.6245 0.0000 19703.7194 19654.0552 76706.8265 19703.7194 19654.0552
TCL: Exiting due to exit command.
Info: NAMD 3.0.1 for Linux-x86_64-multicore
Info: Please visit http://www.ks.uiuc.edu/Research/namd/
Info: for updates, documentation, and support information.
Info: Please cite Phillips et al., J. Chem. Phys. 153:044130 (2020) doi:10.1063/5.0014475
Info: in all publications reporting results obtained with NAMD.
Info: Based on Charm++/Converse 80000 for multicore-linux-x86_64-gcc
Info: Built Mon Oct 14 11:11:06 CDT 2024 by dhardy on athine.ks.uiuc.edu
Info: 1 NAMD  3.0.1  Linux-x86_64-multicore  16    k068  z5358697
Info: Running on 16 processors, 1 nodes, 1 physical nodes.
Info: CPU topology information available.
Info: Charm++/Converse parallel runtime startup completed at 0.006831 s
Info: 1043.48 MB of memory in use based on /proc/self/stat
Info: Configuration file is mobley_242480_equil.namd
Info: Working in the current directory /srv/scratch/z5358697/prod_prep_2/242480
TCL: Running 25000 steps at 30 kelvin.
TCL: Suspending until startup complete.
Info: SIMULATION PARAMETERS:
Info: TIMESTEP               2
Info: NUMBER OF STEPS        0
Info: STEPS PER CYCLE        10
Info: PERIODIC CELL BASIS 1  44.537 0 0
Info: PERIODIC CELL BASIS 2  0 41.628 0
Info: PERIODIC CELL BASIS 3  0 0 41.374
Info: PERIODIC CELL CENTER   0 0 0
Info: WRAPPING WATERS AROUND PERIODIC BOUNDARIES ON OUTPUT.
Info: WRAPPING ALL CLUSTERS AROUND PERIODIC BOUNDARIES ON OUTPUT.
Info: FIRST LDB TIMESTEP     50
Info: LAST LDB TIMESTEP     -1
Info: HOM BACKGROUND SCALING 1
Info: PME BACKGROUND SCALING 1
Info: MIN ATOMS PER PATCH    40
Info: EMPTY PATCH LOAD       40 ATOMS
Info: INITIAL TEMPERATURE    300
Info: CENTER OF MASS MOVING INITIALLY? NO
Info: DIELECTRIC             1
Info: EXCLUDE                SCALED ONE-FOUR
Info: 1-4 ELECTROSTATICS SCALED BY 0.833333
Info: MODIFIED 1-4 VDW PARAMETERS WILL BE USED
Info: DCD FILENAME           mobley_242480_equil.dcd
Info: DCD FREQUENCY          5000
Info: DCD FIRST STEP         5000
Info: DCD FILE WILL CONTAIN UNIT CELL DATA
Info: XST FILENAME           mobley_242480_equil.xst
Info: XST FREQUENCY          5000
Info: NO VELOCITY DCD OUTPUT
Info: NO FORCE DCD OUTPUT
Info: OUTPUT FILENAME        mobley_242480_equil
Info: BINARY OUTPUT FILES WILL BE USED
Info: RESTART FILENAME       mobley_242480_equil.restart
Info: RESTART FREQUENCY      5000
Info: BINARY RESTART FILES WILL BE USED
Info: CUTOFF                 9
Info: PAIRLIST DISTANCE      11
Info: PAIRLIST SHRINK RATE   0.01
Info: PAIRLIST GROW RATE     0.01
Info: PAIRLIST TRIGGER       0.3
Info: PAIRLISTS PER CYCLE    2
Info: PAIRLISTS ENABLED
Info: MARGIN                 8
Info: HYDROGEN GROUP CUTOFF  2.5
Info: PATCH DIMENSION        21.5
Info: ENERGY OUTPUT STEPS    5000
Info: ENERGY EVALUATION STEPS    5000
Info: OUTPUT ENERGY PRECISION 4
Info: CROSSTERM ENERGY INCLUDED IN DIHEDRAL
Info: TIMING OUTPUT STEPS    50000
Info: PRESSURE OUTPUT STEPS  5000
Info: LANGEVIN DYNAMICS ACTIVE
Info: LANGEVIN TEMPERATURE   30
Info: LANGEVIN USING BBK INTEGRATOR
Info: LANGEVIN DAMPING COEFFICIENT IS 1 INVERSE PS
Info: LANGEVIN DYNAMICS APPLIED TO HYDROGENS
Info: LANGEVIN PISTON PRESSURE CONTROL ACTIVE
Info:        TARGET PRESSURE IS 1.01325 BAR
Info:     OSCILLATION PERIOD IS 50 FS
Info:             DECAY TIME IS 25 FS
Info:     PISTON TEMPERATURE IS 300 K
Info:       PRESSURE CONTROL IS GROUP-BASED
Info:    INITIAL STRAIN RATE IS 0 0 0
Info:       CELL FLUCTUATION IS ISOTROPIC
Info: PARTICLE MESH EWALD (PME) ACTIVE
Info: PME TOLERANCE               1e-06
Info: PME EWALD COEFFICIENT       0.348832
Info: PME INTERPOLATION ORDER     4
Info: PME GRID DIMENSIONS         48 44 44
Info: PME MAXIMUM GRID SPACING    1
Info: FULL ELECTROSTATIC EVALUATION FREQUENCY      2
Info: USING VERLET I (r-RESPA) MTS SCHEME.
Info: C1 SPLITTING OF LONG RANGE ELECTROSTATICS
Info: PLACING ATOMS IN PATCHES BY HYDROGEN GROUPS
Info: RIGID BONDS TO HYDROGEN : ALL
Info:         ERROR TOLERANCE : 1e-08
Info:          MAX ITERATIONS : 100
Info: RIGID WATER USING SETTLE ALGORITHM
Info: RANDOM NUMBER SEED     1741320775
Info: USE HYDROGEN BONDS?    NO
Info: Using AMBER format force field!
Info: AMBER PARM FILE        mobley_242480.prmtop
Info: COORDINATE PDB         mobley_242480.pdb
Info: Exclusions will be read from PARM file!
Info: SCNB (VDW SCALING)     2
Info: USING ARITHMETIC MEAN TO COMBINE L-J SIGMA PARAMETERS
Info: BINARY COORDINATES     mobley_242480_min.coor
Info: SUMMARY OF PARAMETERS:
Info: 8 BONDS
Info: 8 ANGLES
Info: 6 DIHEDRAL
Info: 0 IMPROPER
Info: 0 CROSSTERM
Info: 0 VDW
Info: 28 VDW_PAIRS
Info: 0 NBTHOLE_PAIRS
Info: STRUCTURE SUMMARY:
Info: 5611 ATOMS
Info: 5613 BONDS
Info: 48 ANGLES
Info: 80 DIHEDRALS
Info: 0 IMPROPERS
Info: 0 CROSSTERMS
Info: 5724 EXCLUSIONS
Info: 5593 RIGID BONDS
Info: 11240 DEGREES OF FREEDOM
Info: 1879 HYDROGEN GROUPS
Info: 3 ATOMS IN LARGEST HYDROGEN GROUP
Info: 1879 MIGRATION GROUPS
Info: 3 ATOMS IN LARGEST MIGRATION GROUP
Info: TOTAL MASS = 33766 amu
Info: TOTAL CHARGE = 0.000299968 e
Info: MASS DENSITY = 0.730979 g/cm^3
Info: ATOM DENSITY = 0.0731486 atoms/A^3
Info: ADDED 0 IMPLICIT EXCLUSIONS
Info: NONBONDED TABLE R-SQUARED SPACING: 0.0625
Info: NONBONDED TABLE SIZE: 705 POINTS
Info: REMOVING COM VELOCITY 0.0978058 0.0734958 0.0203646
TCL: Running for 25000 steps
ETITLE: TS BOND ANGLE DIHED IMPRP ELECT VDW BOUNDARY MISC KINETIC TOTAL TEMP POTENTIAL TOTAL3 TEMPAVG PRESSURE GPRESSURE VOLUME PRESSAVG GPRESSAVG
ENERGY: 0 1.6006 1.5650 5.0977 0.0000 -25522.0757 4315.1878 0.0000 0.0000 3290.5020 -17908.1225 294.6363 -21198.6245 -17907.4855 294.6363 -162.4270 -120.9380 76706.8265 -162.4270 -120.9380
ENERGY: 5000 2.6214 2.9137 4.3245 0.0000 -26849.5215 4560.3980 0.0000 0.0000 346.4363 -21932.8276 31.0204 -22279.2639 -21932.1554 48.0780 -486.0148 -412.1487 54220.4099 -0.1429 0.2334
ENERGY: 10000 3.0661 2.1971 3.9562 0.0000 -26856.5767 4534.4385 0.0000 0.0000 339.6224 -21973.2964 30.4103 -22312.9188 -21972.3102 30.2317 -688.2471 -628.3962 54338.2369 2.0099 1.8485
ENERGY: 15000 1.9787 2.1267 4.3303 0.0000 -27172.2936 4836.2340 0.0000 0.0000 332.0820 -21995.5419 29.7351 -22327.6239 -21994.8293 29.9691 812.3382 874.8616 53629.9591 1.7192 1.7470
ENERGY: 20000 2.5286 2.4476 3.6967 0.0000 -27012.3456 4654.6240 0.0000 0.0000 336.9020 -22012.1466 30.1667 -22349.0486 -22011.0579 30.3304 -132.8891 -67.0920 53915.1990 -1.0358 -0.9507
ENERGY: 25000 2.2203 2.7834 4.8110 0.0000 -27078.6536 4716.1261 0.0000 0.0000 334.6721 -22018.0406 29.9670 -22352.7127 -22017.0833 30.2516 177.9132 218.4361 53937.4918 2.1880 2.3192
TCL: Running 25000 steps at 60 kelvin.
TCL: Setting parameter langevinTemp to 60
TCL: Running for 25000 steps
ETITLE: TS BOND ANGLE DIHED IMPRP ELECT VDW BOUNDARY MISC KINETIC TOTAL TEMP POTENTIAL TOTAL3 TEMPAVG PRESSURE GPRESSURE VOLUME PRESSAVG GPRESSAVG
ENERGY: 25000 2.2203 2.7834 4.8110 0.0000 -27078.6536 4716.1261 0.0000 0.0000 334.5038 -22018.2089 29.9520 -22352.7127 -22017.5278 29.9520 165.6951 218.5216 53937.4918 165.6951 218.5216
ENERGY: 30000 2.9050 2.7631 6.2373 0.0000 -26517.9450 4424.9506 0.0000 0.0000 680.7190 -21400.3699 60.9526 -22081.0889 -21398.4771 57.1130 -636.1353 -559.3448 54244.1180 2.6388 2.7868
ENERGY: 35000 3.3086 2.1462 6.2518 0.0000 -26482.8995 4396.9244 0.0000 0.0000 675.2145 -21399.0541 60.4597 -22074.2686 -21396.8785 60.2112 -753.7360 -698.3962 54517.1640 9.1936 8.9356
ENERGY: 40000 1.8209 2.6487 6.1103 0.0000 -26548.5359 4444.8262 0.0000 0.0000 655.4497 -21437.6800 58.6899 -22093.1297 -21435.5962 59.9854 -572.1075 -517.9522 54368.7464 5.3725 5.8457
ENERGY: 45000 3.0930 3.4849 4.6523 0.0000 -26671.1270 4534.8792 0.0000 0.0000 670.0092 -21455.0085 59.9936 -22125.0177 -21452.7926 60.1212 -214.5987 -147.0343 54049.8498 2.9291 2.9810
ENERGY: 50000 2.6671 1.8196 5.7621 0.0000 -26859.5332 4701.1162 0.0000 0.0000 664.4958 -21483.6723 59.4999 -22148.1681 -21482.0610 60.3838 504.0123 584.2478 53746.7824 5.3800 5.3313
TCL: Running 25000 steps at 90 kelvin.
TCL: Setting parameter langevinTemp to 90
TCL: Running for 25000 steps
ETITLE: TS BOND ANGLE DIHED IMPRP ELECT VDW BOUNDARY MISC KINETIC TOTAL TEMP POTENTIAL TOTAL3 TEMPAVG PRESSURE GPRESSURE VOLUME PRESSAVG GPRESSAVG
ENERGY: 50000 2.6671 1.8196 5.7621 0.0000 -26859.5332 4701.1162 0.0000 0.0000 664.1734 -21483.9947 59.4710 -22148.1681 -21482.6712 59.4710 532.3179 584.1558 53746.7824 532.3179 584.1558
ENERGY: 55000 2.9478 2.5449 7.9068 0.0000 -26234.9150 4419.9151 0.0000 0.0000 1011.4541 -20790.1462 90.5671 -21801.6004 -20787.2785 87.2704 -73.7507 4.8207 54557.6973 3.0996 3.3830
ENERGY: 60000 1.4106 3.7526 5.9829 0.0000 -26315.0159 4529.1364 0.0000 0.0000 1010.5469 -20764.1865 90.4858 -21774.7334 -20761.3764 90.1141 474.1167 534.8231 54439.0517 7.5193 7.8009
ENERGY: 65000 3.5127 3.8072 7.6693 0.0000 -26466.1905 4558.0679 0.0000 0.0000 1024.4041 -20868.7293 91.7266 -21893.1334 -20866.0073 90.5137 350.6921 402.4706 54404.6107 2.0522 1.8640
ENERGY: 70000 4.9974 4.7026 5.0699 0.0000 -26111.3647 4237.5603 0.0000 0.0000 1036.4845 -20822.5500 92.8083 -21859.0345 -20820.4951 89.9484 -1117.4177 -1072.0957 55048.5039 -2.8867 -2.7547
ENERGY: 75000 5.3321 2.8862 7.1162 0.0000 -26204.3063 4292.1211 0.0000 0.0000 993.4911 -20903.3596 88.9586 -21896.8507 -20900.9211 90.5505 -922.2649 -876.4540 54850.1506 1.5344 1.6334
TCL: Running 25000 steps at 120 kelvin.
TCL: Setting parameter langevinTemp to 120
TCL: Running for 25000 steps
ETITLE: TS BOND ANGLE DIHED IMPRP ELECT VDW BOUNDARY MISC KINETIC TOTAL TEMP POTENTIAL TOTAL3 TEMPAVG PRESSURE GPRESSURE VOLUME PRESSAVG GPRESSAVG
ENERGY: 75000 5.3321 2.8862 7.1162 0.0000 -26204.3063 4292.1211 0.0000 0.0000 992.9934 -20903.8573 88.9141 -21896.8507 -20901.7451 88.9141 -937.0237 -876.4052 54850.1506 -937.0237 -876.4052
ENERGY: 80000 4.2657 4.4031 4.4400 0.0000 -25762.3939 4244.4717 0.0000 0.0000 1335.9623 -20168.8510 119.6240 -21504.8134 -20165.3145 117.1468 -394.4584 -348.1484 54927.2389 7.4654 7.1788
ENERGY: 85000 3.6450 3.2607 5.7441 0.0000 -25680.7593 4069.5097 0.0000 0.0000 1346.0875 -20252.5124 120.5306 -21598.5999 -20249.1120 119.5808 -1296.1833 -1219.6959 55252.4038 4.9821 4.9952
ENERGY: 90000 4.2048 5.7855 5.2056 0.0000 -26092.1760 4463.3868 0.0000 0.0000 1341.1832 -20272.4102 120.0915 -21613.5934 -20268.3008 120.0382 390.4204 451.2680 54495.0881 -1.9046 -2.0954
ENERGY: 95000 5.1160 4.3501 6.3418 0.0000 -26091.4888 4442.7493 0.0000 0.0000 1371.3154 -20261.6162 122.7896 -21632.9316 -20257.6693 120.6917 331.8122 379.9901 54436.6099 4.1497 4.0469
ENERGY: 100000 4.2091 3.3330 5.8927 0.0000 -26126.2026 4452.2850 0.0000 0.0000 1323.6730 -20336.8098 118.5236 -21660.4828 -20334.4910 120.9912 266.1452 329.6210 54572.9575 2.3209 2.3381
TCL: Running 25000 steps at 150 kelvin.
TCL: Setting parameter langevinTemp to 150
TCL: Running for 25000 steps
ETITLE: TS BOND ANGLE DIHED IMPRP ELECT VDW BOUNDARY MISC KINETIC TOTAL TEMP POTENTIAL TOTAL3 TEMPAVG PRESSURE GPRESSURE VOLUME PRESSAVG GPRESSAVG
ENERGY: 100000 4.2091 3.3330 5.8927 0.0000 -26126.2026 4452.2850 0.0000 0.0000 1323.0118 -20337.4710 118.4644 -21660.4828 -20334.7114 118.4644 265.2637 328.8782 54572.9575 265.2637 328.8782
ENERGY: 105000 5.7104 6.7300 4.0062 0.0000 -25326.2260 4093.9963 0.0000 0.0000 1674.4077 -19541.3754 149.9289 -21215.7831 -19538.8080 146.0861 -529.9355 -495.4588 55405.3742 0.2509 0.4874
ENERGY: 110000 2.7328 6.1744 8.5554 0.0000 -25579.2704 4306.0264 0.0000 0.0000 1692.5601 -19563.2212 151.5543 -21255.7813 -19560.3817 150.2133 545.7492 582.5912 54750.0326 -3.0323 -3.1271
ENERGY: 115000 4.4071 6.1222 6.1235 0.0000 -25497.4616 4169.0533 0.0000 0.0000 1684.9068 -19626.8487 150.8690 -21311.7555 -19622.0022 149.5978 -197.4300 -134.8513 54693.1653 4.0804 3.8971
ENERGY: 120000 6.2515 6.9193 6.8367 0.0000 -25410.8617 4074.3314 0.0000 0.0000 1634.1566 -19682.3661 146.3247 -21316.5228 -19678.9961 151.2950 -795.2059 -711.4833 55029.8388 3.4728 3.5361
ENERGY: 125000 4.7713 4.1277 8.2033 0.0000 -25451.7836 4161.5024 0.0000 0.0000 1685.2733 -19587.9056 150.9018 -21273.1789 -19585.4474 150.6198 -296.2612 -254.8556 54906.3165 2.3982 2.3331
TCL: Running 50000 steps at 180 kelvin.
TCL: Setting parameter langevinTemp to 180
TCL: Running for 50000 steps
ETITLE: TS BOND ANGLE DIHED IMPRP ELECT VDW BOUNDARY MISC KINETIC TOTAL TEMP POTENTIAL TOTAL3 TEMPAVG PRESSURE GPRESSURE VOLUME PRESSAVG GPRESSAVG
ENERGY: 125000 4.7713 4.1277 8.2033 0.0000 -25451.7836 4161.5024 0.0000 0.0000 1684.4369 -19588.7421 150.8269 -21273.1789 -19585.4049 150.8269 -318.9339 -255.5105 54906.3165 -318.9339 -255.5105
ENERGY: 135000 4.1584 8.0530 7.0304 0.0000 -24817.3480 3999.9986 0.0000 0.0000 2031.5322 -18766.5754 181.9063 -20798.1077 -18761.5905 179.7162 202.9723 230.8422 54588.5810 1.4365 1.2217
ENERGY: 145000 5.5908 4.7820 7.9120 0.0000 -24784.7526 3946.5835 0.0000 0.0000 2012.6575 -18807.2268 180.2162 -20819.8843 -18803.5863 181.2809 -211.6595 -146.7268 54829.2148 -0.5315 -0.4787
ENERGY: 155000 6.4547 5.6543 8.2549 0.0000 -24899.9992 4049.5133 0.0000 0.0000 2045.2495 -18784.8724 183.1346 -20830.1219 -18781.2142 178.9285 171.4226 278.5456 54726.1357 1.1002 1.0676
ENERGY: 165000 5.2201 3.0254 5.9224 0.0000 -24891.6910 3977.2777 0.0000 0.0000 1958.6238 -18941.6216 175.3780 -20900.2455 -18936.5366 178.7003 -256.0319 -207.6901 54947.0656 -0.3290 -0.3074
ENERGY: 175000 4.7806 6.2004 10.4014 0.0000 -24924.6746 4049.2114 0.0000 0.0000 1964.1362 -18889.9447 175.8716 -20854.0809 -18884.3487 178.4824 94.6638 195.0117 54782.2084 -0.1027 -0.0995
TCL: Running 50000 steps at 210 kelvin.
TCL: Setting parameter langevinTemp to 210
TCL: Running for 50000 steps
ETITLE: TS BOND ANGLE DIHED IMPRP ELECT VDW BOUNDARY MISC KINETIC TOTAL TEMP POTENTIAL TOTAL3 TEMPAVG PRESSURE GPRESSURE VOLUME PRESSAVG GPRESSAVG
ENERGY: 175000 4.7806 6.2004 10.4014 0.0000 -24924.6746 4049.2114 0.0000 0.0000 1963.1364 -18890.9445 175.7821 -20854.0809 -18887.0520 175.7821 132.7448 194.5702 54782.2084 132.7448 194.5702
ENERGY: 185000 6.1583 3.4727 6.2377 0.0000 -23622.4652 3523.2608 0.0000 0.0000 2350.9107 -17732.4250 210.5039 -20083.3357 -17727.7280 209.9619 -572.0606 -492.4987 54807.7345 5.7281 5.8716
ENERGY: 195000 9.5574 5.5632 10.6262 0.0000 -23569.9567 3523.0796 0.0000 0.0000 2268.6970 -17752.4334 203.1424 -20021.1303 -17749.0874 211.0899 -593.8531 -529.6747 54989.7151 6.2818 6.6654
ENERGY: 205000 5.9841 9.2847 3.1590 0.0000 -23706.4676 3671.1020 0.0000 0.0000 2297.7435 -17719.1943 205.7433 -20016.9378 -17715.2722 210.8532 314.5111 340.1215 54794.2057 3.0855 3.7992
ENERGY: 215000 5.8080 7.9239 6.1265 0.0000 -23758.5317 3756.4708 0.0000 0.0000 2323.8754 -17658.3271 208.0832 -19982.2025 -17654.3800 210.6863 785.8900 876.7037 54230.7137 5.1171 5.1120
ENERGY: 225000 5.8339 5.4257 10.1076 0.0000 -23737.4086 3691.7346 0.0000 0.0000 2328.6840 -17695.6229 208.5137 -20024.3069 -17689.1945 209.4861 269.4326 357.9839 54667.2300 7.5105 7.0050
TCL: Running 50000 steps at 240 kelvin.
TCL: Setting parameter langevinTemp to 240
TCL: Running for 50000 steps
ETITLE: TS BOND ANGLE DIHED IMPRP ELECT VDW BOUNDARY MISC KINETIC TOTAL TEMP POTENTIAL TOTAL3 TEMPAVG PRESSURE GPRESSURE VOLUME PRESSAVG GPRESSAVG
ENERGY: 225000 5.8339 5.4257 10.1076 0.0000 -23737.4086 3691.7346 0.0000 0.0000 2327.5052 -17696.8016 208.4082 -20024.3069 -17692.4288 208.4082 286.2457 358.7085 54667.2300 286.2457 358.7085
ENERGY: 235000 10.0345 7.2419 10.9135 0.0000 -22403.9806 3208.8597 0.0000 0.0000 2662.3570 -16504.5740 238.3913 -19166.9310 -16499.5070 239.2621 -256.9192 -162.2207 55215.8844 0.5992 0.8771
ENERGY: 245000 5.9061 9.1322 6.9928 0.0000 -22569.5519 3428.1587 0.0000 0.0000 2717.3226 -16402.0393 243.3130 -19119.3619 -16395.1653 241.7611 871.3670 934.6867 54973.2981 1.8518 1.1053
ENERGY: 255000 5.6008 7.1134 6.0837 0.0000 -22404.7959 3220.8601 0.0000 0.0000 2638.7040 -16526.4339 236.2734 -19165.1379 -16519.3205 239.5180 -348.9740 -279.9878 55670.1970 4.3710 4.3848
ENERGY: 265000 10.2233 10.1457 8.6475 0.0000 -22533.5814 3324.7318 0.0000 0.0000 2696.0586 -16483.7745 241.4090 -19179.8331 -16476.7922 239.7064 62.1804 126.4533 55481.6909 6.0098 5.4982
ENERGY: 275000 7.0611 10.8737 10.0438 0.0000 -22298.1357 3113.9136 0.0000 0.0000 2681.5699 -16474.6736 240.1116 -19156.2435 -16466.6734 237.7274 -702.1611 -612.8464 55550.1084 1.1772 1.3819
TCL: Running 50000 steps at 270 kelvin.
TCL: Setting parameter langevinTemp to 270
TCL: Running for 50000 steps
ETITLE: TS BOND ANGLE DIHED IMPRP ELECT VDW BOUNDARY MISC KINETIC TOTAL TEMP POTENTIAL TOTAL3 TEMPAVG PRESSURE GPRESSURE VOLUME PRESSAVG GPRESSAVG
ENERGY: 275000 7.0611 10.8737 10.0438 0.0000 -22298.1357 3113.9136 0.0000 0.0000 2680.2018 -16476.0418 239.9891 -19156.2435 -16471.7230 239.9891 -695.9212 -612.3002 55550.1084 -695.9212 -612.3002
ENERGY: 285000 3.1574 8.1874 10.2628 0.0000 -21594.0874 3152.1174 0.0000 0.0000 3050.8933 -15369.4692 273.1814 -18420.3624 -15363.9818 270.2319 541.2259 641.7165 56363.6947 -1.9544 -2.1626
ENERGY: 295000 6.3797 5.0819 8.9477 0.0000 -21426.0731 3097.4881 0.0000 0.0000 3069.1907 -15238.9850 274.8198 -18308.1757 -15231.4736 271.0327 689.3296 775.3195 55803.3267 1.8529 1.8386
ENERGY: 305000 4.5483 6.0965 9.4288 0.0000 -21507.7432 3087.1285 0.0000 0.0000 2966.9992 -15433.5419 265.6694 -18400.5412 -15432.0059 269.3814 389.9302 480.7056 56007.7958 3.6906 3.4967
ENERGY: 315000 5.5365 6.0079 11.3426 0.0000 -21353.0445 3010.5552 0.0000 0.0000 3017.2146 -15302.3878 270.1657 -18319.6024 -15296.4230 271.2889 369.0901 420.8113 56092.0216 4.2301 4.0258
ENERGY: 325000 4.4292 7.5617 10.1170 0.0000 -21502.3097 3051.9957 0.0000 0.0000 3048.8998 -15379.3063 273.0029 -18428.2060 -15375.4101 271.6576 266.4960 355.7577 56366.1305 7.0536 6.7690
TCL: Running 1000000 steps at 300 kelvin.
TCL: Setting parameter langevinTemp to 300
TCL: Running for 1000000 steps
ETITLE: TS BOND ANGLE DIHED IMPRP ELECT VDW BOUNDARY MISC KINETIC TOTAL TEMP POTENTIAL TOTAL3 TEMPAVG PRESSURE GPRESSURE VOLUME PRESSAVG GPRESSAVG
ENERGY: 325000 4.4292 7.5617 10.1170 0.0000 -21502.3097 3051.9957 0.0000 0.0000 3047.4046 -15380.8014 272.8690 -18428.2060 -15376.2672 272.8690 273.0113 355.0751 56366.1305 273.0113 355.0751
ENERGY: 525000 8.7865 9.4052 9.0147 0.0000 -20431.4463 2672.2573 0.0000 0.0000 3298.3683 -14433.6143 295.3406 -17731.9826 -14424.7381 297.0899 -499.8472 -367.3712 57277.3484 2.7944 3.2654
ENERGY: 725000 8.4177 5.7950 7.8138 0.0000 -20586.7108 2863.7420 0.0000 0.0000 3369.1831 -14331.7592 301.6815 -17700.9423 -14328.2424 299.9492 296.8532 408.3879 57664.7103 1.2944 1.3310
ENERGY: 925000 10.4073 9.2691 10.0401 0.0000 -20166.8529 2523.8561 0.0000 0.0000 3351.4509 -14261.8294 300.0937 -17613.2803 -14252.8888 302.4848 -887.4183 -804.6405 57936.3690 3.8290 3.4850
ENERGY: 1125000 7.7526 7.3611 11.5708 0.0000 -20192.8567 2664.5320 0.0000 0.0000 3339.8184 -14161.8218 299.0522 -17501.6402 -14155.4898 300.0903 -221.5516 -172.3326 58496.9609 2.1880 1.3558
ENERGY: 1325000 7.8854 6.8262 7.8585 0.0000 -20286.9891 2712.5799 0.0000 0.0000 3343.6120 -14208.2270 299.3918 -17551.8390 -14200.2557 300.0005 -165.6866 -65.3121 58135.5209 -2.0165 -2.2017
TCL: Exiting due to exit command.
