Info: SIMULATION PARAMETERS:
Info: TIMESTEP               2
Info: NUMBER OF STEPS        0
Info: STEPS PER CYCLE        10
Info: PERIODIC CELL BASIS 1  36.281 0 0
Info: PERIODIC CELL BASIS 2  0 34.696 0
Info: PERIODIC CELL BASIS 3  0 0 35.723
Info: PERIODIC CELL CENTER   0 0 0
Info: WRAPPING WATERS AROUND PERIODIC BOUNDARIES ON OUTPUT.
Info: WRAPPING ALL CLUSTERS AROUND PERIODIC BOUNDARIES ON OUTPUT.
Info: FIRST LDB TIMESTEP     50
Info: LAST LDB TIMESTEP     -1
Info: HOM BACKGROUND SCALING 1
Info: PME BACKGROUND SCALING 1
Info: MIN ATOMS PER PATCH    40
Info: EMPTY PATCH LOAD       40 ATOMS
Info: INITIAL TEMPERATURE    300
Info: CENTER OF MASS MOVING INITIALLY? NO
Info: DIELECTRIC             1
Info: EXCLUDE                SCALED ONE-FOUR
Info: 1-4 ELECTROSTATICS SCALED BY 0.833333
Info: MODIFIED 1-4 VDW PARAMETERS WILL BE USED
Info: DCD FILENAME           mobley_7794077_equil.dcd
Info: DCD FREQUENCY          100000
Info: DCD FIRST STEP         100000
Info: DCD FILE WILL CONTAIN UNIT CELL DATA
Info: XST FILENAME           mobley_7794077_equil.xst
Info: XST FREQUENCY          100000
Info: NO VELOCITY DCD OUTPUT
Info: NO FORCE DCD OUTPUT
Info: OUTPUT FILENAME        mobley_7794077_equil
Info: BINARY OUTPUT FILES WILL BE USED
Info: RESTART FILENAME       mobley_7794077_equil.restart
Info: RESTART FREQUENCY      100000
Info: BINARY RESTART FILES WILL BE USED
Info: CUTOFF                 9
Info: PAIRLIST DISTANCE      11
Info: PAIRLIST SHRINK RATE   0.01
Info: PAIRLIST GROW RATE     0.01
Info: PAIRLIST TRIGGER       0.3
Info: PAIRLISTS PER CYCLE    2
Info: PAIRLISTS ENABLED
Info: MARGIN                 8
Info: HYDROGEN GROUP CUTOFF  2.5
Info: PATCH DIMENSION        21.5
Info: ENERGY OUTPUT STEPS    100000
Info: ENERGY EVALUATION STEPS    100000
Info: OUTPUT ENERGY PRECISION 4
Info: CROSSTERM ENERGY INCLUDED IN DIHEDRAL
Info: TIMING OUTPUT STEPS    1000000
Info: PRESSURE OUTPUT STEPS  100000
Info: FIXED ATOMS ACTIVE
Info: LANGEVIN DYNAMICS ACTIVE
Info: LANGEVIN TEMPERATURE   30
Info: LANGEVIN USING BBK INTEGRATOR
Info: LANGEVIN DAMPING COEFFICIENT IS 1 INVERSE PS
Info: LANGEVIN DYNAMICS APPLIED TO HYDROGENS
Info: LANGEVIN PISTON PRESSURE CONTROL ACTIVE
Info:        TARGET PRESSURE IS 1.01325 BAR
Info:     OSCILLATION PERIOD IS 50 FS
Info:             DECAY TIME IS 25 FS
Info:     PISTON TEMPERATURE IS 300 K
Info:       PRESSURE CONTROL IS GROUP-BASED
Info:    INITIAL STRAIN RATE IS 0 0 0
Info:       CELL FLUCTUATION IS ISOTROPIC
Info: PARTICLE MESH EWALD (PME) ACTIVE
Info: PME TOLERANCE               1e-06
Info: PME EWALD COEFFICIENT       0.348832
Info: PME INTERPOLATION ORDER     4
Info: PME GRID DIMENSIONS         40 36 36
Info: PME MAXIMUM GRID SPACING    1
Info: FULL ELECTROSTATIC EVALUATION FREQUENCY      2
Info: USING VERLET I (r-RESPA) MTS SCHEME.
Info: C1 SPLITTING OF LONG RANGE ELECTROSTATICS
Info: PLACING ATOMS IN PATCHES BY HYDROGEN GROUPS
Info: RIGID BONDS TO HYDROGEN : ALL
Info:         ERROR TOLERANCE : 1e-08
Info:          MAX ITERATIONS : 100
Info: RIGID WATER USING SETTLE ALGORITHM
Info: RANDOM NUMBER SEED     1742215557
Info: USE HYDROGEN BONDS?    NO
Info: Using AMBER format force field!
Info: AMBER PARM FILE        mobley_7794077.prmtop
Info: COORDINATE PDB         mobley_7794077.pdb
Info: Exclusions will be read from PARM file!
Info: SCNB (VDW SCALING)     2
Info: USING ARITHMETIC MEAN TO COMBINE L-J SIGMA PARAMETERS
Info: BINARY COORDINATES     mobley_7794077_min.coor
Info: SUMMARY OF PARAMETERS:
Info: 11 BONDS
Info: 16 ANGLES
Info:   16 HARMONIC
Info:   0 COSINE-BASED
Info: 8 DIHEDRAL
Info: 0 IMPROPER
Info: 0 CROSSTERM
Info: 0 VDW
Info: 45 VDW_PAIRS
Info: 0 NBTHOLE_PAIRS
Info: STRUCTURE SUMMARY:
Info: 2988 ATOMS
Info: 2988 BONDS
Info: 24 ANGLES
Info: 37 DIHEDRALS
Info: 0 IMPROPERS
Info: 0 CROSSTERMS
Info: 3039 EXCLUSIONS
Info: 15 FIXED ATOMS
Info: 2976 RIGID BONDS
Info: 3 RIGID BONDS BETWEEN FIXED ATOMS
Info: 5946 DEGREES OF FREEDOM
Info: 1003 HYDROGEN GROUPS
Info: 3 ATOMS IN LARGEST HYDROGEN GROUP
Info: 1003 MIGRATION GROUPS
Info: 3 ATOMS IN LARGEST MIGRATION GROUP
Info: 12 HYDROGEN GROUPS WITH ALL ATOMS FIXED
Info: TOTAL MASS = 18034 amu
Info: TOTAL CHARGE = 9.98527e-05 e
Info: MASS DENSITY = 0.665953 g/cm^3
Info: ATOM DENSITY = 0.0664468 atoms/A^3
Info: ADDED 0 IMPLICIT EXCLUSIONS
Info: NONBONDED TABLE R-SQUARED SPACING: 0.0625
Info: NONBONDED TABLE SIZE: 705 POINTS
Info: REMOVING COM VELOCITY 0.161976 -0.0516292 -0.0767325
TCL: Running for 100000 steps
ETITLE: TS BOND ANGLE DIHED IMPRP ELECT VDW BOUNDARY MISC KINETIC TOTAL TEMP POTENTIAL TOTAL3 TEMPAVG PRESSURE GPRESSURE VOLUME PRESSAVG GPRESSAVG
ENERGY: 0 0.0000 0.0000 0.0000 0.0000 -13980.4231 2415.6117 0.0000 0.0000 1810.6407 -9754.1707 306.4769 -11564.8114 -9753.8118 306.4769 474.5277 509.8872 44968.3116 474.5277 509.8872
ENERGY: 100000 0.0000 0.0000 0.0000 0.0000 -14794.0974 2660.9990 0.0000 0.0000 175.4282 -11957.6702 29.6937 -12133.0984 -11957.1843 30.9428 1274.7522 1308.6221 28906.8629 2.4456 2.4730
TCL: Running 100000 steps at 60 kelvin.
TCL: Setting parameter langevinTemp to 60
TCL: Running for 100000 steps
ETITLE: TS BOND ANGLE DIHED IMPRP ELECT VDW BOUNDARY MISC KINETIC TOTAL TEMP POTENTIAL TOTAL3 TEMPAVG PRESSURE GPRESSURE VOLUME PRESSAVG GPRESSAVG
ENERGY: 100000 0.0000 0.0000 0.0000 0.0000 -14794.0974 2660.9990 0.0000 0.0000 175.3375 -11957.7609 29.6784 -12133.0984 -11957.4656 29.6784 1260.6972 1308.7933 28906.8629 1260.6972 1308.7933
ENERGY: 200000 0.0000 0.0000 0.0000 0.0000 -14515.4448 2476.0369 0.0000 0.0000 350.8235 -11688.5843 59.3819 -12039.4079 -11687.7214 59.8963 149.8596 197.4266 29002.0379 4.5693 4.6750
TCL: Running 100000 steps at 90 kelvin.
TCL: Setting parameter langevinTemp to 90
TCL: Running for 100000 steps
ETITLE: TS BOND ANGLE DIHED IMPRP ELECT VDW BOUNDARY MISC KINETIC TOTAL TEMP POTENTIAL TOTAL3 TEMPAVG PRESSURE GPRESSURE VOLUME PRESSAVG GPRESSAVG
ENERGY: 200000 0.0000 0.0000 0.0000 0.0000 -14515.4448 2476.0369 0.0000 0.0000 350.6488 -11688.7591 59.3523 -12039.4079 -11687.9042 59.3523 136.9888 197.5888 29002.0379 136.9888 197.5888
ENERGY: 300000 0.0000 0.0000 0.0000 0.0000 -14379.8521 2366.4307 0.0000 0.0000 541.1143 -11472.3072 91.5913 -12013.4214 -11470.6102 89.7976 -532.3785 -491.0800 28955.9238 4.7481 4.8265
TCL: Running 100000 steps at 120 kelvin.
TCL: Setting parameter langevinTemp to 120
TCL: Running for 100000 steps
ETITLE: TS BOND ANGLE DIHED IMPRP ELECT VDW BOUNDARY MISC KINETIC TOTAL TEMP POTENTIAL TOTAL3 TEMPAVG PRESSURE GPRESSURE VOLUME PRESSAVG GPRESSAVG
ENERGY: 300000 0.0000 0.0000 0.0000 0.0000 -14379.8521 2366.4307 0.0000 0.0000 540.8481 -11472.5733 91.5463 -12013.4214 -11471.1655 91.5463 -545.9872 -490.8997 28955.9238 -545.9872 -490.8997
ENERGY: 400000 0.0000 0.0000 0.0000 0.0000 -14255.8174 2408.2810 0.0000 0.0000 721.3369 -11126.1995 122.0966 -11847.5364 -11124.2235 119.9816 449.3455 507.2551 29122.6788 4.0434 3.9416
TCL: Running 100000 steps at 150 kelvin.
TCL: Setting parameter langevinTemp to 150
TCL: Running for 100000 steps
ETITLE: TS BOND ANGLE DIHED IMPRP ELECT VDW BOUNDARY MISC KINETIC TOTAL TEMP POTENTIAL TOTAL3 TEMPAVG PRESSURE GPRESSURE VOLUME PRESSAVG GPRESSAVG
ENERGY: 400000 0.0000 0.0000 0.0000 0.0000 -14255.8174 2408.2810 0.0000 0.0000 720.9766 -11126.5597 122.0356 -11847.5363 -11125.3225 122.0356 452.7674 507.2578 29122.6788 452.7674 507.2578
ENERGY: 500000 0.0000 0.0000 0.0000 0.0000 -13993.0617 2305.6786 0.0000 0.0000 884.4001 -10802.9830 149.6974 -11687.3831 -10800.4469 149.9289 68.8029 68.2532 29372.1102 4.2458 4.3352
TCL: Running 100000 steps at 180 kelvin.
TCL: Setting parameter langevinTemp to 180
TCL: Running for 100000 steps
ETITLE: TS BOND ANGLE DIHED IMPRP ELECT VDW BOUNDARY MISC KINETIC TOTAL TEMP POTENTIAL TOTAL3 TEMPAVG PRESSURE GPRESSURE VOLUME PRESSAVG GPRESSAVG
ENERGY: 500000 0.0000 0.0000 0.0000 0.0000 -13993.0617 2305.6786 0.0000 0.0000 883.9617 -10803.4214 149.6232 -11687.3831 -10801.4788 149.6232 17.5248 68.6327 29372.1102 17.5248 68.6327
ENERGY: 600000 0.0000 0.0000 0.0000 0.0000 -13392.6815 2047.0926 0.0000 0.0000 1053.0317 -10292.5571 178.2407 -11345.5888 -10291.7206 179.7324 -1051.3185 -945.0159 29816.9913 4.3910 4.4255
TCL: Running 100000 steps at 210 kelvin.
TCL: Setting parameter langevinTemp to 210
TCL: Running for 100000 steps
ETITLE: TS BOND ANGLE DIHED IMPRP ELECT VDW BOUNDARY MISC KINETIC TOTAL TEMP POTENTIAL TOTAL3 TEMPAVG PRESSURE GPRESSURE VOLUME PRESSAVG GPRESSAVG
ENERGY: 600000 0.0000 0.0000 0.0000 0.0000 -13392.6815 2047.0926 0.0000 0.0000 1052.4923 -10293.0965 178.1494 -11345.5888 -10291.1304 178.1494 -1010.8336 -947.7221 29816.9913 -1010.8336 -947.7221
ENERGY: 700000 0.0000 0.0000 0.0000 0.0000 -12777.9658 1883.3546 0.0000 0.0000 1208.1104 -9686.5008 204.4900 -10894.6112 -9684.2775 209.5813 -294.9956 -230.5831 29107.0415 4.9500 4.7762
TCL: Running 100000 steps at 240 kelvin.
TCL: Setting parameter langevinTemp to 240
TCL: Running for 100000 steps
ETITLE: TS BOND ANGLE DIHED IMPRP ELECT VDW BOUNDARY MISC KINETIC TOTAL TEMP POTENTIAL TOTAL3 TEMPAVG PRESSURE GPRESSURE VOLUME PRESSAVG GPRESSAVG
ENERGY: 700000 0.0000 0.0000 0.0000 0.0000 -12777.9658 1883.3546 0.0000 0.0000 1207.4847 -9687.1264 204.3841 -10894.6112 -9684.9128 204.3841 -311.2618 -230.3146 29107.0415 -311.2618 -230.3146
ENERGY: 800000 0.0000 0.0000 0.0000 0.0000 -12197.8620 1749.8441 0.0000 0.0000 1424.0501 -9023.9678 241.0409 -10448.0179 -9020.2681 239.5306 -113.5076 -69.0581 29725.3536 3.5297 3.6105
TCL: Running 100000 steps at 270 kelvin.
TCL: Setting parameter langevinTemp to 270
TCL: Running for 100000 steps
ETITLE: TS BOND ANGLE DIHED IMPRP ELECT VDW BOUNDARY MISC KINETIC TOTAL TEMP POTENTIAL TOTAL3 TEMPAVG PRESSURE GPRESSURE VOLUME PRESSAVG GPRESSAVG
ENERGY: 800000 0.0000 0.0000 0.0000 0.0000 -12197.8620 1749.8441 0.0000 0.0000 1423.3424 -9024.6754 240.9211 -10448.0179 -9021.8716 240.9211 -170.6737 -69.5837 29725.3536 -170.6737 -69.5837
ENERGY: 900000 0.0000 0.0000 0.0000 0.0000 -11585.3048 1569.0145 0.0000 0.0000 1627.1563 -8389.1339 275.4195 -10016.2903 -8385.8791 269.9135 -399.1804 -267.6677 30418.8832 4.6414 4.5668
TCL: Running 1000000 steps at 300 kelvin.
TCL: Setting parameter langevinTemp to 300
TCL: Running for 1000000 steps
ETITLE: TS BOND ANGLE DIHED IMPRP ELECT VDW BOUNDARY MISC KINETIC TOTAL TEMP POTENTIAL TOTAL3 TEMPAVG PRESSURE GPRESSURE VOLUME PRESSAVG GPRESSAVG
ENERGY: 900000 0.0000 0.0000 0.0000 0.0000 -11585.3048 1569.0145 0.0000 0.0000 1626.3556 -8389.9346 275.2840 -10016.2903 -8387.7502 275.2840 -339.5861 -267.1909 30418.8832 -339.5861 -267.1909
ENERGY: 1100000 0.0000 0.0000 0.0000 0.0000 -11078.9809 1453.4628 0.0000 0.0000 1800.3224 -7825.1956 304.7304 -9625.5180 -7824.3138 299.8070 41.8360 139.5842 30814.2858 2.4461 2.3554
ENERGY: 1300000 0.0000 0.0000 0.0000 0.0000 -11147.9393 1491.0074 0.0000 0.0000 1760.3707 -7896.5613 297.9680 -9656.9320 -7893.2086 300.0697 186.2325 310.4318 30425.9512 3.2140 3.0212
ENERGY: 1500000 0.0000 0.0000 0.0000 0.0000 -10969.6046 1379.6234 0.0000 0.0000 1800.8530 -7789.1282 304.8202 -9589.9812 -7787.7456 301.2529 -626.8069 -605.4268 31395.3692 3.6639 3.6392
ENERGY: 1700000 0.0000 0.0000 0.0000 0.0000 -10825.5986 1289.1167 0.0000 0.0000 1764.5363 -7771.9457 298.6731 -9536.4819 -7769.8877 299.9222 -1214.5595 -1160.7987 31226.9357 3.2134 3.0359
ENERGY: 1900000 0.0000 0.0000 0.0000 0.0000 -11002.9842 1419.3461 0.0000 0.0000 1767.0685 -7816.5696 299.1017 -9583.6381 -7812.1214 300.1026 -142.4631 -73.9426 30616.2988 4.2023 4.2836
TCL: Exiting due to exit command.
