Info: SIMULATION PARAMETERS:
Info: TIMESTEP               2
Info: NUMBER OF STEPS        0
Info: STEPS PER CYCLE        10
Info: PERIODIC CELL BASIS 1  37.435 0 0
Info: PERIODIC CELL BASIS 2  0 37.796 0
Info: PERIODIC CELL BASIS 3  0 0 37.638
Info: PERIODIC CELL CENTER   0 0 0
Info: WRAPPING WATERS AROUND PERIODIC BOUNDARIES ON OUTPUT.
Info: WRAPPING ALL CLUSTERS AROUND PERIODIC BOUNDARIES ON OUTPUT.
Info: FIRST LDB TIMESTEP     50
Info: LAST LDB TIMESTEP     -1
Info: HOM BACKGROUND SCALING 1
Info: PME BACKGROUND SCALING 1
Info: MIN ATOMS PER PATCH    40
Info: EMPTY PATCH LOAD       40 ATOMS
Info: INITIAL TEMPERATURE    300
Info: CENTER OF MASS MOVING INITIALLY? NO
Info: DIELECTRIC             1
Info: EXCLUDE                SCALED ONE-FOUR
Info: 1-4 ELECTROSTATICS SCALED BY 0.833333
Info: MODIFIED 1-4 VDW PARAMETERS WILL BE USED
Info: DCD FILENAME           mobley_9029594_min.dcd
Info: DCD FREQUENCY          5000
Info: DCD FIRST STEP         5000
Info: DCD FILE WILL CONTAIN UNIT CELL DATA
Info: XST FILENAME           mobley_9029594_min.xst
Info: XST FREQUENCY          5000
Info: NO VELOCITY DCD OUTPUT
Info: NO FORCE DCD OUTPUT
Info: OUTPUT FILENAME        mobley_9029594_min
Info: BINARY OUTPUT FILES WILL BE USED
Info: RESTART FILENAME       mobley_9029594_min.restart
Info: RESTART FREQUENCY      5000
Info: BINARY RESTART FILES WILL BE USED
Info: CUTOFF                 9
Info: PAIRLIST DISTANCE      11
Info: PAIRLIST SHRINK RATE   0.01
Info: PAIRLIST GROW RATE     0.01
Info: PAIRLIST TRIGGER       0.3
Info: PAIRLISTS PER CYCLE    2
Info: PAIRLISTS ENABLED
Info: MARGIN                 8
Info: HYDROGEN GROUP CUTOFF  2.5
Info: PATCH DIMENSION        21.5
Info: ENERGY OUTPUT STEPS    5000
Info: ENERGY EVALUATION STEPS    5000
Info: OUTPUT ENERGY PRECISION 4
Info: CROSSTERM ENERGY INCLUDED IN DIHEDRAL
Info: TIMING OUTPUT STEPS    50000
Info: PRESSURE OUTPUT STEPS  5000
Info: LANGEVIN DYNAMICS ACTIVE
Info: LANGEVIN TEMPERATURE   300
Info: LANGEVIN USING BBK INTEGRATOR
Info: LANGEVIN DAMPING COEFFICIENT IS 1 INVERSE PS
Info: LANGEVIN DYNAMICS APPLIED TO HYDROGENS
Info: LANGEVIN PISTON PRESSURE CONTROL ACTIVE
Info:        TARGET PRESSURE IS 1.01325 BAR
Info:     OSCILLATION PERIOD IS 50 FS
Info:             DECAY TIME IS 25 FS
Info:     PISTON TEMPERATURE IS 300 K
Info:       PRESSURE CONTROL IS GROUP-BASED
Info:    INITIAL STRAIN RATE IS 0 0 0
Info:       CELL FLUCTUATION IS ISOTROPIC
Info: PARTICLE MESH EWALD (PME) ACTIVE
Info: PME TOLERANCE               1e-06
Info: PME EWALD COEFFICIENT       0.348832
Info: PME INTERPOLATION ORDER     4
Info: PME GRID DIMENSIONS         40 40 40
Info: PME MAXIMUM GRID SPACING    1
Info: FULL ELECTROSTATIC EVALUATION FREQUENCY      2
Info: USING VERLET I (r-RESPA) MTS SCHEME.
Info: C1 SPLITTING OF LONG RANGE ELECTROSTATICS
Info: PLACING ATOMS IN PATCHES BY HYDROGEN GROUPS
Info: RIGID BONDS TO HYDROGEN : ALL
Info:         ERROR TOLERANCE : 1e-08
Info:          MAX ITERATIONS : 100
Info: RIGID WATER USING SETTLE ALGORITHM
Info: RANDOM NUMBER SEED     1741399190
Info: USE HYDROGEN BONDS?    NO
Info: Using AMBER format force field!
Info: AMBER PARM FILE        mobley_9029594.prmtop
Info: COORDINATE PDB         mobley_9029594.pdb
Info: Exclusions will be read from PARM file!
Info: SCNB (VDW SCALING)     2
Info: USING ARITHMETIC MEAN TO COMBINE L-J SIGMA PARAMETERS
Info: SUMMARY OF PARAMETERS:
Info: 4 BONDS
Info: 2 ANGLES
Info:   2 HARMONIC
Info:   0 COSINE-BASED
Info: 0 DIHEDRAL
Info: 0 IMPROPER
Info: 0 CROSSTERM
Info: 0 VDW
Info: 15 VDW_PAIRS
Info: 0 NBTHOLE_PAIRS
Info: STRUCTURE SUMMARY:
Info: 3719 ATOMS
Info: 3718 BONDS
Info: 6 ANGLES
Info: 0 DIHEDRALS
Info: 0 IMPROPERS
Info: 0 CROSSTERMS
Info: 3724 EXCLUSIONS
Info: 3717 RIGID BONDS
Info: 7440 DEGREES OF FREEDOM
Info: 1240 HYDROGEN GROUPS
Info: 4 ATOMS IN LARGEST HYDROGEN GROUP
Info: 1240 MIGRATION GROUPS
Info: 4 ATOMS IN LARGEST MIGRATION GROUP
Info: TOTAL MASS = 22337.8 amu
Info: TOTAL CHARGE = 7.45058e-09 e
Info: MASS DENSITY = 0.696547 g/cm^3
Info: ATOM DENSITY = 0.0698355 atoms/A^3
Info: ADDED 0 IMPLICIT EXCLUSIONS
Info: NONBONDED TABLE R-SQUARED SPACING: 0.0625
Info: NONBONDED TABLE SIZE: 705 POINTS
Info: REMOVING COM VELOCITY 0.0671854 -0.0114531 0.307247
TCL: Minimizing for 2000 steps
ETITLE: TS BOND ANGLE DIHED IMPRP ELECT VDW BOUNDARY MISC KINETIC TOTAL TEMP POTENTIAL TOTAL3 TEMPAVG PRESSURE GPRESSURE VOLUME PRESSAVG GPRESSAVG
ENERGY: 0 0.0078 0.0974 0.0000 0.0000 -11216.4823 1272.0957 0.0000 0.0000 0.0000 -9944.2814 0.0000 -9944.2814 -9944.2814 0.0000 10379.7298 -14744.7518 53253.7525 10379.7298 -14744.7518
ENERGY: 400 0.9055 0.2298 0.0000 0.0000 -15718.1126 2470.3014 0.0000 0.0000 0.0000 -13246.6759 0.0000 -13246.6759 -13246.6759 0.0000 16283.0855 16435.3272 53253.7525 16283.0855 16435.3272
ENERGY: 800 0.2978 0.4419 0.0000 0.0000 -16357.0752 2693.0360 0.0000 0.0000 0.0000 -13663.2994 0.0000 -13663.2994 -13663.2994 0.0000 17663.0414 17769.0108 53253.7525 17663.0414 17769.0108
ENERGY: 1200 0.3214 0.1786 0.0000 0.0000 -16775.7543 2865.3625 0.0000 0.0000 0.0000 -13909.8917 0.0000 -13909.8917 -13909.8917 0.0000 18669.9378 18793.1592 53253.7525 18669.9378 18793.1592
ENERGY: 1600 0.1717 0.1114 0.0000 0.0000 -17006.3246 2966.3579 0.0000 0.0000 0.0000 -14039.6836 0.0000 -14039.6836 -14039.6836 0.0000 19361.6628 19476.7974 53253.7525 19361.6628 19476.7974
ENERGY: 2000 0.1169 0.1077 0.0000 0.0000 -17119.5927 3002.1796 0.0000 0.0000 0.0000 -14117.1886 0.0000 -14117.1886 -14117.1886 0.0000 19572.8326 19677.3025 53253.7525 19572.8326 19677.3025
TCL: Exiting due to exit command.
Info: NAMD 3.0.1 for Linux-x86_64-multicore
Info: Please visit http://www.ks.uiuc.edu/Research/namd/
Info: for updates, documentation, and support information.
Info: Please cite Phillips et al., J. Chem. Phys. 153:044130 (2020) doi:10.1063/5.0014475
Info: in all publications reporting results obtained with NAMD.
Info: Based on Charm++/Converse 80000 for multicore-linux-x86_64-gcc
Info: Built Mon Oct 14 11:11:06 CDT 2024 by dhardy on athine.ks.uiuc.edu
Info: 1 NAMD  3.0.1  Linux-x86_64-multicore  16    k063  z5358697
Info: Running on 16 processors, 1 nodes, 1 physical nodes.
Info: CPU topology information available.
Info: Charm++/Converse parallel runtime startup completed at 0.00937739 s
Info: 1043.46 MB of memory in use based on /proc/self/stat
Info: Configuration file is mobley_9029594_equil.namd
Info: Working in the current directory /srv/scratch/z5358697/prod_prep_11/9029594
TCL: Running 25000 steps at 30 kelvin.
TCL: Suspending until startup complete.
Info: SIMULATION PARAMETERS:
Info: TIMESTEP               2
Info: NUMBER OF STEPS        0
Info: STEPS PER CYCLE        10
Info: PERIODIC CELL BASIS 1  37.435 0 0
Info: PERIODIC CELL BASIS 2  0 37.796 0
Info: PERIODIC CELL BASIS 3  0 0 37.638
Info: PERIODIC CELL CENTER   0 0 0
Info: WRAPPING WATERS AROUND PERIODIC BOUNDARIES ON OUTPUT.
Info: WRAPPING ALL CLUSTERS AROUND PERIODIC BOUNDARIES ON OUTPUT.
Info: FIRST LDB TIMESTEP     50
Info: LAST LDB TIMESTEP     -1
Info: HOM BACKGROUND SCALING 1
Info: PME BACKGROUND SCALING 1
Info: MIN ATOMS PER PATCH    40
Info: EMPTY PATCH LOAD       40 ATOMS
Info: INITIAL TEMPERATURE    300
Info: CENTER OF MASS MOVING INITIALLY? NO
Info: DIELECTRIC             1
Info: EXCLUDE                SCALED ONE-FOUR
Info: 1-4 ELECTROSTATICS SCALED BY 0.833333
Info: MODIFIED 1-4 VDW PARAMETERS WILL BE USED
Info: DCD FILENAME           mobley_9029594_equil.dcd
Info: DCD FREQUENCY          5000
Info: DCD FIRST STEP         5000
Info: DCD FILE WILL CONTAIN UNIT CELL DATA
Info: XST FILENAME           mobley_9029594_equil.xst
Info: XST FREQUENCY          5000
Info: NO VELOCITY DCD OUTPUT
Info: NO FORCE DCD OUTPUT
Info: OUTPUT FILENAME        mobley_9029594_equil
Info: BINARY OUTPUT FILES WILL BE USED
Info: RESTART FILENAME       mobley_9029594_equil.restart
Info: RESTART FREQUENCY      5000
Info: BINARY RESTART FILES WILL BE USED
Info: CUTOFF                 9
Info: PAIRLIST DISTANCE      11
Info: PAIRLIST SHRINK RATE   0.01
Info: PAIRLIST GROW RATE     0.01
Info: PAIRLIST TRIGGER       0.3
Info: PAIRLISTS PER CYCLE    2
Info: PAIRLISTS ENABLED
Info: MARGIN                 8
Info: HYDROGEN GROUP CUTOFF  2.5
Info: PATCH DIMENSION        21.5
Info: ENERGY OUTPUT STEPS    5000
Info: ENERGY EVALUATION STEPS    5000
Info: OUTPUT ENERGY PRECISION 4
Info: CROSSTERM ENERGY INCLUDED IN DIHEDRAL
Info: TIMING OUTPUT STEPS    50000
Info: PRESSURE OUTPUT STEPS  5000
Info: LANGEVIN DYNAMICS ACTIVE
Info: LANGEVIN TEMPERATURE   30
Info: LANGEVIN USING BBK INTEGRATOR
Info: LANGEVIN DAMPING COEFFICIENT IS 1 INVERSE PS
Info: LANGEVIN DYNAMICS APPLIED TO HYDROGENS
Info: LANGEVIN PISTON PRESSURE CONTROL ACTIVE
Info:        TARGET PRESSURE IS 1.01325 BAR
Info:     OSCILLATION PERIOD IS 50 FS
Info:             DECAY TIME IS 25 FS
Info:     PISTON TEMPERATURE IS 300 K
Info:       PRESSURE CONTROL IS GROUP-BASED
Info:    INITIAL STRAIN RATE IS 0 0 0
Info:       CELL FLUCTUATION IS ISOTROPIC
Info: PARTICLE MESH EWALD (PME) ACTIVE
Info: PME TOLERANCE               1e-06
Info: PME EWALD COEFFICIENT       0.348832
Info: PME INTERPOLATION ORDER     4
Info: PME GRID DIMENSIONS         40 40 40
Info: PME MAXIMUM GRID SPACING    1
Info: FULL ELECTROSTATIC EVALUATION FREQUENCY      2
Info: USING VERLET I (r-RESPA) MTS SCHEME.
Info: C1 SPLITTING OF LONG RANGE ELECTROSTATICS
Info: PLACING ATOMS IN PATCHES BY HYDROGEN GROUPS
Info: RIGID BONDS TO HYDROGEN : ALL
Info:         ERROR TOLERANCE : 1e-08
Info:          MAX ITERATIONS : 100
Info: RIGID WATER USING SETTLE ALGORITHM
Info: RANDOM NUMBER SEED     1741399205
Info: USE HYDROGEN BONDS?    NO
Info: Using AMBER format force field!
Info: AMBER PARM FILE        mobley_9029594.prmtop
Info: COORDINATE PDB         mobley_9029594.pdb
Info: Exclusions will be read from PARM file!
Info: SCNB (VDW SCALING)     2
Info: USING ARITHMETIC MEAN TO COMBINE L-J SIGMA PARAMETERS
Info: BINARY COORDINATES     mobley_9029594_min.coor
Info: SUMMARY OF PARAMETERS:
Info: 4 BONDS
Info: 2 ANGLES
Info:   2 HARMONIC
Info:   0 COSINE-BASED
Info: 0 DIHEDRAL
Info: 0 IMPROPER
Info: 0 CROSSTERM
Info: 0 VDW
Info: 15 VDW_PAIRS
Info: 0 NBTHOLE_PAIRS
Info: STRUCTURE SUMMARY:
Info: 3719 ATOMS
Info: 3718 BONDS
Info: 6 ANGLES
Info: 0 DIHEDRALS
Info: 0 IMPROPERS
Info: 0 CROSSTERMS
Info: 3724 EXCLUSIONS
Info: 3717 RIGID BONDS
Info: 7440 DEGREES OF FREEDOM
Info: 1240 HYDROGEN GROUPS
Info: 4 ATOMS IN LARGEST HYDROGEN GROUP
Info: 1240 MIGRATION GROUPS
Info: 4 ATOMS IN LARGEST MIGRATION GROUP
Info: TOTAL MASS = 22337.8 amu
Info: TOTAL CHARGE = 7.45058e-09 e
Info: MASS DENSITY = 0.696547 g/cm^3
Info: ATOM DENSITY = 0.0698355 atoms/A^3
Info: ADDED 0 IMPLICIT EXCLUSIONS
Info: NONBONDED TABLE R-SQUARED SPACING: 0.0625
Info: NONBONDED TABLE SIZE: 705 POINTS
Info: REMOVING COM VELOCITY 0.1278 0.20722 -0.0625554
TCL: Running for 25000 steps
ETITLE: TS BOND ANGLE DIHED IMPRP ELECT VDW BOUNDARY MISC KINETIC TOTAL TEMP POTENTIAL TOTAL3 TEMPAVG PRESSURE GPRESSURE VOLUME PRESSAVG GPRESSAVG
ENERGY: 0 0.1169 0.1077 0.0000 0.0000 -17119.5927 3002.1796 0.0000 0.0000 2210.0972 -11907.0914 298.9708 -14117.1886 -11906.6487 298.9708 343.9020 378.9394 53253.7525 343.9020 378.9394
ENERGY: 5000 0.0000 0.2288 0.0000 0.0000 -17738.3729 2974.8749 0.0000 0.0000 224.9812 -14538.2880 30.4343 -14763.2692 -14537.7693 48.0191 -809.9217 -752.1930 36249.6711 -2.5138 -2.4844
ENERGY: 10000 0.0207 0.2213 0.0000 0.0000 -17947.5807 3139.8603 0.0000 0.0000 229.4997 -14577.9787 31.0456 -14807.4784 -14577.1810 30.4903 204.6773 274.5472 35947.1187 -2.0712 -2.1946
ENERGY: 15000 0.1062 0.3762 0.0000 0.0000 -17854.8794 3033.9583 0.0000 0.0000 223.3802 -14597.0584 30.2178 -14820.4387 -14596.4790 30.0698 -507.2179 -423.7092 35901.5788 3.2565 3.4720
ENERGY: 20000 0.1513 0.2631 0.0000 0.0000 -17940.6465 3108.4271 0.0000 0.0000 222.9816 -14608.8234 30.1638 -14831.8049 -14608.1884 30.1526 -53.7260 18.6093 35760.0850 2.8268 2.7570
ENERGY: 25000 0.0336 0.1850 0.0000 0.0000 -17843.6173 3015.2593 0.0000 0.0000 227.1477 -14600.9917 30.7274 -14828.1394 -14600.4786 30.0253 -643.3137 -574.2433 35839.0790 7.0820 7.1341
TCL: Running 25000 steps at 60 kelvin.
TCL: Setting parameter langevinTemp to 60
TCL: Running for 25000 steps
ETITLE: TS BOND ANGLE DIHED IMPRP ELECT VDW BOUNDARY MISC KINETIC TOTAL TEMP POTENTIAL TOTAL3 TEMPAVG PRESSURE GPRESSURE VOLUME PRESSAVG GPRESSAVG
ENERGY: 25000 0.0336 0.1850 0.0000 0.0000 -17843.6173 3015.2593 0.0000 0.0000 227.0405 -14601.0989 30.7129 -14828.1394 -14600.5492 30.7129 -640.5650 -574.4414 35839.0790 -640.5650 -574.4414
ENERGY: 30000 0.0945 0.3054 0.0000 0.0000 -17662.1474 3019.8263 0.0000 0.0000 450.7958 -14191.1253 60.9814 -14641.9210 -14189.5530 57.1859 14.8029 65.1542 35847.3302 -3.0489 -2.9429
ENERGY: 35000 0.0187 0.3927 0.0000 0.0000 -17852.3788 3168.0386 0.0000 0.0000 444.7684 -14239.1604 60.1660 -14683.9288 -14238.1013 60.5418 881.0725 893.6056 35738.3525 1.7466 1.6832
ENERGY: 40000 0.2522 0.4388 0.0000 0.0000 -17934.0186 3222.6790 0.0000 0.0000 451.1423 -14259.5063 61.0283 -14710.6486 -14258.8859 60.0721 1322.6658 1359.8139 35373.6212 9.7254 9.4494
ENERGY: 45000 0.0891 0.5270 0.0000 0.0000 -17732.3099 2992.5073 0.0000 0.0000 456.3446 -14282.8419 61.7320 -14739.1865 -14281.3144 60.0791 -478.1001 -425.1813 35805.1749 4.3874 4.7211
ENERGY: 50000 0.0012 0.3619 0.0000 0.0000 -17804.2976 3081.9811 0.0000 0.0000 440.2305 -14281.7229 59.5522 -14721.9535 -14280.5056 60.1455 156.4038 229.4476 35666.7663 8.3284 8.7536
TCL: Running 25000 steps at 90 kelvin.
TCL: Setting parameter langevinTemp to 90
TCL: Running for 25000 steps
ETITLE: TS BOND ANGLE DIHED IMPRP ELECT VDW BOUNDARY MISC KINETIC TOTAL TEMP POTENTIAL TOTAL3 TEMPAVG PRESSURE GPRESSURE VOLUME PRESSAVG GPRESSAVG
ENERGY: 50000 0.0012 0.3619 0.0000 0.0000 -17804.2976 3081.9811 0.0000 0.0000 440.0103 -14281.9431 59.5224 -14721.9535 -14281.1303 59.5224 166.6177 229.4048 35666.7663 166.6177 229.4048
ENERGY: 55000 0.0187 0.2678 0.0000 0.0000 -17383.1447 2867.2423 0.0000 0.0000 644.7021 -13870.9137 87.2121 -14515.6158 -13869.4359 86.9598 -710.1251 -626.7968 36107.0001 6.6999 6.7557
ENERGY: 60000 0.0254 0.7078 0.0000 0.0000 -17583.1699 3035.3935 0.0000 0.0000 669.6439 -13877.3993 90.5861 -14547.0432 -13876.2729 90.0096 412.4515 462.3617 35874.7066 5.8066 5.3116
ENERGY: 65000 0.0680 0.8438 0.0000 0.0000 -17416.3479 2844.1434 0.0000 0.0000 681.0426 -13890.2501 92.1280 -14571.2927 -13888.8560 89.9730 -946.6610 -899.2306 36072.7995 5.1317 5.5424
ENERGY: 70000 0.0272 0.3420 0.0000 0.0000 -17596.9574 3005.5727 0.0000 0.0000 661.5205 -13929.4950 89.4872 -14591.0155 -13927.7344 90.0174 142.3262 202.2521 35808.4287 5.7075 5.7408
ENERGY: 75000 0.0001 0.9751 0.0000 0.0000 -17470.8076 2869.9499 0.0000 0.0000 672.5781 -13927.3044 90.9830 -14599.8825 -13926.6317 90.5658 -861.1030 -777.7211 36015.7959 0.0738 0.2598
TCL: Running 25000 steps at 120 kelvin.
TCL: Setting parameter langevinTemp to 120
TCL: Running for 25000 steps
ETITLE: TS BOND ANGLE DIHED IMPRP ELECT VDW BOUNDARY MISC KINETIC TOTAL TEMP POTENTIAL TOTAL3 TEMPAVG PRESSURE GPRESSURE VOLUME PRESSAVG GPRESSAVG
ENERGY: 75000 0.0001 0.9751 0.0000 0.0000 -17470.8076 2869.9499 0.0000 0.0000 672.2376 -13927.6448 90.9369 -14599.8825 -13926.0482 90.9369 -840.7474 -778.4907 36015.7959 -840.7474 -778.4907
ENERGY: 80000 0.0461 0.6500 0.0000 0.0000 -17200.8465 2867.5394 0.0000 0.0000 874.0078 -13458.6032 118.2314 -14332.6110 -13456.8426 116.8549 -36.8415 27.0709 35999.3891 4.3452 4.3688
ENERGY: 85000 0.0504 0.4050 0.0000 0.0000 -17336.3117 2956.4210 0.0000 0.0000 898.1006 -13481.3347 121.4905 -14379.4353 -13479.1641 120.6211 507.3344 550.7986 35832.0800 -0.4107 -0.4149
ENERGY: 90000 0.0007 0.8020 0.0000 0.0000 -17253.0021 2866.2003 0.0000 0.0000 919.7210 -13466.2780 124.4152 -14385.9990 -13463.9519 120.5985 -126.5537 -71.4707 35899.0455 0.0550 -0.0690
ENERGY: 95000 0.0092 0.7986 0.0000 0.0000 -17171.3931 2784.0618 0.0000 0.0000 866.6953 -13519.8282 117.2422 -14386.5234 -13518.4230 121.8886 -859.8901 -800.8340 36224.1797 7.1469 6.8505
ENERGY: 100000 0.0422 0.7905 0.0000 0.0000 -17437.3614 3053.5927 0.0000 0.0000 891.3409 -13491.5951 120.5761 -14382.9360 -13489.3641 120.1915 938.0451 1075.1104 35896.3162 4.4657 3.9107
TCL: Running 25000 steps at 150 kelvin.
TCL: Setting parameter langevinTemp to 150
TCL: Running for 25000 steps
ETITLE: TS BOND ANGLE DIHED IMPRP ELECT VDW BOUNDARY MISC KINETIC TOTAL TEMP POTENTIAL TOTAL3 TEMPAVG PRESSURE GPRESSURE VOLUME PRESSAVG GPRESSAVG
ENERGY: 100000 0.0422 0.7905 0.0000 0.0000 -17437.3614 3053.5927 0.0000 0.0000 890.9078 -13492.0282 120.5175 -14382.9360 -13490.7110 120.5175 1010.6126 1076.0533 35896.3162 1010.6126 1076.0533
ENERGY: 105000 0.1501 1.5706 0.0000 0.0000 -16802.2577 2669.6944 0.0000 0.0000 1121.1123 -13009.7303 151.6584 -14130.8426 -13006.7531 146.7784 -767.4996 -687.1459 36364.4546 2.5218 2.8070
ENERGY: 110000 0.1227 1.2991 0.0000 0.0000 -16860.5563 2760.3273 0.0000 0.0000 1104.9754 -12993.8318 149.4755 -14098.8072 -12990.0261 150.6645 -66.8760 16.0687 36063.7709 0.3623 0.2373
ENERGY: 115000 0.0095 2.7560 0.0000 0.0000 -17086.7985 2922.5032 0.0000 0.0000 1123.1548 -13038.3749 151.9347 -14161.5297 -13036.1952 149.4954 929.9921 982.4521 35897.1081 -3.7829 -3.7026
ENERGY: 120000 0.0048 0.9805 0.0000 0.0000 -16861.8614 2749.8650 0.0000 0.0000 1108.7834 -13002.2276 149.9906 -14111.0110 -12999.6035 148.6629 -206.9312 -139.7928 36256.4660 5.1398 4.8889
ENERGY: 125000 0.4763 0.8893 0.0000 0.0000 -16925.5647 2784.9167 0.0000 0.0000 1099.2708 -13040.0116 148.7038 -14139.2824 -13035.9380 151.4210 -180.0301 -81.6598 36209.0455 7.0893 6.7924
TCL: Running 50000 steps at 180 kelvin.
TCL: Setting parameter langevinTemp to 180
TCL: Running for 50000 steps
ETITLE: TS BOND ANGLE DIHED IMPRP ELECT VDW BOUNDARY MISC KINETIC TOTAL TEMP POTENTIAL TOTAL3 TEMPAVG PRESSURE GPRESSURE VOLUME PRESSAVG GPRESSAVG
ENERGY: 125000 0.4763 0.8893 0.0000 0.0000 -16925.5647 2784.9167 0.0000 0.0000 1098.7105 -13040.5719 148.6280 -14139.2824 -13038.5903 148.6280 -149.3763 -81.1485 36209.0455 -149.3763 -81.1485
ENERGY: 135000 0.6824 1.0521 0.0000 0.0000 -16572.6571 2703.2059 0.0000 0.0000 1343.7530 -12523.9636 181.7762 -13867.7166 -12521.1258 178.6909 249.3513 360.3048 36114.1225 -2.0089 -1.7037
ENERGY: 145000 0.1440 1.4940 0.0000 0.0000 -16460.2132 2639.0578 0.0000 0.0000 1312.8433 -12506.6741 177.5948 -13819.5174 -12504.3220 179.1154 -42.0791 30.2373 36239.6148 7.9941 8.0512
ENERGY: 155000 0.0135 1.0088 0.0000 0.0000 -16418.7229 2566.9270 0.0000 0.0000 1331.5597 -12519.2139 180.1267 -13850.7736 -12516.1353 181.2510 -463.2339 -393.0865 36025.2789 5.3425 5.6978
ENERGY: 165000 0.0705 0.7665 0.0000 0.0000 -16442.4792 2537.9542 0.0000 0.0000 1309.4372 -12594.2508 177.1341 -13903.6880 -12591.4279 179.7522 -916.5006 -905.0490 36543.2006 2.9611 3.2919
ENERGY: 175000 0.0660 0.2869 0.0000 0.0000 -16509.6662 2615.8638 0.0000 0.0000 1339.2077 -12554.2418 181.1613 -13893.4495 -12551.9115 180.6253 -392.4365 -312.7487 36354.7741 3.9393 3.5149
TCL: Running 50000 steps at 210 kelvin.
TCL: Setting parameter langevinTemp to 210
TCL: Running for 50000 steps
ETITLE: TS BOND ANGLE DIHED IMPRP ELECT VDW BOUNDARY MISC KINETIC TOTAL TEMP POTENTIAL TOTAL3 TEMPAVG PRESSURE GPRESSURE VOLUME PRESSAVG GPRESSAVG
ENERGY: 175000 0.0660 0.2869 0.0000 0.0000 -16509.6662 2615.8638 0.0000 0.0000 1338.5483 -12554.9012 181.0721 -13893.4495 -12552.2903 181.0721 -381.2587 -313.2003 36354.7741 -381.2587 -313.2003
ENERGY: 185000 0.0225 0.9137 0.0000 0.0000 -15778.4881 2413.1249 0.0000 0.0000 1569.1875 -11795.2395 212.2718 -13364.4270 -11790.2992 209.0423 -245.7033 -184.0034 36350.5306 2.5157 1.9655
ENERGY: 195000 0.0155 0.8462 0.0000 0.0000 -15651.3918 2368.4280 0.0000 0.0000 1567.0171 -11715.0850 211.9782 -13282.1021 -11711.7085 210.9433 -384.9638 -324.5731 36559.2333 3.9284 3.5909
ENERGY: 205000 0.0257 1.1877 0.0000 0.0000 -15542.4367 2317.0507 0.0000 0.0000 1543.1929 -11680.9798 208.7554 -13224.1727 -11677.5756 209.4386 -305.6337 -250.2701 36215.4394 1.5830 1.7924
ENERGY: 215000 0.0029 2.1706 0.0000 0.0000 -15756.9566 2461.8440 0.0000 0.0000 1544.1595 -11748.7795 208.8861 -13292.9390 -11743.0837 209.3650 361.7760 482.0088 36041.6787 -5.1745 -5.0233
ENERGY: 225000 0.0607 1.2400 0.0000 0.0000 -15569.4989 2298.8309 0.0000 0.0000 1555.1524 -11714.2148 210.3732 -13269.3673 -11709.2806 208.8132 -539.3419 -497.3961 36156.8000 -0.5228 -0.3583
TCL: Running 50000 steps at 240 kelvin.
TCL: Setting parameter langevinTemp to 240
TCL: Running for 50000 steps
ETITLE: TS BOND ANGLE DIHED IMPRP ELECT VDW BOUNDARY MISC KINETIC TOTAL TEMP POTENTIAL TOTAL3 TEMPAVG PRESSURE GPRESSURE VOLUME PRESSAVG GPRESSAVG
ENERGY: 225000 0.0607 1.2400 0.0000 0.0000 -15569.4989 2298.8309 0.0000 0.0000 1554.3959 -11714.9713 210.2709 -13269.3673 -11711.6195 210.2709 -591.4598 -496.4139 36156.8000 -591.4598 -496.4139
ENERGY: 235000 0.0770 0.2935 0.0000 0.0000 -14841.8545 2215.2888 0.0000 0.0000 1760.7878 -10865.4074 238.1905 -12626.1952 -10859.8570 240.9629 321.3910 403.4681 37075.5512 2.2771 2.1065
ENERGY: 245000 0.0221 1.5549 0.0000 0.0000 -14766.3925 2064.9639 0.0000 0.0000 1735.5930 -10964.2586 234.7823 -12699.8516 -10959.9018 240.0323 -774.5397 -664.3598 37003.4458 4.7459 5.6873
ENERGY: 255000 0.0014 1.3697 0.0000 0.0000 -14965.2568 2159.2241 0.0000 0.0000 1741.8046 -11062.8570 235.6226 -12804.6616 -11059.3959 239.2936 -438.1713 -416.0522 37092.1133 1.2275 1.0270
ENERGY: 265000 0.6523 0.9417 0.0000 0.0000 -14872.3108 2132.4552 0.0000 0.0000 1757.7909 -10980.4708 237.7851 -12738.2617 -10975.8945 240.1886 -54.5451 -5.9812 36160.3573 5.8162 5.0264
ENERGY: 275000 1.1773 1.7959 0.0000 0.0000 -14855.3896 2161.2582 0.0000 0.0000 1752.9176 -10938.2407 237.1259 -12691.1583 -10933.0868 239.6327 -229.8859 -181.9037 36984.3751 -3.2807 -2.3295
TCL: Running 50000 steps at 270 kelvin.
TCL: Setting parameter langevinTemp to 270
TCL: Running for 50000 steps
ETITLE: TS BOND ANGLE DIHED IMPRP ELECT VDW BOUNDARY MISC KINETIC TOTAL TEMP POTENTIAL TOTAL3 TEMPAVG PRESSURE GPRESSURE VOLUME PRESSAVG GPRESSAVG
ENERGY: 275000 1.1773 1.7959 0.0000 0.0000 -14855.3896 2161.2582 0.0000 0.0000 1752.0167 -10939.1415 237.0040 -12691.1583 -10936.7138 237.0040 -263.9022 -179.3686 36984.3751 -263.9022 -179.3686
ENERGY: 285000 0.0635 1.0096 0.0000 0.0000 -14292.9737 2005.2681 0.0000 0.0000 2004.9492 -10281.6832 271.2194 -12286.6324 -10278.4292 269.2702 12.6478 105.0016 37103.3269 2.2156 2.4832
ENERGY: 295000 0.0009 2.5408 0.0000 0.0000 -14321.0459 2075.5443 0.0000 0.0000 1984.1226 -10258.8373 268.4021 -12242.9599 -10257.6469 270.6779 327.1016 474.5565 37485.6906 -2.0530 -2.0867
ENERGY: 305000 0.7077 0.3146 0.0000 0.0000 -14144.9002 1942.2106 0.0000 0.0000 2011.6496 -10190.0177 272.1258 -12201.6673 -10187.2235 268.1299 -384.4390 -254.5841 37339.1071 2.6130 2.9721
ENERGY: 315000 0.7779 0.2419 0.0000 0.0000 -14275.6475 2001.0244 0.0000 0.0000 1993.5591 -10280.0441 269.6787 -12273.6033 -10277.8557 270.0810 162.1481 173.6539 36962.9409 2.3376 1.9545
ENERGY: 325000 0.0166 0.6621 0.0000 0.0000 -14232.0802 1986.6420 0.0000 0.0000 2034.8435 -10209.9161 275.2634 -12244.7596 -10206.1971 269.5422 -157.8691 -67.7018 37434.9543 3.4810 2.7369
TCL: Running 1000000 steps at 300 kelvin.
TCL: Setting parameter langevinTemp to 300
TCL: Running for 1000000 steps
ETITLE: TS BOND ANGLE DIHED IMPRP ELECT VDW BOUNDARY MISC KINETIC TOTAL TEMP POTENTIAL TOTAL3 TEMPAVG PRESSURE GPRESSURE VOLUME PRESSAVG GPRESSAVG
ENERGY: 325000 0.0166 0.6621 0.0000 0.0000 -14232.0802 1986.6420 0.0000 0.0000 2033.8675 -10210.8921 275.1314 -12244.7595 -10207.9070 275.1314 -156.9999 -67.9002 37434.9543 -156.9999 -67.9002
ENERGY: 525000 0.1410 2.4085 0.0000 0.0000 -13601.3774 1823.4844 0.0000 0.0000 2123.5297 -9651.8138 287.2604 -11775.3435 -9648.7050 298.4207 -315.1280 -172.5754 38333.4296 3.6609 3.0167
ENERGY: 725000 1.0357 1.9696 0.0000 0.0000 -13650.0097 1876.6397 0.0000 0.0000 2235.9543 -9534.4103 302.4687 -11770.3646 -9529.2763 301.1051 162.8792 264.5068 38130.6200 4.4302 4.6990
ENERGY: 925000 0.9149 2.7822 0.0000 0.0000 -13534.7793 1807.6400 0.0000 0.0000 2244.1194 -9479.3227 303.5732 -11723.4422 -9475.1091 299.5268 -217.7083 -102.7144 38356.5448 4.7622 4.7751
ENERGY: 1125000 0.0173 2.5861 0.0000 0.0000 -13484.5664 1873.7033 0.0000 0.0000 2184.7306 -9423.5290 295.5394 -11608.2596 -9419.0946 298.5456 383.5818 508.1271 38156.2294 4.0466 3.9400
ENERGY: 1325000 0.0016 1.9877 0.0000 0.0000 -13472.3044 1805.4532 0.0000 0.0000 2258.2630 -9406.5989 305.4865 -11664.8619 -9401.7144 298.2823 43.9501 125.7590 38433.2833 -1.3195 -0.9483
TCL: Exiting due to exit command.
