Info: SIMULATION PARAMETERS:
Info: TIMESTEP               2
Info: NUMBER OF STEPS        0
Info: STEPS PER CYCLE        10
Info: PERIODIC CELL BASIS 1  38.861 0 0
Info: PERIODIC CELL BASIS 2  0 40.459 0
Info: PERIODIC CELL BASIS 3  0 0 40.136
Info: PERIODIC CELL CENTER   0 0 0
Info: WRAPPING WATERS AROUND PERIODIC BOUNDARIES ON OUTPUT.
Info: WRAPPING ALL CLUSTERS AROUND PERIODIC BOUNDARIES ON OUTPUT.
Info: FIRST LDB TIMESTEP     50
Info: LAST LDB TIMESTEP     -1
Info: HOM BACKGROUND SCALING 1
Info: PME BACKGROUND SCALING 1
Info: MIN ATOMS PER PATCH    40
Info: EMPTY PATCH LOAD       40 ATOMS
Info: INITIAL TEMPERATURE    300
Info: CENTER OF MASS MOVING INITIALLY? NO
Info: DIELECTRIC             1
Info: EXCLUDE                SCALED ONE-FOUR
Info: 1-4 ELECTROSTATICS SCALED BY 0.833333
Info: MODIFIED 1-4 VDW PARAMETERS WILL BE USED
Info: DCD FILENAME           mobley_6239320_min.dcd
Info: DCD FREQUENCY          5000
Info: DCD FIRST STEP         5000
Info: DCD FILE WILL CONTAIN UNIT CELL DATA
Info: XST FILENAME           mobley_6239320_min.xst
Info: XST FREQUENCY          5000
Info: NO VELOCITY DCD OUTPUT
Info: NO FORCE DCD OUTPUT
Info: OUTPUT FILENAME        mobley_6239320_min
Info: BINARY OUTPUT FILES WILL BE USED
Info: RESTART FILENAME       mobley_6239320_min.restart
Info: RESTART FREQUENCY      5000
Info: BINARY RESTART FILES WILL BE USED
Info: CUTOFF                 9
Info: PAIRLIST DISTANCE      11
Info: PAIRLIST SHRINK RATE   0.01
Info: PAIRLIST GROW RATE     0.01
Info: PAIRLIST TRIGGER       0.3
Info: PAIRLISTS PER CYCLE    2
Info: PAIRLISTS ENABLED
Info: MARGIN                 8
Info: HYDROGEN GROUP CUTOFF  2.5
Info: PATCH DIMENSION        21.5
Info: ENERGY OUTPUT STEPS    5000
Info: ENERGY EVALUATION STEPS    5000
Info: OUTPUT ENERGY PRECISION 4
Info: CROSSTERM ENERGY INCLUDED IN DIHEDRAL
Info: TIMING OUTPUT STEPS    50000
Info: PRESSURE OUTPUT STEPS  5000
Info: LANGEVIN DYNAMICS ACTIVE
Info: LANGEVIN TEMPERATURE   300
Info: LANGEVIN USING BBK INTEGRATOR
Info: LANGEVIN DAMPING COEFFICIENT IS 1 INVERSE PS
Info: LANGEVIN DYNAMICS APPLIED TO HYDROGENS
Info: LANGEVIN PISTON PRESSURE CONTROL ACTIVE
Info:        TARGET PRESSURE IS 1.01325 BAR
Info:     OSCILLATION PERIOD IS 50 FS
Info:             DECAY TIME IS 25 FS
Info:     PISTON TEMPERATURE IS 300 K
Info:       PRESSURE CONTROL IS GROUP-BASED
Info:    INITIAL STRAIN RATE IS 0 0 0
Info:       CELL FLUCTUATION IS ISOTROPIC
Info: PARTICLE MESH EWALD (PME) ACTIVE
Info: PME TOLERANCE               1e-06
Info: PME EWALD COEFFICIENT       0.348832
Info: PME INTERPOLATION ORDER     4
Info: PME GRID DIMENSIONS         40 44 44
Info: PME MAXIMUM GRID SPACING    1
Info: FULL ELECTROSTATIC EVALUATION FREQUENCY      2
Info: USING VERLET I (r-RESPA) MTS SCHEME.
Info: C1 SPLITTING OF LONG RANGE ELECTROSTATICS
Info: PLACING ATOMS IN PATCHES BY HYDROGEN GROUPS
Info: RIGID BONDS TO HYDROGEN : ALL
Info:         ERROR TOLERANCE : 1e-08
Info:          MAX ITERATIONS : 100
Info: RIGID WATER USING SETTLE ALGORITHM
Info: RANDOM NUMBER SEED     1741353581
Info: USE HYDROGEN BONDS?    NO
Info: Using AMBER format force field!
Info: AMBER PARM FILE        mobley_6239320.prmtop
Info: COORDINATE PDB         mobley_6239320.pdb
Info: Exclusions will be read from PARM file!
Info: SCNB (VDW SCALING)     2
Info: USING ARITHMETIC MEAN TO COMBINE L-J SIGMA PARAMETERS
Info: SUMMARY OF PARAMETERS:
Info: 5 BONDS
Info: 4 ANGLES
Info:   4 HARMONIC
Info:   0 COSINE-BASED
Info: 4 DIHEDRAL
Info: 0 IMPROPER
Info: 0 CROSSTERM
Info: 0 VDW
Info: 21 VDW_PAIRS
Info: 0 NBTHOLE_PAIRS
Info: STRUCTURE SUMMARY:
Info: 4545 ATOMS
Info: 4545 BONDS
Info: 18 ANGLES
Info: 36 DIHEDRALS
Info: 0 IMPROPERS
Info: 0 CROSSTERMS
Info: 4584 EXCLUSIONS
Info: 4536 RIGID BONDS
Info: 9099 DEGREES OF FREEDOM
Info: 1520 HYDROGEN GROUPS
Info: 3 ATOMS IN LARGEST HYDROGEN GROUP
Info: 1520 MIGRATION GROUPS
Info: 3 ATOMS IN LARGEST MIGRATION GROUP
Info: TOTAL MASS = 27351.3 amu
Info: TOTAL CHARGE = 0.000199944 e
Info: MASS DENSITY = 0.719736 g/cm^3
Info: ATOM DENSITY = 0.0720229 atoms/A^3
Info: ADDED 0 IMPLICIT EXCLUSIONS
Info: NONBONDED TABLE R-SQUARED SPACING: 0.0625
Info: NONBONDED TABLE SIZE: 705 POINTS
Info: REMOVING COM VELOCITY -0.00109447 0.0272692 -0.0476364
TCL: Minimizing for 2000 steps
ETITLE: TS BOND ANGLE DIHED IMPRP ELECT VDW BOUNDARY MISC KINETIC TOTAL TEMP POTENTIAL TOTAL3 TEMPAVG PRESSURE GPRESSURE VOLUME PRESSAVG GPRESSAVG
ENERGY: 0 0.3094 0.2869 24.0001 0.0000 -14453.4370 1567.2889 0.0000 0.0000 0.0000 -12861.5517 0.0000 -12861.5517 -12861.5517 0.0000 10713.9930 -15937.2182 63104.9177 10713.9930 -15937.2182
ENERGY: 400 8.3065 7.0527 28.4869 0.0000 -19275.1994 2664.6711 0.0000 0.0000 0.0000 -16566.6822 0.0000 -16566.6822 -16566.6822 0.0000 15099.0690 15240.9703 63104.9177 15099.0690 15240.9703
ENERGY: 800 11.1654 1.7509 24.4248 0.0000 -20426.7476 3227.0848 0.0000 0.0000 0.0000 -17162.3219 0.0000 -17162.3219 -17162.3219 0.0000 17911.2210 18023.0002 63104.9177 17911.2210 18023.0002
ENERGY: 1200 24.5878 4.8247 25.4139 0.0000 -20864.8274 3396.9506 0.0000 0.0000 0.0000 -17413.0503 0.0000 -17413.0503 -17413.0503 0.0000 18753.1076 18842.4090 63104.9177 18753.1076 18842.4090
ENERGY: 1600 4.2007 0.2093 24.4634 0.0000 -21037.9676 3472.2726 0.0000 0.0000 0.0000 -17536.8216 0.0000 -17536.8216 -17536.8216 0.0000 19163.3347 19247.1222 63104.9177 19163.3347 19247.1222
ENERGY: 2000 4.5098 0.1543 24.3198 0.0000 -21190.2082 3542.4864 0.0000 0.0000 0.0000 -17618.7379 0.0000 -17618.7379 -17618.7379 0.0000 19572.2218 19647.6723 63104.9177 19572.2218 19647.6723
TCL: Exiting due to exit command.
Info: NAMD 3.0.1 for Linux-x86_64-multicore
Info: Please visit http://www.ks.uiuc.edu/Research/namd/
Info: for updates, documentation, and support information.
Info: Please cite Phillips et al., J. Chem. Phys. 153:044130 (2020) doi:10.1063/5.0014475
Info: in all publications reporting results obtained with NAMD.
Info: Based on Charm++/Converse 80000 for multicore-linux-x86_64-gcc
Info: Built Mon Oct 14 11:11:06 CDT 2024 by dhardy on athine.ks.uiuc.edu
Info: 1 NAMD  3.0.1  Linux-x86_64-multicore  16    k013  z5358697
Info: Running on 16 processors, 1 nodes, 1 physical nodes.
Info: CPU topology information available.
Info: Charm++/Converse parallel runtime startup completed at 0.00983595 s
Info: 1043.45 MB of memory in use based on /proc/self/stat
Info: Configuration file is mobley_6239320_equil.namd
Info: Working in the current directory /srv/scratch/z5358697/prod_prep_7/6239320
TCL: Running 25000 steps at 30 kelvin.
TCL: Suspending until startup complete.
Info: SIMULATION PARAMETERS:
Info: TIMESTEP               2
Info: NUMBER OF STEPS        0
Info: STEPS PER CYCLE        10
Info: PERIODIC CELL BASIS 1  38.861 0 0
Info: PERIODIC CELL BASIS 2  0 40.459 0
Info: PERIODIC CELL BASIS 3  0 0 40.136
Info: PERIODIC CELL CENTER   0 0 0
Info: WRAPPING WATERS AROUND PERIODIC BOUNDARIES ON OUTPUT.
Info: WRAPPING ALL CLUSTERS AROUND PERIODIC BOUNDARIES ON OUTPUT.
Info: FIRST LDB TIMESTEP     50
Info: LAST LDB TIMESTEP     -1
Info: HOM BACKGROUND SCALING 1
Info: PME BACKGROUND SCALING 1
Info: MIN ATOMS PER PATCH    40
Info: EMPTY PATCH LOAD       40 ATOMS
Info: INITIAL TEMPERATURE    300
Info: CENTER OF MASS MOVING INITIALLY? NO
Info: DIELECTRIC             1
Info: EXCLUDE                SCALED ONE-FOUR
Info: 1-4 ELECTROSTATICS SCALED BY 0.833333
Info: MODIFIED 1-4 VDW PARAMETERS WILL BE USED
Info: DCD FILENAME           mobley_6239320_equil.dcd
Info: DCD FREQUENCY          5000
Info: DCD FIRST STEP         5000
Info: DCD FILE WILL CONTAIN UNIT CELL DATA
Info: XST FILENAME           mobley_6239320_equil.xst
Info: XST FREQUENCY          5000
Info: NO VELOCITY DCD OUTPUT
Info: NO FORCE DCD OUTPUT
Info: OUTPUT FILENAME        mobley_6239320_equil
Info: BINARY OUTPUT FILES WILL BE USED
Info: RESTART FILENAME       mobley_6239320_equil.restart
Info: RESTART FREQUENCY      5000
Info: BINARY RESTART FILES WILL BE USED
Info: CUTOFF                 9
Info: PAIRLIST DISTANCE      11
Info: PAIRLIST SHRINK RATE   0.01
Info: PAIRLIST GROW RATE     0.01
Info: PAIRLIST TRIGGER       0.3
Info: PAIRLISTS PER CYCLE    2
Info: PAIRLISTS ENABLED
Info: MARGIN                 8
Info: HYDROGEN GROUP CUTOFF  2.5
Info: PATCH DIMENSION        21.5
Info: ENERGY OUTPUT STEPS    5000
Info: ENERGY EVALUATION STEPS    5000
Info: OUTPUT ENERGY PRECISION 4
Info: CROSSTERM ENERGY INCLUDED IN DIHEDRAL
Info: TIMING OUTPUT STEPS    50000
Info: PRESSURE OUTPUT STEPS  5000
Info: LANGEVIN DYNAMICS ACTIVE
Info: LANGEVIN TEMPERATURE   30
Info: LANGEVIN USING BBK INTEGRATOR
Info: LANGEVIN DAMPING COEFFICIENT IS 1 INVERSE PS
Info: LANGEVIN DYNAMICS APPLIED TO HYDROGENS
Info: LANGEVIN PISTON PRESSURE CONTROL ACTIVE
Info:        TARGET PRESSURE IS 1.01325 BAR
Info:     OSCILLATION PERIOD IS 50 FS
Info:             DECAY TIME IS 25 FS
Info:     PISTON TEMPERATURE IS 300 K
Info:       PRESSURE CONTROL IS GROUP-BASED
Info:    INITIAL STRAIN RATE IS 0 0 0
Info:       CELL FLUCTUATION IS ISOTROPIC
Info: PARTICLE MESH EWALD (PME) ACTIVE
Info: PME TOLERANCE               1e-06
Info: PME EWALD COEFFICIENT       0.348832
Info: PME INTERPOLATION ORDER     4
Info: PME GRID DIMENSIONS         40 44 44
Info: PME MAXIMUM GRID SPACING    1
Info: FULL ELECTROSTATIC EVALUATION FREQUENCY      2
Info: USING VERLET I (r-RESPA) MTS SCHEME.
Info: C1 SPLITTING OF LONG RANGE ELECTROSTATICS
Info: PLACING ATOMS IN PATCHES BY HYDROGEN GROUPS
Info: RIGID BONDS TO HYDROGEN : ALL
Info:         ERROR TOLERANCE : 1e-08
Info:          MAX ITERATIONS : 100
Info: RIGID WATER USING SETTLE ALGORITHM
Info: RANDOM NUMBER SEED     1741353598
Info: USE HYDROGEN BONDS?    NO
Info: Using AMBER format force field!
Info: AMBER PARM FILE        mobley_6239320.prmtop
Info: COORDINATE PDB         mobley_6239320.pdb
Info: Exclusions will be read from PARM file!
Info: SCNB (VDW SCALING)     2
Info: USING ARITHMETIC MEAN TO COMBINE L-J SIGMA PARAMETERS
Info: BINARY COORDINATES     mobley_6239320_min.coor
Info: SUMMARY OF PARAMETERS:
Info: 5 BONDS
Info: 4 ANGLES
Info:   4 HARMONIC
Info:   0 COSINE-BASED
Info: 4 DIHEDRAL
Info: 0 IMPROPER
Info: 0 CROSSTERM
Info: 0 VDW
Info: 21 VDW_PAIRS
Info: 0 NBTHOLE_PAIRS
Info: STRUCTURE SUMMARY:
Info: 4545 ATOMS
Info: 4545 BONDS
Info: 18 ANGLES
Info: 36 DIHEDRALS
Info: 0 IMPROPERS
Info: 0 CROSSTERMS
Info: 4584 EXCLUSIONS
Info: 4536 RIGID BONDS
Info: 9099 DEGREES OF FREEDOM
Info: 1520 HYDROGEN GROUPS
Info: 3 ATOMS IN LARGEST HYDROGEN GROUP
Info: 1520 MIGRATION GROUPS
Info: 3 ATOMS IN LARGEST MIGRATION GROUP
Info: TOTAL MASS = 27351.3 amu
Info: TOTAL CHARGE = 0.000199944 e
Info: MASS DENSITY = 0.719736 g/cm^3
Info: ATOM DENSITY = 0.0720229 atoms/A^3
Info: ADDED 0 IMPLICIT EXCLUSIONS
Info: NONBONDED TABLE R-SQUARED SPACING: 0.0625
Info: NONBONDED TABLE SIZE: 705 POINTS
Info: REMOVING COM VELOCITY -0.145955 -0.0453445 0.00865146
TCL: Running for 25000 steps
ETITLE: TS BOND ANGLE DIHED IMPRP ELECT VDW BOUNDARY MISC KINETIC TOTAL TEMP POTENTIAL TOTAL3 TEMPAVG PRESSURE GPRESSURE VOLUME PRESSAVG GPRESSAVG
ENERGY: 0 4.5098 0.1543 24.3198 0.0000 -21190.2082 3542.4864 0.0000 0.0000 2725.0722 -14893.6657 301.4218 -17618.7379 -14893.0853 301.4218 -104.7523 -61.0564 63104.9177 -104.7523 -61.0564
ENERGY: 5000 4.9192 0.2905 24.3957 0.0000 -22274.6933 3772.4655 0.0000 0.0000 282.9967 -18189.6257 31.3024 -18472.6223 -18188.8995 48.3192 66.3651 126.9721 43548.4086 2.6414 2.8207
ENERGY: 10000 5.7690 0.4258 24.6572 0.0000 -22272.9630 3739.4969 0.0000 0.0000 274.0608 -18228.5533 30.3140 -18502.6141 -18228.0807 30.4190 -150.1148 -89.9792 43470.9566 4.2446 4.1546
ENERGY: 15000 4.8157 0.4825 24.4761 0.0000 -22309.5379 3747.9000 0.0000 0.0000 279.6101 -18252.2534 30.9278 -18531.8635 -18251.5483 30.3091 -166.2774 -102.8348 43435.2651 -0.0112 -0.0318
ENERGY: 20000 5.0420 0.5029 24.5377 0.0000 -22272.3426 3695.5414 0.0000 0.0000 276.1799 -18270.5388 30.5484 -18546.7187 -18269.6678 30.4210 -602.9238 -527.3994 43603.0800 0.9148 0.8552
ENERGY: 25000 4.6880 0.3942 24.3306 0.0000 -22261.1854 3675.1427 0.0000 0.0000 270.5779 -18286.0520 29.9288 -18556.6299 -18285.3618 30.2444 -682.6935 -624.2411 43487.6037 7.1927 7.3140
TCL: Running 25000 steps at 60 kelvin.
TCL: Setting parameter langevinTemp to 60
TCL: Running for 25000 steps
ETITLE: TS BOND ANGLE DIHED IMPRP ELECT VDW BOUNDARY MISC KINETIC TOTAL TEMP POTENTIAL TOTAL3 TEMPAVG PRESSURE GPRESSURE VOLUME PRESSAVG GPRESSAVG
ENERGY: 25000 4.6880 0.3942 24.3306 0.0000 -22261.1854 3675.1427 0.0000 0.0000 270.4446 -18286.1854 29.9140 -18556.6299 -18285.5925 29.9140 -687.9030 -624.3295 43487.6037 -687.9030 -624.3295
ENERGY: 30000 5.4133 0.4294 25.3671 0.0000 -22000.6496 3672.2941 0.0000 0.0000 541.8155 -17755.3302 59.9305 -18297.1457 -17753.6487 57.0429 -56.7198 7.2464 43628.4335 6.4901 6.3389
ENERGY: 35000 5.7150 0.4809 24.8258 0.0000 -22167.8026 3808.9183 0.0000 0.0000 531.7143 -17796.1484 58.8132 -18327.8627 -17794.7758 60.0823 727.0678 773.7112 43429.8091 -1.6540 -1.3835
ENERGY: 40000 5.2806 1.0057 24.7760 0.0000 -22214.2528 3825.1219 0.0000 0.0000 532.1977 -17825.8709 58.8667 -18358.0686 -17824.9703 59.4798 820.7162 877.9735 43163.5625 2.5441 2.5559
ENERGY: 45000 4.5425 1.0221 25.4029 0.0000 -22132.2605 3727.6213 0.0000 0.0000 551.5398 -17822.1318 61.0061 -18373.6717 -17820.2826 60.0531 230.0663 293.0322 43344.7683 -0.1849 -0.3411
ENERGY: 50000 3.9387 0.4755 25.1197 0.0000 -22086.9493 3663.3379 0.0000 0.0000 544.1546 -17849.9229 60.1893 -18394.0775 -17848.7948 59.9509 -223.5355 -210.0033 43421.8189 -0.4081 -0.2530
TCL: Running 25000 steps at 90 kelvin.
TCL: Setting parameter langevinTemp to 90
TCL: Running for 25000 steps
ETITLE: TS BOND ANGLE DIHED IMPRP ELECT VDW BOUNDARY MISC KINETIC TOTAL TEMP POTENTIAL TOTAL3 TEMPAVG PRESSURE GPRESSURE VOLUME PRESSAVG GPRESSAVG
ENERGY: 50000 3.9387 0.4755 25.1197 0.0000 -22086.9493 3663.3379 0.0000 0.0000 543.8799 -17850.1976 60.1589 -18394.0775 -17849.3067 60.1589 -262.1165 -210.0161 43421.8189 -262.1165 -210.0161
ENERGY: 55000 5.6969 1.3397 25.6359 0.0000 -21772.3936 3607.0254 0.0000 0.0000 806.5983 -17326.0973 89.2183 -18132.6957 -17323.9264 87.5267 288.2435 365.2318 43333.0378 1.4204 1.0170
ENERGY: 60000 3.9375 1.6094 25.3091 0.0000 -21717.5694 3537.4742 0.0000 0.0000 823.2002 -17326.0391 91.0547 -18149.2393 -17323.6826 90.3895 -233.8825 -207.8217 43600.7188 0.0422 0.1917
ENERGY: 65000 5.1160 1.5046 24.8270 0.0000 -21799.2042 3609.5241 0.0000 0.0000 812.6611 -17345.5712 89.8889 -18158.2324 -17344.2926 90.0732 124.0036 187.9227 43438.6466 4.9127 4.8481
ENERGY: 70000 7.2549 0.3422 25.7728 0.0000 -21792.3486 3601.1417 0.0000 0.0000 817.4849 -17340.3522 90.4225 -18157.8370 -17337.8933 89.9835 141.3004 176.8748 43529.6658 3.0353 2.7508
ENERGY: 75000 5.1323 0.8409 24.8879 0.0000 -21830.0746 3628.4077 0.0000 0.0000 813.3661 -17357.4397 89.9669 -18170.8058 -17355.5518 90.8024 167.1361 208.5531 43568.4114 6.7219 6.9469
TCL: Running 25000 steps at 120 kelvin.
TCL: Setting parameter langevinTemp to 120
TCL: Running for 25000 steps
ETITLE: TS BOND ANGLE DIHED IMPRP ELECT VDW BOUNDARY MISC KINETIC TOTAL TEMP POTENTIAL TOTAL3 TEMPAVG PRESSURE GPRESSURE VOLUME PRESSAVG GPRESSAVG
ENERGY: 75000 5.1323 0.8409 24.8879 0.0000 -21830.0746 3628.4077 0.0000 0.0000 812.9528 -17357.8529 89.9212 -18170.8058 -17356.3454 89.9212 151.8115 208.8089 43568.4114 151.8115 208.8089
ENERGY: 80000 5.0817 3.0845 24.9243 0.0000 -21265.8159 3361.5535 0.0000 0.0000 1072.4834 -16798.6883 118.6280 -17871.1718 -16796.3704 117.2676 -591.0433 -520.6486 43984.1739 4.8256 4.7204
ENERGY: 85000 5.8970 2.2756 25.5819 0.0000 -21453.5222 3519.2503 0.0000 0.0000 1095.1361 -16805.3812 121.1337 -17900.5173 -16801.6657 120.1668 164.2758 193.8784 43893.5868 1.0121 1.1352
ENERGY: 90000 3.5642 1.5921 25.9840 0.0000 -21415.8202 3462.2505 0.0000 0.0000 1064.8539 -16857.5755 117.7841 -17922.4294 -16854.2564 120.1855 -297.0707 -210.1358 44055.4219 -0.2405 -0.0236
ENERGY: 95000 7.6688 1.5858 25.1891 0.0000 -21492.7500 3531.7201 0.0000 0.0000 1081.5029 -16845.0832 119.6257 -17926.5861 -16842.5284 119.9676 231.7463 254.4235 43836.6073 -2.8880 -2.7909
ENERGY: 100000 7.8864 0.9885 24.7748 0.0000 -21468.2766 3428.4125 0.0000 0.0000 1097.5245 -16908.6898 121.3978 -18006.2143 -16906.0672 120.5785 -569.7065 -514.0088 44124.8093 3.1811 3.1228
TCL: Running 25000 steps at 150 kelvin.
TCL: Setting parameter langevinTemp to 150
TCL: Running for 25000 steps
ETITLE: TS BOND ANGLE DIHED IMPRP ELECT VDW BOUNDARY MISC KINETIC TOTAL TEMP POTENTIAL TOTAL3 TEMPAVG PRESSURE GPRESSURE VOLUME PRESSAVG GPRESSAVG
ENERGY: 100000 7.8864 0.9885 24.7748 0.0000 -21468.2766 3428.4125 0.0000 0.0000 1096.9657 -16909.2486 121.3360 -18006.2143 -16906.7790 121.3360 -566.3988 -513.9986 44124.8093 -566.3988 -513.9986
ENERGY: 105000 2.4230 1.8040 27.2168 0.0000 -20834.7768 3191.2356 0.0000 0.0000 1370.7994 -16241.2979 151.6249 -17612.0974 -16237.0090 146.8838 -1079.6620 -1017.3346 44491.1594 2.2337 2.0653
ENERGY: 110000 7.8628 3.0950 25.2323 0.0000 -21041.5147 3371.2337 0.0000 0.0000 1348.1219 -16285.9691 149.1166 -17634.0909 -16283.1842 149.7743 -51.8653 -3.4338 44069.6276 8.3009 8.2165
ENERGY: 115000 4.0142 3.6082 26.0507 0.0000 -21055.8409 3411.3557 0.0000 0.0000 1356.4524 -16254.3597 150.0380 -17610.8121 -16252.1130 150.3553 143.7848 171.6406 44186.5412 5.6123 5.4371
ENERGY: 120000 8.5789 0.9647 26.0800 0.0000 -21072.1432 3371.3713 0.0000 0.0000 1347.7997 -16317.3486 149.0809 -17665.1483 -16313.5180 149.5521 -138.2255 -75.6590 44078.0479 -0.8015 -1.0880
ENERGY: 125000 7.4355 2.5566 24.8785 0.0000 -20944.6041 3247.3406 0.0000 0.0000 1361.7256 -16300.6673 150.6213 -17662.3929 -16297.7268 150.8780 -1034.7044 -1008.5035 44689.1425 5.3530 5.1025
TCL: Running 50000 steps at 180 kelvin.
TCL: Setting parameter langevinTemp to 180
TCL: Running for 50000 steps
ETITLE: TS BOND ANGLE DIHED IMPRP ELECT VDW BOUNDARY MISC KINETIC TOTAL TEMP POTENTIAL TOTAL3 TEMPAVG PRESSURE GPRESSURE VOLUME PRESSAVG GPRESSAVG
ENERGY: 125000 7.4355 2.5566 24.8785 0.0000 -20944.6041 3247.3406 0.0000 0.0000 1361.0344 -16301.3585 150.5448 -17662.3929 -16298.4312 150.5448 -1071.6012 -1009.0838 44689.1425 -1071.6012 -1009.0838
ENERGY: 135000 4.6459 1.0709 25.3683 0.0000 -20647.2043 3292.6892 0.0000 0.0000 1601.3145 -15722.1155 177.1223 -17323.4299 -15719.0419 179.5275 155.4368 177.8095 44437.7865 -1.1917 -1.0616
ENERGY: 145000 4.4847 0.4929 26.6107 0.0000 -20640.8698 3251.6773 0.0000 0.0000 1618.4881 -15739.1162 179.0219 -17357.6042 -15736.7003 180.1168 -122.3357 -46.6746 44202.0183 0.6037 0.8202
ENERGY: 155000 8.4351 5.4959 26.8164 0.0000 -20496.2942 3196.6577 0.0000 0.0000 1627.2549 -15631.6341 179.9916 -17258.8890 -15627.5689 181.0059 33.3415 111.8056 43768.0444 2.1732 2.0464
ENERGY: 165000 4.1892 1.6593 25.4865 0.0000 -20685.9192 3348.3874 0.0000 0.0000 1633.1400 -15673.0568 180.6426 -17306.1968 -15669.7484 180.2571 703.4638 757.6211 43704.2398 2.7425 3.2252
ENERGY: 175000 4.4684 1.2051 26.2156 0.0000 -20517.4873 3159.5144 0.0000 0.0000 1654.6914 -15671.3923 183.0264 -17326.0837 -15666.4204 180.8438 -500.0114 -434.9372 44270.8002 2.6297 2.4592
TCL: Running 50000 steps at 210 kelvin.
TCL: Setting parameter langevinTemp to 210
TCL: Running for 50000 steps
ETITLE: TS BOND ANGLE DIHED IMPRP ELECT VDW BOUNDARY MISC KINETIC TOTAL TEMP POTENTIAL TOTAL3 TEMPAVG PRESSURE GPRESSURE VOLUME PRESSAVG GPRESSAVG
ENERGY: 175000 4.4684 1.2051 26.2156 0.0000 -20517.4873 3159.5144 0.0000 0.0000 1653.8525 -15672.2312 182.9336 -17326.0837 -15668.6395 182.9336 -489.3064 -435.0633 44270.8002 -489.3064 -435.0633
ENERGY: 185000 7.6390 1.1873 25.6976 0.0000 -19655.2064 2892.5486 0.0000 0.0000 1904.9051 -14823.2290 210.7027 -16728.1341 -14815.7388 209.8231 -723.1594 -639.9338 44828.3657 5.2094 5.0569
ENERGY: 195000 4.6297 1.5450 26.5162 0.0000 -19643.5605 3011.7196 0.0000 0.0000 1922.1834 -14676.9667 212.6138 -16599.1501 -14671.2977 209.9047 222.0441 292.5457 44610.1190 1.6433 1.7672
ENERGY: 205000 7.6546 2.9186 27.6258 0.0000 -19391.9245 2843.7870 0.0000 0.0000 1825.0292 -14684.9093 201.8676 -16509.9385 -14682.8396 210.8801 -284.6054 -235.0544 44472.6413 0.4374 0.7060
ENERGY: 215000 8.4790 4.1127 25.8365 0.0000 -19437.2772 2829.1016 0.0000 0.0000 1889.2334 -14680.5140 208.9692 -16569.7475 -14676.8182 210.0049 -427.2127 -356.3388 44246.5979 3.2191 3.0023
ENERGY: 225000 6.3034 1.7285 26.0714 0.0000 -19726.7487 3057.7012 0.0000 0.0000 1867.7752 -14767.1690 206.5957 -16634.9442 -14763.5813 210.2069 753.9318 840.7665 43742.4918 3.0718 3.4430
TCL: Running 50000 steps at 240 kelvin.
TCL: Setting parameter langevinTemp to 240
TCL: Running for 50000 steps
ETITLE: TS BOND ANGLE DIHED IMPRP ELECT VDW BOUNDARY MISC KINETIC TOTAL TEMP POTENTIAL TOTAL3 TEMPAVG PRESSURE GPRESSURE VOLUME PRESSAVG GPRESSAVG
ENERGY: 225000 6.3034 1.7285 26.0714 0.0000 -19726.7487 3057.7012 0.0000 0.0000 1866.7951 -14768.1491 206.4873 -16634.9442 -14764.8430 206.4873 755.3731 839.4433 43742.4918 755.3731 839.4433
ENERGY: 235000 3.9485 1.8090 24.7654 0.0000 -18714.8535 2760.0013 0.0000 0.0000 2125.1619 -13799.1674 235.0654 -15924.3293 -13792.4660 241.1156 424.5207 477.3643 45042.7360 0.1346 0.1176
ENERGY: 245000 7.3807 1.7567 27.1451 0.0000 -18652.1302 2661.3484 0.0000 0.0000 2146.5072 -13807.9920 237.4264 -15954.4992 -13801.9543 239.1678 -156.5553 -118.9442 45217.8542 5.0113 4.8250
ENERGY: 255000 5.5326 1.1480 24.9045 0.0000 -18539.3186 2581.0906 0.0000 0.0000 2178.1592 -13748.4837 240.9275 -15926.6429 -13744.6947 240.4351 -142.9883 -32.2886 44056.8547 2.1125 2.0704
ENERGY: 265000 8.5939 4.0060 27.5709 0.0000 -18707.8196 2723.6612 0.0000 0.0000 2170.6405 -13773.3472 240.0958 -15943.9877 -13767.5943 241.2313 301.3880 348.6724 44778.6302 3.8127 3.0072
ENERGY: 275000 5.2553 4.3969 26.0388 0.0000 -18557.6493 2635.2929 0.0000 0.0000 2219.9837 -13666.6817 245.5537 -15886.6654 -13663.3346 240.6578 -52.5077 45.1724 45001.8181 0.9731 0.9001
TCL: Running 50000 steps at 270 kelvin.
TCL: Setting parameter langevinTemp to 270
TCL: Running for 50000 steps
ETITLE: TS BOND ANGLE DIHED IMPRP ELECT VDW BOUNDARY MISC KINETIC TOTAL TEMP POTENTIAL TOTAL3 TEMPAVG PRESSURE GPRESSURE VOLUME PRESSAVG GPRESSAVG
ENERGY: 275000 5.2553 4.3969 26.0388 0.0000 -18557.6493 2635.2929 0.0000 0.0000 2218.8858 -13667.7797 245.4323 -15886.6654 -13664.5547 245.4323 -24.1254 46.0672 45001.8181 -24.1254 46.0672
ENERGY: 285000 5.3761 3.5315 27.6636 0.0000 -17696.8858 2389.3638 0.0000 0.0000 2437.9546 -12832.9962 269.6636 -15270.9508 -12827.7242 269.5846 -166.3886 -16.0016 45173.8754 -1.2758 -1.4589
ENERGY: 295000 6.3963 3.2712 25.0906 0.0000 -17758.0232 2472.8783 0.0000 0.0000 2408.8331 -12841.5537 266.4425 -15250.3868 -12838.2029 271.6719 370.2072 445.2937 45460.6397 1.6301 2.3077
ENERGY: 305000 5.5140 5.1224 26.3280 0.0000 -17841.1571 2507.3537 0.0000 0.0000 2416.1677 -12880.6713 267.2537 -15296.8390 -12878.7778 270.2457 588.8664 679.8464 45196.1490 6.9001 6.1780
ENERGY: 315000 4.6374 1.5226 27.1451 0.0000 -17858.6269 2515.2887 0.0000 0.0000 2382.9528 -12927.0804 263.5798 -15310.0332 -12923.8738 268.9114 333.0343 425.9433 45961.6050 4.3627 4.4489
ENERGY: 325000 8.0362 2.2175 26.3142 0.0000 -17729.6651 2411.2982 0.0000 0.0000 2472.0121 -12809.7868 273.4307 -15281.7990 -12807.3320 272.0085 -185.4432 -92.1189 45932.3224 4.5907 5.2564
TCL: Running 1000000 steps at 300 kelvin.
TCL: Setting parameter langevinTemp to 300
TCL: Running for 1000000 steps
ETITLE: TS BOND ANGLE DIHED IMPRP ELECT VDW BOUNDARY MISC KINETIC TOTAL TEMP POTENTIAL TOTAL3 TEMPAVG PRESSURE GPRESSURE VOLUME PRESSAVG GPRESSAVG
ENERGY: 325000 8.0362 2.2175 26.3142 0.0000 -17729.6651 2411.2982 0.0000 0.0000 2470.7804 -12811.0186 273.2945 -15281.7990 -12806.4255 273.2945 -187.5482 -93.6147 45932.3224 -187.5482 -93.6147
ENERGY: 525000 4.2053 2.3934 26.5258 0.0000 -16930.9180 2162.1841 0.0000 0.0000 2742.6498 -11992.9596 303.3661 -14735.6094 -11987.4416 301.1468 -625.0444 -529.7253 47329.3716 -0.0997 0.2457
ENERGY: 725000 2.3491 3.6247 26.5332 0.0000 -16803.2279 2135.2743 0.0000 0.0000 2702.9507 -11932.4959 298.9750 -14635.4467 -11929.5597 301.0688 -527.1624 -454.2286 47374.3104 5.4595 5.3695
ENERGY: 925000 7.4355 6.6670 30.8263 0.0000 -16826.9136 2180.1492 0.0000 0.0000 2787.6260 -11814.2095 308.3410 -14601.8355 -11808.9603 302.2571 -112.4571 -3.2663 47019.5637 -2.0074 -1.3025
ENERGY: 1125000 10.3867 3.2864 29.6633 0.0000 -16784.3322 2117.4233 0.0000 0.0000 2762.4815 -11861.0909 305.5597 -14623.5724 -11855.2663 300.4169 -634.9038 -526.9343 47698.5561 3.4780 3.4291
ENERGY: 1325000 8.2372 3.6066 26.0718 0.0000 -16885.2310 2202.0000 0.0000 0.0000 2732.5572 -11912.7582 302.2498 -14645.3154 -11906.1563 300.0826 -156.0906 -48.2978 47266.0107 3.3308 2.7854
TCL: Exiting due to exit command.
