Info: SIMULATION PARAMETERS:
Info: TIMESTEP               2
Info: NUMBER OF STEPS        0
Info: STEPS PER CYCLE        10
Info: PERIODIC CELL BASIS 1  39.806 0 0
Info: PERIODIC CELL BASIS 2  0 39.013 0
Info: PERIODIC CELL BASIS 3  0 0 43.557
Info: PERIODIC CELL CENTER   0 0 0
Info: WRAPPING WATERS AROUND PERIODIC BOUNDARIES ON OUTPUT.
Info: WRAPPING ALL CLUSTERS AROUND PERIODIC BOUNDARIES ON OUTPUT.
Info: FIRST LDB TIMESTEP     50
Info: LAST LDB TIMESTEP     -1
Info: HOM BACKGROUND SCALING 1
Info: PME BACKGROUND SCALING 1
Info: MIN ATOMS PER PATCH    40
Info: EMPTY PATCH LOAD       40 ATOMS
Info: INITIAL TEMPERATURE    300
Info: CENTER OF MASS MOVING INITIALLY? NO
Info: DIELECTRIC             1
Info: EXCLUDE                SCALED ONE-FOUR
Info: 1-4 ELECTROSTATICS SCALED BY 0.833333
Info: MODIFIED 1-4 VDW PARAMETERS WILL BE USED
Info: DCD FILENAME           mobley_4218209_min.dcd
Info: DCD FREQUENCY          5000
Info: DCD FIRST STEP         5000
Info: DCD FILE WILL CONTAIN UNIT CELL DATA
Info: XST FILENAME           mobley_4218209_min.xst
Info: XST FREQUENCY          5000
Info: NO VELOCITY DCD OUTPUT
Info: NO FORCE DCD OUTPUT
Info: OUTPUT FILENAME        mobley_4218209_min
Info: BINARY OUTPUT FILES WILL BE USED
Info: RESTART FILENAME       mobley_4218209_min.restart
Info: RESTART FREQUENCY      5000
Info: BINARY RESTART FILES WILL BE USED
Info: CUTOFF                 9
Info: PAIRLIST DISTANCE      11
Info: PAIRLIST SHRINK RATE   0.01
Info: PAIRLIST GROW RATE     0.01
Info: PAIRLIST TRIGGER       0.3
Info: PAIRLISTS PER CYCLE    2
Info: PAIRLISTS ENABLED
Info: MARGIN                 8
Info: HYDROGEN GROUP CUTOFF  2.5
Info: PATCH DIMENSION        21.5
Info: ENERGY OUTPUT STEPS    5000
Info: ENERGY EVALUATION STEPS    5000
Info: OUTPUT ENERGY PRECISION 4
Info: CROSSTERM ENERGY INCLUDED IN DIHEDRAL
Info: TIMING OUTPUT STEPS    50000
Info: PRESSURE OUTPUT STEPS  5000
Info: LANGEVIN DYNAMICS ACTIVE
Info: LANGEVIN TEMPERATURE   300
Info: LANGEVIN USING BBK INTEGRATOR
Info: LANGEVIN DAMPING COEFFICIENT IS 1 INVERSE PS
Info: LANGEVIN DYNAMICS APPLIED TO HYDROGENS
Info: LANGEVIN PISTON PRESSURE CONTROL ACTIVE
Info:        TARGET PRESSURE IS 1.01325 BAR
Info:     OSCILLATION PERIOD IS 50 FS
Info:             DECAY TIME IS 25 FS
Info:     PISTON TEMPERATURE IS 300 K
Info:       PRESSURE CONTROL IS GROUP-BASED
Info:    INITIAL STRAIN RATE IS 0 0 0
Info:       CELL FLUCTUATION IS ISOTROPIC
Info: PARTICLE MESH EWALD (PME) ACTIVE
Info: PME TOLERANCE               1e-06
Info: PME EWALD COEFFICIENT       0.348832
Info: PME INTERPOLATION ORDER     4
Info: PME GRID DIMENSIONS         40 40 44
Info: PME MAXIMUM GRID SPACING    1
Info: FULL ELECTROSTATIC EVALUATION FREQUENCY      2
Info: USING VERLET I (r-RESPA) MTS SCHEME.
Info: C1 SPLITTING OF LONG RANGE ELECTROSTATICS
Info: PLACING ATOMS IN PATCHES BY HYDROGEN GROUPS
Info: RIGID BONDS TO HYDROGEN : ALL
Info:         ERROR TOLERANCE : 1e-08
Info:          MAX ITERATIONS : 100
Info: RIGID WATER USING SETTLE ALGORITHM
Info: RANDOM NUMBER SEED     1741334976
Info: USE HYDROGEN BONDS?    NO
Info: Using AMBER format force field!
Info: AMBER PARM FILE        mobley_4218209.prmtop
Info: COORDINATE PDB         mobley_4218209.pdb
Info: Exclusions will be read from PARM file!
Info: SCNB (VDW SCALING)     2
Info: USING ARITHMETIC MEAN TO COMBINE L-J SIGMA PARAMETERS
Info: SUMMARY OF PARAMETERS:
Info: 9 BONDS
Info: 9 ANGLES
Info:   9 HARMONIC
Info:   0 COSINE-BASED
Info: 5 DIHEDRAL
Info: 0 IMPROPER
Info: 0 CROSSTERM
Info: 0 VDW
Info: 45 VDW_PAIRS
Info: 0 NBTHOLE_PAIRS
Info: STRUCTURE SUMMARY:
Info: 4866 ATOMS
Info: 4866 BONDS
Info: 28 ANGLES
Info: 37 DIHEDRALS
Info: 0 IMPROPERS
Info: 0 CROSSTERMS
Info: 4924 EXCLUSIONS
Info: 4857 RIGID BONDS
Info: 9741 DEGREES OF FREEDOM
Info: 1625 HYDROGEN GROUPS
Info: 4 ATOMS IN LARGEST HYDROGEN GROUP
Info: 1625 MIGRATION GROUPS
Info: 4 ATOMS IN LARGEST MIGRATION GROUP
Info: TOTAL MASS = 29237 amu
Info: TOTAL CHARGE = 9.99868e-05 e
Info: MASS DENSITY = 0.717755 g/cm^3
Info: ATOM DENSITY = 0.0719377 atoms/A^3
Info: ADDED 0 IMPLICIT EXCLUSIONS
Info: NONBONDED TABLE R-SQUARED SPACING: 0.0625
Info: NONBONDED TABLE SIZE: 705 POINTS
Info: REMOVING COM VELOCITY -0.0635285 0.0328002 0.033677
TCL: Minimizing for 2000 steps
ETITLE: TS BOND ANGLE DIHED IMPRP ELECT VDW BOUNDARY MISC KINETIC TOTAL TEMP POTENTIAL TOTAL3 TEMPAVG PRESSURE GPRESSURE VOLUME PRESSAVG GPRESSAVG
ENERGY: 0 0.0660 1.0230 0.0261 0.0000 -15093.6589 1730.0487 0.0000 0.0000 0.0000 -13362.4951 0.0000 -13362.4951 -13362.4951 0.0000 11135.7836 -15293.7405 67641.9075 11135.7836 -15293.7405
ENERGY: 400 2.1805 3.4841 1.4635 0.0000 -20176.0653 2852.4760 0.0000 0.0000 0.0000 -17316.4611 0.0000 -17316.4611 -17316.4611 0.0000 15173.0603 10675.2338 67641.9075 15173.0603 10675.2338
ENERGY: 800 1.3880 1.6009 1.4724 0.0000 -21344.4598 3419.5844 0.0000 0.0000 0.0000 -17920.4141 0.0000 -17920.4141 -17920.4141 0.0000 17772.2838 12805.6600 67641.9075 17772.2838 12805.6600
ENERGY: 1200 0.4100 1.4697 1.8093 0.0000 -21928.3752 3694.1049 0.0000 0.0000 0.0000 -18230.5813 0.0000 -18230.5813 -18230.5813 0.0000 19122.8931 14124.9670 67641.9075 19122.8931 14124.9670
ENERGY: 1600 0.3772 1.0602 1.8898 0.0000 -22173.6635 3809.0855 0.0000 0.0000 0.0000 -18361.2508 0.0000 -18361.2508 -18361.2508 0.0000 19771.3166 14588.5233 67641.9075 19771.3166 14588.5233
ENERGY: 2000 0.4984 1.0883 1.9805 0.0000 -22324.3943 3861.1572 0.0000 0.0000 0.0000 -18459.6700 0.0000 -18459.6700 -18459.6700 0.0000 20048.6037 14811.9883 67641.9075 20048.6037 14811.9883
TCL: Exiting due to exit command.
Info: NAMD 3.0.1 for Linux-x86_64-multicore
Info: Please visit http://www.ks.uiuc.edu/Research/namd/
Info: for updates, documentation, and support information.
Info: Please cite Phillips et al., J. Chem. Phys. 153:044130 (2020) doi:10.1063/5.0014475
Info: in all publications reporting results obtained with NAMD.
Info: Based on Charm++/Converse 80000 for multicore-linux-x86_64-gcc
Info: Built Mon Oct 14 11:11:06 CDT 2024 by dhardy on athine.ks.uiuc.edu
Info: 1 NAMD  3.0.1  Linux-x86_64-multicore  16    k061  z5358697
Info: Running on 16 processors, 1 nodes, 1 physical nodes.
Info: CPU topology information available.
Info: Charm++/Converse parallel runtime startup completed at 0.0333408 s
Info: 1043.46 MB of memory in use based on /proc/self/stat
Info: Configuration file is mobley_4218209_equil.namd
Info: Working in the current directory /srv/scratch/z5358697/prod_prep_5/4218209
TCL: Running 25000 steps at 30 kelvin.
TCL: Suspending until startup complete.
Info: SIMULATION PARAMETERS:
Info: TIMESTEP               2
Info: NUMBER OF STEPS        0
Info: STEPS PER CYCLE        10
Info: PERIODIC CELL BASIS 1  39.806 0 0
Info: PERIODIC CELL BASIS 2  0 39.013 0
Info: PERIODIC CELL BASIS 3  0 0 43.557
Info: PERIODIC CELL CENTER   0 0 0
Info: WRAPPING WATERS AROUND PERIODIC BOUNDARIES ON OUTPUT.
Info: WRAPPING ALL CLUSTERS AROUND PERIODIC BOUNDARIES ON OUTPUT.
Info: FIRST LDB TIMESTEP     50
Info: LAST LDB TIMESTEP     -1
Info: HOM BACKGROUND SCALING 1
Info: PME BACKGROUND SCALING 1
Info: MIN ATOMS PER PATCH    40
Info: EMPTY PATCH LOAD       40 ATOMS
Info: INITIAL TEMPERATURE    300
Info: CENTER OF MASS MOVING INITIALLY? NO
Info: DIELECTRIC             1
Info: EXCLUDE                SCALED ONE-FOUR
Info: 1-4 ELECTROSTATICS SCALED BY 0.833333
Info: MODIFIED 1-4 VDW PARAMETERS WILL BE USED
Info: DCD FILENAME           mobley_4218209_equil.dcd
Info: DCD FREQUENCY          5000
Info: DCD FIRST STEP         5000
Info: DCD FILE WILL CONTAIN UNIT CELL DATA
Info: XST FILENAME           mobley_4218209_equil.xst
Info: XST FREQUENCY          5000
Info: NO VELOCITY DCD OUTPUT
Info: NO FORCE DCD OUTPUT
Info: OUTPUT FILENAME        mobley_4218209_equil
Info: BINARY OUTPUT FILES WILL BE USED
Info: RESTART FILENAME       mobley_4218209_equil.restart
Info: RESTART FREQUENCY      5000
Info: BINARY RESTART FILES WILL BE USED
Info: CUTOFF                 9
Info: PAIRLIST DISTANCE      11
Info: PAIRLIST SHRINK RATE   0.01
Info: PAIRLIST GROW RATE     0.01
Info: PAIRLIST TRIGGER       0.3
Info: PAIRLISTS PER CYCLE    2
Info: PAIRLISTS ENABLED
Info: MARGIN                 8
Info: HYDROGEN GROUP CUTOFF  2.5
Info: PATCH DIMENSION        21.5
Info: ENERGY OUTPUT STEPS    5000
Info: ENERGY EVALUATION STEPS    5000
Info: OUTPUT ENERGY PRECISION 4
Info: CROSSTERM ENERGY INCLUDED IN DIHEDRAL
Info: TIMING OUTPUT STEPS    50000
Info: PRESSURE OUTPUT STEPS  5000
Info: LANGEVIN DYNAMICS ACTIVE
Info: LANGEVIN TEMPERATURE   30
Info: LANGEVIN USING BBK INTEGRATOR
Info: LANGEVIN DAMPING COEFFICIENT IS 1 INVERSE PS
Info: LANGEVIN DYNAMICS APPLIED TO HYDROGENS
Info: LANGEVIN PISTON PRESSURE CONTROL ACTIVE
Info:        TARGET PRESSURE IS 1.01325 BAR
Info:     OSCILLATION PERIOD IS 50 FS
Info:             DECAY TIME IS 25 FS
Info:     PISTON TEMPERATURE IS 300 K
Info:       PRESSURE CONTROL IS GROUP-BASED
Info:    INITIAL STRAIN RATE IS 0 0 0
Info:       CELL FLUCTUATION IS ISOTROPIC
Info: PARTICLE MESH EWALD (PME) ACTIVE
Info: PME TOLERANCE               1e-06
Info: PME EWALD COEFFICIENT       0.348832
Info: PME INTERPOLATION ORDER     4
Info: PME GRID DIMENSIONS         40 40 44
Info: PME MAXIMUM GRID SPACING    1
Info: FULL ELECTROSTATIC EVALUATION FREQUENCY      2
Info: USING VERLET I (r-RESPA) MTS SCHEME.
Info: C1 SPLITTING OF LONG RANGE ELECTROSTATICS
Info: PLACING ATOMS IN PATCHES BY HYDROGEN GROUPS
Info: RIGID BONDS TO HYDROGEN : ALL
Info:         ERROR TOLERANCE : 1e-08
Info:          MAX ITERATIONS : 100
Info: RIGID WATER USING SETTLE ALGORITHM
Info: RANDOM NUMBER SEED     1741334989
Info: USE HYDROGEN BONDS?    NO
Info: Using AMBER format force field!
Info: AMBER PARM FILE        mobley_4218209.prmtop
Info: COORDINATE PDB         mobley_4218209.pdb
Info: Exclusions will be read from PARM file!
Info: SCNB (VDW SCALING)     2
Info: USING ARITHMETIC MEAN TO COMBINE L-J SIGMA PARAMETERS
Info: BINARY COORDINATES     mobley_4218209_min.coor
Info: SUMMARY OF PARAMETERS:
Info: 9 BONDS
Info: 9 ANGLES
Info:   9 HARMONIC
Info:   0 COSINE-BASED
Info: 5 DIHEDRAL
Info: 0 IMPROPER
Info: 0 CROSSTERM
Info: 0 VDW
Info: 45 VDW_PAIRS
Info: 0 NBTHOLE_PAIRS
Info: STRUCTURE SUMMARY:
Info: 4866 ATOMS
Info: 4866 BONDS
Info: 28 ANGLES
Info: 37 DIHEDRALS
Info: 0 IMPROPERS
Info: 0 CROSSTERMS
Info: 4924 EXCLUSIONS
Info: 4857 RIGID BONDS
Info: 9741 DEGREES OF FREEDOM
Info: 1625 HYDROGEN GROUPS
Info: 4 ATOMS IN LARGEST HYDROGEN GROUP
Info: 1625 MIGRATION GROUPS
Info: 4 ATOMS IN LARGEST MIGRATION GROUP
Info: TOTAL MASS = 29237 amu
Info: TOTAL CHARGE = 9.99868e-05 e
Info: MASS DENSITY = 0.717755 g/cm^3
Info: ATOM DENSITY = 0.0719377 atoms/A^3
Info: ADDED 0 IMPLICIT EXCLUSIONS
Info: NONBONDED TABLE R-SQUARED SPACING: 0.0625
Info: NONBONDED TABLE SIZE: 705 POINTS
Info: REMOVING COM VELOCITY -0.015621 -0.081169 0.11522
TCL: Running for 25000 steps
ETITLE: TS BOND ANGLE DIHED IMPRP ELECT VDW BOUNDARY MISC KINETIC TOTAL TEMP POTENTIAL TOTAL3 TEMPAVG PRESSURE GPRESSURE VOLUME PRESSAVG GPRESSAVG
ENERGY: 0 0.4984 1.0883 1.9805 0.0000 -22324.3943 3861.1572 0.0000 0.0000 2889.2690 -15570.4010 298.5210 -18459.6700 -15569.8137 298.5210 345.4595 381.6811 67641.9075 345.4595 381.6811
ENERGY: 5000 0.2728 2.0631 2.4135 0.0000 -23224.1913 3935.5029 0.0000 0.0000 294.5623 -18989.3768 30.4343 -19283.9391 -18988.4479 47.2217 -300.4874 -246.2588 47249.5452 4.1606 4.2106
ENERGY: 10000 0.0777 1.0726 2.0542 0.0000 -23177.1170 3863.8868 0.0000 0.0000 287.1167 -19022.9091 29.6651 -19310.0258 -19022.1047 29.9118 -740.5244 -673.3268 47334.3574 2.1884 2.3724
ENERGY: 15000 0.2900 1.4121 1.7800 0.0000 -23349.4794 3995.8570 0.0000 0.0000 293.1076 -19057.0327 30.2840 -19350.1403 -19056.4060 30.0922 -113.5342 -48.6669 47066.6358 1.5536 1.8144
ENERGY: 20000 0.7972 1.4032 1.9377 0.0000 -23280.5266 3918.8195 0.0000 0.0000 291.6098 -19065.9593 30.1293 -19357.5691 -19065.0174 30.0639 -614.5771 -532.9150 47140.5654 4.4904 4.5966
ENERGY: 25000 0.1836 1.1920 2.2158 0.0000 -23551.9260 4178.1074 0.0000 0.0000 297.1431 -19073.0841 30.7010 -19370.2272 -19072.3872 30.3200 789.7804 837.0806 46808.4061 2.6408 2.5730
TCL: Running 25000 steps at 60 kelvin.
TCL: Setting parameter langevinTemp to 60
TCL: Running for 25000 steps
ETITLE: TS BOND ANGLE DIHED IMPRP ELECT VDW BOUNDARY MISC KINETIC TOTAL TEMP POTENTIAL TOTAL3 TEMPAVG PRESSURE GPRESSURE VOLUME PRESSAVG GPRESSAVG
ENERGY: 25000 0.1836 1.1920 2.2158 0.0000 -23551.9260 4178.1074 0.0000 0.0000 297.0018 -19073.2254 30.6864 -19370.2272 -19072.6831 30.6864 778.3963 837.2485 46808.4061 778.3963 837.2485
ENERGY: 30000 0.6830 3.0341 2.5716 0.0000 -23129.9901 4003.9322 0.0000 0.0000 588.2675 -18531.5018 60.7801 -19119.7693 -18530.2535 57.2926 462.4927 521.2589 47003.4348 8.8454 8.6290
ENERGY: 35000 0.8122 1.9949 2.7717 0.0000 -23232.4628 4039.6122 0.0000 0.0000 592.6766 -18594.5952 61.2357 -19187.2717 -18593.0709 60.7418 385.9537 445.7014 47121.6065 4.3352 4.5083
ENERGY: 40000 0.3038 1.7558 1.7894 0.0000 -23298.6782 4079.7135 0.0000 0.0000 593.6906 -18621.4251 61.3405 -19215.1156 -18619.9343 59.8035 555.8910 600.9174 47142.5196 8.6596 8.7515
ENERGY: 45000 0.3254 1.3487 2.2109 0.0000 -23488.6077 4225.5734 0.0000 0.0000 580.2179 -18678.9312 59.9485 -19259.1492 -18678.0201 60.0253 1235.5037 1303.5045 46811.4402 2.3633 2.2274
ENERGY: 50000 0.5810 2.0957 1.8470 0.0000 -23169.1784 3908.7675 0.0000 0.0000 581.5229 -18674.3642 60.0833 -19255.8871 -18672.8116 59.9865 -429.2323 -385.8680 47228.0457 5.2228 5.1736
TCL: Running 25000 steps at 90 kelvin.
TCL: Setting parameter langevinTemp to 90
TCL: Running for 25000 steps
ETITLE: TS BOND ANGLE DIHED IMPRP ELECT VDW BOUNDARY MISC KINETIC TOTAL TEMP POTENTIAL TOTAL3 TEMPAVG PRESSURE GPRESSURE VOLUME PRESSAVG GPRESSAVG
ENERGY: 50000 0.5810 2.0957 1.8470 0.0000 -23169.1784 3908.7675 0.0000 0.0000 581.2327 -18674.6544 60.0533 -19255.8871 -18673.4667 60.0533 -437.7287 -385.8178 47228.0457 -437.7287 -385.8178
ENERGY: 55000 2.0211 1.3994 1.0812 0.0000 -22936.1155 3957.2045 0.0000 0.0000 875.7030 -18098.7063 90.4781 -18974.4092 -18096.2592 86.7482 495.7326 555.1488 47119.3425 4.3506 4.4405
ENERGY: 60000 1.0363 2.1377 1.9725 0.0000 -22862.4567 3843.5414 0.0000 0.0000 863.4507 -18150.3181 89.2122 -19013.7688 -18148.0874 90.1962 -173.0342 -118.1205 47335.9201 3.7583 4.2016
ENERGY: 65000 0.5783 3.4358 2.1702 0.0000 -22960.0484 3907.7977 0.0000 0.0000 891.1228 -18154.9436 92.0713 -19046.0664 -18152.5129 89.8272 172.6892 222.5356 47109.6183 2.5576 2.3437
ENERGY: 70000 0.3900 2.2381 2.4157 0.0000 -23127.8290 4041.4600 0.0000 0.0000 879.7298 -18201.5954 90.8942 -19081.3252 -18199.8081 90.5956 809.3493 849.5138 46890.3891 -2.5462 -2.8732
ENERGY: 75000 1.1856 1.8619 1.6518 0.0000 -22860.9794 3786.3153 0.0000 0.0000 868.8192 -18201.1455 89.7669 -19069.9648 -18198.9603 90.7431 -666.6148 -601.2252 47360.1628 3.4015 3.1568
TCL: Running 25000 steps at 120 kelvin.
TCL: Setting parameter langevinTemp to 120
TCL: Running for 25000 steps
ETITLE: TS BOND ANGLE DIHED IMPRP ELECT VDW BOUNDARY MISC KINETIC TOTAL TEMP POTENTIAL TOTAL3 TEMPAVG PRESSURE GPRESSURE VOLUME PRESSAVG GPRESSAVG
ENERGY: 75000 1.1856 1.8619 1.6518 0.0000 -22860.9794 3786.3153 0.0000 0.0000 868.3679 -18201.5969 89.7203 -19069.9648 -18199.9444 89.7203 -656.5629 -601.5923 47360.1628 -656.5629 -601.5923
ENERGY: 80000 0.5180 2.7816 1.7023 0.0000 -22779.4591 4024.9644 0.0000 0.0000 1160.8842 -17588.6085 119.9432 -18749.4927 -17586.5591 116.5071 1345.9383 1370.8590 47288.3458 1.5152 1.1558
ENERGY: 85000 1.0646 2.2668 1.7105 0.0000 -22757.0038 3949.3417 0.0000 0.0000 1170.0951 -17632.5250 120.8949 -18802.6201 -17629.1942 120.7657 834.9353 902.8454 47216.9508 4.2844 4.0338
ENERGY: 90000 0.8101 3.0241 1.7169 0.0000 -22697.3204 3870.6250 0.0000 0.0000 1200.7548 -17620.3896 124.0627 -18821.1443 -17617.0141 120.0404 416.3418 471.5272 47253.2726 0.3992 0.1634
ENERGY: 95000 0.3805 3.2946 2.1453 0.0000 -22583.4468 3762.0112 0.0000 0.0000 1145.5212 -17670.0940 118.3559 -18815.6152 -17667.5127 121.0416 -208.6816 -141.0747 47475.6683 3.8040 3.5634
ENERGY: 100000 0.6202 3.1363 3.7563 0.0000 -22530.4596 3689.9547 0.0000 0.0000 1144.5778 -17688.4143 118.2584 -18832.9921 -17685.7826 120.2420 -551.7954 -492.5416 47354.6243 6.8216 6.9612
TCL: Running 25000 steps at 150 kelvin.
TCL: Setting parameter langevinTemp to 150
TCL: Running for 25000 steps
ETITLE: TS BOND ANGLE DIHED IMPRP ELECT VDW BOUNDARY MISC KINETIC TOTAL TEMP POTENTIAL TOTAL3 TEMPAVG PRESSURE GPRESSURE VOLUME PRESSAVG GPRESSAVG
ENERGY: 100000 0.6202 3.1363 3.7563 0.0000 -22530.4596 3689.9547 0.0000 0.0000 1143.9911 -17689.0011 118.1978 -18832.9921 -17686.3582 118.1978 -556.5649 -493.4894 47354.6243 -556.5649 -493.4894
ENERGY: 105000 2.2349 3.5049 2.5133 0.0000 -22074.6217 3638.7688 0.0000 0.0000 1456.4779 -16971.1219 150.4841 -18427.5998 -16966.6519 146.2251 38.6470 105.1581 47561.8262 -0.6177 -0.0541
ENERGY: 110000 2.0432 7.2782 2.3410 0.0000 -22057.4116 3626.0670 0.0000 0.0000 1456.1985 -16963.4837 150.4553 -18419.6822 -16959.3689 150.3363 125.6527 185.4890 47430.7542 2.4211 1.8424
ENERGY: 115000 0.8851 3.5105 3.5818 0.0000 -22146.2453 3664.8261 0.0000 0.0000 1445.5076 -17027.9342 149.3507 -18473.4418 -17023.9623 150.4860 67.9445 155.0664 47512.7614 7.5679 7.5654
ENERGY: 120000 0.8919 3.5657 1.2569 0.0000 -22392.0080 3823.1338 0.0000 0.0000 1442.8002 -17120.3595 149.0710 -18563.1597 -17115.9995 149.8133 683.7215 722.4862 47513.8992 -0.1957 -0.4013
ENERGY: 125000 1.0362 4.8108 2.0197 0.0000 -22067.6510 3522.2332 0.0000 0.0000 1461.1988 -17076.3522 150.9719 -18537.5510 -17072.9325 148.6526 -883.1873 -828.9647 47982.5844 6.4889 5.9049
TCL: Running 50000 steps at 180 kelvin.
TCL: Setting parameter langevinTemp to 180
TCL: Running for 50000 steps
ETITLE: TS BOND ANGLE DIHED IMPRP ELECT VDW BOUNDARY MISC KINETIC TOTAL TEMP POTENTIAL TOTAL3 TEMPAVG PRESSURE GPRESSURE VOLUME PRESSAVG GPRESSAVG
ENERGY: 125000 1.0362 4.8108 2.0197 0.0000 -22067.6510 3522.2332 0.0000 0.0000 1460.4817 -17077.0694 150.8978 -18537.5510 -17073.8528 150.8978 -884.2247 -829.3282 47982.5844 -884.2247 -829.3282
ENERGY: 135000 1.3900 5.0945 1.6717 0.0000 -21512.0388 3372.4129 0.0000 0.0000 1743.5175 -16387.9520 180.1412 -18131.4696 -16385.2248 178.5892 -595.8929 -555.6914 47703.7701 2.1934 2.1426
ENERGY: 145000 3.6322 4.4566 2.1923 0.0000 -21670.6839 3512.7976 0.0000 0.0000 1766.3675 -16381.2376 182.5021 -18147.6051 -16377.3332 179.2744 131.1050 145.7879 47329.8062 4.9832 4.2973
ENERGY: 155000 1.4469 4.3177 3.6501 0.0000 -21631.5881 3480.0085 0.0000 0.0000 1743.4550 -16398.7097 180.1348 -18142.1648 -16396.7631 180.6993 -220.4062 -118.6074 47681.9896 -0.2356 -0.5677
ENERGY: 165000 2.2894 2.6685 3.1236 0.0000 -21664.7416 3541.9087 0.0000 0.0000 1734.6217 -16380.1298 179.2221 -18114.7515 -16374.3145 180.2017 108.1391 165.9146 47979.9628 6.4587 6.7592
ENERGY: 175000 0.9865 4.3687 4.2149 0.0000 -21634.4218 3518.1257 0.0000 0.0000 1800.3290 -16306.3970 186.0110 -18106.7260 -16302.1363 179.8098 91.5582 155.9081 47884.6608 2.6622 2.7879
TCL: Running 50000 steps at 210 kelvin.
TCL: Setting parameter langevinTemp to 210
TCL: Running for 50000 steps
ETITLE: TS BOND ANGLE DIHED IMPRP ELECT VDW BOUNDARY MISC KINETIC TOTAL TEMP POTENTIAL TOTAL3 TEMPAVG PRESSURE GPRESSURE VOLUME PRESSAVG GPRESSAVG
ENERGY: 175000 0.9865 4.3687 4.2149 0.0000 -21634.4218 3518.1257 0.0000 0.0000 1799.4557 -16307.2703 185.9208 -18106.7260 -16304.0719 185.9208 92.7325 155.5225 47884.6608 92.7325 155.5225
ENERGY: 185000 1.3204 5.1668 4.7742 0.0000 -20468.5928 2985.8469 0.0000 0.0000 2020.9134 -15450.5710 208.8020 -17471.4845 -15445.5059 208.8373 -1266.6051 -1156.2101 48336.6135 -0.5760 -0.7046
ENERGY: 195000 1.8763 4.4487 4.2603 0.0000 -20501.1078 3076.9378 0.0000 0.0000 1968.6790 -15444.9057 203.4051 -17413.5846 -15441.2625 208.8687 -261.9613 -199.7249 47102.6905 1.4014 1.4454
ENERGY: 205000 0.5597 6.5958 4.2582 0.0000 -20518.5245 3161.9052 0.0000 0.0000 2055.5086 -15289.6970 212.3763 -17345.2056 -15284.9095 211.3606 70.3035 162.5417 47689.3560 6.3744 5.8347
ENERGY: 215000 1.6790 3.8936 6.1418 0.0000 -20507.4585 3097.4275 0.0000 0.0000 2008.3334 -15389.9832 207.5022 -17398.3166 -15386.2538 210.0143 -224.6073 -98.0788 47486.2848 -0.8302 -1.0499
ENERGY: 225000 2.5075 4.3811 2.0074 0.0000 -20422.0816 3084.9145 0.0000 0.0000 2030.3629 -15297.9082 209.7783 -17328.2711 -15292.1022 209.6323 -61.8114 9.8952 47463.0990 -2.5100 -1.8481
TCL: Running 50000 steps at 240 kelvin.
TCL: Setting parameter langevinTemp to 240
TCL: Running for 50000 steps
ETITLE: TS BOND ANGLE DIHED IMPRP ELECT VDW BOUNDARY MISC KINETIC TOTAL TEMP POTENTIAL TOTAL3 TEMPAVG PRESSURE GPRESSURE VOLUME PRESSAVG GPRESSAVG
ENERGY: 225000 2.5075 4.3811 2.0074 0.0000 -20422.0816 3084.9145 0.0000 0.0000 2029.3279 -15298.9432 209.6713 -17328.2711 -15295.4374 209.6713 -70.5558 10.6398 47463.0990 -70.5558 10.6398
ENERGY: 235000 2.5294 7.3936 5.6192 0.0000 -19585.1894 2890.8913 0.0000 0.0000 2249.5235 -14429.2323 232.4221 -16678.7558 -14426.2217 240.2918 157.3546 277.0925 48068.0678 3.1120 3.2063
ENERGY: 245000 2.2216 6.4314 4.8725 0.0000 -19525.1250 2783.1040 0.0000 0.0000 2347.8185 -14380.6770 242.5780 -16728.4955 -14374.7521 239.5877 -316.0404 -224.6667 47551.7619 6.5111 6.6246
ENERGY: 255000 2.2652 5.3542 3.6773 0.0000 -19604.8025 2929.8700 0.0000 0.0000 2267.6843 -14395.9515 234.2985 -16663.6358 -14391.2976 239.8723 574.0447 627.5658 47619.1295 -1.2808 -1.0317
ENERGY: 265000 1.3645 4.7351 3.1117 0.0000 -19772.2429 3076.6801 0.0000 0.0000 2363.0827 -14323.2687 244.1551 -16686.3514 -14316.5504 241.3741 990.9592 1099.5765 47942.4517 3.4855 3.5237
ENERGY: 275000 2.9905 5.9244 3.6502 0.0000 -19777.3526 3018.5864 0.0000 0.0000 2362.0654 -14384.1357 244.0500 -16746.2010 -14377.1252 240.4274 755.7556 821.0611 47670.5118 2.1261 2.4194
TCL: Running 50000 steps at 270 kelvin.
TCL: Setting parameter langevinTemp to 270
TCL: Running for 50000 steps
ETITLE: TS BOND ANGLE DIHED IMPRP ELECT VDW BOUNDARY MISC KINETIC TOTAL TEMP POTENTIAL TOTAL3 TEMPAVG PRESSURE GPRESSURE VOLUME PRESSAVG GPRESSAVG
ENERGY: 275000 2.9905 5.9244 3.6502 0.0000 -19777.3526 3018.5864 0.0000 0.0000 2360.9001 -14385.3009 243.9296 -16746.2010 -14381.6386 243.9296 733.2833 821.7791 47670.5118 733.2833 821.7791
ENERGY: 285000 2.4667 5.5447 3.1469 0.0000 -18603.9662 2602.7047 0.0000 0.0000 2644.7995 -13345.3038 273.2622 -15990.1033 -13339.7446 270.8243 36.0603 123.4070 48764.7822 3.0054 3.1040
ENERGY: 295000 1.9125 4.7173 7.6162 0.0000 -18811.9131 2693.3337 0.0000 0.0000 2553.2236 -13551.1100 263.8005 -16104.3335 -13546.2867 270.1118 228.7313 352.8491 48422.3155 4.1834 3.8557
ENERGY: 305000 2.9669 5.1672 2.9286 0.0000 -18450.7661 2539.4430 0.0000 0.0000 2662.2988 -13237.9616 275.0703 -15900.2604 -13232.1075 269.7869 -294.5848 -240.6091 49347.2001 -0.4552 -0.5340
ENERGY: 315000 0.5544 4.5105 1.8006 0.0000 -18434.2693 2529.6352 0.0000 0.0000 2600.0396 -13297.7290 268.6376 -15897.7686 -13291.1786 270.2266 -196.6491 -144.6943 48930.0688 6.5802 6.4633
ENERGY: 325000 2.8802 4.4901 2.6047 0.0000 -18513.2139 2599.6714 0.0000 0.0000 2619.2981 -13284.2694 270.6274 -15903.5675 -13281.6783 270.9134 306.5138 340.3798 48694.7520 5.4355 5.7835
TCL: Running 1000000 steps at 300 kelvin.
TCL: Setting parameter langevinTemp to 300
TCL: Running for 1000000 steps
ETITLE: TS BOND ANGLE DIHED IMPRP ELECT VDW BOUNDARY MISC KINETIC TOTAL TEMP POTENTIAL TOTAL3 TEMPAVG PRESSURE GPRESSURE VOLUME PRESSAVG GPRESSAVG
ENERGY: 325000 2.8802 4.4901 2.6047 0.0000 -18513.2139 2599.6714 0.0000 0.0000 2617.9537 -13285.6138 270.4885 -15903.5675 -13281.1732 270.4885 267.4656 338.9311 48694.7520 267.4656 338.9311
ENERGY: 525000 1.6716 3.9295 5.3326 0.0000 -17582.1295 2345.9281 0.0000 0.0000 2905.2312 -12320.0364 300.1702 -15225.2676 -12314.5801 299.3441 7.5519 120.0587 50125.4628 3.0686 2.7670
ENERGY: 725000 2.7340 6.7696 3.6554 0.0000 -17632.0942 2316.7798 0.0000 0.0000 2928.7810 -12373.3744 302.6034 -15302.1554 -12367.2624 299.2581 -261.4250 -235.2165 50163.4860 1.4729 0.9639
ENERGY: 925000 3.6485 4.4641 2.4300 0.0000 -17767.0611 2348.4669 0.0000 0.0000 2901.6996 -12506.3519 299.8053 -15408.0515 -12500.6572 298.9412 -337.0475 -204.6271 49872.3892 2.7164 2.9930
ENERGY: 1125000 4.2253 4.9697 5.9476 0.0000 -17699.0843 2358.1002 0.0000 0.0000 2861.8934 -12463.9480 295.6925 -15325.8414 -12458.7534 299.9452 1.4402 45.4398 49510.4621 4.5056 5.3059
ENERGY: 1325000 3.0907 6.9046 3.3421 0.0000 -17488.1399 2286.9187 0.0000 0.0000 2868.5307 -12319.3530 296.3783 -15187.8837 -12312.6394 298.9572 -405.7518 -337.9145 50366.6606 -1.5574 -2.3863
TCL: Exiting due to exit command.
