Info: SIMULATION PARAMETERS:
Info: TIMESTEP               2
Info: NUMBER OF STEPS        0
Info: STEPS PER CYCLE        10
Info: PERIODIC CELL BASIS 1  41.123 0 0
Info: PERIODIC CELL BASIS 2  0 41.432 0
Info: PERIODIC CELL BASIS 3  0 0 41.374
Info: PERIODIC CELL CENTER   0 0 0
Info: WRAPPING WATERS AROUND PERIODIC BOUNDARIES ON OUTPUT.
Info: WRAPPING ALL CLUSTERS AROUND PERIODIC BOUNDARIES ON OUTPUT.
Info: FIRST LDB TIMESTEP     50
Info: LAST LDB TIMESTEP     -1
Info: HOM BACKGROUND SCALING 1
Info: PME BACKGROUND SCALING 1
Info: MIN ATOMS PER PATCH    40
Info: EMPTY PATCH LOAD       40 ATOMS
Info: INITIAL TEMPERATURE    300
Info: CENTER OF MASS MOVING INITIALLY? NO
Info: DIELECTRIC             1
Info: EXCLUDE                SCALED ONE-FOUR
Info: 1-4 ELECTROSTATICS SCALED BY 0.833333
Info: MODIFIED 1-4 VDW PARAMETERS WILL BE USED
Info: DCD FILENAME           mobley_3738859_min.dcd
Info: DCD FREQUENCY          5000
Info: DCD FIRST STEP         5000
Info: DCD FILE WILL CONTAIN UNIT CELL DATA
Info: XST FILENAME           mobley_3738859_min.xst
Info: XST FREQUENCY          5000
Info: NO VELOCITY DCD OUTPUT
Info: NO FORCE DCD OUTPUT
Info: OUTPUT FILENAME        mobley_3738859_min
Info: BINARY OUTPUT FILES WILL BE USED
Info: RESTART FILENAME       mobley_3738859_min.restart
Info: RESTART FREQUENCY      5000
Info: BINARY RESTART FILES WILL BE USED
Info: CUTOFF                 9
Info: PAIRLIST DISTANCE      11
Info: PAIRLIST SHRINK RATE   0.01
Info: PAIRLIST GROW RATE     0.01
Info: PAIRLIST TRIGGER       0.3
Info: PAIRLISTS PER CYCLE    2
Info: PAIRLISTS ENABLED
Info: MARGIN                 8
Info: HYDROGEN GROUP CUTOFF  2.5
Info: PATCH DIMENSION        21.5
Info: ENERGY OUTPUT STEPS    5000
Info: ENERGY EVALUATION STEPS    5000
Info: OUTPUT ENERGY PRECISION 4
Info: CROSSTERM ENERGY INCLUDED IN DIHEDRAL
Info: TIMING OUTPUT STEPS    50000
Info: PRESSURE OUTPUT STEPS  5000
Info: LANGEVIN DYNAMICS ACTIVE
Info: LANGEVIN TEMPERATURE   300
Info: LANGEVIN USING BBK INTEGRATOR
Info: LANGEVIN DAMPING COEFFICIENT IS 1 INVERSE PS
Info: LANGEVIN DYNAMICS APPLIED TO HYDROGENS
Info: LANGEVIN PISTON PRESSURE CONTROL ACTIVE
Info:        TARGET PRESSURE IS 1.01325 BAR
Info:     OSCILLATION PERIOD IS 50 FS
Info:             DECAY TIME IS 25 FS
Info:     PISTON TEMPERATURE IS 300 K
Info:       PRESSURE CONTROL IS GROUP-BASED
Info:    INITIAL STRAIN RATE IS 0 0 0
Info:       CELL FLUCTUATION IS ISOTROPIC
Info: PARTICLE MESH EWALD (PME) ACTIVE
Info: PME TOLERANCE               1e-06
Info: PME EWALD COEFFICIENT       0.348832
Info: PME INTERPOLATION ORDER     4
Info: PME GRID DIMENSIONS         44 44 44
Info: PME MAXIMUM GRID SPACING    1
Info: FULL ELECTROSTATIC EVALUATION FREQUENCY      2
Info: USING VERLET I (r-RESPA) MTS SCHEME.
Info: C1 SPLITTING OF LONG RANGE ELECTROSTATICS
Info: PLACING ATOMS IN PATCHES BY HYDROGEN GROUPS
Info: RIGID BONDS TO HYDROGEN : ALL
Info:         ERROR TOLERANCE : 1e-08
Info:          MAX ITERATIONS : 100
Info: RIGID WATER USING SETTLE ALGORITHM
Info: RANDOM NUMBER SEED     1741329026
Info: USE HYDROGEN BONDS?    NO
Info: Using AMBER format force field!
Info: AMBER PARM FILE        mobley_3738859.prmtop
Info: COORDINATE PDB         mobley_3738859.pdb
Info: Exclusions will be read from PARM file!
Info: SCNB (VDW SCALING)     2
Info: USING ARITHMETIC MEAN TO COMBINE L-J SIGMA PARAMETERS
Info: SUMMARY OF PARAMETERS:
Info: 6 BONDS
Info: 7 ANGLES
Info:   7 HARMONIC
Info:   0 COSINE-BASED
Info: 5 DIHEDRAL
Info: 0 IMPROPER
Info: 0 CROSSTERM
Info: 0 VDW
Info: 21 VDW_PAIRS
Info: 0 NBTHOLE_PAIRS
Info: STRUCTURE SUMMARY:
Info: 5045 ATOMS
Info: 5044 BONDS
Info: 30 ANGLES
Info: 36 DIHEDRALS
Info: 0 IMPROPERS
Info: 0 CROSSTERMS
Info: 5110 EXCLUSIONS
Info: 5039 RIGID BONDS
Info: 10096 DEGREES OF FREEDOM
Info: 1682 HYDROGEN GROUPS
Info: 4 ATOMS IN LARGEST HYDROGEN GROUP
Info: 1682 MIGRATION GROUPS
Info: 4 ATOMS IN LARGEST MIGRATION GROUP
Info: TOTAL MASS = 30345.9 amu
Info: TOTAL CHARGE = -0.000100002 e
Info: MASS DENSITY = 0.714843 g/cm^3
Info: ATOM DENSITY = 0.071567 atoms/A^3
Info: ADDED 0 IMPLICIT EXCLUSIONS
Info: NONBONDED TABLE R-SQUARED SPACING: 0.0625
Info: NONBONDED TABLE SIZE: 705 POINTS
Info: REMOVING COM VELOCITY 0.0144677 0.0857121 0.116016
TCL: Minimizing for 2000 steps
ETITLE: TS BOND ANGLE DIHED IMPRP ELECT VDW BOUNDARY MISC KINETIC TOTAL TEMP POTENTIAL TOTAL3 TEMPAVG PRESSURE GPRESSURE VOLUME PRESSAVG GPRESSAVG
ENERGY: 0 0.2446 0.4709 0.0311 0.0000 -15654.3784 1758.8143 0.0000 0.0000 0.0000 -13894.8176 0.0000 -13894.8176 -13894.8176 0.0000 11013.8872 -15552.1820 70493.3578 11013.8872 -15552.1820
ENERGY: 400 2.0877 1.9137 0.0655 0.0000 -21462.7187 3300.8392 0.0000 0.0000 0.0000 -18157.8126 0.0000 -18157.8126 -18157.8126 0.0000 16710.4417 16857.3209 70493.3578 16710.4417 16857.3209
ENERGY: 800 1.1441 1.0228 0.0417 0.0000 -22226.9947 3610.2311 0.0000 0.0000 0.0000 -18614.5550 0.0000 -18614.5550 -18614.5550 0.0000 18019.5518 18157.1760 70493.3578 18019.5518 18157.1760
ENERGY: 1200 0.4897 0.5756 0.0379 0.0000 -22721.1189 3828.9880 0.0000 0.0000 0.0000 -18891.0276 0.0000 -18891.0276 -18891.0276 0.0000 19045.4740 19177.9335 70493.3578 19045.4740 19177.9335
ENERGY: 1600 0.1570 0.5143 0.0267 0.0000 -22959.1718 3921.5033 0.0000 0.0000 0.0000 -19036.9704 0.0000 -19036.9704 -19036.9704 0.0000 19516.5549 19632.5516 70493.3578 19516.5549 19632.5516
ENERGY: 2000 0.2973 0.6552 0.0444 0.0000 -23101.5301 3971.1696 0.0000 0.0000 0.0000 -19129.3636 0.0000 -19129.3636 -19129.3636 0.0000 19774.8543 19880.6256 70493.3578 19774.8543 19880.6256
TCL: Exiting due to exit command.
Info: NAMD 3.0.1 for Linux-x86_64-multicore
Info: Please visit http://www.ks.uiuc.edu/Research/namd/
Info: for updates, documentation, and support information.
Info: Please cite Phillips et al., J. Chem. Phys. 153:044130 (2020) doi:10.1063/5.0014475
Info: in all publications reporting results obtained with NAMD.
Info: Based on Charm++/Converse 80000 for multicore-linux-x86_64-gcc
Info: Built Mon Oct 14 11:11:06 CDT 2024 by dhardy on athine.ks.uiuc.edu
Info: 1 NAMD  3.0.1  Linux-x86_64-multicore  16    k062  z5358697
Info: Running on 16 processors, 1 nodes, 1 physical nodes.
Info: CPU topology information available.
Info: Charm++/Converse parallel runtime startup completed at 0.00865397 s
Info: 1043.46 MB of memory in use based on /proc/self/stat
Info: Configuration file is mobley_3738859_equil.namd
Info: Working in the current directory /srv/scratch/z5358697/prod_prep_4/3738859
TCL: Running 25000 steps at 30 kelvin.
TCL: Suspending until startup complete.
Info: SIMULATION PARAMETERS:
Info: TIMESTEP               2
Info: NUMBER OF STEPS        0
Info: STEPS PER CYCLE        10
Info: PERIODIC CELL BASIS 1  41.123 0 0
Info: PERIODIC CELL BASIS 2  0 41.432 0
Info: PERIODIC CELL BASIS 3  0 0 41.374
Info: PERIODIC CELL CENTER   0 0 0
Info: WRAPPING WATERS AROUND PERIODIC BOUNDARIES ON OUTPUT.
Info: WRAPPING ALL CLUSTERS AROUND PERIODIC BOUNDARIES ON OUTPUT.
Info: FIRST LDB TIMESTEP     50
Info: LAST LDB TIMESTEP     -1
Info: HOM BACKGROUND SCALING 1
Info: PME BACKGROUND SCALING 1
Info: MIN ATOMS PER PATCH    40
Info: EMPTY PATCH LOAD       40 ATOMS
Info: INITIAL TEMPERATURE    300
Info: CENTER OF MASS MOVING INITIALLY? NO
Info: DIELECTRIC             1
Info: EXCLUDE                SCALED ONE-FOUR
Info: 1-4 ELECTROSTATICS SCALED BY 0.833333
Info: MODIFIED 1-4 VDW PARAMETERS WILL BE USED
Info: DCD FILENAME           mobley_3738859_equil.dcd
Info: DCD FREQUENCY          5000
Info: DCD FIRST STEP         5000
Info: DCD FILE WILL CONTAIN UNIT CELL DATA
Info: XST FILENAME           mobley_3738859_equil.xst
Info: XST FREQUENCY          5000
Info: NO VELOCITY DCD OUTPUT
Info: NO FORCE DCD OUTPUT
Info: OUTPUT FILENAME        mobley_3738859_equil
Info: BINARY OUTPUT FILES WILL BE USED
Info: RESTART FILENAME       mobley_3738859_equil.restart
Info: RESTART FREQUENCY      5000
Info: BINARY RESTART FILES WILL BE USED
Info: CUTOFF                 9
Info: PAIRLIST DISTANCE      11
Info: PAIRLIST SHRINK RATE   0.01
Info: PAIRLIST GROW RATE     0.01
Info: PAIRLIST TRIGGER       0.3
Info: PAIRLISTS PER CYCLE    2
Info: PAIRLISTS ENABLED
Info: MARGIN                 8
Info: HYDROGEN GROUP CUTOFF  2.5
Info: PATCH DIMENSION        21.5
Info: ENERGY OUTPUT STEPS    5000
Info: ENERGY EVALUATION STEPS    5000
Info: OUTPUT ENERGY PRECISION 4
Info: CROSSTERM ENERGY INCLUDED IN DIHEDRAL
Info: TIMING OUTPUT STEPS    50000
Info: PRESSURE OUTPUT STEPS  5000
Info: LANGEVIN DYNAMICS ACTIVE
Info: LANGEVIN TEMPERATURE   30
Info: LANGEVIN USING BBK INTEGRATOR
Info: LANGEVIN DAMPING COEFFICIENT IS 1 INVERSE PS
Info: LANGEVIN DYNAMICS APPLIED TO HYDROGENS
Info: LANGEVIN PISTON PRESSURE CONTROL ACTIVE
Info:        TARGET PRESSURE IS 1.01325 BAR
Info:     OSCILLATION PERIOD IS 50 FS
Info:             DECAY TIME IS 25 FS
Info:     PISTON TEMPERATURE IS 300 K
Info:       PRESSURE CONTROL IS GROUP-BASED
Info:    INITIAL STRAIN RATE IS 0 0 0
Info:       CELL FLUCTUATION IS ISOTROPIC
Info: PARTICLE MESH EWALD (PME) ACTIVE
Info: PME TOLERANCE               1e-06
Info: PME EWALD COEFFICIENT       0.348832
Info: PME INTERPOLATION ORDER     4
Info: PME GRID DIMENSIONS         44 44 44
Info: PME MAXIMUM GRID SPACING    1
Info: FULL ELECTROSTATIC EVALUATION FREQUENCY      2
Info: USING VERLET I (r-RESPA) MTS SCHEME.
Info: C1 SPLITTING OF LONG RANGE ELECTROSTATICS
Info: PLACING ATOMS IN PATCHES BY HYDROGEN GROUPS
Info: RIGID BONDS TO HYDROGEN : ALL
Info:         ERROR TOLERANCE : 1e-08
Info:          MAX ITERATIONS : 100
Info: RIGID WATER USING SETTLE ALGORITHM
Info: RANDOM NUMBER SEED     1741329043
Info: USE HYDROGEN BONDS?    NO
Info: Using AMBER format force field!
Info: AMBER PARM FILE        mobley_3738859.prmtop
Info: COORDINATE PDB         mobley_3738859.pdb
Info: Exclusions will be read from PARM file!
Info: SCNB (VDW SCALING)     2
Info: USING ARITHMETIC MEAN TO COMBINE L-J SIGMA PARAMETERS
Info: BINARY COORDINATES     mobley_3738859_min.coor
Info: SUMMARY OF PARAMETERS:
Info: 6 BONDS
Info: 7 ANGLES
Info: 5 DIHEDRAL
Info: 0 IMPROPER
Info: 0 CROSSTERM
Info: 0 VDW
Info: 21 VDW_PAIRS
Info: 0 NBTHOLE_PAIRS
Info: STRUCTURE SUMMARY:
Info: 5045 ATOMS
Info: 5044 BONDS
Info: 30 ANGLES
Info: 36 DIHEDRALS
Info: 0 IMPROPERS
Info: 0 CROSSTERMS
Info: 5110 EXCLUSIONS
Info: 5039 RIGID BONDS
Info: 10096 DEGREES OF FREEDOM
Info: 1682 HYDROGEN GROUPS
Info: 4 ATOMS IN LARGEST HYDROGEN GROUP
Info: 1682 MIGRATION GROUPS
Info: 4 ATOMS IN LARGEST MIGRATION GROUP
Info: TOTAL MASS = 30345.9 amu
Info: TOTAL CHARGE = -0.000100002 e
Info: MASS DENSITY = 0.714843 g/cm^3
Info: ATOM DENSITY = 0.071567 atoms/A^3
Info: ADDED 0 IMPLICIT EXCLUSIONS
Info: NONBONDED TABLE R-SQUARED SPACING: 0.0625
Info: NONBONDED TABLE SIZE: 705 POINTS
Info: REMOVING COM VELOCITY -0.106259 -0.0976202 0.0228613
TCL: Running for 25000 steps
ETITLE: TS BOND ANGLE DIHED IMPRP ELECT VDW BOUNDARY MISC KINETIC TOTAL TEMP POTENTIAL TOTAL3 TEMPAVG PRESSURE GPRESSURE VOLUME PRESSAVG GPRESSAVG
ENERGY: 0 0.2973 0.6552 0.0444 0.0000 -23101.5301 3971.1696 0.0000 0.0000 2964.8178 -16164.5458 295.5555 -19129.3636 -16163.9778 295.5555 240.3896 272.4211 70493.3578 240.3896 272.4211
ENERGY: 5000 0.1491 1.4847 0.0678 0.0000 -24101.5164 4072.6015 0.0000 0.0000 300.5554 -19726.6580 29.9616 -20027.2134 -19726.1997 47.3178 -512.5657 -441.4167 48726.5499 1.1856 1.1055
ENERGY: 10000 0.0992 1.1317 0.2131 0.0000 -24276.8725 4191.3763 0.0000 0.0000 303.6145 -19780.4377 30.2666 -20084.0522 -19779.5813 30.2166 5.6147 77.9287 48553.6603 3.2268 3.1831
ENERGY: 15000 0.1113 1.1865 0.1080 0.0000 -24404.9312 4303.1624 0.0000 0.0000 301.0627 -19799.3003 30.0122 -20100.3630 -19799.1261 30.1896 525.0035 575.7503 48446.1411 0.4812 0.7327
ENERGY: 20000 0.0454 0.8383 0.0764 0.0000 -24306.4977 4179.9411 0.0000 0.0000 301.6584 -19823.9382 30.0716 -20125.5965 -19823.0925 30.1410 -188.8030 -101.9432 48604.1375 1.9938 2.1823
ENERGY: 25000 0.2694 0.8386 0.0990 0.0000 -24424.3851 4281.1944 0.0000 0.0000 294.3547 -19847.6288 29.3435 -20141.9836 -19847.0258 29.8501 321.0237 394.8297 48508.1379 4.4935 4.5574
TCL: Running 25000 steps at 60 kelvin.
TCL: Setting parameter langevinTemp to 60
TCL: Running for 25000 steps
ETITLE: TS BOND ANGLE DIHED IMPRP ELECT VDW BOUNDARY MISC KINETIC TOTAL TEMP POTENTIAL TOTAL3 TEMPAVG PRESSURE GPRESSURE VOLUME PRESSAVG GPRESSAVG
ENERGY: 25000 0.2694 0.8386 0.0990 0.0000 -24424.3851 4281.1944 0.0000 0.0000 294.2036 -19847.7800 29.3284 -20141.9836 -19847.1448 29.3284 333.8117 394.9629 48508.1379 333.8117 394.9629
ENERGY: 30000 0.3401 2.9260 0.1116 0.0000 -23854.1667 4018.6328 0.0000 0.0000 606.2680 -19225.8882 60.4374 -19832.1563 -19224.7121 57.0204 -298.7596 -266.5459 48888.3702 -0.5754 -0.9222
ENERGY: 35000 0.2509 2.3255 0.2612 0.0000 -23918.7263 4041.4425 0.0000 0.0000 598.7772 -19275.6691 59.6907 -19874.4463 -19274.7904 60.6760 -187.8180 -123.9572 48426.8895 3.5501 3.6726
ENERGY: 40000 0.3009 1.3996 0.3018 0.0000 -24042.7664 4113.8100 0.0000 0.0000 605.5400 -19321.4140 60.3648 -19926.9540 -19319.8362 60.3112 -1.8800 60.3946 48435.0293 4.7335 4.6307
ENERGY: 45000 0.7066 1.2209 0.2335 0.0000 -24096.0319 4161.0028 0.0000 0.0000 595.0896 -19337.7785 59.3230 -19932.8682 -19336.2245 60.0041 232.1909 313.5548 48282.4028 -0.2093 -0.1079
ENERGY: 50000 0.1337 1.6178 0.2454 0.0000 -24176.5242 4198.5513 0.0000 0.0000 598.8874 -19377.0886 59.7016 -19975.9759 -19375.8848 60.2389 429.4710 468.3572 48113.5189 0.5460 0.7670
TCL: Running 25000 steps at 90 kelvin.
TCL: Setting parameter langevinTemp to 90
TCL: Running for 25000 steps
ETITLE: TS BOND ANGLE DIHED IMPRP ELECT VDW BOUNDARY MISC KINETIC TOTAL TEMP POTENTIAL TOTAL3 TEMPAVG PRESSURE GPRESSURE VOLUME PRESSAVG GPRESSAVG
ENERGY: 50000 0.1337 1.6178 0.2454 0.0000 -24176.5242 4198.5513 0.0000 0.0000 598.5862 -19377.3898 59.6716 -19975.9759 -19376.1991 59.6716 422.9133 468.3945 48113.5189 422.9133 468.3945
ENERGY: 55000 0.6451 2.4244 0.3245 0.0000 -23548.3417 3885.1302 0.0000 0.0000 889.8737 -18769.9437 88.7093 -19659.8174 -18766.5681 87.4968 -576.2421 -517.9529 48856.7017 -3.0618 -2.8109
ENERGY: 60000 0.5809 2.9676 0.4434 0.0000 -23575.9994 3905.2404 0.0000 0.0000 897.2255 -18769.5417 89.4422 -19666.7672 -18767.3388 90.3299 -504.6047 -430.4665 48949.7071 2.6490 2.5412
ENERGY: 65000 0.2806 2.2293 0.4645 0.0000 -23618.7276 3906.2116 0.0000 0.0000 928.1687 -18781.3728 92.5269 -19709.5415 -18778.7915 90.6885 -657.3321 -618.0036 49096.8123 3.5434 3.2287
ENERGY: 70000 0.5407 3.0084 0.2294 0.0000 -23717.2352 3975.5963 0.0000 0.0000 897.6095 -18840.2508 89.4805 -19737.8604 -18837.9934 90.4811 -332.1450 -246.3060 48829.9974 5.8498 6.0655
ENERGY: 75000 0.7993 2.4544 0.1630 0.0000 -23660.0014 3919.7276 0.0000 0.0000 879.8799 -18856.9772 87.7131 -19736.8571 -18854.1484 90.3965 -599.8655 -553.8560 48795.4542 2.7417 2.6828
TCL: Running 25000 steps at 120 kelvin.
TCL: Setting parameter langevinTemp to 120
TCL: Running for 25000 steps
ETITLE: TS BOND ANGLE DIHED IMPRP ELECT VDW BOUNDARY MISC KINETIC TOTAL TEMP POTENTIAL TOTAL3 TEMPAVG PRESSURE GPRESSURE VOLUME PRESSAVG GPRESSAVG
ENERGY: 75000 0.7993 2.4544 0.1630 0.0000 -23660.0014 3919.7276 0.0000 0.0000 879.4354 -18857.4217 87.6688 -19736.8571 -18855.4398 87.6688 -607.2267 -553.4140 48795.4542 -607.2267 -553.4140
ENERGY: 80000 0.5034 2.4910 0.4958 0.0000 -23217.3991 3813.9340 0.0000 0.0000 1220.2947 -18179.6802 121.6482 -19399.9750 -18177.3100 117.3033 -372.1426 -324.1696 49093.3465 -1.7025 -1.3015
ENERGY: 85000 0.5889 1.9799 0.4541 0.0000 -23418.6815 3954.1853 0.0000 0.0000 1223.6439 -18237.8294 121.9821 -19461.4732 -18235.1246 119.6261 206.0609 258.1462 48978.1970 2.1834 2.3147
ENERGY: 90000 0.4206 4.6458 0.4256 0.0000 -23340.1193 3901.4273 0.0000 0.0000 1182.4578 -18250.7422 117.8764 -19433.2000 -18248.8651 120.0275 18.7126 61.0023 48846.1688 2.0248 2.0452
ENERGY: 95000 0.8658 2.5060 0.3853 0.0000 -23377.1859 3890.0914 0.0000 0.0000 1205.0074 -18278.3300 120.1243 -19483.3374 -18275.1381 119.5696 -215.8467 -170.6071 48938.4318 0.3119 0.1494
ENERGY: 100000 0.1534 6.0438 0.5492 0.0000 -23667.0211 4164.6405 0.0000 0.0000 1212.3172 -18283.3169 120.8530 -19495.6341 -18280.4898 120.2905 1110.9943 1197.7783 48589.4907 6.7184 6.2893
TCL: Running 25000 steps at 150 kelvin.
TCL: Setting parameter langevinTemp to 150
TCL: Running for 25000 steps
ETITLE: TS BOND ANGLE DIHED IMPRP ELECT VDW BOUNDARY MISC KINETIC TOTAL TEMP POTENTIAL TOTAL3 TEMPAVG PRESSURE GPRESSURE VOLUME PRESSAVG GPRESSAVG
ENERGY: 100000 0.1534 6.0438 0.5492 0.0000 -23667.0211 4164.6405 0.0000 0.0000 1211.7170 -18283.9171 120.7931 -19495.6341 -18281.6357 120.7931 1135.3393 1197.3346 48589.4907 1135.3393 1197.3346
ENERGY: 105000 0.8775 4.1822 0.6530 0.0000 -22750.9805 3663.7900 0.0000 0.0000 1496.2458 -17585.2321 149.1571 -19081.4778 -17581.4938 146.3062 -493.6346 -415.4245 49505.7810 1.4573 1.3187
ENERGY: 110000 0.7532 5.2814 0.2440 0.0000 -22832.2337 3715.8883 0.0000 0.0000 1531.8287 -17578.2382 152.7043 -19110.0669 -17572.4584 149.9761 -361.9866 -311.8060 49608.7058 5.0443 4.6751
ENERGY: 115000 0.6599 4.0566 0.5763 0.0000 -22790.8564 3698.0858 0.0000 0.0000 1476.0707 -17611.4070 147.1459 -19087.4777 -17608.1932 149.6181 -410.8036 -336.7150 49512.1123 -3.9795 -4.6177
ENERGY: 120000 0.3276 2.7980 0.1907 0.0000 -22883.8542 3738.2640 0.0000 0.0000 1545.8655 -17596.4084 154.1036 -19142.2739 -17592.9050 150.2184 -284.0356 -224.5805 49337.8777 -1.9974 -2.1207
ENERGY: 125000 0.1675 4.7276 0.2629 0.0000 -23104.5003 3908.2113 0.0000 0.0000 1493.3487 -17697.7822 148.8683 -19191.1309 -17693.8777 149.8669 493.9506 558.5559 48919.1349 3.4457 3.5324
TCL: Running 50000 steps at 180 kelvin.
TCL: Setting parameter langevinTemp to 180
TCL: Running for 50000 steps
ETITLE: TS BOND ANGLE DIHED IMPRP ELECT VDW BOUNDARY MISC KINETIC TOTAL TEMP POTENTIAL TOTAL3 TEMPAVG PRESSURE GPRESSURE VOLUME PRESSAVG GPRESSAVG
ENERGY: 125000 0.1675 4.7276 0.2629 0.0000 -23104.5003 3908.2113 0.0000 0.0000 1492.5901 -17698.5408 148.7927 -19191.1309 -17695.9674 148.7927 483.2806 558.7366 48919.1349 483.2806 558.7366
ENERGY: 135000 1.0676 6.2340 0.8252 0.0000 -22291.3099 3593.9121 0.0000 0.0000 1857.5889 -16831.6821 185.1785 -18689.2710 -16827.8911 180.8827 -120.4055 -26.3541 49768.4912 5.1843 5.0984
ENERGY: 145000 0.5237 3.5259 0.2416 0.0000 -22175.6322 3461.2287 0.0000 0.0000 1802.5335 -16907.5787 179.6902 -18710.1122 -16902.9457 180.5453 -809.8581 -722.4839 49858.4261 4.6523 5.1117
ENERGY: 155000 2.1305 5.1142 0.9476 0.0000 -22385.9493 3672.3790 0.0000 0.0000 1821.0045 -16884.3734 181.5315 -18705.3779 -16880.4614 181.0101 225.9617 303.9155 49561.1411 1.3506 2.0256
ENERGY: 165000 1.2257 1.7661 0.7488 0.0000 -22311.7138 3488.0938 0.0000 0.0000 1805.6099 -17014.2696 179.9969 -18819.8794 -17010.7882 180.1137 -887.9300 -789.3623 49727.2487 3.1490 2.9345
ENERGY: 175000 0.5302 6.3821 0.6858 0.0000 -22391.1110 3654.6326 0.0000 0.0000 1799.0780 -16929.8023 179.3457 -18728.8803 -16926.2712 180.1677 247.3657 290.6217 49247.9220 2.8562 3.0494
TCL: Running 50000 steps at 210 kelvin.
TCL: Setting parameter langevinTemp to 210
TCL: Running for 50000 steps
ETITLE: TS BOND ANGLE DIHED IMPRP ELECT VDW BOUNDARY MISC KINETIC TOTAL TEMP POTENTIAL TOTAL3 TEMPAVG PRESSURE GPRESSURE VOLUME PRESSAVG GPRESSAVG
ENERGY: 175000 0.5302 6.3821 0.6858 0.0000 -22391.1110 3654.6326 0.0000 0.0000 1798.1709 -16930.7094 179.2553 -18728.8803 -16927.7287 179.2553 220.6528 290.0072 49247.9220 220.6528 290.0072
ENERGY: 185000 0.3339 5.7812 0.7148 0.0000 -21226.1395 3162.8501 0.0000 0.0000 2091.3678 -15965.0917 208.4834 -18056.4595 -15960.4806 209.2835 -872.8209 -819.6605 49974.0969 1.2336 1.4007
ENERGY: 195000 2.4315 6.1105 0.2583 0.0000 -21410.1318 3335.6065 0.0000 0.0000 2092.0739 -15973.6511 208.5538 -18065.7250 -15969.3698 209.4538 351.2510 419.7156 48809.7662 4.9212 4.6532
ENERGY: 205000 1.8354 4.3295 0.4764 0.0000 -21163.0904 3233.2315 0.0000 0.0000 2077.3562 -15845.8614 207.0866 -17923.2176 -15843.7894 211.0007 -28.2858 36.4995 49427.0154 4.5131 4.4698
ENERGY: 215000 2.0985 4.5058 0.3477 0.0000 -21195.3596 3201.8438 0.0000 0.0000 2115.4885 -15871.0753 210.8879 -17986.5638 -15863.2971 209.8977 -437.6615 -377.4004 49667.3760 0.5544 0.9423
ENERGY: 225000 0.3902 6.5104 0.6642 0.0000 -21153.2029 3222.2635 0.0000 0.0000 2131.2029 -15792.1717 212.4545 -17923.3746 -15788.0166 211.5531 -39.1166 44.4897 49346.0872 -3.0250 -3.0080
TCL: Running 50000 steps at 240 kelvin.
TCL: Setting parameter langevinTemp to 240
TCL: Running for 50000 steps
ETITLE: TS BOND ANGLE DIHED IMPRP ELECT VDW BOUNDARY MISC KINETIC TOTAL TEMP POTENTIAL TOTAL3 TEMPAVG PRESSURE GPRESSURE VOLUME PRESSAVG GPRESSAVG
ENERGY: 225000 0.3902 6.5104 0.6642 0.0000 -21153.2029 3222.2635 0.0000 0.0000 2130.1855 -15793.1891 212.3530 -17923.3746 -15789.4726 212.3530 -43.9314 44.3821 49346.0872 -43.9314 44.3821
ENERGY: 235000 2.4377 6.3732 1.0274 0.0000 -20225.1302 2921.1756 0.0000 0.0000 2409.3998 -14884.7166 240.1872 -17294.1165 -14877.2806 240.5241 -154.8911 -74.1950 49574.8946 -0.0130 -0.3352
ENERGY: 245000 1.8384 4.7486 1.0413 0.0000 -20222.2935 2877.6885 0.0000 0.0000 2432.3078 -14904.6689 242.4709 -17336.9767 -14900.2594 240.2183 -350.2492 -278.1266 49271.9257 0.5281 0.1714
ENERGY: 255000 0.9604 7.4217 0.9415 0.0000 -20077.4746 2870.5808 0.0000 0.0000 2421.6200 -14775.9502 241.4054 -17197.5702 -14770.8646 242.7200 61.7836 117.8798 49100.7563 6.3318 6.1771
ENERGY: 265000 0.5513 3.2944 1.6669 0.0000 -20396.3172 3086.3150 0.0000 0.0000 2395.3602 -14909.1293 238.7877 -17304.4895 -14903.3971 240.6171 694.2916 767.5573 49053.5102 -0.8683 -0.5026
ENERGY: 275000 2.7580 8.0795 0.4592 0.0000 -20245.7384 2962.4858 0.0000 0.0000 2446.2300 -14825.7258 243.8587 -17271.9559 -14820.0418 241.3809 -40.0978 20.6699 49887.5093 1.3182 1.8218
TCL: Running 50000 steps at 270 kelvin.
TCL: Setting parameter langevinTemp to 270
TCL: Running for 50000 steps
ETITLE: TS BOND ANGLE DIHED IMPRP ELECT VDW BOUNDARY MISC KINETIC TOTAL TEMP POTENTIAL TOTAL3 TEMPAVG PRESSURE GPRESSURE VOLUME PRESSAVG GPRESSAVG
ENERGY: 275000 2.7580 8.0795 0.4592 0.0000 -20245.7384 2962.4858 0.0000 0.0000 2445.0452 -14826.9106 243.7406 -17271.9559 -14823.1815 243.7406 -57.8183 19.6872 49887.5093 -57.8183 19.6872
ENERGY: 285000 2.8193 5.7428 1.2460 0.0000 -19237.2114 2669.2874 0.0000 0.0000 2714.2310 -13843.8849 270.5751 -16558.1159 -13834.6323 272.6940 -51.2458 11.9690 50391.8205 2.8732 2.5202
ENERGY: 295000 1.7302 6.4903 0.5837 0.0000 -19006.5204 2507.2394 0.0000 0.0000 2623.8854 -13866.5914 261.5688 -16490.4768 -13863.1675 271.7698 -668.0257 -611.2469 50697.3542 1.6336 1.0825
ENERGY: 305000 2.2060 5.9179 2.5547 0.0000 -19063.7656 2585.2597 0.0000 0.0000 2733.4137 -13734.4134 272.4874 -16467.8272 -13726.9409 268.6716 -634.1270 -546.0399 51464.9917 3.8212 3.3391
ENERGY: 315000 1.4943 7.7722 1.4825 0.0000 -19185.4762 2609.6734 0.0000 0.0000 2662.8831 -13902.1706 265.4564 -16565.0537 -13897.1914 268.2922 -528.0380 -407.0493 50927.3330 1.7511 2.6166
ENERGY: 325000 0.7257 8.0678 0.8916 0.0000 -19181.4765 2724.2021 0.0000 0.0000 2671.1173 -13776.4721 266.2772 -16447.5894 -13770.7778 268.8087 162.2607 232.5356 50900.7463 0.7290 0.4220
TCL: Running 1000000 steps at 300 kelvin.
TCL: Setting parameter langevinTemp to 300
TCL: Running for 1000000 steps
ETITLE: TS BOND ANGLE DIHED IMPRP ELECT VDW BOUNDARY MISC KINETIC TOTAL TEMP POTENTIAL TOTAL3 TEMPAVG PRESSURE GPRESSURE VOLUME PRESSAVG GPRESSAVG
ENERGY: 325000 0.7257 8.0678 0.8916 0.0000 -19181.4765 2724.2021 0.0000 0.0000 2669.7831 -13777.8062 266.1442 -16447.5894 -13774.0305 266.1442 146.1447 232.4669 50900.7463 146.1447 232.4669
ENERGY: 525000 0.7608 4.5198 1.4932 0.0000 -18344.8282 2518.9203 0.0000 0.0000 3006.0575 -12813.0766 299.6666 -15819.1341 -12806.7243 299.9872 457.3792 522.6146 51287.4843 1.8851 1.8226
ENERGY: 725000 0.6437 7.8520 0.9035 0.0000 -18358.6196 2518.1044 0.0000 0.0000 3013.9084 -12817.2076 300.4492 -15831.1160 -12812.3995 301.0862 436.7114 490.8282 51566.9077 2.6572 2.7539
ENERGY: 925000 4.0183 7.7850 0.7329 0.0000 -18147.3996 2345.2812 0.0000 0.0000 3072.2643 -12717.3179 306.2666 -15789.5822 -12713.8410 301.1951 -416.3112 -348.9425 52213.2192 2.8193 2.6129
ENERGY: 1125000 1.4083 9.9006 1.0898 0.0000 -18338.7615 2510.9092 0.0000 0.0000 2952.1244 -12863.3293 294.2901 -15815.4537 -12860.2809 297.9813 262.9042 319.7771 51970.0151 3.3399 2.6773
ENERGY: 1325000 1.0308 8.3514 0.8556 0.0000 -18099.2967 2332.1654 0.0000 0.0000 2993.2050 -12763.6885 298.3854 -15756.8935 -12757.3203 301.8639 -589.4357 -490.6399 52338.8295 3.7821 3.5530
TCL: Exiting due to exit command.
