Info: SIMULATION PARAMETERS:
Info: TIMESTEP               2
Info: NUMBER OF STEPS        0
Info: STEPS PER CYCLE        10
Info: PERIODIC CELL BASIS 1  30.8472 0 0
Info: PERIODIC CELL BASIS 2  0 30.2071 0
Info: PERIODIC CELL BASIS 3  0 0 31.9168
Info: PERIODIC CELL CENTER   0 0 0
Info: WRAPPING WATERS AROUND PERIODIC BOUNDARIES ON OUTPUT.
Info: WRAPPING ALL CLUSTERS AROUND PERIODIC BOUNDARIES ON OUTPUT.
Info: FIRST LDB TIMESTEP     50
Info: LAST LDB TIMESTEP     -1
Info: HOM BACKGROUND SCALING 1
Info: PME BACKGROUND SCALING 1
Info: MIN ATOMS PER PATCH    40
Info: EMPTY PATCH LOAD       40 ATOMS
Info: VELOCITY FILE          mobley_3425174_equil.vel
Info: CENTER OF MASS MOVING INITIALLY? NO
Info: DIELECTRIC             1
Info: EXCLUDE                SCALED ONE-FOUR
Info: 1-4 ELECTROSTATICS SCALED BY 0.833333
Info: MODIFIED 1-4 VDW PARAMETERS WILL BE USED
Info: DCD FILENAME           mobley_3425174_prod.dcd
Info: DCD FREQUENCY          100000
Info: DCD FIRST STEP         100000
Info: DCD FILE WILL CONTAIN UNIT CELL DATA
Info: XST FILENAME           mobley_3425174_prod.xst
Info: XST FREQUENCY          100000
Info: NO VELOCITY DCD OUTPUT
Info: NO FORCE DCD OUTPUT
Info: OUTPUT FILENAME        mobley_3425174_prod
Info: BINARY OUTPUT FILES WILL BE USED
Info: RESTART FILENAME       mobley_3425174_prod.restart
Info: RESTART FREQUENCY      100000
Info: BINARY RESTART FILES WILL BE USED
Info: CUTOFF                 9
Info: PAIRLIST DISTANCE      11
Info: PAIRLIST SHRINK RATE   0.01
Info: PAIRLIST GROW RATE     0.01
Info: PAIRLIST TRIGGER       0.3
Info: PAIRLISTS PER CYCLE    2
Info: PAIRLISTS ENABLED
Info: MARGIN                 2
Info: HYDROGEN GROUP CUTOFF  2.5
Info: PATCH DIMENSION        15.5
Info: ENERGY OUTPUT STEPS    100000
Info: ENERGY EVALUATION STEPS    100000
Info: OUTPUT ENERGY PRECISION 4
Info: CROSSTERM ENERGY INCLUDED IN DIHEDRAL
Info: TIMING OUTPUT STEPS    1000000
Info: PRESSURE OUTPUT STEPS  100000
Info: ALCHEMICAL FEP ON
Info: FEP CURRENT LAMBDA VALUE     0
Info: FEP COMPARISON LAMBDA VALUE  0.05
Info: FEP INTRA-ALCHEMICAL NON-BONDED INTERACTIONS WILL BE RETAINED
Info: FEP INTRA-ALCHEMICAL BONDED INTERACTIONS WILL BE RETAINED
Info: FEP VDW SHIFTING COEFFICIENT 5
Info: FEP ELEC. ACTIVE FOR ANNIHILATED PARTICLES BETWEEN LAMBDA = 0 AND LAMBDA = 0.5
Info: FEP ELEC. ACTIVE FOR EXNIHILATED PARTICLES BETWEEN LAMBDA = 0.5 AND LAMBDA = 1
Info: FEP VDW ACTIVE FOR ANNIHILATED PARTICLES BETWEEN LAMBDA = 0 AND LAMBDA = 1
Info: FEP VDW ACTIVE FOR EXNIHILATED PARTICLES BETWEEN LAMBDA = 0 AND LAMBDA = 1
Info: FEP BOND ACTIVE FOR ANNIHILATED PARTICLES BETWEEN LAMBDA = 1 AND LAMBDA = 1
Info: FEP BOND ACTIVE FOR EXNIHILATED PARTICLES BETWEEN LAMBDA = 0 AND LAMBDA = 0
Info: LANGEVIN DYNAMICS ACTIVE
Info: LANGEVIN TEMPERATURE   300
Info: LANGEVIN USING BBK INTEGRATOR
Info: LANGEVIN DAMPING COEFFICIENT IS 1 INVERSE PS
Info: LANGEVIN DYNAMICS APPLIED TO HYDROGENS
Info: LANGEVIN PISTON PRESSURE CONTROL ACTIVE
Info:        TARGET PRESSURE IS 1.01325 BAR
Info:     OSCILLATION PERIOD IS 50 FS
Info:             DECAY TIME IS 25 FS
Info:     PISTON TEMPERATURE IS 300 K
Info:       PRESSURE CONTROL IS GROUP-BASED
Info:    INITIAL STRAIN RATE IS -0.000103252 -0.000103252 -0.000103252
Info:       CELL FLUCTUATION IS ISOTROPIC
Info: PARTICLE MESH EWALD (PME) ACTIVE
Info: PME TOLERANCE               1e-06
Info: PME EWALD COEFFICIENT       0.348832
Info: PME INTERPOLATION ORDER     4
Info: PME GRID DIMENSIONS         32 32 32
Info: PME MAXIMUM GRID SPACING    1
Info: PME CALCULATION WILL BE PERFORMED ON GPU
Info: FULL ELECTROSTATIC EVALUATION FREQUENCY      2
Info: USING VERLET I (r-RESPA) MTS SCHEME.
Info: C1 SPLITTING OF LONG RANGE ELECTROSTATICS
Info: PLACING ATOMS IN PATCHES BY HYDROGEN GROUPS
Info: RIGID BONDS TO HYDROGEN : ALL
Info:         ERROR TOLERANCE : 1e-08
Info:          MAX ITERATIONS : 100
Info: RIGID WATER USING SETTLE ALGORITHM
Info: RANDOM NUMBER SEED     1741952391
Info: USE HYDROGEN BONDS?    NO
Info: Using AMBER format force field!
Info: AMBER PARM FILE        mobley_3425174.prmtop
Info: COORDINATE PDB         mobley_3425174.pdb
Info: Exclusions will be read from PARM file!
Info: SCNB (VDW SCALING)     2
Info: USING ARITHMETIC MEAN TO COMBINE L-J SIGMA PARAMETERS
Info: BINARY COORDINATES     mobley_3425174_equil.coor
Info: SUMMARY OF PARAMETERS:
Info: 5 BONDS
Info: 4 ANGLES
Info:   4 HARMONIC
Info:   0 COSINE-BASED
Info: 0 DIHEDRAL
Info: 0 IMPROPER
Info: 0 CROSSTERM
Info: 0 VDW
Info: 21 VDW_PAIRS
Info: 0 NBTHOLE_PAIRS
Info: To read alchdata from file: mobley_3425174.pdb
Info: To read alchflag data from column: 5
Info: STRUCTURE SUMMARY:
Info: 2903 ATOMS
Info: 2902 BONDS
Info: 6 ANGLES
Info: 0 DIHEDRALS
Info: 0 IMPROPERS
Info: 0 CROSSTERMS
Info: 2908 EXCLUSIONS
Info: 2900 RIGID BONDS
Info: ALCH: 0 ATOMS TO DISAPPEAR IN FINAL STATE
Info: ALCH: 5 ATOMS TO APPEAR IN FINAL STATE
Info: 5809 DEGREES OF FREEDOM
Info: 969 HYDROGEN GROUPS
Info: 3 ATOMS IN LARGEST HYDROGEN GROUP
Info: 969 MIGRATION GROUPS
Info: 3 ATOMS IN LARGEST MIGRATION GROUP
Info: TOTAL MASS = 17471.9 amu
Info: TOTAL CHARGE = -9.99868e-05 e
Info: MASS DENSITY = 0.975564 g/cm^3
Info: ATOM DENSITY = 0.0976118 atoms/A^3
Info: ADDED 0 IMPLICIT EXCLUSIONS
Info: NONBONDED TABLE R-SQUARED SPACING: 0.0625
Info: NONBONDED TABLE SIZE: 705 POINTS
Info: REMOVING COM VELOCITY 0.255837 -0.0402533 0.264486
Info: Use 3D box decompostion in PME FFT.
Info: Updated CUDA force table with 4096 elements.
Info: Updated CUDA LJ table with 6 x 6 elements.
Info: Found 8 unique exclusion lists needing 8 bytes
TCL: Running for 1500000 steps
ETITLE: TS BOND ANGLE DIHED IMPRP ELECT VDW BOUNDARY MISC KINETIC TOTAL TEMP POTENTIAL TOTALAVG TEMPAVG PRESSURE GPRESSURE VOLUME PRESSAVG GPRESSAVG
ENERGY: 0 0.6276 1.5221 0.0000 0.0000 -10457.0555 1395.2688 0.0000 0.0000 1734.0266 -7325.6104 300.4310 -9059.6370 -7325.6104 300.4310 -6.8268 83.4216 29740.2478 -6.8268 83.4216
ENERGY: 300000 0.5968 0.2568 0.0000 0.0000 -10629.5488 1440.2314 0.0000 0.0000 1760.8798 -7427.5840 305.0835 -9188.4638 -7395.5783 303.6042 -159.6414 -111.1720 29759.3977 -35.1348 42.5423
ENERGY: 600000 0.0635 1.1840 0.0000 0.0000 -10567.8331 1445.5809 0.0000 0.0000 1723.3492 -7397.6554 298.5811 -9121.0046 -7387.0440 301.5497 288.1050 340.4141 29752.8102 -51.7327 17.1252
ENERGY: 900000 0.1838 3.4840 0.0000 0.0000 -10530.3268 1366.4235 0.0000 0.0000 1763.6341 -7396.6014 305.5607 -9160.2355 -7389.1276 302.7080 -551.6470 -494.3492 29698.6515 -89.8066 -23.1873
ENERGY: 1200000 0.0869 2.6469 0.0000 0.0000 -10562.7588 1417.7724 0.0000 0.0000 1700.0233 -7442.2294 294.5397 -9142.2527 -7397.7747 302.3414 -139.4550 -81.6936 29995.3701 -63.5458 0.8952
ENERGY: 1500000 0.9888 0.8151 0.0000 0.0000 -10749.4291 1534.6789 0.0000 0.0000 1717.4401 -7495.5062 297.5573 -9212.9463 -7411.3300 301.6245 802.9139 888.5588 29400.8316 -63.4849 1.8036
TCL: Running FEP window   2: Lambda1 0.05   Lambda2 0.1    [dLambda 0.05  ]
TCL: Setting parameter firsttimestep to 0
TCL: Setting parameter alchLambda to 0.05
Info: NONBONDED TABLE R-SQUARED SPACING: 0.0625
Info: NONBONDED TABLE SIZE: 705 POINTS
TCL: Setting parameter alchLambda2 to 0.1
Info: NONBONDED TABLE R-SQUARED SPACING: 0.0625
Info: NONBONDED TABLE SIZE: 705 POINTS
TCL: Running for 1500000 steps
ETITLE: TS BOND ANGLE DIHED IMPRP ELECT VDW BOUNDARY MISC KINETIC TOTAL TEMP POTENTIAL TOTALAVG TEMPAVG PRESSURE GPRESSURE VOLUME PRESSAVG GPRESSAVG
ENERGY: 0 0.9888 0.8151 0.0000 0.0000 -10749.4289 1535.6624 0.0000 0.0000 1716.5508 -7495.4118 297.4032 -9211.9626 -7495.4118 297.4032 813.4180 891.2691 29400.8316 813.4180 891.2691
ENERGY: 300000 1.6711 1.2569 0.0000 0.0000 -10594.9181 1413.7736 0.0000 0.0000 1721.1951 -7457.0215 298.2079 -9178.2166 -7469.4774 298.9205 -125.9627 -114.1035 29535.8167 -59.5348 -15.0328
ENERGY: 600000 0.7716 0.3578 0.0000 0.0000 -10522.7654 1409.9935 0.0000 0.0000 1696.9684 -7414.6739 294.0105 -9111.6424 -7464.0275 298.8641 -273.9218 -132.5331 29957.8341 -77.7856 -29.5517
ENERGY: 900000 2.0710 1.3331 0.0000 0.0000 -10590.6888 1465.4852 0.0000 0.0000 1710.0519 -7411.7477 296.2772 -9121.7996 -7449.2130 298.1457 384.2232 456.6639 29809.9643 76.1084 131.8725
ENERGY: 1200000 2.2358 0.3760 0.0000 0.0000 -10577.6894 1461.3140 0.0000 0.0000 1785.1446 -7328.6191 309.2875 -9113.7637 -7434.4206 298.9119 429.5150 531.1183 29613.6386 99.3842 159.7188
ENERGY: 1500000 3.9866 0.4965 0.0000 0.0000 -10640.4359 1551.2250 0.0000 0.0000 1726.9643 -7357.7635 299.2074 -9084.7277 -7421.2241 299.8459 908.1596 953.1942 30034.1691 145.2985 207.9764
TCL: Running FEP window   3: Lambda1 0.1    Lambda2 0.15000000000000002 [dLambda 0.05000000000000002]
TCL: Setting parameter firsttimestep to 0
TCL: Setting parameter alchLambda to 0.1
Info: NONBONDED TABLE R-SQUARED SPACING: 0.0625
Info: NONBONDED TABLE SIZE: 705 POINTS
TCL: Setting parameter alchLambda2 to 0.15000000000000002
Info: NONBONDED TABLE R-SQUARED SPACING: 0.0625
Info: NONBONDED TABLE SIZE: 705 POINTS
TCL: Running for 1500000 steps
ETITLE: TS BOND ANGLE DIHED IMPRP ELECT VDW BOUNDARY MISC KINETIC TOTAL TEMP POTENTIAL TOTALAVG TEMPAVG PRESSURE GPRESSURE VOLUME PRESSAVG GPRESSAVG
ENERGY: 0 3.9866 0.4965 0.0000 0.0000 -10640.4358 1552.2224 0.0000 0.0000 1726.0516 -7357.6786 299.0493 -9083.7302 -7357.6786 299.0493 892.9856 959.3182 30034.1691 892.9856 959.3182
ENERGY: 300000 1.8142 2.1964 0.0000 0.0000 -10548.7404 1452.4401 0.0000 0.0000 1752.6208 -7339.6689 303.6526 -9092.2897 -7384.7066 300.0225 309.8309 396.4884 29626.3650 314.8527 399.7751
ENERGY: 600000 0.1539 1.0328 0.0000 0.0000 -10434.7665 1357.2856 0.0000 0.0000 1760.8615 -7315.4327 305.0803 -9076.2942 -7372.0550 302.7349 -478.1005 -395.6559 30040.7880 194.1690 279.0260
ENERGY: 900000 0.1703 1.0547 0.0000 0.0000 -10485.9124 1343.7561 0.0000 0.0000 1704.4406 -7436.4907 295.3050 -9140.9313 -7388.5719 299.8053 -773.8225 -707.7797 29942.1103 42.2736 113.7159
ENERGY: 1200000 0.3286 2.7238 0.0000 0.0000 -10415.4787 1376.1826 0.0000 0.0000 1788.7297 -7247.5140 309.9087 -9036.2437 -7369.3032 301.4170 -152.2534 -141.0582 30009.4982 28.0614 89.7860
ENERGY: 1500000 1.1747 0.5308 0.0000 0.0000 -10613.2896 1370.7663 0.0000 0.0000 1738.5871 -7502.2307 301.2211 -9240.8178 -7386.0183 301.4660 -652.4754 -588.4781 29512.4079 -13.3817 49.3026
TCL: Running FEP window   4: Lambda1 0.15000000000000002 Lambda2 0.2    [dLambda 0.04999999999999999]
TCL: Setting parameter firsttimestep to 0
TCL: Setting parameter alchLambda to 0.15000000000000002
Info: NONBONDED TABLE R-SQUARED SPACING: 0.0625
Info: NONBONDED TABLE SIZE: 705 POINTS
TCL: Setting parameter alchLambda2 to 0.2
Info: NONBONDED TABLE R-SQUARED SPACING: 0.0625
Info: NONBONDED TABLE SIZE: 705 POINTS
TCL: Running for 1500000 steps
ETITLE: TS BOND ANGLE DIHED IMPRP ELECT VDW BOUNDARY MISC KINETIC TOTAL TEMP POTENTIAL TOTALAVG TEMPAVG PRESSURE GPRESSURE VOLUME PRESSAVG GPRESSAVG
ENERGY: 0 1.1747 0.5308 0.0000 0.0000 -10613.2897 1371.4629 0.0000 0.0000 1737.7530 -7502.3683 301.0766 -9240.1213 -7502.3683 301.0766 -652.2569 -583.1312 29512.4079 -652.2569 -583.1312
ENERGY: 300000 0.7747 2.4543 0.0000 0.0000 -10485.2661 1333.0874 0.0000 0.0000 1767.8934 -7381.0562 306.2987 -9148.9496 -7405.3191 298.6441 -663.5610 -750.2570 29978.1389 -543.4036 -502.2492
ENERGY: 600000 0.4489 1.7931 0.0000 0.0000 -10574.4928 1366.9551 0.0000 0.0000 1732.8698 -7472.4261 300.2306 -9205.2958 -7416.5900 296.5334 -545.6176 -520.3119 29730.8880 -422.3204 -375.1382
ENERGY: 900000 0.6519 4.0031 0.0000 0.0000 -10434.5127 1337.3049 0.0000 0.0000 1732.2358 -7360.3169 300.1207 -9092.5527 -7408.6154 298.2697 -821.3085 -759.0904 30309.0777 -320.2657 -270.9554
ENERGY: 1200000 0.4554 2.7177 0.0000 0.0000 -10441.8858 1379.9022 0.0000 0.0000 1730.5602 -7328.2503 299.8304 -9058.8105 -7402.5695 299.3060 -204.2813 -126.4091 30054.9534 -294.7535 -245.4332
ENERGY: 1500000 1.3675 1.0461 0.0000 0.0000 -10434.7254 1322.3121 0.0000 0.0000 1709.4168 -7400.5830 296.1672 -9109.9998 -7394.3202 300.3203 -976.1577 -919.1439 30489.3714 -337.7930 -291.3948
TCL: Running FEP window   5: Lambda1 0.2    Lambda2 0.25   [dLambda 0.04999999999999999]
TCL: Setting parameter firsttimestep to 0
TCL: Setting parameter alchLambda to 0.2
Info: NONBONDED TABLE R-SQUARED SPACING: 0.0625
Info: NONBONDED TABLE SIZE: 705 POINTS
TCL: Setting parameter alchLambda2 to 0.25
Info: NONBONDED TABLE R-SQUARED SPACING: 0.0625
Info: NONBONDED TABLE SIZE: 705 POINTS
TCL: Running for 1500000 steps
ETITLE: TS BOND ANGLE DIHED IMPRP ELECT VDW BOUNDARY MISC KINETIC TOTAL TEMP POTENTIAL TOTALAVG TEMPAVG PRESSURE GPRESSURE VOLUME PRESSAVG GPRESSAVG
ENERGY: 0 1.3675 1.0461 0.0000 0.0000 -10434.7252 1322.7080 0.0000 0.0000 1708.5707 -7401.0330 296.0206 -9109.6037 -7401.0330 296.0206 -999.3707 -917.3157 30489.3714 -999.3707 -917.3157
ENERGY: 300000 2.4767 1.0026 0.0000 0.0000 -10548.9672 1404.3684 0.0000 0.0000 1728.9996 -7412.1200 299.5601 -9141.1196 -7369.4431 299.0440 -167.7732 -56.7409 29685.9563 -458.7857 -371.0581
ENERGY: 600000 0.1852 1.8974 0.0000 0.0000 -10481.4006 1357.4179 0.0000 0.0000 1761.9033 -7359.9968 305.2608 -9121.9001 -7379.2812 299.2889 -459.7245 -394.2827 30014.5401 -394.0386 -344.0074
ENERGY: 900000 0.6871 2.1375 0.0000 0.0000 -10640.1781 1411.9613 0.0000 0.0000 1755.7292 -7469.6631 304.1911 -9225.3922 -7395.3889 300.4406 -312.9794 -245.6224 29800.0059 -299.0181 -241.3413
ENERGY: 1200000 0.2414 0.9384 0.0000 0.0000 -10601.3382 1438.3676 0.0000 0.0000 1732.8532 -7428.9375 300.2277 -9161.7907 -7397.8675 300.5582 89.9213 119.0143 29860.6717 -277.8370 -223.8588
ENERGY: 1500000 0.6649 0.5628 0.0000 0.0000 -10539.9835 1410.7326 0.0000 0.0000 1701.1667 -7426.8565 294.7378 -9128.0232 -7403.2914 299.2498 -211.2192 -111.2417 29977.2999 -292.2628 -232.5990
TCL: Running FEP window   6: Lambda1 0.25   Lambda2 0.3    [dLambda 0.04999999999999999]
TCL: Setting parameter firsttimestep to 0
TCL: Setting parameter alchLambda to 0.25
Info: NONBONDED TABLE R-SQUARED SPACING: 0.0625
Info: NONBONDED TABLE SIZE: 705 POINTS
TCL: Setting parameter alchLambda2 to 0.3
Info: NONBONDED TABLE R-SQUARED SPACING: 0.0625
Info: NONBONDED TABLE SIZE: 705 POINTS
TCL: Running for 1500000 steps
ETITLE: TS BOND ANGLE DIHED IMPRP ELECT VDW BOUNDARY MISC KINETIC TOTAL TEMP POTENTIAL TOTALAVG TEMPAVG PRESSURE GPRESSURE VOLUME PRESSAVG GPRESSAVG
ENERGY: 0 0.6649 0.5628 0.0000 0.0000 -10539.9828 1410.4978 0.0000 0.0000 1700.3075 -7427.9498 294.5890 -9128.2573 -7427.9498 294.5890 -197.5072 -111.0190 29977.2999 -197.5072 -111.0190
ENERGY: 300000 0.2298 1.3437 0.0000 0.0000 -10481.2655 1340.4489 0.0000 0.0000 1742.1204 -7397.1226 301.8333 -9139.2430 -7376.0497 298.4196 -611.4647 -609.7140 29908.3449 -362.9842 -329.8904
ENERGY: 600000 0.3143 2.8918 0.0000 0.0000 -10610.4169 1477.7202 0.0000 0.0000 1686.2835 -7443.2072 292.1592 -9129.4907 -7382.2028 300.2284 77.3698 230.4352 30283.4983 -153.2647 -96.9664
ENERGY: 900000 0.2661 1.3624 0.0000 0.0000 -10455.4374 1310.5732 0.0000 0.0000 1715.9308 -7427.3049 297.2958 -9143.2357 -7400.0895 299.4341 -921.2196 -804.8401 29826.1723 -175.1795 -106.6338
ENERGY: 1200000 1.5038 3.8220 0.0000 0.0000 -10613.5479 1417.2402 0.0000 0.0000 1749.8633 -7441.1185 303.1748 -9190.9818 -7412.3338 299.3562 -28.0522 22.4917 29723.8189 -73.1658 -4.2104
ENERGY: 1500000 0.8151 1.1180 0.0000 0.0000 -10545.7616 1431.5725 0.0000 0.0000 1747.6887 -7364.5673 302.7981 -9112.2561 -7415.5775 299.2159 59.2412 202.2826 29772.1645 -47.9425 20.4826
TCL: Running FEP window   7: Lambda1 0.3    Lambda2 0.35   [dLambda 0.04999999999999999]
TCL: Setting parameter firsttimestep to 0
TCL: Setting parameter alchLambda to 0.3
Info: NONBONDED TABLE R-SQUARED SPACING: 0.0625
Info: NONBONDED TABLE SIZE: 705 POINTS
TCL: Setting parameter alchLambda2 to 0.35
Info: NONBONDED TABLE R-SQUARED SPACING: 0.0625
Info: NONBONDED TABLE SIZE: 705 POINTS
TCL: Running for 1500000 steps
ETITLE: TS BOND ANGLE DIHED IMPRP ELECT VDW BOUNDARY MISC KINETIC TOTAL TEMP POTENTIAL TOTALAVG TEMPAVG PRESSURE GPRESSURE VOLUME PRESSAVG GPRESSAVG
ENERGY: 0 0.8151 1.1180 0.0000 0.0000 -10545.7613 1432.3057 0.0000 0.0000 1746.7801 -7364.7425 302.6406 -9111.5226 -7364.7425 302.6406 115.8967 207.9338 29772.1645 115.8967 207.9338
ENERGY: 300000 0.0166 3.4290 0.0000 0.0000 -10429.9871 1265.4045 0.0000 0.0000 1743.3020 -7417.8349 302.0380 -9161.1369 -7426.3684 300.8447 -1330.3255 -1261.5539 30154.9991 -329.6723 -238.5632
ENERGY: 600000 0.5120 3.2568 0.0000 0.0000 -10612.2547 1414.0192 0.0000 0.0000 1718.9866 -7475.4801 297.8252 -9194.4667 -7437.4890 299.2149 -230.8704 -160.4403 29727.1202 -317.0673 -237.9131
ENERGY: 900000 0.4377 0.4584 0.0000 0.0000 -10585.3234 1464.3825 0.0000 0.0000 1702.0281 -7418.0166 294.8871 -9120.0447 -7423.0558 298.6391 356.7454 319.5419 30016.0940 -222.2823 -149.6129
ENERGY: 1200000 0.6827 1.9175 0.0000 0.0000 -10418.5174 1330.5324 0.0000 0.0000 1749.1678 -7336.2170 303.0543 -9085.3848 -7410.3463 299.4798 -604.7497 -562.5656 30007.0390 -235.0410 -174.6603
ENERGY: 1500000 0.1300 0.8220 0.0000 0.0000 -10543.1782 1407.3067 0.0000 0.0000 1687.9823 -7446.9371 292.4536 -9134.9195 -7403.5006 299.8463 -34.9595 3.8285 29676.5626 -304.0203 -242.4805
TCL: Running FEP window   8: Lambda1 0.35   Lambda2 0.39999999999999997 [dLambda 0.04999999999999999]
TCL: Setting parameter firsttimestep to 0
TCL: Setting parameter alchLambda to 0.35
Info: NONBONDED TABLE R-SQUARED SPACING: 0.0625
Info: NONBONDED TABLE SIZE: 705 POINTS
TCL: Setting parameter alchLambda2 to 0.39999999999999997
Info: NONBONDED TABLE R-SQUARED SPACING: 0.0625
Info: NONBONDED TABLE SIZE: 705 POINTS
TCL: Running for 1500000 steps
ETITLE: TS BOND ANGLE DIHED IMPRP ELECT VDW BOUNDARY MISC KINETIC TOTAL TEMP POTENTIAL TOTALAVG TEMPAVG PRESSURE GPRESSURE VOLUME PRESSAVG GPRESSAVG
ENERGY: 0 0.1300 0.8220 0.0000 0.0000 -10543.1803 1407.8011 0.0000 0.0000 1687.1117 -7447.3154 292.3027 -9134.4272 -7447.3154 292.3027 -83.7210 7.4298 29676.5626 -83.7210 7.4298
ENERGY: 300000 0.5218 2.7914 0.0000 0.0000 -10412.5934 1267.7961 0.0000 0.0000 1727.3939 -7414.0901 299.2819 -9141.4840 -7430.2068 295.5005 -1382.4505 -1343.8696 30423.0458 -547.8579 -466.0541
ENERGY: 600000 0.0003 1.7171 0.0000 0.0000 -10472.6980 1384.7606 0.0000 0.0000 1775.9503 -7310.2697 307.6946 -9086.2200 -7407.7238 297.1446 -372.6111 -271.0689 30296.7914 -277.0322 -204.1975
ENERGY: 900000 0.3355 1.5831 0.0000 0.0000 -10655.0050 1419.6599 0.0000 0.0000 1652.1940 -7581.2326 286.2530 -9233.4265 -7424.1610 296.4667 -475.1986 -364.5480 29983.1462 -270.6848 -193.0531
ENERGY: 1200000 0.1756 0.9573 0.0000 0.0000 -10783.5270 1531.7050 0.0000 0.0000 1735.2079 -7515.4812 300.6357 -9250.6891 -7433.1487 297.1364 698.8305 766.3095 29300.9675 -175.3042 -101.3112
ENERGY: 1500000 0.0261 1.3483 0.0000 0.0000 -10602.4813 1387.9164 0.0000 0.0000 1724.2804 -7488.9102 298.7424 -9213.1905 -7420.8324 298.3525 -448.4598 -359.1036 29639.9050 -123.0936 -47.9135
TCL: Running FEP window   9: Lambda1 0.39999999999999997 Lambda2 0.44999999999999996 [dLambda 0.04999999999999999]
TCL: Setting parameter firsttimestep to 0
TCL: Setting parameter alchLambda to 0.39999999999999997
Info: NONBONDED TABLE R-SQUARED SPACING: 0.0625
Info: NONBONDED TABLE SIZE: 705 POINTS
TCL: Setting parameter alchLambda2 to 0.44999999999999996
Info: NONBONDED TABLE R-SQUARED SPACING: 0.0625
Info: NONBONDED TABLE SIZE: 705 POINTS
TCL: Running for 1500000 steps
ETITLE: TS BOND ANGLE DIHED IMPRP ELECT VDW BOUNDARY MISC KINETIC TOTAL TEMP POTENTIAL TOTALAVG TEMPAVG PRESSURE GPRESSURE VOLUME PRESSAVG GPRESSAVG
ENERGY: 0 0.0261 1.3483 0.0000 0.0000 -10602.4799 1388.2798 0.0000 0.0000 1723.4584 -7489.3672 298.6000 -9212.8257 -7489.3672 298.6000 -440.7818 -353.1666 29639.9050 -440.7818 -353.1666
ENERGY: 300000 0.2711 2.1278 0.0000 0.0000 -10478.8530 1418.5203 0.0000 0.0000 1751.5411 -7306.3928 303.4655 -9057.9339 -7364.4107 302.7082 -128.1266 -106.8150 30617.7184 -48.7070 1.0109
ENERGY: 600000 0.9844 1.2645 0.0000 0.0000 -10486.9744 1333.7655 0.0000 0.0000 1684.6273 -7466.3328 291.8723 -9150.9600 -7388.4014 300.5709 -1050.8161 -965.7267 30139.9449 -131.4875 -73.9098
ENERGY: 900000 1.5015 0.8281 0.0000 0.0000 -10537.1071 1427.9944 0.0000 0.0000 1778.8108 -7327.9723 308.1902 -9106.7831 -7398.8155 300.2627 -130.6896 -7.3641 30227.6645 -132.0812 -73.2199
ENERGY: 1200000 0.0696 3.8584 0.0000 0.0000 -10512.1350 1352.4151 0.0000 0.0000 1748.4140 -7407.3780 302.9237 -9155.7919 -7386.7572 301.5285 -685.4217 -702.3694 30149.1103 -148.6557 -100.6869
ENERGY: 1500000 0.2123 2.9131 0.0000 0.0000 -10553.1248 1445.6255 0.0000 0.0000 1697.6217 -7406.7523 294.1236 -9104.3740 -7384.8520 301.7169 200.5272 228.0169 29915.5117 -136.7687 -87.9640
TCL: Running FEP window  10: Lambda1 0.44999999999999996 Lambda2 0.49999999999999994 [dLambda 0.04999999999999999]
TCL: Setting parameter firsttimestep to 0
TCL: Setting parameter alchLambda to 0.44999999999999996
Info: NONBONDED TABLE R-SQUARED SPACING: 0.0625
Info: NONBONDED TABLE SIZE: 705 POINTS
TCL: Setting parameter alchLambda2 to 0.49999999999999994
Info: NONBONDED TABLE R-SQUARED SPACING: 0.0625
Info: NONBONDED TABLE SIZE: 705 POINTS
TCL: Running for 1500000 steps
ETITLE: TS BOND ANGLE DIHED IMPRP ELECT VDW BOUNDARY MISC KINETIC TOTAL TEMP POTENTIAL TOTALAVG TEMPAVG PRESSURE GPRESSURE VOLUME PRESSAVG GPRESSAVG
ENERGY: 0 0.2123 2.9131 0.0000 0.0000 -10553.1262 1445.6416 0.0000 0.0000 1696.7315 -7407.6278 293.9694 -9104.3593 -7407.6278 293.9694 146.5980 231.4829 29915.5117 146.5980 231.4829
ENERGY: 300000 0.3164 0.1863 0.0000 0.0000 -10365.9820 1369.3405 0.0000 0.0000 1739.3882 -7256.7507 301.3600 -8996.1389 -7364.9539 296.6247 -127.1887 -67.4373 30015.8238 62.1751 144.8422
ENERGY: 600000 1.0385 1.7309 0.0000 0.0000 -10496.1517 1375.9209 0.0000 0.0000 1754.9095 -7362.5519 304.0491 -9117.4613 -7366.6907 300.6672 -194.8798 -181.7296 29748.6046 -99.3078 -24.7316
ENERGY: 900000 0.4855 0.9672 0.0000 0.0000 -10572.7229 1435.4977 0.0000 0.0000 1730.0812 -7405.6913 299.7474 -9135.7725 -7364.5549 300.6092 -83.9935 -3.2421 30096.6614 -237.5088 -167.2529
ENERGY: 1200000 1.0021 3.1405 0.0000 0.0000 -10370.4640 1336.6012 0.0000 0.0000 1757.0774 -7272.6429 304.4247 -9029.7203 -7365.4216 301.0866 -380.9468 -330.1389 29869.8885 -277.7374 -205.0919
ENERGY: 1500000 0.0063 1.6907 0.0000 0.0000 -10615.6161 1379.5802 0.0000 0.0000 1709.6265 -7524.7124 296.2035 -9234.3389 -7382.9647 300.8680 -695.7138 -628.3845 29926.4656 -279.5223 -212.7147
TCL: Running FEP window  11: Lambda1 0.49999999999999994 Lambda2 0.5499999999999999 [dLambda 0.04999999999999999]
TCL: Setting parameter firsttimestep to 0
TCL: Setting parameter alchLambda to 0.49999999999999994
Info: NONBONDED TABLE R-SQUARED SPACING: 0.0625
Info: NONBONDED TABLE SIZE: 705 POINTS
TCL: Setting parameter alchLambda2 to 0.5499999999999999
Info: NONBONDED TABLE R-SQUARED SPACING: 0.0625
Info: NONBONDED TABLE SIZE: 705 POINTS
TCL: Running for 1500000 steps
ETITLE: TS BOND ANGLE DIHED IMPRP ELECT VDW BOUNDARY MISC KINETIC TOTAL TEMP POTENTIAL TOTALAVG TEMPAVG PRESSURE GPRESSURE VOLUME PRESSAVG GPRESSAVG
ENERGY: 0 0.0063 1.6907 0.0000 0.0000 -10615.6167 1379.4507 0.0000 0.0000 1708.7216 -7525.7474 296.0468 -9234.4690 -7525.7474 296.0468 -709.5982 -625.0133 29926.4656 -709.5982 -625.0133
ENERGY: 300000 0.3094 3.3227 0.0000 0.0000 -10696.4815 1580.8233 0.0000 0.0000 1712.6153 -7399.4107 296.7214 -9112.0260 -7408.6762 298.5628 1369.3281 1402.8741 29708.9931 419.7144 489.5529
ENERGY: 600000 0.6625 2.4772 0.0000 0.0000 -10555.5592 1457.8760 0.0000 0.0000 1687.2474 -7407.2962 292.3262 -9094.5436 -7394.0685 297.0368 177.0707 270.7824 29986.8244 427.9817 500.0004
ENERGY: 900000 0.2679 0.4687 0.0000 0.0000 -10584.8504 1392.8682 0.0000 0.0000 1718.2986 -7472.9471 297.7060 -9191.2457 -7410.7146 298.7372 -452.3513 -350.8536 29882.1838 175.6865 246.2812
ENERGY: 1200000 0.6565 0.7927 0.0000 0.0000 -10560.7862 1415.7791 0.0000 0.0000 1681.1772 -7462.3806 291.2745 -9143.5579 -7417.4894 297.9582 -7.4101 -7.0272 29852.6042 158.7186 216.7948
ENERGY: 1500000 0.0601 1.5976 0.0000 0.0000 -10463.2431 1358.7690 0.0000 0.0000 1778.9810 -7323.8354 308.2196 -9102.8164 -7404.8506 298.7411 -471.6108 -393.4855 29941.7475 108.1859 167.3799
TCL: Running FEP window  12: Lambda1 0.5499999999999999 Lambda2 0.6    [dLambda 0.050000000000000044]
TCL: Setting parameter firsttimestep to 0
TCL: Setting parameter alchLambda to 0.5499999999999999
Info: NONBONDED TABLE R-SQUARED SPACING: 0.0625
Info: NONBONDED TABLE SIZE: 705 POINTS
TCL: Setting parameter alchLambda2 to 0.6
Info: NONBONDED TABLE R-SQUARED SPACING: 0.0625
Info: NONBONDED TABLE SIZE: 705 POINTS
TCL: Running for 1500000 steps
ETITLE: TS BOND ANGLE DIHED IMPRP ELECT VDW BOUNDARY MISC KINETIC TOTAL TEMP POTENTIAL TOTALAVG TEMPAVG PRESSURE GPRESSURE VOLUME PRESSAVG GPRESSAVG
ENERGY: 0 0.0601 1.5976 0.0000 0.0000 -10463.2233 1358.5535 0.0000 0.0000 1778.1171 -7324.8949 308.0700 -9103.0120 -7324.8949 308.0700 -466.5156 -391.9098 29941.7475 -466.5156 -391.9098
ENERGY: 300000 1.7372 1.7956 0.0000 0.0000 -10505.9488 1375.6316 0.0000 0.0000 1743.8936 -7382.8909 302.1405 -9126.7844 -7354.5238 304.0977 -405.5263 -327.4303 29849.4985 -635.3488 -568.5141
ENERGY: 600000 0.5102 1.2856 0.0000 0.0000 -10599.3938 1417.7919 0.0000 0.0000 1708.1665 -7471.6395 295.9506 -9179.8060 -7385.4084 302.3457 -99.4778 -48.3902 29714.3900 -555.1715 -482.0632
ENERGY: 900000 0.1945 0.6206 0.0000 0.0000 -10400.1713 1360.0210 0.0000 0.0000 1748.7356 -7290.5996 302.9794 -9039.3352 -7380.9607 302.2784 -368.1325 -300.4281 30164.3317 -425.9832 -357.9673
ENERGY: 1200000 0.6091 0.8809 0.0000 0.0000 -10647.0893 1491.7917 0.0000 0.0000 1750.4857 -7403.3219 303.2827 -9153.8076 -7400.6833 301.3975 422.3917 555.3605 29758.5460 -379.1712 -303.8369
ENERGY: 1500000 0.2913 0.7104 0.0000 0.0000 -10569.7098 1458.3450 0.0000 0.0000 1748.1937 -7362.1694 302.8856 -9110.3631 -7403.5863 301.0507 69.7860 134.6768 30220.8303 -242.3555 -170.5260
TCL: Running FEP window  13: Lambda1 0.6    Lambda2 0.65   [dLambda 0.050000000000000044]
TCL: Setting parameter firsttimestep to 0
TCL: Setting parameter alchLambda to 0.6
Info: NONBONDED TABLE R-SQUARED SPACING: 0.0625
Info: NONBONDED TABLE SIZE: 705 POINTS
TCL: Setting parameter alchLambda2 to 0.65
Info: NONBONDED TABLE R-SQUARED SPACING: 0.0625
Info: NONBONDED TABLE SIZE: 705 POINTS
TCL: Running for 1500000 steps
ETITLE: TS BOND ANGLE DIHED IMPRP ELECT VDW BOUNDARY MISC KINETIC TOTAL TEMP POTENTIAL TOTALAVG TEMPAVG PRESSURE GPRESSURE VOLUME PRESSAVG GPRESSAVG
ENERGY: 0 0.2913 0.7104 0.0000 0.0000 -10569.8319 1458.1943 0.0000 0.0000 1747.3377 -7363.2983 302.7372 -9110.6360 -7363.2983 302.7372 70.3756 134.9249 30220.8303 70.3756 134.9249
ENERGY: 300000 0.3752 3.7107 0.0000 0.0000 -10473.9499 1358.2356 0.0000 0.0000 1719.4521 -7392.1764 297.9059 -9111.6285 -7360.3750 299.5478 -514.6416 -429.9489 30172.1756 -216.1785 -132.8518
ENERGY: 600000 1.1885 0.8390 0.0000 0.0000 -10467.5421 1341.2509 0.0000 0.0000 1760.6534 -7363.6103 305.0443 -9124.2638 -7375.8605 301.1363 -490.8459 -405.6992 29763.4340 -194.7837 -113.8110
ENERGY: 900000 0.2309 2.6354 0.0000 0.0000 -10574.1544 1421.2332 0.0000 0.0000 1766.1341 -7383.9207 305.9938 -9150.0548 -7374.0873 302.2060 -89.5350 -106.0593 30048.2963 -111.7322 -43.3130
ENERGY: 1200000 0.0460 2.4520 0.0000 0.0000 -10614.8783 1431.2825 0.0000 0.0000 1735.8347 -7445.2631 300.7443 -9181.0978 -7389.6036 300.9628 -136.3009 -92.3587 30020.8432 -79.6643 -15.8076
ENERGY: 1500000 0.0797 2.6453 0.0000 0.0000 -10624.3427 1443.5178 0.0000 0.0000 1742.5951 -7435.5049 301.9156 -9178.1000 -7398.9905 301.1019 50.7159 148.4091 29635.2008 -134.9704 -65.0083
TCL: Running FEP window  14: Lambda1 0.65   Lambda2 0.7000000000000001 [dLambda 0.050000000000000044]
TCL: Setting parameter firsttimestep to 0
TCL: Setting parameter alchLambda to 0.65
Info: NONBONDED TABLE R-SQUARED SPACING: 0.0625
Info: NONBONDED TABLE SIZE: 705 POINTS
TCL: Setting parameter alchLambda2 to 0.7000000000000001
Info: NONBONDED TABLE R-SQUARED SPACING: 0.0625
Info: NONBONDED TABLE SIZE: 705 POINTS
TCL: Running for 1500000 steps
ETITLE: TS BOND ANGLE DIHED IMPRP ELECT VDW BOUNDARY MISC KINETIC TOTAL TEMP POTENTIAL TOTALAVG TEMPAVG PRESSURE GPRESSURE VOLUME PRESSAVG GPRESSAVG
ENERGY: 0 0.0797 2.6453 0.0000 0.0000 -10624.7950 1444.2748 0.0000 0.0000 1741.7153 -7436.0800 301.7631 -9177.7953 -7436.0800 301.7631 75.4193 160.7262 29635.2008 75.4193 160.7262
ENERGY: 300000 1.7492 0.9097 0.0000 0.0000 -10571.0036 1430.7419 0.0000 0.0000 1678.6533 -7458.9495 290.8372 -9137.6027 -7399.0803 298.6366 153.8117 255.6317 29337.9654 243.5394 316.8500
ENERGY: 600000 0.2943 0.5669 0.0000 0.0000 -10540.6708 1438.4782 0.0000 0.0000 1724.4597 -7376.8717 298.7735 -9101.3314 -7386.2186 297.9397 141.0995 255.2970 29945.3443 1.8530 78.6905
ENERGY: 900000 0.7922 1.3460 0.0000 0.0000 -10704.0678 1452.8463 0.0000 0.0000 1716.8683 -7532.2150 297.4582 -9249.0833 -7391.2156 297.6917 156.0201 208.9316 29294.4377 -43.5447 21.5385
ENERGY: 1200000 0.2898 0.6858 0.0000 0.0000 -10518.1580 1404.6415 0.0000 0.0000 1823.1266 -7289.4144 315.8681 -9112.5409 -7389.9628 299.2958 183.5181 244.3913 29757.8807 -124.0622 -58.5809
ENERGY: 1500000 0.5445 1.3891 0.0000 0.0000 -10579.9025 1442.2472 0.0000 0.0000 1709.8445 -7425.8772 296.2413 -9135.7217 -7393.6165 299.1343 157.4473 250.9520 29852.8212 -44.3713 24.2039
TCL: Running FEP window  15: Lambda1 0.7000000000000001 Lambda2 0.7500000000000001 [dLambda 0.050000000000000044]
TCL: Setting parameter firsttimestep to 0
TCL: Setting parameter alchLambda to 0.7000000000000001
Info: NONBONDED TABLE R-SQUARED SPACING: 0.0625
Info: NONBONDED TABLE SIZE: 705 POINTS
TCL: Setting parameter alchLambda2 to 0.7500000000000001
Info: NONBONDED TABLE R-SQUARED SPACING: 0.0625
Info: NONBONDED TABLE SIZE: 705 POINTS
TCL: Running for 1500000 steps
ETITLE: TS BOND ANGLE DIHED IMPRP ELECT VDW BOUNDARY MISC KINETIC TOTAL TEMP POTENTIAL TOTALAVG TEMPAVG PRESSURE GPRESSURE VOLUME PRESSAVG GPRESSAVG
ENERGY: 0 0.5445 1.3891 0.0000 0.0000 -10579.8718 1442.1022 0.0000 0.0000 1708.9828 -7426.8532 296.0920 -9135.8360 -7426.8532 296.0920 164.4599 255.8434 29852.8212 164.4599 255.8434
ENERGY: 300000 0.4189 1.2354 0.0000 0.0000 -10500.8826 1345.5073 0.0000 0.0000 1721.5844 -7432.1366 298.2753 -9153.7210 -7400.6870 298.8483 -805.0746 -683.3594 30085.9707 -486.2252 -383.4008
ENERGY: 600000 0.5312 0.6211 0.0000 0.0000 -10683.4272 1508.4878 0.0000 0.0000 1743.3706 -7430.4166 302.0499 -9173.7871 -7404.5082 299.2781 667.4692 762.9755 29681.7056 -150.5787 -70.3256
ENERGY: 900000 1.4040 0.6497 0.0000 0.0000 -10574.7891 1431.0748 0.0000 0.0000 1791.9182 -7349.7423 310.4611 -9141.6605 -7395.0185 301.4532 77.3827 189.6089 30015.5305 -193.1382 -117.7289
ENERGY: 1200000 0.3820 0.6795 0.0000 0.0000 -10456.8989 1381.2636 0.0000 0.0000 1725.5270 -7349.0469 298.9584 -9074.5738 -7389.2949 302.7096 -85.2931 -22.2648 29725.4055 -146.8000 -74.9875
ENERGY: 1500000 0.5888 1.6540 0.0000 0.0000 -10665.7800 1479.2547 0.0000 0.0000 1704.2822 -7480.0003 295.2776 -9184.2825 -7397.4758 300.9622 505.6351 580.1855 29480.9543 -67.6858 -1.7819
TCL: Running FEP window  16: Lambda1 0.7500000000000001 Lambda2 0.8000000000000002 [dLambda 0.050000000000000044]
TCL: Setting parameter firsttimestep to 0
TCL: Setting parameter alchLambda to 0.7500000000000001
Info: NONBONDED TABLE R-SQUARED SPACING: 0.0625
Info: NONBONDED TABLE SIZE: 705 POINTS
TCL: Setting parameter alchLambda2 to 0.8000000000000002
Info: NONBONDED TABLE R-SQUARED SPACING: 0.0625
Info: NONBONDED TABLE SIZE: 705 POINTS
TCL: Running for 1500000 steps
ETITLE: TS BOND ANGLE DIHED IMPRP ELECT VDW BOUNDARY MISC KINETIC TOTAL TEMP POTENTIAL TOTALAVG TEMPAVG PRESSURE GPRESSURE VOLUME PRESSAVG GPRESSAVG
ENERGY: 0 0.5888 1.6540 0.0000 0.0000 -10666.3252 1479.4548 0.0000 0.0000 1703.4049 -7481.2227 295.1256 -9184.6276 -7481.2227 295.1256 511.5786 589.9520 29480.9543 511.5786 589.9520
ENERGY: 300000 0.0308 0.9462 0.0000 0.0000 -10506.6382 1396.1861 0.0000 0.0000 1658.4971 -7450.9781 287.3450 -9109.4752 -7417.8283 297.4495 -286.9024 -261.4114 30245.1052 -308.5577 -255.8904
ENERGY: 600000 0.7683 3.3753 0.0000 0.0000 -10667.8183 1515.2876 0.0000 0.0000 1705.5254 -7442.8617 295.4930 -9148.3871 -7411.1529 298.3081 565.5578 656.5967 30025.0662 -210.2120 -155.2567
ENERGY: 900000 0.7234 2.0831 0.0000 0.0000 -10620.1380 1453.7749 0.0000 0.0000 1801.2375 -7362.3191 312.0757 -9163.5566 -7391.4871 300.9584 531.2406 558.9037 29326.3966 -79.1526 -22.2798
ENERGY: 1200000 1.7046 1.0666 0.0000 0.0000 -10562.9632 1444.2189 0.0000 0.0000 1690.9081 -7425.0649 292.9605 -9115.9730 -7391.6571 299.4494 353.7212 438.0854 29662.5512 -51.7417 11.4639
ENERGY: 1500000 1.2969 3.2098 0.0000 0.0000 -10690.0368 1462.1857 0.0000 0.0000 1695.3167 -7528.0277 293.7243 -9223.3444 -7411.9092 298.5040 110.4747 156.1327 29619.7503 -34.2140 25.3130
TCL: Running FEP window  17: Lambda1 0.8000000000000002 Lambda2 0.8500000000000002 [dLambda 0.050000000000000044]
TCL: Setting parameter firsttimestep to 0
TCL: Setting parameter alchLambda to 0.8000000000000002
Info: NONBONDED TABLE R-SQUARED SPACING: 0.0625
Info: NONBONDED TABLE SIZE: 705 POINTS
TCL: Setting parameter alchLambda2 to 0.8500000000000002
Info: NONBONDED TABLE R-SQUARED SPACING: 0.0625
Info: NONBONDED TABLE SIZE: 705 POINTS
TCL: Running for 1500000 steps
ETITLE: TS BOND ANGLE DIHED IMPRP ELECT VDW BOUNDARY MISC KINETIC TOTAL TEMP POTENTIAL TOTALAVG TEMPAVG PRESSURE GPRESSURE VOLUME PRESSAVG GPRESSAVG
ENERGY: 0 1.2969 3.2098 0.0000 0.0000 -10690.2436 1462.1110 0.0000 0.0000 1694.4725 -7529.1534 293.5780 -9223.6259 -7529.1534 293.5780 82.1452 159.3281 29619.7503 82.1452 159.3281
ENERGY: 300000 0.3370 1.8519 0.0000 0.0000 -10590.4458 1435.9563 0.0000 0.0000 1709.3959 -7442.9046 296.1636 -9152.3005 -7416.6824 298.5417 -167.8021 -46.8759 29919.0181 -82.4894 17.4264
ENERGY: 600000 0.0220 1.4391 0.0000 0.0000 -10707.7864 1480.6969 0.0000 0.0000 1750.1375 -7475.4909 303.2223 -9225.6284 -7411.8305 300.5142 203.0032 287.0099 29969.8995 -108.7830 -16.6970
ENERGY: 900000 0.1309 0.8771 0.0000 0.0000 -10586.0684 1398.9021 0.0000 0.0000 1773.9813 -7412.1770 307.3534 -9186.1583 -7400.6849 300.9262 -177.9582 -193.2316 29701.2399 -46.9626 25.7415
ENERGY: 1200000 1.5517 0.6296 0.0000 0.0000 -10485.9980 1407.2811 0.0000 0.0000 1697.1786 -7379.3570 294.0469 -9076.5357 -7391.2188 300.1193 -126.3732 -50.7216 30144.7790 52.1346 125.0105
ENERGY: 1500000 0.0732 1.3549 0.0000 0.0000 -10645.5995 1457.2910 0.0000 0.0000 1682.7112 -7504.1691 291.5403 -9186.8804 -7396.2601 300.1646 127.2944 184.3839 29705.3827 117.8907 185.8833
TCL: Running FEP window  18: Lambda1 0.8500000000000002 Lambda2 0.9000000000000002 [dLambda 0.050000000000000044]
TCL: Setting parameter firsttimestep to 0
TCL: Setting parameter alchLambda to 0.8500000000000002
Info: NONBONDED TABLE R-SQUARED SPACING: 0.0625
Info: NONBONDED TABLE SIZE: 705 POINTS
TCL: Setting parameter alchLambda2 to 0.9000000000000002
Info: NONBONDED TABLE R-SQUARED SPACING: 0.0625
Info: NONBONDED TABLE SIZE: 705 POINTS
TCL: Running for 1500000 steps
ETITLE: TS BOND ANGLE DIHED IMPRP ELECT VDW BOUNDARY MISC KINETIC TOTAL TEMP POTENTIAL TOTALAVG TEMPAVG PRESSURE GPRESSURE VOLUME PRESSAVG GPRESSAVG
ENERGY: 0 0.0732 1.3549 0.0000 0.0000 -10646.4145 1457.4951 0.0000 0.0000 1681.8424 -7505.6489 291.3898 -9187.4913 -7505.6489 291.3898 122.4924 188.3109 29705.3827 122.4924 188.3109
ENERGY: 300000 0.1364 2.2906 0.0000 0.0000 -10654.0241 1465.7442 0.0000 0.0000 1778.1482 -7407.7048 308.0754 -9185.8529 -7425.3710 299.3406 314.5526 391.2345 29556.2630 114.7192 162.7255
ENERGY: 600000 1.6600 2.3723 0.0000 0.0000 -10603.8272 1494.4882 0.0000 0.0000 1733.6737 -7371.6330 300.3699 -9105.3068 -7399.1016 298.7607 696.7067 734.0978 29916.0588 203.2342 254.7369
ENERGY: 900000 0.1801 1.5963 0.0000 0.0000 -10433.1623 1282.2222 0.0000 0.0000 1759.2324 -7389.9314 304.7981 -9149.1638 -7398.1229 299.4911 -1268.9983 -1192.6898 30334.3725 -45.9166 9.0714
ENERGY: 1200000 0.4414 1.6063 0.0000 0.0000 -10385.0718 1321.7881 0.0000 0.0000 1730.3120 -7330.9241 299.7874 -9061.2361 -7396.7390 299.7084 -715.8975 -633.7272 30247.9241 -129.6852 -65.0588
ENERGY: 1500000 0.1371 1.3132 0.0000 0.0000 -10695.7594 1486.4179 0.0000 0.0000 1720.4797 -7487.4115 298.0839 -9207.8911 -7396.4410 300.2439 140.6507 252.5509 29979.4003 -128.2447 -61.4177
TCL: Running FEP window  19: Lambda1 0.9000000000000002 Lambda2 0.9500000000000003 [dLambda 0.050000000000000044]
TCL: Setting parameter firsttimestep to 0
TCL: Setting parameter alchLambda to 0.9000000000000002
Info: NONBONDED TABLE R-SQUARED SPACING: 0.0625
Info: NONBONDED TABLE SIZE: 705 POINTS
TCL: Setting parameter alchLambda2 to 0.9500000000000003
Info: NONBONDED TABLE R-SQUARED SPACING: 0.0625
Info: NONBONDED TABLE SIZE: 705 POINTS
TCL: Running for 1500000 steps
ETITLE: TS BOND ANGLE DIHED IMPRP ELECT VDW BOUNDARY MISC KINETIC TOTAL TEMP POTENTIAL TOTALAVG TEMPAVG PRESSURE GPRESSURE VOLUME PRESSAVG GPRESSAVG
ENERGY: 0 0.1371 1.3133 0.0000 0.0000 -10696.2314 1486.4356 0.0000 0.0000 1719.6106 -7488.7348 297.9333 -9208.3454 -7488.7348 297.9333 157.7861 255.8931 29979.4003 157.7861 255.8931
ENERGY: 300000 0.6178 1.7172 0.0000 0.0000 -10465.4549 1368.8734 0.0000 0.0000 1705.4923 -7388.7542 295.4873 -9094.2465 -7423.3929 296.5731 -347.6895 -293.9466 29985.2806 -57.8333 11.0577
ENERGY: 600000 0.3400 0.6406 0.0000 0.0000 -10366.9020 1316.9885 0.0000 0.0000 1702.7954 -7346.1376 295.0200 -9048.9331 -7414.7687 297.0911 -661.9355 -594.0715 30123.2273 -218.2582 -154.7686
ENERGY: 900000 0.0017 2.4737 0.0000 0.0000 -10435.8704 1320.4033 0.0000 0.0000 1761.5294 -7351.4623 305.1960 -9112.9917 -7395.6004 299.0922 -681.8970 -582.0818 29789.3361 -244.7694 -177.4334
ENERGY: 1200000 0.0149 0.8633 0.0000 0.0000 -10628.0611 1450.8203 0.0000 0.0000 1727.8422 -7448.5204 299.3595 -9176.3626 -7393.6849 299.6207 310.5020 387.9989 29360.9432 -151.4590 -83.4301
ENERGY: 1500000 0.3946 0.4190 0.0000 0.0000 -10511.1563 1395.8820 0.0000 0.0000 1711.3974 -7403.0634 296.5104 -9114.4608 -7391.3595 298.8239 -136.3164 -20.5579 29831.3344 -179.0235 -112.0389
TCL: Running FEP window  20: Lambda1 0.9500000000000003 Lambda2 1.0    [dLambda 0.04999999999999971]
TCL: Setting parameter firsttimestep to 0
TCL: Setting parameter alchLambda to 0.9500000000000003
Info: NONBONDED TABLE R-SQUARED SPACING: 0.0625
Info: NONBONDED TABLE SIZE: 705 POINTS
TCL: Setting parameter alchLambda2 to 1.0
Info: NONBONDED TABLE R-SQUARED SPACING: 0.0625
Info: NONBONDED TABLE SIZE: 705 POINTS
TCL: Running for 1500000 steps
ETITLE: TS BOND ANGLE DIHED IMPRP ELECT VDW BOUNDARY MISC KINETIC TOTAL TEMP POTENTIAL TOTALAVG TEMPAVG PRESSURE GPRESSURE VOLUME PRESSAVG GPRESSAVG
ENERGY: 0 0.3946 0.4190 0.0000 0.0000 -10511.7379 1395.6677 0.0000 0.0000 1710.5420 -7404.7146 296.3622 -9115.2567 -7404.7146 296.3622 -80.1371 -17.0732 29831.3344 -80.1371 -17.0732
ENERGY: 300000 0.2082 1.1094 0.0000 0.0000 -10401.7675 1368.5048 0.0000 0.0000 1743.2369 -7288.7083 302.0268 -9031.9452 -7364.7516 299.2798 -88.1821 -12.7249 29815.7621 -255.8250 -189.2690
ENERGY: 600000 0.1556 2.2737 0.0000 0.0000 -10661.1176 1436.9874 0.0000 0.0000 1749.1354 -7472.5655 303.0487 -9221.7009 -7405.5392 301.2159 133.1744 201.3519 29344.7766 -36.3034 19.1030
ENERGY: 900000 0.1698 0.5435 0.0000 0.0000 -10485.1765 1362.8665 0.0000 0.0000 1703.1129 -7418.4837 295.0750 -9121.5967 -7388.0647 301.6671 -496.1951 -386.2041 30025.8181 -47.2425 10.9425
ENERGY: 1200000 0.2874 2.1655 0.0000 0.0000 -10689.7093 1495.2748 0.0000 0.0000 1708.7227 -7483.2590 296.0469 -9191.9816 -7400.7945 300.4149 490.7119 546.8746 29745.1334 -25.5042 38.0887
ENERGY: 1500000 0.2875 2.2682 0.0000 0.0000 -10771.1546 1551.0652 0.0000 0.0000 1720.4204 -7497.1133 298.0736 -9217.5337 -7408.1576 300.4734 710.1198 836.3646 29953.2113 3.1596 70.8853
TCL: Exiting due to exit command.
