Info: SIMULATION PARAMETERS:
Info: TIMESTEP               2
Info: NUMBER OF STEPS        0
Info: STEPS PER CYCLE        10
Info: PERIODIC CELL BASIS 1  31.0335 0 0
Info: PERIODIC CELL BASIS 2  0 31.3889 0
Info: PERIODIC CELL BASIS 3  0 0 31.6655
Info: PERIODIC CELL CENTER   0 0 0
Info: WRAPPING WATERS AROUND PERIODIC BOUNDARIES ON OUTPUT.
Info: WRAPPING ALL CLUSTERS AROUND PERIODIC BOUNDARIES ON OUTPUT.
Info: FIRST LDB TIMESTEP     50
Info: LAST LDB TIMESTEP     -1
Info: HOM BACKGROUND SCALING 1
Info: PME BACKGROUND SCALING 1
Info: MIN ATOMS PER PATCH    40
Info: EMPTY PATCH LOAD       40 ATOMS
Info: VELOCITY FILE          mobley_8685905_equil.vel
Info: CENTER OF MASS MOVING INITIALLY? NO
Info: DIELECTRIC             1
Info: EXCLUDE                SCALED ONE-FOUR
Info: 1-4 ELECTROSTATICS SCALED BY 0.833333
Info: MODIFIED 1-4 VDW PARAMETERS WILL BE USED
Info: DCD FILENAME           mobley_8685905_prod.dcd
Info: DCD FREQUENCY          100000
Info: DCD FIRST STEP         100000
Info: DCD FILE WILL CONTAIN UNIT CELL DATA
Info: XST FILENAME           mobley_8685905_prod.xst
Info: XST FREQUENCY          100000
Info: NO VELOCITY DCD OUTPUT
Info: NO FORCE DCD OUTPUT
Info: OUTPUT FILENAME        mobley_8685905_prod
Info: BINARY OUTPUT FILES WILL BE USED
Info: RESTART FILENAME       mobley_8685905_prod.restart
Info: RESTART FREQUENCY      100000
Info: BINARY RESTART FILES WILL BE USED
Info: CUTOFF                 9
Info: PAIRLIST DISTANCE      11
Info: PAIRLIST SHRINK RATE   0.01
Info: PAIRLIST GROW RATE     0.01
Info: PAIRLIST TRIGGER       0.3
Info: PAIRLISTS PER CYCLE    2
Info: PAIRLISTS ENABLED
Info: MARGIN                 2
Info: HYDROGEN GROUP CUTOFF  2.5
Info: PATCH DIMENSION        15.5
Info: ENERGY OUTPUT STEPS    100000
Info: ENERGY EVALUATION STEPS    100000
Info: OUTPUT ENERGY PRECISION 4
Info: CROSSTERM ENERGY INCLUDED IN DIHEDRAL
Info: TIMING OUTPUT STEPS    1000000
Info: PRESSURE OUTPUT STEPS  100000
Info: ALCHEMICAL FEP ON
Info: FEP CURRENT LAMBDA VALUE     0
Info: FEP COMPARISON LAMBDA VALUE  0.05
Info: FEP INTRA-ALCHEMICAL NON-BONDED INTERACTIONS WILL BE RETAINED
Info: FEP INTRA-ALCHEMICAL BONDED INTERACTIONS WILL BE RETAINED
Info: FEP VDW SHIFTING COEFFICIENT 5
Info: FEP ELEC. ACTIVE FOR ANNIHILATED PARTICLES BETWEEN LAMBDA = 0 AND LAMBDA = 0.5
Info: FEP ELEC. ACTIVE FOR EXNIHILATED PARTICLES BETWEEN LAMBDA = 0.5 AND LAMBDA = 1
Info: FEP VDW ACTIVE FOR ANNIHILATED PARTICLES BETWEEN LAMBDA = 0 AND LAMBDA = 1
Info: FEP VDW ACTIVE FOR EXNIHILATED PARTICLES BETWEEN LAMBDA = 0 AND LAMBDA = 1
Info: FEP BOND ACTIVE FOR ANNIHILATED PARTICLES BETWEEN LAMBDA = 1 AND LAMBDA = 1
Info: FEP BOND ACTIVE FOR EXNIHILATED PARTICLES BETWEEN LAMBDA = 0 AND LAMBDA = 0
Info: LANGEVIN DYNAMICS ACTIVE
Info: LANGEVIN TEMPERATURE   300
Info: LANGEVIN USING BBK INTEGRATOR
Info: LANGEVIN DAMPING COEFFICIENT IS 1 INVERSE PS
Info: LANGEVIN DYNAMICS APPLIED TO HYDROGENS
Info: LANGEVIN PISTON PRESSURE CONTROL ACTIVE
Info:        TARGET PRESSURE IS 1.01325 BAR
Info:     OSCILLATION PERIOD IS 50 FS
Info:             DECAY TIME IS 25 FS
Info:     PISTON TEMPERATURE IS 300 K
Info:       PRESSURE CONTROL IS GROUP-BASED
Info:    INITIAL STRAIN RATE IS -4.64169e-05 -4.64169e-05 -4.64169e-05
Info:       CELL FLUCTUATION IS ISOTROPIC
Info: PARTICLE MESH EWALD (PME) ACTIVE
Info: PME TOLERANCE               1e-06
Info: PME EWALD COEFFICIENT       0.348832
Info: PME INTERPOLATION ORDER     4
Info: PME GRID DIMENSIONS         32 32 32
Info: PME MAXIMUM GRID SPACING    1
Info: PME CALCULATION WILL BE PERFORMED ON GPU
Info: FULL ELECTROSTATIC EVALUATION FREQUENCY      2
Info: USING VERLET I (r-RESPA) MTS SCHEME.
Info: C1 SPLITTING OF LONG RANGE ELECTROSTATICS
Info: PLACING ATOMS IN PATCHES BY HYDROGEN GROUPS
Info: RIGID BONDS TO HYDROGEN : ALL
Info:         ERROR TOLERANCE : 1e-08
Info:          MAX ITERATIONS : 100
Info: RIGID WATER USING SETTLE ALGORITHM
Info: RANDOM NUMBER SEED     1742091260
Info: USE HYDROGEN BONDS?    NO
Info: Using AMBER format force field!
Info: AMBER PARM FILE        mobley_8685905.prmtop
Info: COORDINATE PDB         mobley_8685905.pdb
Info: Exclusions will be read from PARM file!
Info: SCNB (VDW SCALING)     2
Info: USING ARITHMETIC MEAN TO COMBINE L-J SIGMA PARAMETERS
Info: BINARY COORDINATES     mobley_8685905_equil.coor
Info: SUMMARY OF PARAMETERS:
Info: 6 BONDS
Info: 7 ANGLES
Info:   7 HARMONIC
Info:   0 COSINE-BASED
Info: 2 DIHEDRAL
Info: 0 IMPROPER
Info: 0 CROSSTERM
Info: 0 VDW
Info: 21 VDW_PAIRS
Info: 0 NBTHOLE_PAIRS
Info: To read alchdata from file: mobley_8685905.pdb
Info: To read alchflag data from column: 5
Info: STRUCTURE SUMMARY:
Info: 2996 ATOMS
Info: 2995 BONDS
Info: 12 ANGLES
Info: 9 DIHEDRALS
Info: 0 IMPROPERS
Info: 0 CROSSTERMS
Info: 3016 EXCLUSIONS
Info: 2989 RIGID BONDS
Info: ALCH: 0 ATOMS TO DISAPPEAR IN FINAL STATE
Info: ALCH: 8 ATOMS TO APPEAR IN FINAL STATE
Info: 5999 DEGREES OF FREEDOM
Info: 1003 HYDROGEN GROUPS
Info: 3 ATOMS IN LARGEST HYDROGEN GROUP
Info: 1003 MIGRATION GROUPS
Info: 3 ATOMS IN LARGEST MIGRATION GROUP
Info: TOTAL MASS = 18124.9 amu
Info: TOTAL CHARGE = -4.47035e-08 e
Info: MASS DENSITY = 0.975753 g/cm^3
Info: ATOM DENSITY = 0.0971288 atoms/A^3
Info: ADDED 0 IMPLICIT EXCLUSIONS
Info: NONBONDED TABLE R-SQUARED SPACING: 0.0625
Info: NONBONDED TABLE SIZE: 705 POINTS
Info: REMOVING COM VELOCITY -0.196031 -0.0182518 -0.118205
Info: Use 3D box decompostion in PME FFT.
Info: Updated CUDA force table with 4096 elements.
Info: Updated CUDA LJ table with 6 x 6 elements.
Info: Found 11 unique exclusion lists needing 16 bytes
TCL: Running for 1500000 steps
ETITLE: TS BOND ANGLE DIHED IMPRP ELECT VDW BOUNDARY MISC KINETIC TOTAL TEMP POTENTIAL TOTALAVG TEMPAVG PRESSURE GPRESSURE VOLUME PRESSAVG GPRESSAVG
ENERGY: 0 1.8164 3.0005 5.3135 0.0000 -10851.6565 1452.0371 0.0000 0.0000 1802.3275 -7587.1614 302.3745 -9389.4889 -7587.1614 302.3745 -125.1257 -35.8367 30845.6483 -125.1257 -35.8367
ENERGY: 300000 3.0231 2.0669 5.2787 0.0000 -10722.6184 1367.1164 0.0000 0.0000 1741.3965 -7603.7368 292.1522 -9345.1333 -7609.3013 298.2704 -730.6936 -712.5219 30964.5470 -449.6679 -379.4559
ENERGY: 600000 1.1484 2.9773 5.4033 0.0000 -11016.1478 1525.9209 0.0000 0.0000 1842.7598 -7637.9381 309.1578 -9480.6979 -7615.1540 301.5825 593.6266 641.9789 30147.5591 -101.7445 -35.5138
ENERGY: 900000 4.5201 4.9587 4.9298 0.0000 -10744.2364 1384.8100 0.0000 0.0000 1801.1013 -7543.9164 302.1688 -9345.0177 -7606.4323 301.3277 -706.0653 -609.1485 31139.9097 -128.1568 -52.4920
ENERGY: 1200000 1.5590 2.4401 5.5895 0.0000 -11014.4491 1554.5673 0.0000 0.0000 1766.2740 -7684.0191 296.3259 -9450.2932 -7617.4767 300.9736 852.7851 976.5627 29963.6890 20.9276 91.5262
ENERGY: 1500000 0.8939 1.8992 5.5136 0.0000 -11028.7492 1541.7815 0.0000 0.0000 1754.5921 -7724.0689 294.3660 -9478.6610 -7622.0810 300.1996 446.6413 494.8360 30526.1766 52.2650 115.3071
TCL: Running FEP window   2: Lambda1 0.05   Lambda2 0.1    [dLambda 0.05  ]
TCL: Setting parameter firsttimestep to 0
TCL: Setting parameter alchLambda to 0.05
Info: NONBONDED TABLE R-SQUARED SPACING: 0.0625
Info: NONBONDED TABLE SIZE: 705 POINTS
TCL: Setting parameter alchLambda2 to 0.1
Info: NONBONDED TABLE R-SQUARED SPACING: 0.0625
Info: NONBONDED TABLE SIZE: 705 POINTS
TCL: Running for 1500000 steps
ETITLE: TS BOND ANGLE DIHED IMPRP ELECT VDW BOUNDARY MISC KINETIC TOTAL TEMP POTENTIAL TOTALAVG TEMPAVG PRESSURE GPRESSURE VOLUME PRESSAVG GPRESSAVG
ENERGY: 0 0.8939 1.8992 5.5136 0.0000 -11028.7489 1545.6279 0.0000 0.0000 1753.7115 -7721.1028 294.2183 -9474.8143 -7721.1028 294.2183 428.7462 502.3376 30526.1766 428.7462 502.3376
ENERGY: 300000 0.5603 3.4866 5.2957 0.0000 -10918.3467 1521.9164 0.0000 0.0000 1737.2362 -7649.8516 291.4542 -9387.0878 -7678.6496 296.8717 479.2015 568.3673 30553.0324 441.6206 505.9029
ENERGY: 600000 0.4043 2.4158 5.4358 0.0000 -10857.8417 1446.6369 0.0000 0.0000 1783.6745 -7619.2743 299.2452 -9402.9488 -7665.9687 297.3831 -308.7909 -281.4798 30944.7643 -20.1840 56.3185
ENERGY: 900000 2.3484 3.5951 5.3239 0.0000 -10847.6000 1458.3121 0.0000 0.0000 1794.7271 -7583.2934 301.0994 -9378.0206 -7656.6031 297.7345 180.5272 223.7517 30594.7378 -47.3174 25.8923
ENERGY: 1200000 1.3787 0.9449 5.7173 0.0000 -10784.1036 1417.7156 0.0000 0.0000 1842.5553 -7515.7919 309.1235 -9358.3472 -7632.2891 299.2326 -396.6675 -308.4285 31167.9067 16.1292 86.5753
ENERGY: 1500000 1.3678 3.3273 5.8357 0.0000 -10823.9967 1457.4094 0.0000 0.0000 1781.6035 -7574.4531 298.8977 -9356.0566 -7610.8226 300.6596 -246.1659 -116.9785 30874.5911 -21.4942 58.5275
TCL: Running FEP window   3: Lambda1 0.1    Lambda2 0.15000000000000002 [dLambda 0.05000000000000002]
TCL: Setting parameter firsttimestep to 0
TCL: Setting parameter alchLambda to 0.1
Info: NONBONDED TABLE R-SQUARED SPACING: 0.0625
Info: NONBONDED TABLE SIZE: 705 POINTS
TCL: Setting parameter alchLambda2 to 0.15000000000000002
Info: NONBONDED TABLE R-SQUARED SPACING: 0.0625
Info: NONBONDED TABLE SIZE: 705 POINTS
TCL: Running for 1500000 steps
ETITLE: TS BOND ANGLE DIHED IMPRP ELECT VDW BOUNDARY MISC KINETIC TOTAL TEMP POTENTIAL TOTALAVG TEMPAVG PRESSURE GPRESSURE VOLUME PRESSAVG GPRESSAVG
ENERGY: 0 1.3678 3.3273 5.8357 0.0000 -10823.9967 1458.4456 0.0000 0.0000 1780.6828 -7574.3376 298.7432 -9355.0204 -7574.3376 298.7432 -188.0579 -113.1371 30874.5911 -188.0579 -113.1371
ENERGY: 300000 1.6755 1.0942 5.3587 0.0000 -10810.2822 1426.4179 0.0000 0.0000 1744.8284 -7630.9076 292.7280 -9375.7359 -7577.5838 299.0821 -332.7716 -317.4832 30946.2920 -139.7250 -88.9249
ENERGY: 600000 1.8845 1.8551 5.8402 0.0000 -10866.3697 1437.2934 0.0000 0.0000 1826.1673 -7593.3293 306.3741 -9419.4966 -7607.8841 299.8525 -161.9464 -154.3365 30530.4496 -185.9028 -135.7002
ENERGY: 900000 2.3212 4.8852 5.6312 0.0000 -10777.6567 1399.6456 0.0000 0.0000 1738.5716 -7626.6019 291.6783 -9365.1736 -7598.4588 299.9017 -476.3506 -447.0986 31236.5980 -157.7332 -96.2856
ENERGY: 1200000 2.0717 2.6687 5.3110 0.0000 -10895.0263 1503.6498 0.0000 0.0000 1768.9875 -7612.3377 296.7811 -9381.3251 -7591.7387 300.1172 134.9525 268.4012 30917.6306 -11.4751 49.2656
ENERGY: 1500000 1.5504 1.7740 5.3828 0.0000 -10697.9538 1364.3904 0.0000 0.0000 1740.6035 -7584.2527 292.0192 -9324.8562 -7601.8297 298.7284 -1041.9922 -978.2038 31445.4599 -147.6597 -79.0524
TCL: Running FEP window   4: Lambda1 0.15000000000000002 Lambda2 0.2    [dLambda 0.04999999999999999]
TCL: Setting parameter firsttimestep to 0
TCL: Setting parameter alchLambda to 0.15000000000000002
Info: NONBONDED TABLE R-SQUARED SPACING: 0.0625
Info: NONBONDED TABLE SIZE: 705 POINTS
TCL: Setting parameter alchLambda2 to 0.2
Info: NONBONDED TABLE R-SQUARED SPACING: 0.0625
Info: NONBONDED TABLE SIZE: 705 POINTS
TCL: Running for 1500000 steps
ETITLE: TS BOND ANGLE DIHED IMPRP ELECT VDW BOUNDARY MISC KINETIC TOTAL TEMP POTENTIAL TOTALAVG TEMPAVG PRESSURE GPRESSURE VOLUME PRESSAVG GPRESSAVG
ENERGY: 0 1.5504 1.7740 5.3828 0.0000 -10697.9548 1365.1806 0.0000 0.0000 1739.6650 -7584.4020 291.8617 -9324.0671 -7584.4020 291.8617 -1052.9318 -977.2481 31445.4599 -1052.9318 -977.2481
ENERGY: 300000 0.2722 3.8159 6.2401 0.0000 -10808.8662 1427.6693 0.0000 0.0000 1777.2873 -7593.5815 298.1736 -9370.8688 -7614.6396 296.4176 -301.8937 -287.1650 31196.5015 -186.0785 -122.7278
ENERGY: 600000 1.9260 3.5078 5.4454 0.0000 -10918.0162 1437.9169 0.0000 0.0000 1772.0897 -7697.1302 297.3016 -9469.2200 -7617.2776 296.7914 -353.8076 -301.3950 30535.6559 -233.3194 -178.7448
ENERGY: 900000 2.2554 3.5391 5.1681 0.0000 -10966.9578 1549.9339 0.0000 0.0000 1861.6876 -7544.3736 312.3333 -9406.0612 -7600.6293 300.4412 823.7734 941.6866 30272.3238 66.1104 129.2260
ENERGY: 1200000 1.3899 3.8272 5.8612 0.0000 -10898.9030 1547.4258 0.0000 0.0000 1821.0465 -7519.3523 305.5150 -9340.3988 -7584.8682 301.5434 742.0681 790.8819 30793.1521 -22.0338 42.1655
ENERGY: 1500000 0.8686 2.3513 5.7643 0.0000 -10785.0948 1361.9222 0.0000 0.0000 1771.3658 -7642.8227 297.1801 -9414.1885 -7580.9192 301.7818 -896.6037 -797.3563 30628.3368 -82.1830 -12.3562
TCL: Running FEP window   5: Lambda1 0.2    Lambda2 0.25   [dLambda 0.04999999999999999]
TCL: Setting parameter firsttimestep to 0
TCL: Setting parameter alchLambda to 0.2
Info: NONBONDED TABLE R-SQUARED SPACING: 0.0625
Info: NONBONDED TABLE SIZE: 705 POINTS
TCL: Setting parameter alchLambda2 to 0.25
Info: NONBONDED TABLE R-SQUARED SPACING: 0.0625
Info: NONBONDED TABLE SIZE: 705 POINTS
TCL: Running for 1500000 steps
ETITLE: TS BOND ANGLE DIHED IMPRP ELECT VDW BOUNDARY MISC KINETIC TOTAL TEMP POTENTIAL TOTALAVG TEMPAVG PRESSURE GPRESSURE VOLUME PRESSAVG GPRESSAVG
ENERGY: 0 0.8686 2.3513 5.7643 0.0000 -10785.0956 1361.9401 0.0000 0.0000 1770.4574 -7643.7139 297.0277 -9414.1713 -7643.7139 297.0277 -879.3621 -795.9079 30628.3368 -879.3621 -795.9079
ENERGY: 300000 2.1997 1.3962 5.4832 0.0000 -11099.0379 1634.3382 0.0000 0.0000 1841.6837 -7613.9369 308.9773 -9455.6206 -7641.3525 299.2507 1177.3835 1197.5635 30708.0387 -89.4760 -28.3202
ENERGY: 600000 1.7818 2.8116 6.0390 0.0000 -10790.4431 1421.5782 0.0000 0.0000 1774.8698 -7583.3626 297.7680 -9358.2325 -7628.0805 299.3967 -356.4959 -284.3332 30827.9358 -129.1452 -75.8857
ENERGY: 900000 1.3371 1.9219 5.6254 0.0000 -10861.7311 1433.2250 0.0000 0.0000 1740.4408 -7679.1809 291.9919 -9419.6217 -7619.7430 299.5983 -516.2505 -418.8287 30747.6506 -203.3455 -146.6973
ENERGY: 1200000 1.5813 3.9326 5.6461 0.0000 -11084.4809 1601.8269 0.0000 0.0000 1799.4226 -7672.0713 301.8872 -9471.4939 -7616.5617 300.1161 1200.6419 1231.7945 30382.0741 -37.9767 19.1430
ENERGY: 1500000 1.4801 3.6220 5.5472 0.0000 -11000.8545 1526.4603 0.0000 0.0000 1753.6242 -7710.1207 294.2036 -9463.7449 -7635.2399 299.2004 331.3623 403.8207 30437.7980 42.2563 98.3335
TCL: Running FEP window   6: Lambda1 0.25   Lambda2 0.3    [dLambda 0.04999999999999999]
TCL: Setting parameter firsttimestep to 0
TCL: Setting parameter alchLambda to 0.25
Info: NONBONDED TABLE R-SQUARED SPACING: 0.0625
Info: NONBONDED TABLE SIZE: 705 POINTS
TCL: Setting parameter alchLambda2 to 0.3
Info: NONBONDED TABLE R-SQUARED SPACING: 0.0625
Info: NONBONDED TABLE SIZE: 705 POINTS
TCL: Running for 1500000 steps
ETITLE: TS BOND ANGLE DIHED IMPRP ELECT VDW BOUNDARY MISC KINETIC TOTAL TEMP POTENTIAL TOTALAVG TEMPAVG PRESSURE GPRESSURE VOLUME PRESSAVG GPRESSAVG
ENERGY: 0 1.4801 3.6220 5.5472 0.0000 -11000.8552 1526.4334 0.0000 0.0000 1752.7235 -7711.0491 294.0525 -9463.7725 -7711.0491 294.0525 331.2166 407.3757 30437.7980 331.2166 407.3757
ENERGY: 300000 3.2333 4.6623 5.6263 0.0000 -10839.9807 1431.3911 0.0000 0.0000 1811.3108 -7583.7569 303.8817 -9395.0677 -7637.3488 298.2119 -423.7036 -377.7011 30979.4472 -128.0410 -54.2569
ENERGY: 600000 1.5921 2.3368 5.3358 0.0000 -10970.7857 1490.5205 0.0000 0.0000 1845.4247 -7625.5757 309.6049 -9471.0005 -7645.0938 300.0966 138.3012 219.2806 30568.7918 8.5487 74.0020
ENERGY: 900000 1.0578 5.0345 5.9162 0.0000 -11020.5566 1559.7461 0.0000 0.0000 1789.8704 -7658.9316 300.2846 -9448.8020 -7632.8590 301.6224 794.9392 899.2015 30290.8246 84.8418 152.9498
ENERGY: 1200000 1.4663 3.0428 5.6330 0.0000 -10801.6824 1429.2113 0.0000 0.0000 1812.5085 -7549.8205 304.0826 -9362.3290 -7628.3323 300.1853 -630.2561 -536.9927 31769.0390 -43.0565 28.7829
ENERGY: 1500000 3.5623 5.0338 5.1458 0.0000 -10813.1067 1417.3579 0.0000 0.0000 1748.8189 -7633.1879 293.3975 -9382.0068 -7635.6186 299.1409 -338.3535 -325.0168 30723.5052 -84.2041 -20.2170
TCL: Running FEP window   7: Lambda1 0.3    Lambda2 0.35   [dLambda 0.04999999999999999]
TCL: Setting parameter firsttimestep to 0
TCL: Setting parameter alchLambda to 0.3
Info: NONBONDED TABLE R-SQUARED SPACING: 0.0625
Info: NONBONDED TABLE SIZE: 705 POINTS
TCL: Setting parameter alchLambda2 to 0.35
Info: NONBONDED TABLE R-SQUARED SPACING: 0.0625
Info: NONBONDED TABLE SIZE: 705 POINTS
TCL: Running for 1500000 steps
ETITLE: TS BOND ANGLE DIHED IMPRP ELECT VDW BOUNDARY MISC KINETIC TOTAL TEMP POTENTIAL TOTALAVG TEMPAVG PRESSURE GPRESSURE VOLUME PRESSAVG GPRESSAVG
ENERGY: 0 3.5623 5.0338 5.1458 0.0000 -10813.1062 1417.9026 0.0000 0.0000 1747.9728 -7633.4889 293.2555 -9381.4617 -7633.4889 293.2555 -406.5425 -319.5515 30723.5052 -406.5425 -319.5515
ENERGY: 300000 1.4795 3.6857 5.5370 0.0000 -10838.9506 1412.3961 0.0000 0.0000 1809.3931 -7606.4593 303.5599 -9415.8524 -7597.8795 297.7629 -576.1252 -506.5074 31046.8694 -352.5149 -255.8639
ENERGY: 600000 1.4958 2.1110 5.6638 0.0000 -10964.4543 1567.0863 0.0000 0.0000 1805.6047 -7582.4927 302.9244 -9388.0974 -7586.0466 300.9421 670.6421 717.4769 31069.7300 -53.6224 21.0238
ENERGY: 900000 1.6489 4.5642 5.3509 0.0000 -10869.5170 1521.7780 0.0000 0.0000 1776.2830 -7559.8920 298.0051 -9336.1750 -7586.5663 300.7767 562.1287 672.5628 30917.9724 33.4558 105.7093
ENERGY: 1200000 0.8789 3.6675 6.2948 0.0000 -10884.7099 1492.7748 0.0000 0.0000 1841.3451 -7539.7489 308.9205 -9381.0939 -7578.6937 301.6928 493.6683 518.5833 30559.2657 -60.5986 3.6121
ENERGY: 1500000 2.1337 1.8689 5.5533 0.0000 -10790.8870 1445.2539 0.0000 0.0000 1800.5872 -7535.4900 302.0826 -9336.0772 -7584.5119 300.7185 -146.6689 -157.3398 31305.5604 -147.3261 -88.0976
TCL: Running FEP window   8: Lambda1 0.35   Lambda2 0.39999999999999997 [dLambda 0.04999999999999999]
TCL: Setting parameter firsttimestep to 0
TCL: Setting parameter alchLambda to 0.35
Info: NONBONDED TABLE R-SQUARED SPACING: 0.0625
Info: NONBONDED TABLE SIZE: 705 POINTS
TCL: Setting parameter alchLambda2 to 0.39999999999999997
Info: NONBONDED TABLE R-SQUARED SPACING: 0.0625
Info: NONBONDED TABLE SIZE: 705 POINTS
TCL: Running for 1500000 steps
ETITLE: TS BOND ANGLE DIHED IMPRP ELECT VDW BOUNDARY MISC KINETIC TOTAL TEMP POTENTIAL TOTALAVG TEMPAVG PRESSURE GPRESSURE VOLUME PRESSAVG GPRESSAVG
ENERGY: 0 2.1337 1.8689 5.5533 0.0000 -10790.8870 1445.3670 0.0000 0.0000 1799.7278 -7536.2364 301.9384 -9335.9642 -7536.2364 301.9384 -225.9960 -152.8445 31305.5604 -225.9960 -152.8445
ENERGY: 300000 3.9955 5.4510 5.5403 0.0000 -10785.6809 1416.4521 0.0000 0.0000 1780.4879 -7573.7541 298.7105 -9354.2420 -7574.8907 302.5063 -598.6565 -529.2853 31332.3506 -242.2394 -163.3283
ENERGY: 600000 1.5149 3.5286 6.1378 0.0000 -10794.7295 1418.0804 0.0000 0.0000 1801.7793 -7563.6886 302.2826 -9365.4678 -7600.2167 303.7471 -361.4345 -319.1448 30979.0938 -120.6346 -50.3441
ENERGY: 900000 1.4080 5.6060 5.8473 0.0000 -10774.4705 1417.8145 0.0000 0.0000 1792.8003 -7550.9944 300.7762 -9343.7947 -7594.3218 301.8301 -216.7496 -220.1307 30948.5036 -139.2873 -80.8650
ENERGY: 1200000 0.6662 1.6218 5.4555 0.0000 -11012.2574 1542.9120 0.0000 0.0000 1736.1010 -7725.5009 291.2638 -9461.6019 -7603.8333 301.1195 630.0719 649.0688 30398.5815 -84.4370 -29.8420
ENERGY: 1500000 1.5184 1.9572 6.1720 0.0000 -10868.1857 1478.0043 0.0000 0.0000 1863.8246 -7516.7093 312.6918 -9380.5339 -7597.1039 301.7990 84.2399 132.4221 30882.9449 -129.6292 -71.2245
TCL: Running FEP window   9: Lambda1 0.39999999999999997 Lambda2 0.44999999999999996 [dLambda 0.04999999999999999]
TCL: Setting parameter firsttimestep to 0
TCL: Setting parameter alchLambda to 0.39999999999999997
Info: NONBONDED TABLE R-SQUARED SPACING: 0.0625
Info: NONBONDED TABLE SIZE: 705 POINTS
TCL: Setting parameter alchLambda2 to 0.44999999999999996
Info: NONBONDED TABLE R-SQUARED SPACING: 0.0625
Info: NONBONDED TABLE SIZE: 705 POINTS
TCL: Running for 1500000 steps
ETITLE: TS BOND ANGLE DIHED IMPRP ELECT VDW BOUNDARY MISC KINETIC TOTAL TEMP POTENTIAL TOTALAVG TEMPAVG PRESSURE GPRESSURE VOLUME PRESSAVG GPRESSAVG
ENERGY: 0 1.5184 1.9572 6.1720 0.0000 -10868.1869 1477.7227 0.0000 0.0000 1862.9537 -7517.8629 312.5457 -9380.8166 -7517.8629 312.5457 54.4473 133.3388 30882.9449 54.4473 133.3388
ENERGY: 300000 0.6902 4.0424 5.1798 0.0000 -10792.6096 1390.2974 0.0000 0.0000 1845.9234 -7546.4763 309.6886 -9392.3997 -7592.8314 305.4591 -669.8490 -633.2098 31158.6746 12.7205 42.8762
ENERGY: 600000 1.9793 3.0866 5.9292 0.0000 -10832.2899 1434.6816 0.0000 0.0000 1762.2174 -7624.3959 295.6453 -9386.6133 -7595.2601 302.0581 -271.4557 -239.9265 30972.5607 81.1910 118.6421
ENERGY: 900000 1.8466 1.4777 5.8824 0.0000 -10638.1030 1376.0174 0.0000 0.0000 1757.4996 -7495.3793 294.8538 -9252.8789 -7580.3011 300.7662 -567.6803 -470.4571 31407.8033 -29.8489 15.5416
ENERGY: 1200000 1.9280 3.5750 5.4006 0.0000 -10763.9051 1371.9453 0.0000 0.0000 1806.1464 -7574.9098 303.0152 -9381.0562 -7569.7868 301.8614 -699.7348 -620.2717 30735.9366 38.2369 88.4778
ENERGY: 1500000 0.4418 3.4486 5.4213 0.0000 -10914.9646 1530.1306 0.0000 0.0000 1780.7620 -7594.7604 298.7565 -9375.5223 -7571.2803 301.3163 368.0479 452.0873 31165.5871 41.5172 98.5194
TCL: Running FEP window  10: Lambda1 0.44999999999999996 Lambda2 0.49999999999999994 [dLambda 0.04999999999999999]
TCL: Setting parameter firsttimestep to 0
TCL: Setting parameter alchLambda to 0.44999999999999996
Info: NONBONDED TABLE R-SQUARED SPACING: 0.0625
Info: NONBONDED TABLE SIZE: 705 POINTS
TCL: Setting parameter alchLambda2 to 0.49999999999999994
Info: NONBONDED TABLE R-SQUARED SPACING: 0.0625
Info: NONBONDED TABLE SIZE: 705 POINTS
TCL: Running for 1500000 steps
ETITLE: TS BOND ANGLE DIHED IMPRP ELECT VDW BOUNDARY MISC KINETIC TOTAL TEMP POTENTIAL TOTALAVG TEMPAVG PRESSURE GPRESSURE VOLUME PRESSAVG GPRESSAVG
ENERGY: 0 0.4418 3.4486 5.4213 0.0000 -10914.9633 1530.2293 0.0000 0.0000 1779.8861 -7595.5362 298.6096 -9375.4222 -7595.5362 298.6096 374.7151 455.6513 31165.5871 374.7151 455.6513
ENERGY: 300000 0.7086 7.5927 5.7319 0.0000 -10878.3974 1449.7800 0.0000 0.0000 1845.3729 -7569.2113 309.5962 -9414.5842 -7604.2042 302.5134 1.1439 84.0001 30866.0398 13.3662 92.2028
ENERGY: 600000 2.2851 5.5790 4.7838 0.0000 -10778.5479 1353.7871 0.0000 0.0000 1790.0410 -7622.0718 300.3133 -9412.1129 -7608.4450 300.8273 -1207.6410 -1102.9849 31469.6343 -348.8743 -273.3414
ENERGY: 900000 1.4212 3.8044 5.3973 0.0000 -10701.5848 1370.7217 0.0000 0.0000 1734.2641 -7585.9761 290.9556 -9320.2402 -7604.4290 299.5513 -781.0332 -749.3277 31293.9077 -390.0929 -327.3856
ENERGY: 1200000 3.9756 2.7182 5.7157 0.0000 -10940.1513 1490.4989 0.0000 0.0000 1758.0351 -7679.2079 294.9437 -9437.2430 -7599.1425 300.0684 52.1388 103.8304 30773.2482 -253.1715 -188.4764
ENERGY: 1500000 3.1074 2.3611 5.6552 0.0000 -10872.1422 1450.3656 0.0000 0.0000 1757.9214 -7652.7314 294.9246 -9410.6528 -7602.5721 299.7360 -161.4393 -88.0033 30851.0651 -175.7587 -110.2589
TCL: Running FEP window  11: Lambda1 0.49999999999999994 Lambda2 0.5499999999999999 [dLambda 0.04999999999999999]
TCL: Setting parameter firsttimestep to 0
TCL: Setting parameter alchLambda to 0.49999999999999994
Info: NONBONDED TABLE R-SQUARED SPACING: 0.0625
Info: NONBONDED TABLE SIZE: 705 POINTS
TCL: Setting parameter alchLambda2 to 0.5499999999999999
Info: NONBONDED TABLE R-SQUARED SPACING: 0.0625
Info: NONBONDED TABLE SIZE: 705 POINTS
TCL: Running for 1500000 steps
ETITLE: TS BOND ANGLE DIHED IMPRP ELECT VDW BOUNDARY MISC KINETIC TOTAL TEMP POTENTIAL TOTALAVG TEMPAVG PRESSURE GPRESSURE VOLUME PRESSAVG GPRESSAVG
ENERGY: 0 3.1074 2.3611 5.6552 0.0000 -10872.1415 1450.9396 0.0000 0.0000 1757.0438 -7653.0343 294.7774 -9410.0781 -7653.0343 294.7774 -162.7218 -79.7343 30851.0651 -162.7218 -79.7343
ENERGY: 300000 2.6443 5.2996 4.9501 0.0000 -10825.0401 1420.0615 0.0000 0.0000 1795.5272 -7596.5573 301.2337 -9392.0845 -7649.3787 297.6848 -315.1069 -287.7932 31056.2031 -306.2546 -248.8605
ENERGY: 600000 1.2192 5.4290 5.4968 0.0000 -10808.7931 1378.3295 0.0000 0.0000 1791.9802 -7626.3384 300.6386 -9418.3186 -7593.6219 301.8679 -783.2361 -656.6811 31072.2086 -344.0982 -275.7433
ENERGY: 900000 0.9250 2.9650 5.9645 0.0000 -10855.3817 1450.3341 0.0000 0.0000 1785.5969 -7609.5963 299.5677 -9395.1933 -7591.4785 301.6509 -144.4097 -47.2719 30612.9123 -296.8797 -222.3973
ENERGY: 1200000 1.4488 3.0708 5.3477 0.0000 -10780.3222 1477.8602 0.0000 0.0000 1874.1541 -7418.4405 314.4248 -9292.5946 -7587.8654 302.9824 423.0131 426.9409 31322.5578 -283.8340 -218.8828
ENERGY: 1500000 1.4180 4.8392 5.1640 0.0000 -10856.3350 1486.5257 0.0000 0.0000 1758.1688 -7600.2191 294.9661 -9358.3880 -7591.0874 302.5295 463.4296 479.0933 30696.0615 -198.8225 -141.7508
TCL: Running FEP window  12: Lambda1 0.5499999999999999 Lambda2 0.6    [dLambda 0.050000000000000044]
TCL: Setting parameter firsttimestep to 0
TCL: Setting parameter alchLambda to 0.5499999999999999
Info: NONBONDED TABLE R-SQUARED SPACING: 0.0625
Info: NONBONDED TABLE SIZE: 705 POINTS
TCL: Setting parameter alchLambda2 to 0.6
Info: NONBONDED TABLE R-SQUARED SPACING: 0.0625
Info: NONBONDED TABLE SIZE: 705 POINTS
TCL: Running for 1500000 steps
ETITLE: TS BOND ANGLE DIHED IMPRP ELECT VDW BOUNDARY MISC KINETIC TOTAL TEMP POTENTIAL TOTALAVG TEMPAVG PRESSURE GPRESSURE VOLUME PRESSAVG GPRESSAVG
ENERGY: 0 1.4180 4.8392 5.1640 0.0000 -10857.0139 1486.6649 0.0000 0.0000 1757.2586 -7601.6691 294.8134 -9358.9277 -7601.6691 294.8134 400.9124 483.4838 30696.0615 400.9124 483.4838
ENERGY: 300000 2.1154 2.4283 5.7358 0.0000 -10895.1495 1510.4464 0.0000 0.0000 1797.8471 -7576.5765 301.6229 -9374.4236 -7593.5680 298.8258 301.3720 402.4344 30993.4233 307.9990 399.9235
ENERGY: 600000 2.9461 4.0017 5.0906 0.0000 -10946.4117 1534.9148 0.0000 0.0000 1795.5736 -7603.8849 301.2414 -9399.4584 -7596.2943 299.2498 633.4781 718.4480 30321.2467 201.4876 275.1794
ENERGY: 900000 2.9882 2.4049 5.3016 0.0000 -10861.6690 1426.3318 0.0000 0.0000 1738.9617 -7685.6808 291.7437 -9424.6425 -7607.5881 298.7531 -314.2948 -269.6803 30639.4932 131.3064 199.4400
ENERGY: 1200000 2.4300 1.5201 5.7252 0.0000 -10741.0727 1399.9789 0.0000 0.0000 1774.7405 -7556.6780 297.7463 -9331.4185 -7592.1639 299.6781 -515.4074 -500.5887 31388.0235 97.8557 158.4648
ENERGY: 1500000 1.9107 1.4924 5.3361 0.0000 -10891.9919 1480.4622 0.0000 0.0000 1793.4391 -7609.3514 300.8833 -9402.7905 -7577.8599 300.7406 2.1014 7.1344 31253.5985 90.1033 143.5299
TCL: Running FEP window  13: Lambda1 0.6    Lambda2 0.65   [dLambda 0.050000000000000044]
TCL: Setting parameter firsttimestep to 0
TCL: Setting parameter alchLambda to 0.6
Info: NONBONDED TABLE R-SQUARED SPACING: 0.0625
Info: NONBONDED TABLE SIZE: 705 POINTS
TCL: Setting parameter alchLambda2 to 0.65
Info: NONBONDED TABLE R-SQUARED SPACING: 0.0625
Info: NONBONDED TABLE SIZE: 705 POINTS
TCL: Running for 1500000 steps
ETITLE: TS BOND ANGLE DIHED IMPRP ELECT VDW BOUNDARY MISC KINETIC TOTAL TEMP POTENTIAL TOTALAVG TEMPAVG PRESSURE GPRESSURE VOLUME PRESSAVG GPRESSAVG
ENERGY: 0 1.9107 1.4924 5.3361 0.0000 -10892.1679 1479.9604 0.0000 0.0000 1792.5015 -7610.9667 300.7261 -9403.4683 -7610.9667 300.7261 -73.5079 7.3367 31253.5985 -73.5079 7.3367
ENERGY: 300000 1.6172 2.3211 5.2351 0.0000 -10773.1344 1369.0169 0.0000 0.0000 1802.7707 -7592.1735 302.4489 -9394.9442 -7575.9073 303.6579 -865.3057 -807.9368 31163.2603 -135.5784 -47.5894
ENERGY: 600000 1.6777 3.8284 5.4339 0.0000 -10913.9084 1463.6105 0.0000 0.0000 1741.0177 -7698.3403 292.0887 -9439.3580 -7599.5978 301.9776 44.2808 129.3625 30256.8368 -47.6431 22.9929
ENERGY: 900000 1.4861 1.8999 5.4283 0.0000 -10875.3851 1440.4902 0.0000 0.0000 1804.9678 -7621.1128 302.8175 -9426.0806 -7611.2950 302.0994 -229.8423 -131.2731 30662.6318 -63.5402 3.8594
ENERGY: 1200000 0.7170 2.9261 5.4168 0.0000 -10806.8095 1467.7148 0.0000 0.0000 1790.2798 -7539.7551 300.3533 -9330.0349 -7603.6223 302.3014 52.8142 149.5671 30945.2769 -83.6940 -15.2899
ENERGY: 1500000 3.1860 3.0958 5.5795 0.0000 -10966.6842 1447.1174 0.0000 0.0000 1824.5092 -7683.1963 306.0960 -9507.7055 -7612.3462 302.4517 -398.7989 -249.4949 30689.2308 -67.6926 6.4698
TCL: Running FEP window  14: Lambda1 0.65   Lambda2 0.7000000000000001 [dLambda 0.050000000000000044]
TCL: Setting parameter firsttimestep to 0
TCL: Setting parameter alchLambda to 0.65
Info: NONBONDED TABLE R-SQUARED SPACING: 0.0625
Info: NONBONDED TABLE SIZE: 705 POINTS
TCL: Setting parameter alchLambda2 to 0.7000000000000001
Info: NONBONDED TABLE R-SQUARED SPACING: 0.0625
Info: NONBONDED TABLE SIZE: 705 POINTS
TCL: Running for 1500000 steps
ETITLE: TS BOND ANGLE DIHED IMPRP ELECT VDW BOUNDARY MISC KINETIC TOTAL TEMP POTENTIAL TOTALAVG TEMPAVG PRESSURE GPRESSURE VOLUME PRESSAVG GPRESSAVG
ENERGY: 0 3.1860 3.0958 5.5795 0.0000 -10966.5725 1447.9097 0.0000 0.0000 1823.6889 -7683.1125 305.9583 -9506.8014 -7683.1125 305.9583 -319.4054 -237.6651 30689.2308 -319.4054 -237.6651
ENERGY: 300000 1.2707 2.0309 5.3714 0.0000 -10944.1529 1485.0990 0.0000 0.0000 1758.3774 -7692.0036 295.0011 -9450.3809 -7693.3430 298.5134 -87.5237 37.7151 31087.8112 22.7501 95.2203
ENERGY: 600000 0.8660 2.5120 5.4622 0.0000 -10841.1684 1523.8942 0.0000 0.0000 1813.2080 -7495.2260 304.2000 -9308.4340 -7633.1404 300.2865 654.7077 767.1837 31109.1729 239.3942 317.9005
ENERGY: 900000 1.5625 3.1255 5.5811 0.0000 -10880.0679 1524.5928 0.0000 0.0000 1806.1319 -7539.0742 303.0128 -9345.2060 -7612.6894 300.3525 164.1303 256.1161 31216.7006 218.8306 299.1286
ENERGY: 1200000 3.0500 3.6433 5.6811 0.0000 -11012.6641 1528.7075 0.0000 0.0000 1826.2889 -7645.2933 306.3945 -9471.5822 -7610.4968 301.0792 594.0096 638.0985 30389.0994 198.0023 274.7620
ENERGY: 1500000 0.9133 2.7858 5.4202 0.0000 -10903.2416 1476.0165 0.0000 0.0000 1753.2996 -7664.8061 294.1492 -9418.1057 -7618.2091 299.5768 -80.4622 -73.2573 31079.8094 186.8035 263.7404
TCL: Running FEP window  15: Lambda1 0.7000000000000001 Lambda2 0.7500000000000001 [dLambda 0.050000000000000044]
TCL: Setting parameter firsttimestep to 0
TCL: Setting parameter alchLambda to 0.7000000000000001
Info: NONBONDED TABLE R-SQUARED SPACING: 0.0625
Info: NONBONDED TABLE SIZE: 705 POINTS
TCL: Setting parameter alchLambda2 to 0.7500000000000001
Info: NONBONDED TABLE R-SQUARED SPACING: 0.0625
Info: NONBONDED TABLE SIZE: 705 POINTS
TCL: Running for 1500000 steps
ETITLE: TS BOND ANGLE DIHED IMPRP ELECT VDW BOUNDARY MISC KINETIC TOTAL TEMP POTENTIAL TOTALAVG TEMPAVG PRESSURE GPRESSURE VOLUME PRESSAVG GPRESSAVG
ENERGY: 0 0.9133 2.7858 5.4202 0.0000 -10903.2964 1475.9854 0.0000 0.0000 1752.4001 -7665.7916 293.9983 -9418.1916 -7665.7916 293.9983 -142.8605 -67.4597 31079.8094 -142.8605 -67.4597
ENERGY: 300000 1.3064 4.9193 5.7247 0.0000 -10837.9030 1403.4629 0.0000 0.0000 1801.2030 -7621.2867 302.1859 -9422.4896 -7626.9498 296.8724 -578.8386 -517.2672 31029.7986 -405.0788 -342.0690
ENERGY: 600000 1.5643 2.6883 5.6384 0.0000 -10742.0248 1331.3019 0.0000 0.0000 1781.4390 -7619.3928 298.8701 -9400.8318 -7627.2894 297.5460 -1002.1996 -953.7113 30794.7692 -412.3015 -345.7805
ENERGY: 900000 0.9718 3.1809 5.2838 0.0000 -10835.1837 1399.6877 0.0000 0.0000 1722.2524 -7703.8072 288.9404 -9426.0595 -7638.6397 297.0378 -629.5512 -493.7517 30836.6457 -313.7657 -244.3296
ENERGY: 1200000 2.2827 4.3384 5.1608 0.0000 -10808.2369 1433.2263 0.0000 0.0000 1764.1110 -7599.1177 295.9630 -9363.2287 -7627.2695 297.7568 -143.2407 -105.8468 30807.0071 -214.0114 -149.0380
ENERGY: 1500000 0.7654 4.4890 5.6129 0.0000 -10951.9759 1460.3958 0.0000 0.0000 1789.5843 -7691.1285 300.2366 -9480.7128 -7622.9301 298.7093 -36.6655 -25.5165 30601.3377 -202.2528 -143.8478
TCL: Running FEP window  16: Lambda1 0.7500000000000001 Lambda2 0.8000000000000002 [dLambda 0.050000000000000044]
TCL: Setting parameter firsttimestep to 0
TCL: Setting parameter alchLambda to 0.7500000000000001
Info: NONBONDED TABLE R-SQUARED SPACING: 0.0625
Info: NONBONDED TABLE SIZE: 705 POINTS
TCL: Setting parameter alchLambda2 to 0.8000000000000002
Info: NONBONDED TABLE R-SQUARED SPACING: 0.0625
Info: NONBONDED TABLE SIZE: 705 POINTS
TCL: Running for 1500000 steps
ETITLE: TS BOND ANGLE DIHED IMPRP ELECT VDW BOUNDARY MISC KINETIC TOTAL TEMP POTENTIAL TOTALAVG TEMPAVG PRESSURE GPRESSURE VOLUME PRESSAVG GPRESSAVG
ENERGY: 0 0.7654 4.4890 5.6129 0.0000 -10952.2289 1460.6951 0.0000 0.0000 1788.6621 -7692.0045 300.0819 -9480.6665 -7692.0045 300.0819 -105.4228 -13.4873 30601.3377 -105.4228 -13.4873
ENERGY: 300000 3.6649 6.9595 4.8537 0.0000 -10815.4614 1391.8578 0.0000 0.0000 1763.9657 -7644.1599 295.9386 -9408.1256 -7639.4233 298.8264 -524.4789 -491.0349 30989.6384 -210.1214 -133.0085
ENERGY: 600000 3.7817 1.1842 5.6597 0.0000 -10769.6756 1459.7860 0.0000 0.0000 1748.0867 -7551.1771 293.2746 -9299.2639 -7614.4936 298.2299 117.9165 229.7382 31022.3607 -273.1469 -186.7069
ENERGY: 900000 1.2397 3.5466 5.4166 0.0000 -10839.4357 1447.7421 0.0000 0.0000 1742.9594 -7638.5314 292.4144 -9381.4908 -7609.4395 298.3941 -158.5491 -101.1580 31056.2275 -77.3330 1.2023
ENERGY: 1200000 2.3582 0.8859 5.9209 0.0000 -10955.4234 1500.0049 0.0000 0.0000 1794.3820 -7651.8715 301.0415 -9446.2536 -7614.8990 298.2660 -33.9341 28.9937 31168.6284 -69.8176 4.0856
ENERGY: 1500000 1.6987 3.0125 5.2466 0.0000 -10881.2668 1409.1628 0.0000 0.0000 1826.9824 -7635.1638 306.5109 -9462.1462 -7610.7803 299.7774 -375.9587 -311.1467 30462.1793 -147.2066 -74.0776
TCL: Running FEP window  17: Lambda1 0.8000000000000002 Lambda2 0.8500000000000002 [dLambda 0.050000000000000044]
TCL: Setting parameter firsttimestep to 0
TCL: Setting parameter alchLambda to 0.8000000000000002
Info: NONBONDED TABLE R-SQUARED SPACING: 0.0625
Info: NONBONDED TABLE SIZE: 705 POINTS
TCL: Setting parameter alchLambda2 to 0.8500000000000002
Info: NONBONDED TABLE R-SQUARED SPACING: 0.0625
Info: NONBONDED TABLE SIZE: 705 POINTS
TCL: Running for 1500000 steps
ETITLE: TS BOND ANGLE DIHED IMPRP ELECT VDW BOUNDARY MISC KINETIC TOTAL TEMP POTENTIAL TOTALAVG TEMPAVG PRESSURE GPRESSURE VOLUME PRESSAVG GPRESSAVG
ENERGY: 0 1.6987 3.0125 5.2466 0.0000 -10881.5393 1408.8325 0.0000 0.0000 1826.1113 -7636.6377 306.3647 -9462.7490 -7636.6377 306.3647 -390.3601 -308.3789 30462.1793 -390.3601 -308.3789
ENERGY: 300000 1.1167 5.8554 5.5705 0.0000 -10769.5242 1412.7709 0.0000 0.0000 1748.4093 -7595.8014 293.3287 -9344.2107 -7598.5382 300.6644 -276.2028 -203.9795 30890.1666 -335.4317 -284.3751
ENERGY: 600000 2.5327 5.5910 5.4634 0.0000 -10840.8273 1433.4729 0.0000 0.0000 1783.4302 -7610.3370 299.2042 -9393.7672 -7600.6691 300.5215 -95.3704 13.4977 30621.9975 -160.0814 -101.9027
ENERGY: 900000 2.9848 3.6168 5.5802 0.0000 -10894.1585 1454.1055 0.0000 0.0000 1816.8520 -7611.0191 304.8113 -9427.8712 -7607.6406 301.7265 -132.1935 44.4817 30865.3991 -135.5925 -69.0552
ENERGY: 1200000 0.6898 2.5652 5.3428 0.0000 -10816.2650 1399.8087 0.0000 0.0000 1783.3329 -7624.5255 299.1879 -9407.8584 -7606.4611 302.1152 -439.1280 -342.5063 30484.0586 -81.8177 -20.0576
ENERGY: 1500000 1.8661 2.5647 5.3867 0.0000 -10730.8392 1333.5871 0.0000 0.0000 1809.4009 -7578.0336 303.5612 -9387.4345 -7610.0208 301.8091 -1011.5631 -984.9398 31234.8091 -57.0030 2.6842
TCL: Running FEP window  18: Lambda1 0.8500000000000002 Lambda2 0.9000000000000002 [dLambda 0.050000000000000044]
TCL: Setting parameter firsttimestep to 0
TCL: Setting parameter alchLambda to 0.8500000000000002
Info: NONBONDED TABLE R-SQUARED SPACING: 0.0625
Info: NONBONDED TABLE SIZE: 705 POINTS
TCL: Setting parameter alchLambda2 to 0.9000000000000002
Info: NONBONDED TABLE R-SQUARED SPACING: 0.0625
Info: NONBONDED TABLE SIZE: 705 POINTS
TCL: Running for 1500000 steps
ETITLE: TS BOND ANGLE DIHED IMPRP ELECT VDW BOUNDARY MISC KINETIC TOTAL TEMP POTENTIAL TOTALAVG TEMPAVG PRESSURE GPRESSURE VOLUME PRESSAVG GPRESSAVG
ENERGY: 0 1.8661 2.5647 5.3867 0.0000 -10731.2640 1333.5964 0.0000 0.0000 1808.5261 -7579.3238 303.4145 -9387.8499 -7579.3238 303.4145 -1067.0613 -978.4779 31234.8091 -1067.0613 -978.4779
ENERGY: 300000 1.3343 6.5851 5.6124 0.0000 -10929.1963 1468.0431 0.0000 0.0000 1747.9029 -7699.7185 293.2438 -9447.6214 -7649.5743 296.5578 -266.6025 -192.3561 31064.3197 -237.2812 -190.0207
ENERGY: 600000 3.0198 1.9274 5.7416 0.0000 -10867.6519 1455.7812 0.0000 0.0000 1785.9571 -7615.2249 299.6281 -9401.1819 -7638.6180 296.2333 -300.8924 -213.8008 31244.8924 -261.5245 -201.3346
ENERGY: 900000 1.4524 2.1915 5.2524 0.0000 -11038.0658 1498.8003 0.0000 0.0000 1761.1068 -7769.2624 295.4590 -9530.3692 -7658.3002 295.5939 278.5456 341.0021 30360.9858 -172.2956 -118.7193
ENERGY: 1200000 1.8490 5.0218 5.7971 0.0000 -10767.2591 1408.4811 0.0000 0.0000 1794.5878 -7551.5223 301.0761 -9346.1102 -7633.0936 297.8480 -350.8619 -277.1311 31274.8934 -239.5661 -179.8508
ENERGY: 1500000 1.5285 4.1982 5.6241 0.0000 -10963.7418 1544.4868 0.0000 0.0000 1799.0920 -7608.8123 301.8317 -9407.9043 -7631.9984 298.2369 609.6180 721.7240 30664.5083 -173.6362 -105.9146
TCL: Running FEP window  19: Lambda1 0.9000000000000002 Lambda2 0.9500000000000003 [dLambda 0.050000000000000044]
TCL: Setting parameter firsttimestep to 0
TCL: Setting parameter alchLambda to 0.9000000000000002
Info: NONBONDED TABLE R-SQUARED SPACING: 0.0625
Info: NONBONDED TABLE SIZE: 705 POINTS
TCL: Setting parameter alchLambda2 to 0.9500000000000003
Info: NONBONDED TABLE R-SQUARED SPACING: 0.0625
Info: NONBONDED TABLE SIZE: 705 POINTS
TCL: Running for 1500000 steps
ETITLE: TS BOND ANGLE DIHED IMPRP ELECT VDW BOUNDARY MISC KINETIC TOTAL TEMP POTENTIAL TOTALAVG TEMPAVG PRESSURE GPRESSURE VOLUME PRESSAVG GPRESSAVG
ENERGY: 0 1.5285 4.1982 5.6241 0.0000 -10964.2024 1545.7376 0.0000 0.0000 1798.2199 -7608.8941 301.6854 -9407.1140 -7608.8941 301.6854 646.4919 742.0426 30664.5083 646.4919 742.0426
ENERGY: 300000 3.6867 1.8308 5.4820 0.0000 -11007.5016 1514.0814 0.0000 0.0000 1798.1275 -7684.2932 301.6699 -9482.4206 -7609.7133 301.5883 284.4724 332.8993 30739.4493 -6.0296 57.0663
ENERGY: 600000 0.7400 4.6411 5.5051 0.0000 -10765.5284 1418.9235 0.0000 0.0000 1839.1243 -7496.5945 308.5479 -9335.7188 -7581.1339 301.3527 -199.8629 -155.7447 31238.2456 -33.1558 38.9313
ENERGY: 900000 0.7547 5.6037 5.5189 0.0000 -10907.2364 1504.3586 0.0000 0.0000 1809.7586 -7581.2419 303.6213 -9391.0005 -7571.6039 301.7284 558.5497 587.3477 30765.5892 24.1548 90.3247
ENERGY: 1200000 0.8651 3.1193 5.4740 0.0000 -10942.5218 1492.5808 0.0000 0.0000 1787.2790 -7653.2036 299.8499 -9440.4826 -7581.8476 301.0060 220.0052 282.5649 30566.9336 34.4804 101.4692
ENERGY: 1500000 0.6056 3.0154 5.4771 0.0000 -10925.0627 1475.6860 0.0000 0.0000 1822.2956 -7617.9831 305.7246 -9440.2786 -7591.2849 301.5929 -32.9648 24.0859 30932.9899 30.4348 97.3646
TCL: Running FEP window  20: Lambda1 0.9500000000000003 Lambda2 1.0    [dLambda 0.04999999999999971]
TCL: Setting parameter firsttimestep to 0
TCL: Setting parameter alchLambda to 0.9500000000000003
Info: NONBONDED TABLE R-SQUARED SPACING: 0.0625
Info: NONBONDED TABLE SIZE: 705 POINTS
TCL: Setting parameter alchLambda2 to 1.0
Info: NONBONDED TABLE R-SQUARED SPACING: 0.0625
Info: NONBONDED TABLE SIZE: 705 POINTS
TCL: Running for 1500000 steps
ETITLE: TS BOND ANGLE DIHED IMPRP ELECT VDW BOUNDARY MISC KINETIC TOTAL TEMP POTENTIAL TOTALAVG TEMPAVG PRESSURE GPRESSURE VOLUME PRESSAVG GPRESSAVG
ENERGY: 0 0.6056 3.0154 5.4771 0.0000 -10925.3432 1475.9961 0.0000 0.0000 1821.4385 -7618.8106 305.5808 -9440.2491 -7618.8106 305.5808 -54.0477 35.0361 30932.9899 -54.0477 35.0361
ENERGY: 300000 1.8850 2.8644 5.2732 0.0000 -10785.7855 1400.9620 0.0000 0.0000 1729.3838 -7645.4171 290.1369 -9374.8009 -7605.8435 300.6453 -461.0365 -389.9647 30821.3592 -256.3921 -193.9333
ENERGY: 600000 1.5220 2.2321 5.3652 0.0000 -10774.3928 1427.3972 0.0000 0.0000 1825.8923 -7511.9841 306.3280 -9337.8763 -7604.8864 300.1491 -240.0617 -187.6334 31284.9765 -124.4654 -59.9863
ENERGY: 900000 4.0560 3.3912 6.0312 0.0000 -11061.3295 1568.7722 0.0000 0.0000 1744.7895 -7734.2895 292.7215 -9479.0790 -7608.8785 299.3139 728.4283 833.4849 30428.7471 -64.3742 -4.0145
ENERGY: 1200000 1.7649 4.8833 5.7171 0.0000 -10866.1377 1417.8893 0.0000 0.0000 1840.1832 -7595.6999 308.7256 -9435.8831 -7612.3603 300.4500 -561.7036 -542.2560 31140.4680 -74.2334 -20.6350
ENERGY: 1500000 3.6637 1.6810 5.2825 0.0000 -10890.7468 1481.8009 0.0000 0.0000 1756.8964 -7641.4222 294.7526 -9398.3186 -7620.8790 299.4473 13.3856 85.4614 30848.1167 -62.6712 -12.3037
TCL: Exiting due to exit command.
