Info: SIMULATION PARAMETERS:
Info: TIMESTEP               2
Info: NUMBER OF STEPS        0
Info: STEPS PER CYCLE        10
Info: PERIODIC CELL BASIS 1  39.806 0 0
Info: PERIODIC CELL BASIS 2  0 39.303 0
Info: PERIODIC CELL BASIS 3  0 0 44.171
Info: PERIODIC CELL CENTER   0 0 0
Info: WRAPPING WATERS AROUND PERIODIC BOUNDARIES ON OUTPUT.
Info: WRAPPING ALL CLUSTERS AROUND PERIODIC BOUNDARIES ON OUTPUT.
Info: FIRST LDB TIMESTEP     50
Info: LAST LDB TIMESTEP     -1
Info: HOM BACKGROUND SCALING 1
Info: PME BACKGROUND SCALING 1
Info: MIN ATOMS PER PATCH    40
Info: EMPTY PATCH LOAD       40 ATOMS
Info: INITIAL TEMPERATURE    300
Info: CENTER OF MASS MOVING INITIALLY? NO
Info: DIELECTRIC             1
Info: EXCLUDE                SCALED ONE-FOUR
Info: 1-4 ELECTROSTATICS SCALED BY 0.833333
Info: MODIFIED 1-4 VDW PARAMETERS WILL BE USED
Info: DCD FILENAME           mobley_6430250_min.dcd
Info: DCD FREQUENCY          5000
Info: DCD FIRST STEP         5000
Info: DCD FILE WILL CONTAIN UNIT CELL DATA
Info: XST FILENAME           mobley_6430250_min.xst
Info: XST FREQUENCY          5000
Info: NO VELOCITY DCD OUTPUT
Info: NO FORCE DCD OUTPUT
Info: OUTPUT FILENAME        mobley_6430250_min
Info: BINARY OUTPUT FILES WILL BE USED
Info: RESTART FILENAME       mobley_6430250_min.restart
Info: RESTART FREQUENCY      5000
Info: BINARY RESTART FILES WILL BE USED
Info: CUTOFF                 9
Info: PAIRLIST DISTANCE      11
Info: PAIRLIST SHRINK RATE   0.01
Info: PAIRLIST GROW RATE     0.01
Info: PAIRLIST TRIGGER       0.3
Info: PAIRLISTS PER CYCLE    2
Info: PAIRLISTS ENABLED
Info: MARGIN                 8
Info: HYDROGEN GROUP CUTOFF  2.5
Info: PATCH DIMENSION        21.5
Info: ENERGY OUTPUT STEPS    5000
Info: ENERGY EVALUATION STEPS    5000
Info: OUTPUT ENERGY PRECISION 4
Info: CROSSTERM ENERGY INCLUDED IN DIHEDRAL
Info: TIMING OUTPUT STEPS    50000
Info: PRESSURE OUTPUT STEPS  5000
Info: LANGEVIN DYNAMICS ACTIVE
Info: LANGEVIN TEMPERATURE   300
Info: LANGEVIN USING BBK INTEGRATOR
Info: LANGEVIN DAMPING COEFFICIENT IS 1 INVERSE PS
Info: LANGEVIN DYNAMICS APPLIED TO HYDROGENS
Info: LANGEVIN PISTON PRESSURE CONTROL ACTIVE
Info:        TARGET PRESSURE IS 1.01325 BAR
Info:     OSCILLATION PERIOD IS 50 FS
Info:             DECAY TIME IS 25 FS
Info:     PISTON TEMPERATURE IS 300 K
Info:       PRESSURE CONTROL IS GROUP-BASED
Info:    INITIAL STRAIN RATE IS 0 0 0
Info:       CELL FLUCTUATION IS ISOTROPIC
Info: PARTICLE MESH EWALD (PME) ACTIVE
Info: PME TOLERANCE               1e-06
Info: PME EWALD COEFFICIENT       0.348832
Info: PME INTERPOLATION ORDER     4
Info: PME GRID DIMENSIONS         40 40 48
Info: PME MAXIMUM GRID SPACING    1
Info: FULL ELECTROSTATIC EVALUATION FREQUENCY      2
Info: USING VERLET I (r-RESPA) MTS SCHEME.
Info: C1 SPLITTING OF LONG RANGE ELECTROSTATICS
Info: PLACING ATOMS IN PATCHES BY HYDROGEN GROUPS
Info: RIGID BONDS TO HYDROGEN : ALL
Info:         ERROR TOLERANCE : 1e-08
Info:          MAX ITERATIONS : 100
Info: RIGID WATER USING SETTLE ALGORITHM
Info: RANDOM NUMBER SEED     1741384914
Info: USE HYDROGEN BONDS?    NO
Info: Using AMBER format force field!
Info: AMBER PARM FILE        mobley_6430250.prmtop
Info: COORDINATE PDB         mobley_6430250.pdb
Info: Exclusions will be read from PARM file!
Info: SCNB (VDW SCALING)     2
Info: USING ARITHMETIC MEAN TO COMBINE L-J SIGMA PARAMETERS
Info: SUMMARY OF PARAMETERS:
Info: 7 BONDS
Info: 8 ANGLES
Info:   8 HARMONIC
Info:   0 COSINE-BASED
Info: 7 DIHEDRAL
Info: 0 IMPROPER
Info: 0 CROSSTERM
Info: 0 VDW
Info: 21 VDW_PAIRS
Info: 0 NBTHOLE_PAIRS
Info: STRUCTURE SUMMARY:
Info: 4989 ATOMS
Info: 4989 BONDS
Info: 36 ANGLES
Info: 54 DIHEDRALS
Info: 0 IMPROPERS
Info: 0 CROSSTERMS
Info: 5070 EXCLUSIONS
Info: 4980 RIGID BONDS
Info: 9987 DEGREES OF FREEDOM
Info: 1665 HYDROGEN GROUPS
Info: 4 ATOMS IN LARGEST HYDROGEN GROUP
Info: 1665 MIGRATION GROUPS
Info: 4 ATOMS IN LARGEST MIGRATION GROUP
Info: TOTAL MASS = 29954.7 amu
Info: TOTAL CHARGE = -0.000200003 e
Info: MASS DENSITY = 0.719801 g/cm^3
Info: ATOM DENSITY = 0.0721942 atoms/A^3
Info: ADDED 0 IMPLICIT EXCLUSIONS
Info: NONBONDED TABLE R-SQUARED SPACING: 0.0625
Info: NONBONDED TABLE SIZE: 705 POINTS
Info: REMOVING COM VELOCITY 0.0448949 -0.0995123 -0.109159
TCL: Minimizing for 2000 steps
ETITLE: TS BOND ANGLE DIHED IMPRP ELECT VDW BOUNDARY MISC KINETIC TOTAL TEMP POTENTIAL TOTAL3 TEMPAVG PRESSURE GPRESSURE VOLUME PRESSAVG GPRESSAVG
ENERGY: 0 0.2146 0.2170 0.9687 0.0000 -15504.0647 1770.8908 0.0000 0.0000 0.0000 -13731.7737 0.0000 -13731.7737 -13731.7737 0.0000 11152.8574 -15425.9948 69105.3183 11152.8574 -15425.9948
ENERGY: 400 18.2990 11.0070 1.4052 0.0000 -20728.6225 2954.5062 0.0000 0.0000 0.0000 -17743.4050 0.0000 -17743.4050 -17743.4050 0.0000 15354.5319 10347.2853 69105.3183 15354.5319 10347.2853
ENERGY: 800 16.4568 6.6978 1.5245 0.0000 -22136.8557 3697.0246 0.0000 0.0000 0.0000 -18415.1520 0.0000 -18415.1520 -18415.1520 0.0000 18762.0708 13257.5111 69105.3183 18762.0708 13257.5111
ENERGY: 1200 0.5365 0.3999 1.1361 0.0000 -22580.1339 3866.1793 0.0000 0.0000 0.0000 -18711.8821 0.0000 -18711.8821 -18711.8821 0.0000 19594.8406 13914.6503 69105.3183 19594.8406 13914.6503
ENERGY: 1600 0.4280 0.3907 1.0192 0.0000 -22744.1357 3889.6923 0.0000 0.0000 0.0000 -18852.6055 0.0000 -18852.6055 -18852.6055 0.0000 19753.1612 13779.7205 69105.3183 19753.1612 13779.7205
ENERGY: 2000 0.3731 0.2266 0.9165 0.0000 -22930.9452 3996.3838 0.0000 0.0000 0.0000 -18933.0452 0.0000 -18933.0452 -18933.0452 0.0000 20315.8311 14357.8444 69105.3183 20315.8311 14357.8444
TCL: Exiting due to exit command.
Info: NAMD 3.0.1 for Linux-x86_64-multicore
Info: Please visit http://www.ks.uiuc.edu/Research/namd/
Info: for updates, documentation, and support information.
Info: Please cite Phillips et al., J. Chem. Phys. 153:044130 (2020) doi:10.1063/5.0014475
Info: in all publications reporting results obtained with NAMD.
Info: Based on Charm++/Converse 80000 for multicore-linux-x86_64-gcc
Info: Built Mon Oct 14 11:11:06 CDT 2024 by dhardy on athine.ks.uiuc.edu
Info: 1 NAMD  3.0.1  Linux-x86_64-multicore  16    k014  z5358697
Info: Running on 16 processors, 1 nodes, 1 physical nodes.
Info: CPU topology information available.
Info: Charm++/Converse parallel runtime startup completed at 0.00911614 s
Info: 1043.45 MB of memory in use based on /proc/self/stat
Info: Configuration file is mobley_6430250_equil.namd
Info: Working in the current directory /srv/scratch/z5358697/prod_prep_8/6430250
TCL: Running 25000 steps at 30 kelvin.
TCL: Suspending until startup complete.
Info: SIMULATION PARAMETERS:
Info: TIMESTEP               2
Info: NUMBER OF STEPS        0
Info: STEPS PER CYCLE        10
Info: PERIODIC CELL BASIS 1  39.806 0 0
Info: PERIODIC CELL BASIS 2  0 39.303 0
Info: PERIODIC CELL BASIS 3  0 0 44.171
Info: PERIODIC CELL CENTER   0 0 0
Info: WRAPPING WATERS AROUND PERIODIC BOUNDARIES ON OUTPUT.
Info: WRAPPING ALL CLUSTERS AROUND PERIODIC BOUNDARIES ON OUTPUT.
Info: FIRST LDB TIMESTEP     50
Info: LAST LDB TIMESTEP     -1
Info: HOM BACKGROUND SCALING 1
Info: PME BACKGROUND SCALING 1
Info: MIN ATOMS PER PATCH    40
Info: EMPTY PATCH LOAD       40 ATOMS
Info: INITIAL TEMPERATURE    300
Info: CENTER OF MASS MOVING INITIALLY? NO
Info: DIELECTRIC             1
Info: EXCLUDE                SCALED ONE-FOUR
Info: 1-4 ELECTROSTATICS SCALED BY 0.833333
Info: MODIFIED 1-4 VDW PARAMETERS WILL BE USED
Info: DCD FILENAME           mobley_6430250_equil.dcd
Info: DCD FREQUENCY          5000
Info: DCD FIRST STEP         5000
Info: DCD FILE WILL CONTAIN UNIT CELL DATA
Info: XST FILENAME           mobley_6430250_equil.xst
Info: XST FREQUENCY          5000
Info: NO VELOCITY DCD OUTPUT
Info: NO FORCE DCD OUTPUT
Info: OUTPUT FILENAME        mobley_6430250_equil
Info: BINARY OUTPUT FILES WILL BE USED
Info: RESTART FILENAME       mobley_6430250_equil.restart
Info: RESTART FREQUENCY      5000
Info: BINARY RESTART FILES WILL BE USED
Info: CUTOFF                 9
Info: PAIRLIST DISTANCE      11
Info: PAIRLIST SHRINK RATE   0.01
Info: PAIRLIST GROW RATE     0.01
Info: PAIRLIST TRIGGER       0.3
Info: PAIRLISTS PER CYCLE    2
Info: PAIRLISTS ENABLED
Info: MARGIN                 8
Info: HYDROGEN GROUP CUTOFF  2.5
Info: PATCH DIMENSION        21.5
Info: ENERGY OUTPUT STEPS    5000
Info: ENERGY EVALUATION STEPS    5000
Info: OUTPUT ENERGY PRECISION 4
Info: CROSSTERM ENERGY INCLUDED IN DIHEDRAL
Info: TIMING OUTPUT STEPS    50000
Info: PRESSURE OUTPUT STEPS  5000
Info: LANGEVIN DYNAMICS ACTIVE
Info: LANGEVIN TEMPERATURE   30
Info: LANGEVIN USING BBK INTEGRATOR
Info: LANGEVIN DAMPING COEFFICIENT IS 1 INVERSE PS
Info: LANGEVIN DYNAMICS APPLIED TO HYDROGENS
Info: LANGEVIN PISTON PRESSURE CONTROL ACTIVE
Info:        TARGET PRESSURE IS 1.01325 BAR
Info:     OSCILLATION PERIOD IS 50 FS
Info:             DECAY TIME IS 25 FS
Info:     PISTON TEMPERATURE IS 300 K
Info:       PRESSURE CONTROL IS GROUP-BASED
Info:    INITIAL STRAIN RATE IS 0 0 0
Info:       CELL FLUCTUATION IS ISOTROPIC
Info: PARTICLE MESH EWALD (PME) ACTIVE
Info: PME TOLERANCE               1e-06
Info: PME EWALD COEFFICIENT       0.348832
Info: PME INTERPOLATION ORDER     4
Info: PME GRID DIMENSIONS         40 40 48
Info: PME MAXIMUM GRID SPACING    1
Info: FULL ELECTROSTATIC EVALUATION FREQUENCY      2
Info: USING VERLET I (r-RESPA) MTS SCHEME.
Info: C1 SPLITTING OF LONG RANGE ELECTROSTATICS
Info: PLACING ATOMS IN PATCHES BY HYDROGEN GROUPS
Info: RIGID BONDS TO HYDROGEN : ALL
Info:         ERROR TOLERANCE : 1e-08
Info:          MAX ITERATIONS : 100
Info: RIGID WATER USING SETTLE ALGORITHM
Info: RANDOM NUMBER SEED     1741384933
Info: USE HYDROGEN BONDS?    NO
Info: Using AMBER format force field!
Info: AMBER PARM FILE        mobley_6430250.prmtop
Info: COORDINATE PDB         mobley_6430250.pdb
Info: Exclusions will be read from PARM file!
Info: SCNB (VDW SCALING)     2
Info: USING ARITHMETIC MEAN TO COMBINE L-J SIGMA PARAMETERS
Info: BINARY COORDINATES     mobley_6430250_min.coor
Info: SUMMARY OF PARAMETERS:
Info: 7 BONDS
Info: 8 ANGLES
Info: 7 DIHEDRAL
Info: 0 IMPROPER
Info: 0 CROSSTERM
Info: 0 VDW
Info: 21 VDW_PAIRS
Info: 0 NBTHOLE_PAIRS
Info: STRUCTURE SUMMARY:
Info: 4989 ATOMS
Info: 4989 BONDS
Info: 36 ANGLES
Info: 54 DIHEDRALS
Info: 0 IMPROPERS
Info: 0 CROSSTERMS
Info: 5070 EXCLUSIONS
Info: 4980 RIGID BONDS
Info: 9987 DEGREES OF FREEDOM
Info: 1665 HYDROGEN GROUPS
Info: 4 ATOMS IN LARGEST HYDROGEN GROUP
Info: 1665 MIGRATION GROUPS
Info: 4 ATOMS IN LARGEST MIGRATION GROUP
Info: TOTAL MASS = 29954.7 amu
Info: TOTAL CHARGE = -0.000200003 e
Info: MASS DENSITY = 0.719801 g/cm^3
Info: ATOM DENSITY = 0.0721942 atoms/A^3
Info: ADDED 0 IMPLICIT EXCLUSIONS
Info: NONBONDED TABLE R-SQUARED SPACING: 0.0625
Info: NONBONDED TABLE SIZE: 705 POINTS
Info: REMOVING COM VELOCITY 0.158569 0.121342 -0.231851
TCL: Running for 25000 steps
ETITLE: TS BOND ANGLE DIHED IMPRP ELECT VDW BOUNDARY MISC KINETIC TOTAL TEMP POTENTIAL TOTAL3 TEMPAVG PRESSURE GPRESSURE VOLUME PRESSAVG GPRESSAVG
ENERGY: 0 0.3731 0.2266 0.9165 0.0000 -22930.9452 3996.3838 0.0000 0.0000 3052.3282 -15880.7170 307.6002 -18933.0452 -15880.0807 307.6002 491.9177 527.9950 69105.3183 491.9177 527.9950
ENERGY: 5000 0.4297 0.6844 1.3060 0.0000 -23904.8594 4119.4716 0.0000 0.0000 305.5660 -19477.4017 30.7936 -19782.9677 -19476.3616 47.9815 -79.8714 -38.5401 48302.4619 1.9741 1.8258
ENERGY: 10000 0.3243 0.5514 1.2630 0.0000 -23839.6307 4011.3187 0.0000 0.0000 309.0802 -19517.0931 31.1477 -19826.1734 -19516.1246 30.4584 -744.4041 -684.0729 48406.4310 6.6810 6.7972
ENERGY: 15000 0.8675 1.0907 1.4081 0.0000 -24072.9162 4210.5651 0.0000 0.0000 298.0892 -19560.8955 30.0401 -19858.9847 -19560.0435 30.1619 165.1509 218.1515 48070.9284 5.1902 5.0343
ENERGY: 20000 0.5695 0.9220 1.3104 0.0000 -23993.5976 4124.2417 0.0000 0.0000 291.6208 -19574.9333 29.3883 -19866.5541 -19574.1655 29.8830 -295.2182 -217.0140 48169.5085 2.8761 2.9271
ENERGY: 25000 0.2947 0.6424 1.1812 0.0000 -24010.8670 4139.7111 0.0000 0.0000 296.9177 -19572.1199 29.9221 -19869.0375 -19571.1669 30.3012 -214.1416 -137.6431 48205.6267 8.4292 8.6573
TCL: Running 25000 steps at 60 kelvin.
TCL: Setting parameter langevinTemp to 60
TCL: Running for 25000 steps
ETITLE: TS BOND ANGLE DIHED IMPRP ELECT VDW BOUNDARY MISC KINETIC TOTAL TEMP POTENTIAL TOTAL3 TEMPAVG PRESSURE GPRESSURE VOLUME PRESSAVG GPRESSAVG
ENERGY: 25000 0.2947 0.6424 1.1812 0.0000 -24010.8670 4139.7111 0.0000 0.0000 296.7670 -19572.2705 29.9069 -19869.0375 -19571.6471 29.9069 -197.9138 -137.5430 48205.6267 -197.9138 -137.5430
ENERGY: 30000 0.5452 1.3386 1.1759 0.0000 -23729.6400 4116.4717 0.0000 0.0000 595.4453 -19014.6632 60.0063 -19610.1085 -19013.1205 56.6903 351.7428 400.1739 48170.4312 0.2389 0.4214
ENERGY: 35000 0.7394 2.4213 1.6345 0.0000 -23770.8029 4147.6715 0.0000 0.0000 592.2168 -19026.1194 59.6810 -19618.3362 -19024.3481 60.1143 455.5521 523.7374 48134.5520 3.7864 4.0033
ENERGY: 40000 0.5511 1.2675 1.4017 0.0000 -23672.0248 4043.0751 0.0000 0.0000 587.4163 -19038.3130 59.1972 -19625.7294 -19037.4659 60.0180 -40.1194 32.5733 48156.8315 0.0263 -0.0604
ENERGY: 45000 0.8379 1.1853 2.0547 0.0000 -23666.2660 4002.2677 0.0000 0.0000 602.1678 -19057.7526 60.6838 -19659.9204 -19056.9297 60.0130 -271.9274 -222.5748 48323.8143 5.8723 5.5203
ENERGY: 50000 0.9345 1.4019 1.6153 0.0000 -23618.1789 3950.5263 0.0000 0.0000 589.4229 -19074.2781 59.3994 -19663.7010 -19072.7036 60.1031 -612.7846 -561.0672 48380.6652 6.7268 6.3924
TCL: Running 25000 steps at 90 kelvin.
TCL: Setting parameter langevinTemp to 90
TCL: Running for 25000 steps
ETITLE: TS BOND ANGLE DIHED IMPRP ELECT VDW BOUNDARY MISC KINETIC TOTAL TEMP POTENTIAL TOTAL3 TEMPAVG PRESSURE GPRESSURE VOLUME PRESSAVG GPRESSAVG
ENERGY: 50000 0.9345 1.4019 1.6153 0.0000 -23618.1789 3950.5263 0.0000 0.0000 589.1245 -19074.5765 59.3694 -19663.7010 -19073.4091 59.3694 -623.4180 -561.2026 48380.6652 -623.4180 -561.2026
ENERGY: 55000 0.6946 2.4893 1.3071 0.0000 -23176.7264 3818.3138 0.0000 0.0000 916.1296 -18437.7921 92.3235 -19353.9216 -18435.3915 87.4188 -643.7800 -559.6227 48847.6458 -0.3084 -0.3205
ENERGY: 60000 0.3401 2.7575 1.5307 0.0000 -23496.8552 4089.4938 0.0000 0.0000 902.6858 -18500.0473 90.9687 -19402.7331 -18498.2613 90.8158 726.5682 784.0272 48273.0171 3.1706 3.1791
ENERGY: 65000 0.6027 2.7118 1.9105 0.0000 -23376.7131 3951.9869 0.0000 0.0000 885.7100 -18533.7913 89.2579 -19419.5013 -18531.4344 90.3764 -112.1499 -62.0083 48482.1363 4.2844 4.2016
ENERGY: 70000 1.1238 1.6481 1.9746 0.0000 -23493.2657 4029.9464 0.0000 0.0000 902.9842 -18555.5886 90.9988 -19458.5728 -18554.0474 90.6514 316.1480 379.9161 48184.5362 -1.8735 -2.1802
ENERGY: 75000 0.4255 2.4345 2.1314 0.0000 -23530.7568 4064.9270 0.0000 0.0000 914.4333 -18546.4051 92.1526 -19460.8384 -18544.8135 90.4915 494.9324 531.9272 48079.0907 2.6632 2.8344
TCL: Running 25000 steps at 120 kelvin.
TCL: Setting parameter langevinTemp to 120
TCL: Running for 25000 steps
ETITLE: TS BOND ANGLE DIHED IMPRP ELECT VDW BOUNDARY MISC KINETIC TOTAL TEMP POTENTIAL TOTAL3 TEMPAVG PRESSURE GPRESSURE VOLUME PRESSAVG GPRESSAVG
ENERGY: 75000 0.4255 2.4345 2.1314 0.0000 -23530.7568 4064.9270 0.0000 0.0000 913.9874 -18546.8510 92.1076 -19460.8384 -18545.1285 92.1076 472.6061 531.5356 48079.0907 472.6061 531.5356
ENERGY: 80000 1.1655 1.8730 3.2012 0.0000 -22943.1209 3808.6937 0.0000 0.0000 1197.5802 -17930.6073 120.6869 -19128.1875 -17927.6696 117.3958 -131.8532 -53.1710 48392.5228 1.7220 1.8610
ENERGY: 85000 0.7306 2.9803 2.1269 0.0000 -23091.7420 3875.5278 0.0000 0.0000 1190.7299 -18019.6466 119.9965 -19210.3765 -18016.2600 119.8074 160.4151 213.2295 48151.7576 4.8262 5.0062
ENERGY: 90000 1.3202 4.2505 1.7456 0.0000 -23017.4628 3794.3468 0.0000 0.0000 1189.2292 -18026.5705 119.8453 -19215.7997 -18023.4957 120.4445 -332.6562 -276.4746 48381.4475 2.1821 2.8022
ENERGY: 95000 0.8827 1.9885 2.3734 0.0000 -23005.1387 3739.0730 0.0000 0.0000 1200.3018 -18060.5194 120.9611 -19260.8212 -18057.4440 119.7581 -647.9268 -629.4744 48362.0374 2.8212 3.3334
ENERGY: 100000 0.5713 2.2771 1.9543 0.0000 -23250.4020 3935.8858 0.0000 0.0000 1195.3009 -18114.4125 120.4572 -19309.7134 -18110.1546 120.0773 415.9063 443.8916 47905.6936 1.9904 2.3420
TCL: Running 25000 steps at 150 kelvin.
TCL: Setting parameter langevinTemp to 150
TCL: Running for 25000 steps
ETITLE: TS BOND ANGLE DIHED IMPRP ELECT VDW BOUNDARY MISC KINETIC TOTAL TEMP POTENTIAL TOTAL3 TEMPAVG PRESSURE GPRESSURE VOLUME PRESSAVG GPRESSAVG
ENERGY: 100000 0.5713 2.2771 1.9543 0.0000 -23250.4020 3935.8858 0.0000 0.0000 1194.7180 -18114.9954 120.3984 -19309.7134 -18112.6545 120.3984 395.0258 443.9646 47905.6936 395.0258 443.9646
ENERGY: 105000 1.1682 3.9427 2.1198 0.0000 -22583.4900 3660.8929 0.0000 0.0000 1459.1944 -17456.1719 147.0512 -18915.3663 -17452.1012 146.1811 -118.0391 -82.5788 48182.3448 7.4888 7.2035
ENERGY: 110000 1.6283 4.8584 1.9824 0.0000 -22583.0498 3691.1515 0.0000 0.0000 1487.5106 -17395.9186 149.9048 -18883.4293 -17392.4222 149.2681 4.7732 67.8587 48212.9086 2.7861 2.4408
ENERGY: 115000 1.9058 5.4392 1.9736 0.0000 -22392.0649 3494.3760 0.0000 0.0000 1492.9156 -17395.4548 150.4494 -18888.3704 -17392.9878 150.7513 -1101.0248 -1060.3067 48642.5950 1.4430 1.5836
ENERGY: 120000 1.7575 4.4270 2.4557 0.0000 -22802.8626 3771.9975 0.0000 0.0000 1504.8426 -17517.3823 151.6514 -19022.2249 -17514.5942 150.4081 22.0769 50.3555 48502.4009 4.2572 4.1743
ENERGY: 125000 2.2411 4.1244 1.9169 0.0000 -22804.0374 3758.9132 0.0000 0.0000 1523.1841 -17513.6577 153.4998 -19036.8417 -17507.9389 149.7340 -23.7492 76.2300 48214.3776 -1.7711 -1.7129
TCL: Running 50000 steps at 180 kelvin.
TCL: Setting parameter langevinTemp to 180
TCL: Running for 50000 steps
ETITLE: TS BOND ANGLE DIHED IMPRP ELECT VDW BOUNDARY MISC KINETIC TOTAL TEMP POTENTIAL TOTAL3 TEMPAVG PRESSURE GPRESSURE VOLUME PRESSAVG GPRESSAVG
ENERGY: 125000 2.2411 4.1244 1.9169 0.0000 -22804.0374 3758.9132 0.0000 0.0000 1522.4341 -17514.4077 153.4242 -19036.8417 -17511.7374 153.4242 21.1585 78.5004 48214.3776 21.1585 78.5004
ENERGY: 135000 1.9183 6.5219 3.1683 0.0000 -22109.7584 3569.4813 0.0000 0.0000 1825.3832 -16703.2854 183.9541 -18528.6686 -16701.1132 180.6863 68.1432 139.2972 48595.7316 -0.6491 -0.8233
ENERGY: 145000 2.0825 4.3415 1.6921 0.0000 -22247.3257 3658.4432 0.0000 0.0000 1809.7720 -16770.9944 182.3808 -18580.7664 -16767.2570 180.3576 352.0695 401.3208 48514.5842 6.7064 6.9492
ENERGY: 155000 0.4008 4.4015 2.9980 0.0000 -22146.9300 3546.8101 0.0000 0.0000 1772.9147 -16819.4048 178.6665 -18592.3196 -16814.9857 180.1210 -138.1088 -72.0585 48535.6770 0.5186 0.8751
ENERGY: 165000 0.9008 5.3807 1.8474 0.0000 -22213.3482 3695.5966 0.0000 0.0000 1735.8727 -16773.7499 174.9336 -18509.6226 -16770.7040 180.3121 792.5624 842.4505 48412.8376 5.0132 5.0659
ENERGY: 175000 2.6145 4.4620 2.4331 0.0000 -21944.8173 3392.2299 0.0000 0.0000 1767.8097 -16775.2679 178.1521 -18543.0777 -16771.9199 180.6400 -904.6810 -825.0403 48844.7324 6.4314 5.8950
TCL: Running 50000 steps at 210 kelvin.
TCL: Setting parameter langevinTemp to 210
TCL: Running for 50000 steps
ETITLE: TS BOND ANGLE DIHED IMPRP ELECT VDW BOUNDARY MISC KINETIC TOTAL TEMP POTENTIAL TOTAL3 TEMPAVG PRESSURE GPRESSURE VOLUME PRESSAVG GPRESSAVG
ENERGY: 175000 2.6145 4.4620 2.4331 0.0000 -21944.8173 3392.2299 0.0000 0.0000 1766.9195 -16776.1582 178.0623 -18543.0777 -16773.1971 178.0623 -894.7252 -824.9842 48844.7324 -894.7252 -824.9842
ENERGY: 185000 3.0111 5.9435 3.5106 0.0000 -21151.7638 3278.2196 0.0000 0.0000 2086.2816 -15774.7976 210.2462 -17861.0791 -15769.7006 211.2204 199.6242 289.1028 48502.1150 5.3061 4.8339
ENERGY: 195000 2.6243 3.5045 2.1145 0.0000 -21012.8003 3231.4460 0.0000 0.0000 2148.6965 -15624.4144 216.5362 -17773.1109 -15619.6497 210.6940 189.0502 239.3789 48378.1680 1.4361 1.3102
ENERGY: 205000 1.2596 5.2246 2.5184 0.0000 -21200.5002 3271.9554 0.0000 0.0000 2073.8910 -15845.6512 208.9976 -17919.5422 -15842.3923 210.4036 -4.6075 24.0949 48901.2587 -0.4248 -0.1738
ENERGY: 215000 3.3963 4.8354 3.1017 0.0000 -21083.5294 3254.8704 0.0000 0.0000 2130.4352 -15686.8904 214.6959 -17817.3256 -15680.8161 209.4412 64.0954 153.4940 48788.2769 0.8693 0.7731
ENERGY: 225000 1.9517 2.5878 2.1685 0.0000 -20856.9211 3103.3993 0.0000 0.0000 2113.4667 -15633.3472 212.9858 -17746.8139 -15628.4317 209.5702 -554.8230 -480.9766 48997.5366 1.1380 0.8212
TCL: Running 50000 steps at 240 kelvin.
TCL: Setting parameter langevinTemp to 240
TCL: Running for 50000 steps
ETITLE: TS BOND ANGLE DIHED IMPRP ELECT VDW BOUNDARY MISC KINETIC TOTAL TEMP POTENTIAL TOTAL3 TEMPAVG PRESSURE GPRESSURE VOLUME PRESSAVG GPRESSAVG
ENERGY: 225000 1.9517 2.5878 2.1685 0.0000 -20856.9211 3103.3993 0.0000 0.0000 2112.4271 -15634.3868 212.8811 -17746.8139 -15630.6596 212.8811 -553.4547 -481.3376 48997.5366 -553.4547 -481.3376
ENERGY: 235000 1.5425 4.0022 4.1089 0.0000 -19849.7742 2816.2730 0.0000 0.0000 2358.1885 -14665.6591 237.6478 -17023.8476 -14663.1835 239.9426 -771.9407 -699.6502 50125.0695 -3.1579 -2.9850
ENERGY: 245000 4.1118 4.6009 3.9628 0.0000 -19655.6376 2753.8409 0.0000 0.0000 2384.1817 -14504.9395 240.2673 -16889.1212 -14498.7873 241.0811 -648.7743 -558.4547 49573.2281 -0.8612 -0.6523
ENERGY: 255000 1.3526 7.9760 3.4830 0.0000 -20088.0853 3030.0378 0.0000 0.0000 2425.2371 -14619.9989 244.4047 -17045.2360 -14613.4649 239.4753 568.6544 621.3076 48814.6328 4.2366 4.6320
ENERGY: 265000 1.1812 4.0353 5.4777 0.0000 -19948.1312 2944.6046 0.0000 0.0000 2403.0123 -14589.8201 242.1650 -16992.8324 -14585.3272 241.8575 163.1916 247.8862 49369.5156 2.7990 2.7332
ENERGY: 275000 2.2728 4.5463 2.7166 0.0000 -20037.6098 2990.6282 0.0000 0.0000 2396.7010 -14640.7449 241.5290 -17037.4459 -14637.8321 241.6723 418.4206 516.6200 48998.0323 2.8709 3.2620
TCL: Running 50000 steps at 270 kelvin.
TCL: Setting parameter langevinTemp to 270
TCL: Running for 50000 steps
ETITLE: TS BOND ANGLE DIHED IMPRP ELECT VDW BOUNDARY MISC KINETIC TOTAL TEMP POTENTIAL TOTAL3 TEMPAVG PRESSURE GPRESSURE VOLUME PRESSAVG GPRESSAVG
ENERGY: 275000 2.2728 4.5463 2.7166 0.0000 -20037.6098 2990.6282 0.0000 0.0000 2395.5168 -14641.9291 241.4096 -17037.4459 -14637.8587 241.4096 426.4607 516.6653 48998.0323 426.4607 516.6653
ENERGY: 285000 0.9996 8.5449 2.0839 0.0000 -19095.3515 2726.8419 0.0000 0.0000 2692.2692 -13664.6120 271.3150 -16356.8813 -13661.7916 269.4678 124.1566 184.2544 50332.3111 6.9987 6.5293
ENERGY: 295000 3.3822 7.3235 5.0442 0.0000 -18952.3486 2673.3599 0.0000 0.0000 2671.4246 -13591.8142 269.2144 -16263.2388 -13588.2779 270.2250 -116.8161 68.6591 50844.9328 -1.1104 -1.1146
ENERGY: 305000 3.6885 5.1586 3.1030 0.0000 -19054.0952 2704.8045 0.0000 0.0000 2693.0144 -13644.3262 271.3901 -16337.3406 -13641.0734 270.8059 187.0952 261.2149 50222.8407 3.5124 3.7342
ENERGY: 315000 3.1616 6.6669 2.1496 0.0000 -18929.2266 2614.5302 0.0000 0.0000 2607.1043 -13695.6140 262.7325 -16302.7183 -13690.0182 269.3994 -531.5619 -448.9464 50842.7242 2.8516 3.3290
ENERGY: 325000 2.9593 4.1545 1.7888 0.0000 -19133.3837 2733.5882 0.0000 0.0000 2669.1808 -13721.7122 268.9883 -16390.8930 -13716.7728 271.3532 219.2138 303.9730 50199.8188 -0.3704 -0.1657
TCL: Running 1000000 steps at 300 kelvin.
TCL: Setting parameter langevinTemp to 300
TCL: Running for 1000000 steps
ETITLE: TS BOND ANGLE DIHED IMPRP ELECT VDW BOUNDARY MISC KINETIC TOTAL TEMP POTENTIAL TOTAL3 TEMPAVG PRESSURE GPRESSURE VOLUME PRESSAVG GPRESSAVG
ENERGY: 325000 2.9593 4.1545 1.7888 0.0000 -19133.3837 2733.5882 0.0000 0.0000 2667.8221 -13723.0709 268.8513 -16390.8930 -13719.2647 268.8513 218.7227 304.3617 50199.8188 218.7227 304.3617
ENERGY: 525000 2.4220 6.9934 6.0664 0.0000 -18025.2009 2398.9029 0.0000 0.0000 2972.6122 -12638.2040 299.5667 -15610.8163 -12629.2804 298.4982 -113.0862 -2.2300 51171.1404 3.8316 3.1974
ENERGY: 725000 3.9983 7.1278 5.5661 0.0000 -17908.9030 2302.3827 0.0000 0.0000 2948.3647 -12641.4635 297.1232 -15589.8281 -12637.0975 300.3851 -704.4236 -614.9496 51940.5433 2.6873 2.0392
ENERGY: 925000 2.6567 6.0266 4.4275 0.0000 -18094.1975 2462.6671 0.0000 0.0000 2968.0558 -12650.3639 299.1076 -15618.4197 -12643.4426 300.1256 210.6311 310.7994 50977.9070 -1.2754 -1.1490
ENERGY: 1125000 2.2545 8.6824 2.7629 0.0000 -18131.1083 2454.7554 0.0000 0.0000 2990.2989 -12672.3542 301.3491 -15662.6532 -12666.0047 300.7756 246.8339 276.3616 50861.7457 1.7574 2.0733
ENERGY: 1325000 2.8421 10.8270 3.5662 0.0000 -18036.8668 2400.7433 0.0000 0.0000 2935.8151 -12683.0731 295.8585 -15618.8882 -12675.5683 301.0083 19.8058 84.8201 51188.9015 0.6910 1.3191
TCL: Exiting due to exit command.
