Info: SIMULATION PARAMETERS:
Info: TIMESTEP               2
Info: NUMBER OF STEPS        0
Info: STEPS PER CYCLE        10
Info: PERIODIC CELL BASIS 1  30.2244 0 0
Info: PERIODIC CELL BASIS 2  0 31.2883 0
Info: PERIODIC CELL BASIS 3  0 0 31.9845
Info: PERIODIC CELL CENTER   0 0 0
Info: WRAPPING WATERS AROUND PERIODIC BOUNDARIES ON OUTPUT.
Info: WRAPPING ALL CLUSTERS AROUND PERIODIC BOUNDARIES ON OUTPUT.
Info: FIRST LDB TIMESTEP     50
Info: LAST LDB TIMESTEP     -1
Info: HOM BACKGROUND SCALING 1
Info: PME BACKGROUND SCALING 1
Info: MIN ATOMS PER PATCH    40
Info: EMPTY PATCH LOAD       40 ATOMS
Info: VELOCITY FILE          mobley_337666_equil.vel
Info: CENTER OF MASS MOVING INITIALLY? NO
Info: DIELECTRIC             1
Info: EXCLUDE                SCALED ONE-FOUR
Info: 1-4 ELECTROSTATICS SCALED BY 0.833333
Info: MODIFIED 1-4 VDW PARAMETERS WILL BE USED
Info: DCD FILENAME           mobley_337666_prod.dcd
Info: DCD FREQUENCY          100000
Info: DCD FIRST STEP         100000
Info: DCD FILE WILL CONTAIN UNIT CELL DATA
Info: XST FILENAME           mobley_337666_prod.xst
Info: XST FREQUENCY          100000
Info: NO VELOCITY DCD OUTPUT
Info: NO FORCE DCD OUTPUT
Info: OUTPUT FILENAME        mobley_337666_prod
Info: BINARY OUTPUT FILES WILL BE USED
Info: RESTART FILENAME       mobley_337666_prod.restart
Info: RESTART FREQUENCY      100000
Info: BINARY RESTART FILES WILL BE USED
Info: CUTOFF                 9
Info: PAIRLIST DISTANCE      11
Info: PAIRLIST SHRINK RATE   0.01
Info: PAIRLIST GROW RATE     0.01
Info: PAIRLIST TRIGGER       0.3
Info: PAIRLISTS PER CYCLE    2
Info: PAIRLISTS ENABLED
Info: MARGIN                 2
Info: HYDROGEN GROUP CUTOFF  2.5
Info: PATCH DIMENSION        15.5
Info: ENERGY OUTPUT STEPS    100000
Info: ENERGY EVALUATION STEPS    100000
Info: OUTPUT ENERGY PRECISION 4
Info: CROSSTERM ENERGY INCLUDED IN DIHEDRAL
Info: TIMING OUTPUT STEPS    1000000
Info: PRESSURE OUTPUT STEPS  100000
Info: FIXED ATOMS ACTIVE
Info: ALCHEMICAL FEP ON
Info: FEP CURRENT LAMBDA VALUE     1
Info: FEP COMPARISON LAMBDA VALUE  0.95
Info: FEP INTRA-ALCHEMICAL NON-BONDED INTERACTIONS WILL BE RETAINED
Info: FEP INTRA-ALCHEMICAL BONDED INTERACTIONS WILL BE RETAINED
Info: FEP VDW SHIFTING COEFFICIENT 5
Info: FEP ELEC. ACTIVE FOR ANNIHILATED PARTICLES BETWEEN LAMBDA = 0 AND LAMBDA = 0.5
Info: FEP ELEC. ACTIVE FOR EXNIHILATED PARTICLES BETWEEN LAMBDA = 0.5 AND LAMBDA = 1
Info: FEP VDW ACTIVE FOR ANNIHILATED PARTICLES BETWEEN LAMBDA = 0 AND LAMBDA = 1
Info: FEP VDW ACTIVE FOR EXNIHILATED PARTICLES BETWEEN LAMBDA = 0 AND LAMBDA = 1
Info: FEP BOND ACTIVE FOR ANNIHILATED PARTICLES BETWEEN LAMBDA = 1 AND LAMBDA = 1
Info: FEP BOND ACTIVE FOR EXNIHILATED PARTICLES BETWEEN LAMBDA = 0 AND LAMBDA = 0
Info: LANGEVIN DYNAMICS ACTIVE
Info: LANGEVIN TEMPERATURE   300
Info: LANGEVIN USING BBK INTEGRATOR
Info: LANGEVIN DAMPING COEFFICIENT IS 1 INVERSE PS
Info: LANGEVIN DYNAMICS APPLIED TO HYDROGENS
Info: LANGEVIN PISTON PRESSURE CONTROL ACTIVE
Info:        TARGET PRESSURE IS 1.01325 BAR
Info:     OSCILLATION PERIOD IS 50 FS
Info:             DECAY TIME IS 25 FS
Info:     PISTON TEMPERATURE IS 300 K
Info:       PRESSURE CONTROL IS GROUP-BASED
Info:    INITIAL STRAIN RATE IS -2.05751e-05 -2.05751e-05 -2.05751e-05
Info:       CELL FLUCTUATION IS ISOTROPIC
Info: PARTICLE MESH EWALD (PME) ACTIVE
Info: PME TOLERANCE               1e-06
Info: PME EWALD COEFFICIENT       0.348832
Info: PME INTERPOLATION ORDER     4
Info: PME GRID DIMENSIONS         32 32 32
Info: PME MAXIMUM GRID SPACING    1
Info: FULL ELECTROSTATIC EVALUATION FREQUENCY      2
Info: USING VERLET I (r-RESPA) MTS SCHEME.
Info: C1 SPLITTING OF LONG RANGE ELECTROSTATICS
Info: PLACING ATOMS IN PATCHES BY HYDROGEN GROUPS
Info: RIGID BONDS TO HYDROGEN : ALL
Info:         ERROR TOLERANCE : 1e-08
Info:          MAX ITERATIONS : 100
Info: RIGID WATER USING SETTLE ALGORITHM
Info: RANDOM NUMBER SEED     1742183607
Info: USE HYDROGEN BONDS?    NO
Info: Using AMBER format force field!
Info: AMBER PARM FILE        mobley_337666.prmtop
Info: COORDINATE PDB         mobley_337666.pdb
Info: Exclusions will be read from PARM file!
Info: SCNB (VDW SCALING)     2
Info: USING ARITHMETIC MEAN TO COMBINE L-J SIGMA PARAMETERS
Info: BINARY COORDINATES     mobley_337666_equil.coor
Info: MIXED PRECISION AVX-512 TILES OPTIMIZATIONS: DISABLED
Info: SUMMARY OF PARAMETERS:
Info: 10 BONDS
Info: 14 ANGLES
Info:   14 HARMONIC
Info:   0 COSINE-BASED
Info: 7 DIHEDRAL
Info: 0 IMPROPER
Info: 0 CROSSTERM
Info: 0 VDW
Info: 36 VDW_PAIRS
Info: 0 NBTHOLE_PAIRS
Info: To read alchdata from file: mobley_337666.pdb
Info: To read alchflag data from column: 5
Info: STRUCTURE SUMMARY:
Info: 2958 ATOMS
Info: 2958 BONDS
Info: 18 ANGLES
Info: 31 DIHEDRALS
Info: 0 IMPROPERS
Info: 0 CROSSTERMS
Info: 2997 EXCLUSIONS
Info: 12 FIXED ATOMS
Info: 2949 RIGID BONDS
Info: 3 RIGID BONDS BETWEEN FIXED ATOMS
Info: ALCH: 0 ATOMS TO DISAPPEAR IN FINAL STATE
Info: ALCH: 12 ATOMS TO APPEAR IN FINAL STATE
Info: 5892 DEGREES OF FREEDOM
Info: 991 HYDROGEN GROUPS
Info: 3 ATOMS IN LARGEST HYDROGEN GROUP
Info: 991 MIGRATION GROUPS
Info: 3 ATOMS IN LARGEST MIGRATION GROUP
Info: 9 HYDROGEN GROUPS WITH ALL ATOMS FIXED
Info: TOTAL MASS = 17821.8 amu
Info: TOTAL CHARGE = -0.000200007 e
Info: MASS DENSITY = 0.978434 g/cm^3
Info: ATOM DENSITY = 0.0977956 atoms/A^3
Info: ADDED 0 IMPLICIT EXCLUSIONS
Info: NONBONDED TABLE R-SQUARED SPACING: 0.0625
Info: NONBONDED TABLE SIZE: 705 POINTS
Info: REMOVING COM VELOCITY 0.0828372 0.0178542 -0.174334
TCL: Running for 1500000 steps
ETITLE: TS BOND ANGLE DIHED IMPRP ELECT VDW BOUNDARY MISC KINETIC TOTAL TEMP POTENTIAL TOTAL3 TEMPAVG PRESSURE GPRESSURE VOLUME PRESSAVG GPRESSAVG
ENERGY: 0 0.0000 0.0000 0.0000 0.0000 -10850.2946 1369.8233 0.0000 0.0000 1724.5829 -7755.8884 294.5857 -9480.4713 -7752.5715 294.5857 -447.0410 -367.0286 30246.7696 -447.0410 -367.0286
ENERGY: 300000 0.0000 0.0000 0.0000 0.0000 -10924.7952 1490.7022 0.0000 0.0000 1802.8502 -7631.2428 307.9550 -9434.0930 -7626.0101 300.6367 587.3913 645.8772 30374.8190 4.0399 4.1044
ENERGY: 600000 0.0000 0.0000 0.0000 0.0000 -10989.2056 1446.1404 0.0000 0.0000 1818.1983 -7724.8668 310.5767 -9543.0652 -7723.0942 300.0528 -47.9104 22.7284 30188.7804 2.6581 2.7644
ENERGY: 900000 0.0000 0.0000 0.0000 0.0000 -10999.9526 1461.3985 0.0000 0.0000 1771.2418 -7767.3124 302.5558 -9538.5541 -7764.4349 300.5992 24.5450 170.5684 30125.3610 4.2008 4.2894
ENERGY: 1200000 0.0000 0.0000 0.0000 0.0000 -10933.7582 1485.0228 0.0000 0.0000 1762.9594 -7685.7761 301.1410 -9448.7354 -7684.4234 300.2243 223.5671 350.5693 30554.9562 2.5226 2.6242
ENERGY: 1500000 0.0000 0.0000 0.0000 0.0000 -10856.8826 1447.1540 0.0000 0.0000 1819.7416 -7589.9869 310.8403 -9409.7285 -7585.2968 300.3730 60.3371 168.2861 31190.1209 4.4509 4.3097
TCL: Running FEP window   2: Lambda1 0.95   Lambda2 0.8999999999999999 [dLambda -0.050000000000000044]
TCL: Setting parameter firsttimestep to 0
TCL: Setting parameter alchLambda to 0.95
Info: NONBONDED TABLE R-SQUARED SPACING: 0.0625
Info: NONBONDED TABLE SIZE: 705 POINTS
TCL: Setting parameter alchLambda2 to 0.8999999999999999
Info: NONBONDED TABLE R-SQUARED SPACING: 0.0625
Info: NONBONDED TABLE SIZE: 705 POINTS
TCL: Running for 1500000 steps
ETITLE: TS BOND ANGLE DIHED IMPRP ELECT VDW BOUNDARY MISC KINETIC TOTAL TEMP POTENTIAL TOTAL3 TEMPAVG PRESSURE GPRESSURE VOLUME PRESSAVG GPRESSAVG
ENERGY: 0 0.0000 0.0000 0.0000 0.0000 -10853.5199 1445.3979 0.0000 0.0000 1818.8358 -7589.2862 310.6856 -9408.1220 -7586.6493 310.6856 40.9462 126.4918 31190.1209 40.9462 126.4918
ENERGY: 300000 0.0000 0.0000 0.0000 0.0000 -10911.3310 1482.0018 0.0000 0.0000 1726.5266 -7702.8026 294.9178 -9429.3293 -7703.3982 300.3683 503.0846 602.4411 30167.7713 2.0273 2.1971
ENERGY: 600000 0.0000 0.0000 0.0000 0.0000 -10993.0909 1475.2606 0.0000 0.0000 1720.0586 -7797.7717 293.8129 -9517.8303 -7795.0788 300.1699 78.2415 111.8536 30403.8813 4.4403 4.1186
ENERGY: 900000 0.0000 0.0000 0.0000 0.0000 -10879.6553 1422.3828 0.0000 0.0000 1775.1285 -7682.1440 303.2197 -9457.2725 -7678.9439 301.0161 157.7589 251.3739 29965.5520 3.9546 3.8724
ENERGY: 1200000 0.0000 0.0000 0.0000 0.0000 -11054.6171 1547.6683 0.0000 0.0000 1767.4820 -7739.4668 301.9136 -9506.9488 -7736.0216 300.2483 498.6174 585.9640 30875.5525 4.1374 3.9805
ENERGY: 1500000 0.0000 0.0000 0.0000 0.0000 -10886.0084 1455.8740 0.0000 0.0000 1747.1775 -7682.9570 298.4452 -9430.1344 -7680.0140 299.7056 166.8222 302.8581 30328.2028 2.3008 2.3335
TCL: Running FEP window   3: Lambda1 0.8999999999999999 Lambda2 0.8499999999999999 [dLambda -0.050000000000000044]
TCL: Setting parameter firsttimestep to 0
TCL: Setting parameter alchLambda to 0.8999999999999999
Info: NONBONDED TABLE R-SQUARED SPACING: 0.0625
Info: NONBONDED TABLE SIZE: 705 POINTS
TCL: Setting parameter alchLambda2 to 0.8499999999999999
Info: NONBONDED TABLE R-SQUARED SPACING: 0.0625
Info: NONBONDED TABLE SIZE: 705 POINTS
TCL: Running for 1500000 steps
ETITLE: TS BOND ANGLE DIHED IMPRP ELECT VDW BOUNDARY MISC KINETIC TOTAL TEMP POTENTIAL TOTAL3 TEMPAVG PRESSURE GPRESSURE VOLUME PRESSAVG GPRESSAVG
ENERGY: 0 0.0000 0.0000 0.0000 0.0000 -10882.9462 1455.1311 0.0000 0.0000 1746.2874 -7681.5277 298.2932 -9427.8151 -7678.9110 298.2932 192.9838 280.5927 30328.2028 192.9838 280.5927
ENERGY: 200000 0.0000 0.0000 0.0000 0.0000 -10835.7724 1368.7843 0.0000 0.0000 1698.1850 -7768.8030 290.0766 -9466.9880 -7764.5450 299.9492 -595.8869 -551.7758 30581.5168 4.2550 4.2840
ENERGY: 500000 0.0000 0.0000 0.0000 0.0000 -10877.9406 1372.5247 0.0000 0.0000 1690.5455 -7814.8704 288.7716 -9505.4159 -7810.2396 300.2681 -988.8588 -865.5645 31070.6951 3.0122 3.0801
ENERGY: 700000 0.0000 0.0000 0.0000 0.0000 -11008.3195 1509.7612 0.0000 0.0000 1763.3621 -7735.1962 301.2098 -9498.5583 -7731.3452 300.6046 451.9914 513.8603 30429.2776 2.3028 2.3754
ENERGY: 1000000 0.0000 0.0000 0.0000 0.0000 -10815.3138 1450.1840 0.0000 0.0000 1741.5723 -7623.5575 297.4878 -9365.1298 -7619.7419 300.2185 306.1152 324.3748 30735.0058 3.2249 3.1618
ENERGY: 1200000 0.0000 0.0000 0.0000 0.0000 -10903.7419 1445.0352 0.0000 0.0000 1741.9292 -7716.7775 297.5488 -9458.7067 -7714.5945 300.1992 39.1671 86.5649 30583.0699 3.0366 3.2493
