Info: SIMULATION PARAMETERS:
Info: TIMESTEP               2
Info: NUMBER OF STEPS        0
Info: STEPS PER CYCLE        10
Info: PERIODIC CELL BASIS 1  41.123 0 0
Info: PERIODIC CELL BASIS 2  0 39.115 0
Info: PERIODIC CELL BASIS 3  0 0 40.47
Info: PERIODIC CELL CENTER   0 0 0
Info: WRAPPING WATERS AROUND PERIODIC BOUNDARIES ON OUTPUT.
Info: WRAPPING ALL CLUSTERS AROUND PERIODIC BOUNDARIES ON OUTPUT.
Info: FIRST LDB TIMESTEP     50
Info: LAST LDB TIMESTEP     -1
Info: HOM BACKGROUND SCALING 1
Info: PME BACKGROUND SCALING 1
Info: MIN ATOMS PER PATCH    40
Info: EMPTY PATCH LOAD       40 ATOMS
Info: INITIAL TEMPERATURE    300
Info: CENTER OF MASS MOVING INITIALLY? NO
Info: DIELECTRIC             1
Info: EXCLUDE                SCALED ONE-FOUR
Info: 1-4 ELECTROSTATICS SCALED BY 0.833333
Info: MODIFIED 1-4 VDW PARAMETERS WILL BE USED
Info: DCD FILENAME           mobley_5977084_min.dcd
Info: DCD FREQUENCY          5000
Info: DCD FIRST STEP         5000
Info: DCD FILE WILL CONTAIN UNIT CELL DATA
Info: XST FILENAME           mobley_5977084_min.xst
Info: XST FREQUENCY          5000
Info: NO VELOCITY DCD OUTPUT
Info: NO FORCE DCD OUTPUT
Info: OUTPUT FILENAME        mobley_5977084_min
Info: BINARY OUTPUT FILES WILL BE USED
Info: RESTART FILENAME       mobley_5977084_min.restart
Info: RESTART FREQUENCY      5000
Info: BINARY RESTART FILES WILL BE USED
Info: CUTOFF                 9
Info: PAIRLIST DISTANCE      11
Info: PAIRLIST SHRINK RATE   0.01
Info: PAIRLIST GROW RATE     0.01
Info: PAIRLIST TRIGGER       0.3
Info: PAIRLISTS PER CYCLE    2
Info: PAIRLISTS ENABLED
Info: MARGIN                 8
Info: HYDROGEN GROUP CUTOFF  2.5
Info: PATCH DIMENSION        21.5
Info: ENERGY OUTPUT STEPS    5000
Info: ENERGY EVALUATION STEPS    5000
Info: OUTPUT ENERGY PRECISION 4
Info: CROSSTERM ENERGY INCLUDED IN DIHEDRAL
Info: TIMING OUTPUT STEPS    50000
Info: PRESSURE OUTPUT STEPS  5000
Info: LANGEVIN DYNAMICS ACTIVE
Info: LANGEVIN TEMPERATURE   300
Info: LANGEVIN USING BBK INTEGRATOR
Info: LANGEVIN DAMPING COEFFICIENT IS 1 INVERSE PS
Info: LANGEVIN DYNAMICS APPLIED TO HYDROGENS
Info: LANGEVIN PISTON PRESSURE CONTROL ACTIVE
Info:        TARGET PRESSURE IS 1.01325 BAR
Info:     OSCILLATION PERIOD IS 50 FS
Info:             DECAY TIME IS 25 FS
Info:     PISTON TEMPERATURE IS 300 K
Info:       PRESSURE CONTROL IS GROUP-BASED
Info:    INITIAL STRAIN RATE IS 0 0 0
Info:       CELL FLUCTUATION IS ISOTROPIC
Info: PARTICLE MESH EWALD (PME) ACTIVE
Info: PME TOLERANCE               1e-06
Info: PME EWALD COEFFICIENT       0.348832
Info: PME INTERPOLATION ORDER     4
Info: PME GRID DIMENSIONS         44 40 44
Info: PME MAXIMUM GRID SPACING    1
Info: FULL ELECTROSTATIC EVALUATION FREQUENCY      2
Info: USING VERLET I (r-RESPA) MTS SCHEME.
Info: C1 SPLITTING OF LONG RANGE ELECTROSTATICS
Info: PLACING ATOMS IN PATCHES BY HYDROGEN GROUPS
Info: RIGID BONDS TO HYDROGEN : ALL
Info:         ERROR TOLERANCE : 1e-08
Info:          MAX ITERATIONS : 100
Info: RIGID WATER USING SETTLE ALGORITHM
Info: RANDOM NUMBER SEED     1741348565
Info: USE HYDROGEN BONDS?    NO
Info: Using AMBER format force field!
Info: AMBER PARM FILE        mobley_5977084.prmtop
Info: COORDINATE PDB         mobley_5977084.pdb
Info: Exclusions will be read from PARM file!
Info: SCNB (VDW SCALING)     2
Info: USING ARITHMETIC MEAN TO COMBINE L-J SIGMA PARAMETERS
Info: SUMMARY OF PARAMETERS:
Info: 8 BONDS
Info: 9 ANGLES
Info:   9 HARMONIC
Info:   0 COSINE-BASED
Info: 4 DIHEDRAL
Info: 0 IMPROPER
Info: 0 CROSSTERM
Info: 0 VDW
Info: 36 VDW_PAIRS
Info: 0 NBTHOLE_PAIRS
Info: STRUCTURE SUMMARY:
Info: 4685 ATOMS
Info: 4685 BONDS
Info: 22 ANGLES
Info: 29 DIHEDRALS
Info: 0 IMPROPERS
Info: 0 CROSSTERMS
Info: 4730 EXCLUSIONS
Info: 4678 RIGID BONDS
Info: 9377 DEGREES OF FREEDOM
Info: 1564 HYDROGEN GROUPS
Info: 4 ATOMS IN LARGEST HYDROGEN GROUP
Info: 1564 MIGRATION GROUPS
Info: 4 ATOMS IN LARGEST MIGRATION GROUP
Info: TOTAL MASS = 28144 amu
Info: TOTAL CHARGE = 0.000100007 e
Info: MASS DENSITY = 0.717934 g/cm^3
Info: ATOM DENSITY = 0.0719695 atoms/A^3
Info: ADDED 0 IMPLICIT EXCLUSIONS
Info: NONBONDED TABLE R-SQUARED SPACING: 0.0625
Info: NONBONDED TABLE SIZE: 705 POINTS
Info: REMOVING COM VELOCITY 0.00987676 -0.0753479 0.0441962
TCL: Minimizing for 2000 steps
ETITLE: TS BOND ANGLE DIHED IMPRP ELECT VDW BOUNDARY MISC KINETIC TOTAL TEMP POTENTIAL TOTAL3 TEMPAVG PRESSURE GPRESSURE VOLUME PRESSAVG GPRESSAVG
ENERGY: 0 0.4928 0.3826 0.0002 0.0000 -14578.3803 1663.4235 0.0000 0.0000 0.0000 -12914.0811 0.0000 -12914.0811 -12914.0811 0.0000 11117.3343 -15613.7617 65097.0531 11117.3343 -15613.7617
ENERGY: 400 2.4800 2.0899 0.0475 0.0000 -19598.1224 2908.4749 0.0000 0.0000 0.0000 -16685.0301 0.0000 -16685.0301 -16685.0301 0.0000 15985.2757 16115.5199 65097.0531 15985.2757 16115.5199
ENERGY: 800 1.3299 0.8706 0.2871 0.0000 -20629.0538 3387.1145 0.0000 0.0000 0.0000 -17239.4517 0.0000 -17239.4517 -17239.4517 0.0000 18274.8072 18413.7710 65097.0531 18274.8072 18413.7710
ENERGY: 1200 0.6398 0.4886 0.0066 0.0000 -21052.0726 3534.5032 0.0000 0.0000 0.0000 -17516.4344 0.0000 -17516.4344 -17516.4344 0.0000 19027.5665 19152.2493 65097.0531 19027.5665 19152.2493
ENERGY: 1600 0.2938 0.2282 0.0955 0.0000 -21283.8193 3644.5537 0.0000 0.0000 0.0000 -17638.6481 0.0000 -17638.6481 -17638.6481 0.0000 19608.9483 19719.0564 65097.0531 19608.9483 19719.0564
ENERGY: 2000 0.4923 0.2605 0.0393 0.0000 -21398.8421 3692.9165 0.0000 0.0000 0.0000 -17705.1335 0.0000 -17705.1335 -17705.1335 0.0000 19869.8147 19965.5635 65097.0531 19869.8147 19965.5635
TCL: Exiting due to exit command.
Info: NAMD 3.0.1 for Linux-x86_64-multicore
Info: Please visit http://www.ks.uiuc.edu/Research/namd/
Info: for updates, documentation, and support information.
Info: Please cite Phillips et al., J. Chem. Phys. 153:044130 (2020) doi:10.1063/5.0014475
Info: in all publications reporting results obtained with NAMD.
Info: Based on Charm++/Converse 80000 for multicore-linux-x86_64-gcc
Info: Built Mon Oct 14 11:11:06 CDT 2024 by dhardy on athine.ks.uiuc.edu
Info: 1 NAMD  3.0.1  Linux-x86_64-multicore  16    k013  z5358697
Info: Running on 16 processors, 1 nodes, 1 physical nodes.
Info: CPU topology information available.
Info: Charm++/Converse parallel runtime startup completed at 0.00847205 s
Info: 1043.45 MB of memory in use based on /proc/self/stat
Info: Configuration file is mobley_5977084_equil.namd
Info: Working in the current directory /srv/scratch/z5358697/prod_prep_7/5977084
TCL: Running 25000 steps at 30 kelvin.
TCL: Suspending until startup complete.
Info: SIMULATION PARAMETERS:
Info: TIMESTEP               2
Info: NUMBER OF STEPS        0
Info: STEPS PER CYCLE        10
Info: PERIODIC CELL BASIS 1  41.123 0 0
Info: PERIODIC CELL BASIS 2  0 39.115 0
Info: PERIODIC CELL BASIS 3  0 0 40.47
Info: PERIODIC CELL CENTER   0 0 0
Info: WRAPPING WATERS AROUND PERIODIC BOUNDARIES ON OUTPUT.
Info: WRAPPING ALL CLUSTERS AROUND PERIODIC BOUNDARIES ON OUTPUT.
Info: FIRST LDB TIMESTEP     50
Info: LAST LDB TIMESTEP     -1
Info: HOM BACKGROUND SCALING 1
Info: PME BACKGROUND SCALING 1
Info: MIN ATOMS PER PATCH    40
Info: EMPTY PATCH LOAD       40 ATOMS
Info: INITIAL TEMPERATURE    300
Info: CENTER OF MASS MOVING INITIALLY? NO
Info: DIELECTRIC             1
Info: EXCLUDE                SCALED ONE-FOUR
Info: 1-4 ELECTROSTATICS SCALED BY 0.833333
Info: MODIFIED 1-4 VDW PARAMETERS WILL BE USED
Info: DCD FILENAME           mobley_5977084_equil.dcd
Info: DCD FREQUENCY          5000
Info: DCD FIRST STEP         5000
Info: DCD FILE WILL CONTAIN UNIT CELL DATA
Info: XST FILENAME           mobley_5977084_equil.xst
Info: XST FREQUENCY          5000
Info: NO VELOCITY DCD OUTPUT
Info: NO FORCE DCD OUTPUT
Info: OUTPUT FILENAME        mobley_5977084_equil
Info: BINARY OUTPUT FILES WILL BE USED
Info: RESTART FILENAME       mobley_5977084_equil.restart
Info: RESTART FREQUENCY      5000
Info: BINARY RESTART FILES WILL BE USED
Info: CUTOFF                 9
Info: PAIRLIST DISTANCE      11
Info: PAIRLIST SHRINK RATE   0.01
Info: PAIRLIST GROW RATE     0.01
Info: PAIRLIST TRIGGER       0.3
Info: PAIRLISTS PER CYCLE    2
Info: PAIRLISTS ENABLED
Info: MARGIN                 8
Info: HYDROGEN GROUP CUTOFF  2.5
Info: PATCH DIMENSION        21.5
Info: ENERGY OUTPUT STEPS    5000
Info: ENERGY EVALUATION STEPS    5000
Info: OUTPUT ENERGY PRECISION 4
Info: CROSSTERM ENERGY INCLUDED IN DIHEDRAL
Info: TIMING OUTPUT STEPS    50000
Info: PRESSURE OUTPUT STEPS  5000
Info: LANGEVIN DYNAMICS ACTIVE
Info: LANGEVIN TEMPERATURE   30
Info: LANGEVIN USING BBK INTEGRATOR
Info: LANGEVIN DAMPING COEFFICIENT IS 1 INVERSE PS
Info: LANGEVIN DYNAMICS APPLIED TO HYDROGENS
Info: LANGEVIN PISTON PRESSURE CONTROL ACTIVE
Info:        TARGET PRESSURE IS 1.01325 BAR
Info:     OSCILLATION PERIOD IS 50 FS
Info:             DECAY TIME IS 25 FS
Info:     PISTON TEMPERATURE IS 300 K
Info:       PRESSURE CONTROL IS GROUP-BASED
Info:    INITIAL STRAIN RATE IS 0 0 0
Info:       CELL FLUCTUATION IS ISOTROPIC
Info: PARTICLE MESH EWALD (PME) ACTIVE
Info: PME TOLERANCE               1e-06
Info: PME EWALD COEFFICIENT       0.348832
Info: PME INTERPOLATION ORDER     4
Info: PME GRID DIMENSIONS         44 40 44
Info: PME MAXIMUM GRID SPACING    1
Info: FULL ELECTROSTATIC EVALUATION FREQUENCY      2
Info: USING VERLET I (r-RESPA) MTS SCHEME.
Info: C1 SPLITTING OF LONG RANGE ELECTROSTATICS
Info: PLACING ATOMS IN PATCHES BY HYDROGEN GROUPS
Info: RIGID BONDS TO HYDROGEN : ALL
Info:         ERROR TOLERANCE : 1e-08
Info:          MAX ITERATIONS : 100
Info: RIGID WATER USING SETTLE ALGORITHM
Info: RANDOM NUMBER SEED     1741348581
Info: USE HYDROGEN BONDS?    NO
Info: Using AMBER format force field!
Info: AMBER PARM FILE        mobley_5977084.prmtop
Info: COORDINATE PDB         mobley_5977084.pdb
Info: Exclusions will be read from PARM file!
Info: SCNB (VDW SCALING)     2
Info: USING ARITHMETIC MEAN TO COMBINE L-J SIGMA PARAMETERS
Info: BINARY COORDINATES     mobley_5977084_min.coor
Info: SUMMARY OF PARAMETERS:
Info: 8 BONDS
Info: 9 ANGLES
Info:   9 HARMONIC
Info:   0 COSINE-BASED
Info: 4 DIHEDRAL
Info: 0 IMPROPER
Info: 0 CROSSTERM
Info: 0 VDW
Info: 36 VDW_PAIRS
Info: 0 NBTHOLE_PAIRS
Info: STRUCTURE SUMMARY:
Info: 4685 ATOMS
Info: 4685 BONDS
Info: 22 ANGLES
Info: 29 DIHEDRALS
Info: 0 IMPROPERS
Info: 0 CROSSTERMS
Info: 4730 EXCLUSIONS
Info: 4678 RIGID BONDS
Info: 9377 DEGREES OF FREEDOM
Info: 1564 HYDROGEN GROUPS
Info: 4 ATOMS IN LARGEST HYDROGEN GROUP
Info: 1564 MIGRATION GROUPS
Info: 4 ATOMS IN LARGEST MIGRATION GROUP
Info: TOTAL MASS = 28144 amu
Info: TOTAL CHARGE = 0.000100007 e
Info: MASS DENSITY = 0.717934 g/cm^3
Info: ATOM DENSITY = 0.0719695 atoms/A^3
Info: ADDED 0 IMPLICIT EXCLUSIONS
Info: NONBONDED TABLE R-SQUARED SPACING: 0.0625
Info: NONBONDED TABLE SIZE: 705 POINTS
Info: REMOVING COM VELOCITY 0.0886443 0.0493021 0.0446934
TCL: Running for 25000 steps
ETITLE: TS BOND ANGLE DIHED IMPRP ELECT VDW BOUNDARY MISC KINETIC TOTAL TEMP POTENTIAL TOTAL3 TEMPAVG PRESSURE GPRESSURE VOLUME PRESSAVG GPRESSAVG
ENERGY: 0 0.4923 0.2605 0.0393 0.0000 -21398.8421 3692.9165 0.0000 0.0000 2782.8384 -14922.2951 298.6857 -17705.1335 -14921.7546 298.6857 250.8937 287.4309 65097.0531 250.8937 287.4309
ENERGY: 5000 0.8150 0.3897 0.4583 0.0000 -22613.5133 3983.0202 0.0000 0.0000 284.4832 -18344.3469 30.5340 -18628.8301 -18343.8997 48.5611 244.4096 293.9825 46055.0684 3.8042 3.6542
ENERGY: 10000 0.3154 0.4881 0.3264 0.0000 -22705.6046 4048.5990 0.0000 0.0000 276.0646 -18379.8111 29.6304 -18655.8757 -18378.9058 30.5460 520.2651 570.1000 45995.2235 -0.6575 -0.8127
ENERGY: 15000 0.5951 0.6526 0.2213 0.0000 -22702.6004 4025.1333 0.0000 0.0000 279.6721 -18396.3259 30.0176 -18675.9980 -18395.7138 30.0073 359.2728 405.6830 46108.3270 -0.4742 -0.4815
ENERGY: 20000 0.9355 0.4252 0.3597 0.0000 -22578.4759 3892.7373 0.0000 0.0000 275.9543 -18408.0639 29.6185 -18684.0182 -18407.2454 29.8508 -393.8632 -317.7787 46226.3224 8.9098 9.0662
ENERGY: 25000 0.1814 0.3475 0.1562 0.0000 -22726.4278 4033.2305 0.0000 0.0000 279.0759 -18413.4363 29.9536 -18692.5122 -18412.9217 29.9995 385.9476 448.0956 46008.6081 1.0592 1.1404
TCL: Running 25000 steps at 60 kelvin.
TCL: Setting parameter langevinTemp to 60
TCL: Running for 25000 steps
ETITLE: TS BOND ANGLE DIHED IMPRP ELECT VDW BOUNDARY MISC KINETIC TOTAL TEMP POTENTIAL TOTAL3 TEMPAVG PRESSURE GPRESSURE VOLUME PRESSAVG GPRESSAVG
ENERGY: 25000 0.1814 0.3475 0.1562 0.0000 -22726.4278 4033.2305 0.0000 0.0000 278.9292 -18413.5829 29.9378 -18692.5122 -18413.0099 29.9378 391.2041 447.9882 46008.6081 391.2041 447.9882
ENERGY: 30000 0.8695 1.2622 0.3036 0.0000 -22238.1310 3825.3285 0.0000 0.0000 553.2146 -17857.1524 59.3773 -18410.3671 -17855.6318 56.6684 -53.0838 -30.2274 46452.7208 3.5065 3.5071
ENERGY: 35000 0.7118 1.1736 1.1426 0.0000 -22406.7186 3948.7313 0.0000 0.0000 561.2815 -17893.6779 60.2431 -18454.9594 -17891.8113 60.6116 603.1949 664.4844 45952.1982 6.8733 7.0277
ENERGY: 40000 0.2825 0.8300 0.7854 0.0000 -22279.4112 3804.9286 0.0000 0.0000 561.7139 -17910.8708 60.2895 -18472.5847 -17909.5533 60.2499 -190.4548 -136.5897 46237.5303 3.8802 3.9119
ENERGY: 45000 0.4161 0.6796 0.3053 0.0000 -22233.6004 3742.7182 0.0000 0.0000 564.7881 -17924.6931 60.6195 -18489.4812 -17923.3431 60.1673 -534.3016 -474.2516 46026.3439 4.3004 4.2254
ENERGY: 50000 1.1329 1.1871 0.7412 0.0000 -22364.3275 3841.8323 0.0000 0.0000 570.9141 -17948.5198 61.2770 -18519.4340 -17947.5798 60.3616 -116.5589 -72.6657 45923.7450 -0.7010 -0.4913
TCL: Running 25000 steps at 90 kelvin.
TCL: Setting parameter langevinTemp to 90
TCL: Running for 25000 steps
ETITLE: TS BOND ANGLE DIHED IMPRP ELECT VDW BOUNDARY MISC KINETIC TOTAL TEMP POTENTIAL TOTAL3 TEMPAVG PRESSURE GPRESSURE VOLUME PRESSAVG GPRESSAVG
ENERGY: 50000 1.1329 1.1871 0.7412 0.0000 -22364.3275 3841.8323 0.0000 0.0000 570.6429 -17948.7911 61.2479 -18519.4340 -17947.6301 61.2479 -126.0100 -72.8396 45923.7450 -126.0100 -72.8396
ENERGY: 55000 0.9751 1.7468 0.6916 0.0000 -22106.9321 3880.3260 0.0000 0.0000 866.7995 -17356.3930 93.0347 -18223.1925 -17354.7514 87.4360 871.7289 923.4515 45834.3410 4.9045 5.1612
ENERGY: 60000 1.1694 2.9141 0.8769 0.0000 -21911.1975 3676.0900 0.0000 0.0000 816.0066 -17414.1405 87.5831 -18230.1471 -17413.0796 90.5735 -359.7135 -287.7502 46196.7601 3.5850 3.1166
ENERGY: 65000 0.6385 1.0086 0.3895 0.0000 -22017.4258 3763.3737 0.0000 0.0000 837.5520 -17414.4634 89.8956 -18252.0154 -17412.7707 89.7437 214.6450 277.2746 45742.7033 2.8766 2.7501
ENERGY: 70000 1.0278 1.5512 1.6065 0.0000 -22080.9206 3786.8407 0.0000 0.0000 840.8089 -17449.0855 90.2451 -18289.8944 -17447.3455 90.5029 164.8193 211.6421 45832.3013 2.0048 2.2377
ENERGY: 75000 1.2648 1.1844 0.5973 0.0000 -22037.6599 3715.8816 0.0000 0.0000 828.8530 -17489.8788 88.9619 -18318.7318 -17487.8663 90.1154 -275.2632 -200.3738 45948.1084 4.4967 4.7381
TCL: Running 25000 steps at 120 kelvin.
TCL: Setting parameter langevinTemp to 120
TCL: Running for 25000 steps
ETITLE: TS BOND ANGLE DIHED IMPRP ELECT VDW BOUNDARY MISC KINETIC TOTAL TEMP POTENTIAL TOTAL3 TEMPAVG PRESSURE GPRESSURE VOLUME PRESSAVG GPRESSAVG
ENERGY: 75000 1.2648 1.1844 0.5973 0.0000 -22037.6599 3715.8816 0.0000 0.0000 828.4412 -17490.2906 88.9177 -18318.7318 -17488.3930 88.9177 -256.5080 -200.7392 45948.1084 -256.5080 -200.7392
ENERGY: 80000 1.2674 0.6392 1.9268 0.0000 -21633.4365 3629.6197 0.0000 0.0000 1121.1471 -16878.8363 120.3342 -17999.9834 -16876.0949 116.9241 -22.8686 24.8893 46299.3763 8.7554 8.4927
ENERGY: 85000 3.0309 1.2455 1.1310 0.0000 -21535.0644 3519.6355 0.0000 0.0000 1138.8791 -16871.1424 122.2374 -18010.0215 -16868.4472 120.1311 -557.6737 -491.3355 46136.8365 0.7736 0.9646
ENERGY: 90000 1.0707 1.2300 0.5483 0.0000 -21613.5462 3557.0934 0.0000 0.0000 1099.9686 -16953.6351 118.0611 -18053.6037 -16948.4391 121.1411 -329.0707 -314.1452 45703.0035 1.6407 1.9909
ENERGY: 95000 1.6911 0.6116 0.7158 0.0000 -21561.7368 3539.8497 0.0000 0.0000 1153.4152 -16865.4533 123.7976 -18018.8686 -16862.4624 119.9219 -300.6952 -230.4642 45699.9709 6.6380 6.3345
ENERGY: 100000 1.6251 1.8477 0.5202 0.0000 -21605.4326 3521.9121 0.0000 0.0000 1090.8051 -16988.7225 117.0775 -18079.5276 -16986.3609 120.8030 -604.0133 -502.6652 45589.6528 0.4310 0.6319
TCL: Running 25000 steps at 150 kelvin.
TCL: Setting parameter langevinTemp to 150
TCL: Running for 25000 steps
ETITLE: TS BOND ANGLE DIHED IMPRP ELECT VDW BOUNDARY MISC KINETIC TOTAL TEMP POTENTIAL TOTAL3 TEMPAVG PRESSURE GPRESSURE VOLUME PRESSAVG GPRESSAVG
ENERGY: 100000 1.6251 1.8477 0.5202 0.0000 -21605.4326 3521.9121 0.0000 0.0000 1090.2397 -16989.2879 117.0169 -18079.5276 -16987.0695 117.0169 -565.3423 -502.7606 45589.6528 -565.3423 -502.7606
ENERGY: 105000 1.3471 1.9409 1.1922 0.0000 -21440.4090 3633.4786 0.0000 0.0000 1390.4492 -16412.0010 149.2387 -17802.4502 -16408.0832 146.9848 558.9248 631.2837 45721.3790 -1.1198 -0.5767
ENERGY: 110000 2.5323 2.8667 2.3187 0.0000 -21188.0163 3441.1219 0.0000 0.0000 1378.6399 -16360.5368 147.9712 -17739.1767 -16357.9750 149.9646 -366.0225 -303.8860 45959.6741 1.7798 1.7408
ENERGY: 115000 2.0197 2.4966 0.8310 0.0000 -21325.0242 3530.8880 0.0000 0.0000 1376.5923 -16412.1965 147.7515 -17788.7888 -16409.1013 149.8450 55.7615 80.4507 45908.6551 2.8720 2.8561
ENERGY: 120000 1.5067 3.2267 0.3905 0.0000 -21235.5700 3429.2755 0.0000 0.0000 1404.1639 -16397.0067 150.7108 -17801.1707 -16394.0145 150.0408 -494.0420 -437.5848 45900.8077 1.8077 1.2013
ENERGY: 125000 0.8914 1.6393 1.6276 0.0000 -21424.0112 3622.3845 0.0000 0.0000 1409.1082 -16388.3602 151.2414 -17797.4684 -16384.5428 150.5240 492.7602 522.6809 45910.2617 2.3467 2.2936
TCL: Running 50000 steps at 180 kelvin.
TCL: Setting parameter langevinTemp to 180
TCL: Running for 50000 steps
ETITLE: TS BOND ANGLE DIHED IMPRP ELECT VDW BOUNDARY MISC KINETIC TOTAL TEMP POTENTIAL TOTAL3 TEMPAVG PRESSURE GPRESSURE VOLUME PRESSAVG GPRESSAVG
ENERGY: 125000 0.8914 1.6393 1.6276 0.0000 -21424.0112 3622.3845 0.0000 0.0000 1408.4264 -16389.0420 151.1683 -17797.4684 -16386.1109 151.1683 468.7151 523.2538 45910.2617 468.7151 523.2538
ENERGY: 135000 2.4568 1.5135 0.9369 0.0000 -20728.4600 3278.9654 0.0000 0.0000 1664.0802 -15780.5072 178.6079 -17444.5874 -15776.3119 180.3470 -550.1418 -479.1195 46222.1160 9.7598 10.3009
ENERGY: 145000 0.4281 1.5136 1.3787 0.0000 -20761.9457 3332.3398 0.0000 0.0000 1680.1704 -15746.1152 180.3349 -17426.2856 -15741.6236 179.8191 -67.4108 -11.9987 45820.5534 1.4747 1.7631
ENERGY: 155000 1.5404 2.2137 2.0414 0.0000 -20760.8670 3364.6091 0.0000 0.0000 1673.3315 -15717.1309 179.6009 -17390.4624 -15711.7312 181.2108 277.6772 291.5692 45466.4112 3.3649 3.3061
ENERGY: 165000 0.7532 3.9486 2.5834 0.0000 -20774.6031 3309.4290 0.0000 0.0000 1678.5307 -15779.3581 180.1589 -17457.8888 -15776.5544 181.4409 -418.0606 -325.3221 45910.5887 5.0103 4.7248
ENERGY: 175000 1.2113 3.5192 1.5102 0.0000 -20839.6229 3431.7410 0.0000 0.0000 1735.2805 -15666.3607 186.2499 -17401.6412 -15661.3320 181.1837 594.6540 684.1118 45231.4444 5.4763 5.3113
TCL: Running 50000 steps at 210 kelvin.
TCL: Setting parameter langevinTemp to 210
TCL: Running for 50000 steps
ETITLE: TS BOND ANGLE DIHED IMPRP ELECT VDW BOUNDARY MISC KINETIC TOTAL TEMP POTENTIAL TOTAL3 TEMPAVG PRESSURE GPRESSURE VOLUME PRESSAVG GPRESSAVG
ENERGY: 175000 1.2113 3.5192 1.5102 0.0000 -20839.6229 3431.7410 0.0000 0.0000 1734.4483 -15667.1928 186.1606 -17401.6412 -15663.8661 186.1606 611.3066 684.5576 45231.4444 611.3066 684.5576
ENERGY: 185000 2.4924 2.0772 0.7443 0.0000 -19906.0942 3085.1187 0.0000 0.0000 1939.6280 -14876.0335 208.1828 -16815.6615 -14872.4132 208.4058 305.0323 365.3159 45389.2033 3.4840 3.9505
ENERGY: 195000 1.7556 3.2693 2.3134 0.0000 -19941.5252 3112.7453 0.0000 0.0000 1968.9575 -14852.4840 211.3308 -16821.4415 -14847.6421 209.8338 431.7493 490.6658 45270.0591 -0.6238 -0.9132
ENERGY: 205000 1.5315 3.3709 1.6538 0.0000 -19982.7012 3143.7583 0.0000 0.0000 1988.9565 -14843.4302 213.4773 -16832.3867 -14839.4090 210.3209 522.5399 539.0988 45348.1149 2.4535 1.7828
ENERGY: 215000 2.2162 2.4376 2.6712 0.0000 -19631.9762 2903.9452 0.0000 0.0000 1921.9323 -14798.7737 206.2835 -16720.7059 -14793.3680 211.0487 -687.2038 -587.8873 45810.4057 1.1002 0.7097
ENERGY: 225000 1.3999 2.5573 0.9353 0.0000 -19726.8463 3034.1804 0.0000 0.0000 1959.7258 -14728.0475 210.3400 -16687.7733 -14724.3768 210.9182 103.5137 149.9962 45865.6934 3.0552 3.3026
TCL: Running 50000 steps at 240 kelvin.
TCL: Setting parameter langevinTemp to 240
TCL: Running for 50000 steps
ETITLE: TS BOND ANGLE DIHED IMPRP ELECT VDW BOUNDARY MISC KINETIC TOTAL TEMP POTENTIAL TOTAL3 TEMPAVG PRESSURE GPRESSURE VOLUME PRESSAVG GPRESSAVG
ENERGY: 225000 1.3999 2.5573 0.9353 0.0000 -19726.8463 3034.1804 0.0000 0.0000 1958.7404 -14729.0330 210.2342 -16687.7733 -14725.7101 210.2342 75.5242 150.3927 45865.6934 75.5242 150.3927
ENERGY: 235000 1.7267 5.2182 1.6289 0.0000 -18761.3066 2756.0178 0.0000 0.0000 2277.1215 -13719.5935 244.4065 -15996.7150 -13716.8292 239.5251 101.7478 174.0579 46267.3842 6.2753 6.2516
ENERGY: 245000 1.6274 2.5146 1.4353 0.0000 -18886.7020 2857.6481 0.0000 0.0000 2229.6554 -13793.8212 239.3119 -16023.4766 -13788.7196 239.7481 688.7951 777.5903 45867.2933 -2.0667 -2.2139
ENERGY: 255000 2.2918 2.8456 1.5728 0.0000 -18754.5779 2663.0038 0.0000 0.0000 2251.9194 -13832.9445 241.7015 -16084.8639 -13829.1091 237.6218 -405.3025 -311.6632 45889.0622 5.1922 5.2882
ENERGY: 265000 2.4582 2.7431 0.9760 0.0000 -18851.1899 2856.8838 0.0000 0.0000 2226.9785 -13761.1503 239.0245 -15988.1288 -13756.2745 239.9973 719.3618 790.1176 45712.8204 4.3326 4.2620
ENERGY: 275000 1.2066 3.9649 3.7915 0.0000 -18674.1172 2608.4819 0.0000 0.0000 2210.2926 -13846.3797 237.2336 -16056.6723 -13840.6976 240.3628 -843.3660 -738.8214 46351.3218 5.1970 4.4038
TCL: Running 50000 steps at 270 kelvin.
TCL: Setting parameter langevinTemp to 270
TCL: Running for 50000 steps
ETITLE: TS BOND ANGLE DIHED IMPRP ELECT VDW BOUNDARY MISC KINETIC TOTAL TEMP POTENTIAL TOTAL3 TEMPAVG PRESSURE GPRESSURE VOLUME PRESSAVG GPRESSAVG
ENERGY: 275000 1.2066 3.9649 3.7915 0.0000 -18674.1172 2608.4819 0.0000 0.0000 2209.1723 -13847.5000 237.1134 -16056.6723 -13842.8747 237.1134 -825.6457 -739.7887 46351.3218 -825.6457 -739.7887
ENERGY: 285000 4.4060 2.9029 1.6888 0.0000 -17839.9019 2440.1754 0.0000 0.0000 2526.7168 -12864.0121 271.1958 -15390.7289 -12859.7062 270.2696 -431.3716 -309.2712 46999.4345 4.1379 3.0985
ENERGY: 295000 3.2423 6.5488 2.5557 0.0000 -17894.9160 2421.7620 0.0000 0.0000 2496.4949 -12964.3123 267.9521 -15460.8072 -12958.2919 270.0775 -604.3195 -518.7920 47283.8716 2.0435 1.6794
ENERGY: 305000 3.3047 3.0799 1.8842 0.0000 -17822.7518 2522.7397 0.0000 0.0000 2491.0178 -12800.7255 267.3642 -15291.7433 -12794.9537 269.5799 96.2387 198.2491 47248.6069 1.0132 1.4524
ENERGY: 315000 1.4961 4.7207 4.1928 0.0000 -17989.2243 2548.1169 0.0000 0.0000 2479.7430 -12950.9548 266.1541 -15430.6978 -12945.9903 269.3421 324.7417 419.3455 46619.9841 5.2090 5.1437
ENERGY: 325000 2.5009 4.9397 1.9590 0.0000 -17785.5611 2445.1359 0.0000 0.0000 2579.3221 -12751.7033 276.8420 -15331.0254 -12747.0924 271.2364 -220.9047 -147.7406 47103.4874 1.4422 0.9430
TCL: Running 1000000 steps at 300 kelvin.
TCL: Setting parameter langevinTemp to 300
TCL: Running for 1000000 steps
ETITLE: TS BOND ANGLE DIHED IMPRP ELECT VDW BOUNDARY MISC KINETIC TOTAL TEMP POTENTIAL TOTAL3 TEMPAVG PRESSURE GPRESSURE VOLUME PRESSAVG GPRESSAVG
ENERGY: 325000 2.5009 4.9397 1.9590 0.0000 -17785.5611 2445.1359 0.0000 0.0000 2578.0737 -12752.9517 276.7081 -15331.0254 -12749.2228 276.7081 -229.6963 -147.6757 47103.4874 -229.6963 -147.6757
ENERGY: 525000 4.3681 3.2118 2.2611 0.0000 -17167.5446 2348.2312 0.0000 0.0000 2776.9832 -12032.4892 298.0573 -14809.4724 -12031.8068 298.7361 145.6873 263.0529 48078.3182 1.6539 1.4823
ENERGY: 725000 1.6640 2.2085 1.9325 0.0000 -17291.3016 2391.8167 0.0000 0.0000 2737.8736 -12155.8063 293.8596 -14893.6799 -12153.0164 299.4307 238.0220 344.1088 47738.9179 1.1954 1.1273
ENERGY: 925000 1.5811 4.5753 2.5602 0.0000 -17051.5143 2410.4191 0.0000 0.0000 2766.7107 -11865.6678 296.9547 -14632.3785 -11862.6931 299.8232 797.7161 847.2895 48068.4850 2.0481 2.3088
ENERGY: 1125000 0.5156 4.1286 3.7017 0.0000 -16934.1441 2267.9665 0.0000 0.0000 2869.8313 -11788.0004 308.0228 -14657.8316 -11784.2315 299.9750 -30.9180 88.3392 48393.7737 4.5291 4.1577
ENERGY: 1325000 4.4587 3.3084 1.3549 0.0000 -16891.8253 2165.5130 0.0000 0.0000 2754.1573 -11963.0329 295.6073 -14717.1902 -11957.3921 300.1091 -658.2215 -605.7902 48438.0454 1.3692 1.4167
TCL: Exiting due to exit command.
