Info: SIMULATION PARAMETERS:
Info: TIMESTEP               2
Info: NUMBER OF STEPS        0
Info: STEPS PER CYCLE        10
Info: PERIODIC CELL BASIS 1  39.546 0 0
Info: PERIODIC CELL BASIS 2  0 40.343 0
Info: PERIODIC CELL BASIS 3  0 0 40.862
Info: PERIODIC CELL CENTER   0 0 0
Info: WRAPPING WATERS AROUND PERIODIC BOUNDARIES ON OUTPUT.
Info: WRAPPING ALL CLUSTERS AROUND PERIODIC BOUNDARIES ON OUTPUT.
Info: FIRST LDB TIMESTEP     50
Info: LAST LDB TIMESTEP     -1
Info: HOM BACKGROUND SCALING 1
Info: PME BACKGROUND SCALING 1
Info: MIN ATOMS PER PATCH    40
Info: EMPTY PATCH LOAD       40 ATOMS
Info: INITIAL TEMPERATURE    300
Info: CENTER OF MASS MOVING INITIALLY? NO
Info: DIELECTRIC             1
Info: EXCLUDE                SCALED ONE-FOUR
Info: 1-4 ELECTROSTATICS SCALED BY 0.833333
Info: MODIFIED 1-4 VDW PARAMETERS WILL BE USED
Info: DCD FILENAME           mobley_4039055_min.dcd
Info: DCD FREQUENCY          5000
Info: DCD FIRST STEP         5000
Info: DCD FILE WILL CONTAIN UNIT CELL DATA
Info: XST FILENAME           mobley_4039055_min.xst
Info: XST FREQUENCY          5000
Info: NO VELOCITY DCD OUTPUT
Info: NO FORCE DCD OUTPUT
Info: OUTPUT FILENAME        mobley_4039055_min
Info: BINARY OUTPUT FILES WILL BE USED
Info: RESTART FILENAME       mobley_4039055_min.restart
Info: RESTART FREQUENCY      5000
Info: BINARY RESTART FILES WILL BE USED
Info: CUTOFF                 9
Info: PAIRLIST DISTANCE      11
Info: PAIRLIST SHRINK RATE   0.01
Info: PAIRLIST GROW RATE     0.01
Info: PAIRLIST TRIGGER       0.3
Info: PAIRLISTS PER CYCLE    2
Info: PAIRLISTS ENABLED
Info: MARGIN                 8
Info: HYDROGEN GROUP CUTOFF  2.5
Info: PATCH DIMENSION        21.5
Info: ENERGY OUTPUT STEPS    5000
Info: ENERGY EVALUATION STEPS    5000
Info: OUTPUT ENERGY PRECISION 4
Info: CROSSTERM ENERGY INCLUDED IN DIHEDRAL
Info: TIMING OUTPUT STEPS    50000
Info: PRESSURE OUTPUT STEPS  5000
Info: LANGEVIN DYNAMICS ACTIVE
Info: LANGEVIN TEMPERATURE   300
Info: LANGEVIN USING BBK INTEGRATOR
Info: LANGEVIN DAMPING COEFFICIENT IS 1 INVERSE PS
Info: LANGEVIN DYNAMICS APPLIED TO HYDROGENS
Info: LANGEVIN PISTON PRESSURE CONTROL ACTIVE
Info:        TARGET PRESSURE IS 1.01325 BAR
Info:     OSCILLATION PERIOD IS 50 FS
Info:             DECAY TIME IS 25 FS
Info:     PISTON TEMPERATURE IS 300 K
Info:       PRESSURE CONTROL IS GROUP-BASED
Info:    INITIAL STRAIN RATE IS 0 0 0
Info:       CELL FLUCTUATION IS ISOTROPIC
Info: PARTICLE MESH EWALD (PME) ACTIVE
Info: PME TOLERANCE               1e-06
Info: PME EWALD COEFFICIENT       0.348832
Info: PME INTERPOLATION ORDER     4
Info: PME GRID DIMENSIONS         40 44 44
Info: PME MAXIMUM GRID SPACING    1
Info: FULL ELECTROSTATIC EVALUATION FREQUENCY      2
Info: USING VERLET I (r-RESPA) MTS SCHEME.
Info: C1 SPLITTING OF LONG RANGE ELECTROSTATICS
Info: PLACING ATOMS IN PATCHES BY HYDROGEN GROUPS
Info: RIGID BONDS TO HYDROGEN : ALL
Info:         ERROR TOLERANCE : 1e-08
Info:          MAX ITERATIONS : 100
Info: RIGID WATER USING SETTLE ALGORITHM
Info: RANDOM NUMBER SEED     1741332854
Info: USE HYDROGEN BONDS?    NO
Info: Using AMBER format force field!
Info: AMBER PARM FILE        mobley_4039055.prmtop
Info: COORDINATE PDB         mobley_4039055.pdb
Info: Exclusions will be read from PARM file!
Info: SCNB (VDW SCALING)     2
Info: USING ARITHMETIC MEAN TO COMBINE L-J SIGMA PARAMETERS
Info: SUMMARY OF PARAMETERS:
Info: 10 BONDS
Info: 14 ANGLES
Info:   14 HARMONIC
Info:   0 COSINE-BASED
Info: 7 DIHEDRAL
Info: 0 IMPROPER
Info: 0 CROSSTERM
Info: 0 VDW
Info: 36 VDW_PAIRS
Info: 0 NBTHOLE_PAIRS
Info: STRUCTURE SUMMARY:
Info: 4773 ATOMS
Info: 4773 BONDS
Info: 18 ANGLES
Info: 31 DIHEDRALS
Info: 0 IMPROPERS
Info: 0 CROSSTERMS
Info: 4812 EXCLUSIONS
Info: 4764 RIGID BONDS
Info: 9555 DEGREES OF FREEDOM
Info: 1596 HYDROGEN GROUPS
Info: 3 ATOMS IN LARGEST HYDROGEN GROUP
Info: 1596 MIGRATION GROUPS
Info: 3 ATOMS IN LARGEST MIGRATION GROUP
Info: TOTAL MASS = 28782.4 amu
Info: TOTAL CHARGE = 4.19095e-08 e
Info: MASS DENSITY = 0.733155 g/cm^3
Info: ATOM DENSITY = 0.0732152 atoms/A^3
Info: ADDED 0 IMPLICIT EXCLUSIONS
Info: NONBONDED TABLE R-SQUARED SPACING: 0.0625
Info: NONBONDED TABLE SIZE: 705 POINTS
Info: REMOVING COM VELOCITY 3.6177e-06 0.0349484 -0.0492287
TCL: Minimizing for 2000 steps
ETITLE: TS BOND ANGLE DIHED IMPRP ELECT VDW BOUNDARY MISC KINETIC TOTAL TEMP POTENTIAL TOTAL3 TEMPAVG PRESSURE GPRESSURE VOLUME PRESSAVG GPRESSAVG
ENERGY: 0 0.9168 1.1130 12.0002 0.0000 -15192.0028 1732.7981 0.0000 0.0000 0.0000 -13445.1747 0.0000 -13445.1747 -13445.1747 0.0000 11448.2983 -16076.1654 65191.4096 11448.2983 -16076.1654
ENERGY: 400 11.9317 10.5626 15.5716 0.0000 -20228.5468 2975.4508 0.0000 0.0000 0.0000 -17215.0302 0.0000 -17215.0302 -17215.0302 0.0000 16363.1119 16459.2105 65191.4096 16363.1119 16459.2105
ENERGY: 800 1.7419 1.2427 12.1363 0.0000 -21179.3946 3405.6662 0.0000 0.0000 0.0000 -17758.6075 0.0000 -17758.6075 -17758.6075 0.0000 18394.8334 18467.7846 65191.4096 18394.8334 18467.7846
ENERGY: 1200 22.3078 7.0962 12.1250 0.0000 -21570.2701 3569.1122 0.0000 0.0000 0.0000 -17959.6288 0.0000 -17959.6288 -17959.6288 0.0000 19218.5569 19291.2219 65191.4096 19218.5569 19291.2219
ENERGY: 1600 0.8848 1.1501 12.2806 0.0000 -21803.6552 3664.8864 0.0000 0.0000 0.0000 -18124.4534 0.0000 -18124.4534 -18124.4534 0.0000 19716.6683 19790.2403 65191.4096 19716.6683 19790.2403
ENERGY: 2000 1.0479 1.1563 12.3895 0.0000 -21994.4066 3757.9674 0.0000 0.0000 0.0000 -18221.8454 0.0000 -18221.8454 -18221.8454 0.0000 20235.3030 20306.1899 65191.4096 20235.3030 20306.1899
TCL: Exiting due to exit command.
Info: NAMD 3.0.1 for Linux-x86_64-multicore
Info: Please visit http://www.ks.uiuc.edu/Research/namd/
Info: for updates, documentation, and support information.
Info: Please cite Phillips et al., J. Chem. Phys. 153:044130 (2020) doi:10.1063/5.0014475
Info: in all publications reporting results obtained with NAMD.
Info: Based on Charm++/Converse 80000 for multicore-linux-x86_64-gcc
Info: Built Mon Oct 14 11:11:06 CDT 2024 by dhardy on athine.ks.uiuc.edu
Info: 1 NAMD  3.0.1  Linux-x86_64-multicore  16    k011  z5358697
Info: Running on 16 processors, 1 nodes, 1 physical nodes.
Info: CPU topology information available.
Info: Charm++/Converse parallel runtime startup completed at 0.0479606 s
Info: 1043.45 MB of memory in use based on /proc/self/stat
Info: Configuration file is mobley_4039055_equil.namd
Info: Working in the current directory /srv/scratch/z5358697/prod_prep_5/4039055
TCL: Running 25000 steps at 30 kelvin.
TCL: Suspending until startup complete.
Info: SIMULATION PARAMETERS:
Info: TIMESTEP               2
Info: NUMBER OF STEPS        0
Info: STEPS PER CYCLE        10
Info: PERIODIC CELL BASIS 1  39.546 0 0
Info: PERIODIC CELL BASIS 2  0 40.343 0
Info: PERIODIC CELL BASIS 3  0 0 40.862
Info: PERIODIC CELL CENTER   0 0 0
Info: WRAPPING WATERS AROUND PERIODIC BOUNDARIES ON OUTPUT.
Info: WRAPPING ALL CLUSTERS AROUND PERIODIC BOUNDARIES ON OUTPUT.
Info: FIRST LDB TIMESTEP     50
Info: LAST LDB TIMESTEP     -1
Info: HOM BACKGROUND SCALING 1
Info: PME BACKGROUND SCALING 1
Info: MIN ATOMS PER PATCH    40
Info: EMPTY PATCH LOAD       40 ATOMS
Info: INITIAL TEMPERATURE    300
Info: CENTER OF MASS MOVING INITIALLY? NO
Info: DIELECTRIC             1
Info: EXCLUDE                SCALED ONE-FOUR
Info: 1-4 ELECTROSTATICS SCALED BY 0.833333
Info: MODIFIED 1-4 VDW PARAMETERS WILL BE USED
Info: DCD FILENAME           mobley_4039055_equil.dcd
Info: DCD FREQUENCY          5000
Info: DCD FIRST STEP         5000
Info: DCD FILE WILL CONTAIN UNIT CELL DATA
Info: XST FILENAME           mobley_4039055_equil.xst
Info: XST FREQUENCY          5000
Info: NO VELOCITY DCD OUTPUT
Info: NO FORCE DCD OUTPUT
Info: OUTPUT FILENAME        mobley_4039055_equil
Info: BINARY OUTPUT FILES WILL BE USED
Info: RESTART FILENAME       mobley_4039055_equil.restart
Info: RESTART FREQUENCY      5000
Info: BINARY RESTART FILES WILL BE USED
Info: CUTOFF                 9
Info: PAIRLIST DISTANCE      11
Info: PAIRLIST SHRINK RATE   0.01
Info: PAIRLIST GROW RATE     0.01
Info: PAIRLIST TRIGGER       0.3
Info: PAIRLISTS PER CYCLE    2
Info: PAIRLISTS ENABLED
Info: MARGIN                 8
Info: HYDROGEN GROUP CUTOFF  2.5
Info: PATCH DIMENSION        21.5
Info: ENERGY OUTPUT STEPS    5000
Info: ENERGY EVALUATION STEPS    5000
Info: OUTPUT ENERGY PRECISION 4
Info: CROSSTERM ENERGY INCLUDED IN DIHEDRAL
Info: TIMING OUTPUT STEPS    50000
Info: PRESSURE OUTPUT STEPS  5000
Info: LANGEVIN DYNAMICS ACTIVE
Info: LANGEVIN TEMPERATURE   30
Info: LANGEVIN USING BBK INTEGRATOR
Info: LANGEVIN DAMPING COEFFICIENT IS 1 INVERSE PS
Info: LANGEVIN DYNAMICS APPLIED TO HYDROGENS
Info: LANGEVIN PISTON PRESSURE CONTROL ACTIVE
Info:        TARGET PRESSURE IS 1.01325 BAR
Info:     OSCILLATION PERIOD IS 50 FS
Info:             DECAY TIME IS 25 FS
Info:     PISTON TEMPERATURE IS 300 K
Info:       PRESSURE CONTROL IS GROUP-BASED
Info:    INITIAL STRAIN RATE IS 0 0 0
Info:       CELL FLUCTUATION IS ISOTROPIC
Info: PARTICLE MESH EWALD (PME) ACTIVE
Info: PME TOLERANCE               1e-06
Info: PME EWALD COEFFICIENT       0.348832
Info: PME INTERPOLATION ORDER     4
Info: PME GRID DIMENSIONS         40 44 44
Info: PME MAXIMUM GRID SPACING    1
Info: FULL ELECTROSTATIC EVALUATION FREQUENCY      2
Info: USING VERLET I (r-RESPA) MTS SCHEME.
Info: C1 SPLITTING OF LONG RANGE ELECTROSTATICS
Info: PLACING ATOMS IN PATCHES BY HYDROGEN GROUPS
Info: RIGID BONDS TO HYDROGEN : ALL
Info:         ERROR TOLERANCE : 1e-08
Info:          MAX ITERATIONS : 100
Info: RIGID WATER USING SETTLE ALGORITHM
Info: RANDOM NUMBER SEED     1741332872
Info: USE HYDROGEN BONDS?    NO
Info: Using AMBER format force field!
Info: AMBER PARM FILE        mobley_4039055.prmtop
Info: COORDINATE PDB         mobley_4039055.pdb
Info: Exclusions will be read from PARM file!
Info: SCNB (VDW SCALING)     2
Info: USING ARITHMETIC MEAN TO COMBINE L-J SIGMA PARAMETERS
Info: BINARY COORDINATES     mobley_4039055_min.coor
Info: SUMMARY OF PARAMETERS:
Info: 10 BONDS
Info: 14 ANGLES
Info:   14 HARMONIC
Info:   0 COSINE-BASED
Info: 7 DIHEDRAL
Info: 0 IMPROPER
Info: 0 CROSSTERM
Info: 0 VDW
Info: 36 VDW_PAIRS
Info: 0 NBTHOLE_PAIRS
Info: STRUCTURE SUMMARY:
Info: 4773 ATOMS
Info: 4773 BONDS
Info: 18 ANGLES
Info: 31 DIHEDRALS
Info: 0 IMPROPERS
Info: 0 CROSSTERMS
Info: 4812 EXCLUSIONS
Info: 4764 RIGID BONDS
Info: 9555 DEGREES OF FREEDOM
Info: 1596 HYDROGEN GROUPS
Info: 3 ATOMS IN LARGEST HYDROGEN GROUP
Info: 1596 MIGRATION GROUPS
Info: 3 ATOMS IN LARGEST MIGRATION GROUP
Info: TOTAL MASS = 28782.4 amu
Info: TOTAL CHARGE = 4.19095e-08 e
Info: MASS DENSITY = 0.733155 g/cm^3
Info: ATOM DENSITY = 0.0732152 atoms/A^3
Info: ADDED 0 IMPLICIT EXCLUSIONS
Info: NONBONDED TABLE R-SQUARED SPACING: 0.0625
Info: NONBONDED TABLE SIZE: 705 POINTS
Info: REMOVING COM VELOCITY 0.0987185 0.086186 -0.0589227
TCL: Running for 25000 steps
ETITLE: TS BOND ANGLE DIHED IMPRP ELECT VDW BOUNDARY MISC KINETIC TOTAL TEMP POTENTIAL TOTAL3 TEMPAVG PRESSURE GPRESSURE VOLUME PRESSAVG GPRESSAVG
ENERGY: 0 1.0479 1.1563 12.3895 0.0000 -21994.4066 3757.9674 0.0000 0.0000 2921.4305 -15300.4149 307.7197 -18221.8454 -15299.8026 307.7197 256.2801 289.3145 65191.4096 256.2801 289.3145
ENERGY: 5000 1.4213 1.5009 12.8933 0.0000 -23180.6200 4037.8642 0.0000 0.0000 282.2698 -18844.6705 29.7320 -19126.9403 -18843.9608 48.4298 294.5133 352.6033 46326.2071 4.8540 4.6958
ENERGY: 10000 0.8330 1.1089 12.4000 0.0000 -23060.6790 3876.0127 0.0000 0.0000 287.2411 -18883.0833 30.2556 -19170.3244 -18882.6770 30.1759 -685.2795 -622.4517 46555.6940 5.3989 5.1707
ENERGY: 15000 1.1572 1.5197 12.3039 0.0000 -23392.1021 4162.9932 0.0000 0.0000 291.6565 -18922.4715 30.7207 -19214.1280 -18921.8637 30.2767 817.6404 891.5962 45838.5981 2.6115 2.6073
ENERGY: 20000 0.7920 1.2719 12.3259 0.0000 -23353.3445 4098.7995 0.0000 0.0000 287.7664 -18952.3889 30.3110 -19240.1553 -18951.8328 30.1402 448.4091 500.1518 45886.4479 0.8282 1.0848
ENERGY: 25000 1.4163 1.8903 12.4828 0.0000 -23167.9851 3898.8472 0.0000 0.0000 284.8621 -18968.4864 30.0050 -19253.3485 -18967.4223 30.1718 -666.1092 -609.5376 46201.7333 0.8292 0.8234
TCL: Running 25000 steps at 60 kelvin.
TCL: Setting parameter langevinTemp to 60
TCL: Running for 25000 steps
ETITLE: TS BOND ANGLE DIHED IMPRP ELECT VDW BOUNDARY MISC KINETIC TOTAL TEMP POTENTIAL TOTAL3 TEMPAVG PRESSURE GPRESSURE VOLUME PRESSAVG GPRESSAVG
ENERGY: 25000 1.4163 1.8903 12.4828 0.0000 -23167.9851 3898.8472 0.0000 0.0000 284.7199 -18968.6286 29.9901 -19253.3485 -18967.8850 29.9901 -664.3654 -609.3102 46201.7333 -664.3654 -609.3102
ENERGY: 30000 1.5210 1.8034 12.4808 0.0000 -22959.9934 3962.8833 0.0000 0.0000 571.9092 -18409.3957 60.2403 -18981.3049 -18407.8706 57.2109 335.9115 381.3761 46172.3245 -0.0626 -0.0677
ENERGY: 35000 1.9383 1.5858 12.6271 0.0000 -23117.2412 4091.1666 0.0000 0.0000 563.4897 -18446.4337 59.3534 -19009.9234 -18445.5740 60.6010 1004.3281 1064.8184 45946.8070 -1.3993 -1.2476
ENERGY: 40000 1.2251 1.4615 12.2446 0.0000 -23041.4428 3980.7378 0.0000 0.0000 586.9348 -18458.8391 61.8229 -19045.7740 -18457.4720 59.7431 298.6134 366.6518 46043.6698 4.6864 4.6595
ENERGY: 45000 1.8137 1.3865 12.5860 0.0000 -22897.8961 3835.3449 0.0000 0.0000 568.2628 -18478.5021 59.8562 -19046.7649 -18477.6341 59.9820 -542.3077 -481.0270 46374.4478 2.6653 2.3292
ENERGY: 50000 1.2917 1.2476 12.7641 0.0000 -22907.2078 3820.2006 0.0000 0.0000 577.1014 -18494.6022 60.7872 -19071.7036 -18493.2854 59.9319 -655.2464 -611.1524 46501.3637 1.6476 1.7462
TCL: Running 25000 steps at 90 kelvin.
TCL: Setting parameter langevinTemp to 90
TCL: Running for 25000 steps
ETITLE: TS BOND ANGLE DIHED IMPRP ELECT VDW BOUNDARY MISC KINETIC TOTAL TEMP POTENTIAL TOTAL3 TEMPAVG PRESSURE GPRESSURE VOLUME PRESSAVG GPRESSAVG
ENERGY: 50000 1.2917 1.2476 12.7641 0.0000 -22907.2078 3820.2006 0.0000 0.0000 576.8225 -18494.8811 60.7578 -19071.7036 -18493.6892 60.7578 -668.5986 -611.4633 46501.3637 -668.5986 -611.4633
ENERGY: 55000 2.2403 1.6409 12.6871 0.0000 -22559.6634 3772.7298 0.0000 0.0000 846.0769 -17924.2885 89.1188 -18770.3653 -17922.0009 86.2645 -176.1385 -129.9236 46353.7614 3.8718 3.6918
ENERGY: 60000 2.2507 1.0833 12.4242 0.0000 -22610.5977 3814.5505 0.0000 0.0000 853.5497 -17926.7394 89.9060 -18780.2891 -17924.6961 90.5282 36.7593 91.7899 46246.0955 0.9282 0.5893
ENERGY: 65000 3.0694 3.9897 12.9067 0.0000 -22707.1082 3856.7125 0.0000 0.0000 853.9869 -17976.4429 89.9520 -18830.4299 -17973.6347 90.6749 229.8694 245.3518 46185.9361 3.5647 3.2501
ENERGY: 70000 2.8921 2.4918 12.7034 0.0000 -22780.0040 3898.9549 0.0000 0.0000 867.3681 -17995.5938 91.3615 -18862.9619 -17993.4784 89.6195 390.2405 449.3862 45992.6699 1.8672 1.9570
ENERGY: 75000 1.0445 1.9987 12.7564 0.0000 -22682.6001 3793.5843 0.0000 0.0000 853.4222 -18019.7940 89.8925 -18873.2163 -18018.0524 90.2672 -259.1166 -221.2301 46118.7042 3.4263 3.5596
TCL: Running 25000 steps at 120 kelvin.
TCL: Setting parameter langevinTemp to 120
TCL: Running for 25000 steps
ETITLE: TS BOND ANGLE DIHED IMPRP ELECT VDW BOUNDARY MISC KINETIC TOTAL TEMP POTENTIAL TOTAL3 TEMPAVG PRESSURE GPRESSURE VOLUME PRESSAVG GPRESSAVG
ENERGY: 75000 1.0445 1.9987 12.7564 0.0000 -22682.6001 3793.5843 0.0000 0.0000 853.0034 -18020.2129 89.8484 -18873.2163 -18018.4059 89.8484 -269.0205 -221.4746 46118.7042 -269.0205 -221.4746
ENERGY: 80000 2.0576 1.7831 12.8527 0.0000 -22313.3693 3751.7372 0.0000 0.0000 1111.8081 -17433.1306 117.1088 -18544.9387 -17430.2639 115.9427 322.0058 368.4670 46150.6796 1.8731 2.0217
ENERGY: 85000 2.1660 1.5172 12.5976 0.0000 -22371.2597 3777.4582 0.0000 0.0000 1118.2639 -17459.2567 117.7888 -18577.5206 -17456.1973 119.7838 434.6285 481.4388 46233.0663 0.7961 1.2189
ENERGY: 90000 1.5156 4.6747 12.4601 0.0000 -22365.8628 3743.0407 0.0000 0.0000 1133.2778 -17470.8940 119.3702 -18604.1718 -17468.5321 120.6239 152.2312 227.4451 46061.8416 2.9511 2.9946
ENERGY: 95000 2.6676 3.3911 12.6161 0.0000 -22138.6452 3515.6905 0.0000 0.0000 1132.4172 -17471.8627 119.2796 -18604.2799 -17470.5372 119.9095 -1152.2017 -1122.4412 46783.0322 0.8154 0.6747
ENERGY: 100000 1.9811 2.2727 12.9630 0.0000 -22413.8492 3755.3248 0.0000 0.0000 1153.4575 -17487.8501 121.4958 -18641.3076 -17483.6320 120.3246 49.9799 116.1224 46460.0589 8.7069 8.7597
TCL: Running 25000 steps at 150 kelvin.
TCL: Setting parameter langevinTemp to 150
TCL: Running for 25000 steps
ETITLE: TS BOND ANGLE DIHED IMPRP ELECT VDW BOUNDARY MISC KINETIC TOTAL TEMP POTENTIAL TOTAL3 TEMPAVG PRESSURE GPRESSURE VOLUME PRESSAVG GPRESSAVG
ENERGY: 100000 1.9811 2.2727 12.9630 0.0000 -22413.8492 3755.3248 0.0000 0.0000 1152.8659 -17488.4417 121.4335 -18641.3076 -17486.2255 121.4335 67.3946 117.2657 46460.0589 67.3946 117.2657
ENERGY: 105000 0.9591 3.6906 14.3941 0.0000 -21785.9695 3469.0424 0.0000 0.0000 1434.7141 -16863.1693 151.1211 -18297.8834 -16858.8646 147.8782 -654.6601 -639.6718 47009.8591 2.8039 2.4162
ENERGY: 110000 2.9968 2.2378 12.8855 0.0000 -21882.4859 3596.6503 0.0000 0.0000 1420.4785 -16847.2370 149.6216 -18267.7155 -16843.7927 151.2158 141.4891 191.3246 46405.7961 3.7100 3.2110
ENERGY: 115000 2.3730 1.8503 12.6646 0.0000 -21910.7530 3573.4405 0.0000 0.0000 1472.8590 -16847.5656 155.1390 -18320.4246 -16844.7162 150.2332 12.9783 25.5146 46560.1152 3.1560 3.0734
ENERGY: 120000 0.9084 1.9434 14.6199 0.0000 -21898.7100 3511.8819 0.0000 0.0000 1456.3039 -16913.0525 153.3952 -18369.3564 -16909.5058 150.8903 -437.9540 -422.4793 46559.4246 3.6348 3.6928
ENERGY: 125000 1.3540 1.0981 12.3805 0.0000 -21988.1982 3627.7077 0.0000 0.0000 1450.3047 -16895.3532 152.7633 -18345.6579 -16892.1056 150.0282 162.1020 258.3059 46230.2491 4.8583 5.5710
TCL: Running 50000 steps at 180 kelvin.
TCL: Setting parameter langevinTemp to 180
TCL: Running for 50000 steps
ETITLE: TS BOND ANGLE DIHED IMPRP ELECT VDW BOUNDARY MISC KINETIC TOTAL TEMP POTENTIAL TOTAL3 TEMPAVG PRESSURE GPRESSURE VOLUME PRESSAVG GPRESSAVG
ENERGY: 125000 1.3540 1.0981 12.3805 0.0000 -21988.1982 3627.7077 0.0000 0.0000 1449.6097 -16896.0482 152.6901 -18345.6579 -16892.8906 152.6901 201.1009 257.2864 46230.2491 201.1009 257.2864
ENERGY: 135000 1.6965 2.7033 12.9039 0.0000 -21452.8825 3503.8820 0.0000 0.0000 1702.2724 -16229.4244 179.3035 -17931.6968 -16225.9801 179.6469 368.9877 460.5948 46328.3933 4.4670 4.3153
ENERGY: 145000 3.7255 2.6848 13.3072 0.0000 -21504.5594 3496.4097 0.0000 0.0000 1724.6218 -16263.8102 181.6576 -17988.4320 -16260.6895 179.5531 261.0129 308.4758 46593.7219 -2.3654 -2.3889
ENERGY: 155000 2.5463 2.6633 13.4048 0.0000 -21381.4116 3433.2034 0.0000 0.0000 1723.5725 -16206.0214 181.5471 -17929.5939 -16201.4730 181.7875 261.3421 333.2862 46312.8370 3.9125 4.3747
ENERGY: 165000 2.9217 2.2055 12.8801 0.0000 -21337.5722 3389.4109 0.0000 0.0000 1675.5852 -16254.5688 176.4925 -17930.1540 -16249.4962 180.4924 -59.6705 3.2920 46649.5876 3.9864 3.9930
ENERGY: 175000 1.4075 2.3010 13.8986 0.0000 -21249.0962 3315.8190 0.0000 0.0000 1699.2621 -16216.4080 178.9864 -17915.6701 -16212.9052 180.8566 -518.3905 -446.3859 46848.1439 4.7444 4.0852
TCL: Running 50000 steps at 210 kelvin.
TCL: Setting parameter langevinTemp to 210
TCL: Running for 50000 steps
ETITLE: TS BOND ANGLE DIHED IMPRP ELECT VDW BOUNDARY MISC KINETIC TOTAL TEMP POTENTIAL TOTAL3 TEMPAVG PRESSURE GPRESSURE VOLUME PRESSAVG GPRESSAVG
ENERGY: 175000 1.4075 2.3010 13.8986 0.0000 -21249.0962 3315.8190 0.0000 0.0000 1698.4043 -16217.2658 178.8961 -17915.6701 -16213.1296 178.8961 -517.5301 -446.8683 46848.1439 -517.5301 -446.8683
ENERGY: 185000 1.9544 1.6389 13.6300 0.0000 -20487.4549 3179.3602 0.0000 0.0000 2038.4118 -15252.4597 214.7097 -17290.8714 -15247.7958 208.8766 385.7768 497.5212 46398.6894 3.2469 2.6153
ENERGY: 195000 2.4707 4.6320 14.0562 0.0000 -20223.6949 3020.0198 0.0000 0.0000 2000.7462 -15181.7699 210.7423 -17182.5161 -15177.7890 209.6657 -412.9355 -322.9727 46955.7973 1.2333 0.8625
ENERGY: 205000 2.3846 1.5009 13.1038 0.0000 -20155.1601 2958.8837 0.0000 0.0000 1988.9103 -15190.3768 209.4956 -17179.2871 -15186.7074 210.3325 -689.8751 -591.5134 46832.4496 6.4171 6.5220
ENERGY: 215000 2.2793 2.9810 14.8453 0.0000 -20252.8486 3057.8481 0.0000 0.0000 1972.6074 -15202.2874 207.7784 -17174.8948 -15198.0248 210.0158 -119.8810 -18.4466 46439.8261 0.3098 0.5610
ENERGY: 225000 5.3875 2.9415 13.8079 0.0000 -20274.6014 3023.6943 0.0000 0.0000 2083.6231 -15145.1472 219.4719 -17228.7703 -15142.3106 211.0875 -166.5525 -94.3415 46353.2274 1.1459 0.6666
TCL: Running 50000 steps at 240 kelvin.
TCL: Setting parameter langevinTemp to 240
TCL: Running for 50000 steps
ETITLE: TS BOND ANGLE DIHED IMPRP ELECT VDW BOUNDARY MISC KINETIC TOTAL TEMP POTENTIAL TOTAL3 TEMPAVG PRESSURE GPRESSURE VOLUME PRESSAVG GPRESSAVG
ENERGY: 225000 5.3875 2.9415 13.8079 0.0000 -20274.6014 3023.6943 0.0000 0.0000 2082.6153 -15146.1550 219.3657 -17228.7703 -15142.5869 219.3657 -157.5700 -94.1360 46353.2274 -157.5700 -94.1360
ENERGY: 235000 2.3296 4.5560 14.4606 0.0000 -19275.5968 2728.0702 0.0000 0.0000 2262.6470 -14263.5333 238.3288 -16526.1803 -14258.5822 240.3957 -218.2805 -108.5737 46485.9741 6.2726 6.4129
ENERGY: 245000 3.2230 2.3554 14.5392 0.0000 -19129.5831 2654.0241 0.0000 0.0000 2373.7245 -14081.7169 250.0288 -16455.4414 -14075.6503 238.3867 -627.2829 -529.9291 47164.1177 0.8112 0.7017
ENERGY: 255000 3.2996 2.6931 15.8055 0.0000 -19288.1553 2811.4916 0.0000 0.0000 2273.9739 -14180.8916 239.5219 -16454.8655 -14175.3789 240.2999 120.2378 187.9711 47182.1138 -2.3089 -1.6506
ENERGY: 265000 1.2773 3.1126 12.8558 0.0000 -19314.2562 2800.3609 0.0000 0.0000 2284.7900 -14211.8596 240.6612 -16496.6496 -14208.9458 238.1250 -83.6081 39.6189 47280.2915 0.6691 0.3402
ENERGY: 275000 1.3179 2.4648 13.9160 0.0000 -19290.4879 2758.6405 0.0000 0.0000 2312.6111 -14201.5374 243.5916 -16514.1486 -14197.5043 241.3334 -187.4127 -79.9973 47086.7955 3.3344 2.9393
TCL: Running 50000 steps at 270 kelvin.
TCL: Setting parameter langevinTemp to 270
TCL: Running for 50000 steps
ETITLE: TS BOND ANGLE DIHED IMPRP ELECT VDW BOUNDARY MISC KINETIC TOTAL TEMP POTENTIAL TOTAL3 TEMPAVG PRESSURE GPRESSURE VOLUME PRESSAVG GPRESSAVG
ENERGY: 275000 1.3179 2.4648 13.9160 0.0000 -19290.4879 2758.6405 0.0000 0.0000 2311.5432 -14202.6053 243.4791 -16514.1486 -14198.6563 243.4791 -169.6872 -81.1859 47086.7955 -169.6872 -81.1859
ENERGY: 285000 1.9739 2.2151 14.0156 0.0000 -18222.1043 2459.8416 0.0000 0.0000 2498.0697 -13245.9883 263.1263 -15744.0580 -13242.4595 270.3820 -422.4471 -306.3640 48212.1754 -0.4204 -0.2326
ENERGY: 295000 2.9208 2.0077 15.5559 0.0000 -18246.6998 2506.3700 0.0000 0.0000 2518.3658 -13201.4797 265.2641 -15719.8454 -13197.2410 272.6282 -168.1868 -85.9356 48156.3104 3.0721 3.7949
ENERGY: 305000 2.9691 3.4007 13.9024 0.0000 -18327.8774 2503.7435 0.0000 0.0000 2538.8024 -13265.0592 267.4167 -15803.8616 -13258.0605 270.6720 -247.2933 -181.0525 47992.4325 2.0541 2.0031
ENERGY: 315000 6.7893 5.8335 13.1527 0.0000 -18484.2864 2632.6930 0.0000 0.0000 2507.4396 -13318.3782 264.1132 -15825.8178 -13311.5143 268.7767 141.8703 225.5121 48809.2482 2.1946 2.0361
ENERGY: 325000 3.5715 5.1424 15.6682 0.0000 -18369.7354 2556.1353 0.0000 0.0000 2598.9775 -13190.2404 273.7551 -15789.2180 -13182.1530 271.3427 212.1714 273.4106 47811.6903 2.7405 2.8161
TCL: Running 1000000 steps at 300 kelvin.
TCL: Setting parameter langevinTemp to 300
TCL: Running for 1000000 steps
ETITLE: TS BOND ANGLE DIHED IMPRP ELECT VDW BOUNDARY MISC KINETIC TOTAL TEMP POTENTIAL TOTAL3 TEMPAVG PRESSURE GPRESSURE VOLUME PRESSAVG GPRESSAVG
ENERGY: 325000 3.5715 5.1424 15.6682 0.0000 -18369.7354 2556.1353 0.0000 0.0000 2597.6583 -13191.5596 273.6161 -15789.2180 -13187.6115 273.6161 178.3963 275.7814 47811.6903 178.3963 275.7814
ENERGY: 525000 1.8309 3.6732 15.3328 0.0000 -17399.4240 2271.2636 0.0000 0.0000 2818.4110 -12288.9124 296.8684 -15107.3234 -12281.0189 300.6629 -106.1879 -25.2111 48746.7301 2.3822 2.3033
ENERGY: 725000 3.0062 3.6444 14.8451 0.0000 -17625.6513 2345.0665 0.0000 0.0000 2822.2667 -12436.8223 297.2746 -15259.0890 -12433.1475 301.6954 -182.9608 -81.1661 48969.7944 -1.7361 -0.5002
ENERGY: 925000 4.2689 2.2558 14.5225 0.0000 -17538.5310 2290.2922 0.0000 0.0000 2799.8151 -12427.3766 294.9097 -15227.1917 -12420.6588 297.1176 -258.2765 -221.3093 49170.9736 5.6123 5.7911
ENERGY: 1125000 4.4821 3.9584 18.8849 0.0000 -17383.1407 2286.5616 0.0000 0.0000 2794.6252 -12274.6286 294.3630 -15069.2537 -12266.3544 300.4372 -283.7092 -223.4548 49546.0472 1.3946 0.9937
ENERGY: 1325000 5.1010 3.6195 16.3679 0.0000 -17595.4174 2411.4440 0.0000 0.0000 2868.2985 -12290.5865 302.1232 -15158.8850 -12285.1697 299.3173 487.9023 519.1435 49260.3226 3.2992 3.1104
TCL: Exiting due to exit command.
