Info: SIMULATION PARAMETERS:
Info: TIMESTEP               2
Info: NUMBER OF STEPS        0
Info: STEPS PER CYCLE        10
Info: PERIODIC CELL BASIS 1  41.545 0 0
Info: PERIODIC CELL BASIS 2  0 40.343 0
Info: PERIODIC CELL BASIS 3  0 0 42.851
Info: PERIODIC CELL CENTER   0 0 0
Info: WRAPPING WATERS AROUND PERIODIC BOUNDARIES ON OUTPUT.
Info: WRAPPING ALL CLUSTERS AROUND PERIODIC BOUNDARIES ON OUTPUT.
Info: FIRST LDB TIMESTEP     50
Info: LAST LDB TIMESTEP     -1
Info: HOM BACKGROUND SCALING 1
Info: PME BACKGROUND SCALING 1
Info: MIN ATOMS PER PATCH    40
Info: EMPTY PATCH LOAD       40 ATOMS
Info: INITIAL TEMPERATURE    300
Info: CENTER OF MASS MOVING INITIALLY? NO
Info: DIELECTRIC             1
Info: EXCLUDE                SCALED ONE-FOUR
Info: 1-4 ELECTROSTATICS SCALED BY 0.833333
Info: MODIFIED 1-4 VDW PARAMETERS WILL BE USED
Info: DCD FILENAME           mobley_2613240_min.dcd
Info: DCD FREQUENCY          5000
Info: DCD FIRST STEP         5000
Info: DCD FILE WILL CONTAIN UNIT CELL DATA
Info: XST FILENAME           mobley_2613240_min.xst
Info: XST FREQUENCY          5000
Info: NO VELOCITY DCD OUTPUT
Info: NO FORCE DCD OUTPUT
Info: OUTPUT FILENAME        mobley_2613240_min
Info: BINARY OUTPUT FILES WILL BE USED
Info: RESTART FILENAME       mobley_2613240_min.restart
Info: RESTART FREQUENCY      5000
Info: BINARY RESTART FILES WILL BE USED
Info: CUTOFF                 9
Info: PAIRLIST DISTANCE      11
Info: PAIRLIST SHRINK RATE   0.01
Info: PAIRLIST GROW RATE     0.01
Info: PAIRLIST TRIGGER       0.3
Info: PAIRLISTS PER CYCLE    2
Info: PAIRLISTS ENABLED
Info: MARGIN                 8
Info: HYDROGEN GROUP CUTOFF  2.5
Info: PATCH DIMENSION        21.5
Info: ENERGY OUTPUT STEPS    5000
Info: ENERGY EVALUATION STEPS    5000
Info: OUTPUT ENERGY PRECISION 4
Info: CROSSTERM ENERGY INCLUDED IN DIHEDRAL
Info: TIMING OUTPUT STEPS    50000
Info: PRESSURE OUTPUT STEPS  5000
Info: LANGEVIN DYNAMICS ACTIVE
Info: LANGEVIN TEMPERATURE   300
Info: LANGEVIN USING BBK INTEGRATOR
Info: LANGEVIN DAMPING COEFFICIENT IS 1 INVERSE PS
Info: LANGEVIN DYNAMICS APPLIED TO HYDROGENS
Info: LANGEVIN PISTON PRESSURE CONTROL ACTIVE
Info:        TARGET PRESSURE IS 1.01325 BAR
Info:     OSCILLATION PERIOD IS 50 FS
Info:             DECAY TIME IS 25 FS
Info:     PISTON TEMPERATURE IS 300 K
Info:       PRESSURE CONTROL IS GROUP-BASED
Info:    INITIAL STRAIN RATE IS 0 0 0
Info:       CELL FLUCTUATION IS ISOTROPIC
Info: PARTICLE MESH EWALD (PME) ACTIVE
Info: PME TOLERANCE               1e-06
Info: PME EWALD COEFFICIENT       0.348832
Info: PME INTERPOLATION ORDER     4
Info: PME GRID DIMENSIONS         44 44 44
Info: PME MAXIMUM GRID SPACING    1
Info: FULL ELECTROSTATIC EVALUATION FREQUENCY      2
Info: USING VERLET I (r-RESPA) MTS SCHEME.
Info: C1 SPLITTING OF LONG RANGE ELECTROSTATICS
Info: PLACING ATOMS IN PATCHES BY HYDROGEN GROUPS
Info: RIGID BONDS TO HYDROGEN : ALL
Info:         ERROR TOLERANCE : 1e-08
Info:          MAX ITERATIONS : 100
Info: RIGID WATER USING SETTLE ALGORITHM
Info: RANDOM NUMBER SEED     1741355556
Info: USE HYDROGEN BONDS?    NO
Info: Using AMBER format force field!
Info: AMBER PARM FILE        mobley_2613240.prmtop
Info: COORDINATE PDB         mobley_2613240.pdb
Info: Exclusions will be read from PARM file!
Info: SCNB (VDW SCALING)     2
Info: USING ARITHMETIC MEAN TO COMBINE L-J SIGMA PARAMETERS
Info: SUMMARY OF PARAMETERS:
Info: 7 BONDS
Info: 6 ANGLES
Info:   6 HARMONIC
Info:   0 COSINE-BASED
Info: 4 DIHEDRAL
Info: 0 IMPROPER
Info: 0 CROSSTERM
Info: 0 VDW
Info: 28 VDW_PAIRS
Info: 0 NBTHOLE_PAIRS
Info: STRUCTURE SUMMARY:
Info: 5249 ATOMS
Info: 5249 BONDS
Info: 32 ANGLES
Info: 38 DIHEDRALS
Info: 0 IMPROPERS
Info: 0 CROSSTERMS
Info: 5312 EXCLUSIONS
Info: 5239 RIGID BONDS
Info: 10508 DEGREES OF FREEDOM
Info: 1753 HYDROGEN GROUPS
Info: 4 ATOMS IN LARGEST HYDROGEN GROUP
Info: 1753 MIGRATION GROUPS
Info: 4 ATOMS IN LARGEST MIGRATION GROUP
Info: TOTAL MASS = 31540 amu
Info: TOTAL CHARGE = 0.000300035 e
Info: MASS DENSITY = 0.729245 g/cm^3
Info: ATOM DENSITY = 0.0730851 atoms/A^3
Info: ADDED 0 IMPLICIT EXCLUSIONS
Info: NONBONDED TABLE R-SQUARED SPACING: 0.0625
Info: NONBONDED TABLE SIZE: 705 POINTS
Info: REMOVING COM VELOCITY -0.104442 0.0593882 -0.0286145
TCL: Minimizing for 2000 steps
ETITLE: TS BOND ANGLE DIHED IMPRP ELECT VDW BOUNDARY MISC KINETIC TOTAL TEMP POTENTIAL TOTAL3 TEMPAVG PRESSURE GPRESSURE VOLUME PRESSAVG GPRESSAVG
ENERGY: 0 0.0662 0.5239 6.6412 0.0000 -16554.2003 1888.3418 0.0000 0.0000 0.0000 -14658.6271 0.0000 -14658.6271 -14658.6271 0.0000 11415.3038 -16116.5961 71820.4158 11415.3038 -16116.5961
ENERGY: 400 8.7986 4.7086 5.5064 0.0000 -22067.1999 3178.6205 0.0000 0.0000 0.0000 -18869.5658 0.0000 -18869.5658 -18869.5658 0.0000 15911.6617 15684.6338 71820.4158 15911.6617 15684.6338
ENERGY: 800 1.5454 3.5395 0.4432 0.0000 -23355.9858 3873.1434 0.0000 0.0000 0.0000 -19477.3141 0.0000 -19477.3141 -19477.3141 0.0000 18989.1463 18733.7746 71820.4158 18989.1463 18733.7746
ENERGY: 1200 2.0879 2.8596 0.1979 0.0000 -23750.8751 4014.4371 0.0000 0.0000 0.0000 -19731.2926 0.0000 -19731.2926 -19731.2926 0.0000 19600.1133 19365.7873 71820.4158 19600.1133 19365.7873
ENERGY: 1600 0.8552 3.3741 0.0792 0.0000 -24012.6051 4138.5983 0.0000 0.0000 0.0000 -19869.6983 0.0000 -19869.6983 -19869.6983 0.0000 20192.9499 19936.7452 71820.4158 20192.9499 19936.7452
ENERGY: 2000 0.9814 3.1400 0.5019 0.0000 -24150.5564 4200.9476 0.0000 0.0000 0.0000 -19944.9855 0.0000 -19944.9855 -19944.9855 0.0000 20488.1156 20213.5053 71820.4158 20488.1156 20213.5053
TCL: Exiting due to exit command.
Info: NAMD 3.0.1 for Linux-x86_64-multicore
Info: Please visit http://www.ks.uiuc.edu/Research/namd/
Info: for updates, documentation, and support information.
Info: Please cite Phillips et al., J. Chem. Phys. 153:044130 (2020) doi:10.1063/5.0014475
Info: in all publications reporting results obtained with NAMD.
Info: Based on Charm++/Converse 80000 for multicore-linux-x86_64-gcc
Info: Built Mon Oct 14 11:11:06 CDT 2024 by dhardy on athine.ks.uiuc.edu
Info: 1 NAMD  3.0.1  Linux-x86_64-multicore  16    k013  z5358697
Info: Running on 16 processors, 1 nodes, 1 physical nodes.
Info: CPU topology information available.
Info: Charm++/Converse parallel runtime startup completed at 0.009747 s
Info: 1043.45 MB of memory in use based on /proc/self/stat
Info: Configuration file is mobley_2613240_equil.namd
Info: Working in the current directory /srv/scratch/z5358697/prod_prep_2/2613240
TCL: Running 25000 steps at 30 kelvin.
TCL: Suspending until startup complete.
Info: SIMULATION PARAMETERS:
Info: TIMESTEP               2
Info: NUMBER OF STEPS        0
Info: STEPS PER CYCLE        10
Info: PERIODIC CELL BASIS 1  41.545 0 0
Info: PERIODIC CELL BASIS 2  0 40.343 0
Info: PERIODIC CELL BASIS 3  0 0 42.851
Info: PERIODIC CELL CENTER   0 0 0
Info: WRAPPING WATERS AROUND PERIODIC BOUNDARIES ON OUTPUT.
Info: WRAPPING ALL CLUSTERS AROUND PERIODIC BOUNDARIES ON OUTPUT.
Info: FIRST LDB TIMESTEP     50
Info: LAST LDB TIMESTEP     -1
Info: HOM BACKGROUND SCALING 1
Info: PME BACKGROUND SCALING 1
Info: MIN ATOMS PER PATCH    40
Info: EMPTY PATCH LOAD       40 ATOMS
Info: INITIAL TEMPERATURE    300
Info: CENTER OF MASS MOVING INITIALLY? NO
Info: DIELECTRIC             1
Info: EXCLUDE                SCALED ONE-FOUR
Info: 1-4 ELECTROSTATICS SCALED BY 0.833333
Info: MODIFIED 1-4 VDW PARAMETERS WILL BE USED
Info: DCD FILENAME           mobley_2613240_equil.dcd
Info: DCD FREQUENCY          5000
Info: DCD FIRST STEP         5000
Info: DCD FILE WILL CONTAIN UNIT CELL DATA
Info: XST FILENAME           mobley_2613240_equil.xst
Info: XST FREQUENCY          5000
Info: NO VELOCITY DCD OUTPUT
Info: NO FORCE DCD OUTPUT
Info: OUTPUT FILENAME        mobley_2613240_equil
Info: BINARY OUTPUT FILES WILL BE USED
Info: RESTART FILENAME       mobley_2613240_equil.restart
Info: RESTART FREQUENCY      5000
Info: BINARY RESTART FILES WILL BE USED
Info: CUTOFF                 9
Info: PAIRLIST DISTANCE      11
Info: PAIRLIST SHRINK RATE   0.01
Info: PAIRLIST GROW RATE     0.01
Info: PAIRLIST TRIGGER       0.3
Info: PAIRLISTS PER CYCLE    2
Info: PAIRLISTS ENABLED
Info: MARGIN                 8
Info: HYDROGEN GROUP CUTOFF  2.5
Info: PATCH DIMENSION        21.5
Info: ENERGY OUTPUT STEPS    5000
Info: ENERGY EVALUATION STEPS    5000
Info: OUTPUT ENERGY PRECISION 4
Info: CROSSTERM ENERGY INCLUDED IN DIHEDRAL
Info: TIMING OUTPUT STEPS    50000
Info: PRESSURE OUTPUT STEPS  5000
Info: LANGEVIN DYNAMICS ACTIVE
Info: LANGEVIN TEMPERATURE   30
Info: LANGEVIN USING BBK INTEGRATOR
Info: LANGEVIN DAMPING COEFFICIENT IS 1 INVERSE PS
Info: LANGEVIN DYNAMICS APPLIED TO HYDROGENS
Info: LANGEVIN PISTON PRESSURE CONTROL ACTIVE
Info:        TARGET PRESSURE IS 1.01325 BAR
Info:     OSCILLATION PERIOD IS 50 FS
Info:             DECAY TIME IS 25 FS
Info:     PISTON TEMPERATURE IS 300 K
Info:       PRESSURE CONTROL IS GROUP-BASED
Info:    INITIAL STRAIN RATE IS 0 0 0
Info:       CELL FLUCTUATION IS ISOTROPIC
Info: PARTICLE MESH EWALD (PME) ACTIVE
Info: PME TOLERANCE               1e-06
Info: PME EWALD COEFFICIENT       0.348832
Info: PME INTERPOLATION ORDER     4
Info: PME GRID DIMENSIONS         44 44 44
Info: PME MAXIMUM GRID SPACING    1
Info: FULL ELECTROSTATIC EVALUATION FREQUENCY      2
Info: USING VERLET I (r-RESPA) MTS SCHEME.
Info: C1 SPLITTING OF LONG RANGE ELECTROSTATICS
Info: PLACING ATOMS IN PATCHES BY HYDROGEN GROUPS
Info: RIGID BONDS TO HYDROGEN : ALL
Info:         ERROR TOLERANCE : 1e-08
Info:          MAX ITERATIONS : 100
Info: RIGID WATER USING SETTLE ALGORITHM
Info: RANDOM NUMBER SEED     1741355572
Info: USE HYDROGEN BONDS?    NO
Info: Using AMBER format force field!
Info: AMBER PARM FILE        mobley_2613240.prmtop
Info: COORDINATE PDB         mobley_2613240.pdb
Info: Exclusions will be read from PARM file!
Info: SCNB (VDW SCALING)     2
Info: USING ARITHMETIC MEAN TO COMBINE L-J SIGMA PARAMETERS
Info: BINARY COORDINATES     mobley_2613240_min.coor
Info: SUMMARY OF PARAMETERS:
Info: 7 BONDS
Info: 6 ANGLES
Info:   6 HARMONIC
Info:   0 COSINE-BASED
Info: 4 DIHEDRAL
Info: 0 IMPROPER
Info: 0 CROSSTERM
Info: 0 VDW
Info: 28 VDW_PAIRS
Info: 0 NBTHOLE_PAIRS
Info: STRUCTURE SUMMARY:
Info: 5249 ATOMS
Info: 5249 BONDS
Info: 32 ANGLES
Info: 38 DIHEDRALS
Info: 0 IMPROPERS
Info: 0 CROSSTERMS
Info: 5312 EXCLUSIONS
Info: 5239 RIGID BONDS
Info: 10508 DEGREES OF FREEDOM
Info: 1753 HYDROGEN GROUPS
Info: 4 ATOMS IN LARGEST HYDROGEN GROUP
Info: 1753 MIGRATION GROUPS
Info: 4 ATOMS IN LARGEST MIGRATION GROUP
Info: TOTAL MASS = 31540 amu
Info: TOTAL CHARGE = 0.000300035 e
Info: MASS DENSITY = 0.729245 g/cm^3
Info: ATOM DENSITY = 0.0730851 atoms/A^3
Info: ADDED 0 IMPLICIT EXCLUSIONS
Info: NONBONDED TABLE R-SQUARED SPACING: 0.0625
Info: NONBONDED TABLE SIZE: 705 POINTS
Info: REMOVING COM VELOCITY -0.167032 -0.11202 0.00541
TCL: Running for 25000 steps
ETITLE: TS BOND ANGLE DIHED IMPRP ELECT VDW BOUNDARY MISC KINETIC TOTAL TEMP POTENTIAL TOTAL3 TEMPAVG PRESSURE GPRESSURE VOLUME PRESSAVG GPRESSAVG
ENERGY: 0 0.9814 3.1400 0.5019 0.0000 -24150.5564 4200.9476 0.0000 0.0000 3115.0877 -16829.8978 298.3600 -19944.9855 -16829.2993 298.3600 373.4772 419.0736 71820.4158 373.4772 419.0736
ENERGY: 5000 0.9514 4.1783 0.7612 0.0000 -25125.5889 4314.2386 0.0000 0.0000 312.2358 -20493.2236 29.9056 -20805.4594 -20492.2238 47.1494 -235.8202 -177.6391 51262.6766 -0.7044 -0.5976
ENERGY: 10000 0.9664 4.3218 0.3638 0.0000 -25324.3308 4475.1520 0.0000 0.0000 317.7010 -20525.8258 30.4291 -20843.5268 -20525.2165 30.4306 410.6506 477.1698 51152.5951 5.6831 5.8318
ENERGY: 15000 1.2997 3.9570 0.5693 0.0000 -25070.2046 4204.8056 0.0000 0.0000 311.6051 -20547.9680 29.8452 -20859.5731 -20547.1367 30.0454 -953.2349 -905.8766 51668.0758 2.3432 2.4853
ENERGY: 20000 0.4643 3.5668 1.0888 0.0000 -25349.0570 4470.0625 0.0000 0.0000 311.7305 -20562.1441 29.8572 -20873.8746 -20561.6186 30.0720 309.6681 367.4242 51189.4793 2.3632 2.2788
ENERGY: 25000 0.7455 4.5864 0.4716 0.0000 -25450.1275 4558.1121 0.0000 0.0000 316.2886 -20569.9233 30.2938 -20886.2119 -20569.0871 30.0169 771.0166 825.7096 50999.0897 2.4766 2.4855
TCL: Running 25000 steps at 60 kelvin.
TCL: Setting parameter langevinTemp to 60
TCL: Running for 25000 steps
ETITLE: TS BOND ANGLE DIHED IMPRP ELECT VDW BOUNDARY MISC KINETIC TOTAL TEMP POTENTIAL TOTAL3 TEMPAVG PRESSURE GPRESSURE VOLUME PRESSAVG GPRESSAVG
ENERGY: 25000 0.7455 4.5864 0.4716 0.0000 -25450.1275 4558.1121 0.0000 0.0000 316.1338 -20570.0781 30.2790 -20886.2119 -20569.4536 30.2790 774.4901 825.9026 50999.0897 774.4901 825.9026
ENERGY: 30000 1.7657 4.6017 0.7056 0.0000 -24840.8268 4227.0917 0.0000 0.0000 632.2909 -19974.3711 60.5602 -20606.6620 -19973.0731 57.3640 -292.7158 -210.2798 51485.5062 5.3017 5.3808
ENERGY: 35000 2.8730 4.8583 1.3705 0.0000 -24942.2373 4267.5717 0.0000 0.0000 639.3516 -20026.2122 61.2365 -20665.5638 -20024.4449 60.6405 -170.9734 -91.2818 51246.7500 2.6988 2.9105
ENERGY: 40000 1.1424 5.7966 0.6521 0.0000 -24877.8047 4178.3506 0.0000 0.0000 616.5767 -20075.2863 59.0551 -20691.8631 -20073.2272 60.4923 -668.1304 -611.8174 51357.5915 3.7510 3.6170
ENERGY: 45000 1.2463 4.4267 0.7685 0.0000 -25042.3081 4334.4751 0.0000 0.0000 609.3725 -20092.0191 58.3651 -20701.3916 -20090.5319 59.9539 79.0925 136.0634 51076.6857 1.6614 1.8687
ENERGY: 50000 1.2499 3.7931 1.5528 0.0000 -25036.4568 4324.0853 0.0000 0.0000 633.8370 -20071.9386 60.7083 -20705.7756 -20070.3783 60.0418 14.7491 65.2201 51234.7363 0.0364 -0.2826
TCL: Running 25000 steps at 90 kelvin.
TCL: Setting parameter langevinTemp to 90
TCL: Running for 25000 steps
ETITLE: TS BOND ANGLE DIHED IMPRP ELECT VDW BOUNDARY MISC KINETIC TOTAL TEMP POTENTIAL TOTAL3 TEMPAVG PRESSURE GPRESSURE VOLUME PRESSAVG GPRESSAVG
ENERGY: 50000 1.2499 3.7931 1.5528 0.0000 -25036.4568 4324.0853 0.0000 0.0000 633.5274 -20072.2483 60.6786 -20705.7756 -20070.9753 60.6786 18.2306 65.2544 51234.7363 18.2306 65.2544
ENERGY: 55000 1.6652 6.9041 1.3189 0.0000 -24607.0280 4192.4024 0.0000 0.0000 941.6102 -19463.1271 90.1865 -20404.7373 -19461.0316 87.4962 19.8138 50.5250 51420.9685 3.7023 3.8090
ENERGY: 60000 1.4497 4.2084 1.1071 0.0000 -24813.5576 4379.3630 0.0000 0.0000 945.3494 -19482.0800 90.5446 -20427.4294 -19479.8766 90.0784 907.6719 946.8971 51181.0821 2.4640 2.3450
ENERGY: 65000 1.7667 3.5533 2.2673 0.0000 -24676.3781 4200.2392 0.0000 0.0000 931.2784 -19537.2733 89.1969 -20468.5516 -19534.6240 89.5902 -120.9273 -75.1328 51478.9762 4.4679 4.2501
ENERGY: 70000 1.2014 3.6442 3.5176 0.0000 -24990.0280 4511.3139 0.0000 0.0000 936.0025 -19534.3485 89.6494 -20470.3510 -19531.6560 90.0842 1418.5259 1466.7825 50970.9043 -0.3791 -0.6882
ENERGY: 75000 1.4674 4.3623 3.5841 0.0000 -24622.0415 4146.4137 0.0000 0.0000 951.4687 -19514.7455 91.1307 -20466.2141 -19513.1262 89.8319 -311.4431 -274.0022 51506.1255 0.9169 1.5955
TCL: Running 25000 steps at 120 kelvin.
TCL: Setting parameter langevinTemp to 120
TCL: Running for 25000 steps
ETITLE: TS BOND ANGLE DIHED IMPRP ELECT VDW BOUNDARY MISC KINETIC TOTAL TEMP POTENTIAL TOTAL3 TEMPAVG PRESSURE GPRESSURE VOLUME PRESSAVG GPRESSAVG
ENERGY: 75000 1.4674 4.3623 3.5841 0.0000 -24622.0415 4146.4137 0.0000 0.0000 950.9884 -19515.2257 91.0847 -20466.2141 -19513.1789 91.0847 -319.6188 -273.9079 51506.1255 -319.6188 -273.9079
ENERGY: 80000 1.5111 3.6250 3.3135 0.0000 -24195.8140 4073.6558 0.0000 0.0000 1234.2161 -18879.4926 118.2120 -20113.7087 -18875.7915 117.0014 46.0824 76.8970 51618.1252 6.3296 6.3350
ENERGY: 85000 2.0888 6.4746 1.3075 0.0000 -24277.9291 4165.4893 0.0000 0.0000 1229.4378 -18873.1311 117.7543 -20102.5689 -18868.8639 120.0622 491.8890 564.9434 51419.6369 0.5678 0.7752
ENERGY: 90000 1.9674 6.4414 2.3660 0.0000 -24275.3591 4080.8732 0.0000 0.0000 1261.0226 -18922.6884 120.7795 -20183.7110 -18918.6713 120.4926 -49.6719 4.3463 51310.8682 2.5634 2.7318
ENERGY: 95000 2.3425 3.9981 2.3654 0.0000 -24212.1431 4043.0743 0.0000 0.0000 1254.2128 -18906.1499 120.1273 -20160.3627 -18903.5528 120.3293 -191.2968 -144.6764 51535.8442 0.3480 0.4064
ENERGY: 100000 1.2170 4.5308 1.9217 0.0000 -24387.7128 4170.1946 0.0000 0.0000 1291.0510 -18918.7976 123.6556 -20209.8487 -18916.0462 120.2640 415.8543 444.2865 51160.9238 5.3076 5.4267
TCL: Running 25000 steps at 150 kelvin.
TCL: Setting parameter langevinTemp to 150
TCL: Running for 25000 steps
ETITLE: TS BOND ANGLE DIHED IMPRP ELECT VDW BOUNDARY MISC KINETIC TOTAL TEMP POTENTIAL TOTAL3 TEMPAVG PRESSURE GPRESSURE VOLUME PRESSAVG GPRESSAVG
ENERGY: 100000 1.2170 4.5308 1.9217 0.0000 -24387.7128 4170.1946 0.0000 0.0000 1290.4322 -18919.4164 123.5963 -20209.8487 -18916.6355 123.5963 389.3903 444.6840 51160.9238 389.3903 444.6840
ENERGY: 105000 1.7520 4.9343 0.5978 0.0000 -23768.0703 3925.0187 0.0000 0.0000 1572.7011 -18263.0663 150.6318 -19835.7675 -18259.2115 148.0478 17.1393 90.0498 51356.0948 2.3264 1.7587
ENERGY: 110000 1.5304 3.4914 2.0005 0.0000 -23829.0476 3941.2563 0.0000 0.0000 1558.1171 -18322.6519 149.2349 -19880.7690 -18319.8512 150.7195 75.5685 98.8553 51480.9592 1.3056 1.4441
ENERGY: 115000 2.9728 5.5431 1.8541 0.0000 -23745.8272 3872.8630 0.0000 0.0000 1578.4430 -18284.1511 151.1817 -19862.5941 -18279.3323 150.2460 -410.0339 -370.8952 51757.5957 5.0185 4.9096
ENERGY: 120000 2.5117 8.0185 2.2742 0.0000 -23871.5712 3940.2643 0.0000 0.0000 1569.6068 -18348.8957 150.3354 -19918.5025 -18344.8157 150.5361 -41.0819 -34.1959 51499.8559 9.4485 9.0099
ENERGY: 125000 1.8197 4.4625 5.2369 0.0000 -23854.4748 3902.4737 0.0000 0.0000 1544.1368 -18396.3452 147.8959 -19940.4820 -18394.6272 149.1540 -360.7714 -301.6852 51522.7994 4.9981 5.1649
TCL: Running 50000 steps at 180 kelvin.
TCL: Setting parameter langevinTemp to 180
TCL: Running for 50000 steps
ETITLE: TS BOND ANGLE DIHED IMPRP ELECT VDW BOUNDARY MISC KINETIC TOTAL TEMP POTENTIAL TOTAL3 TEMPAVG PRESSURE GPRESSURE VOLUME PRESSAVG GPRESSAVG
ENERGY: 125000 1.8197 4.4625 5.2369 0.0000 -23854.4748 3902.4737 0.0000 0.0000 1543.3796 -18397.1025 147.8234 -19940.4820 -18393.8506 147.8234 -355.4619 -302.1848 51522.7994 -355.4619 -302.1848
ENERGY: 135000 1.6176 7.8078 3.0816 0.0000 -23210.7691 3739.4208 0.0000 0.0000 1925.8620 -17532.9794 184.4571 -19458.8414 -17526.8876 179.3482 -155.7419 -87.9677 51820.4165 3.2751 3.0895
ENERGY: 145000 3.1729 4.5238 2.9674 0.0000 -23157.0159 3671.1546 0.0000 0.0000 1896.3783 -17578.8189 181.6332 -19475.1972 -17571.7257 180.4206 -176.3184 -153.2853 50957.6816 3.4894 4.0408
ENERGY: 155000 1.3001 5.7493 2.2529 0.0000 -23255.2408 3781.9000 0.0000 0.0000 1863.3642 -17600.6743 178.4712 -19464.0384 -17596.8455 178.4001 430.4978 494.6733 50523.6172 4.5320 4.7562
ENERGY: 165000 1.3753 3.4912 3.8178 0.0000 -23246.9917 3715.9705 0.0000 0.0000 1831.2656 -17691.0712 175.3968 -19522.3368 -17685.5987 179.9879 -321.3580 -243.5061 51381.3276 -3.6390 -3.7348
ENERGY: 175000 1.5036 5.2027 2.0442 0.0000 -23130.3139 3570.7491 0.0000 0.0000 1869.8258 -17680.9884 179.0901 -19550.8142 -17676.3182 179.7357 -885.4116 -814.8986 51229.4597 2.3792 1.9946
TCL: Running 50000 steps at 210 kelvin.
TCL: Setting parameter langevinTemp to 210
TCL: Running for 50000 steps
ETITLE: TS BOND ANGLE DIHED IMPRP ELECT VDW BOUNDARY MISC KINETIC TOTAL TEMP POTENTIAL TOTAL3 TEMPAVG PRESSURE GPRESSURE VOLUME PRESSAVG GPRESSAVG
ENERGY: 175000 1.5036 5.2027 2.0442 0.0000 -23130.3139 3570.7491 0.0000 0.0000 1868.9151 -17681.8991 179.0028 -19550.8142 -17677.2617 179.0028 -884.9960 -816.3730 51229.4597 -884.9960 -816.3730
ENERGY: 185000 1.5529 6.3452 5.1866 0.0000 -22171.0644 3337.3828 0.0000 0.0000 2202.0145 -16618.5823 210.9068 -18820.5969 -16613.9591 209.9031 -489.9218 -401.5382 51378.4936 3.7111 3.1783
ENERGY: 195000 2.0962 5.2008 1.6650 0.0000 -22076.8294 3377.2811 0.0000 0.0000 2200.0335 -16490.5529 210.7170 -18690.5864 -16485.5293 209.3627 -78.1161 -24.1646 51510.3234 -0.7739 -0.5060
ENERGY: 205000 2.9795 5.1654 2.7071 0.0000 -22064.8783 3351.0517 0.0000 0.0000 2182.6864 -16520.2882 209.0555 -18702.9746 -16511.3922 210.8689 -154.1437 -62.1440 51106.3649 7.7874 7.5249
ENERGY: 215000 2.4096 6.7850 4.1668 0.0000 -22264.8917 3431.9530 0.0000 0.0000 2181.8261 -16637.7511 208.9731 -18819.5772 -16633.7422 209.6062 85.9621 182.5762 50868.8888 2.3182 2.4402
ENERGY: 225000 1.2785 5.6659 2.4993 0.0000 -22170.3770 3450.3703 0.0000 0.0000 2193.1118 -16517.4512 210.0541 -18710.5630 -16513.0350 209.2520 103.7491 172.5878 51718.0910 5.1655 5.1490
TCL: Running 50000 steps at 240 kelvin.
TCL: Setting parameter langevinTemp to 240
TCL: Running for 50000 steps
ETITLE: TS BOND ANGLE DIHED IMPRP ELECT VDW BOUNDARY MISC KINETIC TOTAL TEMP POTENTIAL TOTAL3 TEMPAVG PRESSURE GPRESSURE VOLUME PRESSAVG GPRESSAVG
ENERGY: 225000 1.2785 5.6659 2.4993 0.0000 -22170.3770 3450.3703 0.0000 0.0000 2192.0128 -16518.5502 209.9488 -18710.5630 -16514.7377 209.9488 102.7461 172.0989 51718.0910 102.7461 172.0989
ENERGY: 235000 4.0161 5.7364 4.0080 0.0000 -20958.8504 2990.9270 0.0000 0.0000 2541.2141 -15412.9487 243.3950 -17954.1628 -15407.4470 239.0720 -400.3045 -274.4001 51561.0514 5.1910 4.9742
ENERGY: 245000 2.9465 7.0925 4.0579 0.0000 -21031.4295 3086.4070 0.0000 0.0000 2511.3404 -15419.5852 240.5337 -17930.9255 -15413.2556 239.5533 96.7238 180.2916 51688.7685 -0.0518 0.3304
ENERGY: 255000 1.8196 5.8791 3.6947 0.0000 -20925.4160 3042.2482 0.0000 0.0000 2561.6541 -15310.1204 245.3527 -17871.7745 -15305.8222 241.9632 -345.9381 -252.5860 52398.8075 6.5261 6.1376
ENERGY: 265000 2.6279 6.0550 4.4564 0.0000 -20983.9915 3020.2873 0.0000 0.0000 2508.1091 -15442.4558 240.2242 -17950.5650 -15437.6229 241.1488 -17.7686 32.7823 51303.0278 1.1347 0.8708
ENERGY: 275000 7.1292 6.7586 1.8058 0.0000 -20965.0566 3023.9352 0.0000 0.0000 2550.1904 -15375.2373 244.2547 -17925.4277 -15369.2697 240.7993 -225.0608 -102.0592 51250.8051 1.2797 0.9620
TCL: Running 50000 steps at 270 kelvin.
TCL: Setting parameter langevinTemp to 270
TCL: Running for 50000 steps
ETITLE: TS BOND ANGLE DIHED IMPRP ELECT VDW BOUNDARY MISC KINETIC TOTAL TEMP POTENTIAL TOTAL3 TEMPAVG PRESSURE GPRESSURE VOLUME PRESSAVG GPRESSAVG
ENERGY: 275000 7.1292 6.7586 1.8058 0.0000 -20965.0566 3023.9352 0.0000 0.0000 2548.9341 -15376.4936 244.1344 -17925.4277 -15372.3607 244.1344 -192.2888 -101.2730 51250.8051 -192.2888 -101.2730
ENERGY: 285000 1.6544 7.0183 3.1365 0.0000 -19919.0135 2717.8799 0.0000 0.0000 2811.1366 -14378.1879 269.2479 -17189.3245 -14372.6888 270.4419 -489.5575 -397.1541 52983.9489 -1.5718 -1.2295
ENERGY: 295000 2.3562 6.8612 1.4172 0.0000 -20032.4033 2807.8038 0.0000 0.0000 2746.9692 -14466.9957 263.1020 -17213.9649 -14460.2792 271.2162 -46.4120 61.5599 52562.1921 2.1415 1.5314
ENERGY: 305000 1.9793 9.1205 3.7727 0.0000 -19965.4807 2766.0172 0.0000 0.0000 2858.2411 -14326.3499 273.7595 -17184.5910 -14322.1971 270.5065 -35.6228 51.7941 52633.7134 2.4730 1.9043
ENERGY: 315000 9.6218 7.7973 4.1954 0.0000 -19982.0347 2795.9012 0.0000 0.0000 2830.7497 -14333.7693 271.1264 -17164.5191 -14326.1021 271.8309 -97.5912 31.5018 52458.3557 2.0209 1.7471
ENERGY: 325000 2.2502 8.3157 2.8256 0.0000 -20081.7162 2936.4719 0.0000 0.0000 2820.0574 -14311.7953 270.1023 -17131.8527 -14309.1549 271.4198 764.5032 800.9252 52429.5133 -1.7921 -2.2086
TCL: Running 1000000 steps at 300 kelvin.
TCL: Setting parameter langevinTemp to 300
TCL: Running for 1000000 steps
ETITLE: TS BOND ANGLE DIHED IMPRP ELECT VDW BOUNDARY MISC KINETIC TOTAL TEMP POTENTIAL TOTAL3 TEMPAVG PRESSURE GPRESSURE VOLUME PRESSAVG GPRESSAVG
ENERGY: 325000 2.2502 8.3157 2.8256 0.0000 -20081.7162 2936.4719 0.0000 0.0000 2818.6744 -14313.1784 269.9698 -17131.8527 -14308.5427 269.9698 718.6659 798.9419 52429.5133 718.6659 798.9419
ENERGY: 525000 3.4298 11.1798 2.1507 0.0000 -19100.9955 2621.4620 0.0000 0.0000 3137.4678 -13325.3054 300.5035 -16462.7733 -13319.4913 299.9454 50.6066 129.2900 54684.9624 0.5996 0.5951
ENERGY: 725000 3.4024 4.7613 2.8246 0.0000 -18886.0060 2511.4730 0.0000 0.0000 3150.3186 -13213.2261 301.7344 -16363.5447 -13208.2332 300.4409 -290.2280 -213.0401 54892.5003 1.0586 1.8828
ENERGY: 925000 2.4382 6.5709 1.5253 0.0000 -19030.2825 2479.4428 0.0000 0.0000 3223.4046 -13316.9009 308.7345 -16540.3055 -13311.6991 298.1507 -502.7429 -415.4122 54218.6250 0.8245 0.5705
ENERGY: 1125000 2.5165 9.1918 9.1943 0.0000 -18989.4069 2612.5727 0.0000 0.0000 3136.2991 -13219.6325 300.3916 -16355.9316 -13215.0239 300.7030 297.6839 378.0972 54519.4547 2.6119 2.3675
ENERGY: 1325000 2.5344 7.9283 8.2558 0.0000 -18910.9066 2433.6024 0.0000 0.0000 3103.7335 -13354.8522 297.2725 -16458.5857 -13346.4568 300.1704 -535.3475 -449.7335 53792.2739 1.6793 1.5619
TCL: Exiting due to exit command.
