Info: SIMULATION PARAMETERS:
Info: TIMESTEP               1
Info: NUMBER OF STEPS        0
Info: STEPS PER CYCLE        10
Info: PERIODIC CELL BASIS 1  30 0 0
Info: PERIODIC CELL BASIS 2  0 30 0
Info: PERIODIC CELL BASIS 3  0 0 30
Info: PERIODIC CELL CENTER   0 0 0
Info: WRAPPING ALL CLUSTERS AROUND PERIODIC BOUNDARIES ON OUTPUT.
Info: FIRST LDB TIMESTEP     50
Info: LAST LDB TIMESTEP     -1
Info: HOM BACKGROUND SCALING 1
Info: MIN ATOMS PER PATCH    40
Info: EMPTY PATCH LOAD       40 ATOMS
Info: INITIAL TEMPERATURE    298
Info: CENTER OF MASS MOVING INITIALLY? NO
Info: DIELECTRIC             1
Info: EXCLUDE                SCALED ONE-FOUR
Info: 1-4 ELECTROSTATICS SCALED BY 1
Info: MODIFIED 1-4 VDW PARAMETERS WILL BE USED
Info: DCD FILENAME           output.dcd
Info: DCD FREQUENCY          250
Info: DCD FIRST STEP         250
Info: DCD FILE WILL CONTAIN UNIT CELL DATA
Info: NO EXTENDED SYSTEM TRAJECTORY OUTPUT
Info: NO VELOCITY DCD OUTPUT
Info: NO FORCE DCD OUTPUT
Info: OUTPUT FILENAME        output
Info: BINARY OUTPUT FILES WILL BE USED
Info: NO RESTART FILE
Info: SWITCHING ACTIVE
Info: SWITCHING ON           10
Info: SWITCHING OFF          12
Info: PAIRLIST DISTANCE      14
Info: PAIRLIST SHRINK RATE   0.01
Info: PAIRLIST GROW RATE     0.01
Info: PAIRLIST TRIGGER       0.3
Info: PAIRLISTS PER CYCLE    2
Info: PAIRLISTS ENABLED
Info: MARGIN                 0.495
Info: HYDROGEN GROUP CUTOFF  2.5
Info: PATCH DIMENSION        16.995
Info: ENERGY OUTPUT STEPS    250
Info: ENERGY EVALUATION STEPS    250
Info: OUTPUT ENERGY PRECISION 4
Info: CROSSTERM ENERGY INCLUDED IN DIHEDRAL
Info: TIMING OUTPUT STEPS    250
Info: LANGEVIN DYNAMICS ACTIVE
Info: LANGEVIN TEMPERATURE   298
Info: LANGEVIN USING BBK INTEGRATOR
Info: LANGEVIN DAMPING COEFFICIENT IS 1 INVERSE PS
Info: LANGEVIN DYNAMICS NOT APPLIED TO HYDROGENS
Info: LANGEVIN PISTON PRESSURE CONTROL ACTIVE
Info:        TARGET PRESSURE IS 1.01325 BAR
Info:     OSCILLATION PERIOD IS 100 FS
Info:             DECAY TIME IS 50 FS
Info:     PISTON TEMPERATURE IS 298 K
Info:       PRESSURE CONTROL IS GROUP-BASED
Info:    INITIAL STRAIN RATE IS 0 0 0
Info:       CELL FLUCTUATION IS ISOTROPIC
Info: MULTILEVEL SUMMATION METHOD (MSM) FOR ELECTROSTATICS ACTIVE
Info: MSM WITH C1 CUBIC INTERPOLATION AND C2 TAYLOR SPLITTING
Info: FULL ELECTROSTATIC EVALUATION FREQUENCY      1
Info: USING VERLET I (r-RESPA) MTS SCHEME.
Info: C1 SPLITTING OF LONG RANGE ELECTROSTATICS
Info: PLACING ATOMS IN PATCHES BY HYDROGEN GROUPS
Info: RIGID BONDS TO HYDROGEN : ALL
Info:         ERROR TOLERANCE : 1e-08
Info:          MAX ITERATIONS : 100
Info: RIGID WATER USING SETTLE ALGORITHM
Info: RANDOM NUMBER SEED     1740294184
Info: USE HYDROGEN BONDS?    NO
Info: COORDINATE PDB         ionized.pdb
Info: STRUCTURE FILE         ionized.psf
Info: PARAMETER file: CHARMM format!
Info: PARAMETERS             par_all27_prot_lipid.inp
Info: USING ARITHMETIC MEAN TO COMBINE L-J SIGMA PARAMETERS
Info: SUMMARY OF PARAMETERS:
Info: 180 BONDS
Info: 447 ANGLES
Info: 566 DIHEDRAL
Info: 46 IMPROPER
Info: 6 CROSSTERM
Info: 119 VDW
Info: 0 VDW_PAIRS
Info: 0 NBTHOLE_PAIRS
Info: STRUCTURE SUMMARY:
Info: 2478 ATOMS
Info: 1652 BONDS
Info: 826 ANGLES
Info: 0 DIHEDRALS
Info: 0 IMPROPERS
Info: 0 CROSSTERMS
Info: 0 EXCLUSIONS
Info: 2478 RIGID BONDS
Info: 4956 DEGREES OF FREEDOM
Info: 826 HYDROGEN GROUPS
Info: 3 ATOMS IN LARGEST HYDROGEN GROUP
Info: 826 MIGRATION GROUPS
Info: 3 ATOMS IN LARGEST MIGRATION GROUP
Info: TOTAL MASS = 14880.7 amu
Info: TOTAL CHARGE = 0 e
Info: MASS DENSITY = 0.915207 g/cm^3
Info: ATOM DENSITY = 0.0917778 atoms/A^3
Info: ADDED 2478 IMPLICIT EXCLUSIONS
Info: NONBONDED TABLE R-SQUARED SPACING: 0.0625
Info: NONBONDED TABLE SIZE: 769 POINTS
Info: REMOVING COM VELOCITY 0.0611521 0.149176 -0.138429
Info: MSM using C1 cubic interpolation
Info: MSM using C2 Taylor splitting function
Info: MSM block size decomposition along X is 8 grid points
Info: MSM block size decomposition along Y is 8 grid points
Info: MSM block size decomposition along Z is 8 grid points
Info: MSM grid spacing along X is 2.5 A
Info: MSM grid spacing along Y is 2.5 A
Info: MSM grid spacing along Z is 2.5 A
Info: MSM using 3 levels
Info:     level 0:  [0..11] x [0..11] x [0..11]
Info:     level 1:  [0..5] x [0..5] x [0..5]
Info:     level 2:  [0..2] x [0..2] x [0..2]
Info: MSM finished calculating stencils
Info: MSM finished creating map for grid levels
Info: MSM finished creating map for patches
Info: MSM has 9 interpolation / anterpolation objects (one per patch)
Info: MSM grid level 0 decomposed into 8 blocks ( 2 x 2 x 2 )
Info: MSM grid level 1 decomposed into 1 block ( 1 x 1 x 1 )
Info: MSM grid level 2 decomposed into 1 block ( 1 x 1 x 1 )
Info: MSM grid cutoff calculation decomposed into 783 work objects
TCL: Minimizing for 1000 steps
ETITLE: TS BOND ANGLE DIHED IMPRP ELECT VDW BOUNDARY MISC KINETIC TOTAL TEMP POTENTIAL TOTAL3 TEMPAVG PRESSURE GPRESSURE VOLUME PRESSAVG GPRESSAVG
ENERGY: 0 0.0000 0.0000 0.0000 0.0000 -7442.5560 6358.5112 0.0000 0.0000 0.0000 -1084.0447 0.0000 -1084.0447 -1084.0447 0.0000 75224.8790 46167.8622 27000.0000 75224.8790 46167.8622
ENERGY: 200 0.0000 0.0000 0.0000 0.0000 -10584.9387 1093.9394 0.0000 0.0000 0.0000 -9490.9993 0.0000 -9490.9993 -9490.9993 0.0000 18749.8605 18692.0843 27000.0000 18749.8605 18692.0843
ENERGY: 400 0.0000 0.0000 0.0000 0.0000 -10970.0226 1262.5186 0.0000 0.0000 0.0000 -9707.5040 0.0000 -9707.5040 -9707.5040 0.0000 20689.0097 20612.0659 27000.0000 20689.0097 20612.0659
ENERGY: 600 0.0000 0.0000 0.0000 0.0000 -11099.5163 1297.9668 0.0000 0.0000 0.0000 -9801.5494 0.0000 -9801.5494 -9801.5494 0.0000 21121.5496 21035.4428 27000.0000 21121.5496 21035.4428
ENERGY: 800 0.0000 0.0000 0.0000 0.0000 -11183.4445 1322.0536 0.0000 0.0000 0.0000 -9861.3909 0.0000 -9861.3909 -9861.3909 0.0000 21395.2211 21308.6943 27000.0000 21395.2211 21308.6943
ENERGY: 1000 0.0000 0.0000 0.0000 0.0000 -11231.7068 1340.7950 0.0000 0.0000 0.0000 -9890.9118 0.0000 -9890.9118 -9890.9118 0.0000 21583.7908 21509.7366 27000.0000 21583.7908 21509.7366
TCL: Running for 50000 steps
ETITLE: TS BOND ANGLE DIHED IMPRP ELECT VDW BOUNDARY MISC KINETIC TOTAL TEMP POTENTIAL TOTAL3 TEMPAVG PRESSURE GPRESSURE VOLUME PRESSAVG GPRESSAVG
ENERGY: 1000 0.0000 0.0000 0.0000 0.0000 -11231.7068 1340.7950 0.0000 0.0000 1441.8563 -8449.0555 292.8067 -9890.9118 -8449.2654 292.8067 -2463.8519 -2463.8519 27000.0000 -2463.8519 -2463.8519
ENERGY: 11000 0.0000 0.0000 0.0000 0.0000 -9185.6071 924.2939 0.0000 0.0000 1456.9018 -6804.4114 295.8621 -8261.3132 -6802.7842 292.1562 200.4344 200.5529 24254.6122 47.3535 47.5440
ENERGY: 21000 0.0000 0.0000 0.0000 0.0000 -9017.5041 880.4227 0.0000 0.0000 1473.0499 -6664.0315 299.1414 -8137.0814 -6662.7503 302.2024 -269.5964 -269.0480 24713.7400 14.4175 15.3346
ENERGY: 31000 0.0000 0.0000 0.0000 0.0000 -8876.2164 858.5134 0.0000 0.0000 1446.7605 -6570.9426 293.8027 -8017.7031 -6569.7875 300.5441 -136.9624 -129.2921 24756.3798 21.7561 21.9365
ENERGY: 41000 0.0000 0.0000 0.0000 0.0000 -9003.5387 883.8673 0.0000 0.0000 1466.9799 -6652.6915 297.9088 -8119.6715 -6651.5774 297.8624 -126.6733 -121.7578 24625.1721 -11.0826 -11.4518
ENERGY: 51000 0.0000 0.0000 0.0000 0.0000 -9102.4982 920.5384 0.0000 0.0000 1434.6767 -6747.2832 291.3487 -8181.9599 -6746.1698 296.0777 86.7614 61.0172 24559.1180 40.0643 40.2326
