Info: SIMULATION PARAMETERS:
Info: TIMESTEP               2
Info: NUMBER OF STEPS        0
Info: STEPS PER CYCLE        10
Info: PERIODIC CELL BASIS 1  34.986 0 0
Info: PERIODIC CELL BASIS 2  0 34.26 0
Info: PERIODIC CELL BASIS 3  0 0 36.199
Info: PERIODIC CELL CENTER   0 0 0
Info: WRAPPING WATERS AROUND PERIODIC BOUNDARIES ON OUTPUT.
Info: WRAPPING ALL CLUSTERS AROUND PERIODIC BOUNDARIES ON OUTPUT.
Info: FIRST LDB TIMESTEP     50
Info: LAST LDB TIMESTEP     -1
Info: HOM BACKGROUND SCALING 1
Info: PME BACKGROUND SCALING 1
Info: MIN ATOMS PER PATCH    40
Info: EMPTY PATCH LOAD       40 ATOMS
Info: INITIAL TEMPERATURE    300
Info: CENTER OF MASS MOVING INITIALLY? NO
Info: DIELECTRIC             1
Info: EXCLUDE                SCALED ONE-FOUR
Info: 1-4 ELECTROSTATICS SCALED BY 0.833333
Info: MODIFIED 1-4 VDW PARAMETERS WILL BE USED
Info: DCD FILENAME           mobley_4291494_equil.dcd
Info: DCD FREQUENCY          100000
Info: DCD FIRST STEP         100000
Info: DCD FILE WILL CONTAIN UNIT CELL DATA
Info: XST FILENAME           mobley_4291494_equil.xst
Info: XST FREQUENCY          100000
Info: NO VELOCITY DCD OUTPUT
Info: NO FORCE DCD OUTPUT
Info: OUTPUT FILENAME        mobley_4291494_equil
Info: BINARY OUTPUT FILES WILL BE USED
Info: RESTART FILENAME       mobley_4291494_equil.restart
Info: RESTART FREQUENCY      100000
Info: BINARY RESTART FILES WILL BE USED
Info: CUTOFF                 9
Info: PAIRLIST DISTANCE      11
Info: PAIRLIST SHRINK RATE   0.01
Info: PAIRLIST GROW RATE     0.01
Info: PAIRLIST TRIGGER       0.3
Info: PAIRLISTS PER CYCLE    2
Info: PAIRLISTS ENABLED
Info: MARGIN                 8
Info: HYDROGEN GROUP CUTOFF  2.5
Info: PATCH DIMENSION        21.5
Info: ENERGY OUTPUT STEPS    100000
Info: ENERGY EVALUATION STEPS    100000
Info: OUTPUT ENERGY PRECISION 4
Info: CROSSTERM ENERGY INCLUDED IN DIHEDRAL
Info: TIMING OUTPUT STEPS    1000000
Info: PRESSURE OUTPUT STEPS  100000
Info: FIXED ATOMS ACTIVE
Info: LANGEVIN DYNAMICS ACTIVE
Info: LANGEVIN TEMPERATURE   30
Info: LANGEVIN USING BBK INTEGRATOR
Info: LANGEVIN DAMPING COEFFICIENT IS 1 INVERSE PS
Info: LANGEVIN DYNAMICS APPLIED TO HYDROGENS
Info: LANGEVIN PISTON PRESSURE CONTROL ACTIVE
Info:        TARGET PRESSURE IS 1.01325 BAR
Info:     OSCILLATION PERIOD IS 50 FS
Info:             DECAY TIME IS 25 FS
Info:     PISTON TEMPERATURE IS 300 K
Info:       PRESSURE CONTROL IS GROUP-BASED
Info:    INITIAL STRAIN RATE IS 0 0 0
Info:       CELL FLUCTUATION IS ISOTROPIC
Info: PARTICLE MESH EWALD (PME) ACTIVE
Info: PME TOLERANCE               1e-06
Info: PME EWALD COEFFICIENT       0.348832
Info: PME INTERPOLATION ORDER     4
Info: PME GRID DIMENSIONS         36 36 40
Info: PME MAXIMUM GRID SPACING    1
Info: FULL ELECTROSTATIC EVALUATION FREQUENCY      2
Info: USING VERLET I (r-RESPA) MTS SCHEME.
Info: C1 SPLITTING OF LONG RANGE ELECTROSTATICS
Info: PLACING ATOMS IN PATCHES BY HYDROGEN GROUPS
Info: RIGID BONDS TO HYDROGEN : ALL
Info:         ERROR TOLERANCE : 1e-08
Info:          MAX ITERATIONS : 100
Info: RIGID WATER USING SETTLE ALGORITHM
Info: RANDOM NUMBER SEED     1742016149
Info: USE HYDROGEN BONDS?    NO
Info: Using AMBER format force field!
Info: AMBER PARM FILE        mobley_4291494.prmtop
Info: COORDINATE PDB         mobley_4291494.pdb
Info: Exclusions will be read from PARM file!
Info: SCNB (VDW SCALING)     2
Info: USING ARITHMETIC MEAN TO COMBINE L-J SIGMA PARAMETERS
Info: BINARY COORDINATES     mobley_4291494_min.coor
Info: SUMMARY OF PARAMETERS:
Info: 7 BONDS
Info: 8 ANGLES
Info:   8 HARMONIC
Info:   0 COSINE-BASED
Info: 3 DIHEDRAL
Info: 0 IMPROPER
Info: 0 CROSSTERM
Info: 0 VDW
Info: 28 VDW_PAIRS
Info: 0 NBTHOLE_PAIRS
Info: STRUCTURE SUMMARY:
Info: 2966 ATOMS
Info: 2966 BONDS
Info: 16 ANGLES
Info: 23 DIHEDRALS
Info: 0 IMPROPERS
Info: 0 CROSSTERMS
Info: 2999 EXCLUSIONS
Info: 11 FIXED ATOMS
Info: 2959 RIGID BONDS
Info: 4 RIGID BONDS BETWEEN FIXED ATOMS
Info: 5910 DEGREES OF FREEDOM
Info: 992 HYDROGEN GROUPS
Info: 3 ATOMS IN LARGEST HYDROGEN GROUP
Info: 992 MIGRATION GROUPS
Info: 3 ATOMS IN LARGEST MIGRATION GROUP
Info: 7 HYDROGEN GROUPS WITH ALL ATOMS FIXED
Info: TOTAL MASS = 17859.3 amu
Info: TOTAL CHARGE = 9.99942e-05 e
Info: MASS DENSITY = 0.683511 g/cm^3
Info: ATOM DENSITY = 0.0683586 atoms/A^3
Info: ADDED 0 IMPLICIT EXCLUSIONS
Info: NONBONDED TABLE R-SQUARED SPACING: 0.0625
Info: NONBONDED TABLE SIZE: 705 POINTS
Info: REMOVING COM VELOCITY -0.0520751 -0.217352 0.115161
TCL: Running for 100000 steps
ETITLE: TS BOND ANGLE DIHED IMPRP ELECT VDW BOUNDARY MISC KINETIC TOTAL TEMP POTENTIAL TOTAL3 TEMPAVG PRESSURE GPRESSURE VOLUME PRESSAVG GPRESSAVG
ENERGY: 0 0.0000 0.0000 0.0000 0.0000 -13822.0808 2388.2028 0.0000 0.0000 1807.2305 -9626.6475 307.7630 -11433.8780 -9626.2771 307.7630 349.0899 382.3204 43388.8584 349.0899 382.3204
ENERGY: 100000 0.0000 0.0000 0.0000 0.0000 -14195.8353 2299.1264 0.0000 0.0000 179.2729 -11717.4360 30.5294 -11896.7089 -11717.0497 30.9537 -1649.1262 -1562.7590 29516.9387 4.0699 4.1397
TCL: Running 100000 steps at 60 kelvin.
TCL: Setting parameter langevinTemp to 60
TCL: Running for 100000 steps
ETITLE: TS BOND ANGLE DIHED IMPRP ELECT VDW BOUNDARY MISC KINETIC TOTAL TEMP POTENTIAL TOTAL3 TEMPAVG PRESSURE GPRESSURE VOLUME PRESSAVG GPRESSAVG
ENERGY: 100000 0.0000 0.0000 0.0000 0.0000 -14195.8353 2299.1264 0.0000 0.0000 179.1888 -11717.5201 30.5150 -11896.7089 -11717.0181 30.5150 -1628.6630 -1562.8692 29516.9387 -1628.6630 -1562.8692
ENERGY: 200000 0.0000 0.0000 0.0000 0.0000 -14298.6321 2466.5645 0.0000 0.0000 346.9804 -11485.0872 59.0892 -11832.0676 -11484.4957 59.9870 238.9745 293.1580 28684.7191 3.9174 3.8767
TCL: Running 100000 steps at 90 kelvin.
TCL: Setting parameter langevinTemp to 90
TCL: Running for 100000 steps
ETITLE: TS BOND ANGLE DIHED IMPRP ELECT VDW BOUNDARY MISC KINETIC TOTAL TEMP POTENTIAL TOTAL3 TEMPAVG PRESSURE GPRESSURE VOLUME PRESSAVG GPRESSAVG
ENERGY: 200000 0.0000 0.0000 0.0000 0.0000 -14298.6321 2466.5645 0.0000 0.0000 346.8009 -11485.2667 59.0586 -11832.0676 -11484.4535 59.0586 226.3491 292.6224 28684.7191 226.3491 292.6224
ENERGY: 300000 0.0000 0.0000 0.0000 0.0000 -14048.7152 2366.9536 0.0000 0.0000 540.0628 -11141.6988 91.9702 -11681.7616 -11140.2583 89.9601 -37.4867 39.6341 28837.0541 4.0239 4.0587
TCL: Running 100000 steps at 120 kelvin.
TCL: Setting parameter langevinTemp to 120
TCL: Running for 100000 steps
ETITLE: TS BOND ANGLE DIHED IMPRP ELECT VDW BOUNDARY MISC KINETIC TOTAL TEMP POTENTIAL TOTAL3 TEMPAVG PRESSURE GPRESSURE VOLUME PRESSAVG GPRESSAVG
ENERGY: 300000 0.0000 0.0000 0.0000 0.0000 -14048.7152 2366.9536 0.0000 0.0000 539.7979 -11141.9638 91.9251 -11681.7616 -11140.8525 91.9251 -17.7852 40.2777 28837.0541 -17.7852 40.2777
ENERGY: 400000 0.0000 0.0000 0.0000 0.0000 -13962.4997 2394.4659 0.0000 0.0000 707.5608 -10860.4731 120.4943 -11568.0338 -10859.1311 120.0985 546.7540 596.9361 28940.6797 5.1446 5.1929
TCL: Running 100000 steps at 150 kelvin.
TCL: Setting parameter langevinTemp to 150
TCL: Running for 100000 steps
ETITLE: TS BOND ANGLE DIHED IMPRP ELECT VDW BOUNDARY MISC KINETIC TOTAL TEMP POTENTIAL TOTAL3 TEMPAVG PRESSURE GPRESSURE VOLUME PRESSAVG GPRESSAVG
ENERGY: 400000 0.0000 0.0000 0.0000 0.0000 -13962.4997 2394.4659 0.0000 0.0000 707.1925 -10860.8414 120.4316 -11568.0338 -10859.6749 120.4316 548.8095 597.3487 28940.6797 548.8095 597.3487
ENERGY: 500000 0.0000 0.0000 0.0000 0.0000 -13793.2027 2366.6465 0.0000 0.0000 884.5004 -10542.0558 150.6263 -11426.5561 -10539.7770 149.9128 1014.7319 1050.6120 28574.8134 4.6476 4.7077
TCL: Running 100000 steps at 180 kelvin.
TCL: Setting parameter langevinTemp to 180
TCL: Running for 100000 steps
ETITLE: TS BOND ANGLE DIHED IMPRP ELECT VDW BOUNDARY MISC KINETIC TOTAL TEMP POTENTIAL TOTAL3 TEMPAVG PRESSURE GPRESSURE VOLUME PRESSAVG GPRESSAVG
ENERGY: 500000 0.0000 0.0000 0.0000 0.0000 -13793.2027 2366.6465 0.0000 0.0000 884.0576 -10542.4985 150.5509 -11426.5561 -10540.8418 150.5509 1013.2392 1050.0003 28574.8134 1013.2392 1050.0003
ENERGY: 600000 0.0000 0.0000 0.0000 0.0000 -13097.2708 2011.2604 0.0000 0.0000 1082.2424 -10003.7680 184.3009 -11086.0104 -10001.9713 179.9848 -561.0854 -509.1250 28667.7623 4.3688 4.3682
TCL: Running 100000 steps at 210 kelvin.
TCL: Setting parameter langevinTemp to 210
TCL: Running for 100000 steps
ETITLE: TS BOND ANGLE DIHED IMPRP ELECT VDW BOUNDARY MISC KINETIC TOTAL TEMP POTENTIAL TOTAL3 TEMPAVG PRESSURE GPRESSURE VOLUME PRESSAVG GPRESSAVG
ENERGY: 600000 0.0000 0.0000 0.0000 0.0000 -13097.2708 2011.2604 0.0000 0.0000 1081.7183 -10004.2921 184.2116 -11086.0104 -10002.0097 184.2116 -568.4654 -510.2397 28667.7623 -568.4654 -510.2397
ENERGY: 700000 0.0000 0.0000 0.0000 0.0000 -12620.4967 2036.1119 0.0000 0.0000 1175.2336 -9409.1512 200.1369 -10584.3848 -9406.9324 209.7509 1210.4102 1272.8237 28934.0956 4.4061 4.2540
TCL: Running 100000 steps at 240 kelvin.
TCL: Setting parameter langevinTemp to 240
TCL: Running for 100000 steps
ETITLE: TS BOND ANGLE DIHED IMPRP ELECT VDW BOUNDARY MISC KINETIC TOTAL TEMP POTENTIAL TOTAL3 TEMPAVG PRESSURE GPRESSURE VOLUME PRESSAVG GPRESSAVG
ENERGY: 700000 0.0000 0.0000 0.0000 0.0000 -12620.4967 2036.1119 0.0000 0.0000 1174.6139 -9409.7708 200.0313 -10584.3848 -9408.1875 200.0313 1192.9100 1273.7778 28934.0956 1192.9100 1273.7778
ENERGY: 800000 0.0000 0.0000 0.0000 0.0000 -11914.0683 1668.9170 0.0000 0.0000 1419.6112 -8825.5400 241.7533 -10245.1513 -8821.7350 239.5899 -828.9660 -711.2815 29493.8438 3.3807 3.1999
TCL: Running 100000 steps at 270 kelvin.
TCL: Setting parameter langevinTemp to 270
TCL: Running for 100000 steps
ETITLE: TS BOND ANGLE DIHED IMPRP ELECT VDW BOUNDARY MISC KINETIC TOTAL TEMP POTENTIAL TOTAL3 TEMPAVG PRESSURE GPRESSURE VOLUME PRESSAVG GPRESSAVG
ENERGY: 800000 0.0000 0.0000 0.0000 0.0000 -11914.0683 1668.9170 0.0000 0.0000 1418.8793 -8826.2719 241.6286 -10245.1512 -8823.5477 241.6286 -784.4492 -711.1697 29493.8438 -784.4492 -711.1697
ENERGY: 900000 0.0000 0.0000 0.0000 0.0000 -11422.2930 1557.6782 0.0000 0.0000 1629.0918 -8235.5231 277.4268 -9864.6149 -8233.5352 269.2472 -195.1489 -50.4305 29349.3157 3.7854 3.7985
TCL: Running 1000000 steps at 300 kelvin.
TCL: Setting parameter langevinTemp to 300
TCL: Running for 1000000 steps
ETITLE: TS BOND ANGLE DIHED IMPRP ELECT VDW BOUNDARY MISC KINETIC TOTAL TEMP POTENTIAL TOTAL3 TEMPAVG PRESSURE GPRESSURE VOLUME PRESSAVG GPRESSAVG
ENERGY: 900000 0.0000 0.0000 0.0000 0.0000 -11422.2930 1557.6782 0.0000 0.0000 1628.2843 -8236.3306 277.2893 -9864.6149 -8233.5552 277.2893 -146.7772 -54.4894 29349.3157 -146.7772 -54.4894
ENERGY: 1100000 0.0000 0.0000 0.0000 0.0000 -10835.0012 1442.9703 0.0000 0.0000 1713.2450 -7678.7859 291.7577 -9392.0309 -7675.5902 300.4139 -234.8726 -165.8278 30884.9781 2.7133 2.9312
ENERGY: 1300000 0.0000 0.0000 0.0000 0.0000 -10828.7588 1454.6451 0.0000 0.0000 1755.0185 -7619.0951 298.8716 -9374.1137 -7616.3388 300.1922 211.5583 378.2247 30110.4602 3.7671 3.9921
ENERGY: 1500000 0.0000 0.0000 0.0000 0.0000 -10750.8552 1456.7333 0.0000 0.0000 1763.3649 -7530.7570 300.2929 -9294.1219 -7528.0556 299.4930 -192.5109 -127.2759 31756.0688 2.4119 2.4856
ENERGY: 1700000 0.0000 0.0000 0.0000 0.0000 -10777.3746 1324.1641 0.0000 0.0000 1771.7941 -7681.4164 301.7284 -9453.2104 -7676.9234 300.2539 -1110.8670 -968.9114 30604.9416 2.1037 2.1206
ENERGY: 1900000 0.0000 0.0000 0.0000 0.0000 -10848.5424 1430.0135 0.0000 0.0000 1737.4488 -7681.0801 295.8795 -9418.5289 -7677.8455 300.2855 -618.3651 -508.3030 31104.5964 3.7529 3.6132
TCL: Exiting due to exit command.
