Info: SIMULATION PARAMETERS:
Info: TIMESTEP               1
Info: NUMBER OF STEPS        0
Info: STEPS PER CYCLE        10
Info: PERIODIC CELL BASIS 1  30 0 0
Info: PERIODIC CELL BASIS 2  0 30 0
Info: PERIODIC CELL BASIS 3  0 0 30
Info: PERIODIC CELL CENTER   0 0 0
Info: WRAPPING ALL CLUSTERS AROUND PERIODIC BOUNDARIES ON OUTPUT.
Info: FIRST LDB TIMESTEP     50
Info: LAST LDB TIMESTEP     -1
Info: HOM BACKGROUND SCALING 1
Info: MIN ATOMS PER PATCH    40
Info: EMPTY PATCH LOAD       40 ATOMS
Info: INITIAL TEMPERATURE    298
Info: CENTER OF MASS MOVING INITIALLY? NO
Info: DIELECTRIC             1
Info: EXCLUDE                SCALED ONE-FOUR
Info: 1-4 ELECTROSTATICS SCALED BY 1
Info: MODIFIED 1-4 VDW PARAMETERS WILL BE USED
Info: DCD FILENAME           output.dcd
Info: DCD FREQUENCY          500
Info: DCD FIRST STEP         500
Info: DCD FILE WILL CONTAIN UNIT CELL DATA
Info: NO EXTENDED SYSTEM TRAJECTORY OUTPUT
Info: NO VELOCITY DCD OUTPUT
Info: NO FORCE DCD OUTPUT
Info: OUTPUT FILENAME        output
Info: BINARY OUTPUT FILES WILL BE USED
Info: NO RESTART FILE
Info: SWITCHING ACTIVE
Info: SWITCHING ON           10
Info: SWITCHING OFF          12
Info: PAIRLIST DISTANCE      14
Info: PAIRLIST SHRINK RATE   0.01
Info: PAIRLIST GROW RATE     0.01
Info: PAIRLIST TRIGGER       0.3
Info: PAIRLISTS PER CYCLE    2
Info: PAIRLISTS ENABLED
Info: MARGIN                 0
Info: HYDROGEN GROUP CUTOFF  2.5
Info: PATCH DIMENSION        16.5
Info: ENERGY OUTPUT STEPS    500
Info: ENERGY EVALUATION STEPS    500
Info: OUTPUT ENERGY PRECISION 4
Info: CROSSTERM ENERGY INCLUDED IN DIHEDRAL
Info: TIMING OUTPUT STEPS    500
Info: TEMPERATURE COUPLING ACTIVE
Info: COUPLING TEMPERATURE   298
Info: MULTILEVEL SUMMATION METHOD (MSM) FOR ELECTROSTATICS ACTIVE
Info: MSM WITH C1 CUBIC INTERPOLATION AND C2 TAYLOR SPLITTING
Info: FULL ELECTROSTATIC EVALUATION FREQUENCY      1
Info: USING VERLET I (r-RESPA) MTS SCHEME.
Info: C1 SPLITTING OF LONG RANGE ELECTROSTATICS
Info: PLACING ATOMS IN PATCHES BY HYDROGEN GROUPS
Info: RIGID BONDS TO HYDROGEN : ALL
Info:         ERROR TOLERANCE : 1e-08
Info:          MAX ITERATIONS : 100
Info: RIGID WATER USING SETTLE ALGORITHM
Info: RANDOM NUMBER SEED     1740278086
Info: USE HYDROGEN BONDS?    NO
Info: COORDINATE PDB         ionized.pdb
Info: STRUCTURE FILE         ionized.psf
Info: PARAMETER file: CHARMM format!
Info: PARAMETERS             par_all27_prot_lipid.inp
Info: USING ARITHMETIC MEAN TO COMBINE L-J SIGMA PARAMETERS
Info: SUMMARY OF PARAMETERS:
Info: 180 BONDS
Info: 447 ANGLES
Info: 566 DIHEDRAL
Info: 46 IMPROPER
Info: 6 CROSSTERM
Info: 119 VDW
Info: 0 VDW_PAIRS
Info: 0 NBTHOLE_PAIRS
Info: STRUCTURE SUMMARY:
Info: 2476 ATOMS
Info: 1650 BONDS
Info: 825 ANGLES
Info: 0 DIHEDRALS
Info: 0 IMPROPERS
Info: 0 CROSSTERMS
Info: 0 EXCLUSIONS
Info: 2475 RIGID BONDS
Info: 4950 DEGREES OF FREEDOM
Info: 826 HYDROGEN GROUPS
Info: 3 ATOMS IN LARGEST HYDROGEN GROUP
Info: 826 MIGRATION GROUPS
Info: 3 ATOMS IN LARGEST MIGRATION GROUP
Info: TOTAL MASS = 14885.7 amu
Info: TOTAL CHARGE = 1 e
Info: MASS DENSITY = 0.915513 g/cm^3
Info: ATOM DENSITY = 0.0917037 atoms/A^3
Info: ADDED 2475 IMPLICIT EXCLUSIONS
Info: NONBONDED TABLE R-SQUARED SPACING: 0.0625
Info: NONBONDED TABLE SIZE: 769 POINTS
Info: REMOVING COM VELOCITY 0.0676548 0.0543186 0.177957
Info: MSM using C1 cubic interpolation
Info: MSM using C2 Taylor splitting function
Info: MSM block size decomposition along X is 8 grid points
Info: MSM block size decomposition along Y is 8 grid points
Info: MSM block size decomposition along Z is 8 grid points
Info: MSM grid spacing along X is 2.5 A
Info: MSM grid spacing along Y is 2.5 A
Info: MSM grid spacing along Z is 2.5 A
Info: MSM using 3 levels
Info:     level 0:  [0..11] x [0..11] x [0..11]
Info:     level 1:  [0..5] x [0..5] x [0..5]
Info:     level 2:  [0..2] x [0..2] x [0..2]
Info: MSM finished calculating stencils
Info: MSM finished creating map for grid levels
Info: MSM finished creating map for patches
Info: MSM has 9 interpolation / anterpolation objects (one per patch)
Info: MSM grid level 0 decomposed into 8 blocks ( 2 x 2 x 2 )
Info: MSM grid level 1 decomposed into 1 block ( 1 x 1 x 1 )
Info: MSM grid level 2 decomposed into 1 block ( 1 x 1 x 1 )
Info: MSM grid cutoff calculation decomposed into 783 work objects
TCL: Minimizing for 1000 steps
ETITLE: TS BOND ANGLE DIHED IMPRP ELECT VDW BOUNDARY MISC KINETIC TOTAL TEMP POTENTIAL TOTAL3 TEMPAVG PRESSURE GPRESSURE VOLUME PRESSAVG GPRESSAVG
ENERGY: 0 0.0000 0.0000 0.0000 0.0000 -7348.6497 6353.7252 0.0000 0.0000 0.0000 -994.9245 0.0000 -994.9245 -994.9245 0.0000 75204.0846 46356.0498 27000.0000 75204.0846 46356.0498
ENERGY: 200 0.0000 0.0000 0.0000 0.0000 -10397.1599 1043.2904 0.0000 0.0000 0.0000 -9353.8695 0.0000 -9353.8695 -9353.8695 0.0000 18119.5534 18036.2549 27000.0000 18119.5534 18036.2549
ENERGY: 400 0.0000 0.0000 0.0000 0.0000 -10933.4677 1254.7044 0.0000 0.0000 0.0000 -9678.7633 0.0000 -9678.7633 -9678.7633 0.0000 20471.2032 20371.6410 27000.0000 20471.2032 20371.6410
ENERGY: 600 0.0000 0.0000 0.0000 0.0000 -11086.6127 1291.8312 0.0000 0.0000 0.0000 -9794.7815 0.0000 -9794.7815 -9794.7815 0.0000 20914.5029 20827.5563 27000.0000 20914.5029 20827.5563
ENERGY: 800 0.0000 0.0000 0.0000 0.0000 -11166.0610 1302.2826 0.0000 0.0000 0.0000 -9863.7784 0.0000 -9863.7784 -9863.7784 0.0000 21014.9252 20944.7878 27000.0000 21014.9252 20944.7878
ENERGY: 1000 0.0000 0.0000 0.0000 0.0000 -11254.3334 1336.5642 0.0000 0.0000 0.0000 -9917.7692 0.0000 -9917.7692 -9917.7692 0.0000 21398.0401 21320.0986 27000.0000 21398.0401 21320.0986
TCL: Running for 100000 steps
ETITLE: TS BOND ANGLE DIHED IMPRP ELECT VDW BOUNDARY MISC KINETIC TOTAL TEMP POTENTIAL TOTAL3 TEMPAVG PRESSURE GPRESSURE VOLUME PRESSAVG GPRESSAVG
ENERGY: 1000 0.0000 0.0000 0.0000 0.0000 -11254.3334 1336.5642 0.0000 0.0000 1461.8970 -8455.8722 297.2364 -9917.7692 -8456.0831 297.2364 -2561.0152 -2561.0152 27000.0000 -2561.0152 -2561.0152
ENERGY: 21000 0.0000 0.0000 0.0000 0.0000 -8717.0183 780.9093 0.0000 0.0000 1441.0521 -6495.0569 292.9981 -7936.1090 -6494.4088 299.3202 -1682.8052 -1682.7834 27000.0000 -1496.9389 -1496.9446
ENERGY: 41000 0.0000 0.0000 0.0000 0.0000 -8829.6002 870.1128 0.0000 0.0000 1453.5492 -6505.9382 295.5391 -7959.4875 -6505.2410 298.2090 -903.0582 -903.0475 27000.0000 -1189.3359 -1189.3366
ENERGY: 61000 0.0000 0.0000 0.0000 0.0000 -8804.8320 830.8637 0.0000 0.0000 1456.9075 -6517.0608 296.2219 -7973.9683 -6516.3648 298.2952 -1358.3851 -1358.3781 27000.0000 -1283.5742 -1283.5755
ENERGY: 81000 0.0000 0.0000 0.0000 0.0000 -8790.9974 792.2772 0.0000 0.0000 1495.6105 -6503.1098 304.0911 -7998.7202 -6502.3312 297.3776 -1841.8125 -1841.8387 27000.0000 -1495.5811 -1495.5785
ENERGY: 101000 0.0000 0.0000 0.0000 0.0000 -8759.7873 787.2057 0.0000 0.0000 1470.4250 -6502.1565 298.9703 -7972.5815 -6501.4373 296.6614 -1755.6966 -1755.7016 27000.0000 -1429.8622 -1429.8567
