Info: SIMULATION PARAMETERS:
Info: TIMESTEP               2
Info: NUMBER OF STEPS        0
Info: STEPS PER CYCLE        10
Info: PERIODIC CELL BASIS 1  80.0477 0 0
Info: PERIODIC CELL BASIS 2  0 80.0477 0
Info: PERIODIC CELL BASIS 3  0 0 80.0477
Info: PERIODIC CELL CENTER   34.089 34.089 34.089
Info: WRAPPING ALL CLUSTERS AROUND PERIODIC BOUNDARIES ON OUTPUT.
Info: FIRST LDB TIMESTEP     50
Info: LAST LDB TIMESTEP     -1
Info: HOM BACKGROUND SCALING 1
Info: PME BACKGROUND SCALING 1
Info: MIN ATOMS PER PATCH    40
Info: EMPTY PATCH LOAD       40 ATOMS
Info: VELOCITY FILE          mobley_4506634_equilibrated.vel
Info: CENTER OF MASS MOVING INITIALLY? NO
Info: DIELECTRIC             1
Info: EXCLUDE                SCALED ONE-FOUR
Info: 1-4 ELECTROSTATICS SCALED BY 1
Info: MODIFIED 1-4 VDW PARAMETERS WILL BE USED
Info: DCD FILENAME           mobley_4506634_backwards.dcd
Info: DCD FREQUENCY          500
Info: DCD FIRST STEP         500
Info: DCD FILE WILL CONTAIN UNIT CELL DATA
Info: NO EXTENDED SYSTEM TRAJECTORY OUTPUT
Info: NO VELOCITY DCD OUTPUT
Info: NO FORCE DCD OUTPUT
Info: OUTPUT FILENAME        mobley_4506634_backwards
Info: BINARY OUTPUT FILES WILL BE USED
Info: NO RESTART FILE
Info: SWITCHING ACTIVE
Info: SWITCHING ON           10
Info: SWITCHING OFF          12
Info: PAIRLIST DISTANCE      14
Info: PAIRLIST SHRINK RATE   0.01
Info: PAIRLIST GROW RATE     0.01
Info: PAIRLIST TRIGGER       0.3
Info: PAIRLISTS PER CYCLE    2
Info: PAIRLISTS ENABLED
Info: MARGIN                 8
Info: HYDROGEN GROUP CUTOFF  2.5
Info: PATCH DIMENSION        24.5
Info: ENERGY OUTPUT STEPS    500
Info: ENERGY EVALUATION STEPS    500
Info: OUTPUT ENERGY PRECISION 4
Info: CROSSTERM ENERGY INCLUDED IN DIHEDRAL
Info: TIMING OUTPUT STEPS    500
Info: PRESSURE OUTPUT STEPS  500
Info: ALCHEMICAL FEP ON
Info: FEP CURRENT LAMBDA VALUE     1
Info: FEP COMPARISON LAMBDA VALUE  0.9375
Info: FEP INTRA-ALCHEMICAL NON-BONDED INTERACTIONS WILL BE DECOUPLED
Info: FEP INTRA-ALCHEMICAL BONDED INTERACTIONS WILL BE RETAINED
Info: FEP VDW SHIFTING COEFFICIENT 6
Info: FEP ELEC. ACTIVE FOR ANNIHILATED PARTICLES BETWEEN LAMBDA = 0 AND LAMBDA = 0.5
Info: FEP ELEC. ACTIVE FOR EXNIHILATED PARTICLES BETWEEN LAMBDA = 0.5 AND LAMBDA = 1
Info: FEP VDW ACTIVE FOR ANNIHILATED PARTICLES BETWEEN LAMBDA = 0 AND LAMBDA = 1
Info: FEP VDW ACTIVE FOR EXNIHILATED PARTICLES BETWEEN LAMBDA = 0 AND LAMBDA = 1
Info: FEP BOND ACTIVE FOR ANNIHILATED PARTICLES BETWEEN LAMBDA = 1 AND LAMBDA = 1
Info: FEP BOND ACTIVE FOR EXNIHILATED PARTICLES BETWEEN LAMBDA = 0 AND LAMBDA = 0
Info: LANGEVIN DYNAMICS ACTIVE
Info: LANGEVIN TEMPERATURE   298
Info: LANGEVIN USING BBK INTEGRATOR
Info: LANGEVIN DAMPING COEFFICIENT IS 1 INVERSE PS
Info: LANGEVIN DYNAMICS NOT APPLIED TO HYDROGENS
Info: LANGEVIN PISTON PRESSURE CONTROL ACTIVE
Info:        TARGET PRESSURE IS 1.01325 BAR
Info:     OSCILLATION PERIOD IS 100 FS
Info:             DECAY TIME IS 50 FS
Info:     PISTON TEMPERATURE IS 298 K
Info:       PRESSURE CONTROL IS GROUP-BASED
Info:    INITIAL STRAIN RATE IS 2.35613e-05 2.35613e-05 2.35613e-05
Info:       CELL FLUCTUATION IS ISOTROPIC
Info: PARTICLE MESH EWALD (PME) ACTIVE
Info: PME TOLERANCE               1e-05
Info: PME EWALD COEFFICIENT       0.226635
Info: PME INTERPOLATION ORDER     4
Info: PME GRID DIMENSIONS         84 84 84
Info: PME MAXIMUM GRID SPACING    1
Info: FULL ELECTROSTATIC EVALUATION FREQUENCY      1
Info: USING VERLET I (r-RESPA) MTS SCHEME.
Info: C1 SPLITTING OF LONG RANGE ELECTROSTATICS
Info: PLACING ATOMS IN PATCHES BY HYDROGEN GROUPS
Info: RIGID BONDS TO HYDROGEN : ALL
Info:         ERROR TOLERANCE : 1e-08
Info:          MAX ITERATIONS : 100
Info: RIGID WATER USING SETTLE ALGORITHM
Info: RANDOM NUMBER SEED     1740642783
Info: USE HYDROGEN BONDS?    NO
Info: COORDINATE PDB         mobley_4506634.pdb
Info: STRUCTURE FILE         mobley_4506634.psf
Info: PARAMETER file: CHARMM format!
Info: PARAMETERS             ../common/par_all27_prot_lipid.inp
Info: PARAMETERS             mobley_4506634.prm
Info: USING ARITHMETIC MEAN TO COMBINE L-J SIGMA PARAMETERS
Info: BINARY COORDINATES     mobley_4506634_equilibrated.coor
Info: SUMMARY OF PARAMETERS:
Info: 185 BONDS
Info: 455 ANGLES
Info: 569 DIHEDRAL
Info: 46 IMPROPER
Info: 6 CROSSTERM
Info: 124 VDW
Info: 0 VDW_PAIRS
Info: 0 NBTHOLE_PAIRS
Info: To read alchdata from file: mobley_4506634.pdb
Info: To read alchflag data from column: 5
Info: STRUCTURE SUMMARY:
Info: 3884 ATOMS
Info: 2591 BONDS
Info: 1304 ANGLES
Info: 9 DIHEDRALS
Info: 0 IMPROPERS
Info: 0 CROSSTERMS
Info: 0 EXCLUSIONS
Info: 3877 RIGID BONDS
Info: ALCH: 0 ATOMS TO DISAPPEAR IN FINAL STATE
Info: ALCH: 8 ATOMS TO APPEAR IN FINAL STATE
Info: 7775 DEGREES OF FREEDOM
Info: 1299 HYDROGEN GROUPS
Info: 3 ATOMS IN LARGEST HYDROGEN GROUP
Info: 1299 MIGRATION GROUPS
Info: 3 ATOMS IN LARGEST MIGRATION GROUP
Info: TOTAL MASS = 23473.3 amu
Info: TOTAL CHARGE = 1.01887e-06 e
Info: MASS DENSITY = 0.0759951 g/cm^3
Info: ATOM DENSITY = 0.00757237 atoms/A^3
Info: ADDED 3904 IMPLICIT EXCLUSIONS
Info: NONBONDED TABLE R-SQUARED SPACING: 0.0625
Info: NONBONDED TABLE SIZE: 769 POINTS
Info: REMOVING COM VELOCITY 0.0406491 0.0788751 0.0855583
TCL: Running for 5000 steps
ETITLE: TS BOND ANGLE DIHED IMPRP ELECT VDW BOUNDARY MISC KINETIC TOTAL TEMP POTENTIAL TOTAL3 TEMPAVG PRESSURE GPRESSURE VOLUME PRESSAVG GPRESSAVG
ENERGY: 0 0.8624 4.4597 0.1029 0.0000 -13340.4095 1359.4181 0.0000 0.0000 2271.9220 -9703.6444 294.0921 -11975.5665 -9699.3064 294.0921 -34.0006 -34.0006 512917.2083 -34.0006 -34.0006
ENERGY: 1000 1.3655 2.7580 0.1049 0.0000 -13398.6621 1386.3837 0.0000 0.0000 2309.9585 -9698.0915 299.0158 -12008.0500 -9692.1384 295.8634 -21.4659 -21.4310 513544.0239 0.7196 0.6730
ENERGY: 2000 1.9080 6.7192 0.1617 0.0000 -13464.6202 1498.4632 0.0000 0.0000 2258.6842 -9698.6838 292.3786 -11957.3681 -9694.3944 293.6524 18.9628 19.3553 517894.8470 0.7812 0.8042
ENERGY: 3000 2.1023 1.1521 0.2322 0.0000 -13311.7610 1356.2952 0.0000 0.0000 2256.4574 -9695.5219 292.0903 -11951.9793 -9690.0861 296.2073 -40.9137 -41.4563 517746.3058 2.3368 2.2964
ENERGY: 4000 1.3775 1.7096 0.3516 0.0000 -13430.4008 1425.8071 0.0000 0.0000 2299.2009 -9701.9541 297.6233 -12001.1550 -9695.4822 298.2939 11.7462 11.6176 497735.1250 1.6663 1.6551
ENERGY: 5000 1.0279 4.5757 0.1462 0.0000 -13289.1527 1419.8422 0.0000 0.0000 2336.8589 -9526.7017 302.4980 -11863.5606 -9521.7520 300.7199 8.9685 8.9988 487738.3912 0.1703 0.1721
TCL: Running FEP window   2: Lambda1 0.9375 Lambda2 0.875  [dLambda -0.0625]
TCL: Setting parameter firsttimestep to 0
TCL: Setting parameter alchLambda to 0.9375
Info: NONBONDED TABLE R-SQUARED SPACING: 0.0625
Info: NONBONDED TABLE SIZE: 769 POINTS
TCL: Setting parameter alchLambda2 to 0.875
Info: NONBONDED TABLE R-SQUARED SPACING: 0.0625
Info: NONBONDED TABLE SIZE: 769 POINTS
TCL: Running for 5000 steps
ETITLE: TS BOND ANGLE DIHED IMPRP ELECT VDW BOUNDARY MISC KINETIC TOTAL TEMP POTENTIAL TOTAL3 TEMPAVG PRESSURE GPRESSURE VOLUME PRESSAVG GPRESSAVG
ENERGY: 0 1.0279 4.5757 0.1462 0.0000 -13288.8669 1419.9025 0.0000 0.0000 2336.7871 -9526.4274 302.4887 -11863.2145 -9522.5322 302.4887 8.1358 8.1358 487738.3912 8.1358 8.1358
ENERGY: 1000 1.0728 2.6178 0.5271 0.0000 -13279.8842 1392.8202 0.0000 0.0000 2304.6108 -9578.2354 298.3236 -11882.8463 -9575.5012 299.3971 -9.4507 -9.7997 492014.2882 1.0673 1.0451
ENERGY: 2000 1.4742 2.0035 0.6579 0.0000 -13386.1845 1473.9218 0.0000 0.0000 2382.0864 -9526.0406 308.3525 -11908.1270 -9522.2594 301.5965 22.0839 21.5911 494087.6032 1.2971 1.3093
ENERGY: 3000 1.3990 3.0058 0.1579 0.0000 -13250.7888 1391.6467 0.0000 0.0000 2325.9763 -9528.6030 301.0893 -11854.5793 -9523.1324 302.7833 -12.5973 -12.3992 472193.9675 0.9113 0.9126
ENERGY: 4000 0.9207 2.7648 1.0797 0.0000 -13325.8014 1381.9657 0.0000 0.0000 2329.9898 -9609.0806 301.6088 -11939.0704 -9606.2394 299.4899 -12.7723 -12.9350 453398.2873 1.7248 1.7038
ENERGY: 5000 2.2315 2.8496 0.3429 0.0000 -13468.2226 1489.3359 0.0000 0.0000 2293.7174 -9679.7453 296.9135 -11973.4627 -9674.4636 296.9990 57.5787 58.0999 435561.9902 0.4977 0.5118
TCL: Running FEP window   3: Lambda1 0.875  Lambda2 0.8125 [dLambda -0.0625]
TCL: Setting parameter firsttimestep to 0
TCL: Setting parameter alchLambda to 0.875
Info: NONBONDED TABLE R-SQUARED SPACING: 0.0625
Info: NONBONDED TABLE SIZE: 769 POINTS
TCL: Setting parameter alchLambda2 to 0.8125
Info: NONBONDED TABLE R-SQUARED SPACING: 0.0625
Info: NONBONDED TABLE SIZE: 769 POINTS
TCL: Running for 5000 steps
ETITLE: TS BOND ANGLE DIHED IMPRP ELECT VDW BOUNDARY MISC KINETIC TOTAL TEMP POTENTIAL TOTAL3 TEMPAVG PRESSURE GPRESSURE VOLUME PRESSAVG GPRESSAVG
ENERGY: 0 2.2315 2.8496 0.3429 0.0000 -13467.7487 1489.3949 0.0000 0.0000 2293.6498 -9679.2801 296.9047 -11972.9299 -9674.9943 296.9047 57.3855 57.3855 435561.9902 57.3855 57.3855
ENERGY: 1000 1.8170 1.8924 0.2965 0.0000 -13273.1385 1415.2794 0.0000 0.0000 2319.5986 -9534.2547 300.2637 -11853.8533 -9528.1908 301.4196 14.8608 14.6056 441651.8538 2.2847 2.3479
ENERGY: 2000 2.9162 1.6203 0.1965 0.0000 -13432.0740 1497.9325 0.0000 0.0000 2228.0833 -9701.3252 288.4174 -11929.4085 -9700.1926 298.7954 44.3433 44.5939 415149.0722 2.7978 2.8210
ENERGY: 3000 2.0654 3.8128 0.0736 0.0000 -13522.9070 1496.0397 0.0000 0.0000 2268.7124 -9752.2030 293.6767 -12020.9154 -9748.4634 292.1239 4.5836 4.2589 408726.8997 -0.7111 -0.6899
ENERGY: 4000 2.3896 1.9157 0.2986 0.0000 -13485.8403 1457.4455 0.0000 0.0000 2303.5776 -9720.2134 298.1898 -12023.7911 -9717.1635 291.0319 16.6094 15.8932 378599.8012 2.7223 2.7150
ENERGY: 5000 1.3728 1.7154 0.0578 0.0000 -13261.9053 1356.0110 0.0000 0.0000 2219.3741 -9683.3743 287.2900 -11902.7483 -9677.6287 294.8503 -30.9623 -30.8141 365196.7076 1.9765 1.9645
TCL: Running FEP window   4: Lambda1 0.8125 Lambda2 0.75   [dLambda -0.0625]
TCL: Setting parameter firsttimestep to 0
TCL: Setting parameter alchLambda to 0.8125
Info: NONBONDED TABLE R-SQUARED SPACING: 0.0625
Info: NONBONDED TABLE SIZE: 769 POINTS
TCL: Setting parameter alchLambda2 to 0.75
Info: NONBONDED TABLE R-SQUARED SPACING: 0.0625
Info: NONBONDED TABLE SIZE: 769 POINTS
TCL: Running for 5000 steps
ETITLE: TS BOND ANGLE DIHED IMPRP ELECT VDW BOUNDARY MISC KINETIC TOTAL TEMP POTENTIAL TOTAL3 TEMPAVG PRESSURE GPRESSURE VOLUME PRESSAVG GPRESSAVG
ENERGY: 0 1.3728 1.7154 0.0578 0.0000 -13261.0724 1356.2272 0.0000 0.0000 2219.3004 -9682.3989 287.2804 -11901.6993 -9678.0722 287.2804 -31.5367 -31.5367 365196.7076 -31.5367 -31.5367
ENERGY: 1000 1.6168 2.8975 0.0616 0.0000 -13232.8831 1342.2187 0.0000 0.0000 2265.7072 -9620.3813 293.2876 -11886.0884 -9617.1092 295.4336 -41.4189 -41.4305 354528.2631 -4.1169 -4.1433
ENERGY: 2000 2.1077 3.8286 0.0531 0.0000 -13421.5035 1509.1506 0.0000 0.0000 2278.6136 -9627.7499 294.9583 -11906.3635 -9625.6924 296.4334 70.7967 70.8569 350848.4195 -0.5696 -0.5730
ENERGY: 3000 1.4721 3.5994 0.0206 0.0000 -13273.5407 1375.4807 0.0000 0.0000 2304.6960 -9588.2719 298.3346 -11892.9679 -9582.5849 296.6570 -19.2963 -18.3204 363656.4533 0.7127 0.6967
ENERGY: 4000 2.9795 3.2215 0.0186 0.0000 -13230.2787 1343.8619 0.0000 0.0000 2262.2197 -9617.9775 292.8362 -11880.1972 -9612.9420 298.4412 -35.0811 -34.7652 363733.7668 -0.3352 -0.3401
ENERGY: 5000 4.3942 3.5997 0.2371 0.0000 -13313.1260 1392.3679 0.0000 0.0000 2265.7798 -9646.7474 293.2970 -11912.5271 -9643.7944 301.2918 -2.9685 -2.8134 362825.8073 0.8359 0.8689
TCL: Running FEP window   5: Lambda1 0.75   Lambda2 0.6875 [dLambda -0.0625]
TCL: Setting parameter firsttimestep to 0
TCL: Setting parameter alchLambda to 0.75
Info: NONBONDED TABLE R-SQUARED SPACING: 0.0625
Info: NONBONDED TABLE SIZE: 769 POINTS
TCL: Setting parameter alchLambda2 to 0.6875
Info: NONBONDED TABLE R-SQUARED SPACING: 0.0625
Info: NONBONDED TABLE SIZE: 769 POINTS
TCL: Running for 5000 steps
ETITLE: TS BOND ANGLE DIHED IMPRP ELECT VDW BOUNDARY MISC KINETIC TOTAL TEMP POTENTIAL TOTAL3 TEMPAVG PRESSURE GPRESSURE VOLUME PRESSAVG GPRESSAVG
ENERGY: 0 4.3942 3.5997 0.2371 0.0000 -13312.8472 1392.1601 0.0000 0.0000 2265.7107 -9646.7453 293.2881 -11912.4560 -9641.5354 293.2881 -4.1517 -4.1517 362825.8073 -4.1517 -4.1517
ENERGY: 1000 1.4757 3.0555 0.3202 0.0000 -13321.0328 1410.1061 0.0000 0.0000 2318.3389 -9587.7366 300.1006 -11906.0755 -9582.5641 299.9848 -4.2819 -4.2880 387374.6494 0.6657 0.6576
ENERGY: 2000 1.2964 4.2421 0.0883 0.0000 -13446.3764 1492.7522 0.0000 0.0000 2294.5401 -9653.4573 297.0200 -11947.9973 -9649.4864 297.4193 74.3285 73.8566 391523.8561 1.1736 1.1142
ENERGY: 3000 1.8863 6.7072 0.3151 0.0000 -13318.3256 1360.5968 0.0000 0.0000 2285.0573 -9663.7629 295.7924 -11948.8202 -9658.9737 297.8511 -40.6268 -40.5019 405316.5043 -0.2847 -0.3173
ENERGY: 4000 2.4043 4.6146 0.7631 0.0000 -13354.5409 1410.8927 0.0000 0.0000 2342.5774 -9593.2888 303.2382 -11935.8662 -9589.1210 300.5744 -0.2133 -0.6177 399595.7913 0.1395 0.0944
ENERGY: 5000 0.7646 5.5465 0.0240 0.0000 -13287.1229 1417.7562 0.0000 0.0000 2301.6002 -9561.4314 297.9339 -11863.0316 -9555.5834 300.6019 13.6808 14.1287 395334.5788 2.0685 2.0792
TCL: Running FEP window   6: Lambda1 0.6875 Lambda2 0.625  [dLambda -0.0625]
TCL: Setting parameter firsttimestep to 0
TCL: Setting parameter alchLambda to 0.6875
Info: NONBONDED TABLE R-SQUARED SPACING: 0.0625
Info: NONBONDED TABLE SIZE: 769 POINTS
TCL: Setting parameter alchLambda2 to 0.625
Info: NONBONDED TABLE R-SQUARED SPACING: 0.0625
Info: NONBONDED TABLE SIZE: 769 POINTS
TCL: Running for 5000 steps
ETITLE: TS BOND ANGLE DIHED IMPRP ELECT VDW BOUNDARY MISC KINETIC TOTAL TEMP POTENTIAL TOTAL3 TEMPAVG PRESSURE GPRESSURE VOLUME PRESSAVG GPRESSAVG
ENERGY: 0 0.7646 5.5465 0.0240 0.0000 -13286.3602 1418.0980 0.0000 0.0000 2301.5284 -9560.3987 297.9246 -11861.9272 -9556.1085 297.9246 13.5615 13.5615 395334.5788 13.5615 13.5615
ENERGY: 1000 1.5482 4.8359 0.2163 0.0000 -13177.5221 1341.2906 0.0000 0.0000 2288.5098 -9541.1214 296.2394 -11829.6312 -9536.6675 299.5146 -44.6231 -44.0463 392588.2302 -0.5442 -0.5521
ENERGY: 2000 2.0134 4.0760 0.1571 0.0000 -13378.8753 1500.0559 0.0000 0.0000 2260.8956 -9611.6773 292.6648 -11872.5729 -9608.7210 300.7338 67.3639 66.3430 394329.6480 -0.2241 -0.2321
ENERGY: 3000 3.9356 1.8093 0.0150 0.0000 -13335.4362 1476.0661 0.0000 0.0000 2305.3439 -9548.2664 298.4185 -11853.6103 -9545.3266 300.1105 50.8163 51.0497 386687.7015 2.0699 2.0539
ENERGY: 4000 1.5576 2.4205 0.0573 0.0000 -13270.0344 1376.3119 0.0000 0.0000 2323.7167 -9565.9704 300.7968 -11889.6871 -9560.7925 300.5509 -32.1919 -31.5115 406545.1005 -0.9479 -0.9996
ENERGY: 5000 1.6993 2.6149 0.0199 0.0000 -13307.6471 1414.7146 0.0000 0.0000 2329.0118 -9559.5866 301.4822 -11888.5984 -9554.3497 299.4513 14.9313 14.5160 422927.6714 0.4624 0.4347
TCL: Running FEP window   7: Lambda1 0.625  Lambda2 0.5625 [dLambda -0.0625]
TCL: Setting parameter firsttimestep to 0
TCL: Setting parameter alchLambda to 0.625
Info: NONBONDED TABLE R-SQUARED SPACING: 0.0625
Info: NONBONDED TABLE SIZE: 769 POINTS
TCL: Setting parameter alchLambda2 to 0.5625
Info: NONBONDED TABLE R-SQUARED SPACING: 0.0625
Info: NONBONDED TABLE SIZE: 769 POINTS
TCL: Running for 5000 steps
ETITLE: TS BOND ANGLE DIHED IMPRP ELECT VDW BOUNDARY MISC KINETIC TOTAL TEMP POTENTIAL TOTAL3 TEMPAVG PRESSURE GPRESSURE VOLUME PRESSAVG GPRESSAVG
ENERGY: 0 1.6993 2.6149 0.0199 0.0000 -13307.5859 1414.4846 0.0000 0.0000 2328.9383 -9559.8288 301.4727 -11888.7671 -9555.9784 301.4727 13.8717 13.8717 422927.6714 13.8717 13.8717
ENERGY: 1000 0.9351 6.0431 0.0160 0.0000 -13248.4334 1339.5773 0.0000 0.0000 2305.3019 -9596.5600 298.4130 -11901.8619 -9594.4769 300.5539 -40.2288 -40.2363 433794.2133 3.4077 3.4044
ENERGY: 2000 0.7032 3.3328 0.5199 0.0000 -13295.8630 1348.0557 0.0000 0.0000 2273.1409 -9670.1105 294.2499 -11943.2514 -9665.6545 294.1402 -41.3410 -40.0831 429872.5339 1.3910 1.4112
ENERGY: 3000 0.9350 1.6421 0.5100 0.0000 -13410.3572 1472.7509 0.0000 0.0000 2277.8166 -9656.7025 294.8552 -11934.5192 -9652.3719 294.7981 24.2251 23.4572 436013.1673 0.0335 -0.0274
ENERGY: 4000 0.9898 3.3798 0.1655 0.0000 -13327.1444 1380.0498 0.0000 0.0000 2291.6779 -9650.8817 296.6495 -11942.5595 -9646.3374 295.6419 -4.4963 -4.6211 444436.8430 2.4364 2.3876
ENERGY: 5000 2.6005 2.0095 0.0123 0.0000 -13345.0037 1411.8763 0.0000 0.0000 2305.7708 -9622.7344 298.4737 -11928.5052 -9617.6235 294.8338 3.9510 4.3556 434369.4221 1.5874 1.6123
TCL: Running FEP window   8: Lambda1 0.5625 Lambda2 0.5    [dLambda -0.0625]
TCL: Setting parameter firsttimestep to 0
TCL: Setting parameter alchLambda to 0.5625
Info: NONBONDED TABLE R-SQUARED SPACING: 0.0625
Info: NONBONDED TABLE SIZE: 769 POINTS
TCL: Setting parameter alchLambda2 to 0.5
Info: NONBONDED TABLE R-SQUARED SPACING: 0.0625
Info: NONBONDED TABLE SIZE: 769 POINTS
TCL: Running for 5000 steps
ETITLE: TS BOND ANGLE DIHED IMPRP ELECT VDW BOUNDARY MISC KINETIC TOTAL TEMP POTENTIAL TOTAL3 TEMPAVG PRESSURE GPRESSURE VOLUME PRESSAVG GPRESSAVG
ENERGY: 0 2.6005 2.0095 0.0123 0.0000 -13344.8418 1412.4806 0.0000 0.0000 2305.7026 -9622.0364 298.4649 -11927.7390 -9617.7469 298.4649 4.2650 4.2650 434369.4221 4.2650 4.2650
ENERGY: 1000 1.1319 3.2130 0.0642 0.0000 -13302.4186 1361.0966 0.0000 0.0000 2298.8906 -9638.0223 297.5831 -11936.9128 -9633.0466 297.6547 -31.5153 -31.2874 452486.4877 -1.5348 -1.5302
ENERGY: 2000 2.4445 3.3154 0.1096 0.0000 -13414.4023 1415.9476 0.0000 0.0000 2323.5056 -9669.0797 300.7694 -11992.5853 -9664.3421 294.2208 -24.0994 -24.0737 448013.2852 1.8153 1.7938
ENERGY: 3000 1.1469 3.4919 0.0671 0.0000 -13346.1933 1422.1164 0.0000 0.0000 2265.0196 -9654.3514 293.1986 -11919.3710 -9652.1240 298.8107 -6.1790 -5.7017 440115.2372 1.7619 1.7154
ENERGY: 4000 4.0723 2.7038 0.5472 0.0000 -13301.9579 1386.4937 0.0000 0.0000 2299.1359 -9609.0050 297.6149 -11908.1409 -9604.2880 298.8741 -2.5216 -2.9869 440511.0553 -1.0884 -1.0496
ENERGY: 5000 1.4608 2.0853 0.0515 0.0000 -13407.1666 1433.0334 0.0000 0.0000 2319.6899 -9650.8458 300.2755 -11970.5357 -9646.0335 297.8612 -5.7961 -6.5690 427209.0971 4.0996 4.1495
TCL: Running FEP window   9: Lambda1 0.5    Lambda2 0.4375 [dLambda -0.0625]
TCL: Setting parameter firsttimestep to 0
TCL: Setting parameter alchLambda to 0.5
Info: NONBONDED TABLE R-SQUARED SPACING: 0.0625
Info: NONBONDED TABLE SIZE: 769 POINTS
TCL: Setting parameter alchLambda2 to 0.4375
Info: NONBONDED TABLE R-SQUARED SPACING: 0.0625
Info: NONBONDED TABLE SIZE: 769 POINTS
TCL: Running for 5000 steps
ETITLE: TS BOND ANGLE DIHED IMPRP ELECT VDW BOUNDARY MISC KINETIC TOTAL TEMP POTENTIAL TOTAL3 TEMPAVG PRESSURE GPRESSURE VOLUME PRESSAVG GPRESSAVG
ENERGY: 0 1.4608 2.0853 0.0515 0.0000 -13406.6430 1433.3641 0.0000 0.0000 2319.6215 -9650.0599 300.2667 -11969.6814 -9645.0407 300.2667 -6.8926 -6.8926 427209.0971 -6.8926 -6.8926
ENERGY: 1000 2.0955 6.6568 0.0760 0.0000 -13469.1457 1462.6185 0.0000 0.0000 2295.3698 -9702.3291 297.1274 -11997.6989 -9697.8192 295.2157 35.6577 36.5315 408804.7252 0.8828 0.8752
ENERGY: 2000 2.6852 3.7828 0.4990 0.0000 -13484.5398 1468.2848 0.0000 0.0000 2285.8767 -9723.4112 295.8985 -12009.2879 -9718.5116 294.9181 26.9724 26.6519 408008.4008 -0.6158 -0.5352
ENERGY: 3000 4.9540 2.5721 0.0885 0.0000 -13358.0752 1396.9583 0.0000 0.0000 2243.4554 -9710.0469 290.4072 -11953.5023 -9705.8732 295.4096 -23.0228 -23.8874 407708.7374 0.0312 0.0171
ENERGY: 4000 3.9669 5.0990 0.8092 0.0000 -13447.6645 1386.4183 0.0000 0.0000 2287.7794 -9763.5917 296.1448 -12051.3711 -9760.6645 293.3916 -45.1219 -45.6961 383441.1994 0.4591 0.4558
ENERGY: 5000 3.2243 2.6013 1.6119 0.0000 -13353.8803 1479.2870 0.0000 0.0000 2224.8308 -9642.3250 287.9963 -11867.1558 -9637.2442 294.0445 65.7605 66.0011 382469.1722 -0.4468 -0.4799
TCL: Running FEP window  10: Lambda1 0.4375 Lambda2 0.375  [dLambda -0.0625]
TCL: Setting parameter firsttimestep to 0
TCL: Setting parameter alchLambda to 0.4375
Info: NONBONDED TABLE R-SQUARED SPACING: 0.0625
Info: NONBONDED TABLE SIZE: 769 POINTS
TCL: Setting parameter alchLambda2 to 0.375
Info: NONBONDED TABLE R-SQUARED SPACING: 0.0625
Info: NONBONDED TABLE SIZE: 769 POINTS
TCL: Running for 5000 steps
ETITLE: TS BOND ANGLE DIHED IMPRP ELECT VDW BOUNDARY MISC KINETIC TOTAL TEMP POTENTIAL TOTAL3 TEMPAVG PRESSURE GPRESSURE VOLUME PRESSAVG GPRESSAVG
ENERGY: 0 3.2243 2.6013 1.6119 0.0000 -13353.8803 1478.5338 0.0000 0.0000 2224.7568 -9643.1522 287.9868 -11867.9090 -9639.2543 287.9868 65.0304 65.0304 382469.1722 65.0304 65.0304
ENERGY: 1000 2.7300 2.6124 0.6730 0.0000 -13391.9268 1433.0819 0.0000 0.0000 2263.1006 -9689.7290 292.9502 -11952.8295 -9684.1972 297.3012 3.7039 4.2318 363389.9949 3.4263 3.4267
ENERGY: 2000 2.4044 1.4309 0.0693 0.0000 -13421.9442 1477.6829 0.0000 0.0000 2317.8138 -9622.5428 300.0327 -11940.3566 -9620.1966 294.7522 13.1985 13.3955 356539.8899 1.7855 1.7519
ENERGY: 3000 1.4378 3.3331 0.9680 0.0000 -13509.4401 1551.6868 0.0000 0.0000 2237.4720 -9714.5424 289.6327 -11952.0144 -9709.7319 296.4164 105.8684 106.7688 333808.9336 -0.4779 -0.5118
ENERGY: 4000 3.8851 1.9214 0.1942 0.0000 -13445.8403 1444.0844 0.0000 0.0000 2244.3013 -9751.4538 290.5167 -11995.7551 -9747.4135 293.4341 -0.2534 0.1703 356929.2830 0.5209 0.5528
ENERGY: 5000 1.0395 0.4226 0.0023 0.0000 -13502.1354 1508.1731 0.0000 0.0000 2255.8059 -9736.6920 292.0060 -11992.4979 -9732.6723 294.3386 82.0945 82.0655 353267.2256 4.6443 4.6622
TCL: Running FEP window  11: Lambda1 0.375  Lambda2 0.3125 [dLambda -0.0625]
TCL: Setting parameter firsttimestep to 0
TCL: Setting parameter alchLambda to 0.375
Info: NONBONDED TABLE R-SQUARED SPACING: 0.0625
Info: NONBONDED TABLE SIZE: 769 POINTS
TCL: Setting parameter alchLambda2 to 0.3125
Info: NONBONDED TABLE R-SQUARED SPACING: 0.0625
Info: NONBONDED TABLE SIZE: 769 POINTS
TCL: Running for 5000 steps
ETITLE: TS BOND ANGLE DIHED IMPRP ELECT VDW BOUNDARY MISC KINETIC TOTAL TEMP POTENTIAL TOTAL3 TEMPAVG PRESSURE GPRESSURE VOLUME PRESSAVG GPRESSAVG
ENERGY: 0 1.0395 0.4226 0.0023 0.0000 -13502.1354 1508.2756 0.0000 0.0000 2255.7370 -9736.6585 291.9970 -11992.3955 -9731.8905 291.9970 81.4925 81.4925 353267.2256 81.4925 81.4925
ENERGY: 1000 1.2026 1.0806 0.8456 0.0000 -13540.4978 1479.8473 0.0000 0.0000 2265.1397 -9792.3819 293.2142 -12057.5216 -9788.6189 290.1205 16.2728 15.0791 355135.4986 3.0981 3.1174
ENERGY: 2000 2.7882 3.7054 0.0613 0.0000 -13399.6352 1433.6182 0.0000 0.0000 2265.5478 -9693.9142 293.2670 -11959.4620 -9690.1745 293.7117 13.0143 11.9480 347464.9149 1.3120 1.2988
ENERGY: 3000 0.7259 1.7232 0.0228 0.0000 -13418.4147 1373.7374 0.0000 0.0000 2387.4540 -9654.7514 309.0473 -12042.2054 -9649.4677 296.3296 -28.0977 -27.4509 347290.8831 1.3874 1.3910
ENERGY: 4000 2.8261 2.8172 0.4299 0.0000 -13381.0153 1398.9320 0.0000 0.0000 2266.8845 -9709.1257 293.4400 -11976.0102 -9704.4602 293.8455 -48.2899 -48.2019 337849.8889 1.1305 1.2103
ENERGY: 5000 3.2800 3.7395 0.1451 0.0000 -13383.8752 1434.1744 0.0000 0.0000 2317.8199 -9624.7161 300.0334 -11942.5360 -9620.7378 298.6426 24.1159 24.3600 322103.6570 0.4964 0.4750
TCL: Running FEP window  12: Lambda1 0.3125 Lambda2 0.25   [dLambda -0.0625]
TCL: Setting parameter firsttimestep to 0
TCL: Setting parameter alchLambda to 0.3125
Info: NONBONDED TABLE R-SQUARED SPACING: 0.0625
Info: NONBONDED TABLE SIZE: 769 POINTS
TCL: Setting parameter alchLambda2 to 0.25
Info: NONBONDED TABLE R-SQUARED SPACING: 0.0625
Info: NONBONDED TABLE SIZE: 769 POINTS
TCL: Running for 5000 steps
ETITLE: TS BOND ANGLE DIHED IMPRP ELECT VDW BOUNDARY MISC KINETIC TOTAL TEMP POTENTIAL TOTAL3 TEMPAVG PRESSURE GPRESSURE VOLUME PRESSAVG GPRESSAVG
ENERGY: 0 3.2800 3.7395 0.1451 0.0000 -13383.8752 1434.5073 0.0000 0.0000 2317.7493 -9624.4539 300.0243 -11942.2032 -9619.8734 300.0243 24.0307 24.0307 322103.6570 24.0307 24.0307
ENERGY: 1000 1.3395 3.1054 0.3803 0.0000 -13385.7804 1465.7641 0.0000 0.0000 2303.6375 -9611.5537 298.1976 -11915.1911 -9607.4995 299.4653 39.3990 39.3692 306600.8985 0.2746 0.2283
ENERGY: 2000 0.2281 2.5757 0.2890 0.0000 -13356.3380 1426.3759 0.0000 0.0000 2287.5613 -9639.3079 296.1166 -11926.8692 -9635.8548 296.6977 10.0909 10.4756 282784.3755 1.3824 1.3780
ENERGY: 3000 0.8976 2.2852 0.2690 0.0000 -13347.6582 1409.3257 0.0000 0.0000 2312.5288 -9622.3518 299.3485 -11934.8806 -9616.0663 297.9041 2.3469 2.7206 273024.6574 2.5912 2.6354
ENERGY: 4000 2.7958 1.7414 0.3339 0.0000 -13296.0591 1344.9682 0.0000 0.0000 2315.9603 -9630.2596 299.7927 -11946.2199 -9623.8668 295.8990 -54.2569 -54.6826 263826.8656 4.7701 4.6934
ENERGY: 5000 1.0833 2.8483 0.3674 0.0000 -13326.5576 1446.5379 0.0000 0.0000 2276.6614 -9599.0594 294.7056 -11875.7208 -9596.2555 300.0382 57.6592 57.6088 255827.9218 0.0761 0.0514
TCL: Running FEP window  13: Lambda1 0.25   Lambda2 0.1875 [dLambda -0.0625]
TCL: Setting parameter firsttimestep to 0
TCL: Setting parameter alchLambda to 0.25
Info: NONBONDED TABLE R-SQUARED SPACING: 0.0625
Info: NONBONDED TABLE SIZE: 769 POINTS
TCL: Setting parameter alchLambda2 to 0.1875
Info: NONBONDED TABLE R-SQUARED SPACING: 0.0625
Info: NONBONDED TABLE SIZE: 769 POINTS
TCL: Running for 5000 steps
ETITLE: TS BOND ANGLE DIHED IMPRP ELECT VDW BOUNDARY MISC KINETIC TOTAL TEMP POTENTIAL TOTAL3 TEMPAVG PRESSURE GPRESSURE VOLUME PRESSAVG GPRESSAVG
ENERGY: 0 1.0833 2.8483 0.3674 0.0000 -13326.5576 1447.1984 0.0000 0.0000 2276.5891 -9598.4712 294.6963 -11875.0603 -9594.5279 294.6963 57.5231 57.5231 255827.9218 57.5231 57.5231
ENERGY: 1000 0.7965 2.7583 0.1401 0.0000 -13250.4227 1396.4399 0.0000 0.0000 2279.4097 -9570.8783 295.0614 -11850.2880 -9566.3649 298.6100 -26.3200 -25.3358 247464.3441 -1.7063 -1.5965
ENERGY: 2000 3.3905 2.6448 0.1632 0.0000 -13433.1984 1442.3703 0.0000 0.0000 2343.8161 -9640.8136 303.3986 -11984.6296 -9637.1100 299.2776 8.0079 8.5127 243912.0149 2.2405 2.1173
ENERGY: 3000 1.1549 3.1740 0.5630 0.0000 -13352.6054 1426.6650 0.0000 0.0000 2372.5274 -9548.5211 307.1151 -11921.0485 -9544.2129 298.1992 9.4524 9.8239 243478.0708 2.3109 2.2772
ENERGY: 4000 1.5726 3.2326 0.6074 0.0000 -13289.5156 1373.6635 0.0000 0.0000 2337.2241 -9573.2154 302.5453 -11910.4394 -9568.5488 298.3815 -28.1063 -28.6115 236968.2423 3.0413 3.0506
ENERGY: 5000 1.1150 1.9241 0.6391 0.0000 -13311.7851 1491.9130 0.0000 0.0000 2283.5163 -9532.6776 295.5930 -11816.1939 -9529.2918 299.5971 96.0598 95.8454 238642.4712 3.3160 3.2681
TCL: Running FEP window  14: Lambda1 0.1875 Lambda2 0.125  [dLambda -0.0625]
TCL: Setting parameter firsttimestep to 0
TCL: Setting parameter alchLambda to 0.1875
Info: NONBONDED TABLE R-SQUARED SPACING: 0.0625
Info: NONBONDED TABLE SIZE: 769 POINTS
TCL: Setting parameter alchLambda2 to 0.125
Info: NONBONDED TABLE R-SQUARED SPACING: 0.0625
Info: NONBONDED TABLE SIZE: 769 POINTS
TCL: Running for 5000 steps
ETITLE: TS BOND ANGLE DIHED IMPRP ELECT VDW BOUNDARY MISC KINETIC TOTAL TEMP POTENTIAL TOTAL3 TEMPAVG PRESSURE GPRESSURE VOLUME PRESSAVG GPRESSAVG
ENERGY: 0 1.1150 1.9241 0.6391 0.0000 -13311.7851 1491.1331 0.0000 0.0000 2283.4465 -9533.5273 295.5839 -11816.9738 -9529.2992 295.5839 94.7606 94.7606 238642.4712 94.7606 94.7606
ENERGY: 1000 1.6455 5.1283 0.0945 0.0000 -13342.8371 1418.4666 0.0000 0.0000 2325.5830 -9591.9192 301.0384 -11917.5022 -9589.3200 299.6684 -10.2815 -12.6480 247606.2351 0.4427 0.3947
ENERGY: 2000 0.6908 2.9750 0.1771 0.0000 -13322.4299 1410.2129 0.0000 0.0000 2339.6654 -9568.7086 302.8613 -11908.3740 -9564.8402 299.8630 11.1466 9.1443 253302.5726 4.9493 4.8942
ENERGY: 3000 2.9583 2.3483 0.0638 0.0000 -13319.8275 1402.1407 0.0000 0.0000 2273.3234 -9638.9930 294.2735 -11912.3164 -9634.2562 297.6454 -7.1439 -8.2104 256063.1214 0.3555 0.3599
ENERGY: 4000 1.1292 3.3155 0.2394 0.0000 -13269.0053 1420.2224 0.0000 0.0000 2259.5749 -9584.5240 292.4938 -11844.0989 -9578.4958 298.8628 27.6854 28.0645 249638.8489 3.4697 3.5285
ENERGY: 5000 0.5600 4.9712 0.0202 0.0000 -13330.4625 1370.2477 0.0000 0.0000 2277.6055 -9677.0580 294.8278 -11954.6635 -9670.6004 296.2588 -58.1151 -56.4972 243435.7155 2.1161 2.0936
TCL: Running FEP window  15: Lambda1 0.125  Lambda2 0.0625 [dLambda -0.0625]
TCL: Setting parameter firsttimestep to 0
TCL: Setting parameter alchLambda to 0.125
Info: NONBONDED TABLE R-SQUARED SPACING: 0.0625
Info: NONBONDED TABLE SIZE: 769 POINTS
TCL: Setting parameter alchLambda2 to 0.0625
Info: NONBONDED TABLE R-SQUARED SPACING: 0.0625
Info: NONBONDED TABLE SIZE: 769 POINTS
TCL: Running for 5000 steps
ETITLE: TS BOND ANGLE DIHED IMPRP ELECT VDW BOUNDARY MISC KINETIC TOTAL TEMP POTENTIAL TOTAL3 TEMPAVG PRESSURE GPRESSURE VOLUME PRESSAVG GPRESSAVG
ENERGY: 0 0.5600 4.9712 0.0202 0.0000 -13330.4625 1370.3564 0.0000 0.0000 2277.5342 -9677.0206 294.8186 -11954.5548 -9672.6039 294.8186 -56.2308 -56.2308 243435.7155 -56.2308 -56.2308
ENERGY: 1000 1.2336 1.3902 0.0226 0.0000 -13419.4590 1438.3520 0.0000 0.0000 2261.3040 -9717.1565 292.7177 -11978.4605 -9711.7649 293.9213 -29.1760 -30.0992 249736.9292 -3.4019 -3.3998
ENERGY: 2000 2.1054 1.7152 0.3532 0.0000 -13440.0237 1423.1261 0.0000 0.0000 2299.6204 -9713.1034 297.6776 -12012.7238 -9707.8048 292.8558 -8.5206 -7.4979 252472.8585 2.7318 2.7522
ENERGY: 3000 1.8173 1.5981 1.2486 0.0000 -13495.1179 1456.2575 0.0000 0.0000 2292.0599 -9742.1365 296.6989 -12034.1964 -9736.7464 294.0890 3.6131 4.0274 268272.7802 0.3599 0.3147
ENERGY: 4000 1.0319 1.5444 1.2866 0.0000 -13532.6190 1565.2870 0.0000 0.0000 2264.5842 -9698.8849 293.1423 -11963.4691 -9692.8446 295.9086 120.4563 120.6444 264004.0550 2.2396 2.2137
ENERGY: 5000 1.0664 1.7046 0.4066 0.0000 -13382.3233 1463.4345 0.0000 0.0000 2232.6161 -9683.0951 289.0041 -11915.7112 -9680.7535 294.9728 2.1534 1.8221 267431.6329 2.8459 2.8204
TCL: Running FEP window  16: Lambda1 0.0625 Lambda2 0.0    [dLambda -0.0625]
TCL: Setting parameter firsttimestep to 0
TCL: Setting parameter alchLambda to 0.0625
Info: NONBONDED TABLE R-SQUARED SPACING: 0.0625
Info: NONBONDED TABLE SIZE: 769 POINTS
TCL: Setting parameter alchLambda2 to 0.0
Info: NONBONDED TABLE R-SQUARED SPACING: 0.0625
Info: NONBONDED TABLE SIZE: 769 POINTS
TCL: Running for 5000 steps
ETITLE: TS BOND ANGLE DIHED IMPRP ELECT VDW BOUNDARY MISC KINETIC TOTAL TEMP POTENTIAL TOTAL3 TEMPAVG PRESSURE GPRESSURE VOLUME PRESSAVG GPRESSAVG
ENERGY: 0 1.0664 1.7046 0.4066 0.0000 -13382.3233 1463.3520 0.0000 0.0000 2232.5428 -9683.2510 288.9946 -11915.7938 -9678.8794 288.9946 1.0675 1.0675 267431.6329 1.0675 1.0675
ENERGY: 1000 0.7341 2.0774 0.0667 0.0000 -13470.9254 1457.2501 0.0000 0.0000 2308.1769 -9702.6202 298.7852 -12010.7971 -9697.0617 293.6613 -6.8887 -8.7068 250229.0745 3.3221 3.3536
ENERGY: 2000 2.0028 1.0751 0.7001 0.0000 -13323.9508 1412.7999 0.0000 0.0000 2289.5612 -9617.8117 296.3755 -11907.3728 -9613.4606 298.5106 7.1159 7.0643 236756.5652 2.2803 2.2516
ENERGY: 3000 2.5955 1.2688 0.0525 0.0000 -13294.3909 1382.3666 0.0000 0.0000 2249.4785 -9658.6290 291.1869 -11908.1075 -9655.3475 296.0447 -43.3796 -42.7612 233754.0742 -4.0515 -4.0019
ENERGY: 4000 2.9969 2.4684 0.2850 0.0000 -13450.9347 1458.5089 0.0000 0.0000 2339.6374 -9647.0381 302.8576 -11986.6755 -9642.4930 296.7946 66.9869 68.5751 219643.2359 2.3899 2.3189
ENERGY: 5000 2.0766 3.7686 0.0994 0.0000 -13321.3262 1342.7039 0.0000 0.0000 2306.4640 -9666.2136 298.5635 -11972.6776 -9662.7218 297.1836 -94.9908 -95.6525 210181.2068 -4.8774 -4.9124
