Info: SIMULATION PARAMETERS:
Info: TIMESTEP               2
Info: NUMBER OF STEPS        0
Info: STEPS PER CYCLE        10
Info: PERIODIC CELL BASIS 1  80.0477 0 0
Info: PERIODIC CELL BASIS 2  0 80.0477 0
Info: PERIODIC CELL BASIS 3  0 0 80.0477
Info: PERIODIC CELL CENTER   34.089 34.089 34.089
Info: WRAPPING ALL CLUSTERS AROUND PERIODIC BOUNDARIES ON OUTPUT.
Info: FIRST LDB TIMESTEP     50
Info: LAST LDB TIMESTEP     -1
Info: HOM BACKGROUND SCALING 1
Info: PME BACKGROUND SCALING 1
Info: MIN ATOMS PER PATCH    40
Info: EMPTY PATCH LOAD       40 ATOMS
Info: VELOCITY FILE          mobley_4506634_equilibrated.vel
Info: CENTER OF MASS MOVING INITIALLY? NO
Info: DIELECTRIC             1
Info: EXCLUDE                SCALED ONE-FOUR
Info: 1-4 ELECTROSTATICS SCALED BY 1
Info: MODIFIED 1-4 VDW PARAMETERS WILL BE USED
Info: DCD FILENAME           mobley_4506634_forwards.dcd
Info: DCD FREQUENCY          500
Info: DCD FIRST STEP         500
Info: DCD FILE WILL CONTAIN UNIT CELL DATA
Info: NO EXTENDED SYSTEM TRAJECTORY OUTPUT
Info: NO VELOCITY DCD OUTPUT
Info: NO FORCE DCD OUTPUT
Info: OUTPUT FILENAME        mobley_4506634_forwards
Info: BINARY OUTPUT FILES WILL BE USED
Info: NO RESTART FILE
Info: SWITCHING ACTIVE
Info: SWITCHING ON           10
Info: SWITCHING OFF          12
Info: PAIRLIST DISTANCE      14
Info: PAIRLIST SHRINK RATE   0.01
Info: PAIRLIST GROW RATE     0.01
Info: PAIRLIST TRIGGER       0.3
Info: PAIRLISTS PER CYCLE    2
Info: PAIRLISTS ENABLED
Info: MARGIN                 8
Info: HYDROGEN GROUP CUTOFF  2.5
Info: PATCH DIMENSION        24.5
Info: ENERGY OUTPUT STEPS    500
Info: ENERGY EVALUATION STEPS    500
Info: OUTPUT ENERGY PRECISION 4
Info: CROSSTERM ENERGY INCLUDED IN DIHEDRAL
Info: TIMING OUTPUT STEPS    500
Info: PRESSURE OUTPUT STEPS  500
Info: ALCHEMICAL FEP ON
Info: FEP CURRENT LAMBDA VALUE     0
Info: FEP COMPARISON LAMBDA VALUE  0.0625
Info: FEP INTRA-ALCHEMICAL NON-BONDED INTERACTIONS WILL BE DECOUPLED
Info: FEP INTRA-ALCHEMICAL BONDED INTERACTIONS WILL BE RETAINED
Info: FEP VDW SHIFTING COEFFICIENT 6
Info: FEP ELEC. ACTIVE FOR ANNIHILATED PARTICLES BETWEEN LAMBDA = 0 AND LAMBDA = 0.5
Info: FEP ELEC. ACTIVE FOR EXNIHILATED PARTICLES BETWEEN LAMBDA = 0.5 AND LAMBDA = 1
Info: FEP VDW ACTIVE FOR ANNIHILATED PARTICLES BETWEEN LAMBDA = 0 AND LAMBDA = 1
Info: FEP VDW ACTIVE FOR EXNIHILATED PARTICLES BETWEEN LAMBDA = 0 AND LAMBDA = 1
Info: FEP BOND ACTIVE FOR ANNIHILATED PARTICLES BETWEEN LAMBDA = 1 AND LAMBDA = 1
Info: FEP BOND ACTIVE FOR EXNIHILATED PARTICLES BETWEEN LAMBDA = 0 AND LAMBDA = 0
Info: LANGEVIN DYNAMICS ACTIVE
Info: LANGEVIN TEMPERATURE   298
Info: LANGEVIN USING BBK INTEGRATOR
Info: LANGEVIN DAMPING COEFFICIENT IS 1 INVERSE PS
Info: LANGEVIN DYNAMICS NOT APPLIED TO HYDROGENS
Info: LANGEVIN PISTON PRESSURE CONTROL ACTIVE
Info:        TARGET PRESSURE IS 1.01325 BAR
Info:     OSCILLATION PERIOD IS 100 FS
Info:             DECAY TIME IS 50 FS
Info:     PISTON TEMPERATURE IS 298 K
Info:       PRESSURE CONTROL IS GROUP-BASED
Info:    INITIAL STRAIN RATE IS 2.35613e-05 2.35613e-05 2.35613e-05
Info:       CELL FLUCTUATION IS ISOTROPIC
Info: PARTICLE MESH EWALD (PME) ACTIVE
Info: PME TOLERANCE               1e-05
Info: PME EWALD COEFFICIENT       0.226635
Info: PME INTERPOLATION ORDER     4
Info: PME GRID DIMENSIONS         84 84 84
Info: PME MAXIMUM GRID SPACING    1
Info: FULL ELECTROSTATIC EVALUATION FREQUENCY      1
Info: USING VERLET I (r-RESPA) MTS SCHEME.
Info: C1 SPLITTING OF LONG RANGE ELECTROSTATICS
Info: PLACING ATOMS IN PATCHES BY HYDROGEN GROUPS
Info: RIGID BONDS TO HYDROGEN : ALL
Info:         ERROR TOLERANCE : 1e-08
Info:          MAX ITERATIONS : 100
Info: RIGID WATER USING SETTLE ALGORITHM
Info: RANDOM NUMBER SEED     1740642783
Info: USE HYDROGEN BONDS?    NO
Info: COORDINATE PDB         mobley_4506634.pdb
Info: STRUCTURE FILE         mobley_4506634.psf
Info: PARAMETER file: CHARMM format!
Info: PARAMETERS             ../common/par_all27_prot_lipid.inp
Info: PARAMETERS             mobley_4506634.prm
Info: USING ARITHMETIC MEAN TO COMBINE L-J SIGMA PARAMETERS
Info: BINARY COORDINATES     mobley_4506634_equilibrated.coor
Info: SUMMARY OF PARAMETERS:
Info: 185 BONDS
Info: 455 ANGLES
Info: 569 DIHEDRAL
Info: 46 IMPROPER
Info: 6 CROSSTERM
Info: 124 VDW
Info: 0 VDW_PAIRS
Info: 0 NBTHOLE_PAIRS
Info: To read alchdata from file: mobley_4506634.pdb
Info: To read alchflag data from column: 5
Info: STRUCTURE SUMMARY:
Info: 3884 ATOMS
Info: 2591 BONDS
Info: 1304 ANGLES
Info: 9 DIHEDRALS
Info: 0 IMPROPERS
Info: 0 CROSSTERMS
Info: 0 EXCLUSIONS
Info: 3877 RIGID BONDS
Info: ALCH: 0 ATOMS TO DISAPPEAR IN FINAL STATE
Info: ALCH: 8 ATOMS TO APPEAR IN FINAL STATE
Info: 7775 DEGREES OF FREEDOM
Info: 1299 HYDROGEN GROUPS
Info: 3 ATOMS IN LARGEST HYDROGEN GROUP
Info: 1299 MIGRATION GROUPS
Info: 3 ATOMS IN LARGEST MIGRATION GROUP
Info: TOTAL MASS = 23473.3 amu
Info: TOTAL CHARGE = 1.01887e-06 e
Info: MASS DENSITY = 0.0759951 g/cm^3
Info: ATOM DENSITY = 0.00757237 atoms/A^3
Info: ADDED 3904 IMPLICIT EXCLUSIONS
Info: NONBONDED TABLE R-SQUARED SPACING: 0.0625
Info: NONBONDED TABLE SIZE: 769 POINTS
Info: REMOVING COM VELOCITY 0.0406491 0.0788751 0.0855583
TCL: Running for 5000 steps
ETITLE: TS BOND ANGLE DIHED IMPRP ELECT VDW BOUNDARY MISC KINETIC TOTAL TEMP POTENTIAL TOTAL3 TEMPAVG PRESSURE GPRESSURE VOLUME PRESSAVG GPRESSAVG
ENERGY: 0 0.8624 4.4597 0.1029 0.0000 -13337.7167 1371.1308 0.0000 0.0000 2271.9220 -9689.2389 294.0921 -11961.1608 -9684.9055 294.0921 -36.2799 -36.2799 512917.2083 -36.2799 -36.2799
ENERGY: 1000 1.0374 1.3501 0.0143 0.0000 -13438.6536 1393.9717 0.0000 0.0000 2288.0257 -9754.2544 296.1767 -12042.2800 -9750.8531 291.9867 -31.5536 -31.5327 521742.5158 1.1103 1.1270
ENERGY: 2000 2.5581 1.8962 0.0939 0.0000 -13439.1979 1433.2134 0.0000 0.0000 2246.9187 -9754.5176 290.8555 -12001.4363 -9749.7766 293.1235 -13.1758 -13.0102 529854.1234 0.5353 0.5361
ENERGY: 3000 1.4732 2.6000 0.0187 0.0000 -13448.2685 1413.6661 0.0000 0.0000 2236.9648 -9793.5457 289.5670 -12030.5106 -9788.9201 289.1484 -16.8178 -16.3584 520691.8330 1.9999 2.0365
ENERGY: 4000 1.5160 3.8753 0.9825 0.0000 -13440.3892 1454.8488 0.0000 0.0000 2325.4105 -9653.7561 301.0160 -11979.1666 -9650.2826 297.3948 20.8478 21.1190 526210.6517 1.6992 1.6953
ENERGY: 5000 1.1202 3.9766 0.3898 0.0000 -13357.4425 1400.8392 0.0000 0.0000 2305.0099 -9646.1068 298.3752 -11951.1166 -9641.8914 295.1897 -6.1726 -5.3803 534543.7216 0.5717 0.5678
TCL: Running FEP window   2: Lambda1 0.0625 Lambda2 0.125  [dLambda 0.0625]
TCL: Setting parameter firsttimestep to 0
TCL: Setting parameter alchLambda to 0.0625
Info: NONBONDED TABLE R-SQUARED SPACING: 0.0625
Info: NONBONDED TABLE SIZE: 769 POINTS
TCL: Setting parameter alchLambda2 to 0.125
Info: NONBONDED TABLE R-SQUARED SPACING: 0.0625
Info: NONBONDED TABLE SIZE: 769 POINTS
TCL: Running for 5000 steps
ETITLE: TS BOND ANGLE DIHED IMPRP ELECT VDW BOUNDARY MISC KINETIC TOTAL TEMP POTENTIAL TOTAL3 TEMPAVG PRESSURE GPRESSURE VOLUME PRESSAVG GPRESSAVG
ENERGY: 0 1.1202 3.9766 0.3898 0.0000 -13357.4425 1401.9181 0.0000 0.0000 2304.9383 -9645.0995 298.3660 -11950.0378 -9640.9424 298.3660 -5.1387 -5.1387 534543.7216 -5.1387 -5.1387
ENERGY: 1000 3.3282 4.9644 0.2461 0.0000 -13347.3937 1405.7489 0.0000 0.0000 2304.9285 -9628.1776 298.3647 -11933.1062 -9624.2703 296.6016 -14.6902 -13.6019 554923.1642 0.9814 1.0024
ENERGY: 2000 1.7275 1.6125 0.2638 0.0000 -13420.0523 1502.8588 0.0000 0.0000 2273.9249 -9639.6648 294.3514 -11913.5897 -9636.3814 294.7113 36.6834 36.4515 554906.8231 1.2138 1.2156
ENERGY: 3000 1.8127 1.8448 0.4664 0.0000 -13338.9597 1420.9570 0.0000 0.0000 2288.8589 -9625.0199 296.2845 -11913.8788 -9622.2542 294.0880 8.6672 8.5353 527549.3478 0.8340 0.8670
ENERGY: 4000 1.6769 5.0628 0.0188 0.0000 -13265.5398 1390.8750 0.0000 0.0000 2241.3550 -9626.5513 290.1353 -11867.9063 -9620.1282 297.0494 -18.8733 -19.9056 500257.0200 1.3552 1.3134
ENERGY: 5000 0.4344 1.5575 0.4014 0.0000 -13321.6913 1431.0971 0.0000 0.0000 2258.0157 -9630.1851 292.2920 -11888.2009 -9625.5672 296.9925 30.9133 31.5295 455671.5462 0.3151 0.2997
TCL: Running FEP window   3: Lambda1 0.125  Lambda2 0.1875 [dLambda 0.0625]
TCL: Setting parameter firsttimestep to 0
TCL: Setting parameter alchLambda to 0.125
Info: NONBONDED TABLE R-SQUARED SPACING: 0.0625
Info: NONBONDED TABLE SIZE: 769 POINTS
TCL: Setting parameter alchLambda2 to 0.1875
Info: NONBONDED TABLE R-SQUARED SPACING: 0.0625
Info: NONBONDED TABLE SIZE: 769 POINTS
TCL: Running for 5000 steps
ETITLE: TS BOND ANGLE DIHED IMPRP ELECT VDW BOUNDARY MISC KINETIC TOTAL TEMP POTENTIAL TOTAL3 TEMPAVG PRESSURE GPRESSURE VOLUME PRESSAVG GPRESSAVG
ENERGY: 0 0.4344 1.5575 0.4014 0.0000 -13321.6913 1432.2148 0.0000 0.0000 2257.9484 -9629.1347 292.2833 -11887.0832 -9625.1240 292.2833 31.9184 31.9184 455671.5462 31.9184 31.9184
ENERGY: 1000 0.7093 4.3728 0.2019 0.0000 -13361.2174 1430.3427 0.0000 0.0000 2269.6757 -9655.9150 293.8014 -11925.5907 -9650.0680 295.2028 -6.5738 -6.2663 458474.6698 1.9755 1.9501
ENERGY: 2000 1.3544 4.4023 0.7011 0.0000 -13422.3276 1525.8814 0.0000 0.0000 2325.0276 -9564.9608 300.9665 -11889.9884 -9560.9742 299.9161 70.3999 70.4142 435198.4093 2.3671 2.3728
ENERGY: 3000 2.0713 2.4749 0.1382 0.0000 -13264.5310 1397.0632 0.0000 0.0000 2296.3491 -9566.4344 297.2541 -11862.7835 -9561.4036 299.0203 3.0410 2.7052 408735.4696 -1.0981 -1.1453
ENERGY: 4000 1.8007 7.1722 0.0572 0.0000 -13363.0872 1470.7589 0.0000 0.0000 2341.9750 -9541.3232 303.1602 -11883.2982 -9537.4488 298.5158 60.5481 61.2934 384720.2623 3.2403 3.2056
ENERGY: 5000 1.1699 2.7325 0.0968 0.0000 -13232.2994 1376.0242 0.0000 0.0000 2289.9937 -9562.2823 296.4314 -11852.2760 -9553.9195 299.4555 -26.3092 -25.9559 383840.0857 2.1326 2.1285
TCL: Running FEP window   4: Lambda1 0.1875 Lambda2 0.25   [dLambda 0.0625]
TCL: Setting parameter firsttimestep to 0
TCL: Setting parameter alchLambda to 0.1875
Info: NONBONDED TABLE R-SQUARED SPACING: 0.0625
Info: NONBONDED TABLE SIZE: 769 POINTS
TCL: Setting parameter alchLambda2 to 0.25
Info: NONBONDED TABLE R-SQUARED SPACING: 0.0625
Info: NONBONDED TABLE SIZE: 769 POINTS
TCL: Running for 5000 steps
ETITLE: TS BOND ANGLE DIHED IMPRP ELECT VDW BOUNDARY MISC KINETIC TOTAL TEMP POTENTIAL TOTAL3 TEMPAVG PRESSURE GPRESSURE VOLUME PRESSAVG GPRESSAVG
ENERGY: 0 1.1699 2.7325 0.0968 0.0000 -13232.2994 1378.8784 0.0000 0.0000 2289.9221 -9559.4998 296.4222 -11849.4219 -9555.1139 296.4222 -24.6131 -24.6131 383840.0857 -24.6131 -24.6131
ENERGY: 1000 2.8376 1.6898 2.7636 0.0000 -13313.6472 1392.5850 0.0000 0.0000 2306.3705 -9607.4008 298.5514 -11913.7713 -9604.2363 297.1119 -37.2738 -36.5585 360400.5135 -4.0462 -4.0200
ENERGY: 2000 0.9359 4.5167 0.2272 0.0000 -13486.5754 1466.8869 0.0000 0.0000 2327.2481 -9686.7606 301.2539 -12014.0087 -9683.8542 297.9468 62.6742 61.9111 340844.9960 -0.6132 -0.6223
ENERGY: 3000 0.8104 4.7302 0.1318 0.0000 -13490.3694 1470.1541 0.0000 0.0000 2344.9157 -9669.6273 303.5409 -12014.5430 -9666.4713 294.9132 40.4593 40.1763 338950.0311 0.7033 0.7227
ENERGY: 4000 2.4594 3.2637 0.0631 0.0000 -13191.2209 1312.0883 0.0000 0.0000 2262.5726 -9610.7739 292.8819 -11873.3465 -9606.1655 298.7428 -80.2409 -79.2321 352593.3976 0.0941 0.0655
ENERGY: 5000 2.1813 4.2821 0.1672 0.0000 -13401.1896 1451.4829 0.0000 0.0000 2356.9206 -9586.1555 305.0949 -11943.0761 -9583.6758 298.9468 42.6970 43.1232 347222.3023 1.0787 1.0608
TCL: Running FEP window   5: Lambda1 0.25   Lambda2 0.3125 [dLambda 0.0625]
TCL: Setting parameter firsttimestep to 0
TCL: Setting parameter alchLambda to 0.25
Info: NONBONDED TABLE R-SQUARED SPACING: 0.0625
Info: NONBONDED TABLE SIZE: 769 POINTS
TCL: Setting parameter alchLambda2 to 0.3125
Info: NONBONDED TABLE R-SQUARED SPACING: 0.0625
Info: NONBONDED TABLE SIZE: 769 POINTS
TCL: Running for 5000 steps
ETITLE: TS BOND ANGLE DIHED IMPRP ELECT VDW BOUNDARY MISC KINETIC TOTAL TEMP POTENTIAL TOTAL3 TEMPAVG PRESSURE GPRESSURE VOLUME PRESSAVG GPRESSAVG
ENERGY: 0 2.1813 4.2821 0.1672 0.0000 -13401.1896 1451.0724 0.0000 0.0000 2356.8496 -9586.6370 305.0857 -11943.4867 -9582.3170 305.0857 43.0731 43.0731 347222.3023 43.0731 43.0731
ENERGY: 1000 3.0749 3.5755 0.0291 0.0000 -13320.6240 1390.3041 0.0000 0.0000 2252.9737 -9670.6667 291.6393 -11923.6404 -9667.3149 295.5638 -13.7074 -14.2472 355619.7875 0.3654 0.3524
ENERGY: 2000 0.7017 1.8469 0.7525 0.0000 -13373.7683 1480.6140 0.0000 0.0000 2278.2206 -9611.6327 294.9075 -11889.8533 -9609.6677 299.0870 79.5418 78.8084 352392.6015 1.0707 1.0602
ENERGY: 3000 1.9088 3.5114 0.2796 0.0000 -13381.2209 1387.9955 0.0000 0.0000 2333.8641 -9653.6614 302.1103 -11987.5255 -9649.1345 299.6221 -30.0403 -30.2441 373123.8998 -0.2488 -0.2458
ENERGY: 4000 1.4950 3.7230 0.0943 0.0000 -13353.5799 1422.5784 0.0000 0.0000 2273.2490 -9652.4403 294.2639 -11925.6893 -9647.6891 292.1821 -6.6859 -6.7192 391615.3616 0.2847 0.2960
ENERGY: 5000 3.9072 1.6624 0.0962 0.0000 -13321.1026 1432.8189 0.0000 0.0000 2265.7010 -9616.9169 293.2868 -11882.6179 -9612.4118 295.5763 8.3639 8.4536 413145.7384 2.3972 2.3889
TCL: Running FEP window   6: Lambda1 0.3125 Lambda2 0.375  [dLambda 0.0625]
TCL: Setting parameter firsttimestep to 0
TCL: Setting parameter alchLambda to 0.3125
Info: NONBONDED TABLE R-SQUARED SPACING: 0.0625
Info: NONBONDED TABLE SIZE: 769 POINTS
TCL: Setting parameter alchLambda2 to 0.375
Info: NONBONDED TABLE R-SQUARED SPACING: 0.0625
Info: NONBONDED TABLE SIZE: 769 POINTS
TCL: Running for 5000 steps
ETITLE: TS BOND ANGLE DIHED IMPRP ELECT VDW BOUNDARY MISC KINETIC TOTAL TEMP POTENTIAL TOTAL3 TEMPAVG PRESSURE GPRESSURE VOLUME PRESSAVG GPRESSAVG
ENERGY: 0 3.9072 1.6624 0.0962 0.0000 -13321.1026 1432.6249 0.0000 0.0000 2265.6280 -9617.1839 293.2774 -11882.8119 -9612.8886 293.2774 8.7730 8.7730 413145.7384 8.7730 8.7730
ENERGY: 1000 1.7565 4.6075 0.0323 0.0000 -13343.0724 1370.0405 0.0000 0.0000 2308.1756 -9658.4599 298.7850 -11966.6355 -9653.0650 298.0465 -34.2536 -33.5934 403410.1772 -0.3026 -0.3274
ENERGY: 2000 2.1066 4.4704 0.0579 0.0000 -13448.1598 1468.2296 0.0000 0.0000 2278.1367 -9695.1585 294.8966 -11973.2952 -9690.1994 295.5271 26.9023 27.1910 398051.3837 -0.4971 -0.4668
ENERGY: 3000 0.6412 2.3285 0.3504 0.0000 -13448.1665 1477.4941 0.0000 0.0000 2280.2660 -9687.0863 295.1722 -11967.3523 -9682.5260 296.2256 35.0552 34.5740 394356.0949 2.4751 2.4793
ENERGY: 4000 2.2321 2.7685 0.4250 0.0000 -13409.1928 1424.9158 0.0000 0.0000 2327.0341 -9651.8173 301.2262 -11978.8514 -9648.5121 294.4717 -4.7855 -6.5761 400123.8977 -1.0646 -1.0362
ENERGY: 5000 1.5727 2.8838 0.0246 0.0000 -13286.2702 1415.5848 0.0000 0.0000 2232.9363 -9633.2681 289.0456 -11866.2045 -9628.6269 294.4143 -4.3375 -3.9874 422464.2185 0.1199 0.0845
TCL: Running FEP window   7: Lambda1 0.375  Lambda2 0.4375 [dLambda 0.0625]
TCL: Setting parameter firsttimestep to 0
TCL: Setting parameter alchLambda to 0.375
Info: NONBONDED TABLE R-SQUARED SPACING: 0.0625
Info: NONBONDED TABLE SIZE: 769 POINTS
TCL: Setting parameter alchLambda2 to 0.4375
Info: NONBONDED TABLE R-SQUARED SPACING: 0.0625
Info: NONBONDED TABLE SIZE: 769 POINTS
TCL: Running for 5000 steps
ETITLE: TS BOND ANGLE DIHED IMPRP ELECT VDW BOUNDARY MISC KINETIC TOTAL TEMP POTENTIAL TOTAL3 TEMPAVG PRESSURE GPRESSURE VOLUME PRESSAVG GPRESSAVG
ENERGY: 0 1.5727 2.8838 0.0246 0.0000 -13286.2702 1416.4943 0.0000 0.0000 2232.8671 -9632.4279 289.0366 -11865.2950 -9628.5337 289.0366 -3.2180 -3.2180 422464.2185 -3.2180 -3.2180
ENERGY: 1000 2.1018 5.9048 0.4489 0.0000 -13265.6916 1390.1402 0.0000 0.0000 2310.9966 -9556.0992 299.1502 -11867.0959 -9550.0644 299.8214 -18.6723 -19.0466 436461.7761 3.6247 3.6149
ENERGY: 2000 0.5628 4.3595 0.0840 0.0000 -13334.4011 1375.3819 0.0000 0.0000 2305.9380 -9648.0749 298.4954 -11954.0129 -9644.6547 298.6265 -26.4456 -26.4901 436774.9433 1.0963 1.0806
ENERGY: 3000 1.5146 1.8906 0.4354 0.0000 -13397.0703 1455.5083 0.0000 0.0000 2360.4320 -9577.2894 305.5494 -11937.7214 -9573.6684 298.1327 43.9638 44.1844 421772.8524 -0.0495 -0.0515
ENERGY: 4000 1.0130 5.0050 0.9259 0.0000 -13416.3613 1436.6526 0.0000 0.0000 2324.8762 -9647.8886 300.9469 -11972.7648 -9642.5581 295.2140 -0.7884 -0.1586 409441.1390 2.5116 2.4645
ENERGY: 5000 0.9092 4.8940 0.5055 0.0000 -13352.5252 1474.2884 0.0000 0.0000 2334.9374 -9536.9906 302.2492 -11871.9280 -9532.2847 299.9711 14.9152 15.5018 395704.8892 1.2833 1.3244
TCL: Running FEP window   8: Lambda1 0.4375 Lambda2 0.5    [dLambda 0.0625]
TCL: Setting parameter firsttimestep to 0
TCL: Setting parameter alchLambda to 0.4375
Info: NONBONDED TABLE R-SQUARED SPACING: 0.0625
Info: NONBONDED TABLE SIZE: 769 POINTS
TCL: Setting parameter alchLambda2 to 0.5
Info: NONBONDED TABLE R-SQUARED SPACING: 0.0625
Info: NONBONDED TABLE SIZE: 769 POINTS
TCL: Running for 5000 steps
ETITLE: TS BOND ANGLE DIHED IMPRP ELECT VDW BOUNDARY MISC KINETIC TOTAL TEMP POTENTIAL TOTAL3 TEMPAVG PRESSURE GPRESSURE VOLUME PRESSAVG GPRESSAVG
ENERGY: 0 0.9092 4.8940 0.5055 0.0000 -13352.5252 1475.3253 0.0000 0.0000 2334.8648 -9536.0263 302.2399 -11870.8911 -9531.9935 302.2399 16.2852 16.2852 395704.8892 16.2852 16.2852
ENERGY: 1000 0.5841 1.6246 1.1813 0.0000 -13193.2804 1369.1845 0.0000 0.0000 2284.2774 -9536.4284 295.6915 -11820.7058 -9533.3814 298.6744 -25.5978 -25.3722 384050.0944 -2.1752 -2.1340
ENERGY: 2000 1.7666 3.1630 0.0338 0.0000 -13268.3793 1437.6750 0.0000 0.0000 2292.5984 -9533.1425 296.7686 -11825.7408 -9527.8215 300.1542 3.2066 3.3376 383624.9382 2.4476 2.4236
ENERGY: 3000 1.2290 3.0435 0.7496 0.0000 -13260.0167 1377.7647 0.0000 0.0000 2333.6488 -9543.5812 302.0824 -11877.2300 -9537.6103 300.6151 -38.3513 -38.6172 370961.1338 1.5455 1.6351
ENERGY: 4000 2.1387 2.0589 0.2933 0.0000 -13432.6026 1483.5900 0.0000 0.0000 2337.4074 -9607.1143 302.5690 -11944.5216 -9601.9029 300.0638 47.6170 47.0356 367651.0215 -1.2326 -1.2446
ENERGY: 5000 2.6716 3.9648 0.6528 0.0000 -13440.8400 1488.2641 0.0000 0.0000 2243.7827 -9701.5040 290.4496 -11945.2867 -9696.9962 293.0842 32.2621 32.6085 363201.6596 5.0261 5.0059
TCL: Running FEP window   9: Lambda1 0.5    Lambda2 0.5625 [dLambda 0.0625]
TCL: Setting parameter firsttimestep to 0
TCL: Setting parameter alchLambda to 0.5
Info: NONBONDED TABLE R-SQUARED SPACING: 0.0625
Info: NONBONDED TABLE SIZE: 769 POINTS
TCL: Setting parameter alchLambda2 to 0.5625
Info: NONBONDED TABLE R-SQUARED SPACING: 0.0625
Info: NONBONDED TABLE SIZE: 769 POINTS
TCL: Running for 5000 steps
ETITLE: TS BOND ANGLE DIHED IMPRP ELECT VDW BOUNDARY MISC KINETIC TOTAL TEMP POTENTIAL TOTAL3 TEMPAVG PRESSURE GPRESSURE VOLUME PRESSAVG GPRESSAVG
ENERGY: 0 2.6716 3.9648 0.6528 0.0000 -13440.8400 1487.7639 0.0000 0.0000 2243.7122 -9702.0747 290.4405 -11945.7869 -9698.6115 290.4405 32.9795 32.9795 363201.6596 32.9795 32.9795
ENERGY: 1000 0.6383 2.3992 0.2621 0.0000 -13522.5406 1493.3258 0.0000 0.0000 2289.9407 -9735.9745 296.4246 -12025.9152 -9732.7237 291.8489 41.7153 41.3251 338378.1655 0.3194 0.2998
ENERGY: 2000 0.5627 3.3225 0.0729 0.0000 -13550.0312 1498.2941 0.0000 0.0000 2343.0182 -9704.7608 303.2953 -12047.7790 -9702.1549 293.9913 29.1085 29.0691 328215.5157 -1.2385 -1.2400
ENERGY: 3000 2.0360 2.2845 0.0496 0.0000 -13381.9151 1427.5056 0.0000 0.0000 2331.6388 -9618.4006 301.8223 -11950.0394 -9612.5648 296.4420 10.5747 9.8889 324830.7016 -0.5797 -0.5545
ENERGY: 4000 1.3808 5.9869 0.4971 0.0000 -13239.5173 1363.8452 0.0000 0.0000 2312.2461 -9555.5612 299.3119 -11867.8073 -9552.4871 300.1757 7.8243 8.4238 311730.7846 0.5758 0.5914
ENERGY: 5000 1.4417 1.8430 0.0235 0.0000 -13419.0838 1508.6085 0.0000 0.0000 2325.5781 -9581.5890 301.0377 -11907.1671 -9578.7781 298.1173 85.4319 85.8621 320780.3075 -1.0525 -1.1209
TCL: Running FEP window  10: Lambda1 0.5625 Lambda2 0.625  [dLambda 0.0625]
TCL: Setting parameter firsttimestep to 0
TCL: Setting parameter alchLambda to 0.5625
Info: NONBONDED TABLE R-SQUARED SPACING: 0.0625
Info: NONBONDED TABLE SIZE: 769 POINTS
TCL: Setting parameter alchLambda2 to 0.625
Info: NONBONDED TABLE R-SQUARED SPACING: 0.0625
Info: NONBONDED TABLE SIZE: 769 POINTS
TCL: Running for 5000 steps
ETITLE: TS BOND ANGLE DIHED IMPRP ELECT VDW BOUNDARY MISC KINETIC TOTAL TEMP POTENTIAL TOTAL3 TEMPAVG PRESSURE GPRESSURE VOLUME PRESSAVG GPRESSAVG
ENERGY: 0 1.4417 1.8430 0.0235 0.0000 -13417.2087 1510.7958 0.0000 0.0000 2325.5074 -9577.5973 301.0286 -11903.1048 -9573.5102 301.0286 88.5952 88.5952 320780.3075 88.5952 88.5952
ENERGY: 1000 0.5550 5.0891 2.4500 0.0000 -13313.7846 1412.0388 0.0000 0.0000 2299.8882 -9593.7635 297.7123 -11893.6517 -9590.1333 300.7477 12.4892 12.8228 317539.6225 3.5992 3.6016
ENERGY: 2000 3.0712 5.1920 0.1173 0.0000 -13324.6934 1366.1455 0.0000 0.0000 2238.6208 -9711.5465 289.7814 -11950.1673 -9704.9443 298.3524 -35.8511 -35.2665 301671.2174 1.7374 1.7477
ENERGY: 3000 1.8602 3.4684 0.1366 0.0000 -13411.7417 1439.8016 0.0000 0.0000 2290.6014 -9675.8735 296.5101 -11966.4749 -9672.9301 295.2415 9.5428 10.2816 279629.8578 -1.4069 -1.3848
ENERGY: 4000 0.2151 2.5539 0.6221 0.0000 -13336.0437 1432.1717 0.0000 0.0000 2283.4031 -9617.0778 295.5783 -11900.4809 -9614.9965 296.8816 37.0461 36.2914 262243.3391 -0.7526 -0.7864
ENERGY: 5000 0.7136 5.2069 0.7177 0.0000 -13489.9262 1507.4852 0.0000 0.0000 2328.6696 -9647.1333 301.4379 -11975.8029 -9642.0073 296.2147 103.6294 103.4957 251328.1659 5.5182 5.4922
TCL: Running FEP window  11: Lambda1 0.625  Lambda2 0.6875 [dLambda 0.0625]
TCL: Setting parameter firsttimestep to 0
TCL: Setting parameter alchLambda to 0.625
Info: NONBONDED TABLE R-SQUARED SPACING: 0.0625
Info: NONBONDED TABLE SIZE: 769 POINTS
TCL: Setting parameter alchLambda2 to 0.6875
Info: NONBONDED TABLE R-SQUARED SPACING: 0.0625
Info: NONBONDED TABLE SIZE: 769 POINTS
TCL: Running for 5000 steps
ETITLE: TS BOND ANGLE DIHED IMPRP ELECT VDW BOUNDARY MISC KINETIC TOTAL TEMP POTENTIAL TOTAL3 TEMPAVG PRESSURE GPRESSURE VOLUME PRESSAVG GPRESSAVG
ENERGY: 0 0.7136 5.2069 0.7177 0.0000 -13490.2123 1507.0939 0.0000 0.0000 2328.5946 -9647.8856 301.4282 -11976.4802 -9644.1395 301.4282 104.4943 104.4943 251328.1659 104.4943 104.4943
ENERGY: 1000 1.2064 3.2374 0.1788 0.0000 -13533.0639 1474.1035 0.0000 0.0000 2333.2203 -9721.1176 302.0270 -12054.3379 -9717.0357 292.0647 77.9752 78.1979 239387.4758 3.0927 3.1582
ENERGY: 2000 1.4214 4.1142 0.1756 0.0000 -13365.9396 1395.1397 0.0000 0.0000 2344.6283 -9620.4604 303.5037 -11965.0887 -9615.2162 298.2409 -11.1661 -11.6808 239726.6546 1.1454 1.0996
ENERGY: 3000 0.8155 7.6511 0.0614 0.0000 -13316.9163 1383.8333 0.0000 0.0000 2352.4779 -9572.0771 304.5198 -11924.5550 -9568.7556 299.4283 -16.4518 -18.2446 241085.0843 2.1045 2.0435
ENERGY: 4000 3.3054 3.8766 0.0887 0.0000 -13212.4622 1376.4196 0.0000 0.0000 2332.0897 -9496.6820 301.8806 -11828.7717 -9490.6263 299.5592 -43.5015 -43.5605 250712.2544 2.2022 2.1642
ENERGY: 5000 1.6786 4.7544 0.0945 0.0000 -13468.3884 1521.8365 0.0000 0.0000 2367.0263 -9572.9980 306.4030 -11940.0243 -9568.3798 302.2172 146.4392 144.5944 242074.5504 0.2309 0.1916
TCL: Running FEP window  12: Lambda1 0.6875 Lambda2 0.75   [dLambda 0.0625]
TCL: Setting parameter firsttimestep to 0
TCL: Setting parameter alchLambda to 0.6875
Info: NONBONDED TABLE R-SQUARED SPACING: 0.0625
Info: NONBONDED TABLE SIZE: 769 POINTS
TCL: Setting parameter alchLambda2 to 0.75
Info: NONBONDED TABLE R-SQUARED SPACING: 0.0625
Info: NONBONDED TABLE SIZE: 769 POINTS
TCL: Running for 5000 steps
ETITLE: TS BOND ANGLE DIHED IMPRP ELECT VDW BOUNDARY MISC KINETIC TOTAL TEMP POTENTIAL TOTAL3 TEMPAVG PRESSURE GPRESSURE VOLUME PRESSAVG GPRESSAVG
ENERGY: 0 1.6786 4.7544 0.0945 0.0000 -13468.6700 1521.4416 0.0000 0.0000 2366.9522 -9573.7487 306.3934 -11940.7009 -9570.3883 306.3934 145.2812 145.2812 242074.5504 145.2812 145.2812
ENERGY: 1000 1.7460 3.8371 0.0357 0.0000 -13315.6573 1419.2754 0.0000 0.0000 2328.8142 -9561.9490 301.4566 -11890.7632 -9556.1321 301.2273 14.1038 15.7867 248198.9053 0.5581 0.5820
ENERGY: 2000 2.5634 2.3734 0.1878 0.0000 -13439.3283 1444.9325 0.0000 0.0000 2218.2484 -9771.0228 287.1443 -11989.2712 -9767.5654 293.5973 6.4741 7.0751 244946.2225 1.3347 1.3421
ENERGY: 3000 1.5569 4.4898 0.1781 0.0000 -13467.2638 1406.4856 0.0000 0.0000 2241.9736 -9812.5797 290.2154 -12054.5533 -9808.2366 292.5264 -31.1923 -32.4583 231435.4960 3.1538 3.1209
ENERGY: 4000 1.2798 3.4825 0.0497 0.0000 -13503.1419 1405.5145 0.0000 0.0000 2321.3186 -9771.4970 300.4863 -12092.8156 -9766.2178 291.0559 -61.9416 -60.9734 217676.2616 5.1570 5.2126
ENERGY: 5000 1.1364 1.3293 0.0326 0.0000 -13480.6441 1521.5909 0.0000 0.0000 2265.3156 -9691.2393 293.2370 -11956.5549 -9687.4323 291.1979 154.5065 156.3235 218512.9626 -0.0523 0.0300
TCL: Running FEP window  13: Lambda1 0.75   Lambda2 0.8125 [dLambda 0.0625]
TCL: Setting parameter firsttimestep to 0
TCL: Setting parameter alchLambda to 0.75
Info: NONBONDED TABLE R-SQUARED SPACING: 0.0625
Info: NONBONDED TABLE SIZE: 769 POINTS
TCL: Setting parameter alchLambda2 to 0.8125
Info: NONBONDED TABLE R-SQUARED SPACING: 0.0625
Info: NONBONDED TABLE SIZE: 769 POINTS
TCL: Running for 5000 steps
ETITLE: TS BOND ANGLE DIHED IMPRP ELECT VDW BOUNDARY MISC KINETIC TOTAL TEMP POTENTIAL TOTAL3 TEMPAVG PRESSURE GPRESSURE VOLUME PRESSAVG GPRESSAVG
ENERGY: 0 1.1364 1.3293 0.0326 0.0000 -13480.8158 1521.4910 0.0000 0.0000 2265.2488 -9691.5777 293.2283 -11956.8265 -9687.9139 293.2283 156.3725 156.3725 218512.9626 156.3725 156.3725
ENERGY: 1000 2.1633 2.8470 0.1046 0.0000 -13350.5287 1401.1917 0.0000 0.0000 2264.1438 -9680.0784 293.0853 -11944.2221 -9675.7931 295.0402 -16.3669 -18.0365 216731.3092 -1.8069 -1.8279
ENERGY: 2000 3.0762 3.5406 0.1964 0.0000 -13432.8379 1427.5701 0.0000 0.0000 2232.5455 -9765.9090 288.9950 -11998.4545 -9762.3718 293.2545 -3.8130 -4.8970 211942.6321 2.4896 2.5519
ENERGY: 3000 2.0559 3.0811 0.0425 0.0000 -13430.0720 1446.9119 0.0000 0.0000 2273.3305 -9704.6501 294.2745 -11977.9805 -9701.0035 295.4123 41.0191 42.9611 202526.9733 2.7439 2.7494
ENERGY: 4000 1.1703 2.6671 0.6739 0.0000 -13460.8784 1418.1921 0.0000 0.0000 2256.5030 -9781.6721 292.0962 -12038.1751 -9776.6342 293.3743 -51.9271 -52.2871 201528.7735 2.7909 2.8341
ENERGY: 5000 1.0095 4.2644 0.0305 0.0000 -13476.4135 1488.8837 0.0000 0.0000 2250.2296 -9731.9959 291.2841 -11982.2255 -9724.2144 291.4202 64.2840 64.8623 206595.4337 3.9891 4.0807
TCL: Running FEP window  14: Lambda1 0.8125 Lambda2 0.875  [dLambda 0.0625]
TCL: Setting parameter firsttimestep to 0
TCL: Setting parameter alchLambda to 0.8125
Info: NONBONDED TABLE R-SQUARED SPACING: 0.0625
Info: NONBONDED TABLE SIZE: 769 POINTS
TCL: Setting parameter alchLambda2 to 0.875
Info: NONBONDED TABLE R-SQUARED SPACING: 0.0625
Info: NONBONDED TABLE SIZE: 769 POINTS
TCL: Running for 5000 steps
ETITLE: TS BOND ANGLE DIHED IMPRP ELECT VDW BOUNDARY MISC KINETIC TOTAL TEMP POTENTIAL TOTAL3 TEMPAVG PRESSURE GPRESSURE VOLUME PRESSAVG GPRESSAVG
ENERGY: 0 1.0095 4.2644 0.0305 0.0000 -13476.5846 1489.0290 0.0000 0.0000 2250.1561 -9732.0952 291.2746 -11982.2513 -9727.5945 291.2746 65.7780 65.7780 206595.4337 65.7780 65.7780
ENERGY: 1000 6.2142 4.0055 0.0291 0.0000 -13359.6944 1399.3592 0.0000 0.0000 2263.5756 -9686.5108 293.0117 -11950.0864 -9681.9500 295.1251 -91.7776 -90.7477 199218.8357 -0.2221 -0.2792
ENERGY: 2000 1.8230 2.2251 0.5795 0.0000 -13348.5281 1376.1066 0.0000 0.0000 2285.3995 -9682.3944 295.8367 -11967.7940 -9679.8728 298.7639 -42.1247 -40.7649 191408.1553 5.1079 5.1729
ENERGY: 3000 1.1792 2.4399 0.0096 0.0000 -13361.3056 1415.7952 0.0000 0.0000 2292.7421 -9649.1397 296.7872 -11941.8817 -9646.0325 293.8009 -17.2815 -17.1910 188453.0175 -0.2486 -0.3770
ENERGY: 4000 1.0404 2.7469 0.0513 0.0000 -13308.4659 1399.7479 0.0000 0.0000 2278.9385 -9625.9410 295.0004 -11904.8794 -9622.8205 296.5447 23.4035 26.4205 187050.6308 4.5879 4.6043
ENERGY: 5000 2.3918 5.3617 0.0885 0.0000 -13351.2066 1425.1051 0.0000 0.0000 2294.3698 -9623.8898 296.9979 -11918.2596 -9619.2070 298.2850 11.2265 13.2795 189283.9849 2.9007 2.9222
TCL: Running FEP window  15: Lambda1 0.875  Lambda2 0.9375 [dLambda 0.0625]
TCL: Setting parameter firsttimestep to 0
TCL: Setting parameter alchLambda to 0.875
Info: NONBONDED TABLE R-SQUARED SPACING: 0.0625
Info: NONBONDED TABLE SIZE: 769 POINTS
TCL: Setting parameter alchLambda2 to 0.9375
Info: NONBONDED TABLE R-SQUARED SPACING: 0.0625
Info: NONBONDED TABLE SIZE: 769 POINTS
TCL: Running for 5000 steps
ETITLE: TS BOND ANGLE DIHED IMPRP ELECT VDW BOUNDARY MISC KINETIC TOTAL TEMP POTENTIAL TOTAL3 TEMPAVG PRESSURE GPRESSURE VOLUME PRESSAVG GPRESSAVG
ENERGY: 0 2.3918 5.3617 0.0885 0.0000 -13351.3464 1425.1224 0.0000 0.0000 2294.3023 -9624.0798 296.9892 -11918.3821 -9619.9562 296.9892 13.7294 13.7294 189283.9849 13.7294 13.7294
ENERGY: 1000 0.6190 3.4115 0.0317 0.0000 -13332.8321 1433.7135 0.0000 0.0000 2267.7039 -9627.3526 293.5461 -11895.0565 -9625.4700 298.2891 47.5679 45.3686 182936.4831 -5.4216 -5.3712
ENERGY: 2000 4.7401 3.0627 0.2506 0.0000 -13366.5432 1410.0090 0.0000 0.0000 2288.1118 -9660.3689 296.1878 -11948.4808 -9654.9350 294.5890 -17.1394 -16.3339 196360.8291 3.9118 3.9238
ENERGY: 3000 3.2350 1.7005 0.5187 0.0000 -13375.5931 1430.4770 0.0000 0.0000 2262.2697 -9677.3923 292.8427 -11939.6619 -9671.7137 294.1515 5.8755 7.0022 205364.5947 0.8672 0.9160
ENERGY: 4000 5.6329 2.8556 0.0644 0.0000 -13514.0079 1504.5972 0.0000 0.0000 2270.0191 -9730.8386 293.8458 -12000.8578 -9725.4947 295.4634 110.4184 109.2498 211693.9833 3.8091 3.7346
ENERGY: 5000 3.1501 2.7503 0.1998 0.0000 -13526.7881 1499.7103 0.0000 0.0000 2290.1862 -9730.7914 296.4564 -12020.9776 -9728.8217 294.3519 75.6413 76.0091 215150.3158 3.3926 3.4844
TCL: Running FEP window  16: Lambda1 0.9375 Lambda2 1.0    [dLambda 0.0625]
TCL: Setting parameter firsttimestep to 0
TCL: Setting parameter alchLambda to 0.9375
Info: NONBONDED TABLE R-SQUARED SPACING: 0.0625
Info: NONBONDED TABLE SIZE: 769 POINTS
TCL: Setting parameter alchLambda2 to 1.0
Info: NONBONDED TABLE R-SQUARED SPACING: 0.0625
Info: NONBONDED TABLE SIZE: 769 POINTS
TCL: Running for 5000 steps
ETITLE: TS BOND ANGLE DIHED IMPRP ELECT VDW BOUNDARY MISC KINETIC TOTAL TEMP POTENTIAL TOTAL3 TEMPAVG PRESSURE GPRESSURE VOLUME PRESSAVG GPRESSAVG
ENERGY: 0 3.1501 2.7503 0.1998 0.0000 -13527.1743 1500.2591 0.0000 0.0000 2290.1121 -9730.7029 296.4468 -12020.8149 -9726.7012 296.4468 77.3538 77.3538 215150.3158 77.3538 77.3538
ENERGY: 1000 1.7407 3.2811 0.1667 0.0000 -13472.5718 1418.9424 0.0000 0.0000 2287.1553 -9761.2857 296.0640 -12048.4409 -9758.3432 293.1944 -18.8181 -18.4120 224432.5501 4.1334 4.1386
ENERGY: 2000 1.4420 2.6247 0.0945 0.0000 -13403.1404 1386.1915 0.0000 0.0000 2282.2002 -9730.5876 295.4226 -12012.7877 -9725.9597 292.4858 -44.1029 -43.5729 227468.1429 2.1523 2.1471
ENERGY: 3000 1.3968 7.5181 0.2727 0.0000 -13345.7483 1380.9034 0.0000 0.0000 2265.4704 -9690.1868 293.2570 -11955.6572 -9684.4795 294.3630 -61.8330 -62.5086 221836.0217 -3.9819 -4.0290
ENERGY: 4000 1.9468 4.7728 0.8127 0.0000 -13500.5133 1541.9651 0.0000 0.0000 2323.1880 -9627.8279 300.7283 -11951.0159 -9623.3813 296.1735 111.5565 112.7977 213470.4194 1.8102 1.7898
ENERGY: 5000 1.6040 3.4662 0.1550 0.0000 -13324.3237 1381.1316 0.0000 0.0000 2284.1156 -9653.8513 295.6706 -11937.9669 -9649.8354 297.0597 -64.8489 -65.8939 204809.0686 -4.5923 -4.5785
