Info: SIMULATION PARAMETERS:
Info: TIMESTEP               2
Info: NUMBER OF STEPS        0
Info: STEPS PER CYCLE        10
Info: PERIODIC CELL BASIS 1  41.123 0 0
Info: PERIODIC CELL BASIS 2  0 39.303 0
Info: PERIODIC CELL BASIS 3  0 0 40.862
Info: PERIODIC CELL CENTER   0 0 0
Info: WRAPPING WATERS AROUND PERIODIC BOUNDARIES ON OUTPUT.
Info: WRAPPING ALL CLUSTERS AROUND PERIODIC BOUNDARIES ON OUTPUT.
Info: FIRST LDB TIMESTEP     50
Info: LAST LDB TIMESTEP     -1
Info: HOM BACKGROUND SCALING 1
Info: PME BACKGROUND SCALING 1
Info: MIN ATOMS PER PATCH    40
Info: EMPTY PATCH LOAD       40 ATOMS
Info: INITIAL TEMPERATURE    300
Info: CENTER OF MASS MOVING INITIALLY? NO
Info: DIELECTRIC             1
Info: EXCLUDE                SCALED ONE-FOUR
Info: 1-4 ELECTROSTATICS SCALED BY 0.833333
Info: MODIFIED 1-4 VDW PARAMETERS WILL BE USED
Info: DCD FILENAME           mobley_8723116_min.dcd
Info: DCD FREQUENCY          5000
Info: DCD FIRST STEP         5000
Info: DCD FILE WILL CONTAIN UNIT CELL DATA
Info: XST FILENAME           mobley_8723116_min.xst
Info: XST FREQUENCY          5000
Info: NO VELOCITY DCD OUTPUT
Info: NO FORCE DCD OUTPUT
Info: OUTPUT FILENAME        mobley_8723116_min
Info: BINARY OUTPUT FILES WILL BE USED
Info: RESTART FILENAME       mobley_8723116_min.restart
Info: RESTART FREQUENCY      5000
Info: BINARY RESTART FILES WILL BE USED
Info: CUTOFF                 9
Info: PAIRLIST DISTANCE      11
Info: PAIRLIST SHRINK RATE   0.01
Info: PAIRLIST GROW RATE     0.01
Info: PAIRLIST TRIGGER       0.3
Info: PAIRLISTS PER CYCLE    2
Info: PAIRLISTS ENABLED
Info: MARGIN                 8
Info: HYDROGEN GROUP CUTOFF  2.5
Info: PATCH DIMENSION        21.5
Info: ENERGY OUTPUT STEPS    5000
Info: ENERGY EVALUATION STEPS    5000
Info: OUTPUT ENERGY PRECISION 4
Info: CROSSTERM ENERGY INCLUDED IN DIHEDRAL
Info: TIMING OUTPUT STEPS    50000
Info: PRESSURE OUTPUT STEPS  5000
Info: LANGEVIN DYNAMICS ACTIVE
Info: LANGEVIN TEMPERATURE   300
Info: LANGEVIN USING BBK INTEGRATOR
Info: LANGEVIN DAMPING COEFFICIENT IS 1 INVERSE PS
Info: LANGEVIN DYNAMICS APPLIED TO HYDROGENS
Info: LANGEVIN PISTON PRESSURE CONTROL ACTIVE
Info:        TARGET PRESSURE IS 1.01325 BAR
Info:     OSCILLATION PERIOD IS 50 FS
Info:             DECAY TIME IS 25 FS
Info:     PISTON TEMPERATURE IS 300 K
Info:       PRESSURE CONTROL IS GROUP-BASED
Info:    INITIAL STRAIN RATE IS 0 0 0
Info:       CELL FLUCTUATION IS ISOTROPIC
Info: PARTICLE MESH EWALD (PME) ACTIVE
Info: PME TOLERANCE               1e-06
Info: PME EWALD COEFFICIENT       0.348832
Info: PME INTERPOLATION ORDER     4
Info: PME GRID DIMENSIONS         44 40 44
Info: PME MAXIMUM GRID SPACING    1
Info: FULL ELECTROSTATIC EVALUATION FREQUENCY      2
Info: USING VERLET I (r-RESPA) MTS SCHEME.
Info: C1 SPLITTING OF LONG RANGE ELECTROSTATICS
Info: PLACING ATOMS IN PATCHES BY HYDROGEN GROUPS
Info: RIGID BONDS TO HYDROGEN : ALL
Info:         ERROR TOLERANCE : 1e-08
Info:          MAX ITERATIONS : 100
Info: RIGID WATER USING SETTLE ALGORITHM
Info: RANDOM NUMBER SEED     1741397785
Info: USE HYDROGEN BONDS?    NO
Info: Using AMBER format force field!
Info: AMBER PARM FILE        mobley_8723116.prmtop
Info: COORDINATE PDB         mobley_8723116.pdb
Info: Exclusions will be read from PARM file!
Info: SCNB (VDW SCALING)     2
Info: USING ARITHMETIC MEAN TO COMBINE L-J SIGMA PARAMETERS
Info: SUMMARY OF PARAMETERS:
Info: 7 BONDS
Info: 6 ANGLES
Info:   6 HARMONIC
Info:   0 COSINE-BASED
Info: 3 DIHEDRAL
Info: 0 IMPROPER
Info: 0 CROSSTERM
Info: 0 VDW
Info: 28 VDW_PAIRS
Info: 0 NBTHOLE_PAIRS
Info: STRUCTURE SUMMARY:
Info: 4820 ATOMS
Info: 4820 BONDS
Info: 21 ANGLES
Info: 33 DIHEDRALS
Info: 0 IMPROPERS
Info: 0 CROSSTERMS
Info: 4866 EXCLUSIONS
Info: 4812 RIGID BONDS
Info: 9648 DEGREES OF FREEDOM
Info: 1610 HYDROGEN GROUPS
Info: 3 ATOMS IN LARGEST HYDROGEN GROUP
Info: 1610 MIGRATION GROUPS
Info: 3 ATOMS IN LARGEST MIGRATION GROUP
Info: TOTAL MASS = 28989.2 amu
Info: TOTAL CHARGE = -2.6077e-08 e
Info: MASS DENSITY = 0.728896 g/cm^3
Info: ATOM DENSITY = 0.0729822 atoms/A^3
Info: ADDED 0 IMPLICIT EXCLUSIONS
Info: NONBONDED TABLE R-SQUARED SPACING: 0.0625
Info: NONBONDED TABLE SIZE: 705 POINTS
Info: REMOVING COM VELOCITY -0.0254513 -0.137077 0.0316983
TCL: Minimizing for 2000 steps
ETITLE: TS BOND ANGLE DIHED IMPRP ELECT VDW BOUNDARY MISC KINETIC TOTAL TEMP POTENTIAL TOTAL3 TEMPAVG PRESSURE GPRESSURE VOLUME PRESSAVG GPRESSAVG
ENERGY: 0 0.2925 0.8687 0.0251 0.0000 -15102.6634 1726.1046 0.0000 0.0000 0.0000 -13375.3726 0.0000 -13375.3726 -13375.3726 0.0000 11349.7319 -15870.7983 66043.5045 11349.7319 -15870.7983
ENERGY: 400 2.7286 2.8611 1.2886 0.0000 -20242.4165 2946.0124 0.0000 0.0000 0.0000 -17289.5257 0.0000 -17289.5257 -17289.5257 0.0000 15969.8423 15710.7830 66043.5045 15969.8423 15710.7830
ENERGY: 800 0.6487 0.3390 0.8315 0.0000 -21214.6550 3407.9416 0.0000 0.0000 0.0000 -17804.8942 0.0000 -17804.8942 -17804.8942 0.0000 18139.2683 17832.1016 66043.5045 18139.2683 17832.1016
ENERGY: 1200 0.8019 0.4309 0.8557 0.0000 -21709.7026 3660.1103 0.0000 0.0000 0.0000 -18047.5038 0.0000 -18047.5038 -18047.5038 0.0000 19333.5378 18981.3122 66043.5045 19333.5378 18981.3122
ENERGY: 1600 0.1804 0.6602 0.6260 0.0000 -21990.5019 3801.3622 0.0000 0.0000 0.0000 -18187.6730 0.0000 -18187.6730 -18187.6730 0.0000 20111.7633 19754.4750 66043.5045 20111.7633 19754.4750
ENERGY: 2000 0.3580 0.9288 0.2484 0.0000 -22115.2328 3831.3250 0.0000 0.0000 0.0000 -18282.3727 0.0000 -18282.3727 -18282.3727 0.0000 20274.2473 20016.4599 66043.5045 20274.2473 20016.4599
TCL: Exiting due to exit command.
Info: NAMD 3.0.1 for Linux-x86_64-multicore
Info: Please visit http://www.ks.uiuc.edu/Research/namd/
Info: for updates, documentation, and support information.
Info: Please cite Phillips et al., J. Chem. Phys. 153:044130 (2020) doi:10.1063/5.0014475
Info: in all publications reporting results obtained with NAMD.
Info: Based on Charm++/Converse 80000 for multicore-linux-x86_64-gcc
Info: Built Mon Oct 14 11:11:06 CDT 2024 by dhardy on athine.ks.uiuc.edu
Info: 1 NAMD  3.0.1  Linux-x86_64-multicore  16    k025  z5358697
Info: Running on 16 processors, 1 nodes, 1 physical nodes.
Info: CPU topology information available.
Info: Charm++/Converse parallel runtime startup completed at 0.00770927 s
Info: 1043.46 MB of memory in use based on /proc/self/stat
Info: Configuration file is mobley_8723116_equil.namd
Info: Working in the current directory /srv/scratch/z5358697/prod_prep_11/8723116
TCL: Running 25000 steps at 30 kelvin.
TCL: Suspending until startup complete.
Info: SIMULATION PARAMETERS:
Info: TIMESTEP               2
Info: NUMBER OF STEPS        0
Info: STEPS PER CYCLE        10
Info: PERIODIC CELL BASIS 1  41.123 0 0
Info: PERIODIC CELL BASIS 2  0 39.303 0
Info: PERIODIC CELL BASIS 3  0 0 40.862
Info: PERIODIC CELL CENTER   0 0 0
Info: WRAPPING WATERS AROUND PERIODIC BOUNDARIES ON OUTPUT.
Info: WRAPPING ALL CLUSTERS AROUND PERIODIC BOUNDARIES ON OUTPUT.
Info: FIRST LDB TIMESTEP     50
Info: LAST LDB TIMESTEP     -1
Info: HOM BACKGROUND SCALING 1
Info: PME BACKGROUND SCALING 1
Info: MIN ATOMS PER PATCH    40
Info: EMPTY PATCH LOAD       40 ATOMS
Info: INITIAL TEMPERATURE    300
Info: CENTER OF MASS MOVING INITIALLY? NO
Info: DIELECTRIC             1
Info: EXCLUDE                SCALED ONE-FOUR
Info: 1-4 ELECTROSTATICS SCALED BY 0.833333
Info: MODIFIED 1-4 VDW PARAMETERS WILL BE USED
Info: DCD FILENAME           mobley_8723116_equil.dcd
Info: DCD FREQUENCY          5000
Info: DCD FIRST STEP         5000
Info: DCD FILE WILL CONTAIN UNIT CELL DATA
Info: XST FILENAME           mobley_8723116_equil.xst
Info: XST FREQUENCY          5000
Info: NO VELOCITY DCD OUTPUT
Info: NO FORCE DCD OUTPUT
Info: OUTPUT FILENAME        mobley_8723116_equil
Info: BINARY OUTPUT FILES WILL BE USED
Info: RESTART FILENAME       mobley_8723116_equil.restart
Info: RESTART FREQUENCY      5000
Info: BINARY RESTART FILES WILL BE USED
Info: CUTOFF                 9
Info: PAIRLIST DISTANCE      11
Info: PAIRLIST SHRINK RATE   0.01
Info: PAIRLIST GROW RATE     0.01
Info: PAIRLIST TRIGGER       0.3
Info: PAIRLISTS PER CYCLE    2
Info: PAIRLISTS ENABLED
Info: MARGIN                 8
Info: HYDROGEN GROUP CUTOFF  2.5
Info: PATCH DIMENSION        21.5
Info: ENERGY OUTPUT STEPS    5000
Info: ENERGY EVALUATION STEPS    5000
Info: OUTPUT ENERGY PRECISION 4
Info: CROSSTERM ENERGY INCLUDED IN DIHEDRAL
Info: TIMING OUTPUT STEPS    50000
Info: PRESSURE OUTPUT STEPS  5000
Info: LANGEVIN DYNAMICS ACTIVE
Info: LANGEVIN TEMPERATURE   30
Info: LANGEVIN USING BBK INTEGRATOR
Info: LANGEVIN DAMPING COEFFICIENT IS 1 INVERSE PS
Info: LANGEVIN DYNAMICS APPLIED TO HYDROGENS
Info: LANGEVIN PISTON PRESSURE CONTROL ACTIVE
Info:        TARGET PRESSURE IS 1.01325 BAR
Info:     OSCILLATION PERIOD IS 50 FS
Info:             DECAY TIME IS 25 FS
Info:     PISTON TEMPERATURE IS 300 K
Info:       PRESSURE CONTROL IS GROUP-BASED
Info:    INITIAL STRAIN RATE IS 0 0 0
Info:       CELL FLUCTUATION IS ISOTROPIC
Info: PARTICLE MESH EWALD (PME) ACTIVE
Info: PME TOLERANCE               1e-06
Info: PME EWALD COEFFICIENT       0.348832
Info: PME INTERPOLATION ORDER     4
Info: PME GRID DIMENSIONS         44 40 44
Info: PME MAXIMUM GRID SPACING    1
Info: FULL ELECTROSTATIC EVALUATION FREQUENCY      2
Info: USING VERLET I (r-RESPA) MTS SCHEME.
Info: C1 SPLITTING OF LONG RANGE ELECTROSTATICS
Info: PLACING ATOMS IN PATCHES BY HYDROGEN GROUPS
Info: RIGID BONDS TO HYDROGEN : ALL
Info:         ERROR TOLERANCE : 1e-08
Info:          MAX ITERATIONS : 100
Info: RIGID WATER USING SETTLE ALGORITHM
Info: RANDOM NUMBER SEED     1741397801
Info: USE HYDROGEN BONDS?    NO
Info: Using AMBER format force field!
Info: AMBER PARM FILE        mobley_8723116.prmtop
Info: COORDINATE PDB         mobley_8723116.pdb
Info: Exclusions will be read from PARM file!
Info: SCNB (VDW SCALING)     2
Info: USING ARITHMETIC MEAN TO COMBINE L-J SIGMA PARAMETERS
Info: BINARY COORDINATES     mobley_8723116_min.coor
Info: SUMMARY OF PARAMETERS:
Info: 7 BONDS
Info: 6 ANGLES
Info:   6 HARMONIC
Info:   0 COSINE-BASED
Info: 3 DIHEDRAL
Info: 0 IMPROPER
Info: 0 CROSSTERM
Info: 0 VDW
Info: 28 VDW_PAIRS
Info: 0 NBTHOLE_PAIRS
Info: STRUCTURE SUMMARY:
Info: 4820 ATOMS
Info: 4820 BONDS
Info: 21 ANGLES
Info: 33 DIHEDRALS
Info: 0 IMPROPERS
Info: 0 CROSSTERMS
Info: 4866 EXCLUSIONS
Info: 4812 RIGID BONDS
Info: 9648 DEGREES OF FREEDOM
Info: 1610 HYDROGEN GROUPS
Info: 3 ATOMS IN LARGEST HYDROGEN GROUP
Info: 1610 MIGRATION GROUPS
Info: 3 ATOMS IN LARGEST MIGRATION GROUP
Info: TOTAL MASS = 28989.2 amu
Info: TOTAL CHARGE = -2.6077e-08 e
Info: MASS DENSITY = 0.728896 g/cm^3
Info: ATOM DENSITY = 0.0729822 atoms/A^3
Info: ADDED 0 IMPLICIT EXCLUSIONS
Info: NONBONDED TABLE R-SQUARED SPACING: 0.0625
Info: NONBONDED TABLE SIZE: 705 POINTS
Info: REMOVING COM VELOCITY -0.049211 -0.0518321 0.0872531
TCL: Running for 25000 steps
ETITLE: TS BOND ANGLE DIHED IMPRP ELECT VDW BOUNDARY MISC KINETIC TOTAL TEMP POTENTIAL TOTAL3 TEMPAVG PRESSURE GPRESSURE VOLUME PRESSAVG GPRESSAVG
ENERGY: 0 0.3580 0.9288 0.2484 0.0000 -22115.2328 3831.3250 0.0000 0.0000 2830.4197 -15451.9530 295.2595 -18282.3727 -15451.3783 295.2595 275.9841 311.8132 66043.5045 275.9841 311.8132
ENERGY: 5000 0.2335 0.3512 1.6222 0.0000 -23025.0280 3845.9197 0.0000 0.0000 294.8693 -18882.0321 30.7597 -19176.9014 -18880.9875 47.8071 -794.3231 -749.8920 46867.9264 5.4553 5.4803
ENERGY: 10000 0.7403 0.4729 1.1143 0.0000 -23072.2500 3865.8063 0.0000 0.0000 290.6044 -18913.5118 30.3148 -19204.1162 -18912.9189 30.2756 -796.1629 -754.0305 46859.7305 0.9370 0.7997
ENERGY: 15000 0.3709 1.0261 0.9711 0.0000 -23244.9690 4018.8938 0.0000 0.0000 287.0566 -18936.6505 29.9447 -19223.7071 -18935.7904 29.8564 32.2855 76.8573 46471.1506 7.0155 6.9580
ENERGY: 20000 0.3700 0.3242 1.7498 0.0000 -23425.3175 4201.0231 0.0000 0.0000 284.8807 -18936.9696 29.7178 -19221.8503 -18936.0918 29.9104 1086.1528 1147.5736 46104.8317 5.5566 5.5602
ENERGY: 25000 0.2845 0.4407 1.3916 0.0000 -23320.5231 4081.8489 0.0000 0.0000 289.2347 -18947.3227 30.1720 -19236.5574 -18946.3682 30.2338 379.6050 394.8042 46377.2503 7.5395 7.7233
TCL: Running 25000 steps at 60 kelvin.
TCL: Setting parameter langevinTemp to 60
TCL: Running for 25000 steps
ETITLE: TS BOND ANGLE DIHED IMPRP ELECT VDW BOUNDARY MISC KINETIC TOTAL TEMP POTENTIAL TOTAL3 TEMPAVG PRESSURE GPRESSURE VOLUME PRESSAVG GPRESSAVG
ENERGY: 25000 0.2845 0.4407 1.3916 0.0000 -23320.5231 4081.8489 0.0000 0.0000 289.0920 -18947.4654 30.1571 -19236.5574 -18946.8592 30.1571 357.3317 394.8129 46377.2503 357.3317 394.8129
ENERGY: 30000 0.3638 0.5873 1.4742 0.0000 -22891.0065 3930.7014 0.0000 0.0000 586.2604 -18371.6194 61.1566 -18957.8798 -18369.8238 57.5246 258.3864 279.5207 46606.6787 3.3233 3.3747
ENERGY: 35000 0.5309 0.7351 1.7762 0.0000 -22898.6003 3880.5897 0.0000 0.0000 584.1254 -18430.8430 60.9339 -19014.9684 -18429.4948 60.4328 -162.7983 -99.9860 46576.5551 0.2910 -0.2475
ENERGY: 40000 0.2205 0.6484 1.5772 0.0000 -22865.5406 3817.2884 0.0000 0.0000 578.1112 -18467.6949 60.3066 -19045.8062 -18466.2822 60.3212 -622.5050 -538.7901 46717.1134 -1.8606 -2.0205
ENERGY: 45000 0.3030 0.6233 2.2855 0.0000 -22983.2171 3923.9077 0.0000 0.0000 582.0315 -18474.0661 60.7155 -19056.0976 -18473.1216 60.1230 -167.2832 -113.9101 46735.8216 2.5954 3.0019
ENERGY: 50000 0.4505 1.5608 2.3555 0.0000 -22926.4922 3859.9661 0.0000 0.0000 586.7417 -18475.4175 61.2069 -19062.1592 -18473.8628 60.5571 -510.2450 -456.9583 46916.7789 6.3640 6.3707
TCL: Running 25000 steps at 90 kelvin.
TCL: Setting parameter langevinTemp to 90
TCL: Running for 25000 steps
ETITLE: TS BOND ANGLE DIHED IMPRP ELECT VDW BOUNDARY MISC KINETIC TOTAL TEMP POTENTIAL TOTAL3 TEMPAVG PRESSURE GPRESSURE VOLUME PRESSAVG GPRESSAVG
ENERGY: 50000 0.4505 1.5608 2.3555 0.0000 -22926.4922 3859.9661 0.0000 0.0000 586.4549 -18475.7042 61.1769 -19062.1592 -18474.3968 61.1769 -505.5343 -456.9322 46916.7789 -505.5343 -456.9322
ENERGY: 55000 0.7613 0.5691 3.2847 0.0000 -22774.1527 3997.4089 0.0000 0.0000 844.5134 -17927.6152 88.0967 -18772.1286 -17925.8518 86.8136 1035.8633 1096.0652 46550.0036 6.3097 6.1289
ENERGY: 60000 0.5522 1.5537 2.0451 0.0000 -22470.9788 3650.8797 0.0000 0.0000 872.0477 -17943.9004 90.9690 -18815.9481 -17941.4645 90.3745 -932.4838 -886.8704 47070.4481 4.1935 4.3513
ENERGY: 65000 0.5280 0.9952 1.3360 0.0000 -22482.2362 3656.3103 0.0000 0.0000 880.5556 -17942.5112 91.8565 -18823.0668 -17940.3620 89.5723 -823.2376 -755.1125 46864.0428 3.3277 3.4371
ENERGY: 70000 0.4703 2.1963 2.1391 0.0000 -22611.8611 3766.5781 0.0000 0.0000 873.9907 -17966.4866 91.1717 -18840.4773 -17965.0736 90.6103 -327.6923 -304.9322 46719.3998 2.7487 2.6236
ENERGY: 75000 0.3951 1.1728 1.6324 0.0000 -22692.3324 3832.0280 0.0000 0.0000 871.2013 -17985.9028 90.8807 -18857.1041 -17983.5609 90.0646 -123.1969 -77.7302 46750.7536 4.2055 4.3141
TCL: Running 25000 steps at 120 kelvin.
TCL: Setting parameter langevinTemp to 120
TCL: Running for 25000 steps
ETITLE: TS BOND ANGLE DIHED IMPRP ELECT VDW BOUNDARY MISC KINETIC TOTAL TEMP POTENTIAL TOTAL3 TEMPAVG PRESSURE GPRESSURE VOLUME PRESSAVG GPRESSAVG
ENERGY: 75000 0.3951 1.1728 1.6324 0.0000 -22692.3324 3832.0280 0.0000 0.0000 870.7757 -17986.3284 90.8363 -18857.1041 -17984.5308 90.8363 -136.7263 -77.9938 46750.7536 -136.7263 -77.9938
ENERGY: 80000 0.7730 1.4027 1.9949 0.0000 -22254.7199 3692.6606 0.0000 0.0000 1153.9903 -17403.8985 120.3803 -18557.8888 -17400.1222 116.7360 -141.5379 -79.9007 47079.3615 7.0377 7.4021
ENERGY: 85000 0.3764 2.8856 4.0729 0.0000 -22297.5495 3715.2547 0.0000 0.0000 1142.5035 -17432.4564 119.1820 -18574.9599 -17428.1385 119.3607 -103.5322 -40.2078 47137.5580 3.9584 3.9637
ENERGY: 90000 0.3486 1.3159 2.0800 0.0000 -22411.1494 3850.8185 0.0000 0.0000 1152.4451 -17404.1413 120.2191 -18556.5864 -17401.6883 120.3490 661.3309 737.8074 46661.7669 -1.1988 -1.5251
ENERGY: 95000 2.3992 1.2514 2.1597 0.0000 -22319.4228 3712.8256 0.0000 0.0000 1133.4690 -17467.3178 118.2395 -18600.7868 -17465.3300 120.8697 -85.5939 -25.1936 46711.8235 3.5396 4.0441
ENERGY: 100000 0.8870 2.3587 2.2870 0.0000 -22207.4532 3588.8515 0.0000 0.0000 1122.1942 -17490.8747 117.0634 -18613.0689 -17487.1129 120.1403 -807.6422 -742.7146 47089.0867 5.6586 5.5211
TCL: Running 25000 steps at 150 kelvin.
TCL: Setting parameter langevinTemp to 150
TCL: Running for 25000 steps
ETITLE: TS BOND ANGLE DIHED IMPRP ELECT VDW BOUNDARY MISC KINETIC TOTAL TEMP POTENTIAL TOTAL3 TEMPAVG PRESSURE GPRESSURE VOLUME PRESSAVG GPRESSAVG
ENERGY: 100000 0.8870 2.3587 2.2870 0.0000 -22207.4532 3588.8515 0.0000 0.0000 1121.6237 -17491.4452 117.0039 -18613.0689 -17489.0017 117.0039 -800.5431 -742.6067 47089.0867 -800.5431 -742.6067
ENERGY: 105000 2.4682 1.6779 1.2286 0.0000 -22017.2970 3720.3968 0.0000 0.0000 1444.0663 -16847.4593 150.6400 -18291.5256 -16844.6858 147.0769 454.3934 525.1864 47115.7499 3.4097 3.2497
ENERGY: 110000 0.7443 2.1041 0.9493 0.0000 -21874.9701 3528.2051 0.0000 0.0000 1424.6125 -16918.3549 148.6106 -18342.9673 -16914.0849 149.4850 -633.4548 -566.3948 47371.8553 3.7019 3.6448
ENERGY: 115000 0.5892 1.7161 2.8798 0.0000 -21909.6156 3562.3382 0.0000 0.0000 1453.6595 -16888.4328 151.6407 -18342.0923 -16883.9656 149.2161 -403.1035 -351.4452 47264.7432 4.0422 3.8940
ENERGY: 120000 0.9750 5.7046 1.1823 0.0000 -22010.7474 3648.7476 0.0000 0.0000 1441.0626 -16913.0754 150.3266 -18354.1379 -16910.0470 150.9834 8.9868 88.9682 47277.1009 5.1622 5.0025
ENERGY: 125000 0.4230 1.8161 1.5399 0.0000 -21914.5789 3532.8656 0.0000 0.0000 1447.7495 -16930.1848 151.0242 -18377.9343 -16926.3618 150.0813 -660.5424 -605.3185 47396.5851 -4.5598 -4.9426
TCL: Running 50000 steps at 180 kelvin.
TCL: Setting parameter langevinTemp to 180
TCL: Running for 50000 steps
ETITLE: TS BOND ANGLE DIHED IMPRP ELECT VDW BOUNDARY MISC KINETIC TOTAL TEMP POTENTIAL TOTAL3 TEMPAVG PRESSURE GPRESSURE VOLUME PRESSAVG GPRESSAVG
ENERGY: 125000 0.4230 1.8161 1.5399 0.0000 -21914.5789 3532.8656 0.0000 0.0000 1447.0071 -16930.9272 150.9467 -18377.9343 -16927.8876 150.9467 -671.2867 -604.8828 47396.5851 -671.2867 -604.8828
ENERGY: 135000 2.4158 1.1453 2.1271 0.0000 -21464.5195 3507.3825 0.0000 0.0000 1731.5670 -16219.8817 180.6310 -17951.4488 -16214.7359 179.3729 257.7120 343.4773 47355.7276 -3.0842 -3.0289
ENERGY: 145000 1.4175 2.9576 1.6779 0.0000 -21498.4282 3474.5094 0.0000 0.0000 1758.2398 -16259.6260 183.4135 -18017.8658 -16253.3412 182.1442 39.5586 102.3858 46881.5728 2.0182 1.7610
ENERGY: 155000 2.0396 2.5711 2.4714 0.0000 -21446.8279 3442.5799 0.0000 0.0000 1679.8946 -16317.2714 175.2408 -17997.1660 -16314.2805 179.2333 -173.5172 -102.6644 47004.6667 1.4195 1.1132
ENERGY: 165000 2.4907 1.9644 2.4633 0.0000 -21338.6492 3399.3109 0.0000 0.0000 1654.6079 -16277.8120 172.6029 -17932.4199 -16272.8855 180.2900 -232.6082 -191.2806 47039.2917 2.4539 2.2796
ENERGY: 175000 2.1927 1.5724 2.5365 0.0000 -21546.7739 3560.1195 0.0000 0.0000 1743.8937 -16236.4591 181.9169 -17980.3528 -16231.4030 180.9233 538.2001 558.5238 47183.0494 -2.8263 -2.9946
TCL: Running 50000 steps at 210 kelvin.
TCL: Setting parameter langevinTemp to 210
TCL: Running for 50000 steps
ETITLE: TS BOND ANGLE DIHED IMPRP ELECT VDW BOUNDARY MISC KINETIC TOTAL TEMP POTENTIAL TOTAL3 TEMPAVG PRESSURE GPRESSURE VOLUME PRESSAVG GPRESSAVG
ENERGY: 175000 2.1927 1.5724 2.5365 0.0000 -21546.7739 3560.1195 0.0000 0.0000 1743.0318 -16237.3210 181.8270 -17980.3528 -16234.1301 181.8270 502.6581 559.3560 47183.0494 502.6581 559.3560
ENERGY: 185000 0.9148 1.1718 3.3920 0.0000 -20588.0180 3224.0361 0.0000 0.0000 2014.5691 -15343.9342 210.1528 -17358.5034 -15338.3994 209.9272 322.9625 392.4580 46954.7574 4.0514 4.1491
ENERGY: 195000 2.1241 2.5742 3.5621 0.0000 -20314.0471 3095.6613 0.0000 0.0000 2001.3920 -15208.7334 208.7783 -17210.1254 -15204.7739 208.4238 -246.2466 -179.5707 47349.3433 -3.1303 -3.4985
ENERGY: 205000 2.8293 2.8368 0.9110 0.0000 -20292.6820 3009.4682 0.0000 0.0000 2040.9222 -15235.7145 212.9019 -17276.6367 -15231.1417 210.1993 -585.0058 -518.1442 47377.7052 2.9042 2.3458
ENERGY: 215000 1.0993 4.0301 4.4279 0.0000 -20166.0556 2943.2489 0.0000 0.0000 2026.1616 -15187.0878 211.3621 -17213.2495 -15181.6771 210.4260 -970.3970 -892.7268 47539.8289 4.3462 4.2466
ENERGY: 225000 3.4223 5.0289 1.0487 0.0000 -20366.7281 3124.8952 0.0000 0.0000 1985.9526 -15246.3804 207.1677 -17232.3330 -15241.8163 209.5330 26.9599 139.1279 47063.6196 4.8386 4.8756
TCL: Running 50000 steps at 240 kelvin.
TCL: Setting parameter langevinTemp to 240
TCL: Running for 50000 steps
ETITLE: TS BOND ANGLE DIHED IMPRP ELECT VDW BOUNDARY MISC KINETIC TOTAL TEMP POTENTIAL TOTAL3 TEMPAVG PRESSURE GPRESSURE VOLUME PRESSAVG GPRESSAVG
ENERGY: 225000 3.4223 5.0289 1.0487 0.0000 -20366.7281 3124.8952 0.0000 0.0000 1984.9406 -15247.3924 207.0621 -17232.3330 -15244.4865 207.0621 50.8075 138.8499 47063.6196 50.8075 138.8499
ENERGY: 235000 1.5683 5.1123 1.5472 0.0000 -19104.7023 2617.1593 0.0000 0.0000 2303.1926 -14176.1226 240.2610 -16479.3152 -14168.4114 241.7557 -910.0657 -838.7612 47368.0315 3.8121 3.4520
ENERGY: 245000 2.1138 2.9883 3.0233 0.0000 -19213.6210 2752.1244 0.0000 0.0000 2250.0160 -14203.3551 234.7138 -16453.3711 -14199.4685 239.5311 86.9273 163.7844 46935.5982 6.4519 6.1814
ENERGY: 255000 4.4074 3.2171 3.1573 0.0000 -19263.8514 2764.5169 0.0000 0.0000 2286.7316 -14201.8211 238.5439 -16488.5527 -14197.8789 240.8990 -316.4827 -196.6263 47446.8217 -2.5705 -2.5048
ENERGY: 265000 2.3190 4.8446 3.9079 0.0000 -19209.6345 2638.8093 0.0000 0.0000 2255.5312 -14304.2226 235.2892 -16559.7537 -14298.2681 239.6165 -1025.6547 -943.0294 47575.1176 0.5720 0.3259
ENERGY: 275000 0.9499 2.2424 4.8301 0.0000 -19408.7986 2828.2778 0.0000 0.0000 2293.9946 -14278.5037 239.3015 -16572.4984 -14274.3833 239.1668 -121.3482 -12.1338 47512.4440 2.5977 2.4317
TCL: Running 50000 steps at 270 kelvin.
TCL: Setting parameter langevinTemp to 270
TCL: Running for 50000 steps
ETITLE: TS BOND ANGLE DIHED IMPRP ELECT VDW BOUNDARY MISC KINETIC TOTAL TEMP POTENTIAL TOTAL3 TEMPAVG PRESSURE GPRESSURE VOLUME PRESSAVG GPRESSAVG
ENERGY: 275000 0.9499 2.2424 4.8301 0.0000 -19408.7986 2828.2778 0.0000 0.0000 2292.8349 -14279.6635 239.1806 -16572.4984 -14276.0814 239.1806 -105.3887 -13.1664 47512.4440 -105.3887 -13.1664
ENERGY: 285000 1.9339 3.1295 3.4235 0.0000 -18334.5229 2508.4376 0.0000 0.0000 2566.2217 -13251.3767 267.6993 -15817.5983 -13247.1199 268.7609 -260.7164 -209.7362 48251.0711 3.2913 3.7276
ENERGY: 295000 3.9368 2.5643 2.3100 0.0000 -18335.3974 2491.6499 0.0000 0.0000 2644.3856 -13190.5506 275.8531 -15834.9363 -13186.3353 271.3110 -414.5247 -339.8931 48541.6968 3.0676 3.4865
ENERGY: 305000 1.5824 4.0249 5.1259 0.0000 -18401.6582 2513.4008 0.0000 0.0000 2622.2636 -13255.2605 273.5454 -15877.5241 -13247.2314 269.3918 -346.7871 -203.6748 48217.9721 1.0004 1.3259
ENERGY: 315000 2.4447 6.5089 4.7676 0.0000 -18203.7445 2403.0159 0.0000 0.0000 2550.1541 -13236.8534 266.0232 -15787.0075 -13234.2218 270.2123 -676.7563 -594.0008 48229.1213 2.5373 3.3425
ENERGY: 325000 1.1860 3.7341 3.3342 0.0000 -18556.0368 2695.7591 0.0000 0.0000 2560.3569 -13291.6665 267.0875 -15852.0234 -13287.3871 272.5898 454.7865 560.8739 48353.0513 0.5175 0.4889
TCL: Running 1000000 steps at 300 kelvin.
TCL: Setting parameter langevinTemp to 300
TCL: Running for 1000000 steps
ETITLE: TS BOND ANGLE DIHED IMPRP ELECT VDW BOUNDARY MISC KINETIC TOTAL TEMP POTENTIAL TOTAL3 TEMPAVG PRESSURE GPRESSURE VOLUME PRESSAVG GPRESSAVG
ENERGY: 325000 1.1860 3.7341 3.3342 0.0000 -18556.0368 2695.7591 0.0000 0.0000 2559.1166 -13292.9067 266.9581 -15852.0234 -13289.2312 266.9581 475.7808 560.6361 48353.0513 475.7808 560.6361
ENERGY: 525000 2.8916 4.5697 2.7501 0.0000 -17586.5183 2421.5513 0.0000 0.0000 2925.5503 -12229.2053 305.1832 -15154.7556 -12224.7924 298.8514 534.0539 580.6879 49163.1375 -1.2728 -1.5166
ENERGY: 725000 4.1728 3.1399 2.5970 0.0000 -17565.7482 2379.5426 0.0000 0.0000 2920.3894 -12255.9064 304.6449 -15176.2958 -12248.1844 299.6534 227.3782 310.6160 49545.9795 3.7166 4.3988
ENERGY: 925000 0.3594 2.3849 3.7567 0.0000 -17546.0671 2360.1511 0.0000 0.0000 2873.5824 -12305.8325 299.7621 -15179.4150 -12300.1091 299.1788 46.5154 112.9833 49581.1727 -1.4121 -1.1742
ENERGY: 1125000 2.4712 5.5455 6.0083 0.0000 -17575.9949 2400.3571 0.0000 0.0000 2887.2497 -12274.3632 301.1878 -15161.6129 -12270.5761 300.3224 231.7773 322.5145 49792.3352 0.4397 0.4722
ENERGY: 1325000 1.0397 4.1063 0.6662 0.0000 -17328.8289 2206.0961 0.0000 0.0000 2856.7123 -12260.2084 298.0023 -15116.9207 -12255.1850 302.8067 -664.3024 -580.3659 50214.0922 5.9122 5.0817
TCL: Exiting due to exit command.
