Info: SIMULATION PARAMETERS:
Info: TIMESTEP               2
Info: NUMBER OF STEPS        0
Info: STEPS PER CYCLE        10
Info: PERIODIC CELL BASIS 1  41.545 0 0
Info: PERIODIC CELL BASIS 2  0 40.42 0
Info: PERIODIC CELL BASIS 3  0 0 41.935
Info: PERIODIC CELL CENTER   0 0 0
Info: WRAPPING WATERS AROUND PERIODIC BOUNDARIES ON OUTPUT.
Info: WRAPPING ALL CLUSTERS AROUND PERIODIC BOUNDARIES ON OUTPUT.
Info: FIRST LDB TIMESTEP     50
Info: LAST LDB TIMESTEP     -1
Info: HOM BACKGROUND SCALING 1
Info: PME BACKGROUND SCALING 1
Info: MIN ATOMS PER PATCH    40
Info: EMPTY PATCH LOAD       40 ATOMS
Info: INITIAL TEMPERATURE    300
Info: CENTER OF MASS MOVING INITIALLY? NO
Info: DIELECTRIC             1
Info: EXCLUDE                SCALED ONE-FOUR
Info: 1-4 ELECTROSTATICS SCALED BY 0.833333
Info: MODIFIED 1-4 VDW PARAMETERS WILL BE USED
Info: DCD FILENAME           mobley_8525830_min.dcd
Info: DCD FREQUENCY          5000
Info: DCD FIRST STEP         5000
Info: DCD FILE WILL CONTAIN UNIT CELL DATA
Info: XST FILENAME           mobley_8525830_min.xst
Info: XST FREQUENCY          5000
Info: NO VELOCITY DCD OUTPUT
Info: NO FORCE DCD OUTPUT
Info: OUTPUT FILENAME        mobley_8525830_min
Info: BINARY OUTPUT FILES WILL BE USED
Info: RESTART FILENAME       mobley_8525830_min.restart
Info: RESTART FREQUENCY      5000
Info: BINARY RESTART FILES WILL BE USED
Info: CUTOFF                 9
Info: PAIRLIST DISTANCE      11
Info: PAIRLIST SHRINK RATE   0.01
Info: PAIRLIST GROW RATE     0.01
Info: PAIRLIST TRIGGER       0.3
Info: PAIRLISTS PER CYCLE    2
Info: PAIRLISTS ENABLED
Info: MARGIN                 8
Info: HYDROGEN GROUP CUTOFF  2.5
Info: PATCH DIMENSION        21.5
Info: ENERGY OUTPUT STEPS    5000
Info: ENERGY EVALUATION STEPS    5000
Info: OUTPUT ENERGY PRECISION 4
Info: CROSSTERM ENERGY INCLUDED IN DIHEDRAL
Info: TIMING OUTPUT STEPS    50000
Info: PRESSURE OUTPUT STEPS  5000
Info: LANGEVIN DYNAMICS ACTIVE
Info: LANGEVIN TEMPERATURE   300
Info: LANGEVIN USING BBK INTEGRATOR
Info: LANGEVIN DAMPING COEFFICIENT IS 1 INVERSE PS
Info: LANGEVIN DYNAMICS APPLIED TO HYDROGENS
Info: LANGEVIN PISTON PRESSURE CONTROL ACTIVE
Info:        TARGET PRESSURE IS 1.01325 BAR
Info:     OSCILLATION PERIOD IS 50 FS
Info:             DECAY TIME IS 25 FS
Info:     PISTON TEMPERATURE IS 300 K
Info:       PRESSURE CONTROL IS GROUP-BASED
Info:    INITIAL STRAIN RATE IS 0 0 0
Info:       CELL FLUCTUATION IS ISOTROPIC
Info: PARTICLE MESH EWALD (PME) ACTIVE
Info: PME TOLERANCE               1e-06
Info: PME EWALD COEFFICIENT       0.348832
Info: PME INTERPOLATION ORDER     4
Info: PME GRID DIMENSIONS         44 44 44
Info: PME MAXIMUM GRID SPACING    1
Info: FULL ELECTROSTATIC EVALUATION FREQUENCY      2
Info: USING VERLET I (r-RESPA) MTS SCHEME.
Info: C1 SPLITTING OF LONG RANGE ELECTROSTATICS
Info: PLACING ATOMS IN PATCHES BY HYDROGEN GROUPS
Info: RIGID BONDS TO HYDROGEN : ALL
Info:         ERROR TOLERANCE : 1e-08
Info:          MAX ITERATIONS : 100
Info: RIGID WATER USING SETTLE ALGORITHM
Info: RANDOM NUMBER SEED     1741408018
Info: USE HYDROGEN BONDS?    NO
Info: Using AMBER format force field!
Info: AMBER PARM FILE        mobley_8525830.prmtop
Info: COORDINATE PDB         mobley_8525830.pdb
Info: Exclusions will be read from PARM file!
Info: SCNB (VDW SCALING)     2
Info: USING ARITHMETIC MEAN TO COMBINE L-J SIGMA PARAMETERS
Info: SUMMARY OF PARAMETERS:
Info: 6 BONDS
Info: 7 ANGLES
Info:   7 HARMONIC
Info:   0 COSINE-BASED
Info: 5 DIHEDRAL
Info: 0 IMPROPER
Info: 0 CROSSTERM
Info: 0 VDW
Info: 21 VDW_PAIRS
Info: 0 NBTHOLE_PAIRS
Info: STRUCTURE SUMMARY:
Info: 5096 ATOMS
Info: 5095 BONDS
Info: 30 ANGLES
Info: 36 DIHEDRALS
Info: 0 IMPROPERS
Info: 0 CROSSTERMS
Info: 5161 EXCLUSIONS
Info: 5090 RIGID BONDS
Info: 10198 DEGREES OF FREEDOM
Info: 1699 HYDROGEN GROUPS
Info: 4 ATOMS IN LARGEST HYDROGEN GROUP
Info: 1699 MIGRATION GROUPS
Info: 4 ATOMS IN LARGEST MIGRATION GROUP
Info: TOTAL MASS = 30699.1 amu
Info: TOTAL CHARGE = 0.000299998 e
Info: MASS DENSITY = 0.723925 g/cm^3
Info: ATOM DENSITY = 0.0723665 atoms/A^3
Info: ADDED 0 IMPLICIT EXCLUSIONS
Info: NONBONDED TABLE R-SQUARED SPACING: 0.0625
Info: NONBONDED TABLE SIZE: 705 POINTS
Info: REMOVING COM VELOCITY -0.0482639 -0.112947 0.112276
TCL: Minimizing for 2000 steps
ETITLE: TS BOND ANGLE DIHED IMPRP ELECT VDW BOUNDARY MISC KINETIC TOTAL TEMP POTENTIAL TOTAL3 TEMPAVG PRESSURE GPRESSURE VOLUME PRESSAVG GPRESSAVG
ENERGY: 0 0.7853 0.8504 0.0286 0.0000 -15845.6029 1757.8565 0.0000 0.0000 0.0000 -14086.0822 0.0000 -14086.0822 -14086.0822 0.0000 11053.7444 -15908.3694 70419.3026 11053.7444 -15908.3694
ENERGY: 400 3.2440 1.9765 0.1416 0.0000 -21580.8506 3191.6767 0.0000 0.0000 0.0000 -18383.8118 0.0000 -18383.8118 -18383.8118 0.0000 16204.0436 16350.8792 70419.3026 16204.0436 16350.8792
ENERGY: 800 0.8998 1.3203 0.0426 0.0000 -22581.7271 3650.3415 0.0000 0.0000 0.0000 -18929.1229 0.0000 -18929.1229 -18929.1229 0.0000 18234.7513 18349.7217 70419.3026 18234.7513 18349.7217
ENERGY: 1200 2.2718 1.4997 0.0356 0.0000 -23049.2905 3885.8135 0.0000 0.0000 0.0000 -19159.6700 0.0000 -19159.6700 -19159.6700 0.0000 19343.4523 19446.3996 70419.3026 19343.4523 19446.3996
ENERGY: 1600 0.1822 0.4255 0.0282 0.0000 -23248.2670 3977.3506 0.0000 0.0000 0.0000 -19270.2805 0.0000 -19270.2805 -19270.2805 0.0000 19787.7569 19887.1895 70419.3026 19787.7569 19887.1895
ENERGY: 2000 0.1260 0.4033 0.0373 0.0000 -23353.3615 4017.0188 0.0000 0.0000 0.0000 -19335.7761 0.0000 -19335.7761 -19335.7761 0.0000 19996.2151 20094.3738 70419.3026 19996.2151 20094.3738
TCL: Exiting due to exit command.
Info: NAMD 3.0.1 for Linux-x86_64-multicore
Info: Please visit http://www.ks.uiuc.edu/Research/namd/
Info: for updates, documentation, and support information.
Info: Please cite Phillips et al., J. Chem. Phys. 153:044130 (2020) doi:10.1063/5.0014475
Info: in all publications reporting results obtained with NAMD.
Info: Based on Charm++/Converse 80000 for multicore-linux-x86_64-gcc
Info: Built Mon Oct 14 11:11:06 CDT 2024 by dhardy on athine.ks.uiuc.edu
Info: 1 NAMD  3.0.1  Linux-x86_64-multicore  16    k015  z5358697
Info: Running on 16 processors, 1 nodes, 1 physical nodes.
Info: CPU topology information available.
Info: Charm++/Converse parallel runtime startup completed at 0.00984453 s
Info: 1043.45 MB of memory in use based on /proc/self/stat
Info: Configuration file is mobley_8525830_equil.namd
Info: Working in the current directory /srv/scratch/z5358697/prod_prep_11/8525830
TCL: Running 25000 steps at 30 kelvin.
TCL: Suspending until startup complete.
Info: SIMULATION PARAMETERS:
Info: TIMESTEP               2
Info: NUMBER OF STEPS        0
Info: STEPS PER CYCLE        10
Info: PERIODIC CELL BASIS 1  41.545 0 0
Info: PERIODIC CELL BASIS 2  0 40.42 0
Info: PERIODIC CELL BASIS 3  0 0 41.935
Info: PERIODIC CELL CENTER   0 0 0
Info: WRAPPING WATERS AROUND PERIODIC BOUNDARIES ON OUTPUT.
Info: WRAPPING ALL CLUSTERS AROUND PERIODIC BOUNDARIES ON OUTPUT.
Info: FIRST LDB TIMESTEP     50
Info: LAST LDB TIMESTEP     -1
Info: HOM BACKGROUND SCALING 1
Info: PME BACKGROUND SCALING 1
Info: MIN ATOMS PER PATCH    40
Info: EMPTY PATCH LOAD       40 ATOMS
Info: INITIAL TEMPERATURE    300
Info: CENTER OF MASS MOVING INITIALLY? NO
Info: DIELECTRIC             1
Info: EXCLUDE                SCALED ONE-FOUR
Info: 1-4 ELECTROSTATICS SCALED BY 0.833333
Info: MODIFIED 1-4 VDW PARAMETERS WILL BE USED
Info: DCD FILENAME           mobley_8525830_equil.dcd
Info: DCD FREQUENCY          5000
Info: DCD FIRST STEP         5000
Info: DCD FILE WILL CONTAIN UNIT CELL DATA
Info: XST FILENAME           mobley_8525830_equil.xst
Info: XST FREQUENCY          5000
Info: NO VELOCITY DCD OUTPUT
Info: NO FORCE DCD OUTPUT
Info: OUTPUT FILENAME        mobley_8525830_equil
Info: BINARY OUTPUT FILES WILL BE USED
Info: RESTART FILENAME       mobley_8525830_equil.restart
Info: RESTART FREQUENCY      5000
Info: BINARY RESTART FILES WILL BE USED
Info: CUTOFF                 9
Info: PAIRLIST DISTANCE      11
Info: PAIRLIST SHRINK RATE   0.01
Info: PAIRLIST GROW RATE     0.01
Info: PAIRLIST TRIGGER       0.3
Info: PAIRLISTS PER CYCLE    2
Info: PAIRLISTS ENABLED
Info: MARGIN                 8
Info: HYDROGEN GROUP CUTOFF  2.5
Info: PATCH DIMENSION        21.5
Info: ENERGY OUTPUT STEPS    5000
Info: ENERGY EVALUATION STEPS    5000
Info: OUTPUT ENERGY PRECISION 4
Info: CROSSTERM ENERGY INCLUDED IN DIHEDRAL
Info: TIMING OUTPUT STEPS    50000
Info: PRESSURE OUTPUT STEPS  5000
Info: LANGEVIN DYNAMICS ACTIVE
Info: LANGEVIN TEMPERATURE   30
Info: LANGEVIN USING BBK INTEGRATOR
Info: LANGEVIN DAMPING COEFFICIENT IS 1 INVERSE PS
Info: LANGEVIN DYNAMICS APPLIED TO HYDROGENS
Info: LANGEVIN PISTON PRESSURE CONTROL ACTIVE
Info:        TARGET PRESSURE IS 1.01325 BAR
Info:     OSCILLATION PERIOD IS 50 FS
Info:             DECAY TIME IS 25 FS
Info:     PISTON TEMPERATURE IS 300 K
Info:       PRESSURE CONTROL IS GROUP-BASED
Info:    INITIAL STRAIN RATE IS 0 0 0
Info:       CELL FLUCTUATION IS ISOTROPIC
Info: PARTICLE MESH EWALD (PME) ACTIVE
Info: PME TOLERANCE               1e-06
Info: PME EWALD COEFFICIENT       0.348832
Info: PME INTERPOLATION ORDER     4
Info: PME GRID DIMENSIONS         44 44 44
Info: PME MAXIMUM GRID SPACING    1
Info: FULL ELECTROSTATIC EVALUATION FREQUENCY      2
Info: USING VERLET I (r-RESPA) MTS SCHEME.
Info: C1 SPLITTING OF LONG RANGE ELECTROSTATICS
Info: PLACING ATOMS IN PATCHES BY HYDROGEN GROUPS
Info: RIGID BONDS TO HYDROGEN : ALL
Info:         ERROR TOLERANCE : 1e-08
Info:          MAX ITERATIONS : 100
Info: RIGID WATER USING SETTLE ALGORITHM
Info: RANDOM NUMBER SEED     1741408034
Info: USE HYDROGEN BONDS?    NO
Info: Using AMBER format force field!
Info: AMBER PARM FILE        mobley_8525830.prmtop
Info: COORDINATE PDB         mobley_8525830.pdb
Info: Exclusions will be read from PARM file!
Info: SCNB (VDW SCALING)     2
Info: USING ARITHMETIC MEAN TO COMBINE L-J SIGMA PARAMETERS
Info: BINARY COORDINATES     mobley_8525830_min.coor
Info: SUMMARY OF PARAMETERS:
Info: 6 BONDS
Info: 7 ANGLES
Info:   7 HARMONIC
Info:   0 COSINE-BASED
Info: 5 DIHEDRAL
Info: 0 IMPROPER
Info: 0 CROSSTERM
Info: 0 VDW
Info: 21 VDW_PAIRS
Info: 0 NBTHOLE_PAIRS
Info: STRUCTURE SUMMARY:
Info: 5096 ATOMS
Info: 5095 BONDS
Info: 30 ANGLES
Info: 36 DIHEDRALS
Info: 0 IMPROPERS
Info: 0 CROSSTERMS
Info: 5161 EXCLUSIONS
Info: 5090 RIGID BONDS
Info: 10198 DEGREES OF FREEDOM
Info: 1699 HYDROGEN GROUPS
Info: 4 ATOMS IN LARGEST HYDROGEN GROUP
Info: 1699 MIGRATION GROUPS
Info: 4 ATOMS IN LARGEST MIGRATION GROUP
Info: TOTAL MASS = 30699.1 amu
Info: TOTAL CHARGE = 0.000299998 e
Info: MASS DENSITY = 0.723925 g/cm^3
Info: ATOM DENSITY = 0.0723665 atoms/A^3
Info: ADDED 0 IMPLICIT EXCLUSIONS
Info: NONBONDED TABLE R-SQUARED SPACING: 0.0625
Info: NONBONDED TABLE SIZE: 705 POINTS
Info: REMOVING COM VELOCITY 0.0143899 0.0914566 -0.171179
TCL: Running for 25000 steps
ETITLE: TS BOND ANGLE DIHED IMPRP ELECT VDW BOUNDARY MISC KINETIC TOTAL TEMP POTENTIAL TOTAL3 TEMPAVG PRESSURE GPRESSURE VOLUME PRESSAVG GPRESSAVG
ENERGY: 0 0.1260 0.4033 0.0373 0.0000 -23353.3615 4017.0188 0.0000 0.0000 3049.8164 -16285.9597 300.9879 -19335.7761 -16285.3557 300.9879 207.2495 253.0505 70419.3026 207.2495 253.0505
ENERGY: 5000 0.1973 1.0038 0.1158 0.0000 -24348.7866 4114.1336 0.0000 0.0000 302.7264 -19930.6097 29.8762 -20233.3361 -19929.4334 47.8867 -463.4162 -406.9414 49193.1463 0.4579 0.4080
ENERGY: 10000 0.1266 0.6746 0.1889 0.0000 -24418.2905 4161.1778 0.0000 0.0000 303.8454 -19952.2771 29.9867 -20256.1225 -19951.6356 30.0487 -278.5586 -232.9211 49099.6977 5.5564 5.4010
ENERGY: 15000 0.5089 0.7757 0.3272 0.0000 -24438.1728 4165.4642 0.0000 0.0000 301.0845 -19970.0122 29.7142 -20271.0967 -19969.6783 30.0674 -309.5833 -246.8896 49156.4210 5.7412 5.7567
ENERGY: 20000 0.4592 0.7147 0.3651 0.0000 -24384.5926 4105.4406 0.0000 0.0000 301.8404 -19975.7725 29.7888 -20277.6130 -19974.7948 30.0172 -598.9982 -534.9944 49168.0458 0.1727 0.1661
ENERGY: 25000 0.1380 1.6102 0.2395 0.0000 -24395.6846 4099.4636 0.0000 0.0000 300.5341 -19993.6992 29.6599 -20294.2333 -19993.0968 30.0412 -694.3122 -613.6850 49177.3407 -0.8374 -0.9914
TCL: Running 25000 steps at 60 kelvin.
TCL: Setting parameter langevinTemp to 60
TCL: Running for 25000 steps
ETITLE: TS BOND ANGLE DIHED IMPRP ELECT VDW BOUNDARY MISC KINETIC TOTAL TEMP POTENTIAL TOTAL3 TEMPAVG PRESSURE GPRESSURE VOLUME PRESSAVG GPRESSAVG
ENERGY: 25000 0.1380 1.6102 0.2395 0.0000 -24395.6846 4099.4636 0.0000 0.0000 300.3866 -19993.8466 29.6453 -20294.2333 -19993.0910 29.6453 -666.5388 -613.7721 49177.3407 -666.5388 -613.7721
ENERGY: 30000 0.2781 1.2811 0.0541 0.0000 -24099.1311 4102.4977 0.0000 0.0000 600.5392 -19394.4810 59.2675 -19995.0202 -19393.6890 57.3737 31.0297 101.0513 49185.3320 4.8582 4.5208
ENERGY: 35000 0.1809 1.7101 0.5115 0.0000 -24355.9072 4301.2753 0.0000 0.0000 625.4336 -19426.7959 61.7244 -20052.2295 -19425.2196 60.3041 990.4917 1059.0165 48840.8881 0.0726 0.0818
ENERGY: 40000 0.1796 1.8250 0.5649 0.0000 -24375.3129 4261.3689 0.0000 0.0000 609.4267 -19501.9477 60.1446 -20111.3745 -19500.1057 60.4722 703.0422 758.8184 48735.6539 5.1373 5.3640
ENERGY: 45000 0.5523 1.6912 0.3855 0.0000 -24312.1380 4172.7986 0.0000 0.0000 599.3232 -19537.3872 59.1475 -20136.7103 -19536.0857 59.9120 85.8258 177.0965 48916.6718 3.0278 2.9979
ENERGY: 50000 0.7070 1.4914 0.3039 0.0000 -24201.4775 4086.4231 0.0000 0.0000 607.0557 -19505.4963 59.9106 -20112.5520 -19503.4549 59.9826 -212.1054 -160.2180 49098.7353 2.4883 2.8482
TCL: Running 25000 steps at 90 kelvin.
TCL: Setting parameter langevinTemp to 90
TCL: Running for 25000 steps
ETITLE: TS BOND ANGLE DIHED IMPRP ELECT VDW BOUNDARY MISC KINETIC TOTAL TEMP POTENTIAL TOTAL3 TEMPAVG PRESSURE GPRESSURE VOLUME PRESSAVG GPRESSAVG
ENERGY: 50000 0.7070 1.4914 0.3039 0.0000 -24201.4775 4086.4231 0.0000 0.0000 606.7504 -19505.8016 59.8805 -20112.5520 -19504.8358 59.8805 -214.7061 -159.4068 49098.7353 -214.7061 -159.4068
ENERGY: 55000 0.4532 0.9211 0.5378 0.0000 -23796.1906 3966.7921 0.0000 0.0000 919.7931 -18907.6933 90.7748 -19827.4864 -18904.9939 87.0048 -228.5613 -175.5793 49438.7279 -1.5737 -1.3074
ENERGY: 60000 0.9162 2.4085 0.1217 0.0000 -23858.3235 4022.4427 0.0000 0.0000 923.5043 -18908.9301 91.1411 -19832.4345 -18907.7970 89.8737 -14.1282 63.7657 49641.2592 2.8389 2.8740
ENERGY: 65000 0.1629 2.5287 0.5773 0.0000 -24156.3505 4261.4152 0.0000 0.0000 901.9520 -18989.7143 89.0141 -19891.6663 -18986.6370 89.8555 1170.3172 1229.8788 49100.5943 6.0953 6.4415
ENERGY: 70000 0.5048 2.0004 0.2385 0.0000 -23965.0868 4039.7193 0.0000 0.0000 884.5725 -19038.0513 87.2989 -19922.6238 -19035.6300 89.9658 -149.3981 -72.2578 49403.0715 3.4740 3.2097
ENERGY: 75000 0.4337 2.7191 0.6025 0.0000 -23929.5583 4015.4457 0.0000 0.0000 913.9782 -18996.3792 90.2010 -19910.3574 -18993.9495 90.3788 -147.5137 -102.9967 49250.5573 8.8183 8.4548
TCL: Running 25000 steps at 120 kelvin.
TCL: Setting parameter langevinTemp to 120
TCL: Running for 25000 steps
ETITLE: TS BOND ANGLE DIHED IMPRP ELECT VDW BOUNDARY MISC KINETIC TOTAL TEMP POTENTIAL TOTAL3 TEMPAVG PRESSURE GPRESSURE VOLUME PRESSAVG GPRESSAVG
ENERGY: 75000 0.4337 2.7191 0.6025 0.0000 -23929.5583 4015.4457 0.0000 0.0000 913.5200 -18996.8374 90.1557 -19910.3574 -18995.1773 90.1557 -151.9479 -102.9402 49250.5573 -151.9479 -102.9402
ENERGY: 80000 1.2362 3.4533 0.2959 0.0000 -23487.2061 3879.5685 0.0000 0.0000 1223.2714 -18379.3807 120.7253 -19602.6521 -18377.6713 116.5240 -226.7463 -150.8234 49726.9742 -1.5778 -1.4182
ENERGY: 85000 0.1321 3.4489 0.6744 0.0000 -23589.7186 3997.6557 0.0000 0.0000 1190.3158 -18397.4917 117.4729 -19587.8075 -18395.1217 120.6989 310.8757 353.9177 49718.0276 2.6516 2.4974
ENERGY: 90000 0.1699 3.8932 1.4195 0.0000 -23606.6435 3979.3447 0.0000 0.0000 1213.9059 -18407.9104 119.8010 -19621.8163 -18404.6712 120.4567 152.4211 237.9786 49734.9713 4.8382 5.1709
ENERGY: 95000 1.1864 3.3773 0.2583 0.0000 -23599.5431 3946.9384 0.0000 0.0000 1221.6045 -18426.1782 120.5608 -19647.7827 -18422.6766 120.4908 -133.4142 -85.4321 49900.2854 3.3669 3.0442
ENERGY: 100000 0.2578 2.2550 0.3216 0.0000 -23860.7068 4158.5907 0.0000 0.0000 1212.5271 -18486.7547 119.6649 -19699.2818 -18482.8939 120.1613 991.9108 1025.3674 49221.8972 3.1320 3.4636
TCL: Running 25000 steps at 150 kelvin.
TCL: Setting parameter langevinTemp to 150
TCL: Running for 25000 steps
ETITLE: TS BOND ANGLE DIHED IMPRP ELECT VDW BOUNDARY MISC KINETIC TOTAL TEMP POTENTIAL TOTAL3 TEMPAVG PRESSURE GPRESSURE VOLUME PRESSAVG GPRESSAVG
ENERGY: 100000 0.2578 2.2550 0.3216 0.0000 -23860.7068 4158.5907 0.0000 0.0000 1211.9211 -18487.3607 119.6051 -19699.2818 -18485.4414 119.6051 960.9970 1026.1258 49221.8972 960.9970 1026.1258
ENERGY: 105000 0.4805 2.4898 0.5499 0.0000 -23099.2340 3799.0982 0.0000 0.0000 1499.2779 -17797.3378 147.9645 -19296.6157 -17793.8057 147.2907 -5.5158 70.7174 49791.6471 4.5997 4.4711
ENERGY: 110000 1.2921 3.5238 0.2862 0.0000 -23196.6418 3855.5166 0.0000 0.0000 1483.2638 -17852.7593 146.3841 -19336.0231 -17849.2749 149.8798 246.5419 308.7466 49581.7829 4.4109 4.4671
ENERGY: 115000 0.6365 3.3013 0.7926 0.0000 -23128.5863 3772.4559 0.0000 0.0000 1520.1448 -17831.2552 150.0239 -19351.4000 -17827.2575 150.3910 -255.3614 -202.2570 49850.0238 -3.1348 -3.2553
ENERGY: 120000 1.7049 5.4822 0.4554 0.0000 -23257.9026 3864.8390 0.0000 0.0000 1553.1845 -17832.2367 153.2846 -19385.4211 -17827.9014 151.2294 206.6729 246.5740 49598.4044 3.4056 3.4466
ENERGY: 125000 0.8577 4.5392 0.2781 0.0000 -23137.8249 3753.3012 0.0000 0.0000 1505.0992 -17873.7494 148.5390 -19378.8486 -17871.3439 150.0717 -305.0094 -242.1052 49531.8252 1.5573 1.6315
TCL: Running 50000 steps at 180 kelvin.
TCL: Setting parameter langevinTemp to 180
TCL: Running for 50000 steps
ETITLE: TS BOND ANGLE DIHED IMPRP ELECT VDW BOUNDARY MISC KINETIC TOTAL TEMP POTENTIAL TOTAL3 TEMPAVG PRESSURE GPRESSURE VOLUME PRESSAVG GPRESSAVG
ENERGY: 125000 0.8577 4.5392 0.2781 0.0000 -23137.8249 3753.3012 0.0000 0.0000 1504.3261 -17874.5225 148.4627 -19378.8486 -17871.9040 148.4627 -302.0277 -242.0174 49531.8252 -302.0277 -242.0174
ENERGY: 135000 0.9079 5.6339 0.2111 0.0000 -22555.2228 3641.5250 0.0000 0.0000 1827.7779 -17079.1671 180.3843 -18906.9450 -17076.5100 178.2002 41.5212 73.6384 49852.3576 4.1865 4.1239
ENERGY: 145000 1.5617 5.2326 0.1197 0.0000 -22671.8385 3661.6540 0.0000 0.0000 1811.0581 -17192.2125 178.7342 -19003.2706 -17189.2730 178.5415 -33.7510 13.8158 49942.2069 1.7900 2.0836
ENERGY: 155000 1.0849 3.8677 0.5545 0.0000 -22613.4835 3609.2627 0.0000 0.0000 1789.1750 -17209.5387 176.5746 -18998.7137 -17205.5039 180.6244 -413.7433 -338.5010 50064.2763 1.3101 1.7411
ENERGY: 165000 1.9191 5.0289 1.0030 0.0000 -22620.2113 3608.7936 0.0000 0.0000 1813.3667 -17190.1000 178.9621 -19003.4666 -17187.7274 180.6472 -388.0247 -345.8570 50053.0590 0.7931 1.2230
ENERGY: 175000 0.6489 3.7182 1.0688 0.0000 -22709.0653 3706.2243 0.0000 0.0000 1847.8064 -17149.5986 182.3609 -18997.4049 -17145.6785 180.4870 101.3920 191.4557 49961.0948 5.5202 5.6523
TCL: Running 50000 steps at 210 kelvin.
TCL: Setting parameter langevinTemp to 210
TCL: Running for 50000 steps
ETITLE: TS BOND ANGLE DIHED IMPRP ELECT VDW BOUNDARY MISC KINETIC TOTAL TEMP POTENTIAL TOTAL3 TEMPAVG PRESSURE GPRESSURE VOLUME PRESSAVG GPRESSAVG
ENERGY: 175000 0.6489 3.7182 1.0688 0.0000 -22709.0653 3706.2243 0.0000 0.0000 1846.9199 -17150.4850 182.2735 -18997.4049 -17147.5041 182.2735 136.3351 192.4247 49961.0948 136.3351 192.4247
ENERGY: 185000 0.9472 5.5433 0.3849 0.0000 -21652.4173 3330.2318 0.0000 0.0000 2162.0182 -16153.2918 213.3707 -18315.3101 -16148.0886 210.3150 -28.6577 48.7824 49621.3563 -0.9338 -0.9637
ENERGY: 195000 1.8575 5.3297 0.5430 0.0000 -21304.7643 3166.1470 0.0000 0.0000 2086.6381 -16044.2490 205.9314 -18130.8871 -16037.1484 210.3138 -670.8431 -579.0266 50121.8907 3.7944 4.1776
ENERGY: 205000 2.0730 3.8126 1.7051 0.0000 -21526.8834 3347.8726 0.0000 0.0000 2068.7578 -16102.6622 204.1668 -18171.4200 -16098.2839 211.0149 272.6615 356.1526 49575.0642 2.3113 1.9987
ENERGY: 215000 1.2644 7.7625 0.7064 0.0000 -21351.3318 3260.7857 0.0000 0.0000 2144.7255 -15936.0873 211.6640 -18080.8127 -15932.7030 212.2854 118.1481 199.1865 49382.6423 4.4410 4.8874
ENERGY: 225000 0.3535 5.5246 1.4740 0.0000 -21460.0280 3266.1363 0.0000 0.0000 2084.3442 -16102.1955 205.7050 -18186.5397 -16096.8766 209.9137 -160.1457 -51.0018 49594.0687 4.6936 4.9100
TCL: Running 50000 steps at 240 kelvin.
TCL: Setting parameter langevinTemp to 240
TCL: Running for 50000 steps
ETITLE: TS BOND ANGLE DIHED IMPRP ELECT VDW BOUNDARY MISC KINETIC TOTAL TEMP POTENTIAL TOTAL3 TEMPAVG PRESSURE GPRESSURE VOLUME PRESSAVG GPRESSAVG
ENERGY: 225000 0.3535 5.5246 1.4740 0.0000 -21460.0280 3266.1363 0.0000 0.0000 2083.2805 -16103.2592 205.6000 -18186.5397 -16099.7767 205.6000 -139.0250 -50.2385 49594.0687 -139.0250 -50.2385
ENERGY: 235000 0.7255 2.9086 1.7545 0.0000 -20314.9474 2938.9621 0.0000 0.0000 2451.0331 -14919.5636 241.8937 -17370.5967 -14914.1273 239.9137 -320.9623 -227.7816 50980.4228 5.2352 4.7496
ENERGY: 245000 0.3349 4.6601 0.6736 0.0000 -20411.2496 2958.5596 0.0000 0.0000 2402.5315 -15044.4898 237.1071 -17447.0213 -15039.6471 239.4794 -11.1011 22.3351 50140.8261 6.2821 5.8212
ENERGY: 255000 0.1290 4.7128 2.2367 0.0000 -20402.9971 2943.1533 0.0000 0.0000 2356.2614 -15096.5040 232.5406 -17452.7653 -15091.8250 238.8336 -0.8291 102.4526 49616.4836 -0.6135 0.5093
ENERGY: 265000 1.0270 5.8468 0.9866 0.0000 -20240.5218 2914.5346 0.0000 0.0000 2444.9104 -14873.2164 241.2894 -17318.1268 -14868.5121 239.6268 -135.1649 -28.4193 50080.2231 0.9449 1.1694
ENERGY: 275000 0.8684 7.0258 1.9796 0.0000 -20301.5062 2885.2308 0.0000 0.0000 2471.9610 -14934.4407 243.9591 -17406.4016 -14928.0201 239.7159 -637.1214 -560.4216 51039.2679 4.4133 4.6515
TCL: Running 50000 steps at 270 kelvin.
TCL: Setting parameter langevinTemp to 270
TCL: Running for 50000 steps
ETITLE: TS BOND ANGLE DIHED IMPRP ELECT VDW BOUNDARY MISC KINETIC TOTAL TEMP POTENTIAL TOTAL3 TEMPAVG PRESSURE GPRESSURE VOLUME PRESSAVG GPRESSAVG
ENERGY: 275000 0.8684 7.0258 1.9796 0.0000 -20301.5062 2885.2308 0.0000 0.0000 2470.7964 -14935.6052 243.8441 -17406.4016 -14931.7638 243.8441 -643.5333 -559.9920 51039.2679 -643.5333 -559.9920
ENERGY: 285000 3.0408 8.7211 3.0510 0.0000 -19456.5139 2680.7129 0.0000 0.0000 2774.0841 -13986.9040 273.7758 -16760.9881 -13981.3863 271.1801 -205.3893 -138.2947 51008.5238 2.1784 1.8273
ENERGY: 295000 0.3547 15.5419 1.7089 0.0000 -19305.8394 2597.6071 0.0000 0.0000 2771.2935 -13919.3332 273.5004 -16690.6267 -13914.0927 269.8056 -479.4843 -380.2770 50699.3732 2.4979 2.3731
ENERGY: 305000 6.0302 5.6760 2.5485 0.0000 -19275.5464 2651.5322 0.0000 0.0000 2759.8655 -13849.8941 272.3725 -16609.7596 -13843.1094 273.3064 -368.3953 -286.5237 51820.6136 3.3744 3.0962
ENERGY: 315000 0.7913 7.6035 1.4831 0.0000 -19386.9956 2645.8920 0.0000 0.0000 2697.8995 -14033.3261 266.2571 -16731.2256 -14025.0228 270.6542 -428.4013 -351.9385 51350.8480 1.7041 1.5991
ENERGY: 325000 3.1757 8.0302 1.7269 0.0000 -19291.1686 2655.2749 0.0000 0.0000 2757.8636 -13865.0972 272.1750 -16622.9609 -13860.1065 268.8558 -324.2457 -230.0979 51602.0375 6.7395 6.5886
TCL: Running 1000000 steps at 300 kelvin.
TCL: Setting parameter langevinTemp to 300
TCL: Running for 1000000 steps
ETITLE: TS BOND ANGLE DIHED IMPRP ELECT VDW BOUNDARY MISC KINETIC TOTAL TEMP POTENTIAL TOTAL3 TEMPAVG PRESSURE GPRESSURE VOLUME PRESSAVG GPRESSAVG
ENERGY: 325000 3.1757 8.0302 1.7269 0.0000 -19291.1686 2655.2749 0.0000 0.0000 2756.4828 -13866.4780 272.0387 -16622.9609 -13862.2633 272.0387 -319.8447 -230.4504 51602.0375 -319.8447 -230.4504
ENERGY: 525000 0.9583 8.3763 0.8439 0.0000 -18553.1036 2562.4264 0.0000 0.0000 3014.9234 -12965.5754 297.5443 -15980.4988 -12960.0419 296.9776 450.0187 492.6483 52281.5345 1.4612 1.3060
ENERGY: 725000 2.8493 13.2665 1.7558 0.0000 -18512.4964 2536.2534 0.0000 0.0000 3082.9480 -12875.4235 304.2577 -15958.3714 -12868.8802 303.0673 188.3548 252.9082 52970.7747 2.4367 1.8195
ENERGY: 925000 4.4679 5.3587 0.5736 0.0000 -18590.1152 2584.2736 0.0000 0.0000 3050.3437 -12945.0976 301.0400 -15995.4413 -12940.6725 302.0842 392.4515 468.5913 52476.4111 -0.1939 0.5559
ENERGY: 1125000 1.5234 9.2124 1.8729 0.0000 -18340.1880 2344.4248 0.0000 0.0000 3066.5310 -12916.6234 302.6375 -15983.1544 -12911.6590 299.9089 -638.1845 -519.2585 52875.9394 2.3757 2.5882
ENERGY: 1325000 1.3599 6.9350 0.6777 0.0000 -18339.3398 2389.8449 0.0000 0.0000 3031.8528 -12908.6695 299.2151 -15940.5223 -12900.0039 302.1277 -574.6990 -506.4494 53666.8078 3.5027 4.0374
TCL: Exiting due to exit command.
