Info: SIMULATION PARAMETERS:
Info: TIMESTEP               2
Info: NUMBER OF STEPS        0
Info: STEPS PER CYCLE        10
Info: PERIODIC CELL BASIS 1  42.113 0 0
Info: PERIODIC CELL BASIS 2  0 40.343 0
Info: PERIODIC CELL BASIS 3  0 0 42.04
Info: PERIODIC CELL CENTER   0 0 0
Info: WRAPPING WATERS AROUND PERIODIC BOUNDARIES ON OUTPUT.
Info: WRAPPING ALL CLUSTERS AROUND PERIODIC BOUNDARIES ON OUTPUT.
Info: FIRST LDB TIMESTEP     50
Info: LAST LDB TIMESTEP     -1
Info: HOM BACKGROUND SCALING 1
Info: PME BACKGROUND SCALING 1
Info: MIN ATOMS PER PATCH    40
Info: EMPTY PATCH LOAD       40 ATOMS
Info: INITIAL TEMPERATURE    300
Info: CENTER OF MASS MOVING INITIALLY? NO
Info: DIELECTRIC             1
Info: EXCLUDE                SCALED ONE-FOUR
Info: 1-4 ELECTROSTATICS SCALED BY 0.833333
Info: MODIFIED 1-4 VDW PARAMETERS WILL BE USED
Info: DCD FILENAME           mobley_7203421_min.dcd
Info: DCD FREQUENCY          5000
Info: DCD FIRST STEP         5000
Info: DCD FILE WILL CONTAIN UNIT CELL DATA
Info: XST FILENAME           mobley_7203421_min.xst
Info: XST FREQUENCY          5000
Info: NO VELOCITY DCD OUTPUT
Info: NO FORCE DCD OUTPUT
Info: OUTPUT FILENAME        mobley_7203421_min
Info: BINARY OUTPUT FILES WILL BE USED
Info: RESTART FILENAME       mobley_7203421_min.restart
Info: RESTART FREQUENCY      5000
Info: BINARY RESTART FILES WILL BE USED
Info: CUTOFF                 9
Info: PAIRLIST DISTANCE      11
Info: PAIRLIST SHRINK RATE   0.01
Info: PAIRLIST GROW RATE     0.01
Info: PAIRLIST TRIGGER       0.3
Info: PAIRLISTS PER CYCLE    2
Info: PAIRLISTS ENABLED
Info: MARGIN                 8
Info: HYDROGEN GROUP CUTOFF  2.5
Info: PATCH DIMENSION        21.5
Info: ENERGY OUTPUT STEPS    5000
Info: ENERGY EVALUATION STEPS    5000
Info: OUTPUT ENERGY PRECISION 4
Info: CROSSTERM ENERGY INCLUDED IN DIHEDRAL
Info: TIMING OUTPUT STEPS    50000
Info: PRESSURE OUTPUT STEPS  5000
Info: LANGEVIN DYNAMICS ACTIVE
Info: LANGEVIN TEMPERATURE   300
Info: LANGEVIN USING BBK INTEGRATOR
Info: LANGEVIN DAMPING COEFFICIENT IS 1 INVERSE PS
Info: LANGEVIN DYNAMICS APPLIED TO HYDROGENS
Info: LANGEVIN PISTON PRESSURE CONTROL ACTIVE
Info:        TARGET PRESSURE IS 1.01325 BAR
Info:     OSCILLATION PERIOD IS 50 FS
Info:             DECAY TIME IS 25 FS
Info:     PISTON TEMPERATURE IS 300 K
Info:       PRESSURE CONTROL IS GROUP-BASED
Info:    INITIAL STRAIN RATE IS 0 0 0
Info:       CELL FLUCTUATION IS ISOTROPIC
Info: PARTICLE MESH EWALD (PME) ACTIVE
Info: PME TOLERANCE               1e-06
Info: PME EWALD COEFFICIENT       0.348832
Info: PME INTERPOLATION ORDER     4
Info: PME GRID DIMENSIONS         44 44 44
Info: PME MAXIMUM GRID SPACING    1
Info: FULL ELECTROSTATIC EVALUATION FREQUENCY      2
Info: USING VERLET I (r-RESPA) MTS SCHEME.
Info: C1 SPLITTING OF LONG RANGE ELECTROSTATICS
Info: PLACING ATOMS IN PATCHES BY HYDROGEN GROUPS
Info: RIGID BONDS TO HYDROGEN : ALL
Info:         ERROR TOLERANCE : 1e-08
Info:          MAX ITERATIONS : 100
Info: RIGID WATER USING SETTLE ALGORITHM
Info: RANDOM NUMBER SEED     1741388750
Info: USE HYDROGEN BONDS?    NO
Info: Using AMBER format force field!
Info: AMBER PARM FILE        mobley_7203421.prmtop
Info: COORDINATE PDB         mobley_7203421.pdb
Info: Exclusions will be read from PARM file!
Info: SCNB (VDW SCALING)     2
Info: USING ARITHMETIC MEAN TO COMBINE L-J SIGMA PARAMETERS
Info: SUMMARY OF PARAMETERS:
Info: 8 BONDS
Info: 10 ANGLES
Info:   10 HARMONIC
Info:   0 COSINE-BASED
Info: 19 DIHEDRAL
Info: 0 IMPROPER
Info: 0 CROSSTERM
Info: 0 VDW
Info: 36 VDW_PAIRS
Info: 0 NBTHOLE_PAIRS
Info: STRUCTURE SUMMARY:
Info: 5271 ATOMS
Info: 5270 BONDS
Info: 36 ANGLES
Info: 57 DIHEDRALS
Info: 0 IMPROPERS
Info: 0 CROSSTERMS
Info: 5352 EXCLUSIONS
Info: 5263 RIGID BONDS
Info: 10550 DEGREES OF FREEDOM
Info: 1758 HYDROGEN GROUPS
Info: 4 ATOMS IN LARGEST HYDROGEN GROUP
Info: 1758 MIGRATION GROUPS
Info: 4 ATOMS IN LARGEST MIGRATION GROUP
Info: TOTAL MASS = 31643.2 amu
Info: TOTAL CHARGE = 0.000199981 e
Info: MASS DENSITY = 0.735686 g/cm^3
Info: ATOM DENSITY = 0.0737982 atoms/A^3
Info: ADDED 0 IMPLICIT EXCLUSIONS
Info: NONBONDED TABLE R-SQUARED SPACING: 0.0625
Info: NONBONDED TABLE SIZE: 705 POINTS
Info: REMOVING COM VELOCITY -0.0994971 0.0780517 0.0205925
TCL: Minimizing for 2000 steps
ETITLE: TS BOND ANGLE DIHED IMPRP ELECT VDW BOUNDARY MISC KINETIC TOTAL TEMP POTENTIAL TOTAL3 TEMPAVG PRESSURE GPRESSURE VOLUME PRESSAVG GPRESSAVG
ENERGY: 0 0.2432 1.3898 20.7279 0.0000 -16714.4197 1897.7921 0.0000 0.0000 0.0000 -14794.2668 0.0000 -14794.2668 -14794.2668 0.0000 11556.0763 -16355.7419 71424.4785 11556.0763 -16355.7419
ENERGY: 400 37.5597 9.9224 20.7881 0.0000 -21932.3339 3049.7975 0.0000 0.0000 0.0000 -18814.2662 0.0000 -18814.2662 -18814.2662 0.0000 15386.4018 15502.9499 71424.4785 15386.4018 15502.9499
ENERGY: 800 1.0876 1.5002 20.2467 0.0000 -23026.6697 3556.9822 0.0000 0.0000 0.0000 -19446.8530 0.0000 -19446.8530 -19446.8530 0.0000 17662.3768 17778.2269 71424.4785 17662.3768 17778.2269
ENERGY: 1200 0.9986 1.0511 19.9872 0.0000 -23552.3281 3808.9694 0.0000 0.0000 0.0000 -19721.3218 0.0000 -19721.3218 -19721.3218 0.0000 18794.1769 18902.7213 71424.4785 18794.1769 18902.7213
ENERGY: 1600 0.0398 2.1186 20.0080 0.0000 -23828.2890 3925.4400 0.0000 0.0000 0.0000 -19880.6826 0.0000 -19880.6826 -19880.6826 0.0000 19319.3679 19416.9359 71424.4785 19319.3679 19416.9359
ENERGY: 2000 0.5893 1.2270 19.7719 0.0000 -23983.4906 3998.0101 0.0000 0.0000 0.0000 -19963.8923 0.0000 -19963.8923 -19963.8923 0.0000 19641.5948 19752.4377 71424.4785 19641.5948 19752.4377
TCL: Exiting due to exit command.
Info: NAMD 3.0.1 for Linux-x86_64-multicore
Info: Please visit http://www.ks.uiuc.edu/Research/namd/
Info: for updates, documentation, and support information.
Info: Please cite Phillips et al., J. Chem. Phys. 153:044130 (2020) doi:10.1063/5.0014475
Info: in all publications reporting results obtained with NAMD.
Info: Based on Charm++/Converse 80000 for multicore-linux-x86_64-gcc
Info: Built Mon Oct 14 11:11:06 CDT 2024 by dhardy on athine.ks.uiuc.edu
Info: 1 NAMD  3.0.1  Linux-x86_64-multicore  16    k026  z5358697
Info: Running on 16 processors, 1 nodes, 1 physical nodes.
Info: CPU topology information available.
Info: Charm++/Converse parallel runtime startup completed at 0.0071965 s
Info: 1043.46 MB of memory in use based on /proc/self/stat
Info: Configuration file is mobley_7203421_equil.namd
Info: Working in the current directory /srv/scratch/z5358697/prod_prep_9/7203421
TCL: Running 25000 steps at 30 kelvin.
TCL: Suspending until startup complete.
Info: SIMULATION PARAMETERS:
Info: TIMESTEP               2
Info: NUMBER OF STEPS        0
Info: STEPS PER CYCLE        10
Info: PERIODIC CELL BASIS 1  42.113 0 0
Info: PERIODIC CELL BASIS 2  0 40.343 0
Info: PERIODIC CELL BASIS 3  0 0 42.04
Info: PERIODIC CELL CENTER   0 0 0
Info: WRAPPING WATERS AROUND PERIODIC BOUNDARIES ON OUTPUT.
Info: WRAPPING ALL CLUSTERS AROUND PERIODIC BOUNDARIES ON OUTPUT.
Info: FIRST LDB TIMESTEP     50
Info: LAST LDB TIMESTEP     -1
Info: HOM BACKGROUND SCALING 1
Info: PME BACKGROUND SCALING 1
Info: MIN ATOMS PER PATCH    40
Info: EMPTY PATCH LOAD       40 ATOMS
Info: INITIAL TEMPERATURE    300
Info: CENTER OF MASS MOVING INITIALLY? NO
Info: DIELECTRIC             1
Info: EXCLUDE                SCALED ONE-FOUR
Info: 1-4 ELECTROSTATICS SCALED BY 0.833333
Info: MODIFIED 1-4 VDW PARAMETERS WILL BE USED
Info: DCD FILENAME           mobley_7203421_equil.dcd
Info: DCD FREQUENCY          5000
Info: DCD FIRST STEP         5000
Info: DCD FILE WILL CONTAIN UNIT CELL DATA
Info: XST FILENAME           mobley_7203421_equil.xst
Info: XST FREQUENCY          5000
Info: NO VELOCITY DCD OUTPUT
Info: NO FORCE DCD OUTPUT
Info: OUTPUT FILENAME        mobley_7203421_equil
Info: BINARY OUTPUT FILES WILL BE USED
Info: RESTART FILENAME       mobley_7203421_equil.restart
Info: RESTART FREQUENCY      5000
Info: BINARY RESTART FILES WILL BE USED
Info: CUTOFF                 9
Info: PAIRLIST DISTANCE      11
Info: PAIRLIST SHRINK RATE   0.01
Info: PAIRLIST GROW RATE     0.01
Info: PAIRLIST TRIGGER       0.3
Info: PAIRLISTS PER CYCLE    2
Info: PAIRLISTS ENABLED
Info: MARGIN                 8
Info: HYDROGEN GROUP CUTOFF  2.5
Info: PATCH DIMENSION        21.5
Info: ENERGY OUTPUT STEPS    5000
Info: ENERGY EVALUATION STEPS    5000
Info: OUTPUT ENERGY PRECISION 4
Info: CROSSTERM ENERGY INCLUDED IN DIHEDRAL
Info: TIMING OUTPUT STEPS    50000
Info: PRESSURE OUTPUT STEPS  5000
Info: LANGEVIN DYNAMICS ACTIVE
Info: LANGEVIN TEMPERATURE   30
Info: LANGEVIN USING BBK INTEGRATOR
Info: LANGEVIN DAMPING COEFFICIENT IS 1 INVERSE PS
Info: LANGEVIN DYNAMICS APPLIED TO HYDROGENS
Info: LANGEVIN PISTON PRESSURE CONTROL ACTIVE
Info:        TARGET PRESSURE IS 1.01325 BAR
Info:     OSCILLATION PERIOD IS 50 FS
Info:             DECAY TIME IS 25 FS
Info:     PISTON TEMPERATURE IS 300 K
Info:       PRESSURE CONTROL IS GROUP-BASED
Info:    INITIAL STRAIN RATE IS 0 0 0
Info:       CELL FLUCTUATION IS ISOTROPIC
Info: PARTICLE MESH EWALD (PME) ACTIVE
Info: PME TOLERANCE               1e-06
Info: PME EWALD COEFFICIENT       0.348832
Info: PME INTERPOLATION ORDER     4
Info: PME GRID DIMENSIONS         44 44 44
Info: PME MAXIMUM GRID SPACING    1
Info: FULL ELECTROSTATIC EVALUATION FREQUENCY      2
Info: USING VERLET I (r-RESPA) MTS SCHEME.
Info: C1 SPLITTING OF LONG RANGE ELECTROSTATICS
Info: PLACING ATOMS IN PATCHES BY HYDROGEN GROUPS
Info: RIGID BONDS TO HYDROGEN : ALL
Info:         ERROR TOLERANCE : 1e-08
Info:          MAX ITERATIONS : 100
Info: RIGID WATER USING SETTLE ALGORITHM
Info: RANDOM NUMBER SEED     1741388765
Info: USE HYDROGEN BONDS?    NO
Info: Using AMBER format force field!
Info: AMBER PARM FILE        mobley_7203421.prmtop
Info: COORDINATE PDB         mobley_7203421.pdb
Info: Exclusions will be read from PARM file!
Info: SCNB (VDW SCALING)     2
Info: USING ARITHMETIC MEAN TO COMBINE L-J SIGMA PARAMETERS
Info: BINARY COORDINATES     mobley_7203421_min.coor
Info: SUMMARY OF PARAMETERS:
Info: 8 BONDS
Info: 10 ANGLES
Info:   10 HARMONIC
Info:   0 COSINE-BASED
Info: 19 DIHEDRAL
Info: 0 IMPROPER
Info: 0 CROSSTERM
Info: 0 VDW
Info: 36 VDW_PAIRS
Info: 0 NBTHOLE_PAIRS
Info: STRUCTURE SUMMARY:
Info: 5271 ATOMS
Info: 5270 BONDS
Info: 36 ANGLES
Info: 57 DIHEDRALS
Info: 0 IMPROPERS
Info: 0 CROSSTERMS
Info: 5352 EXCLUSIONS
Info: 5263 RIGID BONDS
Info: 10550 DEGREES OF FREEDOM
Info: 1758 HYDROGEN GROUPS
Info: 4 ATOMS IN LARGEST HYDROGEN GROUP
Info: 1758 MIGRATION GROUPS
Info: 4 ATOMS IN LARGEST MIGRATION GROUP
Info: TOTAL MASS = 31643.2 amu
Info: TOTAL CHARGE = 0.000199981 e
Info: MASS DENSITY = 0.735686 g/cm^3
Info: ATOM DENSITY = 0.0737982 atoms/A^3
Info: ADDED 0 IMPLICIT EXCLUSIONS
Info: NONBONDED TABLE R-SQUARED SPACING: 0.0625
Info: NONBONDED TABLE SIZE: 705 POINTS
Info: REMOVING COM VELOCITY -0.0642538 0.167934 -0.0319807
TCL: Running for 25000 steps
ETITLE: TS BOND ANGLE DIHED IMPRP ELECT VDW BOUNDARY MISC KINETIC TOTAL TEMP POTENTIAL TOTAL3 TEMPAVG PRESSURE GPRESSURE VOLUME PRESSAVG GPRESSAVG
ENERGY: 0 0.5893 1.2270 19.7719 0.0000 -23983.4906 3998.0101 0.0000 0.0000 3102.8003 -16861.0920 296.0000 -19963.8923 -16860.4270 296.0000 -399.5366 -355.5596 71424.4785 -399.5366 -355.5596
ENERGY: 5000 0.6628 1.9340 19.8935 0.0000 -25354.5447 4401.4722 0.0000 0.0000 314.9362 -20615.6459 30.0442 -20930.5821 -20614.8884 47.6931 97.9819 142.1818 51503.1255 -0.4421 -0.3860
ENERGY: 10000 0.5342 1.8004 20.7567 0.0000 -25208.4312 4215.1766 0.0000 0.0000 313.6065 -20656.5569 29.9173 -20970.1634 -20655.7321 30.1689 -871.4269 -812.0544 51485.8849 5.4841 5.6543
ENERGY: 15000 0.4466 1.6055 20.4676 0.0000 -25318.6093 4291.8996 0.0000 0.0000 321.0442 -20683.1457 30.6269 -21004.1900 -20682.0710 30.1192 -545.8725 -504.5194 51216.3906 -2.4768 -2.3183
ENERGY: 20000 0.5894 1.8280 20.0561 0.0000 -25389.8630 4352.0220 0.0000 0.0000 312.8753 -20702.4922 29.8476 -21015.3675 -20701.6143 29.8848 -313.2521 -257.5216 51249.5959 2.4053 2.3389
ENERGY: 25000 0.8418 1.7575 19.8359 0.0000 -25447.9117 4391.7594 0.0000 0.0000 313.7479 -20719.9692 29.9308 -21033.7171 -20719.0103 30.0330 -133.4907 -89.8264 51030.4699 0.6437 0.7986
TCL: Running 25000 steps at 60 kelvin.
TCL: Setting parameter langevinTemp to 60
TCL: Running for 25000 steps
ETITLE: TS BOND ANGLE DIHED IMPRP ELECT VDW BOUNDARY MISC KINETIC TOTAL TEMP POTENTIAL TOTAL3 TEMPAVG PRESSURE GPRESSURE VOLUME PRESSAVG GPRESSAVG
ENERGY: 25000 0.8418 1.7575 19.8359 0.0000 -25447.9117 4391.7594 0.0000 0.0000 313.5919 -20720.1252 29.9159 -21033.7171 -20719.4495 29.9159 -141.9179 -89.9152 51030.4699 -141.9179 -89.9152
ENERGY: 30000 0.2464 3.1581 20.3897 0.0000 -24705.0964 3976.4916 0.0000 0.0000 627.7609 -20077.0496 59.8869 -20704.8105 -20075.5549 57.0617 -1429.0085 -1392.4785 51769.4341 -0.2143 -0.3162
ENERGY: 35000 0.9704 2.2665 20.1705 0.0000 -24964.3515 4193.2537 0.0000 0.0000 625.6172 -20122.0733 59.6824 -20747.6905 -20120.2233 59.8419 -435.3882 -372.5425 51243.6188 0.1587 0.1819
ENERGY: 40000 0.2798 2.8956 20.4344 0.0000 -25113.0362 4301.8196 0.0000 0.0000 619.0216 -20168.5852 59.0532 -20787.6068 -20167.2377 60.2277 57.8648 120.7888 50894.3144 5.5666 5.3822
ENERGY: 45000 0.1841 1.9382 20.5891 0.0000 -25024.0373 4185.2065 0.0000 0.0000 622.8897 -20193.2298 59.4222 -20816.1195 -20191.7961 60.3544 -502.0095 -431.6682 51004.9581 4.6937 5.1166
ENERGY: 50000 0.8303 1.8946 19.7698 0.0000 -25286.6838 4411.9960 0.0000 0.0000 634.9492 -20217.2439 60.5727 -20852.1931 -20215.5068 59.9279 593.4945 625.8071 50644.6883 3.2074 3.5611
TCL: Running 25000 steps at 90 kelvin.
TCL: Setting parameter langevinTemp to 90
TCL: Running for 25000 steps
ETITLE: TS BOND ANGLE DIHED IMPRP ELECT VDW BOUNDARY MISC KINETIC TOTAL TEMP POTENTIAL TOTAL3 TEMPAVG PRESSURE GPRESSURE VOLUME PRESSAVG GPRESSAVG
ENERGY: 50000 0.8303 1.8946 19.7698 0.0000 -25286.6838 4411.9960 0.0000 0.0000 634.6397 -20217.5534 60.5432 -20852.1931 -20216.2782 60.5432 581.6797 626.2288 50644.6883 581.6797 626.2288
ENERGY: 55000 0.6553 2.4789 20.9191 0.0000 -24861.9080 4300.1989 0.0000 0.0000 960.2170 -19577.4388 91.6025 -20537.6558 -19574.4090 87.0002 617.1496 650.4096 50908.3326 5.1821 5.2493
ENERGY: 60000 1.2133 2.9375 19.7812 0.0000 -24884.3300 4285.4882 0.0000 0.0000 957.9676 -19616.9423 91.3879 -20574.9099 -19614.2144 90.6063 489.9070 544.1269 51023.6492 3.1869 3.2093
ENERGY: 65000 0.9776 4.6963 20.3454 0.0000 -24864.1101 4232.4427 0.0000 0.0000 973.3901 -19632.2579 92.8592 -20605.6481 -19630.1125 90.2467 85.2704 143.9273 51059.7142 3.2558 3.5914
ENERGY: 70000 0.4474 3.3456 19.7300 0.0000 -24801.0426 4150.7937 0.0000 0.0000 944.6166 -19682.1095 90.1143 -20626.7260 -19679.1598 90.3067 -241.8674 -188.6387 50999.0205 0.7016 0.7212
ENERGY: 75000 0.4186 3.4010 20.4331 0.0000 -24878.6838 4234.9661 0.0000 0.0000 952.0800 -19667.3849 90.8263 -20619.4649 -19664.3939 90.3577 150.4040 196.1083 50835.5075 4.7989 4.8936
TCL: Running 25000 steps at 120 kelvin.
TCL: Setting parameter langevinTemp to 120
TCL: Running for 25000 steps
ETITLE: TS BOND ANGLE DIHED IMPRP ELECT VDW BOUNDARY MISC KINETIC TOTAL TEMP POTENTIAL TOTAL3 TEMPAVG PRESSURE GPRESSURE VOLUME PRESSAVG GPRESSAVG
ENERGY: 75000 0.4186 3.4010 20.4331 0.0000 -24878.6838 4234.9661 0.0000 0.0000 951.6206 -19667.8443 90.7824 -20619.4649 -19665.7754 90.7824 138.8858 196.0782 50835.5075 138.8858 196.0782
ENERGY: 80000 2.2036 6.2702 20.3233 0.0000 -24335.7214 4065.4318 0.0000 0.0000 1256.3921 -18985.1004 119.8569 -20241.4925 -18981.9915 116.8438 111.8504 171.4295 50962.2322 5.2406 5.4783
ENERGY: 85000 1.4515 5.2308 19.4423 0.0000 -24315.8108 4008.2811 0.0000 0.0000 1255.7609 -19025.6441 119.7967 -20281.4051 -19022.6068 120.3091 -181.6861 -121.2660 51053.9865 -0.9496 -1.2008
ENERGY: 90000 0.7036 6.0291 19.7224 0.0000 -24314.1057 3968.5591 0.0000 0.0000 1251.2802 -19067.8113 119.3693 -20319.0915 -19066.1065 120.1463 -584.1917 -498.4652 51251.7481 5.3591 5.2168
ENERGY: 95000 0.6906 6.8610 20.5187 0.0000 -24219.6604 3862.5286 0.0000 0.0000 1252.4030 -19076.6586 119.4764 -20329.0615 -19072.3779 120.4617 -955.0257 -964.0152 51254.0997 4.6350 4.6223
ENERGY: 100000 1.1565 3.8161 20.2428 0.0000 -24401.8902 3979.7432 0.0000 0.0000 1254.9588 -19141.9728 119.7202 -20396.9315 -19138.9012 120.0747 -724.8004 -660.8441 51623.5128 5.5098 5.6099
TCL: Running 25000 steps at 150 kelvin.
TCL: Setting parameter langevinTemp to 150
TCL: Running for 25000 steps
ETITLE: TS BOND ANGLE DIHED IMPRP ELECT VDW BOUNDARY MISC KINETIC TOTAL TEMP POTENTIAL TOTAL3 TEMPAVG PRESSURE GPRESSURE VOLUME PRESSAVG GPRESSAVG
ENERGY: 100000 1.1565 3.8161 20.2428 0.0000 -24401.8902 3979.7432 0.0000 0.0000 1254.3388 -19142.5928 119.6610 -20396.9315 -19140.0675 119.6610 -720.5578 -660.9699 51623.5128 -720.5578 -660.9699
ENERGY: 105000 0.2943 5.6485 19.8124 0.0000 -24026.6051 3983.1653 0.0000 0.0000 1618.5973 -18399.0874 154.4105 -20017.6847 -18396.1739 147.0146 272.9049 324.8670 51403.2608 0.1251 0.3908
ENERGY: 110000 0.6560 3.8831 20.1205 0.0000 -23991.0869 3938.5565 0.0000 0.0000 1611.1666 -18416.7042 153.7016 -20027.8708 -18412.0110 150.4726 -71.3655 -14.4604 51552.2510 2.6434 2.7505
ENERGY: 115000 0.9103 2.7894 19.9773 0.0000 -23833.6525 3781.7310 0.0000 0.0000 1574.4904 -18453.7541 150.2028 -20028.2444 -18451.0482 150.9189 -908.9035 -857.4208 52142.8585 0.6530 0.3455
ENERGY: 120000 2.4568 5.1658 21.8992 0.0000 -23873.9270 3796.1772 0.0000 0.0000 1588.5109 -18459.7170 151.5403 -20048.2279 -18455.4432 149.9042 -853.0103 -798.1102 51893.9885 3.0794 3.2758
ENERGY: 125000 1.5114 7.0860 21.2644 0.0000 -24020.8146 3952.9276 0.0000 0.0000 1551.3851 -18486.6400 147.9986 -20038.0252 -18484.6682 150.1690 -128.1134 -53.4153 51596.5679 -3.2888 -2.7904
TCL: Running 50000 steps at 180 kelvin.
TCL: Setting parameter langevinTemp to 180
TCL: Running for 50000 steps
ETITLE: TS BOND ANGLE DIHED IMPRP ELECT VDW BOUNDARY MISC KINETIC TOTAL TEMP POTENTIAL TOTAL3 TEMPAVG PRESSURE GPRESSURE VOLUME PRESSAVG GPRESSAVG
ENERGY: 125000 1.5114 7.0860 21.2644 0.0000 -24020.8146 3952.9276 0.0000 0.0000 1550.6067 -18487.4185 147.9243 -20038.0252 -18484.5987 147.9243 -105.0255 -54.3903 51596.5679 -105.0255 -54.3903
ENERGY: 135000 0.8550 6.2336 20.8566 0.0000 -23360.8850 3741.5654 0.0000 0.0000 1904.1526 -17687.2218 181.6518 -19591.3743 -17683.9583 180.2641 -258.7212 -198.0848 52058.6121 4.1200 4.3330
ENERGY: 145000 1.2104 5.9655 19.6406 0.0000 -23417.2905 3792.5550 0.0000 0.0000 1932.3746 -17665.5444 184.3441 -19597.9189 -17662.3298 180.7983 226.1100 291.8244 51291.5280 4.5623 5.0725
ENERGY: 155000 2.2430 6.0895 21.2516 0.0000 -23501.1046 3819.6219 0.0000 0.0000 1875.7730 -17776.1257 178.9444 -19651.8987 -17771.9779 179.6019 169.3525 253.9030 51262.3898 5.3353 5.4668
ENERGY: 165000 0.5423 6.6354 20.3106 0.0000 -23619.5451 3916.0726 0.0000 0.0000 1900.3252 -17775.6590 181.2867 -19675.9842 -17772.3570 179.5018 537.3646 567.7106 51473.5694 1.7267 1.4411
ENERGY: 175000 0.8114 5.1638 20.3393 0.0000 -23487.4753 3755.8616 0.0000 0.0000 1892.4129 -17812.8862 180.5318 -19705.2992 -17809.5461 180.0799 -459.4782 -377.6798 52036.1428 3.6205 3.8783
TCL: Running 50000 steps at 210 kelvin.
TCL: Setting parameter langevinTemp to 210
TCL: Running for 50000 steps
ETITLE: TS BOND ANGLE DIHED IMPRP ELECT VDW BOUNDARY MISC KINETIC TOTAL TEMP POTENTIAL TOTAL3 TEMPAVG PRESSURE GPRESSURE VOLUME PRESSAVG GPRESSAVG
ENERGY: 175000 0.8114 5.1638 20.3393 0.0000 -23487.4753 3755.8616 0.0000 0.0000 1891.4760 -17813.8232 180.4425 -19705.2992 -17810.5321 180.4425 -445.5161 -378.0041 52036.1428 -445.5161 -378.0041
ENERGY: 185000 1.1484 6.7474 20.8402 0.0000 -22135.2255 3235.8381 0.0000 0.0000 2179.6636 -16690.9879 207.9349 -18870.6515 -16685.4389 210.8304 -912.4211 -816.3462 51779.0172 -1.7428 -1.7520
ENERGY: 195000 1.0041 4.5608 20.6181 0.0000 -22253.0991 3405.0755 0.0000 0.0000 2159.7387 -16662.1019 206.0341 -18821.8406 -16658.6938 211.4792 122.8062 159.8344 51184.8995 5.4655 5.2036
ENERGY: 205000 2.0337 6.2307 20.9001 0.0000 -22125.2386 3345.6770 0.0000 0.0000 2176.2657 -16574.1313 207.6108 -18750.3970 -16570.2289 210.1375 120.1764 248.8725 50774.3350 3.0637 3.3428
ENERGY: 215000 1.5746 4.8263 20.9274 0.0000 -22267.0482 3429.3333 0.0000 0.0000 2201.0732 -16609.3135 209.9773 -18810.3867 -16605.6897 209.4236 203.0030 248.9282 51298.0616 3.4632 3.2770
ENERGY: 225000 0.3537 7.3743 20.6787 0.0000 -22367.5929 3497.2794 0.0000 0.0000 2171.1227 -16670.7842 207.1201 -18841.9068 -16664.1106 209.3721 474.4552 502.2124 51223.1572 3.3736 3.3610
TCL: Running 50000 steps at 240 kelvin.
TCL: Setting parameter langevinTemp to 240
TCL: Running for 50000 steps
ETITLE: TS BOND ANGLE DIHED IMPRP ELECT VDW BOUNDARY MISC KINETIC TOTAL TEMP POTENTIAL TOTAL3 TEMPAVG PRESSURE GPRESSURE VOLUME PRESSAVG GPRESSAVG
ENERGY: 225000 0.3537 7.3743 20.6787 0.0000 -22367.5929 3497.2794 0.0000 0.0000 2170.0375 -16671.8694 207.0166 -18841.9068 -16668.0793 207.0166 432.8348 502.2889 51223.1572 432.8348 502.2889
ENERGY: 235000 0.5866 8.2180 20.7990 0.0000 -20970.5885 2940.4634 0.0000 0.0000 2503.7224 -15496.7992 238.8494 -18000.5215 -15491.1296 239.4581 -707.2305 -590.4685 52337.4478 2.9543 3.1712
ENERGY: 245000 2.1019 5.5547 20.8045 0.0000 -21215.2921 3093.1132 0.0000 0.0000 2502.1925 -15591.5254 238.7034 -18093.7179 -15587.4259 240.1825 -128.2736 -47.8573 52015.5701 -0.1034 0.0172
ENERGY: 255000 2.9907 7.8840 19.5687 0.0000 -21006.6187 2982.9304 0.0000 0.0000 2475.7639 -15517.4810 236.1822 -17993.2449 -15512.9403 241.1361 -264.0305 -207.8743 51970.1399 0.8360 0.4777
ENERGY: 265000 0.6021 7.2278 21.2560 0.0000 -21218.5986 3198.1788 0.0000 0.0000 2442.1828 -15549.1512 232.9786 -17991.3339 -15545.3192 241.2250 614.8499 714.2585 51608.3450 -0.7594 -0.8605
ENERGY: 275000 2.6041 7.1756 19.8102 0.0000 -21280.4208 3111.9482 0.0000 0.0000 2547.7531 -15591.1297 243.0498 -18138.8827 -15585.4037 240.6373 -111.6963 -27.3459 52271.8414 -5.1419 -5.1739
TCL: Running 50000 steps at 270 kelvin.
TCL: Setting parameter langevinTemp to 270
TCL: Running for 50000 steps
ETITLE: TS BOND ANGLE DIHED IMPRP ELECT VDW BOUNDARY MISC KINETIC TOTAL TEMP POTENTIAL TOTAL3 TEMPAVG PRESSURE GPRESSURE VOLUME PRESSAVG GPRESSAVG
ENERGY: 275000 2.6041 7.1756 19.8102 0.0000 -21280.4208 3111.9482 0.0000 0.0000 2546.4948 -15592.3879 242.9298 -18138.8827 -15588.3474 242.9298 -109.2516 -26.6242 52271.8414 -109.2516 -26.6242
ENERGY: 285000 2.1339 7.2117 21.1845 0.0000 -20135.4040 2834.6928 0.0000 0.0000 2762.2564 -14507.9249 263.5129 -17270.1813 -14504.6936 271.3186 179.6715 254.6281 52374.5398 5.8979 5.3885
ENERGY: 295000 1.2747 7.4832 22.5450 0.0000 -20101.1338 2755.8980 0.0000 0.0000 2784.6357 -14529.2972 265.6479 -17313.9329 -14522.2930 270.9417 -365.0731 -296.2941 53273.8828 2.5841 2.7122
ENERGY: 305000 3.0553 5.8293 23.8997 0.0000 -20184.3646 2794.3924 0.0000 0.0000 2846.6731 -14510.5148 271.5661 -17357.1878 -14502.8732 270.4954 -66.7904 4.1472 52693.0866 -1.3549 -1.2068
ENERGY: 315000 2.0466 9.2448 22.7790 0.0000 -20104.6466 2777.9728 0.0000 0.0000 2830.4638 -14462.1396 270.0197 -17292.6034 -14454.3802 269.8921 -314.0457 -154.0009 53234.6751 8.1831 8.1517
ENERGY: 325000 1.5926 6.5109 20.6466 0.0000 -20136.1983 2873.1762 0.0000 0.0000 2802.8197 -14431.4523 267.3826 -17234.2720 -14424.2131 270.8111 442.6442 447.6648 52788.3637 2.4038 2.4944
TCL: Running 1000000 steps at 300 kelvin.
TCL: Setting parameter langevinTemp to 300
TCL: Running for 1000000 steps
ETITLE: TS BOND ANGLE DIHED IMPRP ELECT VDW BOUNDARY MISC KINETIC TOTAL TEMP POTENTIAL TOTAL3 TEMPAVG PRESSURE GPRESSURE VOLUME PRESSAVG GPRESSAVG
ENERGY: 325000 1.5926 6.5109 20.6466 0.0000 -20136.1983 2873.1762 0.0000 0.0000 2801.3711 -14432.9008 267.2444 -17234.2720 -14428.3972 267.2444 367.7309 448.1070 52788.3637 367.7309 448.1070
ENERGY: 525000 1.2336 9.1959 21.2228 0.0000 -19233.5641 2636.7030 0.0000 0.0000 3100.6655 -13464.5432 295.7964 -16565.2088 -13459.2242 299.3733 152.1785 234.0136 54930.4828 7.2866 7.4888
ENERGY: 725000 1.0209 13.0454 21.6916 0.0000 -19128.2223 2541.8953 0.0000 0.0000 3042.0666 -13508.5025 290.2062 -16550.5691 -13501.1393 299.2359 -206.5893 -142.6419 54462.0653 1.5717 1.3632
ENERGY: 925000 1.6190 8.0574 22.4882 0.0000 -19286.6578 2545.0058 0.0000 0.0000 3134.3533 -13575.1340 299.0101 -16709.4873 -13567.7610 299.3463 -299.7243 -204.0384 53759.6425 3.7063 3.5971
ENERGY: 1125000 1.1427 8.0055 23.5631 0.0000 -19129.5721 2508.8318 0.0000 0.0000 3130.8580 -13457.1709 298.6767 -16588.0289 -13452.2846 298.6765 -191.8928 -133.6963 54100.8248 4.3979 3.8617
ENERGY: 1325000 1.8818 7.9363 21.7517 0.0000 -19023.3283 2471.8373 0.0000 0.0000 3117.0177 -13402.9036 297.3563 -16519.9212 -13396.4883 301.2439 -303.5921 -282.7389 54704.5502 3.8941 3.6993
TCL: Exiting due to exit command.
