Info: SIMULATION PARAMETERS:
Info: TIMESTEP               2
Info: NUMBER OF STEPS        0
Info: STEPS PER CYCLE        10
Info: PERIODIC CELL BASIS 1  73.0158 0 0
Info: PERIODIC CELL BASIS 2  0 73.0158 0
Info: PERIODIC CELL BASIS 3  0 0 73.0158
Info: PERIODIC CELL CENTER   33.233 33.233 33.233
Info: WRAPPING ALL CLUSTERS AROUND PERIODIC BOUNDARIES ON OUTPUT.
Info: FIRST LDB TIMESTEP     50
Info: LAST LDB TIMESTEP     -1
Info: HOM BACKGROUND SCALING 1
Info: PME BACKGROUND SCALING 1
Info: MIN ATOMS PER PATCH    40
Info: EMPTY PATCH LOAD       40 ATOMS
Info: VELOCITY FILE          mobley_7578802_equilibrated.vel
Info: CENTER OF MASS MOVING INITIALLY? NO
Info: DIELECTRIC             1
Info: EXCLUDE                SCALED ONE-FOUR
Info: 1-4 ELECTROSTATICS SCALED BY 1
Info: MODIFIED 1-4 VDW PARAMETERS WILL BE USED
Info: DCD FILENAME           mobley_7578802_backwards.dcd
Info: DCD FREQUENCY          500
Info: DCD FIRST STEP         500
Info: DCD FILE WILL CONTAIN UNIT CELL DATA
Info: NO EXTENDED SYSTEM TRAJECTORY OUTPUT
Info: NO VELOCITY DCD OUTPUT
Info: NO FORCE DCD OUTPUT
Info: OUTPUT FILENAME        mobley_7578802_backwards
Info: BINARY OUTPUT FILES WILL BE USED
Info: NO RESTART FILE
Info: SWITCHING ACTIVE
Info: SWITCHING ON           10
Info: SWITCHING OFF          12
Info: PAIRLIST DISTANCE      14
Info: PAIRLIST SHRINK RATE   0.01
Info: PAIRLIST GROW RATE     0.01
Info: PAIRLIST TRIGGER       0.3
Info: PAIRLISTS PER CYCLE    2
Info: PAIRLISTS ENABLED
Info: MARGIN                 8
Info: HYDROGEN GROUP CUTOFF  2.5
Info: PATCH DIMENSION        24.5
Info: ENERGY OUTPUT STEPS    500
Info: ENERGY EVALUATION STEPS    500
Info: OUTPUT ENERGY PRECISION 4
Info: CROSSTERM ENERGY INCLUDED IN DIHEDRAL
Info: TIMING OUTPUT STEPS    500
Info: PRESSURE OUTPUT STEPS  500
Info: ALCHEMICAL FEP ON
Info: FEP CURRENT LAMBDA VALUE     1
Info: FEP COMPARISON LAMBDA VALUE  0.9375
Info: FEP INTRA-ALCHEMICAL NON-BONDED INTERACTIONS WILL BE DECOUPLED
Info: FEP INTRA-ALCHEMICAL BONDED INTERACTIONS WILL BE RETAINED
Info: FEP VDW SHIFTING COEFFICIENT 6
Info: FEP ELEC. ACTIVE FOR ANNIHILATED PARTICLES BETWEEN LAMBDA = 0 AND LAMBDA = 0.5
Info: FEP ELEC. ACTIVE FOR EXNIHILATED PARTICLES BETWEEN LAMBDA = 0.5 AND LAMBDA = 1
Info: FEP VDW ACTIVE FOR ANNIHILATED PARTICLES BETWEEN LAMBDA = 0 AND LAMBDA = 1
Info: FEP VDW ACTIVE FOR EXNIHILATED PARTICLES BETWEEN LAMBDA = 0 AND LAMBDA = 1
Info: FEP BOND ACTIVE FOR ANNIHILATED PARTICLES BETWEEN LAMBDA = 1 AND LAMBDA = 1
Info: FEP BOND ACTIVE FOR EXNIHILATED PARTICLES BETWEEN LAMBDA = 0 AND LAMBDA = 0
Info: LANGEVIN DYNAMICS ACTIVE
Info: LANGEVIN TEMPERATURE   298
Info: LANGEVIN USING BBK INTEGRATOR
Info: LANGEVIN DAMPING COEFFICIENT IS 1 INVERSE PS
Info: LANGEVIN DYNAMICS NOT APPLIED TO HYDROGENS
Info: LANGEVIN PISTON PRESSURE CONTROL ACTIVE
Info:        TARGET PRESSURE IS 1.01325 BAR
Info:     OSCILLATION PERIOD IS 100 FS
Info:             DECAY TIME IS 50 FS
Info:     PISTON TEMPERATURE IS 298 K
Info:       PRESSURE CONTROL IS GROUP-BASED
Info:    INITIAL STRAIN RATE IS 7.65288e-05 7.65288e-05 7.65288e-05
Info:       CELL FLUCTUATION IS ISOTROPIC
Info: PARTICLE MESH EWALD (PME) ACTIVE
Info: PME TOLERANCE               1e-05
Info: PME EWALD COEFFICIENT       0.226635
Info: PME INTERPOLATION ORDER     4
Info: PME GRID DIMENSIONS         80 80 80
Info: PME MAXIMUM GRID SPACING    1
Info: FULL ELECTROSTATIC EVALUATION FREQUENCY      1
Info: USING VERLET I (r-RESPA) MTS SCHEME.
Info: C1 SPLITTING OF LONG RANGE ELECTROSTATICS
Info: PLACING ATOMS IN PATCHES BY HYDROGEN GROUPS
Info: RIGID BONDS TO HYDROGEN : ALL
Info:         ERROR TOLERANCE : 1e-08
Info:          MAX ITERATIONS : 100
Info: RIGID WATER USING SETTLE ALGORITHM
Info: RANDOM NUMBER SEED     1740649648
Info: USE HYDROGEN BONDS?    NO
Info: COORDINATE PDB         mobley_7578802.pdb
Info: STRUCTURE FILE         mobley_7578802.psf
Info: PARAMETER file: CHARMM format!
Info: PARAMETERS             ../common/par_all27_prot_lipid.inp
Info: PARAMETERS             mobley_7578802.prm
Info: USING ARITHMETIC MEAN TO COMBINE L-J SIGMA PARAMETERS
Info: BINARY COORDINATES     mobley_7578802_equilibrated.coor
Info: SUMMARY OF PARAMETERS:
Info: 182 BONDS
Info: 449 ANGLES
Info: 566 DIHEDRAL
Info: 46 IMPROPER
Info: 6 CROSSTERM
Info: 122 VDW
Info: 0 VDW_PAIRS
Info: 0 NBTHOLE_PAIRS
Info: To read alchdata from file: mobley_7578802.pdb
Info: To read alchflag data from column: 5
Info: STRUCTURE SUMMARY:
Info: 3548 ATOMS
Info: 2366 BONDS
Info: 1187 ANGLES
Info: 0 DIHEDRALS
Info: 0 IMPROPERS
Info: 0 CROSSTERMS
Info: 0 EXCLUSIONS
Info: 3544 RIGID BONDS
Info: ALCH: 0 ATOMS TO DISAPPEAR IN FINAL STATE
Info: ALCH: 5 ATOMS TO APPEAR IN FINAL STATE
Info: 7100 DEGREES OF FREEDOM
Info: 1185 HYDROGEN GROUPS
Info: 3 ATOMS IN LARGEST HYDROGEN GROUP
Info: 1185 MIGRATION GROUPS
Info: 3 ATOMS IN LARGEST MIGRATION GROUP
Info: TOTAL MASS = 21528.9 amu
Info: TOTAL CHARGE = -7.45058e-09 e
Info: MASS DENSITY = 0.0918398 g/cm^3
Info: ATOM DENSITY = 0.00911451 atoms/A^3
Info: ADDED 3553 IMPLICIT EXCLUSIONS
Info: NONBONDED TABLE R-SQUARED SPACING: 0.0625
Info: NONBONDED TABLE SIZE: 769 POINTS
Info: REMOVING COM VELOCITY -0.0849029 -0.250047 -0.0574993
TCL: Running for 5000 steps
ETITLE: TS BOND ANGLE DIHED IMPRP ELECT VDW BOUNDARY MISC KINETIC TOTAL TEMP POTENTIAL TOTAL3 TEMPAVG PRESSURE GPRESSURE VOLUME PRESSAVG GPRESSAVG
ENERGY: 0 1.3415 2.2217 0.0000 0.0000 -12192.9650 1368.2503 0.0000 0.0000 2132.0464 -8689.1050 302.2238 -10821.1514 -8685.1178 302.2238 66.4258 66.4258 389269.4265 66.4258 66.4258
ENERGY: 1000 0.3157 2.6464 0.0000 0.0000 -12095.3517 1280.4951 0.0000 0.0000 2089.2096 -8722.6849 296.1516 -10811.8945 -8719.7875 299.0696 -2.5228 -1.8827 376614.7299 0.4395 0.4204
ENERGY: 2000 1.5984 2.6240 0.0000 0.0000 -12171.7224 1295.5797 0.0000 0.0000 2164.6493 -8707.2710 306.8454 -10871.9203 -8702.5031 305.3508 5.6176 5.6369 366374.2983 3.8182 3.8158
ENERGY: 3000 0.9526 3.3700 0.0000 0.0000 -12207.5764 1283.2927 0.0000 0.0000 2162.5198 -8757.4413 306.5435 -10919.9611 -8752.2650 299.7790 10.6380 10.6357 365556.4445 0.0010 0.0225
ENERGY: 4000 0.2094 1.5489 0.0000 0.0000 -12238.5758 1299.5236 0.0000 0.0000 2140.3152 -8796.9785 303.3960 -10937.2938 -8794.9075 300.7002 4.2028 4.0499 371544.4525 2.9288 2.9390
ENERGY: 5000 0.2811 1.3467 0.0000 0.0000 -12120.4093 1349.8531 0.0000 0.0000 2058.1187 -8710.8097 291.7443 -10768.9284 -8706.0433 298.8660 65.0818 63.8820 367870.0181 0.3851 0.3575
TCL: Running FEP window   2: Lambda1 0.9375 Lambda2 0.875  [dLambda -0.0625]
TCL: Setting parameter firsttimestep to 0
TCL: Setting parameter alchLambda to 0.9375
Info: NONBONDED TABLE R-SQUARED SPACING: 0.0625
Info: NONBONDED TABLE SIZE: 769 POINTS
TCL: Setting parameter alchLambda2 to 0.875
Info: NONBONDED TABLE R-SQUARED SPACING: 0.0625
Info: NONBONDED TABLE SIZE: 769 POINTS
TCL: Running for 5000 steps
ETITLE: TS BOND ANGLE DIHED IMPRP ELECT VDW BOUNDARY MISC KINETIC TOTAL TEMP POTENTIAL TOTAL3 TEMPAVG PRESSURE GPRESSURE VOLUME PRESSAVG GPRESSAVG
ENERGY: 0 0.2811 1.3467 0.0000 0.0000 -12120.2587 1350.3437 0.0000 0.0000 2058.0549 -8710.2323 291.7353 -10768.2872 -8706.3167 291.7353 63.0214 63.0214 367870.0181 63.0214 63.0214
ENERGY: 1000 0.0874 0.9411 0.0000 0.0000 -12218.8233 1394.8565 0.0000 0.0000 2186.0431 -8636.8952 309.8780 -10822.9383 -8632.6001 302.6493 62.1117 61.0381 388657.4027 2.0603 2.0503
ENERGY: 2000 0.4222 0.5923 0.0000 0.0000 -12138.2153 1282.7608 0.0000 0.0000 2141.1793 -8713.2608 303.5184 -10854.4400 -8708.3634 299.1542 0.7871 0.3943 369081.0340 0.7581 0.7595
ENERGY: 3000 0.2725 1.3884 0.0000 0.0000 -12105.2082 1244.2187 0.0000 0.0000 2057.8037 -8801.5250 291.6997 -10859.3287 -8797.1781 295.5940 -22.2683 -21.7660 353281.6324 -1.5855 -1.6166
ENERGY: 4000 0.9409 1.8589 0.0000 0.0000 -12085.8079 1215.1386 0.0000 0.0000 2096.1417 -8771.7278 297.1342 -10867.8695 -8767.1805 299.8482 -38.9687 -39.3468 321815.8503 1.3384 1.3432
ENERGY: 5000 0.0432 1.7258 0.0000 0.0000 -12209.8523 1295.4759 0.0000 0.0000 2085.1933 -8827.4141 295.5823 -10912.6074 -8825.1844 294.6413 -28.0344 -28.6419 336293.5449 1.9522 1.9499
TCL: Running FEP window   3: Lambda1 0.875  Lambda2 0.8125 [dLambda -0.0625]
TCL: Setting parameter firsttimestep to 0
TCL: Setting parameter alchLambda to 0.875
Info: NONBONDED TABLE R-SQUARED SPACING: 0.0625
Info: NONBONDED TABLE SIZE: 769 POINTS
TCL: Setting parameter alchLambda2 to 0.8125
Info: NONBONDED TABLE R-SQUARED SPACING: 0.0625
Info: NONBONDED TABLE SIZE: 769 POINTS
TCL: Running for 5000 steps
ETITLE: TS BOND ANGLE DIHED IMPRP ELECT VDW BOUNDARY MISC KINETIC TOTAL TEMP POTENTIAL TOTAL3 TEMPAVG PRESSURE GPRESSURE VOLUME PRESSAVG GPRESSAVG
ENERGY: 0 0.0432 1.7258 0.0000 0.0000 -12209.7426 1294.8648 0.0000 0.0000 2085.1288 -8827.9800 295.5731 -10913.1088 -8823.9539 295.5731 -31.0387 -31.0387 336293.5449 -31.0387 -31.0387
ENERGY: 1000 0.2165 2.7181 0.0000 0.0000 -12278.8665 1315.4596 0.0000 0.0000 2096.5186 -8863.9537 297.1876 -10960.4723 -8861.4550 296.1614 1.0848 1.6087 345742.5915 6.6244 6.6627
ENERGY: 2000 1.7777 1.9075 0.0000 0.0000 -12358.7422 1406.4966 0.0000 0.0000 2066.0218 -8882.5387 292.8646 -10948.5605 -8878.4868 292.6790 91.9359 91.7256 340081.3079 0.1587 0.1433
ENERGY: 3000 0.2479 2.3581 0.0000 0.0000 -12156.0612 1258.3450 0.0000 0.0000 2105.8538 -8789.2565 298.5109 -10895.1102 -8784.4487 298.3537 -27.7385 -26.8806 350878.1968 -0.1984 -0.2322
ENERGY: 4000 1.0207 0.8298 0.0000 0.0000 -12170.9988 1326.2956 0.0000 0.0000 2051.8177 -8791.0351 290.8512 -10842.8528 -8786.1596 299.2055 45.7368 45.6868 350837.4024 2.5572 2.5820
ENERGY: 5000 0.6093 3.4804 0.0000 0.0000 -12217.1520 1258.2431 0.0000 0.0000 2141.1012 -8813.7180 303.5074 -10954.8192 -8808.9174 298.9973 -46.0532 -46.0179 345602.4464 0.6624 0.7023
TCL: Running FEP window   4: Lambda1 0.8125 Lambda2 0.75   [dLambda -0.0625]
TCL: Setting parameter firsttimestep to 0
TCL: Setting parameter alchLambda to 0.8125
Info: NONBONDED TABLE R-SQUARED SPACING: 0.0625
Info: NONBONDED TABLE SIZE: 769 POINTS
TCL: Setting parameter alchLambda2 to 0.75
Info: NONBONDED TABLE R-SQUARED SPACING: 0.0625
Info: NONBONDED TABLE SIZE: 769 POINTS
TCL: Running for 5000 steps
ETITLE: TS BOND ANGLE DIHED IMPRP ELECT VDW BOUNDARY MISC KINETIC TOTAL TEMP POTENTIAL TOTAL3 TEMPAVG PRESSURE GPRESSURE VOLUME PRESSAVG GPRESSAVG
ENERGY: 0 0.6093 3.4804 0.0000 0.0000 -12216.7668 1258.5131 0.0000 0.0000 2141.0364 -8813.1275 303.4982 -10954.1639 -8809.3061 303.4982 -46.8572 -46.8572 345602.4464 -46.8572 -46.8572
ENERGY: 1000 1.1969 2.3840 0.0000 0.0000 -12172.0670 1262.3770 0.0000 0.0000 2075.0476 -8831.0614 294.1441 -10906.1090 -8827.3291 296.2941 -63.5719 -61.4107 336307.5525 2.3452 2.3103
ENERGY: 2000 0.7066 1.3005 0.0000 0.0000 -12089.8586 1199.5638 0.0000 0.0000 2070.5517 -8817.7361 293.5068 -10888.2878 -8813.3767 296.3197 -95.7241 -95.1091 306868.4730 2.7042 2.6733
ENERGY: 3000 0.7532 1.9147 0.0000 0.0000 -12236.5321 1296.8538 0.0000 0.0000 2088.9892 -8848.0212 296.1203 -10937.0104 -8842.0924 298.9319 -16.0217 -16.6306 282713.6118 -0.4049 -0.4169
ENERGY: 4000 0.5341 2.3121 0.0000 0.0000 -12377.7102 1393.9857 0.0000 0.0000 2092.1623 -8888.7161 296.5701 -10980.8784 -8884.6542 294.5817 66.5937 66.2437 285624.2074 3.0579 3.0855
ENERGY: 5000 2.2233 2.0794 0.0000 0.0000 -12229.2555 1309.7085 0.0000 0.0000 2096.8041 -8818.4403 297.2281 -10915.2444 -8812.4715 297.8559 -24.4645 -24.0401 286901.9260 1.0503 0.9955
TCL: Running FEP window   5: Lambda1 0.75   Lambda2 0.6875 [dLambda -0.0625]
TCL: Setting parameter firsttimestep to 0
TCL: Setting parameter alchLambda to 0.75
Info: NONBONDED TABLE R-SQUARED SPACING: 0.0625
Info: NONBONDED TABLE SIZE: 769 POINTS
TCL: Setting parameter alchLambda2 to 0.6875
Info: NONBONDED TABLE R-SQUARED SPACING: 0.0625
Info: NONBONDED TABLE SIZE: 769 POINTS
TCL: Running for 5000 steps
ETITLE: TS BOND ANGLE DIHED IMPRP ELECT VDW BOUNDARY MISC KINETIC TOTAL TEMP POTENTIAL TOTAL3 TEMPAVG PRESSURE GPRESSURE VOLUME PRESSAVG GPRESSAVG
ENERGY: 0 2.2233 2.0794 0.0000 0.0000 -12229.0073 1309.7307 0.0000 0.0000 2096.7397 -8818.2343 297.2190 -10914.9740 -8814.6931 297.2190 -25.1749 -25.1749 286901.9260 -25.1749 -25.1749
ENERGY: 1000 1.4056 1.9331 0.0000 0.0000 -12182.9621 1244.3319 0.0000 0.0000 2133.9716 -8801.3200 302.4967 -10935.2916 -8798.3916 296.8620 -31.2563 -30.3151 279734.8594 1.1702 1.1023
ENERGY: 2000 1.0830 3.7719 0.0000 0.0000 -12271.9544 1306.5440 0.0000 0.0000 2089.6921 -8870.8634 296.2200 -10960.5555 -8865.4466 293.2493 11.0956 11.0908 277846.7876 1.8851 1.8785
ENERGY: 3000 1.2946 2.0533 0.0000 0.0000 -12349.2931 1417.5707 0.0000 0.0000 2107.1830 -8821.1914 298.6994 -10928.3744 -8819.1838 295.6048 122.6866 124.9630 279404.4658 -0.7953 -0.7662
ENERGY: 4000 0.5170 2.6198 0.0000 0.0000 -12183.2002 1233.3437 0.0000 0.0000 2080.2406 -8866.4792 294.8802 -10946.7197 -8864.5205 295.2965 -59.2617 -58.7558 275687.7680 1.3867 1.4255
ENERGY: 5000 0.3796 0.6338 0.0000 0.0000 -12244.9570 1293.7626 0.0000 0.0000 2060.6978 -8889.4832 292.1099 -10950.1809 -8885.6106 291.7627 3.4564 3.8067 274235.3901 -2.0296 -2.0567
TCL: Running FEP window   6: Lambda1 0.6875 Lambda2 0.625  [dLambda -0.0625]
TCL: Setting parameter firsttimestep to 0
TCL: Setting parameter alchLambda to 0.6875
Info: NONBONDED TABLE R-SQUARED SPACING: 0.0625
Info: NONBONDED TABLE SIZE: 769 POINTS
TCL: Setting parameter alchLambda2 to 0.625
Info: NONBONDED TABLE R-SQUARED SPACING: 0.0625
Info: NONBONDED TABLE SIZE: 769 POINTS
TCL: Running for 5000 steps
ETITLE: TS BOND ANGLE DIHED IMPRP ELECT VDW BOUNDARY MISC KINETIC TOTAL TEMP POTENTIAL TOTAL3 TEMPAVG PRESSURE GPRESSURE VOLUME PRESSAVG GPRESSAVG
ENERGY: 0 0.3796 0.6338 0.0000 0.0000 -12244.8154 1293.9237 0.0000 0.0000 2060.6348 -8889.2436 292.1010 -10949.8784 -8885.5881 292.1010 2.7922 2.7922 274235.3901 2.7922 2.7922
ENERGY: 1000 0.2966 1.4773 0.0000 0.0000 -12213.5494 1292.8916 0.0000 0.0000 2042.0868 -8876.7971 289.4718 -10918.8839 -8872.8637 293.4571 7.8674 7.1958 276884.4771 -1.3233 -1.3646
ENERGY: 2000 0.2119 1.6748 0.0000 0.0000 -12132.5210 1227.6542 0.0000 0.0000 2054.4160 -8848.5642 291.2195 -10902.9801 -8845.3767 294.8862 -86.0450 -87.1953 286224.5427 1.4427 1.4560
ENERGY: 3000 0.4371 0.8241 0.0000 0.0000 -12319.1789 1372.6838 0.0000 0.0000 2107.7652 -8837.4687 298.7819 -10945.2339 -8834.1041 295.4096 52.6939 52.6178 284094.5566 0.9141 0.8413
ENERGY: 4000 0.9224 0.5617 0.0000 0.0000 -12277.8854 1346.7623 0.0000 0.0000 2112.1876 -8817.4515 299.4088 -10929.6391 -8813.5084 294.9258 38.7830 39.6745 287352.6864 3.6030 3.5774
ENERGY: 5000 0.2202 2.0666 0.0000 0.0000 -12178.1804 1328.6567 0.0000 0.0000 2052.7518 -8794.4851 290.9836 -10847.2369 -8792.1495 294.8511 26.7033 26.8132 307861.6566 0.4704 0.5332
TCL: Running FEP window   7: Lambda1 0.625  Lambda2 0.5625 [dLambda -0.0625]
TCL: Setting parameter firsttimestep to 0
TCL: Setting parameter alchLambda to 0.625
Info: NONBONDED TABLE R-SQUARED SPACING: 0.0625
Info: NONBONDED TABLE SIZE: 769 POINTS
TCL: Setting parameter alchLambda2 to 0.5625
Info: NONBONDED TABLE R-SQUARED SPACING: 0.0625
Info: NONBONDED TABLE SIZE: 769 POINTS
TCL: Running for 5000 steps
ETITLE: TS BOND ANGLE DIHED IMPRP ELECT VDW BOUNDARY MISC KINETIC TOTAL TEMP POTENTIAL TOTAL3 TEMPAVG PRESSURE GPRESSURE VOLUME PRESSAVG GPRESSAVG
ENERGY: 0 0.2202 2.0666 0.0000 0.0000 -12178.0019 1329.2890 0.0000 0.0000 2052.6845 -8793.7415 290.9740 -10846.4260 -8790.1006 290.9740 26.2655 26.2655 307861.6566 26.2655 26.2655
ENERGY: 1000 0.6157 0.6650 0.0000 0.0000 -12197.7435 1322.2289 0.0000 0.0000 2121.3121 -8752.9218 300.7022 -10874.2339 -8747.7149 299.1796 19.6069 21.0815 304741.7608 1.7108 1.7443
ENERGY: 2000 0.2208 1.2730 0.0000 0.0000 -12174.3017 1259.7816 0.0000 0.0000 2055.9780 -8857.0482 291.4409 -10913.0262 -8852.2927 294.6198 -65.5278 -65.9822 317230.5901 3.0415 3.0348
ENERGY: 3000 0.3767 1.6995 0.0000 0.0000 -12260.9912 1310.9630 0.0000 0.0000 2118.7451 -8829.2069 300.3383 -10947.9520 -8825.7154 295.7670 6.2974 5.8036 296601.0062 1.5117 1.5314
ENERGY: 4000 0.1413 2.0013 0.0000 0.0000 -12274.8078 1364.8426 0.0000 0.0000 2087.3762 -8820.4465 295.8917 -10907.8226 -8815.9548 295.7322 36.7932 36.1269 304992.7298 1.4682 1.4216
ENERGY: 5000 0.1185 2.3778 0.0000 0.0000 -12255.0415 1296.2961 0.0000 0.0000 2134.2644 -8821.9847 302.5382 -10956.2491 -8817.4016 297.6450 3.7136 3.8937 283758.6475 0.7493 0.7194
TCL: Running FEP window   8: Lambda1 0.5625 Lambda2 0.5    [dLambda -0.0625]
TCL: Setting parameter firsttimestep to 0
TCL: Setting parameter alchLambda to 0.5625
Info: NONBONDED TABLE R-SQUARED SPACING: 0.0625
Info: NONBONDED TABLE SIZE: 769 POINTS
TCL: Setting parameter alchLambda2 to 0.5
Info: NONBONDED TABLE R-SQUARED SPACING: 0.0625
Info: NONBONDED TABLE SIZE: 769 POINTS
TCL: Running for 5000 steps
ETITLE: TS BOND ANGLE DIHED IMPRP ELECT VDW BOUNDARY MISC KINETIC TOTAL TEMP POTENTIAL TOTAL3 TEMPAVG PRESSURE GPRESSURE VOLUME PRESSAVG GPRESSAVG
ENERGY: 0 0.1185 2.3778 0.0000 0.0000 -12255.0223 1296.3929 0.0000 0.0000 2134.1991 -8821.9340 302.5290 -10956.1331 -8818.1637 302.5290 3.1752 3.1752 283758.6475 3.1752 3.1752
ENERGY: 1000 0.7992 1.9536 0.0000 0.0000 -12241.0370 1321.6749 0.0000 0.0000 2071.0995 -8845.5098 293.5844 -10916.6092 -8842.7824 293.7745 0.5273 0.8116 284496.7048 2.1963 2.1914
ENERGY: 2000 0.4811 1.9339 0.0000 0.0000 -12271.2911 1343.2759 0.0000 0.0000 2061.2998 -8864.3005 292.1953 -10925.6002 -8860.6449 293.9541 3.2570 3.3869 291189.2911 1.9437 1.9765
ENERGY: 3000 0.4453 2.4251 0.0000 0.0000 -12294.9213 1343.9044 0.0000 0.0000 2064.7830 -8883.3634 292.6890 -10948.1465 -8880.9797 293.4867 22.9521 22.5104 285787.4706 1.4368 1.4280
ENERGY: 4000 0.3777 1.8291 0.0000 0.0000 -12257.2870 1303.1581 0.0000 0.0000 2013.5019 -8938.4202 285.4198 -10951.9221 -8935.3096 291.9183 -29.7096 -29.4897 292057.6496 0.9499 0.9196
ENERGY: 5000 1.5582 0.4210 0.0000 0.0000 -12194.7560 1344.0809 0.0000 0.0000 2058.4500 -8790.2459 291.7913 -10848.6959 -8788.1925 293.9096 52.4114 53.0876 302550.5714 1.4524 1.3683
TCL: Running FEP window   9: Lambda1 0.5    Lambda2 0.4375 [dLambda -0.0625]
TCL: Setting parameter firsttimestep to 0
TCL: Setting parameter alchLambda to 0.5
Info: NONBONDED TABLE R-SQUARED SPACING: 0.0625
Info: NONBONDED TABLE SIZE: 769 POINTS
TCL: Setting parameter alchLambda2 to 0.4375
Info: NONBONDED TABLE R-SQUARED SPACING: 0.0625
Info: NONBONDED TABLE SIZE: 769 POINTS
TCL: Running for 5000 steps
ETITLE: TS BOND ANGLE DIHED IMPRP ELECT VDW BOUNDARY MISC KINETIC TOTAL TEMP POTENTIAL TOTAL3 TEMPAVG PRESSURE GPRESSURE VOLUME PRESSAVG GPRESSAVG
ENERGY: 0 1.5582 0.4210 0.0000 0.0000 -12194.6770 1344.4433 0.0000 0.0000 2058.3901 -8789.8645 291.7828 -10848.2546 -8786.5714 291.7828 52.4756 52.4756 302550.5714 52.4756 52.4756
ENERGY: 1000 1.0310 1.5683 0.0000 0.0000 -12239.8278 1322.2204 0.0000 0.0000 2097.3496 -8817.6585 297.3054 -10915.0080 -8814.1746 294.8086 23.4166 22.4323 307738.6111 -2.4961 -2.4839
ENERGY: 2000 0.0291 0.7583 0.0000 0.0000 -12165.8971 1295.5276 0.0000 0.0000 2059.6510 -8809.9312 291.9616 -10869.5822 -8806.4474 297.4521 -12.1251 -12.3980 306437.3764 0.9349 0.9478
ENERGY: 3000 0.0923 1.8491 0.0000 0.0000 -12206.0090 1309.9715 0.0000 0.0000 2049.3380 -8844.7581 290.4997 -10894.0961 -8840.6077 294.2822 19.1161 19.6115 312351.5720 3.4159 3.3868
ENERGY: 4000 0.9923 0.9868 0.0000 0.0000 -12248.4729 1372.7053 0.0000 0.0000 2074.0432 -8799.7452 294.0017 -10873.7885 -8796.5659 295.6640 83.1084 83.8429 328142.8117 1.2617 1.2862
ENERGY: 5000 0.3182 1.7136 0.0000 0.0000 -12163.6005 1301.6520 0.0000 0.0000 2117.8101 -8742.1066 300.2058 -10859.9167 -8737.8130 297.4442 12.7512 13.2038 333288.5274 3.7059 3.6728
TCL: Running FEP window  10: Lambda1 0.4375 Lambda2 0.375  [dLambda -0.0625]
TCL: Setting parameter firsttimestep to 0
TCL: Setting parameter alchLambda to 0.4375
Info: NONBONDED TABLE R-SQUARED SPACING: 0.0625
Info: NONBONDED TABLE SIZE: 769 POINTS
TCL: Setting parameter alchLambda2 to 0.375
Info: NONBONDED TABLE R-SQUARED SPACING: 0.0625
Info: NONBONDED TABLE SIZE: 769 POINTS
TCL: Running for 5000 steps
ETITLE: TS BOND ANGLE DIHED IMPRP ELECT VDW BOUNDARY MISC KINETIC TOTAL TEMP POTENTIAL TOTAL3 TEMPAVG PRESSURE GPRESSURE VOLUME PRESSAVG GPRESSAVG
ENERGY: 0 0.3182 1.7136 0.0000 0.0000 -12163.6005 1302.2954 0.0000 0.0000 2117.7491 -8741.5241 300.1971 -10859.2733 -8737.6291 300.1971 13.0812 13.0812 333288.5274 13.0812 13.0812
ENERGY: 1000 1.8879 1.1927 0.0000 0.0000 -12132.5190 1288.8781 0.0000 0.0000 2100.5607 -8739.9996 297.7606 -10840.5603 -8734.4393 297.9104 24.9314 25.3863 329819.6338 2.2662 2.2335
ENERGY: 2000 0.8553 2.3784 0.0000 0.0000 -12191.4044 1260.2870 0.0000 0.0000 2119.3933 -8808.4905 300.4302 -10927.8838 -8804.0314 298.5266 -48.5605 -48.0966 327233.2142 2.4773 2.4684
ENERGY: 3000 1.7514 0.5649 0.0000 0.0000 -12251.0015 1334.9543 0.0000 0.0000 2095.5966 -8818.1343 297.0570 -10913.7309 -8813.4884 294.9760 15.7414 15.4924 308103.4757 -0.6016 -0.6034
ENERGY: 4000 3.8359 0.5329 0.0000 0.0000 -12202.8923 1269.1815 0.0000 0.0000 2076.9242 -8852.4177 294.4101 -10929.3420 -8850.5958 293.5819 -46.4969 -46.3162 298575.1376 2.7758 2.7613
ENERGY: 5000 0.7802 1.8382 0.0000 0.0000 -12235.1511 1308.1554 0.0000 0.0000 2052.1977 -8872.1795 290.9050 -10924.3773 -8867.3682 294.2496 9.5190 10.7517 300830.3140 1.6758 1.6213
TCL: Running FEP window  11: Lambda1 0.375  Lambda2 0.3125 [dLambda -0.0625]
TCL: Setting parameter firsttimestep to 0
TCL: Setting parameter alchLambda to 0.375
Info: NONBONDED TABLE R-SQUARED SPACING: 0.0625
Info: NONBONDED TABLE SIZE: 769 POINTS
TCL: Setting parameter alchLambda2 to 0.3125
Info: NONBONDED TABLE R-SQUARED SPACING: 0.0625
Info: NONBONDED TABLE SIZE: 769 POINTS
TCL: Running for 5000 steps
ETITLE: TS BOND ANGLE DIHED IMPRP ELECT VDW BOUNDARY MISC KINETIC TOTAL TEMP POTENTIAL TOTAL3 TEMPAVG PRESSURE GPRESSURE VOLUME PRESSAVG GPRESSAVG
ENERGY: 0 0.7802 1.8382 0.0000 0.0000 -12235.1511 1306.8657 0.0000 0.0000 2052.1341 -8873.5329 290.8960 -10925.6670 -8869.8991 290.8960 9.2883 9.2883 300830.3140 9.2883 9.2883
ENERGY: 1000 2.0657 1.1753 0.0000 0.0000 -12224.7383 1339.1729 0.0000 0.0000 2013.9221 -8868.4023 285.4794 -10882.3244 -8863.9133 294.5372 37.2367 36.4251 310090.4509 1.1525 1.1723
ENERGY: 2000 1.6772 2.3770 0.0000 0.0000 -12232.3424 1315.6353 0.0000 0.0000 2043.6432 -8869.0097 289.6924 -10912.6529 -8864.2672 293.4731 -13.6929 -13.6623 314068.7369 2.8376 2.8719
ENERGY: 3000 1.1653 0.9335 0.0000 0.0000 -12313.5093 1339.2413 0.0000 0.0000 2082.3930 -8889.7762 295.1853 -10972.1692 -8886.4076 293.0768 26.9497 27.4866 307519.3802 1.8673 1.8489
ENERGY: 4000 0.6761 0.3941 0.0000 0.0000 -12180.7498 1244.8265 0.0000 0.0000 2116.3729 -8818.4802 300.0021 -10934.8531 -8814.3193 296.7242 -65.4782 -65.1551 322791.3287 0.0540 0.0787
ENERGY: 5000 1.1564 2.8560 0.0000 0.0000 -12178.8544 1271.7225 0.0000 0.0000 2080.4035 -8822.7159 294.9033 -10903.1195 -8819.8322 295.2536 -0.9994 -1.8171 312176.5243 -0.4879 -0.4958
TCL: Running FEP window  12: Lambda1 0.3125 Lambda2 0.25   [dLambda -0.0625]
TCL: Setting parameter firsttimestep to 0
TCL: Setting parameter alchLambda to 0.3125
Info: NONBONDED TABLE R-SQUARED SPACING: 0.0625
Info: NONBONDED TABLE SIZE: 769 POINTS
TCL: Setting parameter alchLambda2 to 0.25
Info: NONBONDED TABLE R-SQUARED SPACING: 0.0625
Info: NONBONDED TABLE SIZE: 769 POINTS
TCL: Running for 5000 steps
ETITLE: TS BOND ANGLE DIHED IMPRP ELECT VDW BOUNDARY MISC KINETIC TOTAL TEMP POTENTIAL TOTAL3 TEMPAVG PRESSURE GPRESSURE VOLUME PRESSAVG GPRESSAVG
ENERGY: 0 1.1564 2.8560 0.0000 0.0000 -12178.8544 1271.8767 0.0000 0.0000 2080.3388 -8822.6266 294.8941 -10902.9653 -8819.1580 294.8941 -2.3499 -2.3499 312176.5243 -2.3499 -2.3499
ENERGY: 1000 0.2894 1.5720 0.0000 0.0000 -12161.9697 1300.9131 0.0000 0.0000 2131.3087 -8727.8864 302.1193 -10859.1952 -8723.3921 301.0557 10.4444 10.4868 320121.4862 -3.0603 -3.0760
ENERGY: 2000 3.5524 0.7716 0.0000 0.0000 -12311.2698 1362.6350 0.0000 0.0000 2107.4797 -8836.8311 298.7414 -10944.3108 -8833.2746 297.2406 64.4974 63.0317 305911.1290 2.0178 1.9443
ENERGY: 3000 0.1331 0.8324 0.0000 0.0000 -12347.3870 1354.2989 0.0000 0.0000 2132.9014 -8859.2213 302.3450 -10992.1226 -8854.9787 294.9358 40.2794 39.7839 298532.6985 0.3236 0.3435
ENERGY: 4000 1.4269 0.6727 0.0000 0.0000 -12129.3854 1244.5861 0.0000 0.0000 2062.0650 -8820.6346 292.3038 -10882.6996 -8816.1743 292.3072 -56.2705 -54.9785 300499.4515 1.5543 1.5186
ENERGY: 5000 1.6403 3.4402 0.0000 0.0000 -12179.2369 1288.6692 0.0000 0.0000 2127.5060 -8757.9811 301.5802 -10885.4872 -8753.7372 299.6585 -0.0341 -1.4925 296785.3604 0.4379 0.4647
TCL: Running FEP window  13: Lambda1 0.25   Lambda2 0.1875 [dLambda -0.0625]
TCL: Setting parameter firsttimestep to 0
TCL: Setting parameter alchLambda to 0.25
Info: NONBONDED TABLE R-SQUARED SPACING: 0.0625
Info: NONBONDED TABLE SIZE: 769 POINTS
TCL: Setting parameter alchLambda2 to 0.1875
Info: NONBONDED TABLE R-SQUARED SPACING: 0.0625
Info: NONBONDED TABLE SIZE: 769 POINTS
TCL: Running for 5000 steps
ETITLE: TS BOND ANGLE DIHED IMPRP ELECT VDW BOUNDARY MISC KINETIC TOTAL TEMP POTENTIAL TOTAL3 TEMPAVG PRESSURE GPRESSURE VOLUME PRESSAVG GPRESSAVG
ENERGY: 0 1.6403 3.4402 0.0000 0.0000 -12179.2369 1289.1769 0.0000 0.0000 2127.4437 -8757.5359 301.5714 -10884.9796 -8753.6615 301.5714 -1.5584 -1.5584 296785.3604 -1.5584 -1.5584
ENERGY: 1000 1.0415 4.6261 0.0000 0.0000 -12231.9158 1269.4782 0.0000 0.0000 2075.5339 -8881.2360 294.2130 -10956.7699 -8877.3256 292.7097 -32.3693 -32.6447 280676.1932 1.8193 1.8242
ENERGY: 2000 0.5067 2.2483 0.0000 0.0000 -12263.9710 1312.3800 0.0000 0.0000 2143.3024 -8805.5337 303.8194 -10948.8360 -8800.9619 298.5013 -7.7193 -6.8884 283129.8697 4.4287 4.5058
ENERGY: 3000 0.6393 1.8341 0.0000 0.0000 -12178.9051 1315.2064 0.0000 0.0000 2117.4254 -8743.8000 300.1513 -10861.2254 -8740.0707 297.5654 21.5671 21.1350 293747.6351 2.7421 2.8127
ENERGY: 4000 0.7769 0.6593 0.0000 0.0000 -12251.0905 1335.0639 0.0000 0.0000 2082.2366 -8832.3538 295.1631 -10914.5904 -8827.7753 297.3976 17.1709 19.5040 298458.4528 0.1720 0.1934
ENERGY: 5000 0.1816 1.7835 0.0000 0.0000 -12230.6527 1343.5189 0.0000 0.0000 2107.3076 -8777.8611 298.7170 -10885.1687 -8774.1201 298.6319 27.6855 28.9708 300609.4264 -0.7433 -0.7135
TCL: Running FEP window  14: Lambda1 0.1875 Lambda2 0.125  [dLambda -0.0625]
TCL: Setting parameter firsttimestep to 0
TCL: Setting parameter alchLambda to 0.1875
Info: NONBONDED TABLE R-SQUARED SPACING: 0.0625
Info: NONBONDED TABLE SIZE: 769 POINTS
TCL: Setting parameter alchLambda2 to 0.125
Info: NONBONDED TABLE R-SQUARED SPACING: 0.0625
Info: NONBONDED TABLE SIZE: 769 POINTS
TCL: Running for 5000 steps
ETITLE: TS BOND ANGLE DIHED IMPRP ELECT VDW BOUNDARY MISC KINETIC TOTAL TEMP POTENTIAL TOTAL3 TEMPAVG PRESSURE GPRESSURE VOLUME PRESSAVG GPRESSAVG
ENERGY: 0 0.1816 1.7835 0.0000 0.0000 -12230.6527 1343.7708 0.0000 0.0000 2107.2446 -8777.6722 298.7081 -10884.9168 -8773.8625 298.7081 28.9125 28.9125 300609.4264 28.9125 28.9125
ENERGY: 1000 0.8991 1.8037 0.0000 0.0000 -12222.3310 1280.6111 0.0000 0.0000 2135.9596 -8803.0575 302.7785 -10939.0170 -8799.1078 297.7519 -23.7669 -23.8795 313651.0225 0.9754 0.9733
ENERGY: 2000 0.9031 1.0993 0.0000 0.0000 -12118.7428 1221.0330 0.0000 0.0000 2126.9023 -8768.8051 301.4946 -10895.7074 -8764.9652 298.5454 -76.2548 -77.7609 313266.7385 2.9967 3.0056
ENERGY: 3000 0.7237 2.1713 0.0000 0.0000 -12186.8260 1296.5962 0.0000 0.0000 2107.4896 -8779.8451 298.7428 -10887.3347 -8775.7459 296.4574 11.9806 11.1738 312489.6525 0.8889 0.9182
ENERGY: 4000 0.9250 1.5527 0.0000 0.0000 -12224.5099 1361.5709 0.0000 0.0000 2075.4085 -8785.0528 294.1952 -10860.4613 -8782.3792 296.8364 52.3088 52.2056 321485.7417 0.5822 0.6088
ENERGY: 5000 0.7786 1.1321 0.0000 0.0000 -12260.7207 1365.5448 0.0000 0.0000 2076.4342 -8816.8310 294.3406 -10893.2652 -8813.4379 299.0790 54.7974 53.3251 329239.0482 -1.7884 -1.7838
TCL: Running FEP window  15: Lambda1 0.125  Lambda2 0.0625 [dLambda -0.0625]
TCL: Setting parameter firsttimestep to 0
TCL: Setting parameter alchLambda to 0.125
Info: NONBONDED TABLE R-SQUARED SPACING: 0.0625
Info: NONBONDED TABLE SIZE: 769 POINTS
TCL: Setting parameter alchLambda2 to 0.0625
Info: NONBONDED TABLE R-SQUARED SPACING: 0.0625
Info: NONBONDED TABLE SIZE: 769 POINTS
TCL: Running for 5000 steps
ETITLE: TS BOND ANGLE DIHED IMPRP ELECT VDW BOUNDARY MISC KINETIC TOTAL TEMP POTENTIAL TOTAL3 TEMPAVG PRESSURE GPRESSURE VOLUME PRESSAVG GPRESSAVG
ENERGY: 0 0.7786 1.1321 0.0000 0.0000 -12260.7207 1365.4434 0.0000 0.0000 2076.3677 -8816.9989 294.3312 -10893.3666 -8813.1060 294.3312 53.1477 53.1477 329239.0482 53.1477 53.1477
ENERGY: 1000 0.4927 0.9781 0.0000 0.0000 -12179.1889 1303.4782 0.0000 0.0000 2098.3650 -8775.8750 297.4494 -10874.2400 -8771.5535 298.4413 10.9098 9.6178 341696.9010 -0.6085 -0.5717
ENERGY: 2000 0.6973 0.2646 0.0000 0.0000 -12123.0778 1327.3601 0.0000 0.0000 2069.6039 -8725.1519 293.3724 -10794.7558 -8721.9095 299.0854 52.0529 51.4857 337865.3061 -1.0610 -1.0917
ENERGY: 3000 0.5608 1.8937 0.0000 0.0000 -12209.0980 1344.1942 0.0000 0.0000 2073.4086 -8789.0406 293.9117 -10862.4493 -8786.4184 298.4960 65.3627 64.7548 325632.1227 2.6772 2.7057
ENERGY: 4000 0.9886 2.3587 0.0000 0.0000 -12136.5503 1287.1984 0.0000 0.0000 2130.5653 -8715.4394 302.0139 -10846.0047 -8711.7590 298.6456 20.1477 20.2294 333097.2366 0.0018 -0.0052
ENERGY: 5000 1.1429 1.7446 0.0000 0.0000 -12309.8610 1361.9644 0.0000 0.0000 2153.1806 -8791.8285 305.2196 -10945.0091 -8787.2718 299.2044 59.9343 59.9815 329407.5405 0.5721 0.5386
TCL: Running FEP window  16: Lambda1 0.0625 Lambda2 0.0    [dLambda -0.0625]
TCL: Setting parameter firsttimestep to 0
TCL: Setting parameter alchLambda to 0.0625
Info: NONBONDED TABLE R-SQUARED SPACING: 0.0625
Info: NONBONDED TABLE SIZE: 769 POINTS
TCL: Setting parameter alchLambda2 to 0.0
Info: NONBONDED TABLE R-SQUARED SPACING: 0.0625
Info: NONBONDED TABLE SIZE: 769 POINTS
TCL: Running for 5000 steps
ETITLE: TS BOND ANGLE DIHED IMPRP ELECT VDW BOUNDARY MISC KINETIC TOTAL TEMP POTENTIAL TOTAL3 TEMPAVG PRESSURE GPRESSURE VOLUME PRESSAVG GPRESSAVG
ENERGY: 0 1.1429 1.7446 0.0000 0.0000 -12309.8610 1361.5208 0.0000 0.0000 2153.1182 -8792.3345 305.2108 -10945.4527 -8788.1595 305.2108 59.6684 59.6684 329407.5405 59.6684 59.6684
ENERGY: 1000 0.6716 1.4544 0.0000 0.0000 -12172.4271 1261.1633 0.0000 0.0000 2068.3819 -8840.7559 293.1992 -10909.1378 -8836.2544 295.6487 -58.4346 -58.1602 335311.2846 -0.5118 -0.4858
ENERGY: 2000 0.0226 1.6996 0.0000 0.0000 -12075.0921 1249.8288 0.0000 0.0000 2057.9628 -8765.5783 291.7222 -10823.5410 -8761.5403 296.6749 -32.3340 -32.5151 323956.2026 1.5993 1.6357
ENERGY: 3000 0.2044 0.8747 0.0000 0.0000 -12196.5578 1276.1400 0.0000 0.0000 2166.8043 -8752.5345 307.1508 -10919.3388 -8746.9987 300.0179 11.0552 10.1867 324531.9028 0.1264 0.1095
ENERGY: 4000 1.0369 1.9964 0.0000 0.0000 -12167.0951 1293.5919 0.0000 0.0000 2077.3374 -8793.1325 294.4687 -10870.4699 -8789.0056 298.5740 2.6993 2.1475 331327.0802 1.2598 1.2559
ENERGY: 5000 0.4750 1.2509 0.0000 0.0000 -12104.5498 1309.0900 0.0000 0.0000 2130.1391 -8663.5947 301.9535 -10793.7339 -8660.3056 301.6750 28.8242 28.5914 326688.5423 2.3032 2.2788
