Info: SIMULATION PARAMETERS:
Info: TIMESTEP               2
Info: NUMBER OF STEPS        0
Info: STEPS PER CYCLE        10
Info: PERIODIC CELL BASIS 1  73.0158 0 0
Info: PERIODIC CELL BASIS 2  0 73.0158 0
Info: PERIODIC CELL BASIS 3  0 0 73.0158
Info: PERIODIC CELL CENTER   33.233 33.233 33.233
Info: WRAPPING ALL CLUSTERS AROUND PERIODIC BOUNDARIES ON OUTPUT.
Info: FIRST LDB TIMESTEP     50
Info: LAST LDB TIMESTEP     -1
Info: HOM BACKGROUND SCALING 1
Info: PME BACKGROUND SCALING 1
Info: MIN ATOMS PER PATCH    40
Info: EMPTY PATCH LOAD       40 ATOMS
Info: VELOCITY FILE          mobley_7578802_equilibrated.vel
Info: CENTER OF MASS MOVING INITIALLY? NO
Info: DIELECTRIC             1
Info: EXCLUDE                SCALED ONE-FOUR
Info: 1-4 ELECTROSTATICS SCALED BY 1
Info: MODIFIED 1-4 VDW PARAMETERS WILL BE USED
Info: DCD FILENAME           mobley_7578802_forwards.dcd
Info: DCD FREQUENCY          500
Info: DCD FIRST STEP         500
Info: DCD FILE WILL CONTAIN UNIT CELL DATA
Info: NO EXTENDED SYSTEM TRAJECTORY OUTPUT
Info: NO VELOCITY DCD OUTPUT
Info: NO FORCE DCD OUTPUT
Info: OUTPUT FILENAME        mobley_7578802_forwards
Info: BINARY OUTPUT FILES WILL BE USED
Info: NO RESTART FILE
Info: SWITCHING ACTIVE
Info: SWITCHING ON           10
Info: SWITCHING OFF          12
Info: PAIRLIST DISTANCE      14
Info: PAIRLIST SHRINK RATE   0.01
Info: PAIRLIST GROW RATE     0.01
Info: PAIRLIST TRIGGER       0.3
Info: PAIRLISTS PER CYCLE    2
Info: PAIRLISTS ENABLED
Info: MARGIN                 8
Info: HYDROGEN GROUP CUTOFF  2.5
Info: PATCH DIMENSION        24.5
Info: ENERGY OUTPUT STEPS    500
Info: ENERGY EVALUATION STEPS    500
Info: OUTPUT ENERGY PRECISION 4
Info: CROSSTERM ENERGY INCLUDED IN DIHEDRAL
Info: TIMING OUTPUT STEPS    500
Info: PRESSURE OUTPUT STEPS  500
Info: ALCHEMICAL FEP ON
Info: FEP CURRENT LAMBDA VALUE     0
Info: FEP COMPARISON LAMBDA VALUE  0.0625
Info: FEP INTRA-ALCHEMICAL NON-BONDED INTERACTIONS WILL BE DECOUPLED
Info: FEP INTRA-ALCHEMICAL BONDED INTERACTIONS WILL BE RETAINED
Info: FEP VDW SHIFTING COEFFICIENT 6
Info: FEP ELEC. ACTIVE FOR ANNIHILATED PARTICLES BETWEEN LAMBDA = 0 AND LAMBDA = 0.5
Info: FEP ELEC. ACTIVE FOR EXNIHILATED PARTICLES BETWEEN LAMBDA = 0.5 AND LAMBDA = 1
Info: FEP VDW ACTIVE FOR ANNIHILATED PARTICLES BETWEEN LAMBDA = 0 AND LAMBDA = 1
Info: FEP VDW ACTIVE FOR EXNIHILATED PARTICLES BETWEEN LAMBDA = 0 AND LAMBDA = 1
Info: FEP BOND ACTIVE FOR ANNIHILATED PARTICLES BETWEEN LAMBDA = 1 AND LAMBDA = 1
Info: FEP BOND ACTIVE FOR EXNIHILATED PARTICLES BETWEEN LAMBDA = 0 AND LAMBDA = 0
Info: LANGEVIN DYNAMICS ACTIVE
Info: LANGEVIN TEMPERATURE   298
Info: LANGEVIN USING BBK INTEGRATOR
Info: LANGEVIN DAMPING COEFFICIENT IS 1 INVERSE PS
Info: LANGEVIN DYNAMICS NOT APPLIED TO HYDROGENS
Info: LANGEVIN PISTON PRESSURE CONTROL ACTIVE
Info:        TARGET PRESSURE IS 1.01325 BAR
Info:     OSCILLATION PERIOD IS 100 FS
Info:             DECAY TIME IS 50 FS
Info:     PISTON TEMPERATURE IS 298 K
Info:       PRESSURE CONTROL IS GROUP-BASED
Info:    INITIAL STRAIN RATE IS 7.65288e-05 7.65288e-05 7.65288e-05
Info:       CELL FLUCTUATION IS ISOTROPIC
Info: PARTICLE MESH EWALD (PME) ACTIVE
Info: PME TOLERANCE               1e-05
Info: PME EWALD COEFFICIENT       0.226635
Info: PME INTERPOLATION ORDER     4
Info: PME GRID DIMENSIONS         80 80 80
Info: PME MAXIMUM GRID SPACING    1
Info: FULL ELECTROSTATIC EVALUATION FREQUENCY      1
Info: USING VERLET I (r-RESPA) MTS SCHEME.
Info: C1 SPLITTING OF LONG RANGE ELECTROSTATICS
Info: PLACING ATOMS IN PATCHES BY HYDROGEN GROUPS
Info: RIGID BONDS TO HYDROGEN : ALL
Info:         ERROR TOLERANCE : 1e-08
Info:          MAX ITERATIONS : 100
Info: RIGID WATER USING SETTLE ALGORITHM
Info: RANDOM NUMBER SEED     1740649640
Info: USE HYDROGEN BONDS?    NO
Info: COORDINATE PDB         mobley_7578802.pdb
Info: STRUCTURE FILE         mobley_7578802.psf
Info: PARAMETER file: CHARMM format!
Info: PARAMETERS             ../common/par_all27_prot_lipid.inp
Info: PARAMETERS             mobley_7578802.prm
Info: USING ARITHMETIC MEAN TO COMBINE L-J SIGMA PARAMETERS
Info: BINARY COORDINATES     mobley_7578802_equilibrated.coor
Info: SUMMARY OF PARAMETERS:
Info: 182 BONDS
Info: 449 ANGLES
Info: 566 DIHEDRAL
Info: 46 IMPROPER
Info: 6 CROSSTERM
Info: 122 VDW
Info: 0 VDW_PAIRS
Info: 0 NBTHOLE_PAIRS
Info: To read alchdata from file: mobley_7578802.pdb
Info: To read alchflag data from column: 5
Info: STRUCTURE SUMMARY:
Info: 3548 ATOMS
Info: 2366 BONDS
Info: 1187 ANGLES
Info: 0 DIHEDRALS
Info: 0 IMPROPERS
Info: 0 CROSSTERMS
Info: 0 EXCLUSIONS
Info: 3544 RIGID BONDS
Info: ALCH: 0 ATOMS TO DISAPPEAR IN FINAL STATE
Info: ALCH: 5 ATOMS TO APPEAR IN FINAL STATE
Info: 7100 DEGREES OF FREEDOM
Info: 1185 HYDROGEN GROUPS
Info: 3 ATOMS IN LARGEST HYDROGEN GROUP
Info: 1185 MIGRATION GROUPS
Info: 3 ATOMS IN LARGEST MIGRATION GROUP
Info: TOTAL MASS = 21528.9 amu
Info: TOTAL CHARGE = -7.45058e-09 e
Info: MASS DENSITY = 0.0918398 g/cm^3
Info: ATOM DENSITY = 0.00911451 atoms/A^3
Info: ADDED 3553 IMPLICIT EXCLUSIONS
Info: NONBONDED TABLE R-SQUARED SPACING: 0.0625
Info: NONBONDED TABLE SIZE: 769 POINTS
Info: REMOVING COM VELOCITY -0.0849029 -0.250047 -0.0574993
TCL: Running for 5000 steps
ETITLE: TS BOND ANGLE DIHED IMPRP ELECT VDW BOUNDARY MISC KINETIC TOTAL TEMP POTENTIAL TOTAL3 TEMPAVG PRESSURE GPRESSURE VOLUME PRESSAVG GPRESSAVG
ENERGY: 0 1.3415 2.2217 0.0000 0.0000 -12191.2372 1380.1692 0.0000 0.0000 2132.0464 -8675.4583 302.2238 -10807.5047 -8671.4688 302.2238 66.6572 66.6572 389269.4265 66.6572 66.6572
ENERGY: 1000 0.2994 0.7046 0.0000 0.0000 -12084.7207 1236.2415 0.0000 0.0000 2077.5802 -8769.8950 294.5031 -10847.4752 -8768.1462 297.9466 -21.8481 -21.3354 376707.2763 -0.1660 -0.1455
ENERGY: 2000 2.3870 1.2105 0.0000 0.0000 -12125.6750 1274.1116 0.0000 0.0000 2161.4245 -8686.5415 306.3882 -10847.9660 -8682.1745 301.5898 -27.7413 -27.2784 368108.6658 2.0705 2.0601
ENERGY: 3000 1.0546 0.8162 0.0000 0.0000 -12070.3784 1290.4358 0.0000 0.0000 2051.6921 -8726.3797 290.8334 -10778.0719 -8722.2591 301.4673 30.8815 30.5392 351849.0942 0.2527 0.2576
ENERGY: 4000 0.6126 2.7998 0.0000 0.0000 -12178.1952 1322.3605 0.0000 0.0000 2125.0375 -8727.3848 301.2303 -10852.4223 -8724.7784 300.6755 1.8819 1.3539 355239.9446 3.3930 3.3713
ENERGY: 5000 0.5473 1.5601 0.0000 0.0000 -12121.5503 1255.7267 0.0000 0.0000 2129.7126 -8734.0035 301.8930 -10863.7161 -8729.3166 300.5567 -31.4975 -30.2246 350508.3696 2.6806 2.7035
TCL: Running FEP window   2: Lambda1 0.0625 Lambda2 0.125  [dLambda 0.0625]
TCL: Setting parameter firsttimestep to 0
TCL: Setting parameter alchLambda to 0.0625
Info: NONBONDED TABLE R-SQUARED SPACING: 0.0625
Info: NONBONDED TABLE SIZE: 769 POINTS
TCL: Setting parameter alchLambda2 to 0.125
Info: NONBONDED TABLE R-SQUARED SPACING: 0.0625
Info: NONBONDED TABLE SIZE: 769 POINTS
TCL: Running for 5000 steps
ETITLE: TS BOND ANGLE DIHED IMPRP ELECT VDW BOUNDARY MISC KINETIC TOTAL TEMP POTENTIAL TOTAL3 TEMPAVG PRESSURE GPRESSURE VOLUME PRESSAVG GPRESSAVG
ENERGY: 0 0.5473 1.5601 0.0000 0.0000 -12121.5503 1256.6177 0.0000 0.0000 2129.6492 -8733.1760 301.8840 -10862.8252 -8729.5259 301.8840 -29.8340 -29.8340 350508.3696 -29.8340 -29.8340
ENERGY: 1000 0.4950 1.4902 0.0000 0.0000 -12100.2578 1229.3824 0.0000 0.0000 2077.6723 -8791.2179 294.5161 -10868.8902 -8787.0941 295.2398 -38.4881 -38.3049 329708.0679 0.5975 0.5651
ENERGY: 2000 1.3184 1.6739 0.0000 0.0000 -12109.7225 1305.9817 0.0000 0.0000 2090.3479 -8710.4006 296.3129 -10800.7485 -8704.6327 299.5212 29.5104 27.8441 331283.6896 -0.8534 -0.8615
ENERGY: 3000 0.4424 0.6234 0.0000 0.0000 -12030.9012 1272.6977 0.0000 0.0000 1998.7401 -8758.3976 283.3273 -10757.1377 -8756.0707 296.7549 11.3037 10.3419 313291.6587 1.1492 1.1485
ENERGY: 4000 0.5696 1.1164 0.0000 0.0000 -12225.3092 1309.4018 0.0000 0.0000 2168.7665 -8745.4548 307.4290 -10914.2213 -8741.3923 301.3015 20.0289 20.0774 309967.0441 -1.3177 -1.3155
ENERGY: 5000 1.1574 1.4661 0.0000 0.0000 -12220.4858 1347.2291 0.0000 0.0000 2094.4117 -8776.2215 296.8890 -10870.6332 -8773.1700 298.3428 19.2523 18.8341 313903.8489 4.4012 4.3879
TCL: Running FEP window   3: Lambda1 0.125  Lambda2 0.1875 [dLambda 0.0625]
TCL: Setting parameter firsttimestep to 0
TCL: Setting parameter alchLambda to 0.125
Info: NONBONDED TABLE R-SQUARED SPACING: 0.0625
Info: NONBONDED TABLE SIZE: 769 POINTS
TCL: Setting parameter alchLambda2 to 0.1875
Info: NONBONDED TABLE R-SQUARED SPACING: 0.0625
Info: NONBONDED TABLE SIZE: 769 POINTS
TCL: Running for 5000 steps
ETITLE: TS BOND ANGLE DIHED IMPRP ELECT VDW BOUNDARY MISC KINETIC TOTAL TEMP POTENTIAL TOTAL3 TEMPAVG PRESSURE GPRESSURE VOLUME PRESSAVG GPRESSAVG
ENERGY: 0 1.1574 1.4661 0.0000 0.0000 -12220.4858 1348.7964 0.0000 0.0000 2094.3460 -8774.7200 296.8797 -10869.0659 -8771.0791 296.8797 19.5330 19.5330 313903.8489 19.5330 19.5330
ENERGY: 1000 1.0788 2.4551 0.0000 0.0000 -12239.8782 1297.5101 0.0000 0.0000 2081.9433 -8856.8908 295.1216 -10938.8342 -8852.4762 297.5562 -20.4645 -21.0214 301198.3083 0.3252 0.2818
ENERGY: 2000 0.8431 0.6913 0.0000 0.0000 -12252.9158 1351.8976 0.0000 0.0000 2064.3150 -8835.1687 292.6227 -10899.4837 -8831.4625 295.4679 21.1380 20.2667 309097.4309 0.9296 0.9119
ENERGY: 3000 0.8984 0.7410 0.0000 0.0000 -12256.5684 1380.2366 0.0000 0.0000 2090.2036 -8784.4887 296.2925 -10874.6923 -8780.8469 296.1408 31.9182 32.2623 312167.1420 0.1995 0.1755
ENERGY: 4000 0.5615 0.9502 0.0000 0.0000 -12157.5957 1303.0123 0.0000 0.0000 2156.4877 -8696.5839 305.6884 -10853.0717 -8692.3699 300.2774 9.9795 8.6559 297411.9867 -0.7187 -0.7231
ENERGY: 5000 1.4606 1.7736 0.0000 0.0000 -12091.0077 1244.9554 0.0000 0.0000 2120.1522 -8722.6659 300.5378 -10842.8181 -8717.0478 303.0063 -20.3768 -19.9424 288965.6745 0.6613 0.5787
TCL: Running FEP window   4: Lambda1 0.1875 Lambda2 0.25   [dLambda 0.0625]
TCL: Setting parameter firsttimestep to 0
TCL: Setting parameter alchLambda to 0.1875
Info: NONBONDED TABLE R-SQUARED SPACING: 0.0625
Info: NONBONDED TABLE SIZE: 769 POINTS
TCL: Setting parameter alchLambda2 to 0.25
Info: NONBONDED TABLE R-SQUARED SPACING: 0.0625
Info: NONBONDED TABLE SIZE: 769 POINTS
TCL: Running for 5000 steps
ETITLE: TS BOND ANGLE DIHED IMPRP ELECT VDW BOUNDARY MISC KINETIC TOTAL TEMP POTENTIAL TOTAL3 TEMPAVG PRESSURE GPRESSURE VOLUME PRESSAVG GPRESSAVG
ENERGY: 0 1.4606 1.7736 0.0000 0.0000 -12091.0077 1246.3876 0.0000 0.0000 2120.0858 -8721.3002 300.5284 -10841.3860 -8717.3574 300.5284 -18.7095 -18.7095 288965.6745 -18.7095 -18.7095
ENERGY: 1000 0.1112 1.7040 0.0000 0.0000 -12231.2461 1298.3952 0.0000 0.0000 2116.7598 -8814.2758 300.0569 -10931.0356 -8810.1442 294.7649 -7.6810 -6.5106 282196.9231 -0.2076 -0.1852
ENERGY: 2000 0.9845 2.1832 0.0000 0.0000 -12223.2013 1307.7132 0.0000 0.0000 2119.9765 -8792.3439 300.5129 -10912.3204 -8789.2261 297.0949 30.9092 31.3369 285006.6625 -0.6969 -0.6978
ENERGY: 3000 1.0534 2.4842 0.0000 0.0000 -12146.9432 1252.5901 0.0000 0.0000 2107.9908 -8782.8246 298.8139 -10890.8154 -8779.0370 295.7884 -73.7470 -72.8685 312406.1419 2.2703 2.2445
ENERGY: 4000 1.8437 3.2073 0.0000 0.0000 -12269.6488 1284.1456 0.0000 0.0000 2144.0920 -8836.3601 303.9313 -10980.4522 -8832.7543 297.4947 -35.7377 -36.0545 309529.4671 -2.4506 -2.4312
ENERGY: 5000 0.5002 0.2861 0.0000 0.0000 -12258.4433 1373.6011 0.0000 0.0000 2075.3237 -8808.7322 294.1832 -10884.0559 -8804.2835 296.5510 68.6862 68.0297 300890.8711 0.6617 0.6185
TCL: Running FEP window   5: Lambda1 0.25   Lambda2 0.3125 [dLambda 0.0625]
TCL: Setting parameter firsttimestep to 0
TCL: Setting parameter alchLambda to 0.25
Info: NONBONDED TABLE R-SQUARED SPACING: 0.0625
Info: NONBONDED TABLE SIZE: 769 POINTS
TCL: Setting parameter alchLambda2 to 0.3125
Info: NONBONDED TABLE R-SQUARED SPACING: 0.0625
Info: NONBONDED TABLE SIZE: 769 POINTS
TCL: Running for 5000 steps
ETITLE: TS BOND ANGLE DIHED IMPRP ELECT VDW BOUNDARY MISC KINETIC TOTAL TEMP POTENTIAL TOTAL3 TEMPAVG PRESSURE GPRESSURE VOLUME PRESSAVG GPRESSAVG
ENERGY: 0 0.5002 0.2861 0.0000 0.0000 -12258.4433 1375.3069 0.0000 0.0000 2075.2574 -8807.0926 294.1738 -10882.3501 -8803.3042 294.1738 69.3842 69.3842 300890.8711 69.3842 69.3842
ENERGY: 1000 0.5126 1.5807 0.0000 0.0000 -12177.3242 1309.9064 0.0000 0.0000 2062.5835 -8802.7411 292.3772 -10865.3246 -8799.0838 294.6223 18.9446 17.9361 304349.5777 2.9120 2.9122
ENERGY: 2000 1.2400 0.8590 0.0000 0.0000 -12245.5890 1326.5807 0.0000 0.0000 2130.1180 -8786.7913 301.9505 -10916.9093 -8784.0290 299.6064 49.4871 49.9964 292183.9191 -1.2532 -1.2678
ENERGY: 3000 0.3440 0.7621 0.0000 0.0000 -12130.8456 1283.8121 0.0000 0.0000 2126.8988 -8719.0287 301.4941 -10845.9274 -8714.7697 299.1138 0.6303 1.0954 286781.6145 -1.4276 -1.4311
ENERGY: 4000 0.3240 0.8293 0.0000 0.0000 -12181.9453 1238.1704 0.0000 0.0000 2107.1688 -8835.4529 298.6974 -10942.6217 -8832.4126 294.3977 -85.4312 -85.9018 298365.2850 -1.4771 -1.5179
ENERGY: 5000 1.0148 1.6520 0.0000 0.0000 -12285.6302 1325.9195 0.0000 0.0000 2131.0360 -8826.0079 302.0806 -10957.0439 -8821.2932 296.9743 14.7299 15.0111 300245.5646 -1.4606 -1.4454
TCL: Running FEP window   6: Lambda1 0.3125 Lambda2 0.375  [dLambda 0.0625]
TCL: Setting parameter firsttimestep to 0
TCL: Setting parameter alchLambda to 0.3125
Info: NONBONDED TABLE R-SQUARED SPACING: 0.0625
Info: NONBONDED TABLE SIZE: 769 POINTS
TCL: Setting parameter alchLambda2 to 0.375
Info: NONBONDED TABLE R-SQUARED SPACING: 0.0625
Info: NONBONDED TABLE SIZE: 769 POINTS
TCL: Running for 5000 steps
ETITLE: TS BOND ANGLE DIHED IMPRP ELECT VDW BOUNDARY MISC KINETIC TOTAL TEMP POTENTIAL TOTAL3 TEMPAVG PRESSURE GPRESSURE VOLUME PRESSAVG GPRESSAVG
ENERGY: 0 1.0148 1.6520 0.0000 0.0000 -12285.6302 1326.7096 0.0000 0.0000 2130.9694 -8825.2844 302.0711 -10956.2538 -8820.8956 302.0711 16.1345 16.1345 300245.5646 16.1345 16.1345
ENERGY: 1000 0.6915 1.6004 0.0000 0.0000 -12248.3008 1269.2255 0.0000 0.0000 2113.0858 -8863.6975 299.5361 -10976.7833 -8860.5073 295.0497 -6.5868 -7.4665 284863.3158 0.1731 0.1476
ENERGY: 2000 0.7089 0.7206 0.0000 0.0000 -12250.5365 1301.4807 0.0000 0.0000 2085.8834 -8861.7430 295.6801 -10947.6264 -8857.1149 293.2212 -7.8686 -7.7977 288997.3795 -2.8273 -2.8377
ENERGY: 3000 0.7783 1.0744 0.0000 0.0000 -12300.8421 1333.2855 0.0000 0.0000 2105.0234 -8860.6803 298.3932 -10965.7038 -8855.7530 294.4803 -11.2425 -12.6148 289523.9588 2.6593 2.6978
ENERGY: 4000 0.6566 1.0913 0.0000 0.0000 -12268.8834 1349.3896 0.0000 0.0000 2053.0470 -8864.6988 291.0254 -10917.7458 -8860.6677 294.2174 23.7871 23.8022 277225.0070 0.3280 0.3600
ENERGY: 5000 0.5994 1.4121 0.0000 0.0000 -12281.6341 1312.0839 0.0000 0.0000 2112.0250 -8855.5138 299.3857 -10967.5387 -8852.4057 294.7880 -26.6738 -26.1107 259224.5015 0.9799 0.9826
TCL: Running FEP window   7: Lambda1 0.375  Lambda2 0.4375 [dLambda 0.0625]
TCL: Setting parameter firsttimestep to 0
TCL: Setting parameter alchLambda to 0.375
Info: NONBONDED TABLE R-SQUARED SPACING: 0.0625
Info: NONBONDED TABLE SIZE: 769 POINTS
TCL: Setting parameter alchLambda2 to 0.4375
Info: NONBONDED TABLE R-SQUARED SPACING: 0.0625
Info: NONBONDED TABLE SIZE: 769 POINTS
TCL: Running for 5000 steps
ETITLE: TS BOND ANGLE DIHED IMPRP ELECT VDW BOUNDARY MISC KINETIC TOTAL TEMP POTENTIAL TOTAL3 TEMPAVG PRESSURE GPRESSURE VOLUME PRESSAVG GPRESSAVG
ENERGY: 0 0.5994 1.4121 0.0000 0.0000 -12281.6341 1312.1788 0.0000 0.0000 2111.9583 -8855.4855 299.3763 -10967.4438 -8851.2631 299.3763 -25.5749 -25.5749 259224.5015 -25.5749 -25.5749
ENERGY: 1000 0.2670 2.4538 0.0000 0.0000 -12120.3635 1271.7114 0.0000 0.0000 2109.2527 -8736.6785 298.9928 -10845.9313 -8733.4535 296.3016 -13.8288 -13.9376 259634.8473 0.5030 0.4658
ENERGY: 2000 0.3897 0.8764 0.0000 0.0000 -12144.5943 1302.3706 0.0000 0.0000 2053.7720 -8787.1857 291.1282 -10840.9576 -8783.2920 299.8390 11.4947 9.9956 240253.9956 3.3438 3.3679
ENERGY: 3000 0.7418 2.2024 0.0000 0.0000 -12229.7850 1245.7672 0.0000 0.0000 2102.5583 -8878.5152 298.0438 -10981.0735 -8875.4122 294.4686 -104.0098 -106.0539 233190.3686 0.9337 0.9573
ENERGY: 4000 0.5533 1.1686 0.0000 0.0000 -12177.4881 1263.0654 0.0000 0.0000 2092.6144 -8820.0864 296.6342 -10912.7008 -8817.4397 296.5378 -45.3088 -45.1468 224969.5790 1.7060 1.7106
ENERGY: 5000 0.3982 0.9344 0.0000 0.0000 -12157.8941 1289.3134 0.0000 0.0000 2051.2174 -8816.0309 290.7661 -10867.2482 -8812.2199 294.3696 -10.0075 -10.5580 224585.9427 -2.0751 -2.0595
TCL: Running FEP window   8: Lambda1 0.4375 Lambda2 0.5    [dLambda 0.0625]
TCL: Setting parameter firsttimestep to 0
TCL: Setting parameter alchLambda to 0.4375
Info: NONBONDED TABLE R-SQUARED SPACING: 0.0625
Info: NONBONDED TABLE SIZE: 769 POINTS
TCL: Setting parameter alchLambda2 to 0.5
Info: NONBONDED TABLE R-SQUARED SPACING: 0.0625
Info: NONBONDED TABLE SIZE: 769 POINTS
TCL: Running for 5000 steps
ETITLE: TS BOND ANGLE DIHED IMPRP ELECT VDW BOUNDARY MISC KINETIC TOTAL TEMP POTENTIAL TOTAL3 TEMPAVG PRESSURE GPRESSURE VOLUME PRESSAVG GPRESSAVG
ENERGY: 0 0.3982 0.9344 0.0000 0.0000 -12157.8941 1291.3935 0.0000 0.0000 2051.1538 -8814.0143 290.7571 -10865.1681 -8810.8528 290.7571 -7.3302 -7.3302 224585.9427 -7.3302 -7.3302
ENERGY: 1000 0.5385 1.6874 0.0000 0.0000 -12143.2557 1264.6679 0.0000 0.0000 2133.5005 -8742.8613 302.4299 -10876.3618 -8739.3453 299.6914 -43.0726 -43.2942 238375.0600 2.2787 2.1340
ENERGY: 2000 0.7713 2.2764 0.0000 0.0000 -12142.1730 1288.6733 0.0000 0.0000 2097.6972 -8752.7548 297.3547 -10850.4520 -8749.0490 300.9215 32.4663 30.8276 239339.3265 0.7686 0.7478
ENERGY: 3000 0.5313 0.3054 0.0000 0.0000 -12135.5580 1341.2086 0.0000 0.0000 2096.3318 -8697.1810 297.1612 -10793.5128 -8694.3295 297.5152 61.2044 61.3568 244457.5255 0.0968 0.1767
ENERGY: 4000 0.6696 1.1680 0.0000 0.0000 -12213.2111 1346.8861 0.0000 0.0000 2132.1849 -8732.3025 302.2434 -10864.4874 -8727.9972 299.1240 76.3697 76.5910 225556.7045 -0.9676 -0.9169
ENERGY: 5000 3.6245 1.2904 0.0000 0.0000 -12236.5745 1320.6542 0.0000 0.0000 2158.6122 -8752.3931 305.9896 -10911.0054 -8748.8244 298.9830 -8.0447 -5.6310 213823.5907 1.4244 1.4503
TCL: Running FEP window   9: Lambda1 0.5    Lambda2 0.5625 [dLambda 0.0625]
TCL: Setting parameter firsttimestep to 0
TCL: Setting parameter alchLambda to 0.5
Info: NONBONDED TABLE R-SQUARED SPACING: 0.0625
Info: NONBONDED TABLE SIZE: 769 POINTS
TCL: Setting parameter alchLambda2 to 0.5625
Info: NONBONDED TABLE R-SQUARED SPACING: 0.0625
Info: NONBONDED TABLE SIZE: 769 POINTS
TCL: Running for 5000 steps
ETITLE: TS BOND ANGLE DIHED IMPRP ELECT VDW BOUNDARY MISC KINETIC TOTAL TEMP POTENTIAL TOTAL3 TEMPAVG PRESSURE GPRESSURE VOLUME PRESSAVG GPRESSAVG
ENERGY: 0 3.6245 1.2904 0.0000 0.0000 -12236.5745 1320.0851 0.0000 0.0000 2158.5491 -8753.0254 305.9807 -10911.5745 -8749.1099 305.9807 -5.4912 -5.4912 213823.5907 -5.4912 -5.4912
ENERGY: 1000 0.6794 1.3410 0.0000 0.0000 -12267.7231 1344.4943 0.0000 0.0000 2085.9529 -8835.2556 295.6899 -10921.2084 -8831.3869 295.4917 25.5083 24.7020 214335.8275 -0.1832 -0.2508
ENERGY: 2000 0.6714 4.3231 0.0000 0.0000 -12260.2385 1308.6836 0.0000 0.0000 2092.9661 -8853.5944 296.6841 -10946.5604 -8849.9323 297.0166 -32.7694 -31.3385 213210.5898 4.4482 4.4755
ENERGY: 3000 0.3629 1.7044 0.0000 0.0000 -12242.3121 1331.7761 0.0000 0.0000 2129.9085 -8778.5602 301.9208 -10908.4687 -8774.0845 297.3577 8.5297 6.9049 207555.3525 3.2814 3.2400
ENERGY: 4000 1.6006 1.7172 0.0000 0.0000 -12196.7342 1318.6004 0.0000 0.0000 2110.5303 -8764.2857 299.1738 -10874.8160 -8760.8744 298.4726 31.2616 31.6427 202079.9336 2.8690 2.8650
ENERGY: 5000 0.6591 0.7766 0.0000 0.0000 -12170.3270 1246.0479 0.0000 0.0000 2123.9978 -8798.8456 301.0829 -10922.8434 -8795.3078 297.9543 -66.8670 -66.7498 191937.4219 0.7331 0.7089
TCL: Running FEP window  10: Lambda1 0.5625 Lambda2 0.625  [dLambda 0.0625]
TCL: Setting parameter firsttimestep to 0
TCL: Setting parameter alchLambda to 0.5625
Info: NONBONDED TABLE R-SQUARED SPACING: 0.0625
Info: NONBONDED TABLE SIZE: 769 POINTS
TCL: Setting parameter alchLambda2 to 0.625
Info: NONBONDED TABLE R-SQUARED SPACING: 0.0625
Info: NONBONDED TABLE SIZE: 769 POINTS
TCL: Running for 5000 steps
ETITLE: TS BOND ANGLE DIHED IMPRP ELECT VDW BOUNDARY MISC KINETIC TOTAL TEMP POTENTIAL TOTAL3 TEMPAVG PRESSURE GPRESSURE VOLUME PRESSAVG GPRESSAVG
ENERGY: 0 0.6591 0.7766 0.0000 0.0000 -12170.4522 1246.0995 0.0000 0.0000 2123.9318 -8798.9852 301.0736 -10922.9170 -8794.8475 301.0736 -65.7072 -65.7072 191937.4219 -65.7072 -65.7072
ENERGY: 1000 0.9528 2.2353 0.0000 0.0000 -12204.5138 1281.1171 0.0000 0.0000 2042.2187 -8877.9900 289.4905 -10920.2087 -8873.2427 291.4017 0.6471 1.2700 189048.9735 2.9275 2.8781
ENERGY: 2000 1.2243 0.6505 0.0000 0.0000 -12329.5734 1364.4996 0.0000 0.0000 2103.3962 -8859.8028 298.1626 -10963.1990 -8857.7591 296.2604 96.9665 98.9581 190435.5906 -1.5829 -1.5395
ENERGY: 3000 1.9203 3.4669 0.0000 0.0000 -12211.9320 1350.2907 0.0000 0.0000 2130.1074 -8726.1466 301.9490 -10856.2541 -8723.2028 298.0164 48.6279 49.6176 200963.4171 -0.8939 -0.8871
ENERGY: 4000 0.0667 2.9895 0.0000 0.0000 -12106.4841 1236.2528 0.0000 0.0000 2119.0260 -8748.1491 300.3781 -10867.1751 -8742.9108 296.9983 -93.9058 -94.3364 211630.7189 2.9322 2.8416
ENERGY: 5000 1.6825 3.4441 0.0000 0.0000 -12103.9644 1283.6052 0.0000 0.0000 2051.6334 -8763.5993 290.8250 -10815.2326 -8761.5475 297.5639 -22.6840 -21.2559 212039.1113 7.4998 7.4886
TCL: Running FEP window  11: Lambda1 0.625  Lambda2 0.6875 [dLambda 0.0625]
TCL: Setting parameter firsttimestep to 0
TCL: Setting parameter alchLambda to 0.625
Info: NONBONDED TABLE R-SQUARED SPACING: 0.0625
Info: NONBONDED TABLE SIZE: 769 POINTS
TCL: Setting parameter alchLambda2 to 0.6875
Info: NONBONDED TABLE R-SQUARED SPACING: 0.0625
Info: NONBONDED TABLE SIZE: 769 POINTS
TCL: Running for 5000 steps
ETITLE: TS BOND ANGLE DIHED IMPRP ELECT VDW BOUNDARY MISC KINETIC TOTAL TEMP POTENTIAL TOTAL3 TEMPAVG PRESSURE GPRESSURE VOLUME PRESSAVG GPRESSAVG
ENERGY: 0 1.6825 3.4441 0.0000 0.0000 -12104.0394 1283.9168 0.0000 0.0000 2051.5689 -8763.4270 290.8159 -10814.9960 -8759.5646 290.8159 -19.5545 -19.5545 212039.1113 -19.5545 -19.5545
ENERGY: 1000 0.1292 0.5389 0.0000 0.0000 -12153.0249 1297.8990 0.0000 0.0000 2076.0203 -8778.4374 294.2820 -10854.4577 -8774.1319 297.3316 -40.2203 -38.6974 222322.8522 2.1365 2.1305
ENERGY: 2000 0.5884 0.8278 0.0000 0.0000 -12146.7493 1277.5109 0.0000 0.0000 2070.1564 -8797.6659 293.4507 -10867.8223 -8794.7821 296.2083 -27.5398 -26.8874 224861.1009 1.1779 1.1455
ENERGY: 3000 0.2552 0.8492 0.0000 0.0000 -12140.4946 1309.9012 0.0000 0.0000 2105.0214 -8724.4675 298.3930 -10829.4890 -8719.9037 301.0444 23.7897 25.1647 219389.9608 3.9654 3.9319
ENERGY: 4000 0.8837 1.4952 0.0000 0.0000 -12071.8797 1266.1058 0.0000 0.0000 2113.5144 -8689.8806 299.5969 -10803.3950 -8685.0826 298.8482 -33.1180 -32.8836 207428.1166 2.5932 2.7440
ENERGY: 5000 0.3533 1.3871 0.0000 0.0000 -12058.5337 1231.0357 0.0000 0.0000 2093.0735 -8732.6840 296.6993 -10825.7576 -8727.4761 299.9588 -52.6637 -52.3795 198070.1904 -0.3594 -0.3437
TCL: Running FEP window  12: Lambda1 0.6875 Lambda2 0.75   [dLambda 0.0625]
TCL: Setting parameter firsttimestep to 0
TCL: Setting parameter alchLambda to 0.6875
Info: NONBONDED TABLE R-SQUARED SPACING: 0.0625
Info: NONBONDED TABLE SIZE: 769 POINTS
TCL: Setting parameter alchLambda2 to 0.75
Info: NONBONDED TABLE R-SQUARED SPACING: 0.0625
Info: NONBONDED TABLE SIZE: 769 POINTS
TCL: Running for 5000 steps
ETITLE: TS BOND ANGLE DIHED IMPRP ELECT VDW BOUNDARY MISC KINETIC TOTAL TEMP POTENTIAL TOTAL3 TEMPAVG PRESSURE GPRESSURE VOLUME PRESSAVG GPRESSAVG
ENERGY: 0 0.3533 1.3871 0.0000 0.0000 -12058.7104 1232.7081 0.0000 0.0000 2093.0102 -8731.2516 296.6903 -10824.2618 -8727.0757 296.6903 -47.5831 -47.5831 198070.1904 -47.5831 -47.5831
ENERGY: 1000 0.9436 1.4016 0.0000 0.0000 -12227.7152 1336.5639 0.0000 0.0000 2027.9283 -8860.8777 287.4648 -10888.8061 -8855.0270 293.2596 18.5905 20.3061 194355.8216 0.7725 0.8000
ENERGY: 2000 3.2269 1.8278 0.0000 0.0000 -12178.5081 1270.9913 0.0000 0.0000 2075.0507 -8827.4114 294.1445 -10902.4621 -8824.4386 295.0640 -60.2263 -64.0940 187694.9989 2.5574 2.5871
ENERGY: 3000 0.7791 1.7888 0.0000 0.0000 -12117.3397 1302.5059 0.0000 0.0000 2084.3257 -8727.9403 295.4593 -10812.2660 -8723.7812 297.6514 8.5585 10.7282 178486.7687 1.2216 1.2230
ENERGY: 4000 1.1789 1.1143 0.0000 0.0000 -12109.3997 1272.2547 0.0000 0.0000 2074.2281 -8760.6236 294.0279 -10834.8517 -8755.9380 297.8162 -17.2426 -19.0803 178146.2945 0.2831 0.2210
ENERGY: 5000 1.6805 1.8385 0.0000 0.0000 -12282.1739 1301.4667 0.0000 0.0000 2101.8190 -8875.3693 297.9390 -10977.1883 -8870.6032 296.5584 -19.4472 -20.2457 183394.6144 1.1205 1.1091
TCL: Running FEP window  13: Lambda1 0.75   Lambda2 0.8125 [dLambda 0.0625]
TCL: Setting parameter firsttimestep to 0
TCL: Setting parameter alchLambda to 0.75
Info: NONBONDED TABLE R-SQUARED SPACING: 0.0625
Info: NONBONDED TABLE SIZE: 769 POINTS
TCL: Setting parameter alchLambda2 to 0.8125
Info: NONBONDED TABLE R-SQUARED SPACING: 0.0625
Info: NONBONDED TABLE SIZE: 769 POINTS
TCL: Running for 5000 steps
ETITLE: TS BOND ANGLE DIHED IMPRP ELECT VDW BOUNDARY MISC KINETIC TOTAL TEMP POTENTIAL TOTAL3 TEMPAVG PRESSURE GPRESSURE VOLUME PRESSAVG GPRESSAVG
ENERGY: 0 1.6805 1.8385 0.0000 0.0000 -12282.2011 1300.8028 0.0000 0.0000 2101.7532 -8876.1261 297.9297 -10977.8793 -8871.9794 297.9297 -19.3266 -19.3266 183394.6144 -19.3266 -19.3266
ENERGY: 1000 0.2123 1.9443 0.0000 0.0000 -12216.9015 1275.3559 0.0000 0.0000 2119.3466 -8820.0423 300.4236 -10939.3890 -8816.4850 296.7687 -13.8142 -15.0977 189364.3649 7.2386 7.2703
ENERGY: 2000 1.2609 2.7670 0.0000 0.0000 -12166.3378 1317.7319 0.0000 0.0000 2074.3222 -8770.2559 294.0412 -10844.5780 -8766.4049 297.9234 33.5777 36.2662 193646.4596 0.6224 0.6089
ENERGY: 3000 0.8780 0.9275 0.0000 0.0000 -12231.7037 1307.2734 0.0000 0.0000 2076.7049 -8845.9200 294.3790 -10922.6248 -8841.2977 298.0938 -19.6084 -21.5091 204432.8372 -3.9687 -3.9201
ENERGY: 4000 1.1327 0.5409 0.0000 0.0000 -12086.9091 1231.5915 0.0000 0.0000 2069.8346 -8783.8094 293.4051 -10853.6440 -8780.2468 298.1488 -57.5391 -58.0762 224170.9190 0.4614 0.5784
ENERGY: 5000 1.5539 1.0839 0.0000 0.0000 -12196.3027 1295.6088 0.0000 0.0000 2071.7656 -8826.2905 293.6788 -10898.0562 -8822.3491 298.4439 -12.1725 -11.5076 229314.3185 1.6733 1.7046
TCL: Running FEP window  14: Lambda1 0.8125 Lambda2 0.875  [dLambda 0.0625]
TCL: Setting parameter firsttimestep to 0
TCL: Setting parameter alchLambda to 0.8125
Info: NONBONDED TABLE R-SQUARED SPACING: 0.0625
Info: NONBONDED TABLE SIZE: 769 POINTS
TCL: Setting parameter alchLambda2 to 0.875
Info: NONBONDED TABLE R-SQUARED SPACING: 0.0625
Info: NONBONDED TABLE SIZE: 769 POINTS
TCL: Running for 5000 steps
ETITLE: TS BOND ANGLE DIHED IMPRP ELECT VDW BOUNDARY MISC KINETIC TOTAL TEMP POTENTIAL TOTAL3 TEMPAVG PRESSURE GPRESSURE VOLUME PRESSAVG GPRESSAVG
ENERGY: 0 1.5539 1.0839 0.0000 0.0000 -12196.2340 1294.9277 0.0000 0.0000 2071.6989 -8826.9695 293.6694 -10898.6684 -8823.1302 293.6694 -10.7601 -10.7601 229314.3185 -10.7601 -10.7601
ENERGY: 1000 0.2222 3.6588 0.0000 0.0000 -12222.2990 1327.0447 0.0000 0.0000 2043.9052 -8847.4681 289.7295 -10891.3732 -8843.6100 296.6038 67.3603 68.3562 242500.8425 0.6762 0.7211
ENERGY: 2000 0.9698 0.7122 0.0000 0.0000 -12224.9429 1258.5187 0.0000 0.0000 2091.7398 -8873.0024 296.5102 -10964.7422 -8868.0428 292.1134 -51.7796 -51.0467 229921.3688 0.1823 0.1343
ENERGY: 3000 0.2039 1.4489 0.0000 0.0000 -12232.4930 1350.3078 0.0000 0.0000 2152.8606 -8727.6719 305.1743 -10880.5325 -8723.7686 299.1509 79.0356 80.4291 218635.3564 -1.9528 -1.9506
ENERGY: 4000 2.0007 1.0353 0.0000 0.0000 -12066.5398 1267.4674 0.0000 0.0000 2113.7447 -8682.2918 299.6295 -10796.0364 -8677.1577 302.8512 1.0649 -0.3753 216916.1022 1.5982 1.5404
ENERGY: 5000 0.5074 1.1383 0.0000 0.0000 -12155.0611 1271.7032 0.0000 0.0000 2109.2095 -8772.5027 298.9866 -10881.7122 -8768.4795 298.9643 -23.0235 -23.2578 214574.2919 -1.7904 -1.8129
TCL: Running FEP window  15: Lambda1 0.875  Lambda2 0.9375 [dLambda 0.0625]
TCL: Setting parameter firsttimestep to 0
TCL: Setting parameter alchLambda to 0.875
Info: NONBONDED TABLE R-SQUARED SPACING: 0.0625
Info: NONBONDED TABLE SIZE: 769 POINTS
TCL: Setting parameter alchLambda2 to 0.9375
Info: NONBONDED TABLE R-SQUARED SPACING: 0.0625
Info: NONBONDED TABLE SIZE: 769 POINTS
TCL: Running for 5000 steps
ETITLE: TS BOND ANGLE DIHED IMPRP ELECT VDW BOUNDARY MISC KINETIC TOTAL TEMP POTENTIAL TOTAL3 TEMPAVG PRESSURE GPRESSURE VOLUME PRESSAVG GPRESSAVG
ENERGY: 0 0.5074 1.1383 0.0000 0.0000 -12155.2602 1273.6082 0.0000 0.0000 2109.1444 -8770.8620 298.9774 -10880.0064 -8767.0738 298.9774 -18.0258 -18.0258 214574.2919 -18.0258 -18.0258
ENERGY: 1000 0.1653 1.7625 0.0000 0.0000 -12311.9680 1381.0243 0.0000 0.0000 2139.5900 -8789.4257 303.2931 -10929.0158 -8785.9660 297.2645 109.7824 107.9552 205212.6756 -3.9558 -3.9171
ENERGY: 2000 1.1661 0.5431 0.0000 0.0000 -12157.4980 1298.3112 0.0000 0.0000 2128.4070 -8729.0706 301.7079 -10857.4776 -8725.1966 297.6662 30.3759 29.6079 200762.2944 4.7246 4.6974
ENERGY: 3000 0.6607 2.2036 0.0000 0.0000 -12104.5977 1251.5665 0.0000 0.0000 2105.9140 -8744.2529 298.5195 -10850.1669 -8741.2354 298.2017 -28.8157 -27.3137 202790.8408 5.2113 5.2466
ENERGY: 4000 1.7291 1.6964 0.0000 0.0000 -12277.8829 1340.3014 0.0000 0.0000 2165.5396 -8768.6164 306.9716 -10934.1560 -8764.0302 298.5109 60.9170 59.3455 196835.9438 0.2962 0.2541
ENERGY: 5000 0.4563 1.3761 0.0000 0.0000 -12089.4993 1222.1017 0.0000 0.0000 2087.6862 -8777.8791 295.9356 -10865.5653 -8775.0819 297.3028 -77.1304 -77.6295 195658.1904 4.1325 4.1479
TCL: Running FEP window  16: Lambda1 0.9375 Lambda2 1.0    [dLambda 0.0625]
TCL: Setting parameter firsttimestep to 0
TCL: Setting parameter alchLambda to 0.9375
Info: NONBONDED TABLE R-SQUARED SPACING: 0.0625
Info: NONBONDED TABLE SIZE: 769 POINTS
TCL: Setting parameter alchLambda2 to 1.0
Info: NONBONDED TABLE R-SQUARED SPACING: 0.0625
Info: NONBONDED TABLE SIZE: 769 POINTS
TCL: Running for 5000 steps
ETITLE: TS BOND ANGLE DIHED IMPRP ELECT VDW BOUNDARY MISC KINETIC TOTAL TEMP POTENTIAL TOTAL3 TEMPAVG PRESSURE GPRESSURE VOLUME PRESSAVG GPRESSAVG
ENERGY: 0 0.4563 1.3761 0.0000 0.0000 -12089.7763 1221.8510 0.0000 0.0000 2087.6221 -8778.4708 295.9265 -10866.0930 -8774.2327 295.9265 -75.9568 -75.9568 195658.1904 -75.9568 -75.9568
ENERGY: 1000 0.9830 2.4949 0.0000 0.0000 -12301.6536 1247.3325 0.0000 0.0000 2088.5641 -8962.2791 296.0601 -11050.8432 -8960.0726 290.4203 -121.3685 -121.6875 188478.2181 3.8245 3.8138
ENERGY: 2000 1.0430 0.7688 0.0000 0.0000 -12393.1957 1351.8427 0.0000 0.0000 2112.1860 -8927.3553 299.4085 -11039.5412 -8924.8739 290.4264 39.8900 39.0824 183587.9183 -5.3893 -5.3722
ENERGY: 3000 0.5864 1.8879 0.0000 0.0000 -12274.0497 1295.9167 0.0000 0.0000 2037.8602 -8937.7985 288.8726 -10975.6587 -8935.4593 291.5771 -57.7969 -57.0387 182460.0622 -0.2039 -0.2069
ENERGY: 4000 1.6025 3.8895 0.0000 0.0000 -12248.6962 1326.9796 0.0000 0.0000 2084.4468 -8831.7778 295.4764 -10916.2246 -8829.9953 291.2753 -24.8829 -23.3217 180334.7303 3.5894 3.6009
ENERGY: 5000 0.4835 1.6765 0.0000 0.0000 -12252.1183 1347.5993 0.0000 0.0000 2052.3009 -8850.0581 290.9197 -10902.3590 -8844.7456 293.8922 85.5358 86.0676 177801.4704 2.8047 2.8017
