Info: SIMULATION PARAMETERS:
Info: TIMESTEP               2
Info: NUMBER OF STEPS        0
Info: STEPS PER CYCLE        10
Info: PERIODIC CELL BASIS 1  36.281 0 0
Info: PERIODIC CELL BASIS 2  0 35.411 0
Info: PERIODIC CELL BASIS 3  0 0 34.68
Info: PERIODIC CELL CENTER   0 0 0
Info: WRAPPING WATERS AROUND PERIODIC BOUNDARIES ON OUTPUT.
Info: WRAPPING ALL CLUSTERS AROUND PERIODIC BOUNDARIES ON OUTPUT.
Info: FIRST LDB TIMESTEP     50
Info: LAST LDB TIMESTEP     -1
Info: HOM BACKGROUND SCALING 1
Info: PME BACKGROUND SCALING 1
Info: MIN ATOMS PER PATCH    40
Info: EMPTY PATCH LOAD       40 ATOMS
Info: INITIAL TEMPERATURE    300
Info: CENTER OF MASS MOVING INITIALLY? NO
Info: DIELECTRIC             1
Info: EXCLUDE                SCALED ONE-FOUR
Info: 1-4 ELECTROSTATICS SCALED BY 0.833333
Info: MODIFIED 1-4 VDW PARAMETERS WILL BE USED
Info: DCD FILENAME           mobley_3968043_equil.dcd
Info: DCD FREQUENCY          100000
Info: DCD FIRST STEP         100000
Info: DCD FILE WILL CONTAIN UNIT CELL DATA
Info: XST FILENAME           mobley_3968043_equil.xst
Info: XST FREQUENCY          100000
Info: NO VELOCITY DCD OUTPUT
Info: NO FORCE DCD OUTPUT
Info: OUTPUT FILENAME        mobley_3968043_equil
Info: BINARY OUTPUT FILES WILL BE USED
Info: RESTART FILENAME       mobley_3968043_equil.restart
Info: RESTART FREQUENCY      100000
Info: BINARY RESTART FILES WILL BE USED
Info: CUTOFF                 9
Info: PAIRLIST DISTANCE      11
Info: PAIRLIST SHRINK RATE   0.01
Info: PAIRLIST GROW RATE     0.01
Info: PAIRLIST TRIGGER       0.3
Info: PAIRLISTS PER CYCLE    2
Info: PAIRLISTS ENABLED
Info: MARGIN                 8
Info: HYDROGEN GROUP CUTOFF  2.5
Info: PATCH DIMENSION        21.5
Info: ENERGY OUTPUT STEPS    100000
Info: ENERGY EVALUATION STEPS    100000
Info: OUTPUT ENERGY PRECISION 4
Info: CROSSTERM ENERGY INCLUDED IN DIHEDRAL
Info: TIMING OUTPUT STEPS    1000000
Info: PRESSURE OUTPUT STEPS  100000
Info: FIXED ATOMS ACTIVE
Info: LANGEVIN DYNAMICS ACTIVE
Info: LANGEVIN TEMPERATURE   30
Info: LANGEVIN USING BBK INTEGRATOR
Info: LANGEVIN DAMPING COEFFICIENT IS 1 INVERSE PS
Info: LANGEVIN DYNAMICS APPLIED TO HYDROGENS
Info: LANGEVIN PISTON PRESSURE CONTROL ACTIVE
Info:        TARGET PRESSURE IS 1.01325 BAR
Info:     OSCILLATION PERIOD IS 50 FS
Info:             DECAY TIME IS 25 FS
Info:     PISTON TEMPERATURE IS 300 K
Info:       PRESSURE CONTROL IS GROUP-BASED
Info:    INITIAL STRAIN RATE IS 0 0 0
Info:       CELL FLUCTUATION IS ISOTROPIC
Info: PARTICLE MESH EWALD (PME) ACTIVE
Info: PME TOLERANCE               1e-06
Info: PME EWALD COEFFICIENT       0.348832
Info: PME INTERPOLATION ORDER     4
Info: PME GRID DIMENSIONS         40 36 36
Info: PME MAXIMUM GRID SPACING    1
Info: FULL ELECTROSTATIC EVALUATION FREQUENCY      2
Info: USING VERLET I (r-RESPA) MTS SCHEME.
Info: C1 SPLITTING OF LONG RANGE ELECTROSTATICS
Info: PLACING ATOMS IN PATCHES BY HYDROGEN GROUPS
Info: RIGID BONDS TO HYDROGEN : ALL
Info:         ERROR TOLERANCE : 1e-08
Info:          MAX ITERATIONS : 100
Info: RIGID WATER USING SETTLE ALGORITHM
Info: RANDOM NUMBER SEED     1742209429
Info: USE HYDROGEN BONDS?    NO
Info: Using AMBER format force field!
Info: AMBER PARM FILE        mobley_3968043.prmtop
Info: COORDINATE PDB         mobley_3968043.pdb
Info: Exclusions will be read from PARM file!
Info: SCNB (VDW SCALING)     2
Info: USING ARITHMETIC MEAN TO COMBINE L-J SIGMA PARAMETERS
Info: BINARY COORDINATES     mobley_3968043_min.coor
Info: SUMMARY OF PARAMETERS:
Info: 6 BONDS
Info: 7 ANGLES
Info:   7 HARMONIC
Info:   0 COSINE-BASED
Info: 15 DIHEDRAL
Info: 0 IMPROPER
Info: 0 CROSSTERM
Info: 0 VDW
Info: 21 VDW_PAIRS
Info: 0 NBTHOLE_PAIRS
Info: STRUCTURE SUMMARY:
Info: 2933 ATOMS
Info: 2933 BONDS
Info: 27 ANGLES
Info: 52 DIHEDRALS
Info: 0 IMPROPERS
Info: 0 CROSSTERMS
Info: 2994 EXCLUSIONS
Info: 14 FIXED ATOMS
Info: 2927 RIGID BONDS
Info: 8 RIGID BONDS BETWEEN FIXED ATOMS
Info: 5838 DEGREES OF FREEDOM
Info: 979 HYDROGEN GROUPS
Info: 3 ATOMS IN LARGEST HYDROGEN GROUP
Info: 979 MIGRATION GROUPS
Info: 3 ATOMS IN LARGEST MIGRATION GROUP
Info: 6 HYDROGEN GROUPS WITH ALL ATOMS FIXED
Info: TOTAL MASS = 17613.7 amu
Info: TOTAL CHARGE = 0.00030002 e
Info: MASS DENSITY = 0.656467 g/cm^3
Info: ATOM DENSITY = 0.0658287 atoms/A^3
Info: ADDED 0 IMPLICIT EXCLUSIONS
Info: NONBONDED TABLE R-SQUARED SPACING: 0.0625
Info: NONBONDED TABLE SIZE: 705 POINTS
Info: REMOVING COM VELOCITY -0.0387201 0.117262 -0.30573
TCL: Running for 100000 steps
ETITLE: TS BOND ANGLE DIHED IMPRP ELECT VDW BOUNDARY MISC KINETIC TOTAL TEMP POTENTIAL TOTAL3 TEMPAVG PRESSURE GPRESSURE VOLUME PRESSAVG GPRESSAVG
ENERGY: 0 0.0000 0.0000 0.0000 0.0000 -13650.6475 2411.3861 0.0000 0.0000 1747.0862 -9492.1752 301.1901 -11239.2615 -9491.8525 301.1901 633.6278 666.9110 44555.0083 633.6278 666.9110
ENERGY: 100000 0.0000 0.0000 0.0000 0.0000 -14177.8138 2494.8573 0.0000 0.0000 176.5823 -11506.3742 30.4420 -11682.9565 -11505.7622 30.8534 122.5863 189.6239 29553.2274 4.5360 4.5235
TCL: Running 100000 steps at 60 kelvin.
TCL: Setting parameter langevinTemp to 60
TCL: Running for 100000 steps
ETITLE: TS BOND ANGLE DIHED IMPRP ELECT VDW BOUNDARY MISC KINETIC TOTAL TEMP POTENTIAL TOTAL3 TEMPAVG PRESSURE GPRESSURE VOLUME PRESSAVG GPRESSAVG
ENERGY: 100000 0.0000 0.0000 0.0000 0.0000 -14177.8138 2494.8573 0.0000 0.0000 176.4935 -11506.4630 30.4267 -11682.9565 -11506.1000 30.4267 138.3357 189.6731 29553.2274 138.3357 189.6731
ENERGY: 200000 0.0000 0.0000 0.0000 0.0000 -14033.7657 2406.1894 0.0000 0.0000 348.8851 -11278.6912 60.1463 -11627.5763 -11277.8367 59.8673 14.9102 72.2628 28614.7730 2.7325 2.6866
TCL: Running 100000 steps at 90 kelvin.
TCL: Setting parameter langevinTemp to 90
TCL: Running for 100000 steps
ETITLE: TS BOND ANGLE DIHED IMPRP ELECT VDW BOUNDARY MISC KINETIC TOTAL TEMP POTENTIAL TOTAL3 TEMPAVG PRESSURE GPRESSURE VOLUME PRESSAVG GPRESSAVG
ENERGY: 200000 0.0000 0.0000 0.0000 0.0000 -14033.7657 2406.1894 0.0000 0.0000 348.7174 -11278.8590 60.1174 -11627.5763 -11278.0549 60.1174 17.0657 72.2117 28614.7730 17.0657 72.2117
ENERGY: 300000 0.0000 0.0000 0.0000 0.0000 -13862.9430 2304.7417 0.0000 0.0000 529.2865 -11028.9148 91.2467 -11558.2013 -11027.7294 90.0022 -458.8029 -410.1758 28536.4839 4.9758 5.0415
TCL: Running 100000 steps at 120 kelvin.
TCL: Setting parameter langevinTemp to 120
TCL: Running for 100000 steps
ETITLE: TS BOND ANGLE DIHED IMPRP ELECT VDW BOUNDARY MISC KINETIC TOTAL TEMP POTENTIAL TOTAL3 TEMPAVG PRESSURE GPRESSURE VOLUME PRESSAVG GPRESSAVG
ENERGY: 300000 0.0000 0.0000 0.0000 0.0000 -13862.9430 2304.7417 0.0000 0.0000 529.0272 -11029.1741 91.2020 -11558.2013 -11027.9754 91.2020 -457.7939 -410.6944 28536.4839 -457.7939 -410.6944
ENERGY: 400000 0.0000 0.0000 0.0000 0.0000 -13889.1349 2450.0978 0.0000 0.0000 683.8947 -10755.1424 117.9005 -11439.0371 -10754.2125 119.9432 1159.4658 1269.4470 28411.8673 4.0219 3.9468
TCL: Running 100000 steps at 150 kelvin.
TCL: Setting parameter langevinTemp to 150
TCL: Running for 100000 steps
ETITLE: TS BOND ANGLE DIHED IMPRP ELECT VDW BOUNDARY MISC KINETIC TOTAL TEMP POTENTIAL TOTAL3 TEMPAVG PRESSURE GPRESSURE VOLUME PRESSAVG GPRESSAVG
ENERGY: 400000 0.0000 0.0000 0.0000 0.0000 -13889.1349 2450.0978 0.0000 0.0000 683.5486 -10755.4884 117.8408 -11439.0371 -10754.7733 117.8408 1218.4834 1269.1660 28411.8673 1218.4834 1269.1660
ENERGY: 500000 0.0000 0.0000 0.0000 0.0000 -13421.6684 2190.2876 0.0000 0.0000 868.5850 -10362.7958 149.7403 -11231.3808 -10360.4407 150.3807 -47.1170 -26.3352 28492.7154 4.0662 4.1307
TCL: Running 100000 steps at 180 kelvin.
TCL: Setting parameter langevinTemp to 180
TCL: Running for 100000 steps
ETITLE: TS BOND ANGLE DIHED IMPRP ELECT VDW BOUNDARY MISC KINETIC TOTAL TEMP POTENTIAL TOTAL3 TEMPAVG PRESSURE GPRESSURE VOLUME PRESSAVG GPRESSAVG
ENERGY: 500000 0.0000 0.0000 0.0000 0.0000 -13421.6684 2190.2876 0.0000 0.0000 868.1512 -10363.2296 149.6655 -11231.3808 -10361.2458 149.6655 -88.5260 -25.7086 28492.7154 -88.5260 -25.7086
ENERGY: 600000 0.0000 0.0000 0.0000 0.0000 -13199.8768 2198.7591 0.0000 0.0000 1016.1735 -9984.9442 175.1839 -11001.1177 -9983.6967 179.7511 469.1133 530.6083 29039.8714 3.1274 3.0693
TCL: Running 100000 steps at 210 kelvin.
TCL: Setting parameter langevinTemp to 210
TCL: Running for 100000 steps
ETITLE: TS BOND ANGLE DIHED IMPRP ELECT VDW BOUNDARY MISC KINETIC TOTAL TEMP POTENTIAL TOTAL3 TEMPAVG PRESSURE GPRESSURE VOLUME PRESSAVG GPRESSAVG
ENERGY: 600000 0.0000 0.0000 0.0000 0.0000 -13199.8768 2198.7591 0.0000 0.0000 1015.6517 -9985.4660 175.0939 -11001.1177 -9983.8736 175.0939 476.3663 529.0179 29039.8714 476.3663 529.0179
ENERGY: 700000 0.0000 0.0000 0.0000 0.0000 -12407.7628 1903.4523 0.0000 0.0000 1212.8008 -9291.5097 209.0816 -10504.3105 -9288.0576 210.2196 85.4112 201.3698 28553.1823 2.8384 2.9055
TCL: Running 100000 steps at 240 kelvin.
TCL: Setting parameter langevinTemp to 240
TCL: Running for 100000 steps
ETITLE: TS BOND ANGLE DIHED IMPRP ELECT VDW BOUNDARY MISC KINETIC TOTAL TEMP POTENTIAL TOTAL3 TEMPAVG PRESSURE GPRESSURE VOLUME PRESSAVG GPRESSAVG
ENERGY: 700000 0.0000 0.0000 0.0000 0.0000 -12407.7628 1903.4523 0.0000 0.0000 1212.2054 -9292.1051 208.9789 -10504.3105 -9289.9200 208.9789 137.8162 202.5378 28553.1823 137.8162 202.5378
ENERGY: 800000 0.0000 0.0000 0.0000 0.0000 -11817.3621 1753.3431 0.0000 0.0000 1443.1047 -8620.9143 248.7850 -10064.0190 -8618.8891 240.1781 207.2290 230.2737 29329.6752 4.0471 4.1128
TCL: Running 100000 steps at 270 kelvin.
TCL: Setting parameter langevinTemp to 270
TCL: Running for 100000 steps
ETITLE: TS BOND ANGLE DIHED IMPRP ELECT VDW BOUNDARY MISC KINETIC TOTAL TEMP POTENTIAL TOTAL3 TEMPAVG PRESSURE GPRESSURE VOLUME PRESSAVG GPRESSAVG
ENERGY: 800000 0.0000 0.0000 0.0000 0.0000 -11817.3621 1753.3431 0.0000 0.0000 1442.4197 -8621.5993 248.6669 -10064.0190 -8619.5032 248.6669 153.3567 229.6715 29329.6752 153.3567 229.6715
ENERGY: 900000 0.0000 0.0000 0.0000 0.0000 -11260.8059 1641.5658 0.0000 0.0000 1607.0932 -8012.1468 277.0559 -9619.2400 -8007.6532 271.1727 787.2052 819.7912 29348.6355 2.7659 2.7195
TCL: Running 1000000 steps at 300 kelvin.
TCL: Setting parameter langevinTemp to 300
TCL: Running for 1000000 steps
ETITLE: TS BOND ANGLE DIHED IMPRP ELECT VDW BOUNDARY MISC KINETIC TOTAL TEMP POTENTIAL TOTAL3 TEMPAVG PRESSURE GPRESSURE VOLUME PRESSAVG GPRESSAVG
ENERGY: 900000 0.0000 0.0000 0.0000 0.0000 -11260.8059 1641.5658 0.0000 0.0000 1606.3204 -8012.9197 276.9226 -9619.2400 -8010.7490 276.9226 747.8656 821.9915 29348.6355 747.8656 821.9915
ENERGY: 1100000 0.0000 0.0000 0.0000 0.0000 -10808.6199 1520.7280 0.0000 0.0000 1738.2100 -7549.6819 299.6598 -9287.8919 -7546.5343 300.0624 573.5523 619.9547 30147.4649 2.6266 2.5604
ENERGY: 1300000 0.0000 0.0000 0.0000 0.0000 -10698.6475 1439.9294 0.0000 0.0000 1741.3857 -7517.3324 300.2073 -9258.7182 -7513.8170 300.5345 116.7144 193.9450 30038.2121 3.1057 3.1275
ENERGY: 1500000 0.0000 0.0000 0.0000 0.0000 -10671.0103 1425.0128 0.0000 0.0000 1731.7628 -7514.2347 298.5484 -9245.9975 -7508.3768 300.1830 163.9178 201.8727 29893.5462 2.3584 2.4043
ENERGY: 1700000 0.0000 0.0000 0.0000 0.0000 -10812.9742 1513.0464 0.0000 0.0000 1700.2038 -7599.7239 293.1077 -9299.9278 -7594.5531 300.6669 559.4922 630.3521 30064.8595 4.5636 4.6766
ENERGY: 1900000 0.0000 0.0000 0.0000 0.0000 -10740.4275 1442.6347 0.0000 0.0000 1792.8065 -7504.9862 309.0720 -9297.7927 -7503.1191 300.0708 339.0581 413.6552 29558.5573 2.0237 2.1585
TCL: Exiting due to exit command.
