Info: SIMULATION PARAMETERS:
Info: TIMESTEP               2
Info: NUMBER OF STEPS        0
Info: STEPS PER CYCLE        10
Info: PERIODIC CELL BASIS 1  44.344 0 0
Info: PERIODIC CELL BASIS 2  0 40.343 0
Info: PERIODIC CELL BASIS 3  0 0 44.319
Info: PERIODIC CELL CENTER   0 0 0
Info: WRAPPING WATERS AROUND PERIODIC BOUNDARIES ON OUTPUT.
Info: WRAPPING ALL CLUSTERS AROUND PERIODIC BOUNDARIES ON OUTPUT.
Info: FIRST LDB TIMESTEP     50
Info: LAST LDB TIMESTEP     -1
Info: HOM BACKGROUND SCALING 1
Info: PME BACKGROUND SCALING 1
Info: MIN ATOMS PER PATCH    40
Info: EMPTY PATCH LOAD       40 ATOMS
Info: INITIAL TEMPERATURE    300
Info: CENTER OF MASS MOVING INITIALLY? NO
Info: DIELECTRIC             1
Info: EXCLUDE                SCALED ONE-FOUR
Info: 1-4 ELECTROSTATICS SCALED BY 0.833333
Info: MODIFIED 1-4 VDW PARAMETERS WILL BE USED
Info: DCD FILENAME           mobley_8207196_min.dcd
Info: DCD FREQUENCY          5000
Info: DCD FIRST STEP         5000
Info: DCD FILE WILL CONTAIN UNIT CELL DATA
Info: XST FILENAME           mobley_8207196_min.xst
Info: XST FREQUENCY          5000
Info: NO VELOCITY DCD OUTPUT
Info: NO FORCE DCD OUTPUT
Info: OUTPUT FILENAME        mobley_8207196_min
Info: BINARY OUTPUT FILES WILL BE USED
Info: RESTART FILENAME       mobley_8207196_min.restart
Info: RESTART FREQUENCY      5000
Info: BINARY RESTART FILES WILL BE USED
Info: CUTOFF                 9
Info: PAIRLIST DISTANCE      11
Info: PAIRLIST SHRINK RATE   0.01
Info: PAIRLIST GROW RATE     0.01
Info: PAIRLIST TRIGGER       0.3
Info: PAIRLISTS PER CYCLE    2
Info: PAIRLISTS ENABLED
Info: MARGIN                 8
Info: HYDROGEN GROUP CUTOFF  2.5
Info: PATCH DIMENSION        21.5
Info: ENERGY OUTPUT STEPS    5000
Info: ENERGY EVALUATION STEPS    5000
Info: OUTPUT ENERGY PRECISION 4
Info: CROSSTERM ENERGY INCLUDED IN DIHEDRAL
Info: TIMING OUTPUT STEPS    50000
Info: PRESSURE OUTPUT STEPS  5000
Info: LANGEVIN DYNAMICS ACTIVE
Info: LANGEVIN TEMPERATURE   300
Info: LANGEVIN USING BBK INTEGRATOR
Info: LANGEVIN DAMPING COEFFICIENT IS 1 INVERSE PS
Info: LANGEVIN DYNAMICS APPLIED TO HYDROGENS
Info: LANGEVIN PISTON PRESSURE CONTROL ACTIVE
Info:        TARGET PRESSURE IS 1.01325 BAR
Info:     OSCILLATION PERIOD IS 50 FS
Info:             DECAY TIME IS 25 FS
Info:     PISTON TEMPERATURE IS 300 K
Info:       PRESSURE CONTROL IS GROUP-BASED
Info:    INITIAL STRAIN RATE IS 0 0 0
Info:       CELL FLUCTUATION IS ISOTROPIC
Info: PARTICLE MESH EWALD (PME) ACTIVE
Info: PME TOLERANCE               1e-06
Info: PME EWALD COEFFICIENT       0.348832
Info: PME INTERPOLATION ORDER     4
Info: PME GRID DIMENSIONS         48 44 48
Info: PME MAXIMUM GRID SPACING    1
Info: FULL ELECTROSTATIC EVALUATION FREQUENCY      2
Info: USING VERLET I (r-RESPA) MTS SCHEME.
Info: C1 SPLITTING OF LONG RANGE ELECTROSTATICS
Info: PLACING ATOMS IN PATCHES BY HYDROGEN GROUPS
Info: RIGID BONDS TO HYDROGEN : ALL
Info:         ERROR TOLERANCE : 1e-08
Info:          MAX ITERATIONS : 100
Info: RIGID WATER USING SETTLE ALGORITHM
Info: RANDOM NUMBER SEED     1741390853
Info: USE HYDROGEN BONDS?    NO
Info: Using AMBER format force field!
Info: AMBER PARM FILE        mobley_8207196.prmtop
Info: COORDINATE PDB         mobley_8207196.pdb
Info: Exclusions will be read from PARM file!
Info: SCNB (VDW SCALING)     2
Info: USING ARITHMETIC MEAN TO COMBINE L-J SIGMA PARAMETERS
Info: SUMMARY OF PARAMETERS:
Info: 10 BONDS
Info: 13 ANGLES
Info:   13 HARMONIC
Info:   0 COSINE-BASED
Info: 5 DIHEDRAL
Info: 0 IMPROPER
Info: 0 CROSSTERM
Info: 0 VDW
Info: 55 VDW_PAIRS
Info: 0 NBTHOLE_PAIRS
Info: STRUCTURE SUMMARY:
Info: 5845 ATOMS
Info: 5845 BONDS
Info: 42 ANGLES
Info: 50 DIHEDRALS
Info: 0 IMPROPERS
Info: 0 CROSSTERMS
Info: 5934 EXCLUSIONS
Info: 5832 RIGID BONDS
Info: 11703 DEGREES OF FREEDOM
Info: 1953 HYDROGEN GROUPS
Info: 4 ATOMS IN LARGEST HYDROGEN GROUP
Info: 1953 MIGRATION GROUPS
Info: 4 ATOMS IN LARGEST MIGRATION GROUP
Info: TOTAL MASS = 35152.7 amu
Info: TOTAL CHARGE = -0.000100024 e
Info: MASS DENSITY = 0.736249 g/cm^3
Info: ATOM DENSITY = 0.073721 atoms/A^3
Info: ADDED 0 IMPLICIT EXCLUSIONS
Info: NONBONDED TABLE R-SQUARED SPACING: 0.0625
Info: NONBONDED TABLE SIZE: 705 POINTS
Info: REMOVING COM VELOCITY 0.0369436 -0.0602775 0.0212994
TCL: Minimizing for 2000 steps
ETITLE: TS BOND ANGLE DIHED IMPRP ELECT VDW BOUNDARY MISC KINETIC TOTAL TEMP POTENTIAL TOTAL3 TEMPAVG PRESSURE GPRESSURE VOLUME PRESSAVG GPRESSAVG
ENERGY: 0 1.8327 2.8225 0.7253 0.0000 -18733.7967 2059.1847 0.0000 0.0000 0.0000 -16669.2315 0.0000 -16669.2315 -16669.2315 0.0000 11249.7259 -16569.0042 79285.3611 11249.7259 -16569.0042
ENERGY: 400 6.8224 6.1934 2.2718 0.0000 -25024.1713 3566.2143 0.0000 0.0000 0.0000 -21442.6695 0.0000 -21442.6695 -21442.6695 0.0000 16076.7877 16212.5797 79285.3611 16076.7877 16212.5797
ENERGY: 800 3.8574 4.8619 2.1707 0.0000 -26240.0820 4163.6135 0.0000 0.0000 0.0000 -22065.5784 0.0000 -22065.5784 -22065.5784 0.0000 18462.0552 18599.5621 79285.3611 18462.0552 18599.5621
ENERGY: 1200 4.4945 3.6752 2.3143 0.0000 -26691.6432 4367.6333 0.0000 0.0000 0.0000 -22313.5259 0.0000 -22313.5259 -22313.5259 0.0000 19358.6500 19480.9462 79285.3611 19358.6500 19480.9462
ENERGY: 1600 4.7082 3.4641 3.0042 0.0000 -26919.4074 4449.7735 0.0000 0.0000 0.0000 -22458.4575 0.0000 -22458.4575 -22458.4575 0.0000 19739.9510 19858.6364 79285.3611 19739.9510 19858.6364
ENERGY: 2000 4.4411 5.4527 3.5180 0.0000 -27113.5253 4546.0706 0.0000 0.0000 0.0000 -22554.0429 0.0000 -22554.0429 -22554.0429 0.0000 20142.3333 20260.9740 79285.3611 20142.3333 20260.9740
TCL: Exiting due to exit command.
Info: NAMD 3.0.1 for Linux-x86_64-multicore
Info: Please visit http://www.ks.uiuc.edu/Research/namd/
Info: for updates, documentation, and support information.
Info: Please cite Phillips et al., J. Chem. Phys. 153:044130 (2020) doi:10.1063/5.0014475
Info: in all publications reporting results obtained with NAMD.
Info: Based on Charm++/Converse 80000 for multicore-linux-x86_64-gcc
Info: Built Mon Oct 14 11:11:06 CDT 2024 by dhardy on athine.ks.uiuc.edu
Info: 1 NAMD  3.0.1  Linux-x86_64-multicore  16    k027  z5358697
Info: Running on 16 processors, 1 nodes, 1 physical nodes.
Info: CPU topology information available.
Info: Charm++/Converse parallel runtime startup completed at 0.00738316 s
Info: 1043.46 MB of memory in use based on /proc/self/stat
Info: Configuration file is mobley_8207196_equil.namd
Info: Working in the current directory /srv/scratch/z5358697/prod_prep_10/8207196
TCL: Running 25000 steps at 30 kelvin.
TCL: Suspending until startup complete.
Info: SIMULATION PARAMETERS:
Info: TIMESTEP               2
Info: NUMBER OF STEPS        0
Info: STEPS PER CYCLE        10
Info: PERIODIC CELL BASIS 1  44.344 0 0
Info: PERIODIC CELL BASIS 2  0 40.343 0
Info: PERIODIC CELL BASIS 3  0 0 44.319
Info: PERIODIC CELL CENTER   0 0 0
Info: WRAPPING WATERS AROUND PERIODIC BOUNDARIES ON OUTPUT.
Info: WRAPPING ALL CLUSTERS AROUND PERIODIC BOUNDARIES ON OUTPUT.
Info: FIRST LDB TIMESTEP     50
Info: LAST LDB TIMESTEP     -1
Info: HOM BACKGROUND SCALING 1
Info: PME BACKGROUND SCALING 1
Info: MIN ATOMS PER PATCH    40
Info: EMPTY PATCH LOAD       40 ATOMS
Info: INITIAL TEMPERATURE    300
Info: CENTER OF MASS MOVING INITIALLY? NO
Info: DIELECTRIC             1
Info: EXCLUDE                SCALED ONE-FOUR
Info: 1-4 ELECTROSTATICS SCALED BY 0.833333
Info: MODIFIED 1-4 VDW PARAMETERS WILL BE USED
Info: DCD FILENAME           mobley_8207196_equil.dcd
Info: DCD FREQUENCY          5000
Info: DCD FIRST STEP         5000
Info: DCD FILE WILL CONTAIN UNIT CELL DATA
Info: XST FILENAME           mobley_8207196_equil.xst
Info: XST FREQUENCY          5000
Info: NO VELOCITY DCD OUTPUT
Info: NO FORCE DCD OUTPUT
Info: OUTPUT FILENAME        mobley_8207196_equil
Info: BINARY OUTPUT FILES WILL BE USED
Info: RESTART FILENAME       mobley_8207196_equil.restart
Info: RESTART FREQUENCY      5000
Info: BINARY RESTART FILES WILL BE USED
Info: CUTOFF                 9
Info: PAIRLIST DISTANCE      11
Info: PAIRLIST SHRINK RATE   0.01
Info: PAIRLIST GROW RATE     0.01
Info: PAIRLIST TRIGGER       0.3
Info: PAIRLISTS PER CYCLE    2
Info: PAIRLISTS ENABLED
Info: MARGIN                 8
Info: HYDROGEN GROUP CUTOFF  2.5
Info: PATCH DIMENSION        21.5
Info: ENERGY OUTPUT STEPS    5000
Info: ENERGY EVALUATION STEPS    5000
Info: OUTPUT ENERGY PRECISION 4
Info: CROSSTERM ENERGY INCLUDED IN DIHEDRAL
Info: TIMING OUTPUT STEPS    50000
Info: PRESSURE OUTPUT STEPS  5000
Info: LANGEVIN DYNAMICS ACTIVE
Info: LANGEVIN TEMPERATURE   30
Info: LANGEVIN USING BBK INTEGRATOR
Info: LANGEVIN DAMPING COEFFICIENT IS 1 INVERSE PS
Info: LANGEVIN DYNAMICS APPLIED TO HYDROGENS
Info: LANGEVIN PISTON PRESSURE CONTROL ACTIVE
Info:        TARGET PRESSURE IS 1.01325 BAR
Info:     OSCILLATION PERIOD IS 50 FS
Info:             DECAY TIME IS 25 FS
Info:     PISTON TEMPERATURE IS 300 K
Info:       PRESSURE CONTROL IS GROUP-BASED
Info:    INITIAL STRAIN RATE IS 0 0 0
Info:       CELL FLUCTUATION IS ISOTROPIC
Info: PARTICLE MESH EWALD (PME) ACTIVE
Info: PME TOLERANCE               1e-06
Info: PME EWALD COEFFICIENT       0.348832
Info: PME INTERPOLATION ORDER     4
Info: PME GRID DIMENSIONS         48 44 48
Info: PME MAXIMUM GRID SPACING    1
Info: FULL ELECTROSTATIC EVALUATION FREQUENCY      2
Info: USING VERLET I (r-RESPA) MTS SCHEME.
Info: C1 SPLITTING OF LONG RANGE ELECTROSTATICS
Info: PLACING ATOMS IN PATCHES BY HYDROGEN GROUPS
Info: RIGID BONDS TO HYDROGEN : ALL
Info:         ERROR TOLERANCE : 1e-08
Info:          MAX ITERATIONS : 100
Info: RIGID WATER USING SETTLE ALGORITHM
Info: RANDOM NUMBER SEED     1741390881
Info: USE HYDROGEN BONDS?    NO
Info: Using AMBER format force field!
Info: AMBER PARM FILE        mobley_8207196.prmtop
Info: COORDINATE PDB         mobley_8207196.pdb
Info: Exclusions will be read from PARM file!
Info: SCNB (VDW SCALING)     2
Info: USING ARITHMETIC MEAN TO COMBINE L-J SIGMA PARAMETERS
Info: BINARY COORDINATES     mobley_8207196_min.coor
Info: SUMMARY OF PARAMETERS:
Info: 10 BONDS
Info: 13 ANGLES
Info:   13 HARMONIC
Info:   0 COSINE-BASED
Info: 5 DIHEDRAL
Info: 0 IMPROPER
Info: 0 CROSSTERM
Info: 0 VDW
Info: 55 VDW_PAIRS
Info: 0 NBTHOLE_PAIRS
Info: STRUCTURE SUMMARY:
Info: 5845 ATOMS
Info: 5845 BONDS
Info: 42 ANGLES
Info: 50 DIHEDRALS
Info: 0 IMPROPERS
Info: 0 CROSSTERMS
Info: 5934 EXCLUSIONS
Info: 5832 RIGID BONDS
Info: 11703 DEGREES OF FREEDOM
Info: 1953 HYDROGEN GROUPS
Info: 4 ATOMS IN LARGEST HYDROGEN GROUP
Info: 1953 MIGRATION GROUPS
Info: 4 ATOMS IN LARGEST MIGRATION GROUP
Info: TOTAL MASS = 35152.7 amu
Info: TOTAL CHARGE = -0.000100024 e
Info: MASS DENSITY = 0.736249 g/cm^3
Info: ATOM DENSITY = 0.073721 atoms/A^3
Info: ADDED 0 IMPLICIT EXCLUSIONS
Info: NONBONDED TABLE R-SQUARED SPACING: 0.0625
Info: NONBONDED TABLE SIZE: 705 POINTS
Info: REMOVING COM VELOCITY -0.0923137 -0.0959648 0.0946692
TCL: Running for 25000 steps
ETITLE: TS BOND ANGLE DIHED IMPRP ELECT VDW BOUNDARY MISC KINETIC TOTAL TEMP POTENTIAL TOTAL3 TEMPAVG PRESSURE GPRESSURE VOLUME PRESSAVG GPRESSAVG
ENERGY: 0 4.4411 5.4527 3.5180 0.0000 -27113.5253 4546.0706 0.0000 0.0000 3462.0313 -19092.0116 297.7311 -22554.0429 -19091.2807 297.7311 34.5525 80.3712 79285.3611 34.5525 80.3712
ENERGY: 5000 3.2196 5.0436 3.6822 0.0000 -28369.7550 4705.1706 0.0000 0.0000 355.7216 -23296.9173 30.5917 -23652.6389 -23295.9682 48.1509 -512.1914 -470.6452 56985.3712 0.1915 0.1483
ENERGY: 10000 4.6006 7.8554 4.2565 0.0000 -28636.3245 4919.9103 0.0000 0.0000 345.1492 -23354.5525 29.6825 -23699.7017 -23353.5346 30.1618 348.6843 410.8202 56557.1532 1.7267 1.7931
ENERGY: 15000 3.0863 9.3564 4.2365 0.0000 -28419.6372 4682.3421 0.0000 0.0000 352.0757 -23368.5402 30.2781 -23720.6160 -23367.3971 30.1320 -717.0623 -657.4266 56831.0351 4.0111 4.0854
ENERGY: 20000 3.3826 9.2919 6.1306 0.0000 -28565.8348 4830.7204 0.0000 0.0000 341.1873 -23375.1220 29.3418 -23716.3093 -23374.6136 30.0063 -57.8516 -10.3041 56558.2197 3.3739 3.4619
ENERGY: 25000 4.0416 8.0978 4.0539 0.0000 -28543.0983 4798.8740 0.0000 0.0000 349.6898 -23378.3414 30.0730 -23728.0311 -23377.1994 29.9661 -223.3534 -155.8016 56574.5306 -1.4816 -1.4928
TCL: Running 25000 steps at 60 kelvin.
TCL: Setting parameter langevinTemp to 60
TCL: Running for 25000 steps
ETITLE: TS BOND ANGLE DIHED IMPRP ELECT VDW BOUNDARY MISC KINETIC TOTAL TEMP POTENTIAL TOTAL3 TEMPAVG PRESSURE GPRESSURE VOLUME PRESSAVG GPRESSAVG
ENERGY: 25000 4.0416 8.0978 4.0539 0.0000 -28543.0983 4798.8740 0.0000 0.0000 349.5173 -23378.5138 30.0581 -23728.0311 -23377.8448 30.0581 -205.9875 -155.6383 56574.5306 -205.9875 -155.6383
ENERGY: 30000 4.0390 8.8859 4.3254 0.0000 -28006.6631 4591.0417 0.0000 0.0000 701.2958 -22697.0753 60.3107 -23398.3711 -22694.4564 57.2465 -500.7819 -465.4341 57031.2240 1.3330 1.2210
ENERGY: 35000 4.3598 9.1732 4.7360 0.0000 -28279.6273 4815.2043 0.0000 0.0000 694.7126 -22751.4414 59.7446 -23446.1541 -22750.4620 59.8360 419.0401 476.9095 56512.2261 3.7772 3.9251
ENERGY: 40000 5.5745 7.3122 4.3603 0.0000 -28049.5358 4572.6316 0.0000 0.0000 697.9561 -22761.7010 60.0235 -23459.6571 -22760.3948 59.9971 -667.1482 -607.3718 56556.3094 -0.4561 -0.3737
ENERGY: 45000 3.9237 7.3487 4.6233 0.0000 -28255.5351 4742.6751 0.0000 0.0000 696.3286 -22800.6356 59.8835 -23496.9643 -22799.4407 60.3822 44.2147 83.7843 56237.1811 -0.2598 -0.2125
ENERGY: 50000 4.7904 7.3288 4.2594 0.0000 -28070.1098 4548.6886 0.0000 0.0000 706.9737 -22798.0689 60.7990 -23505.0425 -22796.6828 60.1461 -878.2563 -821.4617 56719.5294 -0.1281 -0.3245
TCL: Running 25000 steps at 90 kelvin.
TCL: Setting parameter langevinTemp to 90
TCL: Running for 25000 steps
ETITLE: TS BOND ANGLE DIHED IMPRP ELECT VDW BOUNDARY MISC KINETIC TOTAL TEMP POTENTIAL TOTAL3 TEMPAVG PRESSURE GPRESSURE VOLUME PRESSAVG GPRESSAVG
ENERGY: 50000 4.7904 7.3288 4.2594 0.0000 -28070.1098 4548.6886 0.0000 0.0000 706.6144 -22798.4281 60.7681 -23505.0425 -22796.8677 60.7681 -870.7134 -822.1478 56719.5294 -870.7134 -822.1478
ENERGY: 55000 6.7215 7.2884 6.7396 0.0000 -27843.3639 4626.5700 0.0000 0.0000 1047.3099 -22148.7343 90.0676 -23196.0442 -22146.0679 86.6108 0.3867 81.4566 56650.2349 3.1864 3.1402
ENERGY: 60000 6.6042 7.0524 6.7891 0.0000 -27786.4404 4573.5171 0.0000 0.0000 1039.7244 -22152.7531 89.4152 -23192.4775 -22150.9690 90.0524 -137.7501 -83.1627 56630.9270 4.0365 4.2577
ENERGY: 65000 6.5841 9.0396 6.0433 0.0000 -27746.4540 4492.1918 0.0000 0.0000 1030.1426 -22202.4526 88.5912 -23232.5952 -22198.6637 89.8776 -704.6824 -649.6397 56949.3383 -1.3267 -1.4012
ENERGY: 70000 4.8715 7.9952 4.4493 0.0000 -27818.9252 4555.7060 0.0000 0.0000 1094.7310 -22151.1722 94.1457 -23245.9032 -22147.6303 90.4065 -416.0664 -361.0484 56866.9573 3.3463 3.2731
ENERGY: 75000 3.7192 7.6280 5.7001 0.0000 -28042.5304 4749.2717 0.0000 0.0000 1066.7876 -22209.4237 91.7426 -23276.2113 -22206.6077 90.3400 393.3752 463.7830 56436.5051 2.9706 3.1228
TCL: Running 25000 steps at 120 kelvin.
TCL: Setting parameter langevinTemp to 120
TCL: Running for 25000 steps
ETITLE: TS BOND ANGLE DIHED IMPRP ELECT VDW BOUNDARY MISC KINETIC TOTAL TEMP POTENTIAL TOTAL3 TEMPAVG PRESSURE GPRESSURE VOLUME PRESSAVG GPRESSAVG
ENERGY: 75000 3.7192 7.6280 5.7001 0.0000 -28042.5304 4749.2717 0.0000 0.0000 1066.2758 -22209.9355 91.6986 -23276.2113 -22208.0114 91.6986 398.3047 463.7465 56436.5051 398.3047 463.7465
ENERGY: 80000 3.4967 8.0029 5.8090 0.0000 -27391.9200 4473.5323 0.0000 0.0000 1401.6128 -21499.4663 120.5372 -22901.0791 -21495.1859 116.7514 -223.1014 -150.2961 57308.1410 2.7802 2.8359
ENERGY: 85000 4.9922 8.7210 5.5044 0.0000 -27538.8155 4576.5652 0.0000 0.0000 1394.2466 -21548.7861 119.9038 -22943.0327 -21545.7955 120.5423 245.5058 295.4718 57036.5478 3.7070 3.6350
ENERGY: 90000 5.3621 7.2343 5.3493 0.0000 -27493.0705 4475.5585 0.0000 0.0000 1432.3569 -21567.2094 123.1812 -22999.5663 -21563.6730 120.5732 -241.2988 -171.5010 57039.5023 0.3017 0.8539
ENERGY: 95000 3.7309 7.5057 6.6342 0.0000 -27471.7754 4448.7450 0.0000 0.0000 1412.8275 -21592.3322 121.5017 -23005.1596 -21590.1712 120.2555 -431.5737 -379.1609 56950.0916 4.0325 3.8644
ENERGY: 100000 4.7974 9.6518 5.5688 0.0000 -27545.9938 4501.9562 0.0000 0.0000 1414.3084 -21609.7113 121.6290 -23024.0197 -21606.1408 120.1097 -196.8891 -117.5639 56686.8172 0.1555 -0.2695
TCL: Running 25000 steps at 150 kelvin.
TCL: Setting parameter langevinTemp to 150
TCL: Running for 25000 steps
ETITLE: TS BOND ANGLE DIHED IMPRP ELECT VDW BOUNDARY MISC KINETIC TOTAL TEMP POTENTIAL TOTAL3 TEMPAVG PRESSURE GPRESSURE VOLUME PRESSAVG GPRESSAVG
ENERGY: 100000 4.7974 9.6518 5.5688 0.0000 -27545.9938 4501.9562 0.0000 0.0000 1413.6253 -21610.3944 121.5703 -23024.0197 -21607.6952 121.5703 -187.6477 -117.6081 56686.8172 -187.6477 -117.6081
ENERGY: 105000 5.0849 7.4457 6.3719 0.0000 -26906.9223 4296.5468 0.0000 0.0000 1725.1128 -20866.3601 148.3579 -22591.4729 -20863.0384 146.8994 -394.1013 -292.7006 57480.2119 2.5148 2.2042
ENERGY: 110000 7.0264 10.2521 5.4286 0.0000 -27076.5976 4432.1299 0.0000 0.0000 1713.8322 -20907.9285 147.3878 -22621.7607 -20902.5561 149.8191 252.9746 304.2056 57110.7600 -3.0222 -2.8515
ENERGY: 115000 5.7560 6.2085 4.4928 0.0000 -27077.8829 4461.6105 0.0000 0.0000 1744.9883 -20854.8269 150.0672 -22599.8152 -20848.8400 150.4370 289.5668 336.1647 57294.8842 -1.8953 -1.8851
ENERGY: 120000 2.6167 11.4205 6.2083 0.0000 -27078.7415 4349.8703 0.0000 0.0000 1706.0848 -21002.5409 146.7215 -22708.6257 -20997.4281 149.5138 -361.4684 -323.8597 57180.1030 4.2798 4.2025
ENERGY: 125000 4.8921 10.0454 7.3411 0.0000 -27183.5947 4488.3355 0.0000 0.0000 1751.3699 -20921.6107 150.6160 -22672.9806 -20917.7461 149.8555 417.0355 472.9561 56796.9234 4.3938 3.6014
TCL: Running 50000 steps at 180 kelvin.
TCL: Setting parameter langevinTemp to 180
TCL: Running for 50000 steps
ETITLE: TS BOND ANGLE DIHED IMPRP ELECT VDW BOUNDARY MISC KINETIC TOTAL TEMP POTENTIAL TOTAL3 TEMPAVG PRESSURE GPRESSURE VOLUME PRESSAVG GPRESSAVG
ENERGY: 125000 4.8921 10.0454 7.3411 0.0000 -27183.5947 4488.3355 0.0000 0.0000 1750.5212 -20922.4594 150.5430 -22672.9806 -20919.6352 150.5430 419.3496 472.9317 56796.9234 419.3496 472.9317
ENERGY: 135000 6.2267 8.6002 5.7871 0.0000 -26321.4321 4176.2717 0.0000 0.0000 2061.9076 -20062.6387 177.3219 -22124.5464 -20057.7619 179.8842 -9.5722 68.0935 57286.9470 4.1122 3.9433
ENERGY: 145000 5.4775 9.2634 7.6525 0.0000 -26161.8671 4024.8117 0.0000 0.0000 2115.6693 -19998.9926 181.9454 -22114.6620 -19996.0400 179.8706 -622.9331 -556.2158 57323.7286 3.6150 3.0754
ENERGY: 155000 7.5813 9.3599 7.5098 0.0000 -26357.2009 4233.3339 0.0000 0.0000 2066.1869 -20033.2291 177.6899 -22099.4160 -20026.5971 180.1422 202.4841 254.6049 57059.2271 3.8068 3.3949
ENERGY: 165000 7.1736 9.6508 5.7059 0.0000 -26593.9182 4412.7072 0.0000 0.0000 2070.5182 -20088.1626 178.0624 -22158.6807 -20081.7326 178.5622 1063.2655 1120.1797 56746.0252 -2.4774 -2.2669
ENERGY: 175000 7.7909 11.0739 8.4815 0.0000 -26271.6150 4108.1212 0.0000 0.0000 2054.8120 -20081.3355 176.7117 -22136.1475 -20075.6084 179.4286 -274.4524 -227.7398 57290.2754 -4.8771 -4.7409
TCL: Running 50000 steps at 210 kelvin.
TCL: Setting parameter langevinTemp to 210
TCL: Running for 50000 steps
ETITLE: TS BOND ANGLE DIHED IMPRP ELECT VDW BOUNDARY MISC KINETIC TOTAL TEMP POTENTIAL TOTAL3 TEMPAVG PRESSURE GPRESSURE VOLUME PRESSAVG GPRESSAVG
ENERGY: 175000 7.7909 11.0739 8.4815 0.0000 -26271.6150 4108.1212 0.0000 0.0000 2053.7983 -20082.3492 176.6245 -22136.1475 -20078.6336 176.6245 -286.9077 -227.4503 57290.2754 -286.9077 -227.4503
ENERGY: 185000 7.2088 17.9631 8.4098 0.0000 -25312.7015 3964.0355 0.0000 0.0000 2466.6100 -18848.4742 212.1259 -21315.0843 -18841.8519 209.5618 808.2641 868.1688 56798.4175 0.2707 -0.3063
ENERGY: 195000 5.3337 15.2544 6.6120 0.0000 -25197.6115 3792.8510 0.0000 0.0000 2427.4560 -18950.1044 208.7587 -21377.5603 -18945.2504 208.8334 4.1801 55.9000 56774.8607 -1.4104 -1.3115
ENERGY: 205000 6.0634 12.9638 5.1331 0.0000 -25050.7905 3680.1901 0.0000 0.0000 2445.3924 -18901.0477 210.3012 -21346.4402 -18896.0564 209.9426 -677.8889 -563.7641 57694.1488 5.1982 5.5384
ENERGY: 215000 6.2804 24.2119 7.3536 0.0000 -25115.8906 3842.7988 0.0000 0.0000 2436.9007 -18798.3452 209.5709 -21235.2459 -18792.7523 211.1235 345.6919 439.4426 56688.8786 -1.8179 -2.2336
ENERGY: 225000 4.8071 13.8503 7.7274 0.0000 -24921.3181 3701.4117 0.0000 0.0000 2462.6053 -18730.9163 211.7815 -21193.5216 -18724.7145 210.5491 -270.6015 -235.0529 57286.3205 -0.4978 -0.2839
TCL: Running 50000 steps at 240 kelvin.
TCL: Setting parameter langevinTemp to 240
TCL: Running for 50000 steps
ETITLE: TS BOND ANGLE DIHED IMPRP ELECT VDW BOUNDARY MISC KINETIC TOTAL TEMP POTENTIAL TOTAL3 TEMPAVG PRESSURE GPRESSURE VOLUME PRESSAVG GPRESSAVG
ENERGY: 225000 4.8071 13.8503 7.7274 0.0000 -24921.3181 3701.4117 0.0000 0.0000 2461.4139 -18732.1078 211.6790 -21193.5216 -18728.2562 211.6790 -305.2518 -233.7811 57286.3205 -305.2518 -233.7811
ENERGY: 235000 7.8525 12.9263 8.7493 0.0000 -23812.5888 3424.4701 0.0000 0.0000 2792.3239 -17566.2666 240.1369 -20358.5906 -17561.7721 239.1426 365.8946 433.1068 56893.4392 1.3160 1.3113
ENERGY: 245000 5.0300 11.1332 5.6783 0.0000 -23477.7812 3154.3451 0.0000 0.0000 2802.4519 -17499.1427 241.0079 -20301.5946 -17493.1184 240.2932 -929.1531 -832.3185 57996.5459 3.0298 2.9942
ENERGY: 255000 4.3367 15.2014 4.5880 0.0000 -23649.4690 3310.0534 0.0000 0.0000 2843.8624 -17471.4270 244.5692 -20315.2894 -17466.0471 240.1310 -361.3242 -281.1317 57915.0864 0.3407 0.2010
ENERGY: 265000 9.0286 15.8888 8.4987 0.0000 -23898.9146 3504.5092 0.0000 0.0000 2771.4235 -17589.5659 238.3395 -20360.9893 -17585.7622 240.4513 461.2756 525.1808 57424.9381 2.7751 2.4950
ENERGY: 275000 7.7476 9.3876 9.7521 0.0000 -23690.2152 3370.1674 0.0000 0.0000 2804.7934 -17488.3672 241.2093 -20293.1606 -17481.7110 239.8459 -191.3478 -132.5345 58284.6429 2.3315 2.8262
TCL: Running 50000 steps at 270 kelvin.
TCL: Setting parameter langevinTemp to 270
TCL: Running for 50000 steps
ETITLE: TS BOND ANGLE DIHED IMPRP ELECT VDW BOUNDARY MISC KINETIC TOTAL TEMP POTENTIAL TOTAL3 TEMPAVG PRESSURE GPRESSURE VOLUME PRESSAVG GPRESSAVG
ENERGY: 275000 7.7476 9.3876 9.7521 0.0000 -23690.2152 3370.1674 0.0000 0.0000 2803.4045 -17489.7561 241.0899 -20293.1606 -17485.2285 241.0899 -223.0134 -132.2597 58284.6429 -223.0134 -132.2597
ENERGY: 285000 13.2205 17.3050 6.2300 0.0000 -22896.7645 3142.3311 0.0000 0.0000 3185.7158 -16531.9622 273.9682 -19717.6779 -16523.7664 269.6836 85.2410 142.9366 58192.4121 2.1260 1.6400
ENERGY: 295000 6.1659 17.4146 7.2755 0.0000 -22773.6080 3178.5665 0.0000 0.0000 3100.7849 -16463.4005 266.6643 -19564.1854 -16457.1610 268.8684 200.9219 286.8311 58867.5395 3.2475 3.3045
ENERGY: 305000 6.3307 16.3441 4.3928 0.0000 -22669.6776 3026.2104 0.0000 0.0000 3127.7140 -16488.6855 268.9801 -19616.3995 -16481.7589 268.9124 -432.4886 -388.9150 58959.1356 2.0758 2.0353
ENERGY: 315000 6.1113 13.5052 7.3822 0.0000 -22858.8862 3194.4106 0.0000 0.0000 3173.3625 -16464.1144 272.9059 -19637.4769 -16458.9499 269.6231 301.0181 372.1020 58590.0417 1.5218 1.3607
ENERGY: 325000 5.3085 16.7460 7.4784 0.0000 -22753.6846 3192.9753 0.0000 0.0000 3107.5487 -16423.6277 267.2459 -19531.1764 -16416.1139 270.0284 424.1336 541.5745 58405.1782 3.1456 2.9172
TCL: Running 1000000 steps at 300 kelvin.
TCL: Setting parameter langevinTemp to 300
TCL: Running for 1000000 steps
ETITLE: TS BOND ANGLE DIHED IMPRP ELECT VDW BOUNDARY MISC KINETIC TOTAL TEMP POTENTIAL TOTAL3 TEMPAVG PRESSURE GPRESSURE VOLUME PRESSAVG GPRESSAVG
ENERGY: 325000 5.3085 16.7460 7.4784 0.0000 -22753.6846 3192.9753 0.0000 0.0000 3105.9206 -16425.2557 267.1059 -19531.1764 -16421.6124 267.1059 448.1335 543.1008 58405.1782 448.1335 543.1008
ENERGY: 525000 5.1775 17.8316 7.9332 0.0000 -21459.6011 2658.8010 0.0000 0.0000 3504.9464 -15264.9114 301.4217 -18769.8578 -15257.1337 301.1867 -942.8967 -886.9395 61146.6018 -2.3888 -1.6208
ENERGY: 725000 14.3665 16.6070 5.6977 0.0000 -21577.4341 2798.7545 0.0000 0.0000 3398.9730 -15343.0353 292.3081 -18742.0084 -15337.4389 299.6447 -112.8467 -60.2250 60154.7513 5.4044 4.6059
ENERGY: 925000 6.6031 18.2998 10.5827 0.0000 -21658.0132 2847.8240 0.0000 0.0000 3543.2775 -15231.4260 304.7182 -18774.7035 -15225.7299 301.3812 -221.7058 -123.2475 60433.9980 3.9630 3.7393
ENERGY: 1125000 8.1338 14.8592 8.7350 0.0000 -21825.8967 2945.8218 0.0000 0.0000 3544.5947 -15303.7522 304.8314 -18848.3469 -15300.4303 300.2950 415.9725 454.5638 60105.2945 -3.5367 -3.2840
ENERGY: 1325000 6.0811 15.5022 10.0871 0.0000 -21400.5544 2728.7280 0.0000 0.0000 3584.9461 -15055.2099 308.3016 -18640.1561 -15047.4755 300.5128 -356.6575 -279.0896 60660.0609 1.6079 1.6133
TCL: Exiting due to exit command.
