Info: SIMULATION PARAMETERS:
Info: TIMESTEP               2
Info: NUMBER OF STEPS        0
Info: STEPS PER CYCLE        10
Info: PERIODIC CELL BASIS 1  82.0262 0 0
Info: PERIODIC CELL BASIS 2  0 82.0262 0
Info: PERIODIC CELL BASIS 3  0 0 82.0262
Info: PERIODIC CELL CENTER   39.211 39.211 39.211
Info: WRAPPING ALL CLUSTERS AROUND PERIODIC BOUNDARIES ON OUTPUT.
Info: FIRST LDB TIMESTEP     50
Info: LAST LDB TIMESTEP     -1
Info: HOM BACKGROUND SCALING 1
Info: PME BACKGROUND SCALING 1
Info: MIN ATOMS PER PATCH    40
Info: EMPTY PATCH LOAD       40 ATOMS
Info: VELOCITY FILE          mobley_1323538_equilibrated.vel
Info: CENTER OF MASS MOVING INITIALLY? NO
Info: DIELECTRIC             1
Info: EXCLUDE                SCALED ONE-FOUR
Info: 1-4 ELECTROSTATICS SCALED BY 1
Info: MODIFIED 1-4 VDW PARAMETERS WILL BE USED
Info: DCD FILENAME           mobley_1323538_backwards.dcd
Info: DCD FREQUENCY          500
Info: DCD FIRST STEP         500
Info: DCD FILE WILL CONTAIN UNIT CELL DATA
Info: NO EXTENDED SYSTEM TRAJECTORY OUTPUT
Info: NO VELOCITY DCD OUTPUT
Info: NO FORCE DCD OUTPUT
Info: OUTPUT FILENAME        mobley_1323538_backwards
Info: BINARY OUTPUT FILES WILL BE USED
Info: NO RESTART FILE
Info: SWITCHING ACTIVE
Info: SWITCHING ON           10
Info: SWITCHING OFF          12
Info: PAIRLIST DISTANCE      14
Info: PAIRLIST SHRINK RATE   0.01
Info: PAIRLIST GROW RATE     0.01
Info: PAIRLIST TRIGGER       0.3
Info: PAIRLISTS PER CYCLE    2
Info: PAIRLISTS ENABLED
Info: MARGIN                 8
Info: HYDROGEN GROUP CUTOFF  2.5
Info: PATCH DIMENSION        24.5
Info: ENERGY OUTPUT STEPS    500
Info: ENERGY EVALUATION STEPS    500
Info: OUTPUT ENERGY PRECISION 4
Info: CROSSTERM ENERGY INCLUDED IN DIHEDRAL
Info: TIMING OUTPUT STEPS    500
Info: PRESSURE OUTPUT STEPS  500
Info: ALCHEMICAL FEP ON
Info: FEP CURRENT LAMBDA VALUE     1
Info: FEP COMPARISON LAMBDA VALUE  0.9375
Info: FEP INTRA-ALCHEMICAL NON-BONDED INTERACTIONS WILL BE DECOUPLED
Info: FEP INTRA-ALCHEMICAL BONDED INTERACTIONS WILL BE RETAINED
Info: FEP VDW SHIFTING COEFFICIENT 6
Info: FEP ELEC. ACTIVE FOR ANNIHILATED PARTICLES BETWEEN LAMBDA = 0 AND LAMBDA = 0.5
Info: FEP ELEC. ACTIVE FOR EXNIHILATED PARTICLES BETWEEN LAMBDA = 0.5 AND LAMBDA = 1
Info: FEP VDW ACTIVE FOR ANNIHILATED PARTICLES BETWEEN LAMBDA = 0 AND LAMBDA = 1
Info: FEP VDW ACTIVE FOR EXNIHILATED PARTICLES BETWEEN LAMBDA = 0 AND LAMBDA = 1
Info: FEP BOND ACTIVE FOR ANNIHILATED PARTICLES BETWEEN LAMBDA = 1 AND LAMBDA = 1
Info: FEP BOND ACTIVE FOR EXNIHILATED PARTICLES BETWEEN LAMBDA = 0 AND LAMBDA = 0
Info: LANGEVIN DYNAMICS ACTIVE
Info: LANGEVIN TEMPERATURE   298
Info: LANGEVIN USING BBK INTEGRATOR
Info: LANGEVIN DAMPING COEFFICIENT IS 1 INVERSE PS
Info: LANGEVIN DYNAMICS NOT APPLIED TO HYDROGENS
Info: LANGEVIN PISTON PRESSURE CONTROL ACTIVE
Info:        TARGET PRESSURE IS 1.01325 BAR
Info:     OSCILLATION PERIOD IS 100 FS
Info:             DECAY TIME IS 50 FS
Info:     PISTON TEMPERATURE IS 298 K
Info:       PRESSURE CONTROL IS GROUP-BASED
Info:    INITIAL STRAIN RATE IS -3.99827e-05 -3.99827e-05 -3.99827e-05
Info:       CELL FLUCTUATION IS ISOTROPIC
Info: PARTICLE MESH EWALD (PME) ACTIVE
Info: PME TOLERANCE               1e-05
Info: PME EWALD COEFFICIENT       0.226635
Info: PME INTERPOLATION ORDER     4
Info: PME GRID DIMENSIONS         84 84 84
Info: PME MAXIMUM GRID SPACING    1
Info: FULL ELECTROSTATIC EVALUATION FREQUENCY      1
Info: USING VERLET I (r-RESPA) MTS SCHEME.
Info: C1 SPLITTING OF LONG RANGE ELECTROSTATICS
Info: PLACING ATOMS IN PATCHES BY HYDROGEN GROUPS
Info: RIGID BONDS TO HYDROGEN : ALL
Info:         ERROR TOLERANCE : 1e-08
Info:          MAX ITERATIONS : 100
Info: RIGID WATER USING SETTLE ALGORITHM
Info: RANDOM NUMBER SEED     1740633812
Info: USE HYDROGEN BONDS?    NO
Info: COORDINATE PDB         mobley_1323538.pdb
Info: STRUCTURE FILE         mobley_1323538.psf
Info: PARAMETER file: CHARMM format!
Info: PARAMETERS             ../common/par_all27_prot_lipid.inp
Info: PARAMETERS             mobley_1323538.prm
Info: USING ARITHMETIC MEAN TO COMBINE L-J SIGMA PARAMETERS
Info: BINARY COORDINATES     mobley_1323538_equilibrated.coor
Info: SUMMARY OF PARAMETERS:
Info: 186 BONDS
Info: 456 ANGLES
Info: 574 DIHEDRAL
Info: 46 IMPROPER
Info: 6 CROSSTERM
Info: 125 VDW
Info: 0 VDW_PAIRS
Info: 0 NBTHOLE_PAIRS
Info: To read alchdata from file: mobley_1323538.pdb
Info: To read alchflag data from column: 5
Info: STRUCTURE SUMMARY:
Info: 5537 ATOMS
Info: 3699 BONDS
Info: 1882 ANGLES
Info: 45 DIHEDRALS
Info: 0 IMPROPERS
Info: 0 CROSSTERMS
Info: 0 EXCLUSIONS
Info: 5526 RIGID BONDS
Info: ALCH: 0 ATOMS TO DISAPPEAR IN FINAL STATE
Info: ALCH: 26 ATOMS TO APPEAR IN FINAL STATE
Info: 11085 DEGREES OF FREEDOM
Info: 1848 HYDROGEN GROUPS
Info: 4 ATOMS IN LARGEST HYDROGEN GROUP
Info: 1848 MIGRATION GROUPS
Info: 4 ATOMS IN LARGEST MIGRATION GROUP
Info: TOTAL MASS = 33276.4 amu
Info: TOTAL CHARGE = -1.8701e-06 e
Info: MASS DENSITY = 0.100124 g/cm^3
Info: ATOM DENSITY = 0.0100327 atoms/A^3
Info: ADDED 5626 IMPLICIT EXCLUSIONS
Info: NONBONDED TABLE R-SQUARED SPACING: 0.0625
Info: NONBONDED TABLE SIZE: 769 POINTS
Info: REMOVING COM VELOCITY 0.147991 0.195428 0.115587
TCL: Running for 5000 steps
ETITLE: TS BOND ANGLE DIHED IMPRP ELECT VDW BOUNDARY MISC KINETIC TOTAL TEMP POTENTIAL TOTAL3 TEMPAVG PRESSURE GPRESSURE VOLUME PRESSAVG GPRESSAVG
ENERGY: 0 2.5387 12.4905 16.8593 0.0000 -19388.1917 2100.7019 0.0000 0.0000 3324.1322 -13931.4692 301.8095 -17255.6014 -13924.9999 301.8095 25.0079 25.1948 551896.0030 25.0079 25.1948
ENERGY: 1000 3.0560 10.0361 17.9150 0.0000 -19292.2657 2042.1378 0.0000 0.0000 3280.3159 -13938.8049 297.8313 -17219.1208 -13931.8147 295.6977 22.2282 23.1546 556955.0043 2.5892 2.5780
ENERGY: 2000 3.0810 7.1598 14.2205 0.0000 -19230.1030 1998.0808 0.0000 0.0000 3289.2508 -13918.3100 298.6425 -17207.5609 -13912.8878 297.5177 16.2234 16.2608 557348.8283 0.9494 0.9365
ENERGY: 3000 5.0520 12.5274 13.7982 0.0000 -19187.5554 1950.2522 0.0000 0.0000 3255.9312 -13949.9943 295.6173 -17205.9255 -13944.8354 297.6586 -26.6736 -27.5807 556789.5261 1.6495 1.6444
ENERGY: 4000 3.4581 15.5887 15.2185 0.0000 -19176.6295 1946.0978 0.0000 0.0000 3305.7825 -13890.4840 300.1435 -17196.2666 -13885.1294 297.6717 -27.9896 -28.6860 550225.9957 -2.0896 -2.0865
ENERGY: 5000 1.7317 7.3125 13.0910 0.0000 -19152.1354 1975.7768 0.0000 0.0000 3267.0353 -13887.1882 296.6255 -17154.2234 -13881.0073 300.8901 -5.2214 -4.4715 560808.4694 2.3417 2.3422
TCL: Running FEP window   2: Lambda1 0.9375 Lambda2 0.875  [dLambda -0.0625]
TCL: Setting parameter firsttimestep to 0
TCL: Setting parameter alchLambda to 0.9375
Info: NONBONDED TABLE R-SQUARED SPACING: 0.0625
Info: NONBONDED TABLE SIZE: 769 POINTS
TCL: Setting parameter alchLambda2 to 0.875
Info: NONBONDED TABLE R-SQUARED SPACING: 0.0625
Info: NONBONDED TABLE SIZE: 769 POINTS
TCL: Running for 5000 steps
ETITLE: TS BOND ANGLE DIHED IMPRP ELECT VDW BOUNDARY MISC KINETIC TOTAL TEMP POTENTIAL TOTAL3 TEMPAVG PRESSURE GPRESSURE VOLUME PRESSAVG GPRESSAVG
ENERGY: 0 1.7317 7.3125 13.0910 0.0000 -19135.1288 1971.5317 0.0000 0.0000 3266.9375 -13874.5244 296.6166 -17141.4619 -13868.2446 296.6166 -8.8670 -8.7503 560808.4694 -8.8670 -8.7503
ENERGY: 1000 3.9498 7.0239 16.2265 0.0000 -19307.8125 2079.3612 0.0000 0.0000 3266.0001 -13935.2510 296.5315 -17201.2511 -13930.7418 298.9439 31.9172 31.8548 546894.0985 0.8544 0.8051
ENERGY: 2000 2.3946 13.6356 13.8979 0.0000 -19226.1203 2018.7688 0.0000 0.0000 3280.7378 -13896.6856 297.8696 -17177.4234 -13888.9940 295.6472 -4.2383 -3.2747 548141.9146 -1.6980 -1.7330
ENERGY: 3000 1.6050 13.9479 12.8568 0.0000 -19269.8995 2040.1830 0.0000 0.0000 3232.6428 -13968.6641 293.5029 -17201.3069 -13962.1105 298.3776 24.7513 25.4802 536739.8879 0.6719 0.6828
ENERGY: 4000 1.1420 14.0504 13.9298 0.0000 -19209.9152 1983.4571 0.0000 0.0000 3237.5079 -13959.8279 293.9446 -17197.3358 -13955.0927 295.8935 -28.6823 -27.3282 538532.1995 -0.4813 -0.4776
ENERGY: 5000 5.8931 9.0430 14.1828 0.0000 -19147.5656 1972.8846 0.0000 0.0000 3252.1422 -13893.4199 295.2733 -17145.5621 -13888.7677 297.6767 9.1871 9.4130 517525.5313 2.9347 2.9406
TCL: Running FEP window   3: Lambda1 0.875  Lambda2 0.8125 [dLambda -0.0625]
TCL: Setting parameter firsttimestep to 0
TCL: Setting parameter alchLambda to 0.875
Info: NONBONDED TABLE R-SQUARED SPACING: 0.0625
Info: NONBONDED TABLE SIZE: 769 POINTS
TCL: Setting parameter alchLambda2 to 0.8125
Info: NONBONDED TABLE R-SQUARED SPACING: 0.0625
Info: NONBONDED TABLE SIZE: 769 POINTS
TCL: Running for 5000 steps
ETITLE: TS BOND ANGLE DIHED IMPRP ELECT VDW BOUNDARY MISC KINETIC TOTAL TEMP POTENTIAL TOTAL3 TEMPAVG PRESSURE GPRESSURE VOLUME PRESSAVG GPRESSAVG
ENERGY: 0 5.8931 9.0430 14.1828 0.0000 -19129.8575 1971.6688 0.0000 0.0000 3252.0386 -13877.0313 295.2639 -17129.0698 -13870.9210 295.2639 7.7583 7.9143 517525.5313 7.7583 7.9143
ENERGY: 1000 1.1604 17.1109 13.1470 0.0000 -19158.2611 1986.1460 0.0000 0.0000 3331.5644 -13809.1325 302.4843 -17140.6969 -13802.5821 299.6115 -2.8136 -3.5388 524115.8325 1.4662 1.4973
ENERGY: 2000 3.7635 8.7112 14.8269 0.0000 -19118.6093 1958.6562 0.0000 0.0000 3352.8438 -13779.8076 304.4164 -17132.6514 -13773.1380 299.9766 -19.0240 -18.6597 535878.5060 1.1582 1.1816
ENERGY: 3000 2.8816 17.5403 13.4687 0.0000 -19140.1775 1987.2691 0.0000 0.0000 3311.1496 -13807.8682 300.6308 -17119.0178 -13800.7930 300.8180 7.5951 7.3637 535394.3304 2.4434 2.4855
ENERGY: 4000 4.7000 15.0050 14.3365 0.0000 -19094.7336 1982.2990 0.0000 0.0000 3207.9198 -13870.4732 291.2582 -17078.3931 -13864.5632 297.3910 1.6023 1.8112 555150.0534 5.1275 5.1251
ENERGY: 5000 2.4184 8.2517 15.0937 0.0000 -19321.7541 2039.4058 0.0000 0.0000 3256.9522 -13999.6323 295.7100 -17256.5845 -13994.5878 296.2867 -2.1332 -2.2641 536692.8281 0.9473 0.9106
TCL: Running FEP window   4: Lambda1 0.8125 Lambda2 0.75   [dLambda -0.0625]
TCL: Setting parameter firsttimestep to 0
TCL: Setting parameter alchLambda to 0.8125
Info: NONBONDED TABLE R-SQUARED SPACING: 0.0625
Info: NONBONDED TABLE SIZE: 769 POINTS
TCL: Setting parameter alchLambda2 to 0.75
Info: NONBONDED TABLE R-SQUARED SPACING: 0.0625
Info: NONBONDED TABLE SIZE: 769 POINTS
TCL: Running for 5000 steps
ETITLE: TS BOND ANGLE DIHED IMPRP ELECT VDW BOUNDARY MISC KINETIC TOTAL TEMP POTENTIAL TOTAL3 TEMPAVG PRESSURE GPRESSURE VOLUME PRESSAVG GPRESSAVG
ENERGY: 0 2.4184 8.2517 15.0937 0.0000 -19303.6646 2037.7960 0.0000 0.0000 3256.8498 -13983.2551 295.7007 -17240.1048 -13976.3222 295.7007 -3.9130 -3.8902 536692.8281 -3.9130 -3.8902
ENERGY: 1000 1.6842 12.5362 15.0075 0.0000 -19282.9294 2036.5382 0.0000 0.0000 3265.8441 -13951.3192 296.5174 -17217.1633 -13943.1834 294.5272 16.9773 17.5045 535365.4491 1.2060 1.1788
ENERGY: 2000 4.0133 10.8054 12.7540 0.0000 -19331.6985 2043.7108 0.0000 0.0000 3273.3701 -13987.0449 297.2007 -17260.4150 -13981.9608 294.8148 -17.1951 -17.7638 529875.2742 -1.6841 -1.6765
ENERGY: 3000 2.5030 15.1378 14.5503 0.0000 -19316.2444 2044.6533 0.0000 0.0000 3282.5096 -13956.8904 298.0305 -17239.4000 -13949.5985 295.9747 9.3728 9.8406 509261.2972 1.5847 1.5643
ENERGY: 4000 4.3552 12.0633 15.8978 0.0000 -19278.1429 2060.1765 0.0000 0.0000 3261.4945 -13924.1556 296.1225 -17185.6501 -13920.9452 298.6221 19.0988 20.8786 508893.7788 2.7301 2.7477
ENERGY: 5000 2.1861 12.3982 14.7052 0.0000 -19208.8783 2005.3119 0.0000 0.0000 3233.8390 -13940.4378 293.6115 -17174.2769 -13934.2620 294.6676 19.6263 20.8265 479326.2575 1.2291 1.2320
TCL: Running FEP window   5: Lambda1 0.75   Lambda2 0.6875 [dLambda -0.0625]
TCL: Setting parameter firsttimestep to 0
TCL: Setting parameter alchLambda to 0.75
Info: NONBONDED TABLE R-SQUARED SPACING: 0.0625
Info: NONBONDED TABLE SIZE: 769 POINTS
TCL: Setting parameter alchLambda2 to 0.6875
Info: NONBONDED TABLE R-SQUARED SPACING: 0.0625
Info: NONBONDED TABLE SIZE: 769 POINTS
TCL: Running for 5000 steps
ETITLE: TS BOND ANGLE DIHED IMPRP ELECT VDW BOUNDARY MISC KINETIC TOTAL TEMP POTENTIAL TOTAL3 TEMPAVG PRESSURE GPRESSURE VOLUME PRESSAVG GPRESSAVG
ENERGY: 0 2.1861 12.3982 14.7052 0.0000 -19191.6872 2004.4100 0.0000 0.0000 3233.7335 -13924.2541 293.6019 -17157.9876 -13918.6993 293.6019 19.5151 19.5561 479326.2575 19.5151 19.5561
ENERGY: 1000 5.2963 9.6118 15.8447 0.0000 -19317.3897 2034.9336 0.0000 0.0000 3289.3480 -13962.3553 298.6514 -17251.7033 -13955.2398 296.6059 23.5019 22.7605 480441.3844 1.1784 1.1853
ENERGY: 2000 3.4219 8.7520 16.4907 0.0000 -19230.4126 2045.9783 0.0000 0.0000 3322.3866 -13833.3831 301.6511 -17155.7697 -13827.3738 295.5104 32.5188 33.3431 493014.3942 0.3138 0.3268
ENERGY: 3000 1.8624 8.9076 14.5733 0.0000 -18994.8536 1939.5245 0.0000 0.0000 3205.3691 -13824.6167 291.0266 -17029.9858 -13818.3445 297.7078 -23.3067 -23.2839 494220.6228 -0.0195 -0.0209
ENERGY: 4000 1.4596 9.8601 13.6991 0.0000 -19103.2503 2041.7657 0.0000 0.0000 3236.6538 -13799.8119 293.8671 -17036.4658 -13793.0397 302.2279 34.7236 34.9876 497656.7104 0.8960 0.9149
ENERGY: 5000 2.7144 11.7684 14.6874 0.0000 -19119.7361 1905.1664 0.0000 0.0000 3302.3229 -13883.0766 299.8294 -17185.3995 -13875.9206 296.0507 -58.8432 -58.4490 516596.7314 0.9003 0.8988
TCL: Running FEP window   6: Lambda1 0.6875 Lambda2 0.625  [dLambda -0.0625]
TCL: Setting parameter firsttimestep to 0
TCL: Setting parameter alchLambda to 0.6875
Info: NONBONDED TABLE R-SQUARED SPACING: 0.0625
Info: NONBONDED TABLE SIZE: 769 POINTS
TCL: Setting parameter alchLambda2 to 0.625
Info: NONBONDED TABLE R-SQUARED SPACING: 0.0625
Info: NONBONDED TABLE SIZE: 769 POINTS
TCL: Running for 5000 steps
ETITLE: TS BOND ANGLE DIHED IMPRP ELECT VDW BOUNDARY MISC KINETIC TOTAL TEMP POTENTIAL TOTAL3 TEMPAVG PRESSURE GPRESSURE VOLUME PRESSAVG GPRESSAVG
ENERGY: 0 2.7144 11.7684 14.6874 0.0000 -19101.8210 1904.0708 0.0000 0.0000 3302.2165 -13866.3634 299.8197 -17168.5800 -13858.6129 299.8197 -59.4471 -59.3844 516596.7314 -59.4471 -59.3844
ENERGY: 1000 1.3359 8.3263 17.1453 0.0000 -19111.5490 1951.9775 0.0000 0.0000 3388.2039 -13744.5601 307.6268 -17132.7639 -13738.7167 300.7560 -10.4557 -10.0352 526887.7261 1.3697 1.3608
ENERGY: 2000 4.5675 8.9856 14.2818 0.0000 -19074.4371 1942.8228 0.0000 0.0000 3291.0828 -13812.6965 298.8089 -17103.7793 -13805.5465 298.0450 -27.0474 -26.9660 520054.9314 2.3840 2.3776
ENERGY: 3000 1.7872 13.3573 16.6689 0.0000 -19206.5517 2082.4715 0.0000 0.0000 3230.2111 -13862.0557 293.2821 -17092.2667 -13855.5535 297.7094 25.1577 25.4950 497821.7570 1.0795 1.0794
ENERGY: 4000 1.3106 14.7920 15.6890 0.0000 -19248.7268 2043.7795 0.0000 0.0000 3310.0598 -13863.0958 300.5319 -17173.1556 -13856.7001 295.5343 16.0404 16.6573 484754.8841 -0.2450 -0.2034
ENERGY: 5000 2.6888 13.7056 13.8424 0.0000 -19190.7048 2069.9457 0.0000 0.0000 3352.5411 -13737.9812 304.3889 -17090.5223 -13731.4309 297.1514 39.5818 39.3966 499610.2570 -0.3257 -0.3303
TCL: Running FEP window   7: Lambda1 0.625  Lambda2 0.5625 [dLambda -0.0625]
TCL: Setting parameter firsttimestep to 0
TCL: Setting parameter alchLambda to 0.625
Info: NONBONDED TABLE R-SQUARED SPACING: 0.0625
Info: NONBONDED TABLE SIZE: 769 POINTS
TCL: Setting parameter alchLambda2 to 0.5625
Info: NONBONDED TABLE R-SQUARED SPACING: 0.0625
Info: NONBONDED TABLE SIZE: 769 POINTS
TCL: Running for 5000 steps
ETITLE: TS BOND ANGLE DIHED IMPRP ELECT VDW BOUNDARY MISC KINETIC TOTAL TEMP POTENTIAL TOTAL3 TEMPAVG PRESSURE GPRESSURE VOLUME PRESSAVG GPRESSAVG
ENERGY: 0 2.6888 13.7056 13.8424 0.0000 -19173.1119 2069.1269 0.0000 0.0000 3352.4405 -13721.3077 304.3798 -17073.7482 -13714.5452 304.3798 39.1505 38.8060 499610.2570 39.1505 38.8060
ENERGY: 1000 2.3101 10.2809 15.8369 0.0000 -19070.0016 1929.0341 0.0000 0.0000 3339.9217 -13772.6180 303.2431 -17112.5397 -13764.5874 298.8549 -49.0484 -50.3456 506066.6280 0.0083 0.0104
ENERGY: 2000 2.9785 13.6002 12.4057 0.0000 -18928.0933 1890.1330 0.0000 0.0000 3278.7239 -13730.2520 297.6868 -17008.9758 -13724.2016 300.8055 -40.5996 -41.1848 502483.3799 -0.9803 -1.0032
ENERGY: 3000 5.0863 14.2905 14.0654 0.0000 -19170.1023 2107.1671 0.0000 0.0000 3373.0538 -13656.4394 306.2513 -17029.4931 -13650.5194 301.9130 76.1888 76.8154 513146.7187 3.1046 3.1260
ENERGY: 4000 2.9445 8.1819 15.8451 0.0000 -19188.9798 2020.0505 0.0000 0.0000 3313.3464 -13828.6114 300.8303 -17141.9578 -13821.5848 297.8561 5.7930 5.3159 512296.4214 -0.0820 -0.0482
ENERGY: 5000 5.1851 14.1083 14.2036 0.0000 -19032.1576 1982.7539 0.0000 0.0000 3319.9891 -13695.9177 301.4334 -17015.9068 -13688.4899 299.9399 -5.3041 -5.3862 523222.7102 0.7396 0.7350
TCL: Running FEP window   8: Lambda1 0.5625 Lambda2 0.5    [dLambda -0.0625]
TCL: Setting parameter firsttimestep to 0
TCL: Setting parameter alchLambda to 0.5625
Info: NONBONDED TABLE R-SQUARED SPACING: 0.0625
Info: NONBONDED TABLE SIZE: 769 POINTS
TCL: Setting parameter alchLambda2 to 0.5
Info: NONBONDED TABLE R-SQUARED SPACING: 0.0625
Info: NONBONDED TABLE SIZE: 769 POINTS
TCL: Running for 5000 steps
ETITLE: TS BOND ANGLE DIHED IMPRP ELECT VDW BOUNDARY MISC KINETIC TOTAL TEMP POTENTIAL TOTAL3 TEMPAVG PRESSURE GPRESSURE VOLUME PRESSAVG GPRESSAVG
ENERGY: 0 5.1851 14.1083 14.2036 0.0000 -19016.2877 1981.9147 0.0000 0.0000 3319.8897 -13680.9863 301.4244 -17000.8760 -13675.1547 301.4244 -6.2823 -6.0394 523222.7102 -6.2823 -6.0394
ENERGY: 1000 4.2132 15.7140 15.5953 0.0000 -18965.7820 1960.2394 0.0000 0.0000 3295.5609 -13674.4593 299.2155 -16970.0202 -13667.0684 300.4675 -35.2338 -35.7611 509688.9497 2.3463 2.3474
ENERGY: 2000 2.7024 13.3369 15.7213 0.0000 -18996.4297 1926.4481 0.0000 0.0000 3208.3898 -13829.8313 291.3009 -17038.2211 -13823.7716 297.3003 -42.5420 -42.8156 466861.4053 1.0179 1.0042
ENERGY: 3000 2.0325 10.6984 14.2618 0.0000 -19169.4678 2021.3725 0.0000 0.0000 3304.5306 -13816.5720 300.0299 -17121.1026 -13809.8690 299.1458 1.2645 2.5405 466779.1952 0.3684 0.4143
ENERGY: 4000 2.8722 8.1241 14.2553 0.0000 -19105.8341 1999.5862 0.0000 0.0000 3220.4486 -13860.5477 292.3958 -17080.9964 -13854.2891 296.3940 -1.2222 -2.0441 463369.0656 1.7404 1.7513
ENERGY: 5000 0.7821 8.6455 16.4540 0.0000 -19168.3273 1965.9331 0.0000 0.0000 3243.4967 -13933.0158 294.4884 -17176.5125 -13925.8802 294.0378 -42.1588 -42.3785 450741.1822 1.7600 1.7329
TCL: Running FEP window   9: Lambda1 0.5    Lambda2 0.4375 [dLambda -0.0625]
TCL: Setting parameter firsttimestep to 0
TCL: Setting parameter alchLambda to 0.5
Info: NONBONDED TABLE R-SQUARED SPACING: 0.0625
Info: NONBONDED TABLE SIZE: 769 POINTS
TCL: Setting parameter alchLambda2 to 0.4375
Info: NONBONDED TABLE R-SQUARED SPACING: 0.0625
Info: NONBONDED TABLE SIZE: 769 POINTS
TCL: Running for 5000 steps
ETITLE: TS BOND ANGLE DIHED IMPRP ELECT VDW BOUNDARY MISC KINETIC TOTAL TEMP POTENTIAL TOTAL3 TEMPAVG PRESSURE GPRESSURE VOLUME PRESSAVG GPRESSAVG
ENERGY: 0 0.7821 8.6455 16.4540 0.0000 -19153.3037 1966.3530 0.0000 0.0000 3243.3918 -13917.6772 294.4788 -17161.0690 -13911.5485 294.4788 -42.2801 -42.2918 450741.1822 -42.2801 -42.2918
ENERGY: 1000 2.5253 11.8130 17.2998 0.0000 -19138.2126 1966.6233 0.0000 0.0000 3265.5803 -13874.3708 296.4934 -17139.9511 -13866.7089 293.1613 -33.0655 -32.7751 437686.0857 -2.6758 -2.6496
ENERGY: 2000 3.9758 16.9727 15.1135 0.0000 -19071.8724 1985.5564 0.0000 0.0000 3321.2831 -13728.9709 301.5509 -17050.2539 -13721.6803 299.8793 -8.7280 -8.0363 428623.9163 1.2003 1.1448
ENERGY: 3000 6.8486 13.9286 19.2120 0.0000 -19053.9108 2001.1805 0.0000 0.0000 3344.2457 -13668.4953 303.6357 -17012.7411 -13661.4176 299.9886 -0.6123 0.0651 418607.7792 -0.2528 -0.2828
ENERGY: 4000 1.2670 17.6917 15.1334 0.0000 -19098.2216 2024.0400 0.0000 0.0000 3346.4224 -13693.6670 303.8334 -17040.0895 -13686.8641 299.8340 18.7361 18.7003 404341.1690 0.4976 0.5070
ENERGY: 5000 1.4274 14.4712 14.6349 0.0000 -19200.6302 2076.1631 0.0000 0.0000 3351.8198 -13742.1136 304.3234 -17093.9335 -13733.1682 298.2388 73.7585 73.3388 387677.0614 1.0402 1.0506
TCL: Running FEP window  10: Lambda1 0.4375 Lambda2 0.375  [dLambda -0.0625]
TCL: Setting parameter firsttimestep to 0
TCL: Setting parameter alchLambda to 0.4375
Info: NONBONDED TABLE R-SQUARED SPACING: 0.0625
Info: NONBONDED TABLE SIZE: 769 POINTS
TCL: Setting parameter alchLambda2 to 0.375
Info: NONBONDED TABLE R-SQUARED SPACING: 0.0625
Info: NONBONDED TABLE SIZE: 769 POINTS
TCL: Running for 5000 steps
ETITLE: TS BOND ANGLE DIHED IMPRP ELECT VDW BOUNDARY MISC KINETIC TOTAL TEMP POTENTIAL TOTAL3 TEMPAVG PRESSURE GPRESSURE VOLUME PRESSAVG GPRESSAVG
ENERGY: 0 1.4274 14.4712 14.6349 0.0000 -19200.6302 2073.9135 0.0000 0.0000 3351.7179 -13744.4652 304.3142 -17096.1831 -13737.4709 304.3142 70.9407 70.7599 387677.0614 70.9407 70.7599
ENERGY: 1000 1.6075 11.4802 14.8762 0.0000 -19012.2120 1930.7158 0.0000 0.0000 3200.0988 -13853.4335 290.5481 -17053.5323 -13846.8908 296.1341 -44.1536 -44.0123 396688.1952 0.0048 -0.0371
ENERGY: 2000 4.7795 8.8850 16.0022 0.0000 -19175.2107 2075.5946 0.0000 0.0000 3279.8829 -13790.0666 297.7920 -17069.9495 -13784.5888 298.2388 45.8965 47.0982 408266.6197 0.6903 0.6742
ENERGY: 3000 1.6324 13.2244 13.6646 0.0000 -19164.3340 2047.0224 0.0000 0.0000 3241.6973 -13847.0929 294.3250 -17088.7902 -13840.1921 297.1012 37.4703 36.2143 408874.3483 -1.4591 -1.4595
ENERGY: 4000 2.9163 12.7091 14.4663 0.0000 -19148.2734 1975.7747 0.0000 0.0000 3254.8520 -13887.5551 295.5194 -17142.4071 -13883.9024 293.5646 -13.9233 -13.8963 393217.7962 -1.2314 -1.2394
ENERGY: 5000 3.4379 11.7802 13.8499 0.0000 -19286.9931 2113.0608 0.0000 0.0000 3282.5887 -13862.2757 298.0377 -17144.8644 -13855.4659 296.0524 78.5144 78.2252 389305.9654 2.5865 2.6043
TCL: Running FEP window  11: Lambda1 0.375  Lambda2 0.3125 [dLambda -0.0625]
TCL: Setting parameter firsttimestep to 0
TCL: Setting parameter alchLambda to 0.375
Info: NONBONDED TABLE R-SQUARED SPACING: 0.0625
Info: NONBONDED TABLE SIZE: 769 POINTS
TCL: Setting parameter alchLambda2 to 0.3125
Info: NONBONDED TABLE R-SQUARED SPACING: 0.0625
Info: NONBONDED TABLE SIZE: 769 POINTS
TCL: Running for 5000 steps
ETITLE: TS BOND ANGLE DIHED IMPRP ELECT VDW BOUNDARY MISC KINETIC TOTAL TEMP POTENTIAL TOTAL3 TEMPAVG PRESSURE GPRESSURE VOLUME PRESSAVG GPRESSAVG
ENERGY: 0 3.4379 11.7802 13.8499 0.0000 -19286.9931 2113.2966 0.0000 0.0000 3282.4951 -13862.1335 298.0292 -17144.6285 -13856.0341 298.0292 77.0514 77.1569 389305.9654 77.0514 77.1569
ENERGY: 1000 4.3818 16.8237 13.1370 0.0000 -19231.9495 2112.4273 0.0000 0.0000 3282.5575 -13802.6222 298.0348 -17085.1797 -13796.0545 296.2733 40.6634 40.5173 407109.3297 -0.2079 -0.2411
ENERGY: 2000 3.3402 11.6543 15.2239 0.0000 -19025.8151 1978.2248 0.0000 0.0000 3232.9972 -13784.3748 293.5351 -17017.3720 -13776.2572 297.3102 -17.8291 -17.2499 404447.0758 1.8027 1.8028
ENERGY: 3000 2.5673 11.0704 14.3512 0.0000 -19219.7485 2070.4498 0.0000 0.0000 3293.1014 -13828.2084 298.9922 -17121.3098 -13821.8201 296.5007 16.9722 17.8027 414263.6402 2.5374 2.5132
ENERGY: 4000 3.5861 12.4509 14.8849 0.0000 -19240.7398 1990.2945 0.0000 0.0000 3290.3991 -13929.1243 298.7468 -17219.5234 -13924.3379 294.4794 -39.7738 -39.2398 399302.9045 -0.0566 -0.0282
ENERGY: 5000 4.0673 13.4502 14.1564 0.0000 -19213.7415 2072.7646 0.0000 0.0000 3235.5686 -13873.7345 293.7685 -17109.3031 -13865.4663 295.3042 25.6279 27.2290 388744.0408 1.5097 1.5748
TCL: Running FEP window  12: Lambda1 0.3125 Lambda2 0.25   [dLambda -0.0625]
TCL: Setting parameter firsttimestep to 0
TCL: Setting parameter alchLambda to 0.3125
Info: NONBONDED TABLE R-SQUARED SPACING: 0.0625
Info: NONBONDED TABLE SIZE: 769 POINTS
TCL: Setting parameter alchLambda2 to 0.25
Info: NONBONDED TABLE R-SQUARED SPACING: 0.0625
Info: NONBONDED TABLE SIZE: 769 POINTS
TCL: Running for 5000 steps
ETITLE: TS BOND ANGLE DIHED IMPRP ELECT VDW BOUNDARY MISC KINETIC TOTAL TEMP POTENTIAL TOTAL3 TEMPAVG PRESSURE GPRESSURE VOLUME PRESSAVG GPRESSAVG
ENERGY: 0 4.0673 13.4502 14.1564 0.0000 -19213.7415 2072.8488 0.0000 0.0000 3235.4686 -13873.7503 293.7595 -17109.2189 -13868.1535 293.7595 26.2858 26.5452 388744.0408 26.2858 26.5452
ENERGY: 1000 2.2720 13.9067 16.0441 0.0000 -19138.4377 2036.3047 0.0000 0.0000 3250.0787 -13819.8315 295.0860 -17069.9102 -13813.8693 295.8443 17.0714 16.1249 387606.9642 -0.7628 -0.8008
ENERGY: 2000 1.0553 13.8910 14.7184 0.0000 -19107.5429 1993.8195 0.0000 0.0000 3358.5586 -13725.5000 304.9352 -17084.0586 -13720.6260 299.1840 -11.2427 -11.2819 378932.7947 0.1979 0.1807
ENERGY: 3000 2.4621 9.6354 14.2410 0.0000 -19103.2193 2022.1766 0.0000 0.0000 3277.0591 -13777.6451 297.5356 -17054.7041 -13769.5730 298.9492 -16.1741 -15.0165 377649.3027 3.4490 3.4552
ENERGY: 4000 3.1153 9.4319 14.2901 0.0000 -19055.8818 1958.6149 0.0000 0.0000 3263.7912 -13806.6385 296.3310 -17070.4297 -13799.0665 297.8216 -27.4949 -25.6533 375108.5089 0.6256 0.5917
ENERGY: 5000 1.8739 9.9208 14.2037 0.0000 -19078.8379 1947.1696 0.0000 0.0000 3218.6057 -13887.0642 292.2284 -17105.6699 -13881.9530 294.7311 -70.9407 -72.0757 369683.0739 -0.0455 -0.0807
TCL: Running FEP window  13: Lambda1 0.25   Lambda2 0.1875 [dLambda -0.0625]
TCL: Setting parameter firsttimestep to 0
TCL: Setting parameter alchLambda to 0.25
Info: NONBONDED TABLE R-SQUARED SPACING: 0.0625
Info: NONBONDED TABLE SIZE: 769 POINTS
TCL: Setting parameter alchLambda2 to 0.1875
Info: NONBONDED TABLE R-SQUARED SPACING: 0.0625
Info: NONBONDED TABLE SIZE: 769 POINTS
TCL: Running for 5000 steps
ETITLE: TS BOND ANGLE DIHED IMPRP ELECT VDW BOUNDARY MISC KINETIC TOTAL TEMP POTENTIAL TOTAL3 TEMPAVG PRESSURE GPRESSURE VOLUME PRESSAVG GPRESSAVG
ENERGY: 0 1.8739 9.9208 14.2037 0.0000 -19078.8379 1947.6634 0.0000 0.0000 3218.5054 -13886.6706 292.2193 -17105.1760 -13879.8436 292.2193 -72.7539 -72.9478 369683.0739 -72.7539 -72.9478
ENERGY: 1000 2.4918 9.9043 15.7891 0.0000 -19001.9025 1959.2277 0.0000 0.0000 3276.5659 -13737.9238 297.4908 -17014.4896 -13731.3424 295.6524 3.6291 4.6246 364374.4016 1.1712 1.2074
ENERGY: 2000 2.3803 8.2782 16.6153 0.0000 -19120.0396 2093.5539 0.0000 0.0000 3288.3730 -13710.8389 298.5628 -16999.2119 -13704.8204 298.2387 55.2158 54.4844 367115.6180 1.5872 1.5672
ENERGY: 3000 7.9825 13.6188 13.7756 0.0000 -19130.2908 2024.7497 0.0000 0.0000 3267.4611 -13802.7031 296.6642 -17070.1642 -13796.7957 297.8122 2.5548 2.1451 370474.2368 1.0919 1.0906
ENERGY: 4000 7.6185 11.3566 14.8219 0.0000 -19275.0759 2117.9948 0.0000 0.0000 3327.3615 -13795.9225 302.1027 -17123.2840 -13788.7769 300.0195 69.5139 69.0132 355892.0667 2.7465 2.7832
ENERGY: 5000 4.0915 13.6032 15.2095 0.0000 -19223.8793 2005.3424 0.0000 0.0000 3221.4253 -13964.2073 292.4844 -17185.6326 -13957.2105 291.7790 0.1352 -0.2494 351686.2615 -1.2266 -1.1784
TCL: Running FEP window  14: Lambda1 0.1875 Lambda2 0.125  [dLambda -0.0625]
TCL: Setting parameter firsttimestep to 0
TCL: Setting parameter alchLambda to 0.1875
Info: NONBONDED TABLE R-SQUARED SPACING: 0.0625
Info: NONBONDED TABLE SIZE: 769 POINTS
TCL: Setting parameter alchLambda2 to 0.125
Info: NONBONDED TABLE R-SQUARED SPACING: 0.0625
Info: NONBONDED TABLE SIZE: 769 POINTS
TCL: Running for 5000 steps
ETITLE: TS BOND ANGLE DIHED IMPRP ELECT VDW BOUNDARY MISC KINETIC TOTAL TEMP POTENTIAL TOTAL3 TEMPAVG PRESSURE GPRESSURE VOLUME PRESSAVG GPRESSAVG
ENERGY: 0 4.0915 13.6032 15.2095 0.0000 -19223.8793 2005.5295 0.0000 0.0000 3221.3262 -13964.1194 292.4754 -17185.4455 -13958.3178 292.4754 -0.4781 -0.6275 351686.2615 -0.4781 -0.6275
ENERGY: 1000 1.1642 12.9508 13.2520 0.0000 -19249.8697 2056.8670 0.0000 0.0000 3271.7243 -13893.9114 297.0513 -17165.6357 -13887.0168 295.6685 64.9702 64.9502 344915.9412 2.6273 2.7013
ENERGY: 2000 1.9153 19.5494 14.4018 0.0000 -19261.2447 2083.4704 0.0000 0.0000 3306.9434 -13834.9645 300.2489 -17141.9079 -13829.5863 295.9630 82.6173 84.0275 348890.1942 3.8970 3.8643
ENERGY: 3000 1.6321 9.4004 14.9081 0.0000 -19172.7392 2019.4473 0.0000 0.0000 3217.6008 -13909.7505 292.1372 -17127.3513 -13904.1972 294.4997 9.7109 9.7310 360304.0271 3.1513 3.2098
ENERGY: 4000 2.6854 15.2058 15.2273 0.0000 -19259.3802 2042.4709 0.0000 0.0000 3257.1785 -13926.6123 295.7306 -17183.7908 -13919.7677 294.7091 -29.2656 -29.4870 387620.6872 0.1932 0.2081
ENERGY: 5000 2.5687 12.4562 14.6003 0.0000 -19216.6693 2110.8893 0.0000 0.0000 3195.4792 -13880.6757 290.1287 -17076.1549 -13875.5450 293.2430 84.3434 84.9336 391371.3268 0.3692 0.3789
TCL: Running FEP window  15: Lambda1 0.125  Lambda2 0.0625 [dLambda -0.0625]
TCL: Setting parameter firsttimestep to 0
TCL: Setting parameter alchLambda to 0.125
Info: NONBONDED TABLE R-SQUARED SPACING: 0.0625
Info: NONBONDED TABLE SIZE: 769 POINTS
TCL: Setting parameter alchLambda2 to 0.0625
Info: NONBONDED TABLE R-SQUARED SPACING: 0.0625
Info: NONBONDED TABLE SIZE: 769 POINTS
TCL: Running for 5000 steps
ETITLE: TS BOND ANGLE DIHED IMPRP ELECT VDW BOUNDARY MISC KINETIC TOTAL TEMP POTENTIAL TOTAL3 TEMPAVG PRESSURE GPRESSURE VOLUME PRESSAVG GPRESSAVG
ENERGY: 0 2.5687 12.4562 14.6003 0.0000 -19216.6693 2111.8132 0.0000 0.0000 3195.3795 -13879.8515 290.1196 -17075.2310 -13873.6277 290.1196 84.8598 84.6550 391371.3268 84.8598 84.6550
ENERGY: 1000 3.0006 12.0293 13.4931 0.0000 -19226.7668 2095.4947 0.0000 0.0000 3292.4037 -13810.3454 298.9288 -17102.7491 -13802.3296 295.9378 17.4247 18.3680 387184.4420 -0.1096 -0.1150
ENERGY: 2000 2.3634 18.5603 16.4246 0.0000 -19203.6054 2080.2901 0.0000 0.0000 3212.7603 -13873.2068 291.6977 -17085.9671 -13868.4695 293.0830 17.0601 16.9968 383119.3368 2.2075 2.1783
ENERGY: 3000 4.0816 9.5010 16.3916 0.0000 -19134.3038 2014.4809 0.0000 0.0000 3297.5710 -13792.2777 299.3980 -17089.8486 -13785.8087 297.5870 8.0521 9.0015 379350.2266 -0.7979 -0.8215
ENERGY: 4000 2.2469 11.3289 17.5906 0.0000 -19107.8089 2044.0402 0.0000 0.0000 3231.5120 -13801.0903 293.4002 -17032.6023 -13793.1192 298.3891 41.3788 41.8648 382375.9438 -0.3693 -0.3981
ENERGY: 5000 5.7250 13.6268 16.1580 0.0000 -18995.6520 1992.5722 0.0000 0.0000 3233.4279 -13734.1422 293.5742 -16967.5701 -13729.2453 299.2851 1.0283 0.3790 384906.2726 -0.9762 -0.9256
TCL: Running FEP window  16: Lambda1 0.0625 Lambda2 0.0    [dLambda -0.0625]
TCL: Setting parameter firsttimestep to 0
TCL: Setting parameter alchLambda to 0.0625
Info: NONBONDED TABLE R-SQUARED SPACING: 0.0625
Info: NONBONDED TABLE SIZE: 769 POINTS
TCL: Setting parameter alchLambda2 to 0.0
Info: NONBONDED TABLE R-SQUARED SPACING: 0.0625
Info: NONBONDED TABLE SIZE: 769 POINTS
TCL: Running for 5000 steps
ETITLE: TS BOND ANGLE DIHED IMPRP ELECT VDW BOUNDARY MISC KINETIC TOTAL TEMP POTENTIAL TOTAL3 TEMPAVG PRESSURE GPRESSURE VOLUME PRESSAVG GPRESSAVG
ENERGY: 0 5.7250 13.6268 16.1580 0.0000 -18995.6520 1993.0538 0.0000 0.0000 3233.3329 -13733.7556 293.5656 -16967.0884 -13727.1234 293.5656 -0.3282 0.0669 384906.2726 -0.3282 0.0669
ENERGY: 1000 4.7049 16.0062 16.1899 0.0000 -19065.2874 2019.1805 0.0000 0.0000 3235.5996 -13773.6062 293.7714 -17009.2058 -13769.0358 298.7649 8.9144 8.8097 384046.9829 1.0621 1.0740
ENERGY: 2000 5.5556 16.2200 13.3281 0.0000 -18991.9359 1928.4310 0.0000 0.0000 3221.8766 -13806.5246 292.5254 -17028.4011 -13800.8475 297.0017 -16.8541 -16.1615 380395.2811 0.0616 -0.0078
ENERGY: 3000 2.9086 12.6015 16.6746 0.0000 -19059.1981 1886.1404 0.0000 0.0000 3313.4450 -13827.4281 300.8392 -17140.8731 -13819.9384 294.7191 -92.0719 -91.9785 383824.1203 -1.6495 -1.6814
ENERGY: 4000 4.9362 14.9460 14.1006 0.0000 -19004.9767 2013.2187 0.0000 0.0000 3222.0520 -13735.7233 292.5413 -16957.7753 -13729.7442 299.8494 17.6760 17.0399 392289.8558 3.0941 3.0973
ENERGY: 5000 3.3218 10.6668 17.1184 0.0000 -19174.7898 2063.2135 0.0000 0.0000 3312.6943 -13767.7750 300.7711 -17080.4693 -13765.0955 298.5990 16.8812 17.3758 402580.1983 4.3203 4.3061
