Info: SIMULATION PARAMETERS:
Info: TIMESTEP               2
Info: NUMBER OF STEPS        0
Info: STEPS PER CYCLE        10
Info: PERIODIC CELL BASIS 1  42.113 0 0
Info: PERIODIC CELL BASIS 2  0 41.891 0
Info: PERIODIC CELL BASIS 3  0 0 44.319
Info: PERIODIC CELL CENTER   0 0 0
Info: WRAPPING WATERS AROUND PERIODIC BOUNDARIES ON OUTPUT.
Info: WRAPPING ALL CLUSTERS AROUND PERIODIC BOUNDARIES ON OUTPUT.
Info: FIRST LDB TIMESTEP     50
Info: LAST LDB TIMESTEP     -1
Info: HOM BACKGROUND SCALING 1
Info: PME BACKGROUND SCALING 1
Info: MIN ATOMS PER PATCH    40
Info: EMPTY PATCH LOAD       40 ATOMS
Info: INITIAL TEMPERATURE    300
Info: CENTER OF MASS MOVING INITIALLY? NO
Info: DIELECTRIC             1
Info: EXCLUDE                SCALED ONE-FOUR
Info: 1-4 ELECTROSTATICS SCALED BY 0.833333
Info: MODIFIED 1-4 VDW PARAMETERS WILL BE USED
Info: DCD FILENAME           mobley_1323538_min.dcd
Info: DCD FREQUENCY          5000
Info: DCD FIRST STEP         5000
Info: DCD FILE WILL CONTAIN UNIT CELL DATA
Info: XST FILENAME           mobley_1323538_min.xst
Info: XST FREQUENCY          5000
Info: NO VELOCITY DCD OUTPUT
Info: NO FORCE DCD OUTPUT
Info: OUTPUT FILENAME        mobley_1323538_min
Info: BINARY OUTPUT FILES WILL BE USED
Info: RESTART FILENAME       mobley_1323538_min.restart
Info: RESTART FREQUENCY      5000
Info: BINARY RESTART FILES WILL BE USED
Info: CUTOFF                 9
Info: PAIRLIST DISTANCE      11
Info: PAIRLIST SHRINK RATE   0.01
Info: PAIRLIST GROW RATE     0.01
Info: PAIRLIST TRIGGER       0.3
Info: PAIRLISTS PER CYCLE    2
Info: PAIRLISTS ENABLED
Info: MARGIN                 8
Info: HYDROGEN GROUP CUTOFF  2.5
Info: PATCH DIMENSION        21.5
Info: ENERGY OUTPUT STEPS    5000
Info: ENERGY EVALUATION STEPS    5000
Info: OUTPUT ENERGY PRECISION 4
Info: CROSSTERM ENERGY INCLUDED IN DIHEDRAL
Info: TIMING OUTPUT STEPS    50000
Info: PRESSURE OUTPUT STEPS  5000
Info: LANGEVIN DYNAMICS ACTIVE
Info: LANGEVIN TEMPERATURE   300
Info: LANGEVIN USING BBK INTEGRATOR
Info: LANGEVIN DAMPING COEFFICIENT IS 1 INVERSE PS
Info: LANGEVIN DYNAMICS APPLIED TO HYDROGENS
Info: LANGEVIN PISTON PRESSURE CONTROL ACTIVE
Info:        TARGET PRESSURE IS 1.01325 BAR
Info:     OSCILLATION PERIOD IS 50 FS
Info:             DECAY TIME IS 25 FS
Info:     PISTON TEMPERATURE IS 300 K
Info:       PRESSURE CONTROL IS GROUP-BASED
Info:    INITIAL STRAIN RATE IS 0 0 0
Info:       CELL FLUCTUATION IS ISOTROPIC
Info: PARTICLE MESH EWALD (PME) ACTIVE
Info: PME TOLERANCE               1e-06
Info: PME EWALD COEFFICIENT       0.348832
Info: PME INTERPOLATION ORDER     4
Info: PME GRID DIMENSIONS         44 44 48
Info: PME MAXIMUM GRID SPACING    1
Info: FULL ELECTROSTATIC EVALUATION FREQUENCY      2
Info: USING VERLET I (r-RESPA) MTS SCHEME.
Info: C1 SPLITTING OF LONG RANGE ELECTROSTATICS
Info: PLACING ATOMS IN PATCHES BY HYDROGEN GROUPS
Info: RIGID BONDS TO HYDROGEN : ALL
Info:         ERROR TOLERANCE : 1e-08
Info:          MAX ITERATIONS : 100
Info: RIGID WATER USING SETTLE ALGORITHM
Info: RANDOM NUMBER SEED     1741311142
Info: USE HYDROGEN BONDS?    NO
Info: Using AMBER format force field!
Info: AMBER PARM FILE        mobley_1323538.prmtop
Info: COORDINATE PDB         mobley_1323538.pdb
Info: Exclusions will be read from PARM file!
Info: SCNB (VDW SCALING)     2
Info: USING ARITHMETIC MEAN TO COMBINE L-J SIGMA PARAMETERS
Info: SUMMARY OF PARAMETERS:
Info: 8 BONDS
Info: 9 ANGLES
Info:   9 HARMONIC
Info:   0 COSINE-BASED
Info: 9 DIHEDRAL
Info: 0 IMPROPER
Info: 0 CROSSTERM
Info: 0 VDW
Info: 36 VDW_PAIRS
Info: 0 NBTHOLE_PAIRS
Info: STRUCTURE SUMMARY:
Info: 5729 ATOMS
Info: 5728 BONDS
Info: 45 ANGLES
Info: 60 DIHEDRALS
Info: 0 IMPROPERS
Info: 0 CROSSTERMS
Info: 5818 EXCLUSIONS
Info: 5718 RIGID BONDS
Info: 11469 DEGREES OF FREEDOM
Info: 1912 HYDROGEN GROUPS
Info: 4 ATOMS IN LARGEST HYDROGEN GROUP
Info: 1912 MIGRATION GROUPS
Info: 4 ATOMS IN LARGEST MIGRATION GROUP
Info: TOTAL MASS = 34430.6 amu
Info: TOTAL CHARGE = 0.000700101 e
Info: MASS DENSITY = 0.731268 g/cm^3
Info: ATOM DENSITY = 0.0732743 atoms/A^3
Info: ADDED 0 IMPLICIT EXCLUSIONS
Info: NONBONDED TABLE R-SQUARED SPACING: 0.0625
Info: NONBONDED TABLE SIZE: 705 POINTS
Info: REMOVING COM VELOCITY -0.0954733 0.181799 -0.044842
TCL: Minimizing for 2000 steps
ETITLE: TS BOND ANGLE DIHED IMPRP ELECT VDW BOUNDARY MISC KINETIC TOTAL TEMP POTENTIAL TOTAL3 TEMPAVG PRESSURE GPRESSURE VOLUME PRESSAVG GPRESSAVG
ENERGY: 0 0.5126 1.3334 49.4011 0.0000 -18094.6854 1990.0026 0.0000 0.0000 0.0000 -16053.4358 0.0000 -16053.4358 -16053.4358 0.0000 11233.3519 -16138.2676 78185.6157 11233.3519 -16138.2676
ENERGY: 400 0.5033 1.5171 48.0415 0.0000 -24058.5846 3403.5985 0.0000 0.0000 0.0000 -20604.9242 0.0000 -20604.9242 -20604.9242 0.0000 15724.9394 11668.4366 78185.6157 15724.9394 11668.4366
ENERGY: 800 10.5435 7.1576 48.7097 0.0000 -25444.5524 4107.1906 0.0000 0.0000 0.0000 -21270.9510 0.0000 -21270.9510 -21270.9510 0.0000 18586.1815 14224.3951 78185.6157 18586.1815 14224.3951
ENERGY: 1200 6.0966 2.8879 46.1506 0.0000 -25869.6060 4252.1561 0.0000 0.0000 0.0000 -21562.3148 0.0000 -21562.3148 -21562.3148 0.0000 19138.9062 14729.4773 78185.6157 19138.9062 14729.4773
ENERGY: 1600 0.2951 1.0021 47.0622 0.0000 -26078.7964 4336.6199 0.0000 0.0000 0.0000 -21693.8171 0.0000 -21693.8171 -21693.8171 0.0000 19504.8002 15057.0766 78185.6157 19504.8002 15057.0766
ENERGY: 2000 0.4659 0.9747 42.8307 0.0000 -26299.6571 4456.9570 0.0000 0.0000 0.0000 -21798.4288 0.0000 -21798.4288 -21798.4288 0.0000 19996.2561 15421.5650 78185.6157 19996.2561 15421.5650
TCL: Exiting due to exit command.
Info: NAMD 3.0.1 for Linux-x86_64-multicore
Info: Please visit http://www.ks.uiuc.edu/Research/namd/
Info: for updates, documentation, and support information.
Info: Please cite Phillips et al., J. Chem. Phys. 153:044130 (2020) doi:10.1063/5.0014475
Info: in all publications reporting results obtained with NAMD.
Info: Based on Charm++/Converse 80000 for multicore-linux-x86_64-gcc
Info: Built Mon Oct 14 11:11:06 CDT 2024 by dhardy on athine.ks.uiuc.edu
Info: 1 NAMD  3.0.1  Linux-x86_64-multicore  16    k013  z5358697
Info: Running on 16 processors, 1 nodes, 1 physical nodes.
Info: CPU topology information available.
Info: Charm++/Converse parallel runtime startup completed at 0.00964005 s
Info: 1043.45 MB of memory in use based on /proc/self/stat
Info: Configuration file is mobley_1323538_equil.namd
Info: Working in the current directory /srv/scratch/z5358697/prod_prep/1323538
TCL: Running 25000 steps at 30 kelvin.
TCL: Suspending until startup complete.
Info: SIMULATION PARAMETERS:
Info: TIMESTEP               2
Info: NUMBER OF STEPS        0
Info: STEPS PER CYCLE        10
Info: PERIODIC CELL BASIS 1  42.113 0 0
Info: PERIODIC CELL BASIS 2  0 41.891 0
Info: PERIODIC CELL BASIS 3  0 0 44.319
Info: PERIODIC CELL CENTER   0 0 0
Info: WRAPPING WATERS AROUND PERIODIC BOUNDARIES ON OUTPUT.
Info: WRAPPING ALL CLUSTERS AROUND PERIODIC BOUNDARIES ON OUTPUT.
Info: FIRST LDB TIMESTEP     50
Info: LAST LDB TIMESTEP     -1
Info: HOM BACKGROUND SCALING 1
Info: PME BACKGROUND SCALING 1
Info: MIN ATOMS PER PATCH    40
Info: EMPTY PATCH LOAD       40 ATOMS
Info: INITIAL TEMPERATURE    300
Info: CENTER OF MASS MOVING INITIALLY? NO
Info: DIELECTRIC             1
Info: EXCLUDE                SCALED ONE-FOUR
Info: 1-4 ELECTROSTATICS SCALED BY 0.833333
Info: MODIFIED 1-4 VDW PARAMETERS WILL BE USED
Info: DCD FILENAME           mobley_1323538_equil.dcd
Info: DCD FREQUENCY          5000
Info: DCD FIRST STEP         5000
Info: DCD FILE WILL CONTAIN UNIT CELL DATA
Info: XST FILENAME           mobley_1323538_equil.xst
Info: XST FREQUENCY          5000
Info: NO VELOCITY DCD OUTPUT
Info: NO FORCE DCD OUTPUT
Info: OUTPUT FILENAME        mobley_1323538_equil
Info: BINARY OUTPUT FILES WILL BE USED
Info: RESTART FILENAME       mobley_1323538_equil.restart
Info: RESTART FREQUENCY      5000
Info: BINARY RESTART FILES WILL BE USED
Info: CUTOFF                 9
Info: PAIRLIST DISTANCE      11
Info: PAIRLIST SHRINK RATE   0.01
Info: PAIRLIST GROW RATE     0.01
Info: PAIRLIST TRIGGER       0.3
Info: PAIRLISTS PER CYCLE    2
Info: PAIRLISTS ENABLED
Info: MARGIN                 8
Info: HYDROGEN GROUP CUTOFF  2.5
Info: PATCH DIMENSION        21.5
Info: ENERGY OUTPUT STEPS    5000
Info: ENERGY EVALUATION STEPS    5000
Info: OUTPUT ENERGY PRECISION 4
Info: CROSSTERM ENERGY INCLUDED IN DIHEDRAL
Info: TIMING OUTPUT STEPS    50000
Info: PRESSURE OUTPUT STEPS  5000
Info: LANGEVIN DYNAMICS ACTIVE
Info: LANGEVIN TEMPERATURE   30
Info: LANGEVIN USING BBK INTEGRATOR
Info: LANGEVIN DAMPING COEFFICIENT IS 1 INVERSE PS
Info: LANGEVIN DYNAMICS APPLIED TO HYDROGENS
Info: LANGEVIN PISTON PRESSURE CONTROL ACTIVE
Info:        TARGET PRESSURE IS 1.01325 BAR
Info:     OSCILLATION PERIOD IS 50 FS
Info:             DECAY TIME IS 25 FS
Info:     PISTON TEMPERATURE IS 300 K
Info:       PRESSURE CONTROL IS GROUP-BASED
Info:    INITIAL STRAIN RATE IS 0 0 0
Info:       CELL FLUCTUATION IS ISOTROPIC
Info: PARTICLE MESH EWALD (PME) ACTIVE
Info: PME TOLERANCE               1e-06
Info: PME EWALD COEFFICIENT       0.348832
Info: PME INTERPOLATION ORDER     4
Info: PME GRID DIMENSIONS         44 44 48
Info: PME MAXIMUM GRID SPACING    1
Info: FULL ELECTROSTATIC EVALUATION FREQUENCY      2
Info: USING VERLET I (r-RESPA) MTS SCHEME.
Info: C1 SPLITTING OF LONG RANGE ELECTROSTATICS
Info: PLACING ATOMS IN PATCHES BY HYDROGEN GROUPS
Info: RIGID BONDS TO HYDROGEN : ALL
Info:         ERROR TOLERANCE : 1e-08
Info:          MAX ITERATIONS : 100
Info: RIGID WATER USING SETTLE ALGORITHM
Info: RANDOM NUMBER SEED     1741311164
Info: USE HYDROGEN BONDS?    NO
Info: Using AMBER format force field!
Info: AMBER PARM FILE        mobley_1323538.prmtop
Info: COORDINATE PDB         mobley_1323538.pdb
Info: Exclusions will be read from PARM file!
Info: SCNB (VDW SCALING)     2
Info: USING ARITHMETIC MEAN TO COMBINE L-J SIGMA PARAMETERS
Info: BINARY COORDINATES     mobley_1323538_min.coor
Info: SUMMARY OF PARAMETERS:
Info: 8 BONDS
Info: 9 ANGLES
Info:   9 HARMONIC
Info:   0 COSINE-BASED
Info: 9 DIHEDRAL
Info: 0 IMPROPER
Info: 0 CROSSTERM
Info: 0 VDW
Info: 36 VDW_PAIRS
Info: 0 NBTHOLE_PAIRS
Info: STRUCTURE SUMMARY:
Info: 5729 ATOMS
Info: 5728 BONDS
Info: 45 ANGLES
Info: 60 DIHEDRALS
Info: 0 IMPROPERS
Info: 0 CROSSTERMS
Info: 5818 EXCLUSIONS
Info: 5718 RIGID BONDS
Info: 11469 DEGREES OF FREEDOM
Info: 1912 HYDROGEN GROUPS
Info: 4 ATOMS IN LARGEST HYDROGEN GROUP
Info: 1912 MIGRATION GROUPS
Info: 4 ATOMS IN LARGEST MIGRATION GROUP
Info: TOTAL MASS = 34430.6 amu
Info: TOTAL CHARGE = 0.000700101 e
Info: MASS DENSITY = 0.731268 g/cm^3
Info: ATOM DENSITY = 0.0732743 atoms/A^3
Info: ADDED 0 IMPLICIT EXCLUSIONS
Info: NONBONDED TABLE R-SQUARED SPACING: 0.0625
Info: NONBONDED TABLE SIZE: 705 POINTS
Info: REMOVING COM VELOCITY -0.0703118 -0.0260926 0.092154
TCL: Running for 25000 steps
ETITLE: TS BOND ANGLE DIHED IMPRP ELECT VDW BOUNDARY MISC KINETIC TOTAL TEMP POTENTIAL TOTAL3 TEMPAVG PRESSURE GPRESSURE VOLUME PRESSAVG GPRESSAVG
ENERGY: 0 0.4659 0.9747 42.8307 0.0000 -26299.6572 4456.9570 0.0000 0.0000 3430.2195 -18368.2093 301.0140 -21798.4288 -18367.5074 301.0140 -44.8082 2.5671 78185.6157 -44.8082 2.5671
ENERGY: 5000 0.3657 3.3454 31.1219 0.0000 -27439.7075 4705.8177 0.0000 0.0000 340.3753 -22358.6816 29.8691 -22699.0569 -22357.8619 46.9918 -220.8432 -139.4126 56703.4290 0.3529 0.3245
ENERGY: 10000 0.2651 3.9211 30.6471 0.0000 -27795.4433 5008.3384 0.0000 0.0000 352.6371 -22399.6345 30.9452 -22752.2716 -22398.8128 30.3103 1075.1504 1131.2228 56158.9659 1.7261 1.8913
ENERGY: 15000 0.3139 3.5497 32.0140 0.0000 -27363.5091 4558.9550 0.0000 0.0000 341.2081 -22427.4683 29.9422 -22768.6764 -22426.2525 29.9129 -914.8988 -857.7503 56738.4701 7.1511 7.4324
ENERGY: 20000 1.0769 3.3955 31.4899 0.0000 -27749.7127 4939.1540 0.0000 0.0000 344.5442 -22430.0522 30.2350 -22774.5964 -22428.8642 30.2601 793.1146 853.9657 56076.1218 6.5788 6.6698
ENERGY: 25000 0.3597 3.7264 30.8118 0.0000 -27582.5869 4751.2600 0.0000 0.0000 340.6106 -22455.8183 29.8898 -22796.4289 -22454.9683 30.1518 -141.8994 -80.9533 56396.2937 0.6209 0.7667
TCL: Running 25000 steps at 60 kelvin.
TCL: Setting parameter langevinTemp to 60
TCL: Running for 25000 steps
ETITLE: TS BOND ANGLE DIHED IMPRP ELECT VDW BOUNDARY MISC KINETIC TOTAL TEMP POTENTIAL TOTAL3 TEMPAVG PRESSURE GPRESSURE VOLUME PRESSAVG GPRESSAVG
ENERGY: 25000 0.3597 3.7264 30.8118 0.0000 -27582.5869 4751.2600 0.0000 0.0000 340.4421 -22455.9869 29.8750 -22796.4289 -22455.3168 29.8750 -140.0886 -81.0193 56396.2937 -140.0886 -81.0193
ENERGY: 30000 1.3476 3.1018 33.2312 0.0000 -27273.4048 4707.0427 0.0000 0.0000 698.3377 -21830.3438 61.2816 -22528.6815 -21828.4851 57.6887 347.4159 388.0160 55861.7057 1.6972 1.7491
ENERGY: 35000 0.4897 4.6435 32.5088 0.0000 -27204.0823 4588.2042 0.0000 0.0000 684.5428 -21893.6934 60.0711 -22578.2362 -21892.1702 60.1447 -299.1702 -235.6328 55983.7732 -0.6591 -0.9514
ENERGY: 40000 1.1971 3.8241 33.0464 0.0000 -27137.9870 4474.6460 0.0000 0.0000 701.2246 -21924.0488 61.5350 -22625.2734 -21921.8691 60.2051 -923.0497 -861.8141 56166.5199 0.6412 0.6035
ENERGY: 45000 1.1748 5.8720 31.7477 0.0000 -27154.2703 4491.2887 0.0000 0.0000 674.1488 -21950.0383 59.1590 -22624.1871 -21948.6912 59.8558 -887.6163 -860.3407 56253.0784 0.7757 0.9819
ENERGY: 50000 0.4827 4.8129 32.2816 0.0000 -27385.2769 4692.2420 0.0000 0.0000 687.5964 -21967.8613 60.3390 -22655.4577 -21966.1405 60.5110 -12.9110 47.1462 55939.3901 10.2876 10.3736
TCL: Running 25000 steps at 90 kelvin.
TCL: Setting parameter langevinTemp to 90
TCL: Running for 25000 steps
ETITLE: TS BOND ANGLE DIHED IMPRP ELECT VDW BOUNDARY MISC KINETIC TOTAL TEMP POTENTIAL TOTAL3 TEMPAVG PRESSURE GPRESSURE VOLUME PRESSAVG GPRESSAVG
ENERGY: 50000 0.4827 4.8129 32.2816 0.0000 -27385.2769 4692.2420 0.0000 0.0000 687.2596 -21968.1981 60.3095 -22655.4577 -21966.6006 60.3095 -9.1190 47.2088 55939.3901 -9.1190 47.2088
ENERGY: 55000 1.0553 6.0481 33.4823 0.0000 -26842.1161 4484.1908 0.0000 0.0000 1043.7467 -21273.5929 91.5925 -22317.3396 -21271.3119 86.9329 -260.2959 -205.0285 56336.5161 -0.9622 -1.0386
ENERGY: 60000 0.8906 5.9050 31.5763 0.0000 -27051.9023 4656.1792 0.0000 0.0000 1014.9340 -21342.4173 89.0641 -22357.3513 -21340.1933 90.2325 450.6644 483.0805 55955.2217 4.1495 3.7229
ENERGY: 65000 1.2513 6.5863 31.2242 0.0000 -26869.9963 4475.9195 0.0000 0.0000 1052.8569 -21302.1582 92.3920 -22355.0150 -21300.1659 90.4300 -432.8119 -370.7864 56370.8715 -0.7310 -0.5807
ENERGY: 70000 1.0367 5.3868 32.1132 0.0000 -26776.6389 4343.1168 0.0000 0.0000 998.7154 -21396.2700 87.6408 -22394.9854 -21394.3461 90.0251 -1034.2582 -972.2008 56560.1441 0.5847 0.4295
ENERGY: 75000 1.0974 6.1897 31.7927 0.0000 -27027.9891 4563.7660 0.0000 0.0000 1007.2122 -21417.9310 88.3865 -22425.1432 -21414.9933 90.2837 -167.8595 -138.4776 56285.3003 2.7927 2.9142
TCL: Running 25000 steps at 120 kelvin.
TCL: Setting parameter langevinTemp to 120
TCL: Running for 25000 steps
ETITLE: TS BOND ANGLE DIHED IMPRP ELECT VDW BOUNDARY MISC KINETIC TOTAL TEMP POTENTIAL TOTAL3 TEMPAVG PRESSURE GPRESSURE VOLUME PRESSAVG GPRESSAVG
ENERGY: 75000 1.0974 6.1897 31.7927 0.0000 -27027.9891 4563.7660 0.0000 0.0000 1006.7092 -21418.4340 88.3423 -22425.1432 -21416.4135 88.3423 -198.9666 -138.3269 56285.3003 -198.9666 -138.3269
ENERGY: 80000 0.3778 9.1069 30.7638 0.0000 -26724.0341 4615.0502 0.0000 0.0000 1349.9760 -20718.7593 118.4652 -22068.7353 -20714.8767 117.0261 721.8581 802.4137 56276.4732 8.5902 8.8553
ENERGY: 85000 1.4655 6.1200 30.6556 0.0000 -26227.3231 4151.2297 0.0000 0.0000 1348.5505 -20689.3019 118.3401 -22037.8524 -20685.0592 119.6694 -1395.0682 -1292.7008 57083.8110 1.4278 1.2573
ENERGY: 90000 1.4088 8.2438 30.2993 0.0000 -26579.1833 4437.0891 0.0000 0.0000 1330.6524 -20771.4899 116.7695 -22102.1423 -20767.8414 119.9158 -150.1724 -119.6154 56747.8968 3.0098 2.8321
ENERGY: 95000 1.2866 8.9245 29.9229 0.0000 -26581.5600 4397.3409 0.0000 0.0000 1390.5013 -20753.5838 122.0215 -22144.0850 -20749.8943 120.3528 -268.5669 -231.6020 56527.2990 -0.0412 -0.1073
ENERGY: 100000 1.6623 6.8702 30.9244 0.0000 -26685.8459 4507.3454 0.0000 0.0000 1365.5442 -20773.4994 119.8314 -22139.0436 -20769.4743 120.2052 191.9147 250.5115 56184.7888 2.3985 2.1745
TCL: Running 25000 steps at 150 kelvin.
TCL: Setting parameter langevinTemp to 150
TCL: Running for 25000 steps
ETITLE: TS BOND ANGLE DIHED IMPRP ELECT VDW BOUNDARY MISC KINETIC TOTAL TEMP POTENTIAL TOTAL3 TEMPAVG PRESSURE GPRESSURE VOLUME PRESSAVG GPRESSAVG
ENERGY: 100000 1.6623 6.8702 30.9244 0.0000 -26685.8459 4507.3454 0.0000 0.0000 1364.8882 -20774.1555 119.7738 -22139.0436 -20771.1525 119.7738 187.9122 250.9147 56184.7888 187.9122 250.9147
ENERGY: 105000 1.6275 8.5241 32.7335 0.0000 -26020.9696 4281.3722 0.0000 0.0000 1711.1287 -19985.5836 150.1577 -21696.7123 -19979.9643 146.3396 -71.3196 -19.9396 56767.2033 -1.3592 -1.1749
ENERGY: 110000 2.1730 7.9123 34.2664 0.0000 -26176.4683 4379.5947 0.0000 0.0000 1746.3117 -20006.2101 153.2451 -21752.5218 -19999.8422 150.9863 298.9717 359.9549 56370.5994 -0.3981 -0.6427
ENERGY: 115000 0.9808 5.9719 34.6670 0.0000 -25954.6372 4145.1123 0.0000 0.0000 1682.9517 -20084.9535 147.6850 -21767.9052 -20083.0884 150.3127 -810.5086 -746.6689 56547.1874 2.5971 2.7582
ENERGY: 120000 1.2647 9.1622 32.8356 0.0000 -26260.1547 4396.9282 0.0000 0.0000 1742.6492 -20077.3147 152.9237 -21819.9639 -20070.7137 150.1480 241.6899 311.9975 56467.1131 4.5042 4.5808
ENERGY: 125000 2.1767 7.1450 32.8736 0.0000 -26265.7388 4374.3460 0.0000 0.0000 1725.8756 -20123.3219 151.4518 -21849.1975 -20120.1560 150.2644 67.9286 147.9529 56458.7612 4.2592 4.3621
TCL: Running 50000 steps at 180 kelvin.
TCL: Setting parameter langevinTemp to 180
TCL: Running for 50000 steps
ETITLE: TS BOND ANGLE DIHED IMPRP ELECT VDW BOUNDARY MISC KINETIC TOTAL TEMP POTENTIAL TOTAL3 TEMPAVG PRESSURE GPRESSURE VOLUME PRESSAVG GPRESSAVG
ENERGY: 125000 2.1767 7.1450 32.8736 0.0000 -26265.7388 4374.3460 0.0000 0.0000 1725.0347 -20124.1628 151.3780 -21849.1975 -20120.5920 151.3780 83.0083 147.8043 56458.7612 83.0083 147.8043
ENERGY: 135000 3.3254 9.0101 32.0185 0.0000 -25789.9441 4414.6178 0.0000 0.0000 2064.7369 -19266.2354 181.1880 -21330.9723 -19258.6618 180.0959 1125.2372 1248.0077 56079.0984 -2.2365 -1.8495
ENERGY: 145000 1.2830 15.1726 32.6566 0.0000 -25658.3707 4289.7776 0.0000 0.0000 2005.0886 -19314.3923 175.9537 -21319.4809 -19308.9649 179.2397 682.4852 736.9787 56247.3784 2.9191 2.7083
ENERGY: 155000 1.1112 12.3166 33.1067 0.0000 -25591.5253 4279.3250 0.0000 0.0000 2060.6955 -19204.9703 180.8334 -21265.6659 -19200.0553 181.4335 844.8288 934.3630 56034.8951 7.1887 6.7638
ENERGY: 165000 1.9971 9.0425 34.1913 0.0000 -25434.3344 4064.4391 0.0000 0.0000 2037.3764 -19287.2880 178.7871 -21324.6645 -19283.6989 179.8870 -203.8444 -134.9379 56392.0180 0.7278 1.2750
ENERGY: 175000 1.2801 8.9316 32.8541 0.0000 -25714.5994 4242.7299 0.0000 0.0000 2047.3122 -19381.4915 179.6590 -21428.8037 -19377.5459 180.4822 509.0375 585.4386 55513.2303 6.3160 5.8718
TCL: Running 50000 steps at 210 kelvin.
TCL: Setting parameter langevinTemp to 210
TCL: Running for 50000 steps
ETITLE: TS BOND ANGLE DIHED IMPRP ELECT VDW BOUNDARY MISC KINETIC TOTAL TEMP POTENTIAL TOTAL3 TEMPAVG PRESSURE GPRESSURE VOLUME PRESSAVG GPRESSAVG
ENERGY: 175000 1.2801 8.9316 32.8541 0.0000 -25714.5994 4242.7299 0.0000 0.0000 2046.3173 -19382.4865 179.5717 -21428.8037 -19378.3627 179.5717 519.5950 583.9490 55513.2303 519.5950 583.9490
ENERGY: 185000 3.1988 12.1317 34.6160 0.0000 -24317.2915 3754.4373 0.0000 0.0000 2363.0998 -18149.8079 207.3705 -20512.9077 -18143.7811 209.7853 235.0354 279.9869 55496.5454 0.6147 0.4324
ENERGY: 195000 2.5208 10.6408 31.9636 0.0000 -24417.3311 3803.4378 0.0000 0.0000 2415.9490 -18152.8191 212.0082 -20568.7681 -18148.5013 209.9175 284.1744 338.7485 55833.9692 0.2727 0.6342
ENERGY: 205000 1.2672 8.8589 31.1541 0.0000 -24338.3055 3794.6427 0.0000 0.0000 2423.5018 -18078.8808 212.6710 -20502.3826 -18071.8881 209.1180 521.8559 596.9284 55608.7743 2.4018 2.7283
ENERGY: 215000 3.0375 12.1726 31.8775 0.0000 -24074.2347 3632.3227 0.0000 0.0000 2357.2977 -18037.5266 206.8613 -20394.8243 -18031.9581 210.9582 -154.2108 -78.4343 56022.8532 3.5205 3.8411
ENERGY: 225000 2.5264 11.9686 32.2503 0.0000 -24307.3806 3714.5866 0.0000 0.0000 2392.1004 -18153.9482 209.9154 -20546.0487 -18148.8438 209.9723 -69.3668 4.3136 55883.4246 2.9853 3.3401
TCL: Running 50000 steps at 240 kelvin.
TCL: Setting parameter langevinTemp to 240
TCL: Running for 50000 steps
ETITLE: TS BOND ANGLE DIHED IMPRP ELECT VDW BOUNDARY MISC KINETIC TOTAL TEMP POTENTIAL TOTAL3 TEMPAVG PRESSURE GPRESSURE VOLUME PRESSAVG GPRESSAVG
ENERGY: 225000 2.5264 11.9686 32.2503 0.0000 -24307.3806 3714.5866 0.0000 0.0000 2390.8838 -18155.1648 209.8086 -20546.0487 -18151.2932 209.8086 -68.3503 5.2054 55883.4246 -68.3503 5.2054
ENERGY: 235000 1.7354 12.4225 31.5014 0.0000 -22893.1124 3203.5988 0.0000 0.0000 2773.3482 -16870.5061 243.3712 -19643.8543 -16866.9893 239.2918 -637.2564 -544.1255 56742.5747 1.2986 1.5587
ENERGY: 245000 2.6315 13.4498 32.5013 0.0000 -23097.2106 3436.8963 0.0000 0.0000 2749.7302 -16862.0016 241.2987 -19611.7318 -16856.7904 239.0970 331.1123 447.5613 56415.0653 -1.0294 -1.3204
ENERGY: 255000 2.7257 9.1411 31.8436 0.0000 -23085.4049 3398.9303 0.0000 0.0000 2724.2837 -16918.4805 239.0656 -19642.7642 -16912.5938 239.6878 -65.7402 39.6772 56721.5974 5.2676 5.3791
ENERGY: 265000 2.7108 14.2269 33.0457 0.0000 -23125.0386 3467.2189 0.0000 0.0000 2656.6987 -16951.1375 233.1348 -19607.8362 -16945.8831 239.4302 307.5761 417.8477 56753.1215 2.7755 3.0523
ENERGY: 275000 1.8374 10.4959 34.6368 0.0000 -22960.3487 3335.3069 0.0000 0.0000 2763.1164 -16814.9553 242.4733 -19578.0716 -16810.3130 240.7246 84.6312 146.7683 56607.9851 6.4234 6.2691
TCL: Running 50000 steps at 270 kelvin.
TCL: Setting parameter langevinTemp to 270
TCL: Running for 50000 steps
ETITLE: TS BOND ANGLE DIHED IMPRP ELECT VDW BOUNDARY MISC KINETIC TOTAL TEMP POTENTIAL TOTAL3 TEMPAVG PRESSURE GPRESSURE VOLUME PRESSAVG GPRESSAVG
ENERGY: 275000 1.8374 10.4959 34.6368 0.0000 -22960.3487 3335.3069 0.0000 0.0000 2761.7562 -16816.3154 242.3540 -19578.0716 -16812.3479 242.3540 70.3470 146.4058 56607.9851 70.3470 146.4058
ENERGY: 285000 3.3560 9.6510 35.9698 0.0000 -21944.2925 3085.9166 0.0000 0.0000 3023.5208 -15785.8784 265.3248 -18809.3992 -15781.8303 270.7936 158.3021 260.0983 56856.6401 1.2300 0.5057
ENERGY: 295000 1.9586 9.8329 39.7946 0.0000 -22198.9739 3228.5581 0.0000 0.0000 3056.7445 -15862.0853 268.2403 -18918.8298 -15855.0071 268.3429 660.3332 707.9081 57040.9648 -1.0607 -1.1393
ENERGY: 305000 2.5566 11.3812 34.4465 0.0000 -21729.4263 2909.9564 0.0000 0.0000 3038.8605 -15732.2251 266.6709 -18771.0857 -15726.5413 270.9805 -468.2011 -388.7032 57357.4394 6.4662 6.1450
ENERGY: 315000 0.9495 13.2923 31.0693 0.0000 -21917.4584 3113.7585 0.0000 0.0000 3071.6766 -15686.7122 269.5506 -18758.3888 -15680.5656 270.6416 306.8486 399.1820 57514.7667 5.1466 4.8309
ENERGY: 325000 2.5902 12.1684 35.9597 0.0000 -21731.9556 2806.3627 0.0000 0.0000 3037.9781 -15836.8965 266.5934 -18874.8745 -15828.3569 268.5151 -1104.3304 -1057.1855 57705.3959 4.5365 4.0666
TCL: Running 1000000 steps at 300 kelvin.
TCL: Setting parameter langevinTemp to 300
TCL: Running for 1000000 steps
ETITLE: TS BOND ANGLE DIHED IMPRP ELECT VDW BOUNDARY MISC KINETIC TOTAL TEMP POTENTIAL TOTAL3 TEMPAVG PRESSURE GPRESSURE VOLUME PRESSAVG GPRESSAVG
ENERGY: 325000 2.5902 12.1684 35.9597 0.0000 -21731.9556 2806.3627 0.0000 0.0000 3036.4686 -15838.4060 266.4610 -18874.8745 -15833.5355 266.4610 -1145.5722 -1057.5078 57705.3959 -1145.5722 -1057.5078
ENERGY: 525000 2.8526 14.0986 38.0071 0.0000 -20723.4501 2790.5374 0.0000 0.0000 3379.8814 -14498.0730 296.5967 -17877.9545 -14492.5352 302.0617 125.4465 247.8284 59249.8616 3.2037 3.2330
ENERGY: 725000 3.5551 9.9965 33.9389 0.0000 -20871.1641 2790.2088 0.0000 0.0000 3407.4796 -14625.9852 299.0185 -18033.4649 -14618.5004 300.0195 -148.8911 -25.6969 59190.0360 2.9638 3.0295
ENERGY: 925000 4.6808 15.2081 34.9747 0.0000 -20965.4899 2796.4868 0.0000 0.0000 3432.6573 -14681.4822 301.2280 -18114.1394 -14680.1925 298.7242 -175.2796 -105.2744 58536.7909 -1.1444 -1.2982
ENERGY: 1125000 1.5146 9.6026 39.1918 0.0000 -20916.6525 2826.4120 0.0000 0.0000 3493.9486 -14545.9829 306.6065 -18039.9315 -14540.9550 299.0557 -32.4557 62.3319 59331.4872 0.1010 0.3804
ENERGY: 1325000 1.5384 16.2073 34.4154 0.0000 -20767.7254 2751.7625 0.0000 0.0000 3379.3937 -14584.4083 296.5539 -17963.8019 -14579.4416 301.3854 -276.7611 -215.4569 59527.6382 8.7123 9.0339
TCL: Exiting due to exit command.
