Info: SIMULATION PARAMETERS:
Info: TIMESTEP               2
Info: NUMBER OF STEPS        0
Info: STEPS PER CYCLE        10
Info: PERIODIC CELL BASIS 1  35.01 0 0
Info: PERIODIC CELL BASIS 2  0 34.26 0
Info: PERIODIC CELL BASIS 3  0 0 36.199
Info: PERIODIC CELL CENTER   0 0 0
Info: WRAPPING WATERS AROUND PERIODIC BOUNDARIES ON OUTPUT.
Info: WRAPPING ALL CLUSTERS AROUND PERIODIC BOUNDARIES ON OUTPUT.
Info: FIRST LDB TIMESTEP     50
Info: LAST LDB TIMESTEP     -1
Info: HOM BACKGROUND SCALING 1
Info: PME BACKGROUND SCALING 1
Info: MIN ATOMS PER PATCH    40
Info: EMPTY PATCH LOAD       40 ATOMS
Info: INITIAL TEMPERATURE    300
Info: CENTER OF MASS MOVING INITIALLY? NO
Info: DIELECTRIC             1
Info: EXCLUDE                SCALED ONE-FOUR
Info: 1-4 ELECTROSTATICS SCALED BY 0.833333
Info: MODIFIED 1-4 VDW PARAMETERS WILL BE USED
Info: DCD FILENAME           mobley_1717215_equil.dcd
Info: DCD FREQUENCY          100000
Info: DCD FIRST STEP         100000
Info: DCD FILE WILL CONTAIN UNIT CELL DATA
Info: XST FILENAME           mobley_1717215_equil.xst
Info: XST FREQUENCY          100000
Info: NO VELOCITY DCD OUTPUT
Info: NO FORCE DCD OUTPUT
Info: OUTPUT FILENAME        mobley_1717215_equil
Info: BINARY OUTPUT FILES WILL BE USED
Info: RESTART FILENAME       mobley_1717215_equil.restart
Info: RESTART FREQUENCY      100000
Info: BINARY RESTART FILES WILL BE USED
Info: CUTOFF                 9
Info: PAIRLIST DISTANCE      11
Info: PAIRLIST SHRINK RATE   0.01
Info: PAIRLIST GROW RATE     0.01
Info: PAIRLIST TRIGGER       0.3
Info: PAIRLISTS PER CYCLE    2
Info: PAIRLISTS ENABLED
Info: MARGIN                 8
Info: HYDROGEN GROUP CUTOFF  2.5
Info: PATCH DIMENSION        21.5
Info: ENERGY OUTPUT STEPS    100000
Info: ENERGY EVALUATION STEPS    100000
Info: OUTPUT ENERGY PRECISION 4
Info: CROSSTERM ENERGY INCLUDED IN DIHEDRAL
Info: TIMING OUTPUT STEPS    1000000
Info: PRESSURE OUTPUT STEPS  100000
Info: FIXED ATOMS ACTIVE
Info: LANGEVIN DYNAMICS ACTIVE
Info: LANGEVIN TEMPERATURE   30
Info: LANGEVIN USING BBK INTEGRATOR
Info: LANGEVIN DAMPING COEFFICIENT IS 1 INVERSE PS
Info: LANGEVIN DYNAMICS APPLIED TO HYDROGENS
Info: LANGEVIN PISTON PRESSURE CONTROL ACTIVE
Info:        TARGET PRESSURE IS 1.01325 BAR
Info:     OSCILLATION PERIOD IS 50 FS
Info:             DECAY TIME IS 25 FS
Info:     PISTON TEMPERATURE IS 300 K
Info:       PRESSURE CONTROL IS GROUP-BASED
Info:    INITIAL STRAIN RATE IS 0 0 0
Info:       CELL FLUCTUATION IS ISOTROPIC
Info: PARTICLE MESH EWALD (PME) ACTIVE
Info: PME TOLERANCE               1e-06
Info: PME EWALD COEFFICIENT       0.348832
Info: PME INTERPOLATION ORDER     4
Info: PME GRID DIMENSIONS         36 36 40
Info: PME MAXIMUM GRID SPACING    1
Info: FULL ELECTROSTATIC EVALUATION FREQUENCY      2
Info: USING VERLET I (r-RESPA) MTS SCHEME.
Info: C1 SPLITTING OF LONG RANGE ELECTROSTATICS
Info: PLACING ATOMS IN PATCHES BY HYDROGEN GROUPS
Info: RIGID BONDS TO HYDROGEN : ALL
Info:         ERROR TOLERANCE : 1e-08
Info:          MAX ITERATIONS : 100
Info: RIGID WATER USING SETTLE ALGORITHM
Info: RANDOM NUMBER SEED     1742332826
Info: USE HYDROGEN BONDS?    NO
Info: Using AMBER format force field!
Info: AMBER PARM FILE        mobley_1717215.prmtop
Info: COORDINATE PDB         mobley_1717215.pdb
Info: Exclusions will be read from PARM file!
Info: SCNB (VDW SCALING)     2
Info: USING ARITHMETIC MEAN TO COMBINE L-J SIGMA PARAMETERS
Info: BINARY COORDINATES     mobley_1717215_min.coor
Info: SUMMARY OF PARAMETERS:
Info: 7 BONDS
Info: 6 ANGLES
Info:   6 HARMONIC
Info:   0 COSINE-BASED
Info: 4 DIHEDRAL
Info: 0 IMPROPER
Info: 0 CROSSTERM
Info: 0 VDW
Info: 36 VDW_PAIRS
Info: 0 NBTHOLE_PAIRS
Info: STRUCTURE SUMMARY:
Info: 2942 ATOMS
Info: 2941 BONDS
Info: 10 ANGLES
Info: 7 DIHEDRALS
Info: 0 IMPROPERS
Info: 0 CROSSTERMS
Info: 2956 EXCLUSIONS
Info: 8 FIXED ATOMS
Info: 2938 RIGID BONDS
Info: 4 RIGID BONDS BETWEEN FIXED ATOMS
Info: 5868 DEGREES OF FREEDOM
Info: 982 HYDROGEN GROUPS
Info: 4 ATOMS IN LARGEST HYDROGEN GROUP
Info: 982 MIGRATION GROUPS
Info: 4 ATOMS IN LARGEST MIGRATION GROUP
Info: 4 HYDROGEN GROUPS WITH ALL ATOMS FIXED
Info: TOTAL MASS = 17679.7 amu
Info: TOTAL CHARGE = -9.99756e-05 e
Info: MASS DENSITY = 0.676173 g/cm^3
Info: ATOM DENSITY = 0.0677589 atoms/A^3
Info: ADDED 0 IMPLICIT EXCLUSIONS
Info: NONBONDED TABLE R-SQUARED SPACING: 0.0625
Info: NONBONDED TABLE SIZE: 705 POINTS
Info: REMOVING COM VELOCITY -0.0447647 0.0456842 0.133784
TCL: Running for 100000 steps
ETITLE: TS BOND ANGLE DIHED IMPRP ELECT VDW BOUNDARY MISC KINETIC TOTAL TEMP POTENTIAL TOTAL3 TEMPAVG PRESSURE GPRESSURE VOLUME PRESSAVG GPRESSAVG
ENERGY: 0 0.0000 0.0000 0.0000 0.0000 -13692.5586 2403.1548 0.0000 0.0000 1725.0173 -9564.3865 295.8651 -11289.4038 -9563.9987 295.8651 448.1480 490.7079 43418.6227 448.1480 490.7079
ENERGY: 100000 0.0000 0.0000 0.0000 0.0000 -14234.4065 2489.7804 0.0000 0.0000 171.7819 -11572.8442 29.4631 -11744.6261 -11572.2461 30.8692 126.0410 193.2308 29413.3244 5.2955 5.3542
TCL: Running 100000 steps at 60 kelvin.
TCL: Setting parameter langevinTemp to 60
TCL: Running for 100000 steps
ETITLE: TS BOND ANGLE DIHED IMPRP ELECT VDW BOUNDARY MISC KINETIC TOTAL TEMP POTENTIAL TOTAL3 TEMPAVG PRESSURE GPRESSURE VOLUME PRESSAVG GPRESSAVG
ENERGY: 100000 0.0000 0.0000 0.0000 0.0000 -14234.4065 2489.7804 0.0000 0.0000 171.6926 -11572.9334 29.4477 -11744.6261 -11572.6473 29.4477 131.7050 193.3591 29413.3244 131.7050 193.3591
ENERGY: 200000 0.0000 0.0000 0.0000 0.0000 -14053.9143 2344.6560 0.0000 0.0000 346.0020 -11363.2563 59.3443 -11709.2583 -11362.2713 59.9544 -692.3067 -668.3741 28819.4346 4.3158 4.3575
TCL: Running 100000 steps at 90 kelvin.
TCL: Setting parameter langevinTemp to 90
TCL: Running for 100000 steps
ETITLE: TS BOND ANGLE DIHED IMPRP ELECT VDW BOUNDARY MISC KINETIC TOTAL TEMP POTENTIAL TOTAL3 TEMPAVG PRESSURE GPRESSURE VOLUME PRESSAVG GPRESSAVG
ENERGY: 200000 0.0000 0.0000 0.0000 0.0000 -14053.9143 2344.6560 0.0000 0.0000 345.8281 -11363.4302 59.3145 -11709.2583 -11362.8584 59.3145 -730.0576 -668.1683 28819.4346 -730.0576 -668.1683
ENERGY: 300000 0.0000 0.0000 0.0000 0.0000 -13908.7844 2308.1245 0.0000 0.0000 523.7516 -11076.9082 89.8309 -11600.6598 -11075.5861 90.0204 -496.3112 -468.5248 28595.2291 4.1209 4.0699
TCL: Running 100000 steps at 120 kelvin.
TCL: Setting parameter langevinTemp to 120
TCL: Running for 100000 steps
ETITLE: TS BOND ANGLE DIHED IMPRP ELECT VDW BOUNDARY MISC KINETIC TOTAL TEMP POTENTIAL TOTAL3 TEMPAVG PRESSURE GPRESSURE VOLUME PRESSAVG GPRESSAVG
ENERGY: 300000 0.0000 0.0000 0.0000 0.0000 -13908.7844 2308.1245 0.0000 0.0000 523.4898 -11077.1701 89.7860 -11600.6598 -11076.0418 89.7860 -521.8865 -468.9964 28595.2291 -521.8865 -468.9964
ENERGY: 400000 0.0000 0.0000 0.0000 0.0000 -13898.4978 2379.3963 0.0000 0.0000 694.9718 -10824.1297 119.1976 -11519.1015 -10822.7847 120.0792 620.2512 669.2324 28266.3437 3.8433 3.8612
TCL: Running 100000 steps at 150 kelvin.
TCL: Setting parameter langevinTemp to 150
TCL: Running for 100000 steps
ETITLE: TS BOND ANGLE DIHED IMPRP ELECT VDW BOUNDARY MISC KINETIC TOTAL TEMP POTENTIAL TOTAL3 TEMPAVG PRESSURE GPRESSURE VOLUME PRESSAVG GPRESSAVG
ENERGY: 400000 0.0000 0.0000 0.0000 0.0000 -13898.4978 2379.3963 0.0000 0.0000 694.6265 -10824.4750 119.1384 -11519.1015 -10823.2881 119.1384 609.1165 668.4566 28266.3437 609.1165 668.4566
ENERGY: 500000 0.0000 0.0000 0.0000 0.0000 -13559.8248 2236.8656 0.0000 0.0000 866.8814 -10456.0778 148.6825 -11322.9592 -10453.4910 149.7132 -148.0303 -71.8246 28830.5231 3.0927 3.1823
TCL: Running 100000 steps at 180 kelvin.
TCL: Setting parameter langevinTemp to 180
TCL: Running for 100000 steps
ETITLE: TS BOND ANGLE DIHED IMPRP ELECT VDW BOUNDARY MISC KINETIC TOTAL TEMP POTENTIAL TOTAL3 TEMPAVG PRESSURE GPRESSURE VOLUME PRESSAVG GPRESSAVG
ENERGY: 500000 0.0000 0.0000 0.0000 0.0000 -13559.8248 2236.8656 0.0000 0.0000 866.4333 -10456.5259 148.6057 -11322.9592 -10455.2334 148.6057 -120.1644 -72.6628 28830.5231 -120.1644 -72.6628
ENERGY: 600000 0.0000 0.0000 0.0000 0.0000 -13003.7810 1999.4984 0.0000 0.0000 1056.9164 -9947.3662 181.2762 -11004.2826 -9944.1981 179.9383 -877.6986 -821.2147 28949.0620 3.0888 3.1077
TCL: Running 100000 steps at 210 kelvin.
TCL: Setting parameter langevinTemp to 210
TCL: Running for 100000 steps
ETITLE: TS BOND ANGLE DIHED IMPRP ELECT VDW BOUNDARY MISC KINETIC TOTAL TEMP POTENTIAL TOTAL3 TEMPAVG PRESSURE GPRESSURE VOLUME PRESSAVG GPRESSAVG
ENERGY: 600000 0.0000 0.0000 0.0000 0.0000 -13003.7810 1999.4984 0.0000 0.0000 1056.3895 -9947.8931 181.1859 -11004.2826 -9945.8111 181.1859 -894.6757 -820.1006 28949.0620 -894.6757 -820.1006
ENERGY: 700000 0.0000 0.0000 0.0000 0.0000 -12573.8630 1977.5579 0.0000 0.0000 1240.7600 -9355.5450 212.8081 -10596.3051 -9352.3768 209.6858 495.4823 608.3259 28554.6392 4.1597 4.1410
TCL: Running 100000 steps at 240 kelvin.
TCL: Setting parameter langevinTemp to 240
TCL: Running for 100000 steps
ETITLE: TS BOND ANGLE DIHED IMPRP ELECT VDW BOUNDARY MISC KINETIC TOTAL TEMP POTENTIAL TOTAL3 TEMPAVG PRESSURE GPRESSURE VOLUME PRESSAVG GPRESSAVG
ENERGY: 700000 0.0000 0.0000 0.0000 0.0000 -12573.8630 1977.5579 0.0000 0.0000 1240.1435 -9356.1616 212.7023 -10596.3051 -9353.8614 212.7023 526.6054 608.6792 28554.6392 526.6054 608.6792
ENERGY: 800000 0.0000 0.0000 0.0000 0.0000 -11828.5692 1693.8705 0.0000 0.0000 1428.8874 -8705.8113 245.0746 -10134.6986 -8701.5363 239.8127 -212.8846 -136.8272 29048.6963 3.7405 3.6615
TCL: Running 100000 steps at 270 kelvin.
TCL: Setting parameter langevinTemp to 270
TCL: Running for 100000 steps
ETITLE: TS BOND ANGLE DIHED IMPRP ELECT VDW BOUNDARY MISC KINETIC TOTAL TEMP POTENTIAL TOTAL3 TEMPAVG PRESSURE GPRESSURE VOLUME PRESSAVG GPRESSAVG
ENERGY: 800000 0.0000 0.0000 0.0000 0.0000 -11828.5692 1693.8705 0.0000 0.0000 1428.1523 -8706.5463 244.9485 -10134.6986 -8704.4053 244.9485 -221.8513 -137.2238 29048.6963 -221.8513 -137.2238
ENERGY: 900000 0.0000 0.0000 0.0000 0.0000 -11161.0993 1521.0662 0.0000 0.0000 1532.0211 -8108.0121 262.7635 -9640.0331 -8107.0379 270.4784 -138.7540 -73.9146 29573.2445 3.2157 3.2425
TCL: Running 1000000 steps at 300 kelvin.
TCL: Setting parameter langevinTemp to 300
TCL: Running for 1000000 steps
ETITLE: TS BOND ANGLE DIHED IMPRP ELECT VDW BOUNDARY MISC KINETIC TOTAL TEMP POTENTIAL TOTAL3 TEMPAVG PRESSURE GPRESSURE VOLUME PRESSAVG GPRESSAVG
ENERGY: 900000 0.0000 0.0000 0.0000 0.0000 -11161.0993 1521.0662 0.0000 0.0000 1531.2639 -8108.7693 262.6336 -9640.0331 -8106.4038 262.6336 -153.0747 -75.4422 29573.2445 -153.0747 -75.4422
ENERGY: 1100000 0.0000 0.0000 0.0000 0.0000 -10888.3895 1567.4905 0.0000 0.0000 1772.2457 -7548.6533 303.9654 -9320.8990 -7545.6896 300.5184 1199.5108 1315.2804 29889.0854 1.5020 1.3425
ENERGY: 1300000 0.0000 0.0000 0.0000 0.0000 -10670.6342 1398.4525 0.0000 0.0000 1726.2456 -7545.9360 296.0758 -9272.1816 -7543.3823 300.2230 -302.5765 -286.8750 30620.7188 3.2102 3.1502
ENERGY: 1500000 0.0000 0.0000 0.0000 0.0000 -10646.8252 1329.9964 0.0000 0.0000 1723.5012 -7593.3275 295.6051 -9316.8287 -7590.2750 300.2937 -912.7762 -869.8554 30397.7258 2.4921 2.3026
ENERGY: 1700000 0.0000 0.0000 0.0000 0.0000 -10571.7508 1283.9410 0.0000 0.0000 1776.2403 -7511.5696 304.6506 -9287.8098 -7510.4227 299.7070 -1383.7837 -1217.5823 30820.4767 3.1307 3.1543
ENERGY: 1900000 0.0000 0.0000 0.0000 0.0000 -10727.1944 1440.9323 0.0000 0.0000 1766.0283 -7520.2337 302.8991 -9286.2621 -7520.1914 299.4152 259.5085 362.2968 29987.8167 3.3968 3.3601
TCL: Exiting due to exit command.
