Info: SIMULATION PARAMETERS:
Info: TIMESTEP               2
Info: NUMBER OF STEPS        0
Info: STEPS PER CYCLE        10
Info: PERIODIC CELL BASIS 1  39.806 0 0
Info: PERIODIC CELL BASIS 2  0 37.835 0
Info: PERIODIC CELL BASIS 3  0 0 42.851
Info: PERIODIC CELL CENTER   0 0 0
Info: WRAPPING WATERS AROUND PERIODIC BOUNDARIES ON OUTPUT.
Info: WRAPPING ALL CLUSTERS AROUND PERIODIC BOUNDARIES ON OUTPUT.
Info: FIRST LDB TIMESTEP     50
Info: LAST LDB TIMESTEP     -1
Info: HOM BACKGROUND SCALING 1
Info: PME BACKGROUND SCALING 1
Info: MIN ATOMS PER PATCH    40
Info: EMPTY PATCH LOAD       40 ATOMS
Info: INITIAL TEMPERATURE    300
Info: CENTER OF MASS MOVING INITIALLY? NO
Info: DIELECTRIC             1
Info: EXCLUDE                SCALED ONE-FOUR
Info: 1-4 ELECTROSTATICS SCALED BY 0.833333
Info: MODIFIED 1-4 VDW PARAMETERS WILL BE USED
Info: DCD FILENAME           mobley_3398536_min.dcd
Info: DCD FREQUENCY          5000
Info: DCD FIRST STEP         5000
Info: DCD FILE WILL CONTAIN UNIT CELL DATA
Info: XST FILENAME           mobley_3398536_min.xst
Info: XST FREQUENCY          5000
Info: NO VELOCITY DCD OUTPUT
Info: NO FORCE DCD OUTPUT
Info: OUTPUT FILENAME        mobley_3398536_min
Info: BINARY OUTPUT FILES WILL BE USED
Info: RESTART FILENAME       mobley_3398536_min.restart
Info: RESTART FREQUENCY      5000
Info: BINARY RESTART FILES WILL BE USED
Info: CUTOFF                 9
Info: PAIRLIST DISTANCE      11
Info: PAIRLIST SHRINK RATE   0.01
Info: PAIRLIST GROW RATE     0.01
Info: PAIRLIST TRIGGER       0.3
Info: PAIRLISTS PER CYCLE    2
Info: PAIRLISTS ENABLED
Info: MARGIN                 8
Info: HYDROGEN GROUP CUTOFF  2.5
Info: PATCH DIMENSION        21.5
Info: ENERGY OUTPUT STEPS    5000
Info: ENERGY EVALUATION STEPS    5000
Info: OUTPUT ENERGY PRECISION 4
Info: CROSSTERM ENERGY INCLUDED IN DIHEDRAL
Info: TIMING OUTPUT STEPS    50000
Info: PRESSURE OUTPUT STEPS  5000
Info: LANGEVIN DYNAMICS ACTIVE
Info: LANGEVIN TEMPERATURE   300
Info: LANGEVIN USING BBK INTEGRATOR
Info: LANGEVIN DAMPING COEFFICIENT IS 1 INVERSE PS
Info: LANGEVIN DYNAMICS APPLIED TO HYDROGENS
Info: LANGEVIN PISTON PRESSURE CONTROL ACTIVE
Info:        TARGET PRESSURE IS 1.01325 BAR
Info:     OSCILLATION PERIOD IS 50 FS
Info:             DECAY TIME IS 25 FS
Info:     PISTON TEMPERATURE IS 300 K
Info:       PRESSURE CONTROL IS GROUP-BASED
Info:    INITIAL STRAIN RATE IS 0 0 0
Info:       CELL FLUCTUATION IS ISOTROPIC
Info: PARTICLE MESH EWALD (PME) ACTIVE
Info: PME TOLERANCE               1e-06
Info: PME EWALD COEFFICIENT       0.348832
Info: PME INTERPOLATION ORDER     4
Info: PME GRID DIMENSIONS         40 40 44
Info: PME MAXIMUM GRID SPACING    1
Info: FULL ELECTROSTATIC EVALUATION FREQUENCY      2
Info: USING VERLET I (r-RESPA) MTS SCHEME.
Info: C1 SPLITTING OF LONG RANGE ELECTROSTATICS
Info: PLACING ATOMS IN PATCHES BY HYDROGEN GROUPS
Info: RIGID BONDS TO HYDROGEN : ALL
Info:         ERROR TOLERANCE : 1e-08
Info:          MAX ITERATIONS : 100
Info: RIGID WATER USING SETTLE ALGORITHM
Info: RANDOM NUMBER SEED     1741331165
Info: USE HYDROGEN BONDS?    NO
Info: Using AMBER format force field!
Info: AMBER PARM FILE        mobley_3398536.prmtop
Info: COORDINATE PDB         mobley_3398536.pdb
Info: Exclusions will be read from PARM file!
Info: SCNB (VDW SCALING)     2
Info: USING ARITHMETIC MEAN TO COMBINE L-J SIGMA PARAMETERS
Info: SUMMARY OF PARAMETERS:
Info: 5 BONDS
Info: 3 ANGLES
Info:   3 HARMONIC
Info:   0 COSINE-BASED
Info: 2 DIHEDRAL
Info: 0 IMPROPER
Info: 0 CROSSTERM
Info: 0 VDW
Info: 15 VDW_PAIRS
Info: 0 NBTHOLE_PAIRS
Info: STRUCTURE SUMMARY:
Info: 4644 ATOMS
Info: 4644 BONDS
Info: 18 ANGLES
Info: 30 DIHEDRALS
Info: 0 IMPROPERS
Info: 0 CROSSTERMS
Info: 4683 EXCLUSIONS
Info: 4637 RIGID BONDS
Info: 9295 DEGREES OF FREEDOM
Info: 1551 HYDROGEN GROUPS
Info: 3 ATOMS IN LARGEST HYDROGEN GROUP
Info: 1551 MIGRATION GROUPS
Info: 3 ATOMS IN LARGEST MIGRATION GROUP
Info: TOTAL MASS = 28020.7 amu
Info: TOTAL CHARGE = 0.000100022 e
Info: MASS DENSITY = 0.721 g/cm^3
Info: ATOM DENSITY = 0.0719596 atoms/A^3
Info: ADDED 0 IMPLICIT EXCLUSIONS
Info: NONBONDED TABLE R-SQUARED SPACING: 0.0625
Info: NONBONDED TABLE SIZE: 705 POINTS
Info: REMOVING COM VELOCITY 0.152339 0.0457384 -0.0354468
TCL: Minimizing for 2000 steps
ETITLE: TS BOND ANGLE DIHED IMPRP ELECT VDW BOUNDARY MISC KINETIC TOTAL TEMP POTENTIAL TOTAL3 TEMPAVG PRESSURE GPRESSURE VOLUME PRESSAVG GPRESSAVG
ENERGY: 0 0.7106 0.1015 0.0001 0.0000 -14434.3477 1672.6824 0.0000 0.0000 0.0000 -12760.8532 0.0000 -12760.8532 -12760.8532 0.0000 11237.9942 -15530.2791 64536.1775 11237.9942 -15530.2791
ENERGY: 400 3.9789 0.9084 0.0382 0.0000 -19287.3576 2759.2717 0.0000 0.0000 0.0000 -16523.1603 0.0000 -16523.1603 -16523.1603 0.0000 15302.6251 15131.6436 64536.1775 15302.6251 15131.6436
ENERGY: 800 1.4775 0.1563 0.0817 0.0000 -20447.6980 3322.0592 0.0000 0.0000 0.0000 -17123.9233 0.0000 -17123.9233 -17123.9233 0.0000 18109.9811 17826.2455 64536.1775 18109.9811 17826.2455
ENERGY: 1200 0.2853 0.1011 0.0717 0.0000 -20884.5586 3482.0804 0.0000 0.0000 0.0000 -17402.0201 0.0000 -17402.0201 -17402.0201 0.0000 18914.0879 18632.8153 64536.1775 18914.0879 18632.8153
ENERGY: 1600 0.2658 0.0596 0.0222 0.0000 -21098.9008 3586.2470 0.0000 0.0000 0.0000 -17512.3062 0.0000 -17512.3062 -17512.3062 0.0000 19476.2932 19161.7873 64536.1775 19476.2932 19161.7873
ENERGY: 2000 0.2695 0.0736 0.0380 0.0000 -21237.3810 3647.2849 0.0000 0.0000 0.0000 -17589.7151 0.0000 -17589.7151 -17589.7151 0.0000 19837.5517 19544.9346 64536.1775 19837.5517 19544.9346
TCL: Exiting due to exit command.
Info: NAMD 3.0.1 for Linux-x86_64-multicore
Info: Please visit http://www.ks.uiuc.edu/Research/namd/
Info: for updates, documentation, and support information.
Info: Please cite Phillips et al., J. Chem. Phys. 153:044130 (2020) doi:10.1063/5.0014475
Info: in all publications reporting results obtained with NAMD.
Info: Based on Charm++/Converse 80000 for multicore-linux-x86_64-gcc
Info: Built Mon Oct 14 11:11:06 CDT 2024 by dhardy on athine.ks.uiuc.edu
Info: 1 NAMD  3.0.1  Linux-x86_64-multicore  16    k062  z5358697
Info: Running on 16 processors, 1 nodes, 1 physical nodes.
Info: CPU topology information available.
Info: Charm++/Converse parallel runtime startup completed at 0.011555 s
Info: 1043.46 MB of memory in use based on /proc/self/stat
Info: Configuration file is mobley_3398536_equil.namd
Info: Working in the current directory /srv/scratch/z5358697/prod_prep_4/3398536
TCL: Running 25000 steps at 30 kelvin.
TCL: Suspending until startup complete.
Info: SIMULATION PARAMETERS:
Info: TIMESTEP               2
Info: NUMBER OF STEPS        0
Info: STEPS PER CYCLE        10
Info: PERIODIC CELL BASIS 1  39.806 0 0
Info: PERIODIC CELL BASIS 2  0 37.835 0
Info: PERIODIC CELL BASIS 3  0 0 42.851
Info: PERIODIC CELL CENTER   0 0 0
Info: WRAPPING WATERS AROUND PERIODIC BOUNDARIES ON OUTPUT.
Info: WRAPPING ALL CLUSTERS AROUND PERIODIC BOUNDARIES ON OUTPUT.
Info: FIRST LDB TIMESTEP     50
Info: LAST LDB TIMESTEP     -1
Info: HOM BACKGROUND SCALING 1
Info: PME BACKGROUND SCALING 1
Info: MIN ATOMS PER PATCH    40
Info: EMPTY PATCH LOAD       40 ATOMS
Info: INITIAL TEMPERATURE    300
Info: CENTER OF MASS MOVING INITIALLY? NO
Info: DIELECTRIC             1
Info: EXCLUDE                SCALED ONE-FOUR
Info: 1-4 ELECTROSTATICS SCALED BY 0.833333
Info: MODIFIED 1-4 VDW PARAMETERS WILL BE USED
Info: DCD FILENAME           mobley_3398536_equil.dcd
Info: DCD FREQUENCY          5000
Info: DCD FIRST STEP         5000
Info: DCD FILE WILL CONTAIN UNIT CELL DATA
Info: XST FILENAME           mobley_3398536_equil.xst
Info: XST FREQUENCY          5000
Info: NO VELOCITY DCD OUTPUT
Info: NO FORCE DCD OUTPUT
Info: OUTPUT FILENAME        mobley_3398536_equil
Info: BINARY OUTPUT FILES WILL BE USED
Info: RESTART FILENAME       mobley_3398536_equil.restart
Info: RESTART FREQUENCY      5000
Info: BINARY RESTART FILES WILL BE USED
Info: CUTOFF                 9
Info: PAIRLIST DISTANCE      11
Info: PAIRLIST SHRINK RATE   0.01
Info: PAIRLIST GROW RATE     0.01
Info: PAIRLIST TRIGGER       0.3
Info: PAIRLISTS PER CYCLE    2
Info: PAIRLISTS ENABLED
Info: MARGIN                 8
Info: HYDROGEN GROUP CUTOFF  2.5
Info: PATCH DIMENSION        21.5
Info: ENERGY OUTPUT STEPS    5000
Info: ENERGY EVALUATION STEPS    5000
Info: OUTPUT ENERGY PRECISION 4
Info: CROSSTERM ENERGY INCLUDED IN DIHEDRAL
Info: TIMING OUTPUT STEPS    50000
Info: PRESSURE OUTPUT STEPS  5000
Info: LANGEVIN DYNAMICS ACTIVE
Info: LANGEVIN TEMPERATURE   30
Info: LANGEVIN USING BBK INTEGRATOR
Info: LANGEVIN DAMPING COEFFICIENT IS 1 INVERSE PS
Info: LANGEVIN DYNAMICS APPLIED TO HYDROGENS
Info: LANGEVIN PISTON PRESSURE CONTROL ACTIVE
Info:        TARGET PRESSURE IS 1.01325 BAR
Info:     OSCILLATION PERIOD IS 50 FS
Info:             DECAY TIME IS 25 FS
Info:     PISTON TEMPERATURE IS 300 K
Info:       PRESSURE CONTROL IS GROUP-BASED
Info:    INITIAL STRAIN RATE IS 0 0 0
Info:       CELL FLUCTUATION IS ISOTROPIC
Info: PARTICLE MESH EWALD (PME) ACTIVE
Info: PME TOLERANCE               1e-06
Info: PME EWALD COEFFICIENT       0.348832
Info: PME INTERPOLATION ORDER     4
Info: PME GRID DIMENSIONS         40 40 44
Info: PME MAXIMUM GRID SPACING    1
Info: FULL ELECTROSTATIC EVALUATION FREQUENCY      2
Info: USING VERLET I (r-RESPA) MTS SCHEME.
Info: C1 SPLITTING OF LONG RANGE ELECTROSTATICS
Info: PLACING ATOMS IN PATCHES BY HYDROGEN GROUPS
Info: RIGID BONDS TO HYDROGEN : ALL
Info:         ERROR TOLERANCE : 1e-08
Info:          MAX ITERATIONS : 100
Info: RIGID WATER USING SETTLE ALGORITHM
Info: RANDOM NUMBER SEED     1741331178
Info: USE HYDROGEN BONDS?    NO
Info: Using AMBER format force field!
Info: AMBER PARM FILE        mobley_3398536.prmtop
Info: COORDINATE PDB         mobley_3398536.pdb
Info: Exclusions will be read from PARM file!
Info: SCNB (VDW SCALING)     2
Info: USING ARITHMETIC MEAN TO COMBINE L-J SIGMA PARAMETERS
Info: BINARY COORDINATES     mobley_3398536_min.coor
Info: SUMMARY OF PARAMETERS:
Info: 5 BONDS
Info: 3 ANGLES
Info:   3 HARMONIC
Info:   0 COSINE-BASED
Info: 2 DIHEDRAL
Info: 0 IMPROPER
Info: 0 CROSSTERM
Info: 0 VDW
Info: 15 VDW_PAIRS
Info: 0 NBTHOLE_PAIRS
Info: STRUCTURE SUMMARY:
Info: 4644 ATOMS
Info: 4644 BONDS
Info: 18 ANGLES
Info: 30 DIHEDRALS
Info: 0 IMPROPERS
Info: 0 CROSSTERMS
Info: 4683 EXCLUSIONS
Info: 4637 RIGID BONDS
Info: 9295 DEGREES OF FREEDOM
Info: 1551 HYDROGEN GROUPS
Info: 3 ATOMS IN LARGEST HYDROGEN GROUP
Info: 1551 MIGRATION GROUPS
Info: 3 ATOMS IN LARGEST MIGRATION GROUP
Info: TOTAL MASS = 28020.7 amu
Info: TOTAL CHARGE = 0.000100022 e
Info: MASS DENSITY = 0.721 g/cm^3
Info: ATOM DENSITY = 0.0719596 atoms/A^3
Info: ADDED 0 IMPLICIT EXCLUSIONS
Info: NONBONDED TABLE R-SQUARED SPACING: 0.0625
Info: NONBONDED TABLE SIZE: 705 POINTS
Info: REMOVING COM VELOCITY -0.0911354 -0.0661452 0.00517942
TCL: Running for 25000 steps
ETITLE: TS BOND ANGLE DIHED IMPRP ELECT VDW BOUNDARY MISC KINETIC TOTAL TEMP POTENTIAL TOTAL3 TEMPAVG PRESSURE GPRESSURE VOLUME PRESSAVG GPRESSAVG
ENERGY: 0 0.2695 0.0736 0.0380 0.0000 -21237.3810 3647.2849 0.0000 0.0000 2840.5706 -14749.1445 307.5718 -17589.7151 -14748.5256 307.5718 185.0037 215.7205 64536.1775 185.0037 215.7205
ENERGY: 5000 0.0686 0.3004 0.1678 0.0000 -22339.4919 3930.3773 0.0000 0.0000 279.1022 -18129.4755 30.2207 -18408.5777 -18128.9306 48.0664 454.6013 509.4922 45513.5644 4.5609 4.3775
ENERGY: 10000 0.4459 0.2955 0.2497 0.0000 -22320.6379 3891.3538 0.0000 0.0000 286.7090 -18141.5841 31.0443 -18428.2930 -18140.9478 30.3540 228.6092 280.1551 45413.0728 3.1910 3.3131
ENERGY: 15000 0.2318 0.3335 0.3876 0.0000 -22181.5159 3749.9251 0.0000 0.0000 275.8274 -18154.8105 29.8661 -18430.6379 -18154.3561 30.1013 -578.8659 -513.5711 45658.2775 -0.3890 -0.4523
ENERGY: 20000 0.3641 0.2231 0.2551 0.0000 -22211.6340 3760.8590 0.0000 0.0000 280.2047 -18169.7280 30.3401 -18449.9327 -18169.0686 30.1090 -538.4157 -490.3035 45559.9033 -0.9573 -0.7419
ENERGY: 25000 0.4072 0.2703 0.1366 0.0000 -22306.3020 3847.7066 0.0000 0.0000 278.3032 -18179.4779 30.1342 -18457.7812 -18178.8842 30.0884 -52.9030 1.7780 45264.8271 9.4390 9.5447
TCL: Running 25000 steps at 60 kelvin.
TCL: Setting parameter langevinTemp to 60
TCL: Running for 25000 steps
ETITLE: TS BOND ANGLE DIHED IMPRP ELECT VDW BOUNDARY MISC KINETIC TOTAL TEMP POTENTIAL TOTAL3 TEMPAVG PRESSURE GPRESSURE VOLUME PRESSAVG GPRESSAVG
ENERGY: 25000 0.4072 0.2703 0.1366 0.0000 -22306.3020 3847.7066 0.0000 0.0000 278.1673 -18179.6139 30.1195 -18457.7812 -18179.0661 30.1195 -43.6480 1.5609 45264.8271 -43.6480 1.5609
ENERGY: 30000 0.9289 0.6863 0.2315 0.0000 -22078.0408 3856.2000 0.0000 0.0000 556.7055 -17663.2886 60.2791 -18219.9941 -17661.9777 56.9592 620.6705 703.4777 45110.5184 -3.0124 -3.0194
ENERGY: 35000 0.1918 0.4683 0.3909 0.0000 -21968.2418 3698.9411 0.0000 0.0000 553.9328 -17714.3168 59.9788 -18268.2496 -17712.4331 60.3992 -389.2745 -327.5941 45495.0744 2.0105 1.8400
ENERGY: 40000 0.7907 0.7016 0.3218 0.0000 -22164.5812 3873.0055 0.0000 0.0000 544.5696 -17745.1920 58.9650 -18289.7616 -17743.9447 60.2397 557.3506 607.9508 44921.2587 1.2881 1.1538
ENERGY: 45000 1.7694 0.6141 0.3417 0.0000 -21944.7800 3629.0746 0.0000 0.0000 563.7990 -17749.1813 61.0471 -18312.9803 -17746.9365 60.1090 -928.7234 -856.4943 45420.8033 4.8991 4.3897
ENERGY: 50000 0.4091 0.6768 1.1171 0.0000 -22265.1420 3919.6563 0.0000 0.0000 551.3086 -17791.9741 59.6947 -18343.2827 -17789.7094 60.5407 785.0716 839.7749 44943.6213 3.3375 3.6036
TCL: Running 25000 steps at 90 kelvin.
TCL: Setting parameter langevinTemp to 90
TCL: Running for 25000 steps
ETITLE: TS BOND ANGLE DIHED IMPRP ELECT VDW BOUNDARY MISC KINETIC TOTAL TEMP POTENTIAL TOTAL3 TEMPAVG PRESSURE GPRESSURE VOLUME PRESSAVG GPRESSAVG
ENERGY: 50000 0.4091 0.6768 1.1171 0.0000 -22265.1420 3919.6563 0.0000 0.0000 551.0271 -17792.2557 59.6642 -18343.2827 -17790.9712 59.6642 778.3608 839.9238 44943.6213 778.3608 839.9238
ENERGY: 55000 0.3578 1.5417 1.2172 0.0000 -21863.5111 3788.0619 0.0000 0.0000 828.6911 -17243.6415 89.7292 -18072.3326 -17241.8241 86.9834 642.8267 710.1963 45163.3352 4.4974 4.0074
ENERGY: 60000 0.2964 1.3432 0.8795 0.0000 -21859.9645 3728.4971 0.0000 0.0000 839.6392 -17289.3091 90.9146 -18128.9482 -17287.4197 90.7987 339.5971 394.0671 44697.3948 8.3942 8.2763
ENERGY: 65000 0.4948 0.9444 1.0305 0.0000 -21639.6707 3509.2088 0.0000 0.0000 835.8663 -17292.1260 90.5061 -18127.9923 -17289.8614 89.9591 -982.4371 -906.0023 45070.1160 2.7436 2.5904
ENERGY: 70000 0.2470 1.0031 0.3432 0.0000 -21845.5333 3671.2635 0.0000 0.0000 847.4863 -17325.1903 91.7643 -18172.6766 -17323.0077 90.2415 -142.9449 -67.1054 44790.6951 3.3348 3.2586
ENERGY: 75000 0.8174 0.8418 1.3124 0.0000 -21863.5966 3679.8322 0.0000 0.0000 841.7567 -17339.0361 91.1439 -18180.7928 -17336.7362 90.7242 -116.8870 -29.7566 44696.7236 2.4926 2.7132
TCL: Running 25000 steps at 120 kelvin.
TCL: Setting parameter langevinTemp to 120
TCL: Running for 25000 steps
ETITLE: TS BOND ANGLE DIHED IMPRP ELECT VDW BOUNDARY MISC KINETIC TOTAL TEMP POTENTIAL TOTAL3 TEMPAVG PRESSURE GPRESSURE VOLUME PRESSAVG GPRESSAVG
ENERGY: 75000 0.8174 0.8418 1.3124 0.0000 -21863.5966 3679.8322 0.0000 0.0000 841.3503 -17339.4425 91.0999 -18180.7928 -17337.7294 91.0999 -88.0974 -29.7103 44696.7236 -88.0974 -29.7103
ENERGY: 80000 0.3667 0.3133 1.1913 0.0000 -21470.7250 3609.2541 0.0000 0.0000 1088.7047 -16770.8949 117.8830 -17859.5997 -16768.1701 116.9503 343.3855 405.1797 44884.6244 -0.1746 -0.2562
ENERGY: 85000 0.9600 0.7779 1.1310 0.0000 -21378.5367 3478.6109 0.0000 0.0000 1107.7124 -16789.3445 119.9411 -17897.0569 -16786.4394 120.1817 -554.5236 -495.3433 45245.6864 4.0639 4.1368
ENERGY: 90000 0.3328 1.6467 1.2914 0.0000 -21424.8536 3534.8861 0.0000 0.0000 1090.6932 -16796.0034 118.0983 -17886.6967 -16792.9807 120.3782 -302.7911 -228.1423 45319.4404 2.9259 3.2458
ENERGY: 95000 0.7986 1.9019 1.1923 0.0000 -21482.6350 3572.0708 0.0000 0.0000 1104.6629 -16802.0086 119.6109 -17906.6715 -16799.0362 119.0666 -76.9479 -37.3842 45106.8851 0.8924 1.3264
ENERGY: 100000 1.0020 0.7279 0.5499 0.0000 -21441.1386 3515.2201 0.0000 0.0000 1104.2026 -16819.4360 119.5611 -17923.6386 -16816.4303 120.4546 -579.7763 -496.6353 45307.6477 2.7485 2.7791
TCL: Running 25000 steps at 150 kelvin.
TCL: Setting parameter langevinTemp to 150
TCL: Running for 25000 steps
ETITLE: TS BOND ANGLE DIHED IMPRP ELECT VDW BOUNDARY MISC KINETIC TOTAL TEMP POTENTIAL TOTAL3 TEMPAVG PRESSURE GPRESSURE VOLUME PRESSAVG GPRESSAVG
ENERGY: 100000 1.0020 0.7279 0.5499 0.0000 -21441.1386 3515.2201 0.0000 0.0000 1103.6581 -16819.9805 119.5021 -17923.6386 -16817.7750 119.5021 -564.4380 -496.2157 45307.6477 -564.4380 -496.2157
ENERGY: 105000 2.2891 0.8976 0.7419 0.0000 -20989.1571 3396.8626 0.0000 0.0000 1361.0386 -16227.3273 147.3708 -17588.3659 -16224.2835 145.4979 -323.9411 -231.6016 45495.9980 1.7707 1.1489
ENERGY: 110000 1.3339 2.4592 1.0029 0.0000 -21066.0803 3502.9988 0.0000 0.0000 1393.2599 -16165.0255 150.8597 -17558.2855 -16162.6608 149.2357 252.7417 317.6647 45408.4442 4.5341 4.7481
ENERGY: 115000 0.8592 1.3839 1.0608 0.0000 -21057.2564 3394.8344 0.0000 0.0000 1383.1006 -16276.0174 149.7596 -17659.1181 -16274.4097 149.5789 -426.9536 -353.2609 45303.4558 2.1076 2.3218
ENERGY: 120000 0.8526 1.6911 1.7079 0.0000 -21201.5495 3514.2618 0.0000 0.0000 1411.6739 -16271.3622 152.8535 -17683.0361 -16268.1299 149.6617 256.5228 347.9690 45028.1559 3.3397 3.4602
ENERGY: 125000 1.5327 1.4206 1.5072 0.0000 -21170.6543 3464.5843 0.0000 0.0000 1387.9576 -16313.6518 150.2855 -17701.6094 -16310.3372 150.1051 -101.3018 -43.9047 45021.9052 3.5477 3.7523
TCL: Running 50000 steps at 180 kelvin.
TCL: Setting parameter langevinTemp to 180
TCL: Running for 50000 steps
ETITLE: TS BOND ANGLE DIHED IMPRP ELECT VDW BOUNDARY MISC KINETIC TOTAL TEMP POTENTIAL TOTAL3 TEMPAVG PRESSURE GPRESSURE VOLUME PRESSAVG GPRESSAVG
ENERGY: 125000 1.5327 1.4206 1.5072 0.0000 -21170.6543 3464.5843 0.0000 0.0000 1387.2642 -16314.3452 150.2105 -17701.6094 -16311.7394 150.2105 -115.2868 -44.1217 45021.9052 -115.2868 -44.1217
ENERGY: 135000 1.1476 1.9138 1.1666 0.0000 -20550.0528 3302.6072 0.0000 0.0000 1652.5826 -15590.6349 178.9387 -17243.2175 -15587.7831 180.1104 -34.3421 40.7075 45539.4963 9.8235 10.1170
ENERGY: 145000 1.1449 1.7941 1.6227 0.0000 -20582.8014 3272.5848 0.0000 0.0000 1703.3117 -15602.3432 184.4315 -17305.6550 -15599.9575 179.6954 -217.6825 -174.8603 45308.9765 -2.2571 -2.0554
ENERGY: 155000 1.3487 1.6239 1.9292 0.0000 -20706.2922 3389.7746 0.0000 0.0000 1664.1187 -15647.4970 180.1878 -17311.6158 -15643.8438 180.8523 43.2037 150.1031 45551.1129 3.2524 3.2213
ENERGY: 165000 2.0018 1.1476 2.0245 0.0000 -20563.4312 3333.5137 0.0000 0.0000 1687.6824 -15537.0612 182.7392 -17224.7436 -15533.5447 181.4381 290.7040 338.5132 45294.2247 -0.3841 -0.2906
ENERGY: 175000 2.6471 1.0719 2.2212 0.0000 -20702.4407 3425.0338 0.0000 0.0000 1694.1721 -15577.2946 183.4419 -17271.4667 -15572.7009 179.8804 508.2055 624.9791 45501.3560 4.3898 5.0341
TCL: Running 50000 steps at 210 kelvin.
TCL: Setting parameter langevinTemp to 210
TCL: Running for 50000 steps
ETITLE: TS BOND ANGLE DIHED IMPRP ELECT VDW BOUNDARY MISC KINETIC TOTAL TEMP POTENTIAL TOTAL3 TEMPAVG PRESSURE GPRESSURE VOLUME PRESSAVG GPRESSAVG
ENERGY: 175000 2.6471 1.0719 2.2212 0.0000 -20702.4407 3425.0338 0.0000 0.0000 1693.3449 -15578.1219 183.3523 -17271.4667 -15574.8881 183.3523 556.1202 624.6840 45501.3560 556.1202 624.6840
ENERGY: 185000 0.3048 3.6473 1.5566 0.0000 -19631.3281 3054.6702 0.0000 0.0000 1937.4251 -14633.7241 209.7809 -16571.1491 -14628.8791 210.1064 320.4239 439.2370 45068.9336 2.1301 2.1648
ENERGY: 195000 1.3281 0.8635 1.3939 0.0000 -19591.7794 3008.7434 0.0000 0.0000 1918.4442 -14661.0064 207.7257 -16579.4506 -14657.4117 208.4334 242.0077 320.4189 44818.8874 2.3242 2.6844
ENERGY: 205000 1.1922 3.1946 3.7110 0.0000 -19526.7832 2936.8392 0.0000 0.0000 1959.0677 -14622.7785 212.1243 -16581.8462 -14617.7794 210.8726 -259.5715 -188.4447 45281.6740 -1.7571 -1.7858
ENERGY: 215000 1.4082 1.6075 2.7182 0.0000 -19433.3592 2876.9312 0.0000 0.0000 1933.3227 -14617.3713 209.3367 -16550.6940 -14611.6474 208.4109 -631.1299 -489.9138 45526.8301 5.7702 5.9619
ENERGY: 225000 0.8362 0.9563 1.4108 0.0000 -19532.0301 2938.6034 0.0000 0.0000 1961.6850 -14628.5384 212.4077 -16590.2234 -14621.3128 209.9137 -221.4783 -182.5855 45221.8218 6.2577 6.5514
TCL: Running 50000 steps at 240 kelvin.
TCL: Setting parameter langevinTemp to 240
TCL: Running for 50000 steps
ETITLE: TS BOND ANGLE DIHED IMPRP ELECT VDW BOUNDARY MISC KINETIC TOTAL TEMP POTENTIAL TOTAL3 TEMPAVG PRESSURE GPRESSURE VOLUME PRESSAVG GPRESSAVG
ENERGY: 225000 0.8362 0.9563 1.4108 0.0000 -19532.0301 2938.6034 0.0000 0.0000 1960.7082 -14629.5151 212.3019 -16590.2234 -14625.7666 212.3019 -252.2927 -181.9968 45221.8218 -252.2927 -181.9968
ENERGY: 235000 1.0924 1.0636 1.7971 0.0000 -18646.0013 2695.2145 0.0000 0.0000 2268.3764 -13678.4573 245.6157 -15946.8337 -13676.0978 239.5912 -319.1075 -245.4563 46106.5749 1.3491 1.2532
ENERGY: 245000 3.8865 3.3929 2.3666 0.0000 -18645.7328 2750.2874 0.0000 0.0000 2230.8465 -13654.9528 241.5520 -15885.7993 -13650.8096 240.0454 69.1103 145.0027 46031.4536 5.1474 5.7539
ENERGY: 255000 1.8380 3.9246 1.3617 0.0000 -18609.3870 2682.4698 0.0000 0.0000 2240.5215 -13679.2714 242.5996 -15919.7929 -13673.2119 241.3321 -366.7961 -260.5631 45986.6087 5.6940 5.6118
ENERGY: 265000 2.6470 1.7085 1.8466 0.0000 -18583.1413 2716.5452 0.0000 0.0000 2268.5828 -13591.8112 245.6380 -15860.3940 -13585.8613 240.7170 46.5431 137.2009 45618.0511 2.7464 2.2759
ENERGY: 275000 1.6052 1.2433 2.3989 0.0000 -18574.9523 2721.6474 0.0000 0.0000 2220.0571 -13628.0005 240.3838 -15848.0576 -13621.6387 240.2812 6.7550 66.1439 45968.1902 1.0342 1.4216
TCL: Running 50000 steps at 270 kelvin.
TCL: Setting parameter langevinTemp to 270
TCL: Running for 50000 steps
ETITLE: TS BOND ANGLE DIHED IMPRP ELECT VDW BOUNDARY MISC KINETIC TOTAL TEMP POTENTIAL TOTAL3 TEMPAVG PRESSURE GPRESSURE VOLUME PRESSAVG GPRESSAVG
ENERGY: 275000 1.6052 1.2433 2.3989 0.0000 -18574.9523 2721.6474 0.0000 0.0000 2218.9667 -13629.0909 240.2657 -15848.0576 -13625.3428 240.2657 -5.5048 66.3660 45968.1902 -5.5048 66.3660
ENERGY: 285000 2.5387 2.4150 3.3736 0.0000 -17579.5218 2271.5530 0.0000 0.0000 2477.9136 -12821.7278 268.3040 -15299.6414 -12815.7902 268.7856 -1363.6063 -1258.2571 47153.2830 3.1649 3.5203
ENERGY: 295000 1.3357 2.6449 1.1865 0.0000 -17656.3243 2412.4375 0.0000 0.0000 2509.3662 -12729.3534 271.7096 -15238.7196 -12724.3197 272.1675 -281.8422 -202.1619 46268.5171 -1.7072 -1.0953
ENERGY: 305000 2.0605 2.6395 6.3261 0.0000 -17716.6152 2490.4239 0.0000 0.0000 2510.7661 -12704.3992 271.8612 -15215.1653 -12700.6038 271.1715 -8.3699 44.2784 46834.5089 -0.3719 -0.2711
ENERGY: 315000 1.2953 2.8198 1.7014 0.0000 -17611.0194 2417.0697 0.0000 0.0000 2479.2067 -12708.9265 268.4440 -15188.1332 -12702.3956 271.5679 -257.9526 -201.1908 46696.8456 2.9023 2.3695
ENERGY: 325000 2.2672 1.5371 2.2571 0.0000 -17796.0629 2525.7487 0.0000 0.0000 2497.2699 -12766.9828 270.3999 -15264.2527 -12762.7458 271.8504 147.6468 247.6287 46555.0431 2.2151 2.8168
TCL: Running 1000000 steps at 300 kelvin.
TCL: Setting parameter langevinTemp to 300
TCL: Running for 1000000 steps
ETITLE: TS BOND ANGLE DIHED IMPRP ELECT VDW BOUNDARY MISC KINETIC TOTAL TEMP POTENTIAL TOTAL3 TEMPAVG PRESSURE GPRESSURE VOLUME PRESSAVG GPRESSAVG
ENERGY: 325000 2.2672 1.5371 2.2571 0.0000 -17796.0629 2525.7487 0.0000 0.0000 2496.0080 -12768.2447 270.2632 -15264.2527 -12764.0366 270.2632 165.9201 248.5547 46555.0431 165.9201 248.5547
ENERGY: 525000 3.7331 2.1105 4.5466 0.0000 -16952.6140 2276.8254 0.0000 0.0000 2776.1074 -11889.2909 300.5919 -14665.3983 -11884.9345 297.3041 -61.0845 26.4598 47672.1155 7.2744 7.7308
ENERGY: 725000 3.5582 4.4135 2.7884 0.0000 -16708.0279 2226.2374 0.0000 0.0000 2810.4114 -11660.6190 304.3063 -14471.0304 -11657.7549 301.8968 -216.1803 -119.3383 48413.9272 0.6896 0.4921
ENERGY: 925000 4.9519 0.9246 1.1531 0.0000 -16767.5542 2264.4698 0.0000 0.0000 2765.5181 -11730.5367 299.4453 -14496.0548 -11726.7989 299.2212 145.3232 197.7871 48086.1503 0.7580 0.9001
ENERGY: 1125000 1.1194 1.3265 1.8349 0.0000 -16769.4236 2293.4125 0.0000 0.0000 2780.5785 -11691.1519 301.0760 -14471.7304 -11685.8889 300.3920 312.2063 406.9982 47984.5564 2.9982 3.7288
ENERGY: 1325000 1.2679 0.9161 3.1130 0.0000 -16853.2226 2316.6333 0.0000 0.0000 2721.5635 -11809.7287 294.6860 -14531.2922 -11802.9578 299.1275 231.6412 290.0410 48237.9032 4.7360 4.5618
TCL: Exiting due to exit command.
