Info: SIMULATION PARAMETERS:
Info: TIMESTEP               2
Info: NUMBER OF STEPS        0
Info: STEPS PER CYCLE        10
Info: PERIODIC CELL BASIS 1  41.123 0 0
Info: PERIODIC CELL BASIS 2  0 38.88 0
Info: PERIODIC CELL BASIS 3  0 0 38.379
Info: PERIODIC CELL CENTER   0 0 0
Info: WRAPPING WATERS AROUND PERIODIC BOUNDARIES ON OUTPUT.
Info: WRAPPING ALL CLUSTERS AROUND PERIODIC BOUNDARIES ON OUTPUT.
Info: FIRST LDB TIMESTEP     50
Info: LAST LDB TIMESTEP     -1
Info: HOM BACKGROUND SCALING 1
Info: PME BACKGROUND SCALING 1
Info: MIN ATOMS PER PATCH    40
Info: EMPTY PATCH LOAD       40 ATOMS
Info: INITIAL TEMPERATURE    300
Info: CENTER OF MASS MOVING INITIALLY? NO
Info: DIELECTRIC             1
Info: EXCLUDE                SCALED ONE-FOUR
Info: 1-4 ELECTROSTATICS SCALED BY 0.833333
Info: MODIFIED 1-4 VDW PARAMETERS WILL BE USED
Info: DCD FILENAME           mobley_2049967_min.dcd
Info: DCD FREQUENCY          5000
Info: DCD FIRST STEP         5000
Info: DCD FILE WILL CONTAIN UNIT CELL DATA
Info: XST FILENAME           mobley_2049967_min.xst
Info: XST FREQUENCY          5000
Info: NO VELOCITY DCD OUTPUT
Info: NO FORCE DCD OUTPUT
Info: OUTPUT FILENAME        mobley_2049967_min
Info: BINARY OUTPUT FILES WILL BE USED
Info: RESTART FILENAME       mobley_2049967_min.restart
Info: RESTART FREQUENCY      5000
Info: BINARY RESTART FILES WILL BE USED
Info: CUTOFF                 9
Info: PAIRLIST DISTANCE      11
Info: PAIRLIST SHRINK RATE   0.01
Info: PAIRLIST GROW RATE     0.01
Info: PAIRLIST TRIGGER       0.3
Info: PAIRLISTS PER CYCLE    2
Info: PAIRLISTS ENABLED
Info: MARGIN                 8
Info: HYDROGEN GROUP CUTOFF  2.5
Info: PATCH DIMENSION        21.5
Info: ENERGY OUTPUT STEPS    5000
Info: ENERGY EVALUATION STEPS    5000
Info: OUTPUT ENERGY PRECISION 4
Info: CROSSTERM ENERGY INCLUDED IN DIHEDRAL
Info: TIMING OUTPUT STEPS    50000
Info: PRESSURE OUTPUT STEPS  5000
Info: LANGEVIN DYNAMICS ACTIVE
Info: LANGEVIN TEMPERATURE   300
Info: LANGEVIN USING BBK INTEGRATOR
Info: LANGEVIN DAMPING COEFFICIENT IS 1 INVERSE PS
Info: LANGEVIN DYNAMICS APPLIED TO HYDROGENS
Info: LANGEVIN PISTON PRESSURE CONTROL ACTIVE
Info:        TARGET PRESSURE IS 1.01325 BAR
Info:     OSCILLATION PERIOD IS 50 FS
Info:             DECAY TIME IS 25 FS
Info:     PISTON TEMPERATURE IS 300 K
Info:       PRESSURE CONTROL IS GROUP-BASED
Info:    INITIAL STRAIN RATE IS 0 0 0
Info:       CELL FLUCTUATION IS ISOTROPIC
Info: PARTICLE MESH EWALD (PME) ACTIVE
Info: PME TOLERANCE               1e-06
Info: PME EWALD COEFFICIENT       0.348832
Info: PME INTERPOLATION ORDER     4
Info: PME GRID DIMENSIONS         44 40 40
Info: PME MAXIMUM GRID SPACING    1
Info: FULL ELECTROSTATIC EVALUATION FREQUENCY      2
Info: USING VERLET I (r-RESPA) MTS SCHEME.
Info: C1 SPLITTING OF LONG RANGE ELECTROSTATICS
Info: PLACING ATOMS IN PATCHES BY HYDROGEN GROUPS
Info: RIGID BONDS TO HYDROGEN : ALL
Info:         ERROR TOLERANCE : 1e-08
Info:          MAX ITERATIONS : 100
Info: RIGID WATER USING SETTLE ALGORITHM
Info: RANDOM NUMBER SEED     1741338612
Info: USE HYDROGEN BONDS?    NO
Info: Using AMBER format force field!
Info: AMBER PARM FILE        mobley_2049967.prmtop
Info: COORDINATE PDB         mobley_2049967.pdb
Info: Exclusions will be read from PARM file!
Info: SCNB (VDW SCALING)     2
Info: USING ARITHMETIC MEAN TO COMBINE L-J SIGMA PARAMETERS
Info: SUMMARY OF PARAMETERS:
Info: 6 BONDS
Info: 7 ANGLES
Info:   7 HARMONIC
Info:   0 COSINE-BASED
Info: 3 DIHEDRAL
Info: 0 IMPROPER
Info: 0 CROSSTERM
Info: 0 VDW
Info: 21 VDW_PAIRS
Info: 0 NBTHOLE_PAIRS
Info: STRUCTURE SUMMARY:
Info: 4335 ATOMS
Info: 4334 BONDS
Info: 19 ANGLES
Info: 15 DIHEDRALS
Info: 0 IMPROPERS
Info: 0 CROSSTERMS
Info: 4368 EXCLUSIONS
Info: 4331 RIGID BONDS
Info: 8674 DEGREES OF FREEDOM
Info: 1445 HYDROGEN GROUPS
Info: 4 ATOMS IN LARGEST HYDROGEN GROUP
Info: 1445 MIGRATION GROUPS
Info: 4 ATOMS IN LARGEST MIGRATION GROUP
Info: TOTAL MASS = 26037.2 amu
Info: TOTAL CHARGE = 9.99859e-05 e
Info: MASS DENSITY = 0.70461 g/cm^3
Info: ATOM DENSITY = 0.0706455 atoms/A^3
Info: ADDED 0 IMPLICIT EXCLUSIONS
Info: NONBONDED TABLE R-SQUARED SPACING: 0.0625
Info: NONBONDED TABLE SIZE: 705 POINTS
Info: REMOVING COM VELOCITY 0.0684347 0.0495391 -0.0919867
TCL: Minimizing for 2000 steps
ETITLE: TS BOND ANGLE DIHED IMPRP ELECT VDW BOUNDARY MISC KINETIC TOTAL TEMP POTENTIAL TOTAL3 TEMPAVG PRESSURE GPRESSURE VOLUME PRESSAVG GPRESSAVG
ENERGY: 0 0.4260 0.2152 0.4031 0.0000 -13311.3247 1510.0718 0.0000 0.0000 0.0000 -11800.2085 0.0000 -11800.2085 -11800.2085 0.0000 10682.8446 -15222.9523 61362.7339 10682.8446 -15222.9523
ENERGY: 400 1.8692 2.6024 0.6426 0.0000 -18574.0837 2916.7829 0.0000 0.0000 0.0000 -15652.1866 0.0000 -15652.1866 -15652.1866 0.0000 16684.1053 16835.4580 61362.7339 16684.1053 16835.4580
ENERGY: 800 1.3369 7.5504 0.5154 0.0000 -19351.5106 3258.4842 0.0000 0.0000 0.0000 -16083.6236 0.0000 -16083.6236 -16083.6236 0.0000 18458.9292 18591.8214 61362.7339 18458.9292 18591.8214
ENERGY: 1200 0.6656 0.5007 0.4260 0.0000 -19647.3157 3372.8268 0.0000 0.0000 0.0000 -16272.8965 0.0000 -16272.8965 -16272.8965 0.0000 19115.9038 19228.6627 61362.7339 19115.9038 19228.6627
ENERGY: 1600 0.2133 0.2098 0.4020 0.0000 -19817.7813 3455.2454 0.0000 0.0000 0.0000 -16361.7108 0.0000 -16361.7108 -16361.7108 0.0000 19542.2750 19654.2991 61362.7339 19542.2750 19654.2991
ENERGY: 2000 0.3041 0.3590 0.4095 0.0000 -19926.2430 3495.0356 0.0000 0.0000 0.0000 -16430.1348 0.0000 -16430.1348 -16430.1348 0.0000 19823.6811 19918.1357 61362.7339 19823.6811 19918.1357
TCL: Exiting due to exit command.
Info: NAMD 3.0.1 for Linux-x86_64-multicore
Info: Please visit http://www.ks.uiuc.edu/Research/namd/
Info: for updates, documentation, and support information.
Info: Please cite Phillips et al., J. Chem. Phys. 153:044130 (2020) doi:10.1063/5.0014475
Info: in all publications reporting results obtained with NAMD.
Info: Based on Charm++/Converse 80000 for multicore-linux-x86_64-gcc
Info: Built Mon Oct 14 11:11:06 CDT 2024 by dhardy on athine.ks.uiuc.edu
Info: 1 NAMD  3.0.1  Linux-x86_64-multicore  16    k006  z5358697
Info: Running on 16 processors, 1 nodes, 1 physical nodes.
Info: CPU topology information available.
Info: Charm++/Converse parallel runtime startup completed at 0.00940889 s
Info: 1043.45 MB of memory in use based on /proc/self/stat
Info: Configuration file is mobley_2049967_equil.namd
Info: Working in the current directory /srv/scratch/z5358697/prod_prep_1/2049967
TCL: Running 25000 steps at 30 kelvin.
TCL: Suspending until startup complete.
Info: SIMULATION PARAMETERS:
Info: TIMESTEP               2
Info: NUMBER OF STEPS        0
Info: STEPS PER CYCLE        10
Info: PERIODIC CELL BASIS 1  41.123 0 0
Info: PERIODIC CELL BASIS 2  0 38.88 0
Info: PERIODIC CELL BASIS 3  0 0 38.379
Info: PERIODIC CELL CENTER   0 0 0
Info: WRAPPING WATERS AROUND PERIODIC BOUNDARIES ON OUTPUT.
Info: WRAPPING ALL CLUSTERS AROUND PERIODIC BOUNDARIES ON OUTPUT.
Info: FIRST LDB TIMESTEP     50
Info: LAST LDB TIMESTEP     -1
Info: HOM BACKGROUND SCALING 1
Info: PME BACKGROUND SCALING 1
Info: MIN ATOMS PER PATCH    40
Info: EMPTY PATCH LOAD       40 ATOMS
Info: INITIAL TEMPERATURE    300
Info: CENTER OF MASS MOVING INITIALLY? NO
Info: DIELECTRIC             1
Info: EXCLUDE                SCALED ONE-FOUR
Info: 1-4 ELECTROSTATICS SCALED BY 0.833333
Info: MODIFIED 1-4 VDW PARAMETERS WILL BE USED
Info: DCD FILENAME           mobley_2049967_equil.dcd
Info: DCD FREQUENCY          5000
Info: DCD FIRST STEP         5000
Info: DCD FILE WILL CONTAIN UNIT CELL DATA
Info: XST FILENAME           mobley_2049967_equil.xst
Info: XST FREQUENCY          5000
Info: NO VELOCITY DCD OUTPUT
Info: NO FORCE DCD OUTPUT
Info: OUTPUT FILENAME        mobley_2049967_equil
Info: BINARY OUTPUT FILES WILL BE USED
Info: RESTART FILENAME       mobley_2049967_equil.restart
Info: RESTART FREQUENCY      5000
Info: BINARY RESTART FILES WILL BE USED
Info: CUTOFF                 9
Info: PAIRLIST DISTANCE      11
Info: PAIRLIST SHRINK RATE   0.01
Info: PAIRLIST GROW RATE     0.01
Info: PAIRLIST TRIGGER       0.3
Info: PAIRLISTS PER CYCLE    2
Info: PAIRLISTS ENABLED
Info: MARGIN                 8
Info: HYDROGEN GROUP CUTOFF  2.5
Info: PATCH DIMENSION        21.5
Info: ENERGY OUTPUT STEPS    5000
Info: ENERGY EVALUATION STEPS    5000
Info: OUTPUT ENERGY PRECISION 4
Info: CROSSTERM ENERGY INCLUDED IN DIHEDRAL
Info: TIMING OUTPUT STEPS    50000
Info: PRESSURE OUTPUT STEPS  5000
Info: LANGEVIN DYNAMICS ACTIVE
Info: LANGEVIN TEMPERATURE   30
Info: LANGEVIN USING BBK INTEGRATOR
Info: LANGEVIN DAMPING COEFFICIENT IS 1 INVERSE PS
Info: LANGEVIN DYNAMICS APPLIED TO HYDROGENS
Info: LANGEVIN PISTON PRESSURE CONTROL ACTIVE
Info:        TARGET PRESSURE IS 1.01325 BAR
Info:     OSCILLATION PERIOD IS 50 FS
Info:             DECAY TIME IS 25 FS
Info:     PISTON TEMPERATURE IS 300 K
Info:       PRESSURE CONTROL IS GROUP-BASED
Info:    INITIAL STRAIN RATE IS 0 0 0
Info:       CELL FLUCTUATION IS ISOTROPIC
Info: PARTICLE MESH EWALD (PME) ACTIVE
Info: PME TOLERANCE               1e-06
Info: PME EWALD COEFFICIENT       0.348832
Info: PME INTERPOLATION ORDER     4
Info: PME GRID DIMENSIONS         44 40 40
Info: PME MAXIMUM GRID SPACING    1
Info: FULL ELECTROSTATIC EVALUATION FREQUENCY      2
Info: USING VERLET I (r-RESPA) MTS SCHEME.
Info: C1 SPLITTING OF LONG RANGE ELECTROSTATICS
Info: PLACING ATOMS IN PATCHES BY HYDROGEN GROUPS
Info: RIGID BONDS TO HYDROGEN : ALL
Info:         ERROR TOLERANCE : 1e-08
Info:          MAX ITERATIONS : 100
Info: RIGID WATER USING SETTLE ALGORITHM
Info: RANDOM NUMBER SEED     1741338630
Info: USE HYDROGEN BONDS?    NO
Info: Using AMBER format force field!
Info: AMBER PARM FILE        mobley_2049967.prmtop
Info: COORDINATE PDB         mobley_2049967.pdb
Info: Exclusions will be read from PARM file!
Info: SCNB (VDW SCALING)     2
Info: USING ARITHMETIC MEAN TO COMBINE L-J SIGMA PARAMETERS
Info: BINARY COORDINATES     mobley_2049967_min.coor
Info: SUMMARY OF PARAMETERS:
Info: 6 BONDS
Info: 7 ANGLES
Info: 3 DIHEDRAL
Info: 0 IMPROPER
Info: 0 CROSSTERM
Info: 0 VDW
Info: 21 VDW_PAIRS
Info: 0 NBTHOLE_PAIRS
Info: STRUCTURE SUMMARY:
Info: 4335 ATOMS
Info: 4334 BONDS
Info: 19 ANGLES
Info: 15 DIHEDRALS
Info: 0 IMPROPERS
Info: 0 CROSSTERMS
Info: 4368 EXCLUSIONS
Info: 4331 RIGID BONDS
Info: 8674 DEGREES OF FREEDOM
Info: 1445 HYDROGEN GROUPS
Info: 4 ATOMS IN LARGEST HYDROGEN GROUP
Info: 1445 MIGRATION GROUPS
Info: 4 ATOMS IN LARGEST MIGRATION GROUP
Info: TOTAL MASS = 26037.2 amu
Info: TOTAL CHARGE = 9.99859e-05 e
Info: MASS DENSITY = 0.70461 g/cm^3
Info: ATOM DENSITY = 0.0706455 atoms/A^3
Info: ADDED 0 IMPLICIT EXCLUSIONS
Info: NONBONDED TABLE R-SQUARED SPACING: 0.0625
Info: NONBONDED TABLE SIZE: 705 POINTS
Info: REMOVING COM VELOCITY -0.0855137 -0.218364 0.155745
TCL: Running for 25000 steps
ETITLE: TS BOND ANGLE DIHED IMPRP ELECT VDW BOUNDARY MISC KINETIC TOTAL TEMP POTENTIAL TOTAL3 TEMPAVG PRESSURE GPRESSURE VOLUME PRESSAVG GPRESSAVG
ENERGY: 0 0.3041 0.3590 0.4095 0.0000 -19926.2430 3495.0356 0.0000 0.0000 2554.7566 -13875.3783 296.4289 -16430.1348 -13874.8519 296.4289 392.9496 428.8432 61362.7339 392.9496 428.8432
ENERGY: 5000 0.0596 0.4354 0.5563 0.0000 -20875.7101 3638.0466 0.0000 0.0000 261.8733 -16974.7389 30.3852 -17236.6122 -16973.9900 47.6002 -47.0048 34.1606 42608.3335 2.7488 2.7552
ENERGY: 10000 0.2421 0.7304 1.0037 0.0000 -20820.9700 3553.3273 0.0000 0.0000 260.0308 -17005.6356 30.1714 -17265.6664 -17004.5789 30.0941 -560.9955 -496.8104 42773.8183 3.1719 3.2504
ENERGY: 15000 0.1141 0.5547 0.5077 0.0000 -21062.4338 3778.3293 0.0000 0.0000 255.5713 -17027.3568 29.6540 -17282.9280 -17026.7912 30.0486 681.2012 753.6679 42495.8593 -1.7168 -1.3428
ENERGY: 20000 0.0396 0.3664 0.6641 0.0000 -20948.3168 3659.3097 0.0000 0.0000 253.1865 -17034.7505 29.3773 -17287.9369 -17034.1306 29.8979 -34.9775 22.7068 42675.9978 0.5786 0.7160
ENERGY: 25000 0.0676 0.5400 0.6271 0.0000 -21211.2757 3907.2130 0.0000 0.0000 257.2156 -17045.6123 29.8448 -17302.8279 -17044.9602 29.9846 1416.6588 1476.1597 42152.9511 6.7120 6.8118
TCL: Running 25000 steps at 60 kelvin.
TCL: Setting parameter langevinTemp to 60
TCL: Running for 25000 steps
ETITLE: TS BOND ANGLE DIHED IMPRP ELECT VDW BOUNDARY MISC KINETIC TOTAL TEMP POTENTIAL TOTAL3 TEMPAVG PRESSURE GPRESSURE VOLUME PRESSAVG GPRESSAVG
ENERGY: 25000 0.0676 0.5400 0.6271 0.0000 -21211.2757 3907.2130 0.0000 0.0000 257.0858 -17045.7422 29.8297 -17302.8279 -17045.2402 29.8297 1414.8115 1476.2437 42152.9511 1414.8115 1476.2437
ENERGY: 30000 0.2959 0.9488 0.6625 0.0000 -20804.8217 3761.4110 0.0000 0.0000 523.7395 -16517.7639 60.7696 -17041.5034 -16516.2569 57.4815 1161.7578 1255.3913 42540.4739 2.5443 2.5383
ENERGY: 35000 0.0839 0.9030 0.5955 0.0000 -20680.8000 3612.7634 0.0000 0.0000 508.9332 -16557.5210 59.0516 -17066.4542 -16556.3362 59.9179 267.7115 324.1595 42772.2073 3.7638 3.8176
ENERGY: 40000 0.1726 0.5787 0.3237 0.0000 -20753.8455 3665.1374 0.0000 0.0000 521.6004 -16566.0327 60.5214 -17087.6331 -16565.0377 60.2447 505.6986 546.2052 42728.3213 -0.8784 -1.0852
ENERGY: 45000 0.3386 1.2908 0.6117 0.0000 -20651.1088 3562.8346 0.0000 0.0000 498.7057 -16587.3273 57.8649 -17086.0331 -16585.9319 59.9632 -127.6920 -64.4417 42865.7701 -0.7671 -0.5992
ENERGY: 50000 0.0987 0.6623 0.8137 0.0000 -20801.1527 3687.0814 0.0000 0.0000 515.4008 -16597.0958 59.8020 -17112.4966 -16595.8010 60.2728 490.3010 566.7501 42773.0305 4.7629 4.7049
TCL: Running 25000 steps at 90 kelvin.
TCL: Setting parameter langevinTemp to 90
TCL: Running for 25000 steps
ETITLE: TS BOND ANGLE DIHED IMPRP ELECT VDW BOUNDARY MISC KINETIC TOTAL TEMP POTENTIAL TOTAL3 TEMPAVG PRESSURE GPRESSURE VOLUME PRESSAVG GPRESSAVG
ENERGY: 50000 0.0987 0.6623 0.8137 0.0000 -20801.1527 3687.0814 0.0000 0.0000 515.1458 -16597.3507 59.7725 -17112.4966 -16596.2253 59.7725 491.6710 566.6076 42773.0305 491.6710 566.6076
ENERGY: 55000 0.4401 0.9731 0.4907 0.0000 -20279.0378 3431.6676 0.0000 0.0000 777.7035 -16067.7627 90.2371 -16845.4662 -16065.6479 86.5026 -190.2650 -141.5580 43030.5021 -0.5640 -0.5129
ENERGY: 60000 0.2140 1.4543 0.5114 0.0000 -20210.9358 3351.9762 0.0000 0.0000 736.8664 -16119.9135 85.4987 -16856.7799 -16118.0922 89.7901 -658.8997 -591.7381 42880.7860 4.7956 4.7235
ENERGY: 65000 0.2112 2.3953 0.6792 0.0000 -20385.7031 3468.2773 0.0000 0.0000 791.9560 -16122.1841 91.8908 -16914.1401 -16119.4783 89.7073 -148.7012 -80.9598 42824.2042 1.2301 1.0962
ENERGY: 70000 0.1817 2.0406 0.5596 0.0000 -20645.3299 3727.6144 0.0000 0.0000 776.8783 -16138.0553 90.1413 -16914.9336 -16136.6473 90.2042 1498.8271 1538.6225 42013.2033 1.4758 1.2319
ENERGY: 75000 0.3171 1.8096 0.5634 0.0000 -20336.5079 3410.3642 0.0000 0.0000 790.7797 -16132.6740 91.7543 -16923.4537 -16129.9274 89.9004 -504.4438 -430.3810 42657.5130 5.9465 5.9239
TCL: Running 25000 steps at 120 kelvin.
TCL: Setting parameter langevinTemp to 120
TCL: Running for 25000 steps
ETITLE: TS BOND ANGLE DIHED IMPRP ELECT VDW BOUNDARY MISC KINETIC TOTAL TEMP POTENTIAL TOTAL3 TEMPAVG PRESSURE GPRESSURE VOLUME PRESSAVG GPRESSAVG
ENERGY: 75000 0.3171 1.8096 0.5634 0.0000 -20336.5079 3410.3642 0.0000 0.0000 790.3902 -16133.0635 91.7091 -16923.4537 -16131.4538 91.7091 -483.5768 -429.5288 42657.5130 -483.5768 -429.5288
ENERGY: 80000 0.3597 1.7992 0.5722 0.0000 -20064.8080 3431.2095 0.0000 0.0000 1063.1069 -15567.7604 123.3525 -16630.8673 -15564.5373 116.6292 505.7813 575.3378 42135.9864 -0.6537 -0.4505
ENERGY: 85000 0.2842 3.0750 0.5727 0.0000 -19938.2370 3275.8480 0.0000 0.0000 1035.2388 -15623.2182 120.1189 -16658.4570 -15620.0616 120.8485 -411.1498 -326.5108 42207.5098 5.5619 5.4730
ENERGY: 90000 0.5051 4.9108 0.6236 0.0000 -19946.7679 3237.1141 0.0000 0.0000 1044.0062 -15659.6081 121.1362 -16703.6143 -15656.9622 120.3270 -709.9460 -652.5683 42243.2867 2.9372 3.1333
ENERGY: 95000 0.1077 2.8771 0.9325 0.0000 -20205.9335 3489.3173 0.0000 0.0000 1054.5498 -15658.1490 122.3596 -16712.6988 -15655.4243 120.8408 828.9571 898.4841 41725.2677 -0.0206 -0.0212
ENERGY: 100000 0.2868 3.2331 0.7250 0.0000 -20121.4452 3352.6310 0.0000 0.0000 1012.3941 -15752.1752 117.4683 -16764.5693 -15748.7912 119.6380 35.9542 98.7790 41796.0133 4.8733 4.6975
TCL: Running 25000 steps at 150 kelvin.
TCL: Setting parameter langevinTemp to 150
TCL: Running for 25000 steps
ETITLE: TS BOND ANGLE DIHED IMPRP ELECT VDW BOUNDARY MISC KINETIC TOTAL TEMP POTENTIAL TOTAL3 TEMPAVG PRESSURE GPRESSURE VOLUME PRESSAVG GPRESSAVG
ENERGY: 100000 0.2868 3.2331 0.7250 0.0000 -20121.4452 3352.6310 0.0000 0.0000 1011.8769 -15752.6924 117.4083 -16764.5693 -15750.5511 117.4083 43.2684 98.6643 41796.0133 43.2684 98.6643
ENERGY: 105000 1.0810 3.5538 0.4656 0.0000 -19646.3524 3228.6221 0.0000 0.0000 1272.4467 -15140.1831 147.6422 -16412.6299 -15136.6801 146.2565 -19.2148 43.1761 42132.8689 4.5708 4.4137
ENERGY: 110000 0.3666 2.6715 0.4482 0.0000 -19764.0403 3308.2963 0.0000 0.0000 1313.0474 -15139.2103 152.3531 -16452.2576 -15139.1778 149.6464 323.6372 419.5028 42160.1008 5.4587 4.9552
ENERGY: 115000 0.2756 3.2478 0.9402 0.0000 -19798.9788 3370.5057 0.0000 0.0000 1286.4348 -15137.5747 149.2653 -16424.0096 -15134.0736 150.9846 826.5066 892.5220 42029.1524 0.2278 0.8494
ENERGY: 120000 1.0100 1.1028 0.9937 0.0000 -19767.2512 3325.3227 0.0000 0.0000 1312.7867 -15126.0353 152.3229 -16438.8220 -15122.7507 150.9936 497.3588 542.6673 42343.4947 3.4922 3.3000
ENERGY: 125000 0.5635 1.8397 0.7381 0.0000 -19664.7072 3168.8356 0.0000 0.0000 1307.4219 -15185.3084 151.7004 -16492.7303 -15181.4114 150.4777 -664.3706 -641.7774 42749.5598 3.8328 3.5342
TCL: Running 50000 steps at 180 kelvin.
TCL: Setting parameter langevinTemp to 180
TCL: Running for 50000 steps
ETITLE: TS BOND ANGLE DIHED IMPRP ELECT VDW BOUNDARY MISC KINETIC TOTAL TEMP POTENTIAL TOTAL3 TEMPAVG PRESSURE GPRESSURE VOLUME PRESSAVG GPRESSAVG
ENERGY: 125000 0.5635 1.8397 0.7381 0.0000 -19664.7072 3168.8356 0.0000 0.0000 1306.7746 -15185.9557 151.6253 -16492.7303 -15183.2513 151.6253 -698.5583 -641.5929 42749.5598 -698.5583 -641.5929
ENERGY: 135000 1.7135 2.6218 0.9884 0.0000 -19274.5071 3132.2211 0.0000 0.0000 1571.9485 -14565.0139 182.3935 -16136.9624 -14560.5922 180.8678 62.2623 119.5622 42463.0480 2.8807 3.0200
ENERGY: 145000 1.1279 2.4935 0.3508 0.0000 -19306.5676 3209.6102 0.0000 0.0000 1551.5555 -14541.4297 180.0273 -16092.9852 -14539.1519 179.7599 588.9400 659.6532 42499.9880 2.5192 3.2761
ENERGY: 155000 0.9664 3.0004 1.9046 0.0000 -19127.9981 3019.0519 0.0000 0.0000 1520.6441 -14582.4307 176.4406 -16103.0749 -14578.0149 179.8669 -450.9474 -391.3478 42383.8425 0.8359 0.5441
ENERGY: 165000 0.2014 6.1462 1.8366 0.0000 -19187.5241 3035.9092 0.0000 0.0000 1536.2927 -14607.1380 178.2563 -16143.4307 -14603.6039 180.0338 -342.0760 -284.6471 42245.4652 3.4402 2.9606
ENERGY: 175000 1.0505 2.5313 0.5172 0.0000 -19234.2722 3069.0871 0.0000 0.0000 1565.0564 -14596.0297 181.5938 -16161.0861 -14592.9598 180.0740 -341.8829 -254.5614 42699.4626 -0.9722 -1.4810
TCL: Running 50000 steps at 210 kelvin.
TCL: Setting parameter langevinTemp to 210
TCL: Running for 50000 steps
ETITLE: TS BOND ANGLE DIHED IMPRP ELECT VDW BOUNDARY MISC KINETIC TOTAL TEMP POTENTIAL TOTAL3 TEMPAVG PRESSURE GPRESSURE VOLUME PRESSAVG GPRESSAVG
ENERGY: 175000 1.0505 2.5313 0.5172 0.0000 -19234.2722 3069.0871 0.0000 0.0000 1564.2910 -14596.7950 181.5050 -16161.0861 -14593.8052 181.5050 -319.3644 -255.3365 42699.4626 -319.3644 -255.3365
ENERGY: 185000 0.2122 2.9014 0.3289 0.0000 -18396.5711 2849.7592 0.0000 0.0000 1797.0329 -13746.3365 208.5101 -15543.3694 -13743.9344 208.6651 86.4456 183.3784 42306.3386 4.1967 4.0071
ENERGY: 195000 1.9365 3.6097 0.7423 0.0000 -18409.2924 2899.5069 0.0000 0.0000 1761.0108 -13742.4861 204.3304 -15503.4970 -13738.0344 210.2828 530.6333 600.5647 41968.1812 -4.4211 -4.3031
ENERGY: 205000 0.3709 3.5089 0.9200 0.0000 -18312.8653 2877.5838 0.0000 0.0000 1808.4273 -13622.0543 209.8321 -15430.4816 -13618.6434 209.7466 579.2983 675.9418 42217.7905 -0.3096 -0.2351
ENERGY: 215000 0.4859 2.1698 0.6268 0.0000 -18265.2920 2796.9933 0.0000 0.0000 1815.1476 -13649.8687 210.6119 -15465.0163 -13645.3547 210.5988 -20.1518 20.1098 42562.0047 -0.1484 -0.4605
ENERGY: 225000 0.0531 5.5171 1.3146 0.0000 -18269.3529 2756.9311 0.0000 0.0000 1790.3403 -13715.1969 207.7335 -15505.5371 -13709.7977 209.5838 -348.1398 -321.8237 42541.7032 2.5678 2.9609
TCL: Running 50000 steps at 240 kelvin.
TCL: Setting parameter langevinTemp to 240
TCL: Running for 50000 steps
ETITLE: TS BOND ANGLE DIHED IMPRP ELECT VDW BOUNDARY MISC KINETIC TOTAL TEMP POTENTIAL TOTAL3 TEMPAVG PRESSURE GPRESSURE VOLUME PRESSAVG GPRESSAVG
ENERGY: 225000 0.0531 5.5171 1.3146 0.0000 -18269.3529 2756.9311 0.0000 0.0000 1789.4368 -13716.1003 207.6287 -15505.5371 -13713.1581 207.6287 -395.4639 -321.7501 42541.7032 -395.4639 -321.7501
ENERGY: 235000 0.5868 4.3043 1.6262 0.0000 -17186.2936 2395.9611 0.0000 0.0000 2097.7328 -12686.0823 243.4003 -14783.8151 -12682.8371 242.0829 -784.4038 -773.8226 43184.3007 -0.8632 -0.5044
ENERGY: 245000 1.2811 5.9872 0.3649 0.0000 -17195.6388 2444.0985 0.0000 0.0000 2033.2322 -12710.6748 235.9163 -14743.9071 -12706.2933 240.8973 -434.5665 -356.3741 43047.2920 6.2586 6.6128
ENERGY: 255000 1.5324 4.0219 1.8285 0.0000 -17336.8782 2565.2061 0.0000 0.0000 2070.0702 -12694.2191 240.1906 -14764.2893 -12689.9541 240.0957 311.4552 426.7264 42784.7297 2.2876 2.1197
ENERGY: 265000 0.7324 7.2307 1.1584 0.0000 -17323.5442 2519.7524 0.0000 0.0000 2053.0759 -12741.5945 238.2188 -14794.6704 -12735.9046 240.1582 31.4530 97.5558 42544.0874 5.0878 5.0139
ENERGY: 275000 0.0864 3.3287 1.5477 0.0000 -17208.3286 2457.6091 0.0000 0.0000 2062.2396 -12683.5171 239.2820 -14745.7567 -12678.4449 240.0959 -346.9817 -238.4065 42832.8520 1.9356 2.2460
TCL: Running 50000 steps at 270 kelvin.
TCL: Setting parameter langevinTemp to 270
TCL: Running for 50000 steps
ETITLE: TS BOND ANGLE DIHED IMPRP ELECT VDW BOUNDARY MISC KINETIC TOTAL TEMP POTENTIAL TOTAL3 TEMPAVG PRESSURE GPRESSURE VOLUME PRESSAVG GPRESSAVG
ENERGY: 275000 0.0864 3.3287 1.5477 0.0000 -17208.3286 2457.6091 0.0000 0.0000 2061.2255 -12684.5312 239.1644 -14745.7567 -12681.2964 239.1644 -317.8111 -237.1963 42832.8520 -317.8111 -237.1963
ENERGY: 285000 0.1038 3.5284 0.2870 0.0000 -16493.0724 2306.5329 0.0000 0.0000 2368.2746 -11814.3458 274.7913 -14182.6203 -11813.4893 272.0404 15.2904 76.2159 43861.2498 -1.7973 -2.0121
ENERGY: 295000 3.5258 3.6731 0.7650 0.0000 -16476.1046 2254.4357 0.0000 0.0000 2313.4436 -11900.2614 268.4293 -14213.7050 -11896.6710 269.2574 -490.8913 -407.0027 43789.5312 2.9918 2.8793
ENERGY: 305000 0.5886 2.5681 0.4772 0.0000 -16491.6912 2234.1622 0.0000 0.0000 2270.0670 -11983.8281 263.3963 -14253.8951 -11978.0774 269.2174 -580.8782 -536.7505 43717.8939 3.2147 3.3795
ENERGY: 315000 0.4729 2.5766 0.9557 0.0000 -16477.5370 2283.6753 0.0000 0.0000 2339.5378 -11850.3188 271.4570 -14189.8566 -11845.0397 269.8234 7.3332 97.7068 43260.1100 3.6431 3.7093
ENERGY: 325000 1.9307 3.0153 0.8581 0.0000 -16639.7599 2389.3326 0.0000 0.0000 2329.4065 -11915.2167 270.2815 -14244.6232 -11909.2238 271.7788 616.1161 651.0629 43304.8706 0.1870 0.9782
TCL: Running 1000000 steps at 300 kelvin.
TCL: Setting parameter langevinTemp to 300
TCL: Running for 1000000 steps
ETITLE: TS BOND ANGLE DIHED IMPRP ELECT VDW BOUNDARY MISC KINETIC TOTAL TEMP POTENTIAL TOTAL3 TEMPAVG PRESSURE GPRESSURE VOLUME PRESSAVG GPRESSAVG
ENERGY: 325000 1.9307 3.0153 0.8581 0.0000 -16639.7599 2389.3326 0.0000 0.0000 2328.2600 -11916.3632 270.1484 -14244.6232 -11912.9507 270.1484 572.0408 650.2683 43304.8706 572.0408 650.2683
ENERGY: 525000 2.6230 4.2318 1.2255 0.0000 -15753.9152 2092.4246 0.0000 0.0000 2565.8262 -11087.5841 297.7133 -13653.4103 -11082.8526 299.4845 36.2705 90.0312 43937.2203 2.4722 2.8335
ENERGY: 725000 0.4462 2.0584 2.4026 0.0000 -15798.1171 2126.1200 0.0000 0.0000 2614.0066 -11053.0834 303.3037 -13667.0899 -11045.9844 299.1979 -112.7070 -24.7662 44723.6426 4.5038 3.1964
ENERGY: 925000 1.9761 3.6778 1.0243 0.0000 -15593.5027 2007.0007 0.0000 0.0000 2583.7264 -10996.0975 299.7902 -13579.8239 -10993.8303 298.9482 -536.6500 -451.1975 44693.1218 2.3551 2.2179
ENERGY: 1125000 0.6028 4.1546 0.4643 0.0000 -15836.9535 2163.8771 0.0000 0.0000 2552.7578 -11115.0969 296.1969 -13667.8546 -11110.4882 300.0183 13.5408 97.8641 44775.6098 1.1814 1.0087
ENERGY: 1325000 0.6784 9.6612 0.8986 0.0000 -15482.6869 1962.9811 0.0000 0.0000 2541.9808 -10966.4868 294.9465 -13508.4677 -10960.9351 301.0357 -649.1425 -527.7423 44781.6988 1.2664 0.9171
TCL: Exiting due to exit command.
