Info: SIMULATION PARAMETERS:
Info: TIMESTEP               2
Info: NUMBER OF STEPS        0
Info: STEPS PER CYCLE        10
Info: PERIODIC CELL BASIS 1  43.508 0 0
Info: PERIODIC CELL BASIS 2  0 42.62 0
Info: PERIODIC CELL BASIS 3  0 0 42.851
Info: PERIODIC CELL CENTER   0 0 0
Info: WRAPPING WATERS AROUND PERIODIC BOUNDARIES ON OUTPUT.
Info: WRAPPING ALL CLUSTERS AROUND PERIODIC BOUNDARIES ON OUTPUT.
Info: FIRST LDB TIMESTEP     50
Info: LAST LDB TIMESTEP     -1
Info: HOM BACKGROUND SCALING 1
Info: PME BACKGROUND SCALING 1
Info: MIN ATOMS PER PATCH    40
Info: EMPTY PATCH LOAD       40 ATOMS
Info: INITIAL TEMPERATURE    300
Info: CENTER OF MASS MOVING INITIALLY? NO
Info: DIELECTRIC             1
Info: EXCLUDE                SCALED ONE-FOUR
Info: 1-4 ELECTROSTATICS SCALED BY 0.833333
Info: MODIFIED 1-4 VDW PARAMETERS WILL BE USED
Info: DCD FILENAME           mobley_36119_min.dcd
Info: DCD FREQUENCY          5000
Info: DCD FIRST STEP         5000
Info: DCD FILE WILL CONTAIN UNIT CELL DATA
Info: XST FILENAME           mobley_36119_min.xst
Info: XST FREQUENCY          5000
Info: NO VELOCITY DCD OUTPUT
Info: NO FORCE DCD OUTPUT
Info: OUTPUT FILENAME        mobley_36119_min
Info: BINARY OUTPUT FILES WILL BE USED
Info: RESTART FILENAME       mobley_36119_min.restart
Info: RESTART FREQUENCY      5000
Info: BINARY RESTART FILES WILL BE USED
Info: CUTOFF                 9
Info: PAIRLIST DISTANCE      11
Info: PAIRLIST SHRINK RATE   0.01
Info: PAIRLIST GROW RATE     0.01
Info: PAIRLIST TRIGGER       0.3
Info: PAIRLISTS PER CYCLE    2
Info: PAIRLISTS ENABLED
Info: MARGIN                 8
Info: HYDROGEN GROUP CUTOFF  2.5
Info: PATCH DIMENSION        21.5
Info: ENERGY OUTPUT STEPS    5000
Info: ENERGY EVALUATION STEPS    5000
Info: OUTPUT ENERGY PRECISION 4
Info: CROSSTERM ENERGY INCLUDED IN DIHEDRAL
Info: TIMING OUTPUT STEPS    50000
Info: PRESSURE OUTPUT STEPS  5000
Info: LANGEVIN DYNAMICS ACTIVE
Info: LANGEVIN TEMPERATURE   300
Info: LANGEVIN USING BBK INTEGRATOR
Info: LANGEVIN DAMPING COEFFICIENT IS 1 INVERSE PS
Info: LANGEVIN DYNAMICS APPLIED TO HYDROGENS
Info: LANGEVIN PISTON PRESSURE CONTROL ACTIVE
Info:        TARGET PRESSURE IS 1.01325 BAR
Info:     OSCILLATION PERIOD IS 50 FS
Info:             DECAY TIME IS 25 FS
Info:     PISTON TEMPERATURE IS 300 K
Info:       PRESSURE CONTROL IS GROUP-BASED
Info:    INITIAL STRAIN RATE IS 0 0 0
Info:       CELL FLUCTUATION IS ISOTROPIC
Info: PARTICLE MESH EWALD (PME) ACTIVE
Info: PME TOLERANCE               1e-06
Info: PME EWALD COEFFICIENT       0.348832
Info: PME INTERPOLATION ORDER     4
Info: PME GRID DIMENSIONS         44 44 44
Info: PME MAXIMUM GRID SPACING    1
Info: FULL ELECTROSTATIC EVALUATION FREQUENCY      2
Info: USING VERLET I (r-RESPA) MTS SCHEME.
Info: C1 SPLITTING OF LONG RANGE ELECTROSTATICS
Info: PLACING ATOMS IN PATCHES BY HYDROGEN GROUPS
Info: RIGID BONDS TO HYDROGEN : ALL
Info:         ERROR TOLERANCE : 1e-08
Info:          MAX ITERATIONS : 100
Info: RIGID WATER USING SETTLE ALGORITHM
Info: RANDOM NUMBER SEED     1741327823
Info: USE HYDROGEN BONDS?    NO
Info: Using AMBER format force field!
Info: AMBER PARM FILE        mobley_36119.prmtop
Info: COORDINATE PDB         mobley_36119.pdb
Info: Exclusions will be read from PARM file!
Info: SCNB (VDW SCALING)     2
Info: USING ARITHMETIC MEAN TO COMBINE L-J SIGMA PARAMETERS
Info: SUMMARY OF PARAMETERS:
Info: 7 BONDS
Info: 8 ANGLES
Info:   8 HARMONIC
Info:   0 COSINE-BASED
Info: 8 DIHEDRAL
Info: 0 IMPROPER
Info: 0 CROSSTERM
Info: 0 VDW
Info: 28 VDW_PAIRS
Info: 0 NBTHOLE_PAIRS
Info: STRUCTURE SUMMARY:
Info: 5664 ATOMS
Info: 5663 BONDS
Info: 49 ANGLES
Info: 66 DIHEDRALS
Info: 0 IMPROPERS
Info: 0 CROSSTERMS
Info: 5778 EXCLUSIONS
Info: 5655 RIGID BONDS
Info: 11337 DEGREES OF FREEDOM
Info: 1888 HYDROGEN GROUPS
Info: 4 ATOMS IN LARGEST HYDROGEN GROUP
Info: 1888 MIGRATION GROUPS
Info: 4 ATOMS IN LARGEST MIGRATION GROUP
Info: TOTAL MASS = 33982.3 amu
Info: TOTAL CHARGE = -1.49012e-08 e
Info: MASS DENSITY = 0.71018 g/cm^3
Info: ATOM DENSITY = 0.071282 atoms/A^3
Info: ADDED 0 IMPLICIT EXCLUSIONS
Info: NONBONDED TABLE R-SQUARED SPACING: 0.0625
Info: NONBONDED TABLE SIZE: 705 POINTS
Info: REMOVING COM VELOCITY 0.044057 0.152281 -0.0727047
TCL: Minimizing for 2000 steps
ETITLE: TS BOND ANGLE DIHED IMPRP ELECT VDW BOUNDARY MISC KINETIC TOTAL TEMP POTENTIAL TOTAL3 TEMPAVG PRESSURE GPRESSURE VOLUME PRESSAVG GPRESSAVG
ENERGY: 0 0.1313 0.5606 0.0395 0.0000 -17665.9452 1995.2938 0.0000 0.0000 0.0000 -15669.9200 0.0000 -15669.9200 -15669.9200 0.0000 11021.1649 -15229.0876 79459.0789 11021.1649 -15229.0876
ENERGY: 400 1.2143 4.1826 0.6250 0.0000 -23875.0674 3557.0847 0.0000 0.0000 0.0000 -20311.9609 0.0000 -20311.9609 -20311.9609 0.0000 16020.7103 15642.7939 79459.0789 16020.7103 15642.7939
ENERGY: 800 4.0488 1.9984 0.3767 0.0000 -25073.5590 4101.9137 0.0000 0.0000 0.0000 -20965.2214 0.0000 -20965.2214 -20965.2214 0.0000 18129.1393 17705.2389 79459.0789 18129.1393 17705.2389
ENERGY: 1200 0.1917 0.4889 0.7630 0.0000 -25515.6503 4283.6399 0.0000 0.0000 0.0000 -21230.5668 0.0000 -21230.5668 -21230.5668 0.0000 18929.2357 18463.4337 79459.0789 18929.2357 18463.4337
ENERGY: 1600 0.2180 0.5639 1.0437 0.0000 -25884.3854 4478.7070 0.0000 0.0000 0.0000 -21403.8529 0.0000 -21403.8529 -21403.8529 0.0000 19764.3748 19262.5533 79459.0789 19764.3748 19262.5533
ENERGY: 2000 0.3723 0.5286 0.7188 0.0000 -25971.3779 4494.4990 0.0000 0.0000 0.0000 -21475.2591 0.0000 -21475.2591 -21475.2591 0.0000 19846.7812 19429.9416 79459.0789 19846.7812 19429.9416
TCL: Exiting due to exit command.
Info: NAMD 3.0.1 for Linux-x86_64-multicore
Info: Please visit http://www.ks.uiuc.edu/Research/namd/
Info: for updates, documentation, and support information.
Info: Please cite Phillips et al., J. Chem. Phys. 153:044130 (2020) doi:10.1063/5.0014475
Info: in all publications reporting results obtained with NAMD.
Info: Based on Charm++/Converse 80000 for multicore-linux-x86_64-gcc
Info: Built Mon Oct 14 11:11:06 CDT 2024 by dhardy on athine.ks.uiuc.edu
Info: 1 NAMD  3.0.1  Linux-x86_64-multicore  16    k015  z5358697
Info: Running on 16 processors, 1 nodes, 1 physical nodes.
Info: CPU topology information available.
Info: Charm++/Converse parallel runtime startup completed at 0.00942145 s
Info: 1043.45 MB of memory in use based on /proc/self/stat
Info: Configuration file is mobley_36119_equil.namd
Info: Working in the current directory /srv/scratch/z5358697/prod_prep_4/36119
TCL: Running 25000 steps at 30 kelvin.
TCL: Suspending until startup complete.
Info: SIMULATION PARAMETERS:
Info: TIMESTEP               2
Info: NUMBER OF STEPS        0
Info: STEPS PER CYCLE        10
Info: PERIODIC CELL BASIS 1  43.508 0 0
Info: PERIODIC CELL BASIS 2  0 42.62 0
Info: PERIODIC CELL BASIS 3  0 0 42.851
Info: PERIODIC CELL CENTER   0 0 0
Info: WRAPPING WATERS AROUND PERIODIC BOUNDARIES ON OUTPUT.
Info: WRAPPING ALL CLUSTERS AROUND PERIODIC BOUNDARIES ON OUTPUT.
Info: FIRST LDB TIMESTEP     50
Info: LAST LDB TIMESTEP     -1
Info: HOM BACKGROUND SCALING 1
Info: PME BACKGROUND SCALING 1
Info: MIN ATOMS PER PATCH    40
Info: EMPTY PATCH LOAD       40 ATOMS
Info: INITIAL TEMPERATURE    300
Info: CENTER OF MASS MOVING INITIALLY? NO
Info: DIELECTRIC             1
Info: EXCLUDE                SCALED ONE-FOUR
Info: 1-4 ELECTROSTATICS SCALED BY 0.833333
Info: MODIFIED 1-4 VDW PARAMETERS WILL BE USED
Info: DCD FILENAME           mobley_36119_equil.dcd
Info: DCD FREQUENCY          5000
Info: DCD FIRST STEP         5000
Info: DCD FILE WILL CONTAIN UNIT CELL DATA
Info: XST FILENAME           mobley_36119_equil.xst
Info: XST FREQUENCY          5000
Info: NO VELOCITY DCD OUTPUT
Info: NO FORCE DCD OUTPUT
Info: OUTPUT FILENAME        mobley_36119_equil
Info: BINARY OUTPUT FILES WILL BE USED
Info: RESTART FILENAME       mobley_36119_equil.restart
Info: RESTART FREQUENCY      5000
Info: BINARY RESTART FILES WILL BE USED
Info: CUTOFF                 9
Info: PAIRLIST DISTANCE      11
Info: PAIRLIST SHRINK RATE   0.01
Info: PAIRLIST GROW RATE     0.01
Info: PAIRLIST TRIGGER       0.3
Info: PAIRLISTS PER CYCLE    2
Info: PAIRLISTS ENABLED
Info: MARGIN                 8
Info: HYDROGEN GROUP CUTOFF  2.5
Info: PATCH DIMENSION        21.5
Info: ENERGY OUTPUT STEPS    5000
Info: ENERGY EVALUATION STEPS    5000
Info: OUTPUT ENERGY PRECISION 4
Info: CROSSTERM ENERGY INCLUDED IN DIHEDRAL
Info: TIMING OUTPUT STEPS    50000
Info: PRESSURE OUTPUT STEPS  5000
Info: LANGEVIN DYNAMICS ACTIVE
Info: LANGEVIN TEMPERATURE   30
Info: LANGEVIN USING BBK INTEGRATOR
Info: LANGEVIN DAMPING COEFFICIENT IS 1 INVERSE PS
Info: LANGEVIN DYNAMICS APPLIED TO HYDROGENS
Info: LANGEVIN PISTON PRESSURE CONTROL ACTIVE
Info:        TARGET PRESSURE IS 1.01325 BAR
Info:     OSCILLATION PERIOD IS 50 FS
Info:             DECAY TIME IS 25 FS
Info:     PISTON TEMPERATURE IS 300 K
Info:       PRESSURE CONTROL IS GROUP-BASED
Info:    INITIAL STRAIN RATE IS 0 0 0
Info:       CELL FLUCTUATION IS ISOTROPIC
Info: PARTICLE MESH EWALD (PME) ACTIVE
Info: PME TOLERANCE               1e-06
Info: PME EWALD COEFFICIENT       0.348832
Info: PME INTERPOLATION ORDER     4
Info: PME GRID DIMENSIONS         44 44 44
Info: PME MAXIMUM GRID SPACING    1
Info: FULL ELECTROSTATIC EVALUATION FREQUENCY      2
Info: USING VERLET I (r-RESPA) MTS SCHEME.
Info: C1 SPLITTING OF LONG RANGE ELECTROSTATICS
Info: PLACING ATOMS IN PATCHES BY HYDROGEN GROUPS
Info: RIGID BONDS TO HYDROGEN : ALL
Info:         ERROR TOLERANCE : 1e-08
Info:          MAX ITERATIONS : 100
Info: RIGID WATER USING SETTLE ALGORITHM
Info: RANDOM NUMBER SEED     1741327840
Info: USE HYDROGEN BONDS?    NO
Info: Using AMBER format force field!
Info: AMBER PARM FILE        mobley_36119.prmtop
Info: COORDINATE PDB         mobley_36119.pdb
Info: Exclusions will be read from PARM file!
Info: SCNB (VDW SCALING)     2
Info: USING ARITHMETIC MEAN TO COMBINE L-J SIGMA PARAMETERS
Info: BINARY COORDINATES     mobley_36119_min.coor
Info: SUMMARY OF PARAMETERS:
Info: 7 BONDS
Info: 8 ANGLES
Info: 8 DIHEDRAL
Info: 0 IMPROPER
Info: 0 CROSSTERM
Info: 0 VDW
Info: 28 VDW_PAIRS
Info: 0 NBTHOLE_PAIRS
Info: STRUCTURE SUMMARY:
Info: 5664 ATOMS
Info: 5663 BONDS
Info: 49 ANGLES
Info: 66 DIHEDRALS
Info: 0 IMPROPERS
Info: 0 CROSSTERMS
Info: 5778 EXCLUSIONS
Info: 5655 RIGID BONDS
Info: 11337 DEGREES OF FREEDOM
Info: 1888 HYDROGEN GROUPS
Info: 4 ATOMS IN LARGEST HYDROGEN GROUP
Info: 1888 MIGRATION GROUPS
Info: 4 ATOMS IN LARGEST MIGRATION GROUP
Info: TOTAL MASS = 33982.3 amu
Info: TOTAL CHARGE = -1.49012e-08 e
Info: MASS DENSITY = 0.71018 g/cm^3
Info: ATOM DENSITY = 0.071282 atoms/A^3
Info: ADDED 0 IMPLICIT EXCLUSIONS
Info: NONBONDED TABLE R-SQUARED SPACING: 0.0625
Info: NONBONDED TABLE SIZE: 705 POINTS
Info: REMOVING COM VELOCITY -0.186359 -0.110871 -0.024037
TCL: Running for 25000 steps
ETITLE: TS BOND ANGLE DIHED IMPRP ELECT VDW BOUNDARY MISC KINETIC TOTAL TEMP POTENTIAL TOTAL3 TEMPAVG PRESSURE GPRESSURE VOLUME PRESSAVG GPRESSAVG
ENERGY: 0 0.3723 0.5286 0.7188 0.0000 -25971.3779 4494.4990 0.0000 0.0000 3401.3359 -18073.9232 301.9547 -21475.2591 -18073.2537 301.9547 362.3666 401.9995 79459.0789 362.3666 401.9995
ENERGY: 5000 0.5327 1.4361 0.4513 0.0000 -27101.3269 4735.6303 0.0000 0.0000 350.0561 -22013.2203 31.0763 -22363.2764 -22012.3272 47.2906 195.3904 258.2800 55959.5778 -3.9181 -3.7052
ENERGY: 10000 0.2050 1.1374 0.8231 0.0000 -27185.9489 4779.8651 0.0000 0.0000 336.4391 -22067.4793 29.8675 -22403.9183 -22066.5433 30.1273 337.1555 405.8981 55803.2861 -0.3621 -0.4186
ENERGY: 15000 0.3178 1.6600 0.7541 0.0000 -27133.2899 4700.8131 0.0000 0.0000 338.7607 -22090.9842 30.0736 -22429.7449 -22090.3424 30.0298 -17.1327 53.4596 55615.8299 1.7492 1.9296
ENERGY: 20000 0.1957 1.1909 0.9000 0.0000 -27172.3329 4710.2784 0.0000 0.0000 336.8701 -22122.8979 29.9057 -22459.7679 -22122.2092 30.1109 23.7182 90.1478 55427.0697 3.9899 3.9589
ENERGY: 25000 0.2332 1.7786 0.9101 0.0000 -27109.8403 4634.5728 0.0000 0.0000 336.2660 -22136.0794 29.8521 -22472.3455 -22135.1523 29.8295 -382.9049 -306.7605 55546.6233 2.0220 1.9375
TCL: Running 25000 steps at 60 kelvin.
TCL: Setting parameter langevinTemp to 60
TCL: Running for 25000 steps
ETITLE: TS BOND ANGLE DIHED IMPRP ELECT VDW BOUNDARY MISC KINETIC TOTAL TEMP POTENTIAL TOTAL3 TEMPAVG PRESSURE GPRESSURE VOLUME PRESSAVG GPRESSAVG
ENERGY: 25000 0.2332 1.7786 0.9101 0.0000 -27109.8403 4634.5728 0.0000 0.0000 336.0990 -22136.2465 29.8373 -22472.3455 -22135.4584 29.8373 -367.4687 -306.8848 55546.6233 -367.4687 -306.8848
ENERGY: 30000 0.4970 2.2407 1.1718 0.0000 -26868.0922 4675.7598 0.0000 0.0000 676.8557 -21511.5672 60.0881 -22188.4229 -21509.3307 57.3634 520.8587 577.0211 55093.2545 4.1232 4.1505
ENERGY: 35000 0.4221 2.0921 0.4015 0.0000 -26702.8909 4453.6582 0.0000 0.0000 672.9932 -21573.3238 59.7452 -22246.3170 -21572.4581 60.1165 -577.2880 -511.5338 55191.5322 4.3994 4.4319
ENERGY: 40000 0.5519 1.7421 0.3741 0.0000 -26927.4115 4651.4469 0.0000 0.0000 694.7785 -21578.5180 61.6792 -22273.2965 -21577.7301 60.5113 249.7348 327.6977 54789.4605 -0.0209 -0.1240
ENERGY: 45000 0.2587 3.9597 0.9165 0.0000 -26973.7733 4669.9464 0.0000 0.0000 685.8372 -21612.8548 60.8854 -22298.6920 -21611.0752 60.1263 384.8912 436.1134 54601.3932 2.4647 2.7772
ENERGY: 50000 0.5258 2.5767 0.6717 0.0000 -26770.8830 4458.5886 0.0000 0.0000 669.3437 -21639.1765 59.4212 -22308.5202 -21637.4253 60.4195 -667.0331 -592.0547 54982.8653 3.2442 2.8744
TCL: Running 25000 steps at 90 kelvin.
TCL: Setting parameter langevinTemp to 90
TCL: Running for 25000 steps
ETITLE: TS BOND ANGLE DIHED IMPRP ELECT VDW BOUNDARY MISC KINETIC TOTAL TEMP POTENTIAL TOTAL3 TEMPAVG PRESSURE GPRESSURE VOLUME PRESSAVG GPRESSAVG
ENERGY: 50000 0.5258 2.5767 0.6717 0.0000 -26770.8830 4458.5886 0.0000 0.0000 669.0152 -21639.5050 59.3920 -22308.5202 -21637.8258 59.3920 -646.8562 -592.1123 54982.8653 -646.8562 -592.1123
ENERGY: 55000 1.2435 4.7158 1.4867 0.0000 -26358.9375 4379.1498 0.0000 0.0000 1024.5767 -20947.7651 90.9571 -21972.3417 -20945.7585 87.2113 -418.2770 -394.4965 55447.1916 -0.5495 -0.5221
ENERGY: 60000 1.0559 3.6574 0.4406 0.0000 -26344.6753 4295.3593 0.0000 0.0000 1014.0539 -21030.1082 90.0230 -22044.1622 -21027.6085 90.2132 -850.8509 -797.1927 55086.4899 0.8425 0.9432
ENERGY: 65000 0.2190 2.4502 0.3854 0.0000 -26484.1487 4425.0600 0.0000 0.0000 1008.9407 -21047.0935 89.5690 -22056.0342 -21044.5453 90.3266 -206.9135 -181.6147 54973.5588 0.9725 1.0223
ENERGY: 70000 0.7564 3.9742 1.0397 0.0000 -26566.0173 4464.0705 0.0000 0.0000 1007.1143 -21089.0623 89.4069 -22096.1766 -21085.0045 90.1218 -90.3161 -40.3933 54650.2983 3.0203 2.8786
ENERGY: 75000 0.4863 5.8189 2.0518 0.0000 -26444.9021 4346.5675 0.0000 0.0000 1013.2581 -21076.7195 89.9523 -22089.9775 -21073.6752 90.1666 -675.0642 -605.9698 54801.8596 -0.9960 -0.6714
TCL: Running 25000 steps at 120 kelvin.
TCL: Setting parameter langevinTemp to 120
TCL: Running for 25000 steps
ETITLE: TS BOND ANGLE DIHED IMPRP ELECT VDW BOUNDARY MISC KINETIC TOTAL TEMP POTENTIAL TOTAL3 TEMPAVG PRESSURE GPRESSURE VOLUME PRESSAVG GPRESSAVG
ENERGY: 75000 0.4863 5.8189 2.0518 0.0000 -26444.9021 4346.5675 0.0000 0.0000 1012.7355 -21077.2420 89.9059 -22089.9775 -21075.5009 89.9059 -659.1600 -605.5235 54801.8596 -659.1600 -605.5235
ENERGY: 80000 1.6225 4.9313 0.8685 0.0000 -26037.3604 4295.9625 0.0000 0.0000 1376.9731 -20357.0025 122.2412 -21733.9755 -20351.2651 116.3665 -317.6256 -258.6438 55187.8915 -0.7850 -0.7515
ENERGY: 85000 1.2462 5.8914 2.0961 0.0000 -26075.0088 4289.3028 0.0000 0.0000 1320.6213 -20455.8511 117.2386 -21776.4724 -20451.9343 120.0668 -287.2750 -233.3809 54879.9945 0.2643 0.3705
ENERGY: 90000 0.9101 3.0655 1.3874 0.0000 -26171.3032 4347.9430 0.0000 0.0000 1388.3243 -20429.6729 123.2489 -21817.9972 -20424.6083 120.5449 -164.9905 -111.8700 55087.4793 4.3290 4.5371
ENERGY: 95000 2.0644 5.0232 1.2806 0.0000 -26107.1901 4277.5957 0.0000 0.0000 1340.3140 -20480.9121 118.9868 -21821.2262 -20478.3191 120.2941 -453.1829 -416.1798 55020.6113 -0.8299 -0.9518
ENERGY: 100000 0.9131 3.5737 1.3977 0.0000 -26319.5956 4479.8631 0.0000 0.0000 1347.7648 -20486.0831 119.6483 -21833.8480 -20483.0495 119.8508 425.7417 460.5181 54838.9282 8.0884 8.3632
TCL: Running 25000 steps at 150 kelvin.
TCL: Setting parameter langevinTemp to 150
TCL: Running for 25000 steps
ETITLE: TS BOND ANGLE DIHED IMPRP ELECT VDW BOUNDARY MISC KINETIC TOTAL TEMP POTENTIAL TOTAL3 TEMPAVG PRESSURE GPRESSURE VOLUME PRESSAVG GPRESSAVG
ENERGY: 100000 0.9131 3.5737 1.3977 0.0000 -26319.5956 4479.8631 0.0000 0.0000 1347.1273 -20486.7206 119.5917 -21833.8480 -20483.6907 119.5917 413.4897 460.6090 54838.9282 413.4897 460.6090
ENERGY: 105000 1.4812 5.5733 1.6331 0.0000 -25666.8025 4238.1465 0.0000 0.0000 1705.7346 -19714.2338 151.4271 -21419.9684 -19709.1728 147.8876 3.1520 74.8132 55663.3406 3.6788 3.7102
ENERGY: 110000 1.2313 4.4082 0.8348 0.0000 -25608.5711 4107.5846 0.0000 0.0000 1661.4923 -19833.0200 147.4995 -21494.5123 -19830.0893 150.1148 -686.2244 -625.7015 55739.8426 3.7168 3.9725
ENERGY: 115000 1.7392 6.5150 1.9224 0.0000 -25645.7909 4150.7301 0.0000 0.0000 1673.1517 -19811.7325 148.5346 -21484.8842 -19808.3435 150.9704 -420.1672 -381.1307 55476.5678 4.2686 4.3529
ENERGY: 120000 1.5957 6.3568 1.3999 0.0000 -25822.0942 4267.1240 0.0000 0.0000 1690.7245 -19854.8934 150.0946 -21545.6179 -19850.6266 151.1205 41.5783 69.1540 55126.0089 0.8171 1.3507
ENERGY: 125000 1.0844 8.7359 1.6810 0.0000 -25722.3507 4203.5495 0.0000 0.0000 1693.3595 -19813.9403 150.3285 -21507.2999 -19811.3627 149.8935 -255.8096 -200.2867 55357.8007 4.7470 4.4129
TCL: Running 50000 steps at 180 kelvin.
TCL: Setting parameter langevinTemp to 180
TCL: Running for 50000 steps
ETITLE: TS BOND ANGLE DIHED IMPRP ELECT VDW BOUNDARY MISC KINETIC TOTAL TEMP POTENTIAL TOTAL3 TEMPAVG PRESSURE GPRESSURE VOLUME PRESSAVG GPRESSAVG
ENERGY: 125000 1.0844 8.7359 1.6810 0.0000 -25722.3507 4203.5495 0.0000 0.0000 1692.5277 -19814.7722 150.2547 -21507.2999 -19811.5382 150.2547 -262.0601 -200.5276 55357.8007 -262.0601 -200.5276
ENERGY: 135000 0.7937 6.5387 2.9450 0.0000 -25203.4882 4099.9789 0.0000 0.0000 2016.0840 -19077.1480 178.9785 -21093.2320 -19074.2216 179.7114 71.7250 153.9290 55329.2277 2.1565 2.4567
ENERGY: 145000 1.4546 10.9737 1.6310 0.0000 -25009.6218 3990.7104 0.0000 0.0000 2059.6265 -18945.2256 182.8440 -21004.8521 -18941.4666 179.3683 -358.9311 -267.8576 55656.5276 0.2080 0.0527
ENERGY: 155000 1.3690 8.7959 2.7585 0.0000 -25079.3698 4082.6562 0.0000 0.0000 2062.8858 -18920.9046 183.1333 -20983.7903 -18914.5055 181.4699 191.1150 245.2484 55467.3747 2.6126 2.4398
ENERGY: 165000 0.7064 6.5534 1.3529 0.0000 -25202.1878 4121.4487 0.0000 0.0000 2031.3885 -19040.7378 180.3372 -21072.1263 -19035.4863 180.8130 169.9239 213.1329 55700.9588 5.2123 4.9836
ENERGY: 175000 0.5966 9.7747 1.5642 0.0000 -25263.6509 4167.3799 0.0000 0.0000 2042.6214 -19041.7140 181.3344 -21084.3354 -19035.5367 179.8249 230.6588 287.0357 55819.1993 4.3565 4.7452
TCL: Running 50000 steps at 210 kelvin.
TCL: Setting parameter langevinTemp to 210
TCL: Running for 50000 steps
ETITLE: TS BOND ANGLE DIHED IMPRP ELECT VDW BOUNDARY MISC KINETIC TOTAL TEMP POTENTIAL TOTAL3 TEMPAVG PRESSURE GPRESSURE VOLUME PRESSAVG GPRESSAVG
ENERGY: 175000 0.5966 9.7747 1.5642 0.0000 -25263.6509 4167.3799 0.0000 0.0000 2041.5823 -19042.7531 181.2421 -21084.3354 -19038.4840 181.2421 232.4330 287.5263 55819.1993 232.4330 287.5263
ENERGY: 185000 1.2900 6.8350 0.9550 0.0000 -23903.3914 3584.1963 0.0000 0.0000 2328.1308 -17981.9843 206.6806 -20310.1151 -17972.8290 207.7444 -728.8472 -621.5963 55929.6324 -1.9138 -1.7704
ENERGY: 195000 2.4938 8.8841 1.4523 0.0000 -23756.6951 3534.6042 0.0000 0.0000 2384.5056 -17824.7552 211.6852 -20209.2608 -17819.6595 208.9836 -488.8508 -438.4777 55135.1058 2.0525 1.8713
ENERGY: 205000 3.6114 11.2297 1.4501 0.0000 -23906.1012 3703.3745 0.0000 0.0000 2347.4441 -17838.9912 208.3951 -20186.4354 -17834.2112 210.4799 53.1038 145.1607 55474.8852 2.3721 2.4412
ENERGY: 215000 0.5022 7.9456 0.4327 0.0000 -23951.1311 3696.8831 0.0000 0.0000 2426.0841 -17819.2835 215.3764 -20245.3676 -17815.9378 208.9304 262.1795 358.9268 54872.7441 1.9483 1.5976
ENERGY: 225000 3.4139 8.8675 1.9810 0.0000 -23757.5446 3504.4293 0.0000 0.0000 2339.0575 -17899.7955 207.6506 -20238.8530 -17893.3064 208.7908 -648.1280 -598.7842 55043.5194 -0.1315 0.2423
TCL: Running 50000 steps at 240 kelvin.
TCL: Setting parameter langevinTemp to 240
TCL: Running for 50000 steps
ETITLE: TS BOND ANGLE DIHED IMPRP ELECT VDW BOUNDARY MISC KINETIC TOTAL TEMP POTENTIAL TOTAL3 TEMPAVG PRESSURE GPRESSURE VOLUME PRESSAVG GPRESSAVG
ENERGY: 225000 3.4139 8.8675 1.9810 0.0000 -23757.5446 3504.4293 0.0000 0.0000 2337.8853 -17900.9677 207.5465 -20238.8530 -17896.5110 207.5465 -679.7361 -598.7485 55043.5194 -679.7361 -598.7485
ENERGY: 235000 1.7337 9.3978 2.2510 0.0000 -22560.3945 3242.9597 0.0000 0.0000 2753.6842 -16550.3682 244.4592 -19304.0524 -16541.4242 240.1630 -140.2273 -109.1401 55829.4256 3.9354 4.0647
ENERGY: 245000 3.8534 11.8277 1.1799 0.0000 -22558.3771 3224.5327 0.0000 0.0000 2708.1012 -16608.8823 240.4125 -19316.9835 -16605.2990 240.4006 -552.8758 -443.5475 56289.1763 0.1626 0.3256
ENERGY: 255000 1.0264 8.6797 2.3178 0.0000 -22560.9205 3299.3426 0.0000 0.0000 2728.4102 -16521.1438 242.2155 -19249.5540 -16514.7633 240.5532 67.1553 160.6085 56014.0659 -0.6484 -1.0081
ENERGY: 265000 1.2983 10.0996 1.6814 0.0000 -22629.8051 3277.4732 0.0000 0.0000 2727.2568 -16611.9959 242.1131 -19339.2527 -16606.4104 238.9570 -291.8496 -165.2241 56306.6655 4.8393 5.5476
ENERGY: 275000 1.4646 6.4605 1.4366 0.0000 -22804.1031 3397.8742 0.0000 0.0000 2626.3702 -16770.4972 233.1568 -19396.8674 -16766.2563 239.2471 283.4974 373.3034 55454.1505 3.0044 2.6268
TCL: Running 50000 steps at 270 kelvin.
TCL: Setting parameter langevinTemp to 270
TCL: Running for 50000 steps
ETITLE: TS BOND ANGLE DIHED IMPRP ELECT VDW BOUNDARY MISC KINETIC TOTAL TEMP POTENTIAL TOTAL3 TEMPAVG PRESSURE GPRESSURE VOLUME PRESSAVG GPRESSAVG
ENERGY: 275000 1.4646 6.4605 1.4366 0.0000 -22804.1031 3397.8742 0.0000 0.0000 2625.0428 -16771.8245 233.0390 -19396.8674 -16767.2030 233.0390 294.4048 371.7532 55454.1505 294.4048 371.7532
ENERGY: 285000 4.4435 8.0560 0.5346 0.0000 -21493.9713 3032.4745 0.0000 0.0000 3036.4650 -15411.9977 269.5631 -18448.4627 -15405.7164 270.7097 369.7075 431.3105 56434.0657 2.2925 2.7542
ENERGY: 295000 1.1879 15.2566 1.7410 0.0000 -21746.6350 3047.4744 0.0000 0.0000 3097.6145 -15583.3607 274.9917 -18680.9752 -15576.6932 270.5189 -8.9384 64.2396 56321.3255 6.2818 6.5290
ENERGY: 305000 2.3132 18.9611 1.4567 0.0000 -21432.9597 2918.0801 0.0000 0.0000 3002.0758 -15490.0728 266.5102 -18492.1486 -15486.2721 270.3245 -365.7417 -298.8737 56816.4178 4.4251 3.8632
ENERGY: 315000 1.3161 9.8293 0.8473 0.0000 -21487.5578 3016.9577 0.0000 0.0000 3004.5148 -15454.0925 266.7268 -18458.6073 -15448.5594 270.6489 122.9239 225.8378 56828.0348 3.5256 4.0297
ENERGY: 325000 3.3828 14.0533 1.4283 0.0000 -21504.1724 2923.9230 0.0000 0.0000 3072.7893 -15488.5956 272.7878 -18561.3849 -15481.8003 270.4967 -219.1459 -155.0999 56212.0794 1.8305 1.7360
TCL: Running 1000000 steps at 300 kelvin.
TCL: Setting parameter langevinTemp to 300
TCL: Running for 1000000 steps
ETITLE: TS BOND ANGLE DIHED IMPRP ELECT VDW BOUNDARY MISC KINETIC TOTAL TEMP POTENTIAL TOTAL3 TEMPAVG PRESSURE GPRESSURE VOLUME PRESSAVG GPRESSAVG
ENERGY: 325000 3.3828 14.0533 1.4283 0.0000 -21504.1724 2923.9230 0.0000 0.0000 3071.3154 -15490.0695 272.6570 -18561.3849 -15486.3590 272.6570 -238.4170 -155.0192 56212.0794 -238.4170 -155.0192
ENERGY: 525000 4.9460 11.5031 2.1232 0.0000 -20349.4856 2676.5753 0.0000 0.0000 3390.0797 -14264.2582 300.9554 -17654.3380 -14257.8749 302.6051 -185.2331 -140.3318 58229.2250 1.3017 1.2969
ENERGY: 725000 1.9554 13.0655 2.7324 0.0000 -20517.9050 2643.2076 0.0000 0.0000 3368.5118 -14488.4324 299.0407 -17856.9442 -14483.8052 298.8027 -594.1354 -508.8566 57762.6696 1.2163 0.9350
ENERGY: 925000 2.4006 13.7439 5.9440 0.0000 -20649.8296 2772.4205 0.0000 0.0000 3434.9838 -14420.3369 304.9418 -17855.3206 -14412.9128 300.0332 -112.2742 -19.5405 58003.6147 4.9590 4.8781
ENERGY: 1125000 1.8249 9.4894 4.1532 0.0000 -20585.1654 2806.4762 0.0000 0.0000 3305.8036 -14457.4180 293.4738 -17763.2216 -14449.2536 300.1562 141.9344 162.8650 58463.4322 -0.7579 -0.8939
ENERGY: 1325000 3.1099 15.3048 1.3029 0.0000 -20345.2363 2631.1944 0.0000 0.0000 3402.6322 -14291.6920 302.0698 -17694.3242 -14285.1040 300.6283 -560.3342 -476.6620 58689.9854 0.7517 1.1673
TCL: Exiting due to exit command.
