Info: SIMULATION PARAMETERS:
Info: TIMESTEP               2
Info: NUMBER OF STEPS        0
Info: STEPS PER CYCLE        10
Info: PERIODIC CELL BASIS 1  83.0487 0 0
Info: PERIODIC CELL BASIS 2  0 83.0487 0
Info: PERIODIC CELL BASIS 3  0 0 83.0487
Info: PERIODIC CELL CENTER   39.689 39.689 39.689
Info: WRAPPING ALL CLUSTERS AROUND PERIODIC BOUNDARIES ON OUTPUT.
Info: FIRST LDB TIMESTEP     50
Info: LAST LDB TIMESTEP     -1
Info: HOM BACKGROUND SCALING 1
Info: PME BACKGROUND SCALING 1
Info: MIN ATOMS PER PATCH    40
Info: EMPTY PATCH LOAD       40 ATOMS
Info: VELOCITY FILE          mobley_1417007_equilibrated.vel
Info: CENTER OF MASS MOVING INITIALLY? NO
Info: DIELECTRIC             1
Info: EXCLUDE                SCALED ONE-FOUR
Info: 1-4 ELECTROSTATICS SCALED BY 1
Info: MODIFIED 1-4 VDW PARAMETERS WILL BE USED
Info: DCD FILENAME           mobley_1417007_backwards.dcd
Info: DCD FREQUENCY          500
Info: DCD FIRST STEP         500
Info: DCD FILE WILL CONTAIN UNIT CELL DATA
Info: NO EXTENDED SYSTEM TRAJECTORY OUTPUT
Info: NO VELOCITY DCD OUTPUT
Info: NO FORCE DCD OUTPUT
Info: OUTPUT FILENAME        mobley_1417007_backwards
Info: BINARY OUTPUT FILES WILL BE USED
Info: NO RESTART FILE
Info: SWITCHING ACTIVE
Info: SWITCHING ON           10
Info: SWITCHING OFF          12
Info: PAIRLIST DISTANCE      14
Info: PAIRLIST SHRINK RATE   0.01
Info: PAIRLIST GROW RATE     0.01
Info: PAIRLIST TRIGGER       0.3
Info: PAIRLISTS PER CYCLE    2
Info: PAIRLISTS ENABLED
Info: MARGIN                 8
Info: HYDROGEN GROUP CUTOFF  2.5
Info: PATCH DIMENSION        24.5
Info: ENERGY OUTPUT STEPS    500
Info: ENERGY EVALUATION STEPS    500
Info: OUTPUT ENERGY PRECISION 4
Info: CROSSTERM ENERGY INCLUDED IN DIHEDRAL
Info: TIMING OUTPUT STEPS    500
Info: PRESSURE OUTPUT STEPS  500
Info: ALCHEMICAL FEP ON
Info: FEP CURRENT LAMBDA VALUE     1
Info: FEP COMPARISON LAMBDA VALUE  0.9375
Info: FEP INTRA-ALCHEMICAL NON-BONDED INTERACTIONS WILL BE DECOUPLED
Info: FEP INTRA-ALCHEMICAL BONDED INTERACTIONS WILL BE RETAINED
Info: FEP VDW SHIFTING COEFFICIENT 6
Info: FEP ELEC. ACTIVE FOR ANNIHILATED PARTICLES BETWEEN LAMBDA = 0 AND LAMBDA = 0.5
Info: FEP ELEC. ACTIVE FOR EXNIHILATED PARTICLES BETWEEN LAMBDA = 0.5 AND LAMBDA = 1
Info: FEP VDW ACTIVE FOR ANNIHILATED PARTICLES BETWEEN LAMBDA = 0 AND LAMBDA = 1
Info: FEP VDW ACTIVE FOR EXNIHILATED PARTICLES BETWEEN LAMBDA = 0 AND LAMBDA = 1
Info: FEP BOND ACTIVE FOR ANNIHILATED PARTICLES BETWEEN LAMBDA = 1 AND LAMBDA = 1
Info: FEP BOND ACTIVE FOR EXNIHILATED PARTICLES BETWEEN LAMBDA = 0 AND LAMBDA = 0
Info: LANGEVIN DYNAMICS ACTIVE
Info: LANGEVIN TEMPERATURE   298
Info: LANGEVIN USING BBK INTEGRATOR
Info: LANGEVIN DAMPING COEFFICIENT IS 1 INVERSE PS
Info: LANGEVIN DYNAMICS NOT APPLIED TO HYDROGENS
Info: LANGEVIN PISTON PRESSURE CONTROL ACTIVE
Info:        TARGET PRESSURE IS 1.01325 BAR
Info:     OSCILLATION PERIOD IS 100 FS
Info:             DECAY TIME IS 50 FS
Info:     PISTON TEMPERATURE IS 298 K
Info:       PRESSURE CONTROL IS GROUP-BASED
Info:    INITIAL STRAIN RATE IS -5.52243e-05 -5.52243e-05 -5.52243e-05
Info:       CELL FLUCTUATION IS ISOTROPIC
Info: PARTICLE MESH EWALD (PME) ACTIVE
Info: PME TOLERANCE               1e-05
Info: PME EWALD COEFFICIENT       0.226635
Info: PME INTERPOLATION ORDER     4
Info: PME GRID DIMENSIONS         84 84 84
Info: PME MAXIMUM GRID SPACING    1
Info: FULL ELECTROSTATIC EVALUATION FREQUENCY      1
Info: USING VERLET I (r-RESPA) MTS SCHEME.
Info: C1 SPLITTING OF LONG RANGE ELECTROSTATICS
Info: PLACING ATOMS IN PATCHES BY HYDROGEN GROUPS
Info: RIGID BONDS TO HYDROGEN : ALL
Info:         ERROR TOLERANCE : 1e-08
Info:          MAX ITERATIONS : 100
Info: RIGID WATER USING SETTLE ALGORITHM
Info: RANDOM NUMBER SEED     1740634152
Info: USE HYDROGEN BONDS?    NO
Info: COORDINATE PDB         mobley_1417007.pdb
Info: STRUCTURE FILE         mobley_1417007.psf
Info: PARAMETER file: CHARMM format!
Info: PARAMETERS             ../common/par_all27_prot_lipid.inp
Info: PARAMETERS             mobley_1417007.prm
Info: USING ARITHMETIC MEAN TO COMBINE L-J SIGMA PARAMETERS
Info: BINARY COORDINATES     mobley_1417007_equilibrated.coor
Info: SUMMARY OF PARAMETERS:
Info: 191 BONDS
Info: 465 ANGLES
Info: 598 DIHEDRAL
Info: 49 IMPROPER
Info: 6 CROSSTERM
Info: 128 VDW
Info: 0 VDW_PAIRS
Info: 0 NBTHOLE_PAIRS
Info: To read alchdata from file: mobley_1417007.pdb
Info: To read alchflag data from column: 5
Info: STRUCTURE SUMMARY:
Info: 6213 ATOMS
Info: 4151 BONDS
Info: 2109 ANGLES
Info: 68 DIHEDRALS
Info: 5 IMPROPERS
Info: 0 CROSSTERMS
Info: 0 EXCLUSIONS
Info: 6197 RIGID BONDS
Info: ALCH: 0 ATOMS TO DISAPPEAR IN FINAL STATE
Info: ALCH: 24 ATOMS TO APPEAR IN FINAL STATE
Info: 12442 DEGREES OF FREEDOM
Info: 2079 HYDROGEN GROUPS
Info: 3 ATOMS IN LARGEST HYDROGEN GROUP
Info: 2079 MIGRATION GROUPS
Info: 3 ATOMS IN LARGEST MIGRATION GROUP
Info: TOTAL MASS = 37466.3 amu
Info: TOTAL CHARGE = 3.72529e-08 e
Info: MASS DENSITY = 0.108618 g/cm^3
Info: ATOM DENSITY = 0.0108468 atoms/A^3
Info: ADDED 6320 IMPLICIT EXCLUSIONS
Info: NONBONDED TABLE R-SQUARED SPACING: 0.0625
Info: NONBONDED TABLE SIZE: 769 POINTS
Info: REMOVING COM VELOCITY -0.0208415 -0.0367583 -0.129778
TCL: Running for 5000 steps
ETITLE: TS BOND ANGLE DIHED IMPRP ELECT VDW BOUNDARY MISC KINETIC TOTAL TEMP POTENTIAL TOTAL3 TEMPAVG PRESSURE GPRESSURE VOLUME PRESSAVG GPRESSAVG
ENERGY: 0 6.8940 33.1784 10.6188 0.7622 -21692.8193 2382.4554 0.0000 0.0000 3700.0718 -15558.8385 299.3025 -19258.9103 -15551.4855 299.3025 55.7152 55.7196 572794.7479 55.7152 55.7196
ENERGY: 1000 7.1373 30.3088 11.7621 1.3471 -21429.2705 2125.3339 0.0000 0.0000 3680.5384 -15572.8428 297.7224 -19253.3812 -15566.6293 298.0501 -49.0770 -48.1051 578656.4600 0.1897 0.1911
ENERGY: 2000 6.1623 28.5788 9.3570 0.3148 -21614.0887 2219.9387 0.0000 0.0000 3698.3564 -15651.3807 299.1637 -19349.7371 -15644.5606 295.5945 -36.5083 -36.1589 570642.9168 2.7974 2.7621
ENERGY: 3000 2.4236 29.9441 11.5103 0.5164 -21592.4098 2170.3241 0.0000 0.0000 3701.3582 -15676.3332 299.4066 -19377.6914 -15667.1712 295.6471 -36.5360 -37.6848 551665.0692 -0.8058 -0.7806
ENERGY: 4000 7.6413 29.0763 11.7171 0.7765 -21639.9281 2284.4282 0.0000 0.0000 3630.0635 -15676.2251 293.6395 -19306.2886 -15668.6620 295.2862 30.6470 30.5213 544142.4998 0.9214 0.8925
ENERGY: 5000 6.4705 23.7997 9.6853 1.8893 -21688.9022 2298.5766 0.0000 0.0000 3663.3994 -15685.0815 296.3360 -19348.4808 -15678.5374 294.1606 15.2378 15.9612 532019.2357 1.3061 1.3157
TCL: Running FEP window   2: Lambda1 0.9375 Lambda2 0.875  [dLambda -0.0625]
TCL: Setting parameter firsttimestep to 0
TCL: Setting parameter alchLambda to 0.9375
Info: NONBONDED TABLE R-SQUARED SPACING: 0.0625
Info: NONBONDED TABLE SIZE: 769 POINTS
TCL: Setting parameter alchLambda2 to 0.875
Info: NONBONDED TABLE R-SQUARED SPACING: 0.0625
Info: NONBONDED TABLE SIZE: 769 POINTS
TCL: Running for 5000 steps
ETITLE: TS BOND ANGLE DIHED IMPRP ELECT VDW BOUNDARY MISC KINETIC TOTAL TEMP POTENTIAL TOTAL3 TEMPAVG PRESSURE GPRESSURE VOLUME PRESSAVG GPRESSAVG
ENERGY: 0 6.4705 23.7997 9.6853 1.8893 -21680.7580 2295.4140 0.0000 0.0000 3663.2854 -15680.2138 296.3268 -19343.4992 -15673.2280 296.3268 11.9838 12.0070 532019.2357 11.9838 12.0070
ENERGY: 1000 6.2632 30.8867 9.1822 1.1212 -21714.6660 2353.2772 0.0000 0.0000 3689.1708 -15624.7648 298.4207 -19313.9356 -15618.5958 295.3443 49.1214 49.5032 531454.9172 2.2006 2.2242
ENERGY: 2000 6.8827 23.2530 10.3640 0.2167 -21461.9192 2229.8962 0.0000 0.0000 3709.3133 -15481.9932 300.0500 -19191.3065 -15473.6561 296.5494 -1.6681 -0.7566 546284.3490 0.2733 0.3048
ENERGY: 3000 10.7365 24.4360 10.3909 0.7379 -21568.4165 2236.2508 0.0000 0.0000 3777.7438 -15508.1206 305.5855 -19285.8644 -15501.2658 297.5727 -8.7859 -8.6605 557006.2703 0.0964 0.1106
ENERGY: 4000 6.3260 26.0357 9.6582 0.5741 -21614.7388 2266.4775 0.0000 0.0000 3747.9528 -15557.7144 303.1756 -19305.6672 -15549.5342 298.7452 20.6812 20.0484 552859.3189 0.9562 0.9606
ENERGY: 5000 4.4933 28.4607 8.7932 0.4410 -21629.7053 2217.6330 0.0000 0.0000 3678.8529 -15691.0311 297.5861 -19369.8840 -15682.4861 295.5420 -24.6397 -24.3286 553641.8658 2.5381 2.5640
TCL: Running FEP window   3: Lambda1 0.875  Lambda2 0.8125 [dLambda -0.0625]
TCL: Setting parameter firsttimestep to 0
TCL: Setting parameter alchLambda to 0.875
Info: NONBONDED TABLE R-SQUARED SPACING: 0.0625
Info: NONBONDED TABLE SIZE: 769 POINTS
TCL: Setting parameter alchLambda2 to 0.8125
Info: NONBONDED TABLE R-SQUARED SPACING: 0.0625
Info: NONBONDED TABLE SIZE: 769 POINTS
TCL: Running for 5000 steps
ETITLE: TS BOND ANGLE DIHED IMPRP ELECT VDW BOUNDARY MISC KINETIC TOTAL TEMP POTENTIAL TOTAL3 TEMPAVG PRESSURE GPRESSURE VOLUME PRESSAVG GPRESSAVG
ENERGY: 0 4.4933 28.4607 8.7932 0.4410 -21621.6297 2217.3109 0.0000 0.0000 3678.7384 -15683.3922 297.5768 -19362.1306 -15676.6524 297.5768 -25.8645 -25.8831 553641.8658 -25.8645 -25.8831
ENERGY: 1000 6.4981 23.9876 9.8036 0.6488 -21590.9956 2231.5165 0.0000 0.0000 3653.6509 -15664.8901 295.5475 -19318.5410 -15660.0796 296.4314 -20.4300 -19.8741 546391.6928 0.3765 0.3532
ENERGY: 2000 5.3877 30.1229 11.1281 1.5407 -21497.9902 2284.4910 0.0000 0.0000 3735.9333 -15429.3864 302.2034 -19165.3197 -15421.1533 300.7235 32.5620 32.9815 530401.3548 0.9527 0.9851
ENERGY: 3000 6.2027 26.6147 9.3933 2.0772 -21308.3523 2133.5244 0.0000 0.0000 3711.8068 -15418.7332 300.2517 -19130.5400 -15410.5336 301.1214 -53.7146 -52.5990 532343.7600 2.1690 2.1587
ENERGY: 4000 4.5781 25.8031 11.7916 0.5685 -21602.1215 2258.3357 0.0000 0.0000 3650.1047 -15650.9399 295.2606 -19301.0445 -15644.9386 295.4541 -19.9173 -19.2162 527847.0029 -0.2515 -0.2649
ENERGY: 5000 4.3002 26.4300 9.8670 0.6500 -21538.8683 2181.5391 0.0000 0.0000 3661.2579 -15654.8241 296.1628 -19316.0820 -15645.9398 294.3356 -45.6145 -44.7611 508578.5410 0.6772 0.6547
TCL: Running FEP window   4: Lambda1 0.8125 Lambda2 0.75   [dLambda -0.0625]
TCL: Setting parameter firsttimestep to 0
TCL: Setting parameter alchLambda to 0.8125
Info: NONBONDED TABLE R-SQUARED SPACING: 0.0625
Info: NONBONDED TABLE SIZE: 769 POINTS
TCL: Setting parameter alchLambda2 to 0.75
Info: NONBONDED TABLE R-SQUARED SPACING: 0.0625
Info: NONBONDED TABLE SIZE: 769 POINTS
TCL: Running for 5000 steps
ETITLE: TS BOND ANGLE DIHED IMPRP ELECT VDW BOUNDARY MISC KINETIC TOTAL TEMP POTENTIAL TOTAL3 TEMPAVG PRESSURE GPRESSURE VOLUME PRESSAVG GPRESSAVG
ENERGY: 0 4.3002 26.4300 9.8670 0.6500 -21531.4612 2180.4811 0.0000 0.0000 3661.1423 -15648.5906 296.1535 -19309.7329 -15641.3922 296.1535 -46.8143 -46.8181 508578.5410 -46.8143 -46.8181
ENERGY: 1000 3.1920 24.7828 10.5436 1.6722 -21583.8343 2272.3914 0.0000 0.0000 3622.5459 -15648.7062 293.0314 -19271.2522 -15641.2628 293.9694 -12.1742 -11.3842 503235.5376 1.8814 1.8660
ENERGY: 2000 3.9687 28.2177 8.9123 0.5578 -21608.1596 2276.1407 0.0000 0.0000 3647.9933 -15642.3691 295.0898 -19290.3624 -15633.1415 295.1174 16.6637 16.2693 490740.4679 1.0521 1.0509
ENERGY: 3000 7.3030 27.1103 9.7143 0.2459 -21712.1162 2304.8679 0.0000 0.0000 3723.9275 -15638.9473 301.2322 -19362.8748 -15631.4806 298.3901 24.1934 24.9831 510326.0629 1.6203 1.5982
ENERGY: 4000 9.5333 25.4256 10.1842 0.3840 -21652.0801 2299.4400 0.0000 0.0000 3576.0107 -15731.1023 289.2671 -19307.1129 -15721.9320 295.8606 9.2163 9.3682 553034.6253 2.2758 2.2916
ENERGY: 5000 3.8909 28.1882 10.3978 0.7328 -21649.8544 2281.9388 0.0000 0.0000 3682.8077 -15641.8983 297.9060 -19324.7060 -15634.5366 296.3771 15.2956 15.5580 551599.1019 -1.6874 -1.6352
TCL: Running FEP window   5: Lambda1 0.75   Lambda2 0.6875 [dLambda -0.0625]
TCL: Setting parameter firsttimestep to 0
TCL: Setting parameter alchLambda to 0.75
Info: NONBONDED TABLE R-SQUARED SPACING: 0.0625
Info: NONBONDED TABLE SIZE: 769 POINTS
TCL: Setting parameter alchLambda2 to 0.6875
Info: NONBONDED TABLE R-SQUARED SPACING: 0.0625
Info: NONBONDED TABLE SIZE: 769 POINTS
TCL: Running for 5000 steps
ETITLE: TS BOND ANGLE DIHED IMPRP ELECT VDW BOUNDARY MISC KINETIC TOTAL TEMP POTENTIAL TOTAL3 TEMPAVG PRESSURE GPRESSURE VOLUME PRESSAVG GPRESSAVG
ENERGY: 0 3.8909 28.1882 10.3978 0.7328 -21641.1286 2282.3554 0.0000 0.0000 3682.6983 -15632.8653 297.8971 -19315.5636 -15625.5687 297.8971 14.5253 14.5815 551599.1019 14.5253 14.5815
ENERGY: 1000 3.6804 26.8465 10.0051 1.1350 -21431.0983 2192.9337 0.0000 0.0000 3586.4945 -15610.0031 290.1151 -19196.4976 -15601.5421 295.1352 -27.4863 -27.0480 572650.3435 -0.7126 -0.7184
ENERGY: 2000 2.1301 27.1553 8.6540 0.3039 -21662.1543 2367.8309 0.0000 0.0000 3612.3177 -15643.7624 292.2040 -19256.0801 -15636.9487 295.5415 67.4950 66.6601 572627.5558 0.6937 0.7194
ENERGY: 3000 6.0979 28.6853 10.7886 0.8515 -21407.0332 2156.8450 0.0000 0.0000 3594.5074 -15609.2575 290.7633 -19203.7649 -15603.4993 298.7715 -28.2218 -27.6689 570250.3150 1.6302 1.6501
ENERGY: 4000 5.0190 25.4652 10.9396 0.4473 -21610.6125 2281.0848 0.0000 0.0000 3589.1099 -15698.5467 290.3267 -19287.6566 -15693.4902 293.5156 4.1246 3.8553 553637.6680 1.0925 1.1311
ENERGY: 5000 4.5938 24.8892 10.2358 0.8928 -21740.3568 2401.9571 0.0000 0.0000 3662.3878 -15635.4003 296.2542 -19297.7881 -15628.9991 297.3021 75.1599 75.1739 545988.4150 1.5116 1.5029
TCL: Running FEP window   6: Lambda1 0.6875 Lambda2 0.625  [dLambda -0.0625]
TCL: Setting parameter firsttimestep to 0
TCL: Setting parameter alchLambda to 0.6875
Info: NONBONDED TABLE R-SQUARED SPACING: 0.0625
Info: NONBONDED TABLE SIZE: 769 POINTS
TCL: Setting parameter alchLambda2 to 0.625
Info: NONBONDED TABLE R-SQUARED SPACING: 0.0625
Info: NONBONDED TABLE SIZE: 769 POINTS
TCL: Running for 5000 steps
ETITLE: TS BOND ANGLE DIHED IMPRP ELECT VDW BOUNDARY MISC KINETIC TOTAL TEMP POTENTIAL TOTAL3 TEMPAVG PRESSURE GPRESSURE VOLUME PRESSAVG GPRESSAVG
ENERGY: 0 4.5938 24.8892 10.2358 0.8928 -21733.2833 2401.2965 0.0000 0.0000 3662.2730 -15629.1023 296.2449 -19291.3752 -15622.0582 296.2449 73.6057 73.5528 545988.4150 73.6057 73.5528
ENERGY: 1000 3.1649 27.2201 9.0528 0.0572 -21537.0485 2267.6279 0.0000 0.0000 3721.0179 -15508.9078 300.9968 -19229.9256 -15501.8467 298.5487 7.6976 7.2693 549863.0075 3.0476 3.0415
ENERGY: 2000 5.9849 31.3047 10.0556 0.6736 -21359.3314 2242.2583 0.0000 0.0000 3622.4185 -15446.6356 293.0210 -19069.0542 -15438.8236 298.0737 2.8401 2.9356 557019.3970 0.8641 0.8861
ENERGY: 3000 2.5981 22.2239 10.7313 0.7844 -21318.7980 2229.1100 0.0000 0.0000 3621.6908 -15431.6596 292.9622 -19053.3503 -15426.7625 299.6630 -1.5122 -2.6203 551584.6127 3.2101 3.1839
ENERGY: 4000 3.2046 27.0629 10.2351 0.3987 -21449.0186 2173.0643 0.0000 0.0000 3666.8486 -15568.2044 296.6150 -19235.0530 -15560.0458 297.8126 -36.6562 -37.3294 525464.8320 -0.4286 -0.4126
ENERGY: 5000 4.1182 28.1794 10.9784 0.4553 -21631.5033 2273.8241 0.0000 0.0000 3719.3184 -15594.6295 300.8594 -19313.9480 -15588.3842 296.8157 12.7939 12.7597 521180.7974 3.4558 3.4263
TCL: Running FEP window   7: Lambda1 0.625  Lambda2 0.5625 [dLambda -0.0625]
TCL: Setting parameter firsttimestep to 0
TCL: Setting parameter alchLambda to 0.625
Info: NONBONDED TABLE R-SQUARED SPACING: 0.0625
Info: NONBONDED TABLE SIZE: 769 POINTS
TCL: Setting parameter alchLambda2 to 0.5625
Info: NONBONDED TABLE R-SQUARED SPACING: 0.0625
Info: NONBONDED TABLE SIZE: 769 POINTS
TCL: Running for 5000 steps
ETITLE: TS BOND ANGLE DIHED IMPRP ELECT VDW BOUNDARY MISC KINETIC TOTAL TEMP POTENTIAL TOTAL3 TEMPAVG PRESSURE GPRESSURE VOLUME PRESSAVG GPRESSAVG
ENERGY: 0 4.1182 28.1794 10.9784 0.4553 -21624.4611 2274.9116 0.0000 0.0000 3719.2039 -15586.6143 300.8501 -19305.8182 -15578.8251 300.8501 12.3910 12.3727 521180.7974 12.3910 12.3727
ENERGY: 1000 4.5863 28.8177 10.3133 0.2671 -21569.4495 2298.7980 0.0000 0.0000 3682.6605 -15544.0066 297.8941 -19226.6671 -15536.7012 297.2003 31.7097 30.8323 519631.8516 2.1550 2.1407
ENERGY: 2000 5.3766 23.3737 11.4730 0.2489 -21578.1454 2295.8321 0.0000 0.0000 3671.4217 -15570.4194 296.9850 -19241.8411 -15563.3745 296.2519 16.0626 16.7187 508821.0571 1.2343 1.2542
ENERGY: 3000 3.0677 26.6021 10.0306 0.3728 -21536.0198 2209.8039 0.0000 0.0000 3711.5540 -15574.5887 300.2313 -19286.1427 -15566.7369 293.6359 -36.9952 -36.2050 514262.0554 0.8021 0.7574
ENERGY: 4000 5.2614 25.9575 12.7303 0.8091 -21527.1704 2242.4396 0.0000 0.0000 3657.8104 -15582.1622 295.8839 -19239.9726 -15575.5999 297.0257 -3.9778 -3.3505 512655.7616 0.4562 0.4287
ENERGY: 5000 4.5859 26.7429 11.1183 0.5076 -21764.1891 2324.0319 0.0000 0.0000 3691.6858 -15705.5168 298.6241 -19397.2026 -15698.1489 293.2587 17.2966 17.2243 508235.8327 1.2669 1.2972
TCL: Running FEP window   8: Lambda1 0.5625 Lambda2 0.5    [dLambda -0.0625]
TCL: Setting parameter firsttimestep to 0
TCL: Setting parameter alchLambda to 0.5625
Info: NONBONDED TABLE R-SQUARED SPACING: 0.0625
Info: NONBONDED TABLE SIZE: 769 POINTS
TCL: Setting parameter alchLambda2 to 0.5
Info: NONBONDED TABLE R-SQUARED SPACING: 0.0625
Info: NONBONDED TABLE SIZE: 769 POINTS
TCL: Running for 5000 steps
ETITLE: TS BOND ANGLE DIHED IMPRP ELECT VDW BOUNDARY MISC KINETIC TOTAL TEMP POTENTIAL TOTAL3 TEMPAVG PRESSURE GPRESSURE VOLUME PRESSAVG GPRESSAVG
ENERGY: 0 4.5859 26.7429 11.1183 0.5076 -21758.1391 2323.8151 0.0000 0.0000 3691.5727 -15699.7967 298.6150 -19391.3693 -15692.6984 298.6150 15.9683 15.9931 508235.8327 15.9683 15.9931
ENERGY: 1000 6.1165 29.9973 15.8281 1.4311 -21509.7772 2283.0992 0.0000 0.0000 3609.8089 -15563.4960 292.0010 -19173.3049 -15555.6933 295.8559 11.3396 11.1006 505791.7087 2.2998 2.3018
ENERGY: 2000 4.6872 27.3770 10.1238 0.2689 -21598.8389 2308.3649 0.0000 0.0000 3661.3261 -15586.6909 296.1683 -19248.0170 -15579.8670 296.4556 -0.3630 -0.2970 518372.8536 0.7350 0.7670
ENERGY: 3000 9.2429 27.7583 8.8585 0.2385 -21679.0392 2407.0180 0.0000 0.0000 3719.2844 -15506.6387 300.8566 -19225.9230 -15500.6171 297.5115 99.9811 99.7283 496313.2095 0.1421 0.1468
ENERGY: 4000 6.5247 27.3233 8.7362 0.0432 -21519.0941 2339.7137 0.0000 0.0000 3601.7315 -15535.0215 291.3477 -19136.7530 -15524.6054 297.4615 59.1009 59.0547 511227.2340 0.0365 0.0200
ENERGY: 5000 4.1865 22.7588 9.2255 0.2024 -21602.4767 2306.6632 0.0000 0.0000 3721.3980 -15538.0422 301.0276 -19259.4402 -15531.2871 297.5462 20.2188 19.7525 509199.8308 1.0870 1.1105
TCL: Running FEP window   9: Lambda1 0.5    Lambda2 0.4375 [dLambda -0.0625]
TCL: Setting parameter firsttimestep to 0
TCL: Setting parameter alchLambda to 0.5
Info: NONBONDED TABLE R-SQUARED SPACING: 0.0625
Info: NONBONDED TABLE SIZE: 769 POINTS
TCL: Setting parameter alchLambda2 to 0.4375
Info: NONBONDED TABLE R-SQUARED SPACING: 0.0625
Info: NONBONDED TABLE SIZE: 769 POINTS
TCL: Running for 5000 steps
ETITLE: TS BOND ANGLE DIHED IMPRP ELECT VDW BOUNDARY MISC KINETIC TOTAL TEMP POTENTIAL TOTAL3 TEMPAVG PRESSURE GPRESSURE VOLUME PRESSAVG GPRESSAVG
ENERGY: 0 4.1865 22.7588 9.2255 0.2024 -21596.3535 2306.8336 0.0000 0.0000 3721.2922 -15531.8544 301.0190 -19253.1466 -15525.3515 301.0190 18.8243 18.8771 509199.8308 18.8243 18.8771
ENERGY: 1000 4.1545 28.0654 11.2506 0.2282 -21638.8049 2345.3627 0.0000 0.0000 3697.1838 -15552.5597 299.0689 -19249.7435 -15546.1348 295.7556 51.9014 51.2195 515174.1878 2.1346 2.1380
ENERGY: 2000 7.2031 21.3396 11.5561 1.1448 -21497.7471 2264.1416 0.0000 0.0000 3687.8029 -15504.5590 298.3100 -19192.3619 -15496.7531 297.2243 -22.9364 -23.1313 532990.3127 3.2636 3.2937
ENERGY: 3000 6.4780 26.4213 11.0549 0.2719 -21379.6765 2273.5302 0.0000 0.0000 3663.8566 -15398.0636 296.3730 -19061.9202 -15393.4014 300.0266 19.1790 19.4824 557731.1401 1.7687 1.7442
ENERGY: 4000 6.5997 24.0626 10.0099 0.3567 -21403.9178 2163.0442 0.0000 0.0000 3742.1922 -15457.6524 302.7097 -19199.8446 -15451.0779 298.9273 -38.5536 -39.3732 564409.4050 1.9072 1.8872
ENERGY: 5000 5.6162 26.4803 9.3149 1.3573 -21536.4663 2263.5277 0.0000 0.0000 3683.5658 -15546.6041 297.9673 -19230.1700 -15539.9040 296.7486 4.0286 4.0285 569999.9778 0.5362 0.5767
TCL: Running FEP window  10: Lambda1 0.4375 Lambda2 0.375  [dLambda -0.0625]
TCL: Setting parameter firsttimestep to 0
TCL: Setting parameter alchLambda to 0.4375
Info: NONBONDED TABLE R-SQUARED SPACING: 0.0625
Info: NONBONDED TABLE SIZE: 769 POINTS
TCL: Setting parameter alchLambda2 to 0.375
Info: NONBONDED TABLE R-SQUARED SPACING: 0.0625
Info: NONBONDED TABLE SIZE: 769 POINTS
TCL: Running for 5000 steps
ETITLE: TS BOND ANGLE DIHED IMPRP ELECT VDW BOUNDARY MISC KINETIC TOTAL TEMP POTENTIAL TOTAL3 TEMPAVG PRESSURE GPRESSURE VOLUME PRESSAVG GPRESSAVG
ENERGY: 0 5.6162 26.4803 9.3149 1.3573 -21536.4663 2263.9719 0.0000 0.0000 3683.4557 -15546.2701 297.9584 -19229.7258 -15539.9001 297.9584 3.1867 3.3221 569999.9778 3.1867 3.3221
ENERGY: 1000 3.4851 23.6850 9.6975 0.3032 -21520.6000 2200.6499 0.0000 0.0000 3653.0026 -15629.7766 295.4950 -19282.7793 -15621.7783 295.1081 -42.9773 -42.0223 552050.7723 1.8221 1.8087
ENERGY: 2000 3.2767 24.9208 11.0490 1.5900 -21407.6910 2166.0904 0.0000 0.0000 3674.2718 -15526.4922 297.2155 -19200.7640 -15521.4585 295.9547 -35.4819 -35.3642 529274.2756 1.9166 1.9448
ENERGY: 3000 7.6820 27.2980 11.6223 1.7224 -21612.2527 2333.3862 0.0000 0.0000 3694.9910 -15535.5507 298.8915 -19230.5417 -15528.8831 297.8168 37.8502 36.7396 523618.5112 -1.1650 -1.1676
ENERGY: 4000 2.7377 24.7098 11.4441 1.9616 -21450.4772 2164.6344 0.0000 0.0000 3678.3181 -15566.6716 297.5428 -19244.9897 -15558.2330 297.5993 -66.0927 -65.6530 521651.3411 1.9822 1.9639
ENERGY: 5000 3.9817 27.7395 10.3170 0.1839 -21414.0161 2183.9751 0.0000 0.0000 3660.8569 -15526.9622 296.1304 -19187.8190 -15520.4509 297.5098 -25.0755 -25.9928 530887.9835 2.0016 2.0123
TCL: Running FEP window  11: Lambda1 0.375  Lambda2 0.3125 [dLambda -0.0625]
TCL: Setting parameter firsttimestep to 0
TCL: Setting parameter alchLambda to 0.375
Info: NONBONDED TABLE R-SQUARED SPACING: 0.0625
Info: NONBONDED TABLE SIZE: 769 POINTS
TCL: Setting parameter alchLambda2 to 0.3125
Info: NONBONDED TABLE R-SQUARED SPACING: 0.0625
Info: NONBONDED TABLE SIZE: 769 POINTS
TCL: Running for 5000 steps
ETITLE: TS BOND ANGLE DIHED IMPRP ELECT VDW BOUNDARY MISC KINETIC TOTAL TEMP POTENTIAL TOTAL3 TEMPAVG PRESSURE GPRESSURE VOLUME PRESSAVG GPRESSAVG
ENERGY: 0 3.9817 27.7395 10.3170 0.1839 -21414.0161 2184.7718 0.0000 0.0000 3660.7381 -15526.2842 296.1208 -19187.0223 -15518.9794 296.1208 -26.0235 -26.0828 530887.9835 -26.0235 -26.0828
ENERGY: 1000 5.6378 23.7790 9.5467 0.0798 -21532.9156 2298.6047 0.0000 0.0000 3604.4342 -15590.8334 291.5663 -19195.2676 -15584.2078 295.2570 8.1857 8.3223 532604.1946 0.2164 0.2124
ENERGY: 2000 3.3524 29.8358 10.4203 0.7126 -21449.7190 2197.7742 0.0000 0.0000 3624.7537 -15582.8699 293.2099 -19207.6237 -15576.0545 297.0884 -30.9793 -30.9771 518134.0391 1.3119 1.3507
ENERGY: 3000 3.0432 27.4798 11.3670 0.8259 -21653.5879 2308.5715 0.0000 0.0000 3663.0467 -15639.2538 296.3075 -19302.3005 -15632.0318 295.1960 25.9352 26.0268 505399.3571 0.4209 0.4027
ENERGY: 4000 5.2189 23.8954 9.9800 0.4064 -21594.8978 2289.4533 0.0000 0.0000 3613.2364 -15652.7074 292.2783 -19265.9438 -15647.0084 296.0946 0.4840 1.8485 510784.4831 -0.3192 -0.3113
ENERGY: 5000 7.2221 24.3592 9.0015 0.3254 -21405.5370 2211.0420 0.0000 0.0000 3581.0075 -15572.5792 289.6713 -19153.5867 -15565.5579 295.1914 -18.5269 -17.6704 498810.9943 1.7022 1.6707
TCL: Running FEP window  12: Lambda1 0.3125 Lambda2 0.25   [dLambda -0.0625]
TCL: Setting parameter firsttimestep to 0
TCL: Setting parameter alchLambda to 0.3125
Info: NONBONDED TABLE R-SQUARED SPACING: 0.0625
Info: NONBONDED TABLE SIZE: 769 POINTS
TCL: Setting parameter alchLambda2 to 0.25
Info: NONBONDED TABLE R-SQUARED SPACING: 0.0625
Info: NONBONDED TABLE SIZE: 769 POINTS
TCL: Running for 5000 steps
ETITLE: TS BOND ANGLE DIHED IMPRP ELECT VDW BOUNDARY MISC KINETIC TOTAL TEMP POTENTIAL TOTAL3 TEMPAVG PRESSURE GPRESSURE VOLUME PRESSAVG GPRESSAVG
ENERGY: 0 7.2221 24.3592 9.0015 0.3254 -21405.5370 2211.7135 0.0000 0.0000 3580.8928 -15572.0224 289.6620 -19152.9153 -15564.8563 289.6620 -17.5350 -17.5818 498810.9943 -17.5350 -17.5818
ENERGY: 1000 5.7321 24.2258 10.0688 0.1665 -21574.9631 2254.0620 0.0000 0.0000 3695.1029 -15585.6050 298.9006 -19280.7079 -15579.9333 296.7457 -11.6589 -11.2977 479617.2953 2.5435 2.5104
ENERGY: 2000 3.0481 24.2626 11.0757 0.2848 -21536.5557 2237.4618 0.0000 0.0000 3634.4294 -15625.9933 293.9926 -19260.4227 -15617.9302 295.0360 -24.4078 -25.1624 471737.3995 1.7674 1.7890
ENERGY: 3000 3.3166 24.7494 9.5527 0.6379 -21550.7252 2296.7533 0.0000 0.0000 3583.0878 -15632.6277 289.8395 -19215.7154 -15624.6141 293.9125 17.8306 16.6044 472372.6287 -1.0203 -0.9977
ENERGY: 4000 4.9854 27.1831 10.2929 1.2281 -21642.6448 2348.2491 0.0000 0.0000 3595.7744 -15654.9319 290.8658 -19250.7062 -15646.1238 290.4690 44.3678 44.2555 484293.9651 -0.9422 -0.9231
ENERGY: 5000 3.7853 28.5180 9.7955 0.3237 -21672.7505 2332.6295 0.0000 0.0000 3696.9975 -15600.7009 299.0538 -19297.6984 -15593.9838 295.1026 40.1706 40.2313 478090.6489 -0.0875 -0.0749
TCL: Running FEP window  13: Lambda1 0.25   Lambda2 0.1875 [dLambda -0.0625]
TCL: Setting parameter firsttimestep to 0
TCL: Setting parameter alchLambda to 0.25
Info: NONBONDED TABLE R-SQUARED SPACING: 0.0625
Info: NONBONDED TABLE SIZE: 769 POINTS
TCL: Setting parameter alchLambda2 to 0.1875
Info: NONBONDED TABLE R-SQUARED SPACING: 0.0625
Info: NONBONDED TABLE SIZE: 769 POINTS
TCL: Running for 5000 steps
ETITLE: TS BOND ANGLE DIHED IMPRP ELECT VDW BOUNDARY MISC KINETIC TOTAL TEMP POTENTIAL TOTAL3 TEMPAVG PRESSURE GPRESSURE VOLUME PRESSAVG GPRESSAVG
ENERGY: 0 3.7853 28.5180 9.7955 0.3237 -21672.7505 2333.3263 0.0000 0.0000 3696.8902 -15600.1114 299.0451 -19297.0016 -15592.8392 299.0451 40.2622 40.2636 478090.6489 40.2622 40.2636
ENERGY: 1000 3.1979 27.5262 11.1039 0.3794 -21562.5173 2294.3972 0.0000 0.0000 3678.3195 -15547.5931 297.5429 -19225.9127 -15543.3288 296.1264 20.1428 19.8782 492712.6579 2.2030 2.1805
ENERGY: 2000 4.1888 28.2272 9.8263 3.0639 -21520.7908 2302.2065 0.0000 0.0000 3784.8417 -15388.4364 306.1596 -19173.2781 -15379.4818 299.7900 36.7001 37.7229 500960.4101 -0.0038 -0.0206
ENERGY: 3000 4.5816 30.1229 11.8144 0.5175 -21546.5550 2280.3032 0.0000 0.0000 3677.8255 -15541.3899 297.5030 -19219.2154 -15532.7904 298.1811 21.1843 19.8875 513601.1771 1.3708 1.3764
ENERGY: 4000 3.3775 25.4109 11.2177 0.7302 -21388.7980 2166.9363 0.0000 0.0000 3760.3926 -15420.7329 304.1819 -19181.1255 -15414.0243 300.0180 -66.7783 -65.0565 521405.9184 0.5859 0.6425
ENERGY: 5000 4.7009 24.1525 9.5965 0.9976 -21516.0186 2267.8652 0.0000 0.0000 3689.8147 -15518.8912 298.4728 -19208.7059 -15511.6719 298.6247 7.9526 8.1797 520106.1527 1.4457 1.4697
TCL: Running FEP window  14: Lambda1 0.1875 Lambda2 0.125  [dLambda -0.0625]
TCL: Setting parameter firsttimestep to 0
TCL: Setting parameter alchLambda to 0.1875
Info: NONBONDED TABLE R-SQUARED SPACING: 0.0625
Info: NONBONDED TABLE SIZE: 769 POINTS
TCL: Setting parameter alchLambda2 to 0.125
Info: NONBONDED TABLE R-SQUARED SPACING: 0.0625
Info: NONBONDED TABLE SIZE: 769 POINTS
TCL: Running for 5000 steps
ETITLE: TS BOND ANGLE DIHED IMPRP ELECT VDW BOUNDARY MISC KINETIC TOTAL TEMP POTENTIAL TOTAL3 TEMPAVG PRESSURE GPRESSURE VOLUME PRESSAVG GPRESSAVG
ENERGY: 0 4.7009 24.1525 9.5965 0.9976 -21516.0186 2268.6053 0.0000 0.0000 3689.7061 -15518.2597 298.4640 -19207.9658 -15511.0489 298.4640 8.1867 8.2521 520106.1527 8.1867 8.2521
ENERGY: 1000 4.9952 27.6224 9.4612 1.0632 -21365.9514 2215.5585 0.0000 0.0000 3644.9887 -15462.2623 294.8468 -19107.2509 -15455.6896 297.7061 1.1974 2.2955 528806.4652 1.2641 1.2422
ENERGY: 2000 5.5562 26.5001 8.7631 0.3642 -21473.7071 2348.0485 0.0000 0.0000 3641.5923 -15442.8826 294.5720 -19084.4749 -15437.9658 299.0966 61.8023 62.3632 524316.9630 -0.7637 -0.7662
ENERGY: 3000 5.7967 29.7457 11.2288 0.3182 -21260.5818 2157.9021 0.0000 0.0000 3644.5001 -15411.0902 294.8072 -19055.5903 -15402.5847 299.9960 -38.1881 -37.1184 526990.7808 0.2562 0.2515
ENERGY: 4000 5.5656 28.9256 10.6368 0.1754 -21228.2498 2100.1331 0.0000 0.0000 3665.8786 -15416.9346 296.5366 -19082.8132 -15409.8985 300.8504 -59.4223 -60.2642 522450.4101 -1.5273 -1.5440
ENERGY: 5000 7.1949 27.4050 10.3960 0.1248 -21497.5510 2324.9480 0.0000 0.0000 3728.2698 -15399.2125 301.5835 -19127.4823 -15392.6836 298.7124 19.4641 20.1349 531542.9725 0.3187 0.2872
TCL: Running FEP window  15: Lambda1 0.125  Lambda2 0.0625 [dLambda -0.0625]
TCL: Setting parameter firsttimestep to 0
TCL: Setting parameter alchLambda to 0.125
Info: NONBONDED TABLE R-SQUARED SPACING: 0.0625
Info: NONBONDED TABLE SIZE: 769 POINTS
TCL: Setting parameter alchLambda2 to 0.0625
Info: NONBONDED TABLE R-SQUARED SPACING: 0.0625
Info: NONBONDED TABLE SIZE: 769 POINTS
TCL: Running for 5000 steps
ETITLE: TS BOND ANGLE DIHED IMPRP ELECT VDW BOUNDARY MISC KINETIC TOTAL TEMP POTENTIAL TOTAL3 TEMPAVG PRESSURE GPRESSURE VOLUME PRESSAVG GPRESSAVG
ENERGY: 0 7.1949 27.4050 10.3960 0.1248 -21497.5510 2325.3517 0.0000 0.0000 3728.1582 -15398.9204 301.5744 -19127.0786 -15392.8057 301.5744 20.1272 20.2043 531542.9725 20.1272 20.2043
ENERGY: 1000 6.5524 29.3338 12.4726 0.8445 -21511.6340 2305.5624 0.0000 0.0000 3598.8831 -15557.9852 291.1172 -19156.8683 -15551.2801 297.2891 35.3102 35.1470 509465.3225 -0.3003 -0.3577
ENERGY: 2000 5.3961 24.5685 10.0244 0.4029 -21362.9705 2153.8228 0.0000 0.0000 3663.0631 -15505.6927 296.3088 -19168.7558 -15499.6766 296.7361 -49.5862 -50.8056 494259.2088 0.7313 0.7377
ENERGY: 3000 5.8375 26.8097 10.6741 0.0784 -21599.9432 2323.8183 0.0000 0.0000 3660.9733 -15571.7519 296.1398 -19232.7253 -15566.8112 295.5262 33.7597 34.2058 501759.7057 -3.3965 -3.3469
ENERGY: 4000 3.2571 27.0201 9.6711 0.0889 -21494.3632 2265.2801 0.0000 0.0000 3691.4272 -15497.6186 298.6032 -19189.0458 -15492.0256 295.6671 3.5413 1.9537 513993.7100 1.5349 1.5378
ENERGY: 5000 7.3626 25.6712 15.7901 0.3937 -21480.2919 2293.1054 0.0000 0.0000 3624.6767 -15513.2922 293.2037 -19137.9689 -15508.5047 297.4413 30.7592 29.1653 503594.9756 4.2938 4.2885
TCL: Running FEP window  16: Lambda1 0.0625 Lambda2 0.0    [dLambda -0.0625]
TCL: Setting parameter firsttimestep to 0
TCL: Setting parameter alchLambda to 0.0625
Info: NONBONDED TABLE R-SQUARED SPACING: 0.0625
Info: NONBONDED TABLE SIZE: 769 POINTS
TCL: Setting parameter alchLambda2 to 0.0
Info: NONBONDED TABLE R-SQUARED SPACING: 0.0625
Info: NONBONDED TABLE SIZE: 769 POINTS
TCL: Running for 5000 steps
ETITLE: TS BOND ANGLE DIHED IMPRP ELECT VDW BOUNDARY MISC KINETIC TOTAL TEMP POTENTIAL TOTAL3 TEMPAVG PRESSURE GPRESSURE VOLUME PRESSAVG GPRESSAVG
ENERGY: 0 7.3626 25.6712 15.7901 0.3937 -21480.2919 2293.2869 0.0000 0.0000 3624.5617 -15513.2258 293.1944 -19137.7875 -15506.6991 293.1944 28.8151 28.9426 503594.9756 28.8151 28.9426
ENERGY: 1000 4.1314 27.7562 10.0710 0.7218 -21534.5490 2252.8438 0.0000 0.0000 3703.3041 -15535.7206 299.5640 -19239.0248 -15528.9171 298.7381 -6.7471 -7.8648 497738.2519 -0.7023 -0.6768
ENERGY: 2000 7.9171 28.3191 10.8030 0.3591 -21567.8834 2297.4322 0.0000 0.0000 3605.6786 -15617.3743 291.6669 -19223.0528 -15610.5750 293.3383 10.8833 11.2065 481295.2583 3.3749 3.3415
ENERGY: 3000 4.7045 27.5372 10.1641 0.6579 -21562.1608 2298.9228 0.0000 0.0000 3642.3907 -15577.7836 294.6366 -19220.1743 -15568.9611 294.1181 9.6043 8.9327 471305.1493 0.1501 0.1784
ENERGY: 4000 8.0528 24.1661 9.8444 0.8515 -21432.9342 2236.3273 0.0000 0.0000 3659.5867 -15494.1053 296.0276 -19153.6920 -15484.5216 297.5241 -2.5880 -2.1470 456164.5941 1.5871 1.6058
ENERGY: 5000 3.6194 28.2179 10.6727 0.2523 -21587.1157 2319.3276 0.0000 0.0000 3675.7122 -15549.3135 297.3320 -19225.0257 -15541.0617 296.4860 33.5501 33.1879 438026.8280 1.9064 1.8877
