Info: SIMULATION PARAMETERS:
Info: TIMESTEP               2
Info: NUMBER OF STEPS        0
Info: STEPS PER CYCLE        10
Info: PERIODIC CELL BASIS 1  30.369 0 0
Info: PERIODIC CELL BASIS 2  0 31.4379 0
Info: PERIODIC CELL BASIS 3  0 0 32.1375
Info: PERIODIC CELL CENTER   0 0 0
Info: WRAPPING WATERS AROUND PERIODIC BOUNDARIES ON OUTPUT.
Info: WRAPPING ALL CLUSTERS AROUND PERIODIC BOUNDARIES ON OUTPUT.
Info: FIRST LDB TIMESTEP     50
Info: LAST LDB TIMESTEP     -1
Info: HOM BACKGROUND SCALING 1
Info: PME BACKGROUND SCALING 1
Info: MIN ATOMS PER PATCH    40
Info: EMPTY PATCH LOAD       40 ATOMS
Info: VELOCITY FILE          mobley_6739648_equil.vel
Info: CENTER OF MASS MOVING INITIALLY? NO
Info: DIELECTRIC             1
Info: EXCLUDE                SCALED ONE-FOUR
Info: 1-4 ELECTROSTATICS SCALED BY 0.833333
Info: MODIFIED 1-4 VDW PARAMETERS WILL BE USED
Info: DCD FILENAME           mobley_6739648_prod.dcd
Info: DCD FREQUENCY          100000
Info: DCD FIRST STEP         100000
Info: DCD FILE WILL CONTAIN UNIT CELL DATA
Info: XST FILENAME           mobley_6739648_prod.xst
Info: XST FREQUENCY          100000
Info: NO VELOCITY DCD OUTPUT
Info: NO FORCE DCD OUTPUT
Info: OUTPUT FILENAME        mobley_6739648_prod
Info: BINARY OUTPUT FILES WILL BE USED
Info: RESTART FILENAME       mobley_6739648_prod.restart
Info: RESTART FREQUENCY      100000
Info: BINARY RESTART FILES WILL BE USED
Info: CUTOFF                 9
Info: PAIRLIST DISTANCE      11
Info: PAIRLIST SHRINK RATE   0.01
Info: PAIRLIST GROW RATE     0.01
Info: PAIRLIST TRIGGER       0.3
Info: PAIRLISTS PER CYCLE    2
Info: PAIRLISTS ENABLED
Info: MARGIN                 2
Info: HYDROGEN GROUP CUTOFF  2.5
Info: PATCH DIMENSION        15.5
Info: ENERGY OUTPUT STEPS    100000
Info: ENERGY EVALUATION STEPS    100000
Info: OUTPUT ENERGY PRECISION 4
Info: CROSSTERM ENERGY INCLUDED IN DIHEDRAL
Info: TIMING OUTPUT STEPS    1000000
Info: PRESSURE OUTPUT STEPS  100000
Info: ALCHEMICAL FEP ON
Info: FEP CURRENT LAMBDA VALUE     0
Info: FEP COMPARISON LAMBDA VALUE  0.05
Info: FEP INTRA-ALCHEMICAL NON-BONDED INTERACTIONS WILL BE RETAINED
Info: FEP INTRA-ALCHEMICAL BONDED INTERACTIONS WILL BE RETAINED
Info: FEP VDW SHIFTING COEFFICIENT 5
Info: FEP ELEC. ACTIVE FOR ANNIHILATED PARTICLES BETWEEN LAMBDA = 0 AND LAMBDA = 0.5
Info: FEP ELEC. ACTIVE FOR EXNIHILATED PARTICLES BETWEEN LAMBDA = 0.5 AND LAMBDA = 1
Info: FEP VDW ACTIVE FOR ANNIHILATED PARTICLES BETWEEN LAMBDA = 0 AND LAMBDA = 1
Info: FEP VDW ACTIVE FOR EXNIHILATED PARTICLES BETWEEN LAMBDA = 0 AND LAMBDA = 1
Info: FEP BOND ACTIVE FOR ANNIHILATED PARTICLES BETWEEN LAMBDA = 1 AND LAMBDA = 1
Info: FEP BOND ACTIVE FOR EXNIHILATED PARTICLES BETWEEN LAMBDA = 0 AND LAMBDA = 0
Info: LANGEVIN DYNAMICS ACTIVE
Info: LANGEVIN TEMPERATURE   300
Info: LANGEVIN USING BBK INTEGRATOR
Info: LANGEVIN DAMPING COEFFICIENT IS 1 INVERSE PS
Info: LANGEVIN DYNAMICS APPLIED TO HYDROGENS
Info: LANGEVIN PISTON PRESSURE CONTROL ACTIVE
Info:        TARGET PRESSURE IS 1.01325 BAR
Info:     OSCILLATION PERIOD IS 50 FS
Info:             DECAY TIME IS 25 FS
Info:     PISTON TEMPERATURE IS 300 K
Info:       PRESSURE CONTROL IS GROUP-BASED
Info:    INITIAL STRAIN RATE IS -0.000283615 -0.000283615 -0.000283615
Info:       CELL FLUCTUATION IS ISOTROPIC
Info: PARTICLE MESH EWALD (PME) ACTIVE
Info: PME TOLERANCE               1e-06
Info: PME EWALD COEFFICIENT       0.348832
Info: PME INTERPOLATION ORDER     4
Info: PME GRID DIMENSIONS         32 32 36
Info: PME MAXIMUM GRID SPACING    1
Info: PME CALCULATION WILL BE PERFORMED ON GPU
Info: FULL ELECTROSTATIC EVALUATION FREQUENCY      2
Info: USING VERLET I (r-RESPA) MTS SCHEME.
Info: C1 SPLITTING OF LONG RANGE ELECTROSTATICS
Info: PLACING ATOMS IN PATCHES BY HYDROGEN GROUPS
Info: RIGID BONDS TO HYDROGEN : ALL
Info:         ERROR TOLERANCE : 1e-08
Info:          MAX ITERATIONS : 100
Info: RIGID WATER USING SETTLE ALGORITHM
Info: RANDOM NUMBER SEED     1742251779
Info: USE HYDROGEN BONDS?    NO
Info: Using AMBER format force field!
Info: AMBER PARM FILE        mobley_6739648.prmtop
Info: COORDINATE PDB         mobley_6739648.pdb
Info: Exclusions will be read from PARM file!
Info: SCNB (VDW SCALING)     2
Info: USING ARITHMETIC MEAN TO COMBINE L-J SIGMA PARAMETERS
Info: BINARY COORDINATES     mobley_6739648_equil.coor
Info: SUMMARY OF PARAMETERS:
Info: 5 BONDS
Info: 5 ANGLES
Info:   5 HARMONIC
Info:   0 COSINE-BASED
Info: 10 DIHEDRAL
Info: 0 IMPROPER
Info: 0 CROSSTERM
Info: 0 VDW
Info: 15 VDW_PAIRS
Info: 0 NBTHOLE_PAIRS
Info: To read alchdata from file: mobley_6739648.pdb
Info: To read alchflag data from column: 5
Info: STRUCTURE SUMMARY:
Info: 2969 ATOMS
Info: 2969 BONDS
Info: 26 ANGLES
Info: 50 DIHEDRALS
Info: 0 IMPROPERS
Info: 0 CROSSTERMS
Info: 3022 EXCLUSIONS
Info: 2963 RIGID BONDS
Info: ALCH: 0 ATOMS TO DISAPPEAR IN FINAL STATE
Info: ALCH: 14 ATOMS TO APPEAR IN FINAL STATE
Info: 5944 DEGREES OF FREEDOM
Info: 991 HYDROGEN GROUPS
Info: 3 ATOMS IN LARGEST HYDROGEN GROUP
Info: 991 MIGRATION GROUPS
Info: 3 ATOMS IN LARGEST MIGRATION GROUP
Info: TOTAL MASS = 17833.9 amu
Info: TOTAL CHARGE = -0.000399977 e
Info: MASS DENSITY = 0.965183 g/cm^3
Info: ATOM DENSITY = 0.0967643 atoms/A^3
Info: ADDED 0 IMPLICIT EXCLUSIONS
Info: NONBONDED TABLE R-SQUARED SPACING: 0.0625
Info: NONBONDED TABLE SIZE: 705 POINTS
Info: REMOVING COM VELOCITY -0.0292198 0.213006 0.0627683
Info: Use 3D box decompostion in PME FFT.
Info: Updated CUDA force table with 4096 elements.
Info: Updated CUDA LJ table with 5 x 5 elements.
Info: Found 15 unique exclusion lists needing 32 bytes
TCL: Running for 1500000 steps
ETITLE: TS BOND ANGLE DIHED IMPRP ELECT VDW BOUNDARY MISC KINETIC TOTAL TEMP POTENTIAL TOTALAVG TEMPAVG PRESSURE GPRESSURE VOLUME PRESSAVG GPRESSAVG
ENERGY: 0 1.4368 5.1383 5.4888 0.0000 -10667.5541 1506.9812 0.0000 0.0000 1768.6046 -7379.9043 299.4624 -9148.5089 -7379.9043 299.4624 681.1098 760.0323 30682.8101 681.1098 760.0323
ENERGY: 300000 0.7235 6.1829 5.6730 0.0000 -10797.2830 1456.9701 0.0000 0.0000 1735.1350 -7592.5985 293.7953 -9327.7335 -7471.2921 296.7186 -173.7436 -99.9394 30460.3985 -161.6968 -95.2442
ENERGY: 600000 3.4888 8.0159 5.4131 0.0000 -10728.9637 1477.4717 0.0000 0.0000 1786.4393 -7448.1348 302.4822 -9234.5741 -7471.9820 299.0679 543.2165 565.1746 30284.2874 14.2470 76.4924
ENERGY: 900000 5.3130 6.7542 5.4478 0.0000 -10720.9088 1416.4835 0.0000 0.0000 1804.8608 -7482.0494 305.6014 -9286.9103 -7483.2151 299.5800 -289.5737 -260.8251 30249.5800 -118.6949 -56.4149
ENERGY: 1200000 1.9027 3.9666 5.3017 0.0000 -10779.0059 1468.3499 0.0000 0.0000 1758.2603 -7541.2247 297.7109 -9299.4850 -7487.2641 299.4389 63.1175 156.9796 30566.9224 -34.2249 26.1479
ENERGY: 1500000 6.3259 5.8467 5.1342 0.0000 -10759.0224 1416.9100 0.0000 0.0000 1776.1746 -7548.6310 300.7442 -9324.8055 -7493.9989 299.4241 -736.9354 -572.5540 30470.0612 -130.9287 -60.7676
TCL: Running FEP window   2: Lambda1 0.05   Lambda2 0.1    [dLambda 0.05  ]
TCL: Setting parameter firsttimestep to 0
TCL: Setting parameter alchLambda to 0.05
Info: NONBONDED TABLE R-SQUARED SPACING: 0.0625
Info: NONBONDED TABLE SIZE: 705 POINTS
TCL: Setting parameter alchLambda2 to 0.1
Info: NONBONDED TABLE R-SQUARED SPACING: 0.0625
Info: NONBONDED TABLE SIZE: 705 POINTS
TCL: Running for 1500000 steps
ETITLE: TS BOND ANGLE DIHED IMPRP ELECT VDW BOUNDARY MISC KINETIC TOTAL TEMP POTENTIAL TOTALAVG TEMPAVG PRESSURE GPRESSURE VOLUME PRESSAVG GPRESSAVG
ENERGY: 0 6.3259 5.8467 5.1342 0.0000 -10759.0218 1418.9174 0.0000 0.0000 1775.3259 -7547.4716 300.6005 -9322.7975 -7547.4716 300.6005 -650.1995 -571.1194 30470.0612 -650.1995 -571.1194
ENERGY: 300000 1.1593 5.5125 6.2993 0.0000 -10838.2933 1510.9974 0.0000 0.0000 1723.8591 -7590.4657 291.8861 -9314.3248 -7514.2250 296.6867 427.3945 478.3643 30243.5715 164.3999 205.9157
ENERGY: 600000 1.3328 3.6141 5.0821 0.0000 -10742.7523 1434.8931 0.0000 0.0000 1819.4949 -7478.3352 308.0792 -9297.8301 -7506.5188 298.3427 -189.3972 -100.7493 30535.0167 143.6377 192.1084
ENERGY: 900000 2.6840 3.3710 5.4575 0.0000 -10626.3424 1374.7787 0.0000 0.0000 1753.0970 -7486.9543 296.8367 -9240.0512 -7507.8787 299.0226 -989.9086 -863.3432 30875.3764 -143.8085 -87.2762
ENERGY: 1200000 1.4549 3.5446 5.0500 0.0000 -10772.0098 1452.7327 0.0000 0.0000 1788.9196 -7520.3079 302.9022 -9309.2275 -7509.1004 298.9618 -201.2955 -85.4355 30577.8894 -59.2206 -4.6293
ENERGY: 1500000 2.3799 7.0138 5.3066 0.0000 -10834.7198 1493.8277 0.0000 0.0000 1799.9265 -7526.2654 304.7659 -9326.1918 -7513.8166 300.3113 179.4997 203.6024 30475.9107 -24.9542 29.5982
TCL: Running FEP window   3: Lambda1 0.1    Lambda2 0.15000000000000002 [dLambda 0.05000000000000002]
TCL: Setting parameter firsttimestep to 0
TCL: Setting parameter alchLambda to 0.1
Info: NONBONDED TABLE R-SQUARED SPACING: 0.0625
Info: NONBONDED TABLE SIZE: 705 POINTS
TCL: Setting parameter alchLambda2 to 0.15000000000000002
Info: NONBONDED TABLE R-SQUARED SPACING: 0.0625
Info: NONBONDED TABLE SIZE: 705 POINTS
TCL: Running for 1500000 steps
ETITLE: TS BOND ANGLE DIHED IMPRP ELECT VDW BOUNDARY MISC KINETIC TOTAL TEMP POTENTIAL TOTALAVG TEMPAVG PRESSURE GPRESSURE VOLUME PRESSAVG GPRESSAVG
ENERGY: 0 2.3799 7.0139 5.3066 0.0000 -10834.7203 1495.8717 0.0000 0.0000 1799.0442 -7525.1041 304.6165 -9324.1483 -7525.1041 304.6165 141.4571 208.7391 30475.9107 141.4571 208.7391
ENERGY: 300000 1.1894 6.1158 5.4909 0.0000 -10747.6209 1469.1182 0.0000 0.0000 1765.9524 -7499.7542 299.0133 -9265.7066 -7487.1934 301.3168 400.9367 514.8283 29765.4000 -109.5988 -33.7198
ENERGY: 600000 2.2107 7.6491 6.6425 0.0000 -10771.5445 1491.3810 0.0000 0.0000 1788.0236 -7475.6377 302.7505 -9263.6613 -7470.2147 301.7968 632.2024 700.0716 29956.5651 46.7442 114.6057
ENERGY: 900000 1.8277 5.0168 5.1399 0.0000 -10845.6923 1557.5100 0.0000 0.0000 1752.4160 -7523.7820 296.7213 -9276.1979 -7472.5582 302.0784 918.6729 962.2519 30081.5311 61.0169 120.5527
ENERGY: 1200000 0.8978 3.9922 5.7648 0.0000 -10801.1955 1511.6795 0.0000 0.0000 1728.0932 -7550.7681 292.6030 -9278.8613 -7483.6586 300.3870 468.6980 506.6478 30316.3579 81.6921 135.6603
ENERGY: 1500000 1.5600 11.5370 5.1326 0.0000 -10695.3215 1411.3690 0.0000 0.0000 1741.5338 -7524.1891 294.8788 -9265.7229 -7487.6619 300.5317 -520.1771 -384.1657 30454.0926 11.0300 70.8484
TCL: Running FEP window   4: Lambda1 0.15000000000000002 Lambda2 0.2    [dLambda 0.04999999999999999]
TCL: Setting parameter firsttimestep to 0
TCL: Setting parameter alchLambda to 0.15000000000000002
Info: NONBONDED TABLE R-SQUARED SPACING: 0.0625
Info: NONBONDED TABLE SIZE: 705 POINTS
TCL: Setting parameter alchLambda2 to 0.2
Info: NONBONDED TABLE R-SQUARED SPACING: 0.0625
Info: NONBONDED TABLE SIZE: 705 POINTS
TCL: Running for 1500000 steps
ETITLE: TS BOND ANGLE DIHED IMPRP ELECT VDW BOUNDARY MISC KINETIC TOTAL TEMP POTENTIAL TOTALAVG TEMPAVG PRESSURE GPRESSURE VOLUME PRESSAVG GPRESSAVG
ENERGY: 0 1.5600 11.5370 5.1326 0.0000 -10695.3211 1411.5046 0.0000 0.0000 1740.6643 -7524.9225 294.7315 -9265.5869 -7524.9225 294.7315 -462.7937 -382.6170 30454.0926 -462.7937 -382.6170
ENERGY: 300000 2.0823 4.7502 5.9669 0.0000 -10570.9204 1360.0343 0.0000 0.0000 1770.8402 -7427.2465 299.8410 -9198.0867 -7473.1514 300.3623 -726.8687 -691.1350 30918.5103 -278.7954 -225.1336
ENERGY: 600000 4.9311 6.6651 5.8267 0.0000 -10783.2590 1476.5387 0.0000 0.0000 1796.0520 -7493.2454 304.1099 -9289.2974 -7479.5585 299.9796 199.9639 238.9581 30243.8683 -278.2408 -225.3575
ENERGY: 900000 0.3878 10.7201 6.0721 0.0000 -10767.3233 1527.1151 0.0000 0.0000 1725.6125 -7497.4157 292.1829 -9223.0281 -7482.0424 299.2319 588.5527 706.7373 30737.7095 -246.1683 -186.6596
ENERGY: 1200000 2.1358 7.6014 5.0605 0.0000 -10745.0797 1428.2826 0.0000 0.0000 1789.1077 -7512.8917 302.9340 -9301.9994 -7485.6404 299.0734 -405.1085 -383.1808 30709.5224 -239.4533 -184.9113
ENERGY: 1500000 1.9319 4.9645 5.5235 0.0000 -10630.4187 1392.3721 0.0000 0.0000 1753.8285 -7471.7982 296.9605 -9225.6267 -7485.8519 299.5229 -526.6136 -515.1348 30985.9185 -198.9377 -139.3824
TCL: Running FEP window   5: Lambda1 0.2    Lambda2 0.25   [dLambda 0.04999999999999999]
TCL: Setting parameter firsttimestep to 0
TCL: Setting parameter alchLambda to 0.2
Info: NONBONDED TABLE R-SQUARED SPACING: 0.0625
Info: NONBONDED TABLE SIZE: 705 POINTS
TCL: Setting parameter alchLambda2 to 0.25
Info: NONBONDED TABLE R-SQUARED SPACING: 0.0625
Info: NONBONDED TABLE SIZE: 705 POINTS
TCL: Running for 1500000 steps
ETITLE: TS BOND ANGLE DIHED IMPRP ELECT VDW BOUNDARY MISC KINETIC TOTAL TEMP POTENTIAL TOTALAVG TEMPAVG PRESSURE GPRESSURE VOLUME PRESSAVG GPRESSAVG
ENERGY: 0 1.9319 4.9645 5.5235 0.0000 -10630.4192 1392.2365 0.0000 0.0000 1752.9354 -7472.8273 296.8093 -9225.7627 -7472.8273 296.8093 -593.5143 -514.2621 30985.9185 -593.5143 -514.2621
ENERGY: 300000 2.7155 4.4045 5.3860 0.0000 -10652.4708 1398.9968 0.0000 0.0000 1806.8703 -7434.0978 305.9416 -9240.9681 -7509.8875 297.3087 -112.1549 -82.9789 30255.1783 -127.5378 -60.8746
ENERGY: 600000 0.9436 9.2889 6.0026 0.0000 -10697.5254 1440.5607 0.0000 0.0000 1796.0650 -7444.6647 304.1120 -9240.7297 -7492.5966 300.0727 -220.2920 -151.8446 30859.2834 -300.7893 -220.9076
ENERGY: 900000 2.0491 9.2115 5.3789 0.0000 -10856.5646 1546.2417 0.0000 0.0000 1731.2397 -7562.4438 293.1357 -9293.6835 -7508.8856 299.6026 761.9434 835.2390 30162.2781 39.5006 107.6651
ENERGY: 1200000 1.2499 7.6897 5.4101 0.0000 -10760.2666 1428.1855 0.0000 0.0000 1756.0638 -7561.6675 297.3390 -9317.7313 -7518.5343 298.3680 -268.9365 -165.4761 30393.4960 -46.3953 27.5485
ENERGY: 1500000 1.9389 6.3104 5.2899 0.0000 -10562.1423 1362.5435 0.0000 0.0000 1717.3317 -7468.7278 290.7808 -9186.0595 -7525.1952 298.0015 -492.1004 -447.8910 30781.1572 -74.9884 -1.8755
TCL: Running FEP window   6: Lambda1 0.25   Lambda2 0.3    [dLambda 0.04999999999999999]
TCL: Setting parameter firsttimestep to 0
TCL: Setting parameter alchLambda to 0.25
Info: NONBONDED TABLE R-SQUARED SPACING: 0.0625
Info: NONBONDED TABLE SIZE: 705 POINTS
TCL: Setting parameter alchLambda2 to 0.3
Info: NONBONDED TABLE R-SQUARED SPACING: 0.0625
Info: NONBONDED TABLE SIZE: 705 POINTS
TCL: Running for 1500000 steps
ETITLE: TS BOND ANGLE DIHED IMPRP ELECT VDW BOUNDARY MISC KINETIC TOTAL TEMP POTENTIAL TOTALAVG TEMPAVG PRESSURE GPRESSURE VOLUME PRESSAVG GPRESSAVG
ENERGY: 0 1.9389 6.3104 5.2899 0.0000 -10562.1443 1362.4254 0.0000 0.0000 1716.4467 -7469.7330 290.6310 -9186.1797 -7469.7330 290.6310 -543.8975 -445.8677 30781.1572 -543.8975 -445.8677
ENERGY: 300000 2.9475 8.1619 6.4133 0.0000 -10797.7643 1447.4134 0.0000 0.0000 1788.7238 -7544.1044 302.8690 -9332.8282 -7482.6749 300.7549 -220.5132 -224.0196 30544.3482 -279.7800 -210.4098
ENERGY: 600000 2.1798 3.5008 5.5461 0.0000 -10784.1350 1504.5707 0.0000 0.0000 1765.2409 -7503.0967 298.8929 -9268.3376 -7487.2721 300.1847 433.7840 606.1637 30248.6572 -56.0944 9.9773
ENERGY: 900000 1.3227 4.9249 5.2078 0.0000 -10627.7508 1354.4153 0.0000 0.0000 1735.8963 -7525.9838 293.9242 -9261.8800 -7498.9978 300.2560 -743.4001 -700.2855 30707.8178 -42.1272 26.1839
ENERGY: 1200000 1.1889 3.0994 5.9780 0.0000 -10754.4702 1403.5216 0.0000 0.0000 1765.3793 -7575.3030 298.9163 -9340.6823 -7495.4268 300.7342 -570.0561 -450.7553 30510.7366 -80.1543 -13.8817
ENERGY: 1500000 1.9722 8.6538 5.5560 0.0000 -10826.5906 1517.8785 0.0000 0.0000 1734.9674 -7557.5627 293.7669 -9292.5301 -7491.5599 301.0104 260.0233 371.6442 30521.8830 -48.1117 19.3964
TCL: Running FEP window   7: Lambda1 0.3    Lambda2 0.35   [dLambda 0.04999999999999999]
TCL: Setting parameter firsttimestep to 0
TCL: Setting parameter alchLambda to 0.3
Info: NONBONDED TABLE R-SQUARED SPACING: 0.0625
Info: NONBONDED TABLE SIZE: 705 POINTS
TCL: Setting parameter alchLambda2 to 0.35
Info: NONBONDED TABLE R-SQUARED SPACING: 0.0625
Info: NONBONDED TABLE SIZE: 705 POINTS
TCL: Running for 1500000 steps
ETITLE: TS BOND ANGLE DIHED IMPRP ELECT VDW BOUNDARY MISC KINETIC TOTAL TEMP POTENTIAL TOTALAVG TEMPAVG PRESSURE GPRESSURE VOLUME PRESSAVG GPRESSAVG
ENERGY: 0 1.9722 8.6538 5.5560 0.0000 -10826.5900 1517.5375 0.0000 0.0000 1734.0796 -7558.7909 293.6166 -9292.8705 -7558.7909 293.6166 284.1725 373.8918 30521.8830 284.1725 373.8918
ENERGY: 300000 0.8650 7.5515 6.1567 0.0000 -10682.0901 1458.2664 0.0000 0.0000 1798.2130 -7411.0375 304.4758 -9209.2505 -7464.0895 298.0852 223.6344 277.2172 30519.9235 -116.0485 -35.8347
ENERGY: 600000 2.4579 2.8221 5.2591 0.0000 -10675.7981 1419.3144 0.0000 0.0000 1773.5509 -7472.3937 300.2999 -9245.9446 -7480.9421 300.1610 -163.8039 -159.2210 30683.0045 53.0261 128.0822
ENERGY: 900000 0.7503 9.6473 5.5147 0.0000 -10807.7054 1428.5566 0.0000 0.0000 1806.2379 -7556.9985 305.8345 -9363.2364 -7493.4208 300.1459 -299.0797 -229.4206 30312.2810 -5.8149 63.4664
ENERGY: 1200000 0.7407 6.1720 5.5600 0.0000 -10734.0621 1487.3562 0.0000 0.0000 1766.9842 -7467.2489 299.1881 -9234.2331 -7510.9983 298.4807 434.6162 519.9364 30211.9881 84.9022 152.2596
ENERGY: 1500000 2.4355 3.7457 5.5533 0.0000 -10717.3444 1411.7069 0.0000 0.0000 1847.9501 -7445.9528 312.8973 -9293.9029 -7505.4047 299.7617 -597.5213 -472.0227 30968.9699 45.4300 115.3452
TCL: Running FEP window   8: Lambda1 0.35   Lambda2 0.39999999999999997 [dLambda 0.04999999999999999]
TCL: Setting parameter firsttimestep to 0
TCL: Setting parameter alchLambda to 0.35
Info: NONBONDED TABLE R-SQUARED SPACING: 0.0625
Info: NONBONDED TABLE SIZE: 705 POINTS
TCL: Setting parameter alchLambda2 to 0.39999999999999997
Info: NONBONDED TABLE R-SQUARED SPACING: 0.0625
Info: NONBONDED TABLE SIZE: 705 POINTS
TCL: Running for 1500000 steps
ETITLE: TS BOND ANGLE DIHED IMPRP ELECT VDW BOUNDARY MISC KINETIC TOTAL TEMP POTENTIAL TOTALAVG TEMPAVG PRESSURE GPRESSURE VOLUME PRESSAVG GPRESSAVG
ENERGY: 0 2.4355 3.7457 5.5533 0.0000 -10717.3455 1412.4601 0.0000 0.0000 1847.0909 -7446.0599 312.7518 -9293.1508 -7446.0599 312.7518 -543.9784 -461.6078 30968.9699 -543.9784 -461.6078
ENERGY: 300000 1.7063 6.4186 5.4874 0.0000 -10753.1406 1467.0517 0.0000 0.0000 1754.9887 -7517.4879 297.1570 -9272.4766 -7494.8762 301.8163 98.6389 152.5287 30650.6044 -247.6698 -173.6781
ENERGY: 600000 1.1269 5.7373 5.3152 0.0000 -10804.6063 1469.0684 0.0000 0.0000 1726.6755 -7596.6830 292.3629 -9323.3584 -7513.9197 300.0430 165.9619 148.8488 30287.7093 -258.1450 -191.4990
ENERGY: 900000 2.1940 6.5763 5.3117 0.0000 -10759.1564 1468.4781 0.0000 0.0000 1784.3796 -7492.2166 302.1335 -9276.5962 -7510.7280 300.0733 -3.0590 48.9211 30579.3663 -147.4045 -81.6184
ENERGY: 1200000 2.8361 3.1601 5.4758 0.0000 -10754.8962 1424.6074 0.0000 0.0000 1745.3700 -7573.4468 295.5283 -9318.8168 -7513.7708 299.7430 -378.0278 -333.7472 30595.9803 -158.2358 -96.3266
ENERGY: 1500000 0.3286 7.2401 5.3743 0.0000 -10736.5270 1419.6854 0.0000 0.0000 1698.4948 -7605.4038 287.5913 -9303.8986 -7521.7926 298.9456 -341.4350 -254.6249 30459.2460 -182.8243 -121.4985
TCL: Running FEP window   9: Lambda1 0.39999999999999997 Lambda2 0.44999999999999996 [dLambda 0.04999999999999999]
TCL: Setting parameter firsttimestep to 0
TCL: Setting parameter alchLambda to 0.39999999999999997
Info: NONBONDED TABLE R-SQUARED SPACING: 0.0625
Info: NONBONDED TABLE SIZE: 705 POINTS
TCL: Setting parameter alchLambda2 to 0.44999999999999996
Info: NONBONDED TABLE R-SQUARED SPACING: 0.0625
Info: NONBONDED TABLE SIZE: 705 POINTS
TCL: Running for 1500000 steps
ETITLE: TS BOND ANGLE DIHED IMPRP ELECT VDW BOUNDARY MISC KINETIC TOTAL TEMP POTENTIAL TOTALAVG TEMPAVG PRESSURE GPRESSURE VOLUME PRESSAVG GPRESSAVG
ENERGY: 0 0.3286 7.2401 5.3743 0.0000 -10736.5264 1420.9242 0.0000 0.0000 1697.6478 -7605.0114 287.4479 -9302.6592 -7605.0114 287.4479 -326.7476 -242.5152 30459.2460 -326.7476 -242.5152
ENERGY: 300000 1.2046 4.4774 5.8853 0.0000 -10787.0082 1480.4920 0.0000 0.0000 1740.5471 -7554.4018 294.7117 -9294.9489 -7577.7978 293.5548 151.9777 197.1162 30497.0044 -242.3824 -173.1394
ENERGY: 600000 2.6340 10.0042 5.5926 0.0000 -10706.3027 1419.1266 0.0000 0.0000 1853.6348 -7415.3105 313.8598 -9268.9453 -7525.4243 299.5256 -244.4456 -160.7920 30397.4192 -179.9014 -104.8838
ENERGY: 900000 1.6666 8.1310 5.7102 0.0000 -10881.4571 1515.9687 0.0000 0.0000 1771.9124 -7578.0681 300.0225 -9349.9805 -7521.8607 299.2938 256.7939 289.4238 30592.9437 -67.2248 -4.1134
ENERGY: 1200000 3.5807 5.0601 5.7594 0.0000 -10832.2570 1470.3939 0.0000 0.0000 1790.6344 -7556.8286 303.1925 -9347.4630 -7522.3865 299.1494 49.0793 125.6452 30332.7218 -56.9343 7.3249
ENERGY: 1500000 3.1030 3.9580 5.6124 0.0000 -10740.4314 1410.3325 0.0000 0.0000 1801.0022 -7516.4233 304.9480 -9317.4255 -7515.7753 299.8888 -253.6867 -146.6938 30143.4738 -13.9623 51.2008
TCL: Running FEP window  10: Lambda1 0.44999999999999996 Lambda2 0.49999999999999994 [dLambda 0.04999999999999999]
TCL: Setting parameter firsttimestep to 0
TCL: Setting parameter alchLambda to 0.44999999999999996
Info: NONBONDED TABLE R-SQUARED SPACING: 0.0625
Info: NONBONDED TABLE SIZE: 705 POINTS
TCL: Setting parameter alchLambda2 to 0.49999999999999994
Info: NONBONDED TABLE R-SQUARED SPACING: 0.0625
Info: NONBONDED TABLE SIZE: 705 POINTS
TCL: Running for 1500000 steps
ETITLE: TS BOND ANGLE DIHED IMPRP ELECT VDW BOUNDARY MISC KINETIC TOTAL TEMP POTENTIAL TOTALAVG TEMPAVG PRESSURE GPRESSURE VOLUME PRESSAVG GPRESSAVG
ENERGY: 0 3.1030 3.9580 5.6124 0.0000 -10740.4327 1410.3654 0.0000 0.0000 1800.1261 -7517.2678 304.7997 -9317.3939 -7517.2678 304.7997 -229.9161 -144.1825 30143.4738 -229.9161 -144.1825
ENERGY: 300000 3.9797 8.5187 5.1360 0.0000 -10788.9747 1476.2724 0.0000 0.0000 1786.9590 -7508.1089 302.5702 -9295.0679 -7482.3210 304.3737 159.2686 175.7209 30582.1561 46.2064 89.6910
ENERGY: 600000 2.1548 7.9469 5.4693 0.0000 -10984.8342 1594.1061 0.0000 0.0000 1744.0985 -7631.0586 295.3130 -9375.1571 -7518.2444 300.1638 909.6288 973.9443 30140.7002 143.7500 192.1845
ENERGY: 900000 1.2971 4.2624 5.7507 0.0000 -10801.4622 1548.6101 0.0000 0.0000 1817.4153 -7424.1266 307.7271 -9241.5419 -7505.3358 301.3089 626.5236 683.9174 31082.5864 231.4483 285.8915
ENERGY: 1200000 0.9066 6.4515 6.1563 0.0000 -10735.5177 1504.4391 0.0000 0.0000 1744.9556 -7472.6087 295.4581 -9217.5643 -7493.6202 299.6223 628.8199 702.3179 30643.5211 206.2053 272.9293
ENERGY: 1500000 2.7012 5.8127 5.3047 0.0000 -10777.3251 1457.1972 0.0000 0.0000 1813.7141 -7492.5951 307.1004 -9306.3092 -7497.9404 299.8016 -73.4742 90.0234 30261.9429 149.0790 217.0045
TCL: Running FEP window  11: Lambda1 0.49999999999999994 Lambda2 0.5499999999999999 [dLambda 0.04999999999999999]
TCL: Setting parameter firsttimestep to 0
TCL: Setting parameter alchLambda to 0.49999999999999994
Info: NONBONDED TABLE R-SQUARED SPACING: 0.0625
Info: NONBONDED TABLE SIZE: 705 POINTS
TCL: Setting parameter alchLambda2 to 0.5499999999999999
Info: NONBONDED TABLE R-SQUARED SPACING: 0.0625
Info: NONBONDED TABLE SIZE: 705 POINTS
TCL: Running for 1500000 steps
ETITLE: TS BOND ANGLE DIHED IMPRP ELECT VDW BOUNDARY MISC KINETIC TOTAL TEMP POTENTIAL TOTALAVG TEMPAVG PRESSURE GPRESSURE VOLUME PRESSAVG GPRESSAVG
ENERGY: 0 2.7012 5.8127 5.3047 0.0000 -10777.3262 1456.9461 0.0000 0.0000 1812.8724 -7493.6890 306.9579 -9306.5614 -7493.6890 306.9579 11.5068 91.3468 30261.9429 11.5068 91.3468
ENERGY: 300000 3.5553 9.0579 5.6226 0.0000 -10598.1246 1329.9247 0.0000 0.0000 1789.5078 -7460.4564 303.0018 -9249.9642 -7501.7084 300.5588 -987.1933 -966.3054 30890.9724 -675.2026 -632.3688
ENERGY: 600000 2.8154 7.4249 5.8062 0.0000 -10747.6023 1400.0281 0.0000 0.0000 1747.5774 -7583.9503 295.9021 -9331.5277 -7507.2540 299.2667 -791.4116 -769.6840 30718.1935 -534.5663 -474.5720
ENERGY: 900000 2.7692 4.1748 5.2189 0.0000 -10679.8535 1392.2347 0.0000 0.0000 1736.8691 -7538.5867 294.0889 -9275.4558 -7497.7512 299.0309 -538.7906 -431.4158 30622.5348 -426.6851 -362.3528
ENERGY: 1200000 2.6578 4.2583 5.3772 0.0000 -10820.2287 1511.5341 0.0000 0.0000 1836.0674 -7460.3339 310.8853 -9296.4013 -7495.9103 300.1751 360.2742 418.3142 30401.2422 -203.0173 -136.8460
ENERGY: 1500000 4.5444 6.2673 5.2915 0.0000 -10570.0282 1341.8856 0.0000 0.0000 1804.4033 -7407.6360 305.5239 -9212.0393 -7495.6813 300.0044 -541.3825 -534.8451 30546.2878 -229.9209 -164.2080
TCL: Running FEP window  12: Lambda1 0.5499999999999999 Lambda2 0.6    [dLambda 0.050000000000000044]
TCL: Setting parameter firsttimestep to 0
TCL: Setting parameter alchLambda to 0.5499999999999999
Info: NONBONDED TABLE R-SQUARED SPACING: 0.0625
Info: NONBONDED TABLE SIZE: 705 POINTS
TCL: Setting parameter alchLambda2 to 0.6
Info: NONBONDED TABLE R-SQUARED SPACING: 0.0625
Info: NONBONDED TABLE SIZE: 705 POINTS
TCL: Running for 1500000 steps
ETITLE: TS BOND ANGLE DIHED IMPRP ELECT VDW BOUNDARY MISC KINETIC TOTAL TEMP POTENTIAL TOTALAVG TEMPAVG PRESSURE GPRESSURE VOLUME PRESSAVG GPRESSAVG
ENERGY: 0 4.5444 6.2673 5.2915 0.0000 -10570.4201 1341.8675 0.0000 0.0000 1803.5590 -7408.8904 305.3809 -9212.4493 -7408.8904 305.3809 -619.6075 -531.3824 30546.2878 -619.6075 -531.3824
ENERGY: 300000 1.8553 7.2354 5.4676 0.0000 -10676.2849 1405.1165 0.0000 0.0000 1741.5126 -7515.0975 294.8752 -9256.6101 -7472.3382 302.5714 -232.0352 -112.2943 30216.0461 -56.9572 28.5201
ENERGY: 600000 0.4026 3.7564 5.7541 0.0000 -10894.1911 1520.8456 0.0000 0.0000 1762.0707 -7601.3617 298.3561 -9363.4324 -7485.2893 301.9995 392.3907 469.3270 30485.0889 33.4322 117.3655
ENERGY: 900000 1.5156 4.4431 5.4599 0.0000 -10839.8524 1515.1478 0.0000 0.0000 1817.7736 -7495.5124 307.7878 -9313.2861 -7477.2654 303.2025 383.4868 468.0169 30572.3558 96.2412 169.3681
ENERGY: 1200000 0.7975 5.8052 5.3644 0.0000 -10633.1533 1357.7810 0.0000 0.0000 1737.7647 -7525.6406 294.2406 -9263.4053 -7471.9502 302.7271 -695.9506 -582.8701 30877.5372 28.5632 103.8889
ENERGY: 1500000 1.8960 6.6821 5.3795 0.0000 -10765.8016 1400.3829 0.0000 0.0000 1822.8078 -7528.6532 308.6402 -9351.4610 -7478.3756 302.6006 -694.5914 -640.2502 30839.3858 -32.1792 38.3821
TCL: Running FEP window  13: Lambda1 0.6    Lambda2 0.65   [dLambda 0.050000000000000044]
TCL: Setting parameter firsttimestep to 0
TCL: Setting parameter alchLambda to 0.6
Info: NONBONDED TABLE R-SQUARED SPACING: 0.0625
Info: NONBONDED TABLE SIZE: 705 POINTS
TCL: Setting parameter alchLambda2 to 0.65
Info: NONBONDED TABLE R-SQUARED SPACING: 0.0625
Info: NONBONDED TABLE SIZE: 705 POINTS
TCL: Running for 1500000 steps
ETITLE: TS BOND ANGLE DIHED IMPRP ELECT VDW BOUNDARY MISC KINETIC TOTAL TEMP POTENTIAL TOTALAVG TEMPAVG PRESSURE GPRESSURE VOLUME PRESSAVG GPRESSAVG
ENERGY: 0 1.8960 6.6821 5.3795 0.0000 -10765.8921 1400.4935 0.0000 0.0000 1821.9182 -7529.5226 308.4896 -9351.4409 -7529.5226 308.4896 -727.2263 -635.7092 30839.3858 -727.2263 -635.7092
ENERGY: 300000 2.8291 2.8426 5.3466 0.0000 -10673.9662 1398.2465 0.0000 0.0000 1771.5741 -7493.1274 299.9652 -9264.7014 -7524.2007 298.5836 -553.0787 -429.0277 30916.5872 -668.6923 -573.0469
ENERGY: 600000 1.5064 4.2564 5.2694 0.0000 -10785.7038 1511.4117 0.0000 0.0000 1805.2050 -7458.0548 305.6596 -9263.2598 -7515.8014 300.3460 512.5549 622.1332 30569.3490 -282.7906 -195.6583
ENERGY: 900000 2.4531 3.8120 5.8282 0.0000 -10707.7893 1384.8843 0.0000 0.0000 1771.5252 -7539.2866 299.9569 -9310.8118 -7520.1967 299.2537 -439.2595 -385.1190 30526.5160 -239.6341 -159.4564
ENERGY: 1200000 0.9531 6.3101 5.5216 0.0000 -10908.1004 1543.8003 0.0000 0.0000 1789.0439 -7562.4713 302.9232 -9351.5152 -7525.0497 299.2212 566.6160 676.4045 30384.3114 -151.5516 -71.5988
ENERGY: 1500000 0.8168 9.7859 5.8525 0.0000 -10774.3659 1464.3111 0.0000 0.0000 1794.1431 -7499.4566 303.7866 -9293.5997 -7522.4951 299.5854 130.8059 138.8161 30598.7234 -38.7054 36.3555
TCL: Running FEP window  14: Lambda1 0.65   Lambda2 0.7000000000000001 [dLambda 0.050000000000000044]
TCL: Setting parameter firsttimestep to 0
TCL: Setting parameter alchLambda to 0.65
Info: NONBONDED TABLE R-SQUARED SPACING: 0.0625
Info: NONBONDED TABLE SIZE: 705 POINTS
TCL: Setting parameter alchLambda2 to 0.7000000000000001
Info: NONBONDED TABLE R-SQUARED SPACING: 0.0625
Info: NONBONDED TABLE SIZE: 705 POINTS
TCL: Running for 1500000 steps
ETITLE: TS BOND ANGLE DIHED IMPRP ELECT VDW BOUNDARY MISC KINETIC TOTAL TEMP POTENTIAL TOTALAVG TEMPAVG PRESSURE GPRESSURE VOLUME PRESSAVG GPRESSAVG
ENERGY: 0 0.8168 9.7859 5.8525 0.0000 -10774.6089 1464.3360 0.0000 0.0000 1793.2838 -7500.5339 303.6411 -9293.8178 -7500.5339 303.6411 64.9924 145.8181 30598.7234 64.9924 145.8181
ENERGY: 300000 2.2252 6.0748 6.3300 0.0000 -10679.1301 1385.2300 0.0000 0.0000 1741.0768 -7538.1933 294.8014 -9279.2701 -7509.9259 299.6138 -462.2000 -379.2833 30448.6200 -3.7873 64.3994
ENERGY: 600000 2.1126 6.5065 5.4460 0.0000 -10675.4024 1360.6083 0.0000 0.0000 1777.3066 -7523.4224 300.9359 -9300.7290 -7522.7688 299.1399 -558.1378 -464.5662 30371.9156 -313.9560 -254.4492
ENERGY: 900000 2.1751 6.3037 5.1422 0.0000 -10689.8172 1396.9497 0.0000 0.0000 1760.1403 -7519.1061 298.0292 -9279.2465 -7532.3477 298.7105 -416.8237 -349.1579 30613.7900 -280.3003 -221.0497
ENERGY: 1200000 1.6317 10.0113 6.5348 0.0000 -10819.6284 1476.1309 0.0000 0.0000 1759.7961 -7565.5236 297.9710 -9325.3197 -7528.7980 298.5456 149.5686 185.1079 30500.8722 -170.7426 -111.3363
ENERGY: 1500000 2.7862 3.1476 5.4419 0.0000 -10690.5226 1432.8236 0.0000 0.0000 1733.9542 -7512.3691 293.5954 -9246.3233 -7528.4465 298.8207 -210.1927 -111.2847 30873.7276 -152.7045 -93.5909
TCL: Running FEP window  15: Lambda1 0.7000000000000001 Lambda2 0.7500000000000001 [dLambda 0.050000000000000044]
TCL: Setting parameter firsttimestep to 0
TCL: Setting parameter alchLambda to 0.7000000000000001
Info: NONBONDED TABLE R-SQUARED SPACING: 0.0625
Info: NONBONDED TABLE SIZE: 705 POINTS
TCL: Setting parameter alchLambda2 to 0.7500000000000001
Info: NONBONDED TABLE R-SQUARED SPACING: 0.0625
Info: NONBONDED TABLE SIZE: 705 POINTS
TCL: Running for 1500000 steps
ETITLE: TS BOND ANGLE DIHED IMPRP ELECT VDW BOUNDARY MISC KINETIC TOTAL TEMP POTENTIAL TOTALAVG TEMPAVG PRESSURE GPRESSURE VOLUME PRESSAVG GPRESSAVG
ENERGY: 0 2.7862 3.1476 5.4419 0.0000 -10690.4951 1432.3766 0.0000 0.0000 1733.0367 -7513.7060 293.4400 -9246.7428 -7513.7060 293.4400 -197.5544 -106.7886 30873.7276 -197.5544 -106.7886
ENERGY: 300000 1.3396 8.3672 5.7678 0.0000 -10932.4421 1549.5143 0.0000 0.0000 1803.5644 -7563.8889 305.3819 -9367.4533 -7522.7922 300.7967 607.9879 636.0252 30410.9191 55.5223 122.7045
ENERGY: 600000 3.3131 5.3413 5.8237 0.0000 -10803.3857 1462.2206 0.0000 0.0000 1780.2284 -7546.4585 301.4306 -9326.6869 -7516.4428 299.5262 -108.4529 -24.0115 30408.4768 -94.2894 -18.8196
ENERGY: 900000 1.7196 3.7897 5.2008 0.0000 -10674.6709 1433.7800 0.0000 0.0000 1799.4338 -7430.7471 304.6825 -9230.1809 -7502.4737 299.9602 116.0937 147.0043 30634.0805 -36.3907 28.3286
ENERGY: 1200000 2.3855 5.7642 6.0162 0.0000 -10543.2196 1324.3370 0.0000 0.0000 1744.1696 -7460.5471 295.3251 -9204.7167 -7504.6331 299.9939 -964.9026 -901.5148 31072.5120 -92.5665 -25.6442
ENERGY: 1500000 5.2226 9.4481 6.8346 0.0000 -10564.3229 1296.6213 0.0000 0.0000 1746.2053 -7499.9909 295.6697 -9246.1962 -7502.8212 299.6973 -1336.2754 -1299.5071 31110.5765 -140.3643 -75.6238
TCL: Running FEP window  16: Lambda1 0.7500000000000001 Lambda2 0.8000000000000002 [dLambda 0.050000000000000044]
TCL: Setting parameter firsttimestep to 0
TCL: Setting parameter alchLambda to 0.7500000000000001
Info: NONBONDED TABLE R-SQUARED SPACING: 0.0625
Info: NONBONDED TABLE SIZE: 705 POINTS
TCL: Setting parameter alchLambda2 to 0.8000000000000002
Info: NONBONDED TABLE R-SQUARED SPACING: 0.0625
Info: NONBONDED TABLE SIZE: 705 POINTS
TCL: Running for 1500000 steps
ETITLE: TS BOND ANGLE DIHED IMPRP ELECT VDW BOUNDARY MISC KINETIC TOTAL TEMP POTENTIAL TOTALAVG TEMPAVG PRESSURE GPRESSURE VOLUME PRESSAVG GPRESSAVG
ENERGY: 0 5.2226 9.4481 6.8346 0.0000 -10564.8970 1297.1067 0.0000 0.0000 1745.2903 -7500.9946 295.5148 -9246.2849 -7500.9946 295.5148 -1365.9373 -1290.1969 31110.5765 -1365.9373 -1290.1969
ENERGY: 300000 3.8198 9.6283 6.1718 0.0000 -10840.2229 1509.8586 0.0000 0.0000 1748.7234 -7562.0211 296.0961 -9310.7445 -7519.6984 295.6090 459.5169 523.8877 30194.9861 -211.8276 -161.1127
ENERGY: 600000 1.4616 4.7723 5.5002 0.0000 -10731.7968 1412.7320 0.0000 0.0000 1771.4530 -7535.8776 299.9447 -9307.3307 -7523.5865 296.9139 -448.2666 -366.7347 30671.0023 -233.0529 -174.8771
ENERGY: 900000 2.6851 10.3323 6.2793 0.0000 -10629.3792 1362.6441 0.0000 0.0000 1825.9322 -7421.5062 309.1692 -9247.4384 -7508.9032 299.1979 -614.1594 -544.0154 30645.0213 -233.0687 -168.3556
ENERGY: 1200000 1.1652 4.2998 5.1362 0.0000 -10694.6115 1403.2015 0.0000 0.0000 1785.7229 -7495.0860 302.3609 -9280.8089 -7508.5948 299.4876 -518.1599 -429.6850 30796.0762 -232.6356 -167.0598
ENERGY: 1500000 1.6325 6.5648 5.4827 0.0000 -10748.0014 1452.6703 0.0000 0.0000 1721.4532 -7560.1980 291.4787 -9281.6511 -7513.1588 299.2347 -170.8602 -122.7896 31042.2410 -220.3120 -163.2551
TCL: Running FEP window  17: Lambda1 0.8000000000000002 Lambda2 0.8500000000000002 [dLambda 0.050000000000000044]
TCL: Setting parameter firsttimestep to 0
TCL: Setting parameter alchLambda to 0.8000000000000002
Info: NONBONDED TABLE R-SQUARED SPACING: 0.0625
Info: NONBONDED TABLE SIZE: 705 POINTS
TCL: Setting parameter alchLambda2 to 0.8500000000000002
Info: NONBONDED TABLE R-SQUARED SPACING: 0.0625
Info: NONBONDED TABLE SIZE: 705 POINTS
TCL: Running for 1500000 steps
ETITLE: TS BOND ANGLE DIHED IMPRP ELECT VDW BOUNDARY MISC KINETIC TOTAL TEMP POTENTIAL TOTALAVG TEMPAVG PRESSURE GPRESSURE VOLUME PRESSAVG GPRESSAVG
ENERGY: 0 1.6325 6.5648 5.4827 0.0000 -10749.3886 1452.9132 0.0000 0.0000 1720.5804 -7562.2150 291.3309 -9282.7954 -7562.2150 291.3309 -191.0068 -116.4107 31042.2410 -191.0068 -116.4107
ENERGY: 300000 2.6459 5.6708 5.1851 0.0000 -10544.4539 1328.1265 0.0000 0.0000 1757.7685 -7445.0572 297.6276 -9202.8256 -7504.4636 296.7215 -770.9102 -671.6943 30536.9634 -147.8642 -70.7957
ENERGY: 600000 0.8684 8.4250 6.3384 0.0000 -10827.0241 1482.8769 0.0000 0.0000 1749.9571 -7578.5583 296.3050 -9328.5154 -7513.8029 297.3527 12.7553 92.8044 30655.9638 -147.1486 -71.2307
ENERGY: 900000 2.3176 4.4612 5.2882 0.0000 -10733.1773 1361.4806 0.0000 0.0000 1738.3047 -7621.3249 294.3320 -9359.6297 -7531.2993 297.7436 -878.8844 -835.4489 30655.2708 -161.2117 -88.7034
ENERGY: 1200000 1.9819 3.9470 5.6612 0.0000 -10630.6221 1396.5313 0.0000 0.0000 1776.7385 -7445.7621 300.8397 -9222.5006 -7527.5465 298.0939 -478.0291 -441.7274 31270.3211 -132.1518 -57.9821
ENERGY: 1500000 1.1253 8.1919 5.6221 0.0000 -10867.9589 1478.7688 0.0000 0.0000 1789.6853 -7584.5656 303.0318 -9374.2509 -7533.4542 298.3966 76.9160 110.3729 30332.3333 -109.4086 -35.0755
TCL: Running FEP window  18: Lambda1 0.8500000000000002 Lambda2 0.9000000000000002 [dLambda 0.050000000000000044]
TCL: Setting parameter firsttimestep to 0
TCL: Setting parameter alchLambda to 0.8500000000000002
Info: NONBONDED TABLE R-SQUARED SPACING: 0.0625
Info: NONBONDED TABLE SIZE: 705 POINTS
TCL: Setting parameter alchLambda2 to 0.9000000000000002
Info: NONBONDED TABLE R-SQUARED SPACING: 0.0625
Info: NONBONDED TABLE SIZE: 705 POINTS
TCL: Running for 1500000 steps
ETITLE: TS BOND ANGLE DIHED IMPRP ELECT VDW BOUNDARY MISC KINETIC TOTAL TEMP POTENTIAL TOTALAVG TEMPAVG PRESSURE GPRESSURE VOLUME PRESSAVG GPRESSAVG
ENERGY: 0 1.1253 8.1919 5.6221 0.0000 -10869.3917 1479.6863 0.0000 0.0000 1788.7718 -7585.9942 302.8772 -9374.7661 -7585.9942 302.8772 49.6231 125.3414 30332.3333 49.6231 125.3414
ENERGY: 300000 2.4079 5.5961 6.0173 0.0000 -10750.2428 1463.8700 0.0000 0.0000 1789.4199 -7482.9317 302.9869 -9272.3517 -7524.6183 303.2980 363.8337 426.7896 29995.1449 15.2055 76.0496
ENERGY: 600000 2.7260 6.6764 6.0975 0.0000 -10836.8169 1524.6471 0.0000 0.0000 1722.5037 -7574.1662 291.6566 -9296.6699 -7524.8804 302.5913 584.9465 643.2011 30403.5598 200.9039 269.3801
ENERGY: 900000 1.6110 5.4634 5.5583 0.0000 -10642.4987 1373.6183 0.0000 0.0000 1723.7269 -7532.5207 291.8637 -9256.2476 -7533.6021 299.5145 -554.4195 -530.1615 30840.4879 42.0826 107.5168
ENERGY: 1200000 2.4592 7.2945 6.6245 0.0000 -10727.8994 1369.1744 0.0000 0.0000 1723.6245 -7618.7223 291.8463 -9342.3468 -7534.8852 299.2806 -904.4997 -896.4872 30688.9165 -43.5803 10.5484
ENERGY: 1500000 2.0411 5.7535 5.2677 0.0000 -10728.7157 1497.7617 0.0000 0.0000 1715.9105 -7501.9812 290.5402 -9217.8917 -7525.6341 299.2834 622.3053 691.4395 30617.1069 11.7795 70.0742
TCL: Running FEP window  19: Lambda1 0.9000000000000002 Lambda2 0.9500000000000003 [dLambda 0.050000000000000044]
TCL: Setting parameter firsttimestep to 0
TCL: Setting parameter alchLambda to 0.9000000000000002
Info: NONBONDED TABLE R-SQUARED SPACING: 0.0625
Info: NONBONDED TABLE SIZE: 705 POINTS
TCL: Setting parameter alchLambda2 to 0.9500000000000003
Info: NONBONDED TABLE R-SQUARED SPACING: 0.0625
Info: NONBONDED TABLE SIZE: 705 POINTS
TCL: Running for 1500000 steps
ETITLE: TS BOND ANGLE DIHED IMPRP ELECT VDW BOUNDARY MISC KINETIC TOTAL TEMP POTENTIAL TOTALAVG TEMPAVG PRESSURE GPRESSURE VOLUME PRESSAVG GPRESSAVG
ENERGY: 0 2.0411 5.7535 5.2677 0.0000 -10729.5972 1498.0731 0.0000 0.0000 1715.0243 -7503.4375 290.3901 -9218.4618 -7503.4375 290.3901 615.0568 703.3984 30617.1069 615.0568 703.3984
ENERGY: 300000 2.9057 6.1476 5.8601 0.0000 -10639.7443 1392.6873 0.0000 0.0000 1789.2168 -7442.9268 302.9525 -9232.1436 -7492.4480 301.1183 -403.0595 -351.1756 30601.3354 103.2933 184.2674
ENERGY: 600000 1.0166 5.0430 4.9056 0.0000 -10885.0985 1523.0257 0.0000 0.0000 1739.2812 -7611.8264 294.4973 -9351.1076 -7506.1210 300.0050 419.3624 508.9392 30432.7762 101.7769 166.2940
ENERGY: 900000 6.0481 3.9481 5.4789 0.0000 -10816.3077 1511.5910 0.0000 0.0000 1705.9083 -7583.3332 288.8466 -9289.2415 -7513.2088 298.3516 516.0357 562.5674 30256.9665 -2.4266 62.8143
ENERGY: 1200000 1.6803 6.6510 5.3725 0.0000 -10823.2225 1551.4203 0.0000 0.0000 1703.1063 -7554.9921 288.3722 -9258.0984 -7513.9123 298.2920 840.3272 937.2001 30523.3246 63.7122 128.8466
ENERGY: 1500000 4.3016 12.9831 6.0803 0.0000 -10807.3265 1499.0736 0.0000 0.0000 1792.7938 -7492.0941 303.5582 -9284.8879 -7519.3497 297.9638 628.4520 678.6963 29910.0254 68.7855 131.5384
TCL: Running FEP window  20: Lambda1 0.9500000000000003 Lambda2 1.0    [dLambda 0.04999999999999971]
TCL: Setting parameter firsttimestep to 0
TCL: Setting parameter alchLambda to 0.9500000000000003
Info: NONBONDED TABLE R-SQUARED SPACING: 0.0625
Info: NONBONDED TABLE SIZE: 705 POINTS
TCL: Setting parameter alchLambda2 to 1.0
Info: NONBONDED TABLE R-SQUARED SPACING: 0.0625
Info: NONBONDED TABLE SIZE: 705 POINTS
TCL: Running for 1500000 steps
ETITLE: TS BOND ANGLE DIHED IMPRP ELECT VDW BOUNDARY MISC KINETIC TOTAL TEMP POTENTIAL TOTALAVG TEMPAVG PRESSURE GPRESSURE VOLUME PRESSAVG GPRESSAVG
ENERGY: 0 4.3015 12.9831 6.0803 0.0000 -10807.8545 1499.3525 0.0000 0.0000 1791.9047 -7493.2323 303.4076 -9285.1371 -7493.2323 303.4076 621.1815 695.2592 29910.0254 621.1815 695.2592
ENERGY: 300000 2.2869 4.8016 5.8003 0.0000 -10746.5226 1449.0040 0.0000 0.0000 1735.3814 -7549.2484 293.8370 -9284.6297 -7496.7063 300.8799 -234.6878 -148.9090 30924.9222 -4.5287 71.6446
ENERGY: 600000 0.4617 7.7569 5.4589 0.0000 -10803.3746 1467.0878 0.0000 0.0000 1843.6842 -7478.9251 312.1750 -9322.6093 -7501.0136 301.9911 195.5019 285.5940 30615.3394 60.9770 137.2231
ENERGY: 900000 0.6540 6.1021 5.8476 0.0000 -10723.1408 1399.4890 0.0000 0.0000 1799.9738 -7511.0743 304.7739 -9311.0482 -7497.5228 300.4250 -214.6758 -185.6173 30418.4073 37.1625 105.6322
ENERGY: 1200000 0.7633 8.7528 5.9761 0.0000 -10643.9940 1399.6571 0.0000 0.0000 1761.1837 -7467.6612 298.2059 -9228.8448 -7494.6631 300.7563 -155.1013 -93.1250 30673.4440 3.4678 66.2141
ENERGY: 1500000 1.3394 7.6383 6.6427 0.0000 -10630.3089 1333.0919 0.0000 0.0000 1804.6651 -7476.9315 305.5682 -9281.5966 -7491.0411 300.9494 -1067.0131 -981.1278 30827.9592 -67.7350 -7.4769
TCL: Exiting due to exit command.
