Info: SIMULATION PARAMETERS:
Info: TIMESTEP               2
Info: NUMBER OF STEPS        0
Info: STEPS PER CYCLE        10
Info: PERIODIC CELL BASIS 1  31.5889 0 0
Info: PERIODIC CELL BASIS 2  0 31.9802 0
Info: PERIODIC CELL BASIS 3  0 0 30.0307
Info: PERIODIC CELL CENTER   0 0 0
Info: WRAPPING WATERS AROUND PERIODIC BOUNDARIES ON OUTPUT.
Info: WRAPPING ALL CLUSTERS AROUND PERIODIC BOUNDARIES ON OUTPUT.
Info: FIRST LDB TIMESTEP     50
Info: LAST LDB TIMESTEP     -1
Info: HOM BACKGROUND SCALING 1
Info: PME BACKGROUND SCALING 1
Info: MIN ATOMS PER PATCH    40
Info: EMPTY PATCH LOAD       40 ATOMS
Info: VELOCITY FILE          mobley_6474572_equil.vel
Info: CENTER OF MASS MOVING INITIALLY? NO
Info: DIELECTRIC             1
Info: EXCLUDE                SCALED ONE-FOUR
Info: 1-4 ELECTROSTATICS SCALED BY 0.833333
Info: MODIFIED 1-4 VDW PARAMETERS WILL BE USED
Info: DCD FILENAME           mobley_6474572_prod.dcd
Info: DCD FREQUENCY          100000
Info: DCD FIRST STEP         100000
Info: DCD FILE WILL CONTAIN UNIT CELL DATA
Info: XST FILENAME           mobley_6474572_prod.xst
Info: XST FREQUENCY          100000
Info: NO VELOCITY DCD OUTPUT
Info: NO FORCE DCD OUTPUT
Info: OUTPUT FILENAME        mobley_6474572_prod
Info: BINARY OUTPUT FILES WILL BE USED
Info: RESTART FILENAME       mobley_6474572_prod.restart
Info: RESTART FREQUENCY      100000
Info: BINARY RESTART FILES WILL BE USED
Info: CUTOFF                 9
Info: PAIRLIST DISTANCE      11
Info: PAIRLIST SHRINK RATE   0.01
Info: PAIRLIST GROW RATE     0.01
Info: PAIRLIST TRIGGER       0.3
Info: PAIRLISTS PER CYCLE    2
Info: PAIRLISTS ENABLED
Info: MARGIN                 2
Info: HYDROGEN GROUP CUTOFF  2.5
Info: PATCH DIMENSION        15.5
Info: ENERGY OUTPUT STEPS    100000
Info: ENERGY EVALUATION STEPS    100000
Info: OUTPUT ENERGY PRECISION 4
Info: CROSSTERM ENERGY INCLUDED IN DIHEDRAL
Info: TIMING OUTPUT STEPS    1000000
Info: PRESSURE OUTPUT STEPS  100000
Info: ALCHEMICAL FEP ON
Info: FEP CURRENT LAMBDA VALUE     0
Info: FEP COMPARISON LAMBDA VALUE  0.05
Info: FEP INTRA-ALCHEMICAL NON-BONDED INTERACTIONS WILL BE RETAINED
Info: FEP INTRA-ALCHEMICAL BONDED INTERACTIONS WILL BE RETAINED
Info: FEP VDW SHIFTING COEFFICIENT 5
Info: FEP ELEC. ACTIVE FOR ANNIHILATED PARTICLES BETWEEN LAMBDA = 0 AND LAMBDA = 0.5
Info: FEP ELEC. ACTIVE FOR EXNIHILATED PARTICLES BETWEEN LAMBDA = 0.5 AND LAMBDA = 1
Info: FEP VDW ACTIVE FOR ANNIHILATED PARTICLES BETWEEN LAMBDA = 0 AND LAMBDA = 1
Info: FEP VDW ACTIVE FOR EXNIHILATED PARTICLES BETWEEN LAMBDA = 0 AND LAMBDA = 1
Info: FEP BOND ACTIVE FOR ANNIHILATED PARTICLES BETWEEN LAMBDA = 1 AND LAMBDA = 1
Info: FEP BOND ACTIVE FOR EXNIHILATED PARTICLES BETWEEN LAMBDA = 0 AND LAMBDA = 0
Info: LANGEVIN DYNAMICS ACTIVE
Info: LANGEVIN TEMPERATURE   300
Info: LANGEVIN USING BBK INTEGRATOR
Info: LANGEVIN DAMPING COEFFICIENT IS 1 INVERSE PS
Info: LANGEVIN DYNAMICS APPLIED TO HYDROGENS
Info: LANGEVIN PISTON PRESSURE CONTROL ACTIVE
Info:        TARGET PRESSURE IS 1.01325 BAR
Info:     OSCILLATION PERIOD IS 50 FS
Info:             DECAY TIME IS 25 FS
Info:     PISTON TEMPERATURE IS 300 K
Info:       PRESSURE CONTROL IS GROUP-BASED
Info:    INITIAL STRAIN RATE IS 0.00030404 0.00030404 0.00030404
Info:       CELL FLUCTUATION IS ISOTROPIC
Info: PARTICLE MESH EWALD (PME) ACTIVE
Info: PME TOLERANCE               1e-06
Info: PME EWALD COEFFICIENT       0.348832
Info: PME INTERPOLATION ORDER     4
Info: PME GRID DIMENSIONS         32 32 32
Info: PME MAXIMUM GRID SPACING    1
Info: PME CALCULATION WILL BE PERFORMED ON GPU
Info: FULL ELECTROSTATIC EVALUATION FREQUENCY      2
Info: USING VERLET I (r-RESPA) MTS SCHEME.
Info: C1 SPLITTING OF LONG RANGE ELECTROSTATICS
Info: PLACING ATOMS IN PATCHES BY HYDROGEN GROUPS
Info: RIGID BONDS TO HYDROGEN : ALL
Info:         ERROR TOLERANCE : 1e-08
Info:          MAX ITERATIONS : 100
Info: RIGID WATER USING SETTLE ALGORITHM
Info: RANDOM NUMBER SEED     1742471897
Info: USE HYDROGEN BONDS?    NO
Info: Using AMBER format force field!
Info: AMBER PARM FILE        mobley_6474572.prmtop
Info: COORDINATE PDB         mobley_6474572.pdb
Info: Exclusions will be read from PARM file!
Info: SCNB (VDW SCALING)     2
Info: USING ARITHMETIC MEAN TO COMBINE L-J SIGMA PARAMETERS
Info: BINARY COORDINATES     mobley_6474572_equil.coor
Info: SUMMARY OF PARAMETERS:
Info: 6 BONDS
Info: 5 ANGLES
Info:   5 HARMONIC
Info:   0 COSINE-BASED
Info: 1 DIHEDRAL
Info: 0 IMPROPER
Info: 0 CROSSTERM
Info: 0 VDW
Info: 21 VDW_PAIRS
Info: 0 NBTHOLE_PAIRS
Info: To read alchdata from file: mobley_6474572.pdb
Info: To read alchflag data from column: 5
Info: STRUCTURE SUMMARY:
Info: 2922 ATOMS
Info: 2921 BONDS
Info: 6 ANGLES
Info: 4 DIHEDRALS
Info: 0 IMPROPERS
Info: 0 CROSSTERMS
Info: 2931 EXCLUSIONS
Info: 2919 RIGID BONDS
Info: ALCH: 0 ATOMS TO DISAPPEAR IN FINAL STATE
Info: ALCH: 6 ATOMS TO APPEAR IN FINAL STATE
Info: 5847 DEGREES OF FREEDOM
Info: 975 HYDROGEN GROUPS
Info: 3 ATOMS IN LARGEST HYDROGEN GROUP
Info: 975 MIGRATION GROUPS
Info: 3 ATOMS IN LARGEST MIGRATION GROUP
Info: TOTAL MASS = 17574 amu
Info: TOTAL CHARGE = 1.49012e-08 e
Info: MASS DENSITY = 0.961947 g/cm^3
Info: ATOM DENSITY = 0.0963164 atoms/A^3
Info: ADDED 0 IMPLICIT EXCLUSIONS
Info: NONBONDED TABLE R-SQUARED SPACING: 0.0625
Info: NONBONDED TABLE SIZE: 705 POINTS
Info: REDUCING NUMBER OF PATCHES TO IMPROVE LOAD BALANCE
Info: REMOVING COM VELOCITY -0.0778422 0.0339303 -0.0611942
Info: Use 3D box decompostion in PME FFT.
Info: Updated CUDA force table with 4096 elements.
Info: Updated CUDA LJ table with 6 x 6 elements.
Info: Found 9 unique exclusion lists needing 12 bytes
TCL: Running for 1500000 steps
ETITLE: TS BOND ANGLE DIHED IMPRP ELECT VDW BOUNDARY MISC KINETIC TOTAL TEMP POTENTIAL TOTALAVG TEMPAVG PRESSURE GPRESSURE VOLUME PRESSAVG GPRESSAVG
ENERGY: 0 0.8968 0.7782 0.9336 0.0000 -10641.4042 1481.8806 0.0000 0.0000 1774.8103 -7382.1047 305.4986 -9156.9150 -7382.1047 305.4986 266.9825 357.7612 30337.5124 266.9825 357.7612
ENERGY: 300000 2.1680 2.0446 0.2742 0.0000 -10646.2744 1398.0854 0.0000 0.0000 1744.6559 -7499.0463 300.3081 -9243.7022 -7454.9897 300.0460 -216.4579 -182.2595 29520.9490 -159.2455 -85.7949
ENERGY: 600000 0.8347 1.6853 1.2689 0.0000 -10695.7811 1429.7960 0.0000 0.0000 1658.4751 -7603.7211 285.4738 -9262.1962 -7474.0976 298.6129 -22.9004 22.2587 29637.1279 2.9530 67.9511
ENERGY: 900000 1.3955 3.2149 2.3295 0.0000 -10648.6228 1451.0228 0.0000 0.0000 1720.8566 -7469.8035 296.2115 -9190.6601 -7466.8001 298.5779 301.3017 450.4349 29439.6344 -3.2347 67.2121
ENERGY: 1200000 0.3859 3.3256 0.1671 0.0000 -10753.6617 1520.6198 0.0000 0.0000 1752.8449 -7476.3185 301.7177 -9229.1633 -7468.0872 298.5310 629.1560 695.9681 29717.5877 90.6538 164.6758
ENERGY: 1500000 0.8128 0.6886 1.3114 0.0000 -10616.4751 1391.8127 0.0000 0.0000 1786.7389 -7435.1106 307.5519 -9221.8496 -7473.2101 298.6932 -396.2402 -360.9816 30112.6814 116.4859 191.8274
TCL: Running FEP window   2: Lambda1 0.05   Lambda2 0.1    [dLambda 0.05  ]
TCL: Setting parameter firsttimestep to 0
TCL: Setting parameter alchLambda to 0.05
Info: NONBONDED TABLE R-SQUARED SPACING: 0.0625
Info: NONBONDED TABLE SIZE: 705 POINTS
TCL: Setting parameter alchLambda2 to 0.1
Info: NONBONDED TABLE R-SQUARED SPACING: 0.0625
Info: NONBONDED TABLE SIZE: 705 POINTS
TCL: Running for 1500000 steps
ETITLE: TS BOND ANGLE DIHED IMPRP ELECT VDW BOUNDARY MISC KINETIC TOTAL TEMP POTENTIAL TOTALAVG TEMPAVG PRESSURE GPRESSURE VOLUME PRESSAVG GPRESSAVG
ENERGY: 0 0.8128 0.6886 1.3114 0.0000 -10616.4751 1391.8746 0.0000 0.0000 1785.8701 -7435.9176 307.4023 -9221.7877 -7435.9176 307.4023 -442.9078 -359.7222 30112.6814 -442.9078 -359.7222
ENERGY: 300000 0.7969 0.4113 2.8752 0.0000 -10528.7697 1372.9536 0.0000 0.0000 1774.4919 -7377.2408 305.4438 -9151.7327 -7429.6360 305.2702 -550.9698 -454.4817 30296.7662 -50.7859 43.2482
ENERGY: 600000 0.1047 0.1657 0.3462 0.0000 -10733.3770 1500.2711 0.0000 0.0000 1755.8763 -7476.6131 302.2395 -9232.4893 -7441.0311 304.8886 683.5261 745.9877 29337.3005 -77.1406 1.7971
ENERGY: 900000 0.1472 0.7410 0.4750 0.0000 -10480.6188 1324.4317 0.0000 0.0000 1764.0208 -7390.8031 303.6414 -9154.8239 -7438.1064 302.7925 -812.3165 -768.2623 30104.0539 -93.3538 -26.1552
ENERGY: 1200000 0.2254 0.8762 0.9491 0.0000 -10705.1460 1496.1976 0.0000 0.0000 1727.5841 -7479.3137 297.3695 -9206.8978 -7435.3696 302.6074 593.1953 550.7223 29764.0622 54.2926 102.8924
ENERGY: 1500000 0.7225 1.1123 1.1326 0.0000 -10632.2609 1390.1064 0.0000 0.0000 1790.3175 -7448.8694 308.1679 -9239.1870 -7433.3685 303.0701 -340.8259 -292.3586 29738.2915 57.5009 99.5076
TCL: Running FEP window   3: Lambda1 0.1    Lambda2 0.15000000000000002 [dLambda 0.05000000000000002]
TCL: Setting parameter firsttimestep to 0
TCL: Setting parameter alchLambda to 0.1
Info: NONBONDED TABLE R-SQUARED SPACING: 0.0625
Info: NONBONDED TABLE SIZE: 705 POINTS
TCL: Setting parameter alchLambda2 to 0.15000000000000002
Info: NONBONDED TABLE R-SQUARED SPACING: 0.0625
Info: NONBONDED TABLE SIZE: 705 POINTS
TCL: Running for 1500000 steps
ETITLE: TS BOND ANGLE DIHED IMPRP ELECT VDW BOUNDARY MISC KINETIC TOTAL TEMP POTENTIAL TOTALAVG TEMPAVG PRESSURE GPRESSURE VOLUME PRESSAVG GPRESSAVG
ENERGY: 0 0.7225 1.1123 1.1326 0.0000 -10632.2612 1391.3571 0.0000 0.0000 1789.4340 -7448.5026 308.0158 -9237.9366 -7448.5026 308.0158 -370.0182 -288.6332 29738.2915 -370.0182 -288.6332
ENERGY: 300000 1.1527 1.5680 1.3262 0.0000 -10496.7826 1399.9193 0.0000 0.0000 1790.3354 -7302.4810 308.1709 -9092.8164 -7421.4085 304.4461 175.8414 189.0923 29940.0797 22.0584 93.2825
ENERGY: 600000 0.4234 0.2278 0.4306 0.0000 -10677.3643 1477.4963 0.0000 0.0000 1719.1672 -7479.6191 295.9207 -9198.7863 -7429.5265 302.9415 98.7671 239.7316 30109.1091 -300.4659 -228.8336
ENERGY: 900000 1.8246 1.2967 0.8337 0.0000 -10675.3936 1464.5998 0.0000 0.0000 1687.9597 -7518.8791 290.5490 -9206.8388 -7455.4657 300.2138 -196.5318 -106.7912 30537.6578 -271.5396 -204.2371
ENERGY: 1200000 0.1142 0.2103 0.8442 0.0000 -10608.6274 1404.5884 0.0000 0.0000 1703.7660 -7499.1044 293.2697 -9202.8704 -7460.4702 300.0081 -279.9383 -162.7795 29876.6799 -282.2024 -216.0570
ENERGY: 1500000 0.8863 0.6088 0.3871 0.0000 -10552.5949 1323.9783 0.0000 0.0000 1717.1759 -7509.5585 295.5780 -9226.7344 -7457.3163 299.8145 -1116.1267 -1011.0354 29831.9964 -343.9548 -270.5268
TCL: Running FEP window   4: Lambda1 0.15000000000000002 Lambda2 0.2    [dLambda 0.04999999999999999]
TCL: Setting parameter firsttimestep to 0
TCL: Setting parameter alchLambda to 0.15000000000000002
Info: NONBONDED TABLE R-SQUARED SPACING: 0.0625
Info: NONBONDED TABLE SIZE: 705 POINTS
TCL: Setting parameter alchLambda2 to 0.2
Info: NONBONDED TABLE R-SQUARED SPACING: 0.0625
Info: NONBONDED TABLE SIZE: 705 POINTS
TCL: Running for 1500000 steps
ETITLE: TS BOND ANGLE DIHED IMPRP ELECT VDW BOUNDARY MISC KINETIC TOTAL TEMP POTENTIAL TOTALAVG TEMPAVG PRESSURE GPRESSURE VOLUME PRESSAVG GPRESSAVG
ENERGY: 0 0.8863 0.6088 0.3871 0.0000 -10552.5969 1324.2406 0.0000 0.0000 1716.2848 -7510.1894 295.4246 -9226.4742 -7510.1894 295.4246 -1096.1577 -1009.5944 29831.9964 -1096.1577 -1009.5944
ENERGY: 300000 0.6857 2.3856 0.4943 0.0000 -10583.8814 1415.8245 0.0000 0.0000 1736.8782 -7427.6131 298.9693 -9164.4913 -7411.6632 301.7898 1.0198 43.3451 29838.8382 -602.2048 -544.8653
ENERGY: 600000 0.2430 0.6159 0.4991 0.0000 -10646.0953 1406.6895 0.0000 0.0000 1761.5907 -7476.4570 303.2231 -9238.0477 -7424.5082 301.3041 -302.3412 -262.5542 29915.7304 -397.5172 -342.9866
ENERGY: 900000 0.3941 5.4480 0.6677 0.0000 -10584.4702 1438.6127 0.0000 0.0000 1696.2134 -7443.1343 291.9697 -9139.3477 -7428.8915 300.7595 12.6541 116.9176 30300.6742 -272.2550 -207.7730
ENERGY: 1200000 0.7998 0.8206 0.7361 0.0000 -10407.8375 1322.6260 0.0000 0.0000 1755.5168 -7327.3381 302.1776 -9082.8549 -7418.6925 300.2474 -667.4747 -640.7188 30340.0721 -212.9876 -152.4022
ENERGY: 1500000 0.9686 0.7073 0.7208 0.0000 -10576.1501 1449.5677 0.0000 0.0000 1766.7704 -7357.4153 304.1147 -9124.1857 -7412.3465 301.1893 166.1291 247.2701 30220.4494 -213.1775 -151.9065
TCL: Running FEP window   5: Lambda1 0.2    Lambda2 0.25   [dLambda 0.04999999999999999]
TCL: Setting parameter firsttimestep to 0
TCL: Setting parameter alchLambda to 0.2
Info: NONBONDED TABLE R-SQUARED SPACING: 0.0625
Info: NONBONDED TABLE SIZE: 705 POINTS
TCL: Setting parameter alchLambda2 to 0.25
Info: NONBONDED TABLE R-SQUARED SPACING: 0.0625
Info: NONBONDED TABLE SIZE: 705 POINTS
TCL: Running for 1500000 steps
ETITLE: TS BOND ANGLE DIHED IMPRP ELECT VDW BOUNDARY MISC KINETIC TOTAL TEMP POTENTIAL TOTALAVG TEMPAVG PRESSURE GPRESSURE VOLUME PRESSAVG GPRESSAVG
ENERGY: 0 0.9686 0.7073 0.7208 0.0000 -10576.1494 1450.1516 0.0000 0.0000 1765.8813 -7357.7197 303.9617 -9123.6011 -7357.7197 303.9617 163.9050 249.1951 30220.4494 163.9050 249.1951
ENERGY: 300000 0.2525 1.6884 2.6379 0.0000 -10670.7070 1456.5060 0.0000 0.0000 1668.8117 -7540.8104 287.2530 -9209.6221 -7455.8780 294.3355 159.1290 196.6712 29915.2951 92.7063 154.4430
ENERGY: 600000 1.2872 0.8767 0.6654 0.0000 -10569.2769 1349.2192 0.0000 0.0000 1767.3609 -7449.8674 304.2163 -9217.2283 -7430.1547 299.2145 -900.1352 -830.1976 30463.5214 19.4144 74.4429
ENERGY: 900000 0.1363 0.9622 0.9419 0.0000 -10705.4374 1512.1273 0.0000 0.0000 1749.1818 -7442.0878 301.0872 -9191.2696 -7440.6373 299.1615 750.6784 857.1110 29770.6731 139.2752 186.4559
ENERGY: 1200000 0.6173 0.8571 0.2700 0.0000 -10708.8543 1478.1434 0.0000 0.0000 1763.2225 -7465.7440 303.5040 -9228.9666 -7441.7376 300.0845 267.7397 349.9512 30007.0236 102.4265 152.0522
ENERGY: 1500000 0.1144 0.7984 0.9475 0.0000 -10512.7331 1420.6846 0.0000 0.0000 1720.6418 -7369.5465 296.1746 -9090.1883 -7446.3103 299.1765 59.2308 72.4946 30457.2192 25.0310 78.6469
TCL: Running FEP window   6: Lambda1 0.25   Lambda2 0.3    [dLambda 0.04999999999999999]
TCL: Setting parameter firsttimestep to 0
TCL: Setting parameter alchLambda to 0.25
Info: NONBONDED TABLE R-SQUARED SPACING: 0.0625
Info: NONBONDED TABLE SIZE: 705 POINTS
TCL: Setting parameter alchLambda2 to 0.3
Info: NONBONDED TABLE R-SQUARED SPACING: 0.0625
Info: NONBONDED TABLE SIZE: 705 POINTS
TCL: Running for 1500000 steps
ETITLE: TS BOND ANGLE DIHED IMPRP ELECT VDW BOUNDARY MISC KINETIC TOTAL TEMP POTENTIAL TOTALAVG TEMPAVG PRESSURE GPRESSURE VOLUME PRESSAVG GPRESSAVG
ENERGY: 0 0.1144 0.7984 0.9475 0.0000 -10512.7346 1420.5864 0.0000 0.0000 1719.7887 -7370.4992 296.0277 -9090.2879 -7370.4992 296.0277 -4.6864 72.8357 30457.2192 -4.6864 72.8357
ENERGY: 300000 0.1110 0.3910 1.5159 0.0000 -10622.1953 1453.4591 0.0000 0.0000 1753.2201 -7413.4981 301.7823 -9166.7182 -7423.2547 300.0938 279.9553 235.1601 29983.8135 -241.2071 -206.4486
ENERGY: 600000 1.9977 0.3918 0.6306 0.0000 -10446.8787 1341.7974 0.0000 0.0000 1738.6935 -7363.3677 299.2818 -9102.0612 -7416.2086 301.7705 -532.3214 -509.2543 30441.9911 -340.6694 -296.2253
ENERGY: 900000 0.2185 1.2258 1.4022 0.0000 -10759.2912 1535.0014 0.0000 0.0000 1700.8601 -7520.5832 292.7695 -9221.4433 -7427.1217 301.8341 613.4461 730.1387 30095.3746 -161.4777 -111.4188
ENERGY: 1200000 1.2719 0.4103 2.1653 0.0000 -10611.9377 1443.1227 0.0000 0.0000 1752.9623 -7412.0052 301.7379 -9164.9675 -7432.4551 301.4872 264.8818 331.8001 29555.8498 -111.7636 -54.8701
ENERGY: 1500000 0.1884 0.5185 0.8254 0.0000 -10672.3612 1441.9330 0.0000 0.0000 1773.8190 -7455.0768 305.3280 -9228.8958 -7437.1051 301.0927 -80.6454 -83.3123 30218.6946 -103.5015 -46.9686
TCL: Running FEP window   7: Lambda1 0.3    Lambda2 0.35   [dLambda 0.04999999999999999]
TCL: Setting parameter firsttimestep to 0
TCL: Setting parameter alchLambda to 0.3
Info: NONBONDED TABLE R-SQUARED SPACING: 0.0625
Info: NONBONDED TABLE SIZE: 705 POINTS
TCL: Setting parameter alchLambda2 to 0.35
Info: NONBONDED TABLE R-SQUARED SPACING: 0.0625
Info: NONBONDED TABLE SIZE: 705 POINTS
TCL: Running for 1500000 steps
ETITLE: TS BOND ANGLE DIHED IMPRP ELECT VDW BOUNDARY MISC KINETIC TOTAL TEMP POTENTIAL TOTALAVG TEMPAVG PRESSURE GPRESSURE VOLUME PRESSAVG GPRESSAVG
ENERGY: 0 0.1884 0.5185 0.8254 0.0000 -10672.3609 1442.0762 0.0000 0.0000 1772.9609 -7455.7914 305.1803 -9228.7524 -7455.7914 305.1803 -155.4248 -81.1286 30218.6946 -155.4248 -81.1286
ENERGY: 300000 0.0130 1.4591 0.1165 0.0000 -10635.6469 1446.0001 0.0000 0.0000 1713.3588 -7474.6994 294.9209 -9188.0583 -7462.8944 297.5485 -12.9974 32.0999 30080.1084 -414.3366 -349.2810
ENERGY: 600000 0.1279 0.0861 0.1741 0.0000 -10802.9052 1490.3672 0.0000 0.0000 1798.3858 -7513.7641 309.5567 -9312.1499 -7451.8712 300.8224 345.9870 306.4580 29879.2996 -120.0205 -67.8993
ENERGY: 900000 0.0951 1.3840 0.6273 0.0000 -10540.6292 1400.8631 0.0000 0.0000 1750.9940 -7386.6657 301.3991 -9137.6597 -7455.3991 299.9496 -141.3558 -71.5853 30054.4999 -90.7987 -29.5391
ENERGY: 1200000 0.1891 0.7082 0.9119 0.0000 -10480.2350 1297.1328 0.0000 0.0000 1714.2298 -7467.0631 295.0709 -9181.2929 -7435.9602 299.9051 -1257.6236 -1170.2576 30325.6985 -142.2391 -81.4057
ENERGY: 1500000 1.4152 1.2905 0.5106 0.0000 -10500.1962 1325.9597 0.0000 0.0000 1708.3102 -7462.7099 294.0519 -9171.0201 -7439.9984 299.5503 -1028.2469 -934.8500 30248.4626 -80.7531 -15.5671
TCL: Running FEP window   8: Lambda1 0.35   Lambda2 0.39999999999999997 [dLambda 0.04999999999999999]
TCL: Setting parameter firsttimestep to 0
TCL: Setting parameter alchLambda to 0.35
Info: NONBONDED TABLE R-SQUARED SPACING: 0.0625
Info: NONBONDED TABLE SIZE: 705 POINTS
TCL: Setting parameter alchLambda2 to 0.39999999999999997
Info: NONBONDED TABLE R-SQUARED SPACING: 0.0625
Info: NONBONDED TABLE SIZE: 705 POINTS
TCL: Running for 1500000 steps
ETITLE: TS BOND ANGLE DIHED IMPRP ELECT VDW BOUNDARY MISC KINETIC TOTAL TEMP POTENTIAL TOTALAVG TEMPAVG PRESSURE GPRESSURE VOLUME PRESSAVG GPRESSAVG
ENERGY: 0 1.4152 1.2905 0.5106 0.0000 -10500.1956 1325.8757 0.0000 0.0000 1707.4529 -7463.6508 293.9044 -9171.1036 -7463.6508 293.9044 -1023.3492 -934.7326 30248.4626 -1023.3492 -934.7326
ENERGY: 300000 0.1136 1.3088 0.3816 0.0000 -10452.0209 1410.9374 0.0000 0.0000 1769.7380 -7269.5413 304.6255 -9039.2793 -7435.3803 297.6918 277.9308 261.9879 30219.3191 -332.7551 -278.7903
ENERGY: 600000 1.1647 1.6017 1.8126 0.0000 -10685.0219 1527.7847 0.0000 0.0000 1747.9559 -7404.7024 300.8761 -9152.6583 -7449.5307 298.4572 806.5499 834.2371 29960.6796 -147.4091 -92.0162
ENERGY: 900000 0.4950 1.9094 1.7121 0.0000 -10608.5606 1400.4940 0.0000 0.0000 1760.5314 -7443.4187 303.0408 -9203.9501 -7457.5032 298.6812 -38.1435 -11.3004 29682.1168 -95.9087 -47.2503
ENERGY: 1200000 0.3214 3.5518 1.7460 0.0000 -10660.1161 1380.0172 0.0000 0.0000 1756.9119 -7517.5677 302.4178 -9274.4796 -7453.1933 300.2940 -689.4894 -641.6176 30138.2974 -185.2334 -139.7086
ENERGY: 1500000 0.1684 0.4227 0.7774 0.0000 -10748.3449 1488.8355 0.0000 0.0000 1735.0865 -7523.0544 298.6609 -9258.1409 -7462.8255 300.1525 172.2143 218.5448 29862.2096 -178.2885 -123.8525
TCL: Running FEP window   9: Lambda1 0.39999999999999997 Lambda2 0.44999999999999996 [dLambda 0.04999999999999999]
TCL: Setting parameter firsttimestep to 0
TCL: Setting parameter alchLambda to 0.39999999999999997
Info: NONBONDED TABLE R-SQUARED SPACING: 0.0625
Info: NONBONDED TABLE SIZE: 705 POINTS
TCL: Setting parameter alchLambda2 to 0.44999999999999996
Info: NONBONDED TABLE R-SQUARED SPACING: 0.0625
Info: NONBONDED TABLE SIZE: 705 POINTS
TCL: Running for 1500000 steps
ETITLE: TS BOND ANGLE DIHED IMPRP ELECT VDW BOUNDARY MISC KINETIC TOTAL TEMP POTENTIAL TOTALAVG TEMPAVG PRESSURE GPRESSURE VOLUME PRESSAVG GPRESSAVG
ENERGY: 0 0.1684 0.4227 0.7774 0.0000 -10748.3440 1489.0787 0.0000 0.0000 1734.1788 -7523.7179 298.5047 -9257.8967 -7523.7179 298.5047 130.7029 221.8736 29862.2096 130.7029 221.8736
ENERGY: 300000 0.3706 0.8640 1.3975 0.0000 -10553.5787 1407.1648 0.0000 0.0000 1772.0221 -7371.7596 305.0187 -9143.7817 -7453.3394 301.2598 -94.4966 -111.2292 30389.2109 -195.2682 -138.2465
ENERGY: 600000 1.4077 0.1872 0.1069 0.0000 -10545.0740 1354.2335 0.0000 0.0000 1724.1729 -7464.9658 296.7824 -9189.1387 -7452.8303 299.6125 -722.4737 -628.4245 30151.4422 -154.4954 -88.3307
ENERGY: 900000 0.0972 1.1570 0.9355 0.0000 -10576.6962 1349.0577 0.0000 0.0000 1741.8138 -7483.6350 299.8189 -9225.4489 -7451.1267 299.1163 -720.9256 -641.6506 29996.9822 -286.2445 -219.2090
ENERGY: 1200000 0.2656 1.6691 2.5707 0.0000 -10542.0448 1385.7083 0.0000 0.0000 1723.1967 -7428.6344 296.6143 -9151.8311 -7452.7030 298.5772 -269.1063 -252.0637 30025.2177 -196.2833 -136.1836
ENERGY: 1500000 1.1354 0.8119 1.3119 0.0000 -10563.2310 1431.6695 0.0000 0.0000 1755.8864 -7372.4158 302.2412 -9128.3022 -7447.8284 298.9566 -16.5322 26.3786 30279.9563 -208.2864 -150.1498
TCL: Running FEP window  10: Lambda1 0.44999999999999996 Lambda2 0.49999999999999994 [dLambda 0.04999999999999999]
TCL: Setting parameter firsttimestep to 0
TCL: Setting parameter alchLambda to 0.44999999999999996
Info: NONBONDED TABLE R-SQUARED SPACING: 0.0625
Info: NONBONDED TABLE SIZE: 705 POINTS
TCL: Setting parameter alchLambda2 to 0.49999999999999994
Info: NONBONDED TABLE R-SQUARED SPACING: 0.0625
Info: NONBONDED TABLE SIZE: 705 POINTS
TCL: Running for 1500000 steps
ETITLE: TS BOND ANGLE DIHED IMPRP ELECT VDW BOUNDARY MISC KINETIC TOTAL TEMP POTENTIAL TOTALAVG TEMPAVG PRESSURE GPRESSURE VOLUME PRESSAVG GPRESSAVG
ENERGY: 0 1.1354 0.8119 1.3119 0.0000 -10563.2307 1431.4105 0.0000 0.0000 1754.9940 -7373.5670 302.0876 -9128.5610 -7373.5670 302.0876 -64.2493 28.4717 30279.9563 -64.2493 28.4717
ENERGY: 300000 0.0044 0.7634 0.4951 0.0000 -10613.7217 1414.2652 0.0000 0.0000 1762.7417 -7435.4519 303.4212 -9198.1936 -7409.2852 303.1731 -115.1040 -65.3711 30052.0644 165.7314 232.0800
ENERGY: 600000 0.0102 0.6401 0.8190 0.0000 -10508.1877 1397.5631 0.0000 0.0000 1712.7748 -7396.3803 294.8204 -9109.1551 -7425.6469 299.7483 -155.2184 -96.2240 30309.4618 120.7086 194.4754
ENERGY: 900000 1.8304 0.9160 0.1187 0.0000 -10471.3135 1376.2314 0.0000 0.0000 1772.6988 -7319.5182 305.1351 -9092.2170 -7427.2393 300.2216 -497.0577 -422.2787 30717.7781 -61.0173 11.8266
ENERGY: 1200000 1.5755 1.0947 0.8969 0.0000 -10547.0915 1371.1581 0.0000 0.0000 1734.4227 -7437.9435 298.5467 -9172.3662 -7425.8977 299.1960 -358.9702 -298.1810 30196.1723 -84.9136 -14.2630
ENERGY: 1500000 0.5848 0.6030 0.9301 0.0000 -10738.9416 1538.9914 0.0000 0.0000 1718.7756 -7479.0567 295.8533 -9197.8323 -7435.4473 298.7057 1083.5164 1116.3765 29760.5969 -20.3428 45.3221
TCL: Running FEP window  11: Lambda1 0.49999999999999994 Lambda2 0.5499999999999999 [dLambda 0.04999999999999999]
TCL: Setting parameter firsttimestep to 0
TCL: Setting parameter alchLambda to 0.49999999999999994
Info: NONBONDED TABLE R-SQUARED SPACING: 0.0625
Info: NONBONDED TABLE SIZE: 705 POINTS
TCL: Setting parameter alchLambda2 to 0.5499999999999999
Info: NONBONDED TABLE R-SQUARED SPACING: 0.0625
Info: NONBONDED TABLE SIZE: 705 POINTS
TCL: Running for 1500000 steps
ETITLE: TS BOND ANGLE DIHED IMPRP ELECT VDW BOUNDARY MISC KINETIC TOTAL TEMP POTENTIAL TOTALAVG TEMPAVG PRESSURE GPRESSURE VOLUME PRESSAVG GPRESSAVG
ENERGY: 0 0.5848 0.6030 0.9301 0.0000 -10738.9405 1538.8940 0.0000 0.0000 1717.8883 -7480.0403 295.7006 -9197.9286 -7480.0403 295.7006 1042.9138 1119.6260 29760.5969 1042.9138 1119.6260
ENERGY: 300000 0.0911 1.1927 0.4780 0.0000 -10609.2159 1435.6863 0.0000 0.0000 1776.3037 -7395.4641 305.7557 -9171.7678 -7465.4870 299.8031 162.8929 161.0728 30019.5797 609.5108 662.2544
ENERGY: 600000 0.4696 0.8526 0.6439 0.0000 -10677.0881 1447.1479 0.0000 0.0000 1748.4065 -7479.5676 300.9537 -9227.9740 -7459.9916 298.9520 250.4990 327.1043 29704.3774 255.4298 303.8543
ENERGY: 900000 0.1268 2.8901 0.7982 0.0000 -10723.0884 1493.1849 0.0000 0.0000 1737.8136 -7488.2747 299.1303 -9226.0883 -7452.2844 299.5638 642.0865 697.2317 29550.5878 180.3068 225.6512
ENERGY: 1200000 1.9197 0.5630 1.6697 0.0000 -10617.0551 1448.0859 0.0000 0.0000 1780.4285 -7384.3882 306.4657 -9164.8167 -7456.3577 299.5967 112.3132 162.8191 30029.7717 172.5675 225.3526
ENERGY: 1500000 0.4051 1.8398 0.4060 0.0000 -10678.4987 1442.5668 0.0000 0.0000 1759.5101 -7473.7709 302.8650 -9233.2810 -7455.5684 299.7941 392.6633 475.5847 29573.4683 140.2699 198.2556
TCL: Running FEP window  12: Lambda1 0.5499999999999999 Lambda2 0.6    [dLambda 0.050000000000000044]
TCL: Setting parameter firsttimestep to 0
TCL: Setting parameter alchLambda to 0.5499999999999999
Info: NONBONDED TABLE R-SQUARED SPACING: 0.0625
Info: NONBONDED TABLE SIZE: 705 POINTS
TCL: Setting parameter alchLambda2 to 0.6
Info: NONBONDED TABLE R-SQUARED SPACING: 0.0625
Info: NONBONDED TABLE SIZE: 705 POINTS
TCL: Running for 1500000 steps
ETITLE: TS BOND ANGLE DIHED IMPRP ELECT VDW BOUNDARY MISC KINETIC TOTAL TEMP POTENTIAL TOTALAVG TEMPAVG PRESSURE GPRESSURE VOLUME PRESSAVG GPRESSAVG
ENERGY: 0 0.4051 1.8398 0.4060 0.0000 -10678.1960 1442.9574 0.0000 0.0000 1758.6175 -7473.9701 302.7113 -9232.5876 -7473.9701 302.7113 405.0139 486.7943 29573.4683 405.0139 486.7943
ENERGY: 300000 0.9286 1.9663 0.5841 0.0000 -10520.1339 1345.2761 0.0000 0.0000 1765.9686 -7405.4102 303.9767 -9171.3788 -7443.2919 301.8875 -752.2229 -696.1344 30262.6865 443.7206 514.7149
ENERGY: 600000 0.1641 0.6056 0.0919 0.0000 -10751.1118 1527.7217 0.0000 0.0000 1695.4901 -7527.0384 291.8452 -9222.5284 -7458.8246 299.8900 416.7832 536.0761 30247.7261 389.0616 459.9227
ENERGY: 900000 0.0060 0.6639 0.2673 0.0000 -10659.0998 1451.6223 0.0000 0.0000 1723.0384 -7483.5019 296.5871 -9206.5403 -7458.2715 299.0957 -29.5170 35.0604 30329.2398 294.6786 358.6709
ENERGY: 1200000 0.5518 2.3160 1.1701 0.0000 -10593.0955 1381.9600 0.0000 0.0000 1677.9314 -7529.1662 288.8228 -9207.0976 -7456.8975 298.3002 -718.4775 -634.6958 30497.9023 103.0836 168.8860
ENERGY: 1500000 0.4965 0.4742 0.2786 0.0000 -10626.9994 1431.9722 0.0000 0.0000 1681.4545 -7512.3234 289.4292 -9193.7779 -7463.3595 297.9537 -227.6009 -130.4043 30226.0158 89.2516 156.9354
TCL: Running FEP window  13: Lambda1 0.6    Lambda2 0.65   [dLambda 0.050000000000000044]
TCL: Setting parameter firsttimestep to 0
TCL: Setting parameter alchLambda to 0.6
Info: NONBONDED TABLE R-SQUARED SPACING: 0.0625
Info: NONBONDED TABLE SIZE: 705 POINTS
TCL: Setting parameter alchLambda2 to 0.65
Info: NONBONDED TABLE R-SQUARED SPACING: 0.0625
Info: NONBONDED TABLE SIZE: 705 POINTS
TCL: Running for 1500000 steps
ETITLE: TS BOND ANGLE DIHED IMPRP ELECT VDW BOUNDARY MISC KINETIC TOTAL TEMP POTENTIAL TOTALAVG TEMPAVG PRESSURE GPRESSURE VOLUME PRESSAVG GPRESSAVG
ENERGY: 0 0.4965 0.4742 0.2786 0.0000 -10627.0075 1432.1049 0.0000 0.0000 1680.5810 -7513.0722 289.2789 -9193.6532 -7513.0722 289.2789 -196.3865 -125.1609 30226.0158 -196.3865 -125.1609
ENERGY: 300000 0.2341 0.7126 0.0767 0.0000 -10551.9142 1455.1506 0.0000 0.0000 1699.8449 -7395.8953 292.5948 -9095.7402 -7432.1090 295.6384 293.0451 405.8231 30318.5948 61.2703 136.0571
ENERGY: 600000 0.9067 0.9754 1.3067 0.0000 -10420.0349 1316.2942 0.0000 0.0000 1698.7803 -7401.7716 292.4115 -9100.5519 -7420.2579 297.2304 -731.4149 -661.8715 30459.2601 -35.6523 16.4085
ENERGY: 900000 0.8176 2.7057 0.9121 0.0000 -10494.5003 1373.6245 0.0000 0.0000 1769.2062 -7347.2342 304.5340 -9116.4404 -7416.6928 298.8493 -358.4518 -244.6416 30485.8668 -23.4224 37.6384
ENERGY: 1200000 0.0140 1.2634 2.7552 0.0000 -10663.6921 1438.9670 0.0000 0.0000 1767.6442 -7453.0482 304.2651 -9220.6925 -7419.8069 299.3350 282.2614 277.6488 29577.3320 76.3834 134.7369
ENERGY: 1500000 0.0850 0.8288 1.6783 0.0000 -10587.3086 1373.0840 0.0000 0.0000 1750.3791 -7461.2535 301.2932 -9211.6326 -7427.5698 300.6880 -632.7497 -525.3704 30220.3248 6.8143 70.0104
TCL: Running FEP window  14: Lambda1 0.65   Lambda2 0.7000000000000001 [dLambda 0.050000000000000044]
TCL: Setting parameter firsttimestep to 0
TCL: Setting parameter alchLambda to 0.65
Info: NONBONDED TABLE R-SQUARED SPACING: 0.0625
Info: NONBONDED TABLE SIZE: 705 POINTS
TCL: Setting parameter alchLambda2 to 0.7000000000000001
Info: NONBONDED TABLE R-SQUARED SPACING: 0.0625
Info: NONBONDED TABLE SIZE: 705 POINTS
TCL: Running for 1500000 steps
ETITLE: TS BOND ANGLE DIHED IMPRP ELECT VDW BOUNDARY MISC KINETIC TOTAL TEMP POTENTIAL TOTALAVG TEMPAVG PRESSURE GPRESSURE VOLUME PRESSAVG GPRESSAVG
ENERGY: 0 0.0850 0.8288 1.6783 0.0000 -10587.4274 1372.8029 0.0000 0.0000 1749.5646 -7462.4678 301.1531 -9212.0324 -7462.4678 301.1531 -610.2465 -524.2630 30220.3248 -610.2465 -524.2630
ENERGY: 300000 0.2713 1.0876 0.6941 0.0000 -10576.8582 1421.2340 0.0000 0.0000 1795.0830 -7358.4882 308.9882 -9153.5712 -7415.8849 303.1596 -80.2668 21.8670 30268.2382 -223.9758 -136.6209
ENERGY: 600000 0.1617 1.2411 0.8460 0.0000 -10658.6507 1478.6528 0.0000 0.0000 1749.4586 -7428.2905 301.1348 -9177.7491 -7414.3966 301.9102 151.1946 256.7915 30171.6034 -282.2120 -206.3054
ENERGY: 900000 0.5520 1.3428 2.8880 0.0000 -10588.0241 1459.2694 0.0000 0.0000 1733.5950 -7390.3768 298.4042 -9123.9719 -7421.0375 301.3856 458.6920 510.6755 30039.7010 -160.4510 -99.8627
ENERGY: 1200000 0.0902 0.3670 1.5013 0.0000 -10723.6515 1453.1096 0.0000 0.0000 1731.9541 -7536.6294 298.1218 -9268.5835 -7438.7625 300.7838 -110.0771 -66.0232 30060.4392 -185.5990 -121.9312
ENERGY: 1500000 0.5093 1.1446 0.3853 0.0000 -10463.1186 1354.2899 0.0000 0.0000 1743.0133 -7363.7763 300.0254 -9106.7897 -7433.7703 300.5329 -423.3872 -326.8850 30061.8698 -247.9793 -180.5777
TCL: Running FEP window  15: Lambda1 0.7000000000000001 Lambda2 0.7500000000000001 [dLambda 0.050000000000000044]
TCL: Setting parameter firsttimestep to 0
TCL: Setting parameter alchLambda to 0.7000000000000001
Info: NONBONDED TABLE R-SQUARED SPACING: 0.0625
Info: NONBONDED TABLE SIZE: 705 POINTS
TCL: Setting parameter alchLambda2 to 0.7500000000000001
Info: NONBONDED TABLE R-SQUARED SPACING: 0.0625
Info: NONBONDED TABLE SIZE: 705 POINTS
TCL: Running for 1500000 steps
ETITLE: TS BOND ANGLE DIHED IMPRP ELECT VDW BOUNDARY MISC KINETIC TOTAL TEMP POTENTIAL TOTALAVG TEMPAVG PRESSURE GPRESSURE VOLUME PRESSAVG GPRESSAVG
ENERGY: 0 0.5093 1.1446 0.3853 0.0000 -10463.1656 1354.1881 0.0000 0.0000 1742.1613 -7364.7771 299.8787 -9106.9384 -7364.7771 299.8787 -394.3598 -324.9318 30061.8698 -394.3598 -324.9318
ENERGY: 300000 0.0829 0.1437 2.6898 0.0000 -10799.4221 1539.6994 0.0000 0.0000 1765.4831 -7491.3231 303.8931 -9256.8062 -7430.5600 301.8003 934.9380 992.8939 29478.0219 -25.0730 38.7097
ENERGY: 600000 0.3142 0.2760 1.9724 0.0000 -10567.4904 1358.4685 0.0000 0.0000 1789.3965 -7417.0628 308.0093 -9206.4593 -7429.4836 302.5541 -497.6152 -485.6900 30089.4750 -59.2896 -3.7815
ENERGY: 900000 1.2838 0.7743 3.4575 0.0000 -10705.8461 1496.4826 0.0000 0.0000 1751.4887 -7452.3593 301.4842 -9203.8480 -7424.1549 301.8633 638.1772 666.8563 29728.2944 -6.4198 57.5834
ENERGY: 1200000 0.0060 0.4058 1.1634 0.0000 -10665.8213 1489.0257 0.0000 0.0000 1756.9525 -7418.2680 302.4247 -9175.2204 -7427.5228 301.2167 416.3267 503.1470 30349.9933 -23.8103 35.9943
ENERGY: 1500000 0.1938 1.5702 0.6236 0.0000 -10478.9840 1362.7537 0.0000 0.0000 1742.3033 -7371.5395 299.9032 -9113.8427 -7425.6600 301.0416 -674.0592 -564.8688 30950.3534 -105.4473 -41.0603
TCL: Running FEP window  16: Lambda1 0.7500000000000001 Lambda2 0.8000000000000002 [dLambda 0.050000000000000044]
TCL: Setting parameter firsttimestep to 0
TCL: Setting parameter alchLambda to 0.7500000000000001
Info: NONBONDED TABLE R-SQUARED SPACING: 0.0625
Info: NONBONDED TABLE SIZE: 705 POINTS
TCL: Setting parameter alchLambda2 to 0.8000000000000002
Info: NONBONDED TABLE R-SQUARED SPACING: 0.0625
Info: NONBONDED TABLE SIZE: 705 POINTS
TCL: Running for 1500000 steps
ETITLE: TS BOND ANGLE DIHED IMPRP ELECT VDW BOUNDARY MISC KINETIC TOTAL TEMP POTENTIAL TOTALAVG TEMPAVG PRESSURE GPRESSURE VOLUME PRESSAVG GPRESSAVG
ENERGY: 0 0.1938 1.5702 0.6236 0.0000 -10478.8687 1362.9995 0.0000 0.0000 1741.4621 -7372.0195 299.7584 -9113.4816 -7372.0195 299.7584 -642.3399 -555.9347 30950.3534 -642.3399 -555.9347
ENERGY: 300000 0.4623 3.5121 0.6295 0.0000 -10508.1877 1414.5107 0.0000 0.0000 1692.6094 -7396.4637 291.3493 -9089.0731 -7389.3065 297.9913 -104.4360 4.6510 30384.3677 -174.6513 -76.4245
ENERGY: 600000 0.0205 2.0431 0.5841 0.0000 -10580.6556 1405.8031 0.0000 0.0000 1747.4191 -7424.7857 300.7837 -9172.2048 -7406.3066 298.2567 -13.9720 22.4424 30027.6778 -123.4201 -38.1912
ENERGY: 900000 0.0103 0.2932 1.2047 0.0000 -10717.9042 1460.4026 0.0000 0.0000 1712.9721 -7543.0212 294.8544 -9255.9934 -7433.9307 298.8770 -57.2275 -82.5078 30242.7908 -18.7191 45.5170
ENERGY: 1200000 0.1872 3.6464 0.3552 0.0000 -10550.3567 1398.7073 0.0000 0.0000 1779.1663 -7368.2943 306.2484 -9147.4606 -7425.6346 299.4274 -65.6345 -5.9693 30230.7504 55.4992 115.0491
ENERGY: 1500000 0.1504 0.5404 0.6188 0.0000 -10543.3234 1359.0073 0.0000 0.0000 1698.0320 -7484.9744 292.2827 -9183.0064 -7428.7829 299.2702 -676.4394 -643.4683 30479.1240 12.1828 71.8979
TCL: Running FEP window  17: Lambda1 0.8000000000000002 Lambda2 0.8500000000000002 [dLambda 0.050000000000000044]
TCL: Setting parameter firsttimestep to 0
TCL: Setting parameter alchLambda to 0.8000000000000002
Info: NONBONDED TABLE R-SQUARED SPACING: 0.0625
Info: NONBONDED TABLE SIZE: 705 POINTS
TCL: Setting parameter alchLambda2 to 0.8500000000000002
Info: NONBONDED TABLE R-SQUARED SPACING: 0.0625
Info: NONBONDED TABLE SIZE: 705 POINTS
TCL: Running for 1500000 steps
ETITLE: TS BOND ANGLE DIHED IMPRP ELECT VDW BOUNDARY MISC KINETIC TOTAL TEMP POTENTIAL TOTALAVG TEMPAVG PRESSURE GPRESSURE VOLUME PRESSAVG GPRESSAVG
ENERGY: 0 0.1504 0.5404 0.6188 0.0000 -10543.4320 1359.0600 0.0000 0.0000 1697.1607 -7485.9017 292.1328 -9183.0624 -7485.9017 292.1328 -719.4279 -637.3369 30479.1240 -719.4279 -637.3369
ENERGY: 300000 0.8310 0.4295 0.5944 0.0000 -10546.2653 1400.1847 0.0000 0.0000 1755.2830 -7388.9427 302.1374 -9144.2257 -7461.4729 295.6861 -118.0385 -13.8207 29969.3319 -233.4809 -153.6494
ENERGY: 600000 0.7868 0.6338 0.6072 0.0000 -10569.1544 1426.7671 0.0000 0.0000 1767.6496 -7372.7099 304.2660 -9140.3595 -7462.9375 297.5774 361.3214 360.9241 29975.0279 -118.9627 -56.5997
ENERGY: 900000 0.3608 0.7370 0.2230 0.0000 -10575.3143 1344.7669 0.0000 0.0000 1773.2985 -7455.9282 305.2384 -9229.2267 -7455.5496 298.3772 -712.6447 -603.9237 29987.4637 -75.6525 -9.2429
ENERGY: 1200000 0.0380 0.1699 3.0067 0.0000 -10722.5893 1482.9357 0.0000 0.0000 1776.2737 -7460.1654 305.7505 -9236.4390 -7445.7057 299.6664 249.5864 290.2837 30141.0957 -136.7797 -73.4845
ENERGY: 1500000 1.0070 0.7059 0.4951 0.0000 -10624.4251 1434.8725 0.0000 0.0000 1733.4858 -7453.8587 298.3854 -9187.3445 -7443.0910 299.5224 71.8127 164.9282 30139.4458 -144.5430 -76.2025
TCL: Running FEP window  18: Lambda1 0.8500000000000002 Lambda2 0.9000000000000002 [dLambda 0.050000000000000044]
TCL: Setting parameter firsttimestep to 0
TCL: Setting parameter alchLambda to 0.8500000000000002
Info: NONBONDED TABLE R-SQUARED SPACING: 0.0625
Info: NONBONDED TABLE SIZE: 705 POINTS
TCL: Setting parameter alchLambda2 to 0.9000000000000002
Info: NONBONDED TABLE R-SQUARED SPACING: 0.0625
Info: NONBONDED TABLE SIZE: 705 POINTS
TCL: Running for 1500000 steps
ETITLE: TS BOND ANGLE DIHED IMPRP ELECT VDW BOUNDARY MISC KINETIC TOTAL TEMP POTENTIAL TOTALAVG TEMPAVG PRESSURE GPRESSURE VOLUME PRESSAVG GPRESSAVG
ENERGY: 0 1.0070 0.7059 0.4951 0.0000 -10624.6535 1434.9140 0.0000 0.0000 1732.5973 -7454.9341 298.2325 -9187.5314 -7454.9341 298.2325 85.8741 171.2323 30139.4458 85.8741 171.2323
ENERGY: 300000 0.0607 0.5421 0.6051 0.0000 -10714.1897 1482.6587 0.0000 0.0000 1769.2878 -7461.0353 304.5480 -9230.3231 -7436.8382 300.3290 202.8353 307.7467 30216.5883 -310.8812 -224.8246
ENERGY: 600000 0.1945 1.0513 2.0335 0.0000 -10725.8396 1493.8867 0.0000 0.0000 1784.8021 -7443.8714 307.2185 -9228.6735 -7441.1843 301.1281 376.0378 461.3031 30191.1635 -156.5597 -79.8130
ENERGY: 900000 0.7118 0.6432 0.8870 0.0000 -10569.8733 1388.9745 0.0000 0.0000 1754.5422 -7424.1146 302.0098 -9178.6568 -7445.1044 300.6653 -212.1594 -166.2642 29971.6966 -173.3472 -113.3366
ENERGY: 1200000 0.0570 1.0132 1.1239 0.0000 -10582.9135 1441.4496 0.0000 0.0000 1742.9488 -7396.3210 300.0143 -9139.2698 -7442.2147 300.0957 131.2569 205.1364 30295.9568 -206.5185 -146.8791
ENERGY: 1500000 0.9393 2.7863 0.3796 0.0000 -10513.1543 1333.5660 0.0000 0.0000 1717.8411 -7457.6420 295.6925 -9175.4830 -7443.3873 299.8101 -624.7134 -597.7052 30239.1481 -217.6462 -158.6440
TCL: Running FEP window  19: Lambda1 0.9000000000000002 Lambda2 0.9500000000000003 [dLambda 0.050000000000000044]
TCL: Setting parameter firsttimestep to 0
TCL: Setting parameter alchLambda to 0.9000000000000002
Info: NONBONDED TABLE R-SQUARED SPACING: 0.0625
Info: NONBONDED TABLE SIZE: 705 POINTS
TCL: Setting parameter alchLambda2 to 0.9500000000000003
Info: NONBONDED TABLE R-SQUARED SPACING: 0.0625
Info: NONBONDED TABLE SIZE: 705 POINTS
TCL: Running for 1500000 steps
ETITLE: TS BOND ANGLE DIHED IMPRP ELECT VDW BOUNDARY MISC KINETIC TOTAL TEMP POTENTIAL TOTALAVG TEMPAVG PRESSURE GPRESSURE VOLUME PRESSAVG GPRESSAVG
ENERGY: 0 0.9393 2.7863 0.3796 0.0000 -10513.6011 1333.8432 0.0000 0.0000 1716.9651 -7458.6875 295.5417 -9175.6526 -7458.6875 295.5417 -660.3652 -586.7929 30239.1481 -660.3652 -586.7929
ENERGY: 300000 0.8392 0.7896 0.2586 0.0000 -10643.5710 1438.7221 0.0000 0.0000 1790.0983 -7412.8630 308.1301 -9202.9614 -7412.4905 301.1374 59.4761 129.4076 29992.6078 -253.6071 -178.3701
ENERGY: 600000 0.1186 1.1717 0.5462 0.0000 -10737.3216 1508.6790 0.0000 0.0000 1771.5951 -7455.2110 304.9452 -9226.8061 -7441.8395 301.5841 659.1791 798.3673 29468.9200 -205.9876 -130.5904
ENERGY: 900000 2.1843 0.4067 0.2075 0.0000 -10627.4052 1403.7933 0.0000 0.0000 1734.6154 -7486.1980 298.5798 -9220.8134 -7440.9795 301.0760 -269.1299 -193.1987 30056.3107 -250.5558 -177.5353
ENERGY: 1200000 0.3391 1.6029 0.2854 0.0000 -10655.0403 1422.2984 0.0000 0.0000 1735.9552 -7494.5593 298.8105 -9230.5145 -7445.7722 300.1947 -452.2696 -350.6019 30249.1329 -209.0636 -137.7295
ENERGY: 1500000 0.5177 0.7095 0.4853 0.0000 -10634.2865 1485.2835 0.0000 0.0000 1754.1128 -7393.1778 301.9359 -9147.2905 -7438.4309 300.0836 299.6564 329.4487 30545.8901 -162.4370 -89.9003
TCL: Running FEP window  20: Lambda1 0.9500000000000003 Lambda2 1.0    [dLambda 0.04999999999999971]
TCL: Setting parameter firsttimestep to 0
TCL: Setting parameter alchLambda to 0.9500000000000003
Info: NONBONDED TABLE R-SQUARED SPACING: 0.0625
Info: NONBONDED TABLE SIZE: 705 POINTS
TCL: Setting parameter alchLambda2 to 1.0
Info: NONBONDED TABLE R-SQUARED SPACING: 0.0625
Info: NONBONDED TABLE SIZE: 705 POINTS
TCL: Running for 1500000 steps
ETITLE: TS BOND ANGLE DIHED IMPRP ELECT VDW BOUNDARY MISC KINETIC TOTAL TEMP POTENTIAL TOTALAVG TEMPAVG PRESSURE GPRESSURE VOLUME PRESSAVG GPRESSAVG
ENERGY: 0 0.5177 0.7095 0.4853 0.0000 -10634.5179 1485.0094 0.0000 0.0000 1753.2301 -7394.5659 301.7840 -9147.7960 -7394.5659 301.7840 242.5234 328.7163 30545.8901 242.5234 328.7163
ENERGY: 300000 0.2929 1.7202 4.8095 0.0000 -10534.7437 1400.3103 0.0000 0.0000 1674.3330 -7453.2777 288.2034 -9127.6107 -7418.2480 299.3586 70.3112 139.5983 29850.1059 4.1120 74.8318
ENERGY: 600000 0.2181 0.4367 0.4317 0.0000 -10493.2506 1335.4956 0.0000 0.0000 1645.6579 -7511.0107 283.2676 -9156.6686 -7430.1707 296.3844 -842.9207 -776.0995 30224.2814 -339.0535 -276.6927
ENERGY: 900000 0.8297 0.6448 0.1771 0.0000 -10673.1402 1475.9430 0.0000 0.0000 1760.8247 -7434.7210 303.0913 -9195.5456 -7433.6049 297.3399 604.0597 645.6992 29609.9386 -223.4357 -162.9132
ENERGY: 1200000 0.4493 2.9289 1.6317 0.0000 -10630.9892 1423.6565 0.0000 0.0000 1747.2120 -7455.1108 300.7481 -9202.3228 -7437.6683 298.8102 -149.2575 -38.5870 30106.6539 -82.4181 -15.8168
ENERGY: 1500000 1.7188 1.7964 0.7258 0.0000 -10535.6002 1409.0461 0.0000 0.0000 1721.7494 -7400.5638 296.3652 -9122.3132 -7436.7827 299.0204 201.6817 285.2407 30005.2314 -91.2088 -22.7498
TCL: Exiting due to exit command.
