Info: SIMULATION PARAMETERS:
Info: TIMESTEP               2
Info: NUMBER OF STEPS        0
Info: STEPS PER CYCLE        10
Info: PERIODIC CELL BASIS 1  41.123 0 0
Info: PERIODIC CELL BASIS 2  0 47.921 0
Info: PERIODIC CELL BASIS 3  0 0 39.119
Info: PERIODIC CELL CENTER   0 0 0
Info: WRAPPING WATERS AROUND PERIODIC BOUNDARIES ON OUTPUT.
Info: WRAPPING ALL CLUSTERS AROUND PERIODIC BOUNDARIES ON OUTPUT.
Info: FIRST LDB TIMESTEP     50
Info: LAST LDB TIMESTEP     -1
Info: HOM BACKGROUND SCALING 1
Info: PME BACKGROUND SCALING 1
Info: MIN ATOMS PER PATCH    40
Info: EMPTY PATCH LOAD       40 ATOMS
Info: INITIAL TEMPERATURE    300
Info: CENTER OF MASS MOVING INITIALLY? NO
Info: DIELECTRIC             1
Info: EXCLUDE                SCALED ONE-FOUR
Info: 1-4 ELECTROSTATICS SCALED BY 0.833333
Info: MODIFIED 1-4 VDW PARAMETERS WILL BE USED
Info: DCD FILENAME           mobley_7608435_min.dcd
Info: DCD FREQUENCY          5000
Info: DCD FIRST STEP         5000
Info: DCD FILE WILL CONTAIN UNIT CELL DATA
Info: XST FILENAME           mobley_7608435_min.xst
Info: XST FREQUENCY          5000
Info: NO VELOCITY DCD OUTPUT
Info: NO FORCE DCD OUTPUT
Info: OUTPUT FILENAME        mobley_7608435_min
Info: BINARY OUTPUT FILES WILL BE USED
Info: RESTART FILENAME       mobley_7608435_min.restart
Info: RESTART FREQUENCY      5000
Info: BINARY RESTART FILES WILL BE USED
Info: CUTOFF                 9
Info: PAIRLIST DISTANCE      11
Info: PAIRLIST SHRINK RATE   0.01
Info: PAIRLIST GROW RATE     0.01
Info: PAIRLIST TRIGGER       0.3
Info: PAIRLISTS PER CYCLE    2
Info: PAIRLISTS ENABLED
Info: MARGIN                 8
Info: HYDROGEN GROUP CUTOFF  2.5
Info: PATCH DIMENSION        21.5
Info: ENERGY OUTPUT STEPS    5000
Info: ENERGY EVALUATION STEPS    5000
Info: OUTPUT ENERGY PRECISION 4
Info: CROSSTERM ENERGY INCLUDED IN DIHEDRAL
Info: TIMING OUTPUT STEPS    50000
Info: PRESSURE OUTPUT STEPS  5000
Info: LANGEVIN DYNAMICS ACTIVE
Info: LANGEVIN TEMPERATURE   300
Info: LANGEVIN USING BBK INTEGRATOR
Info: LANGEVIN DAMPING COEFFICIENT IS 1 INVERSE PS
Info: LANGEVIN DYNAMICS APPLIED TO HYDROGENS
Info: LANGEVIN PISTON PRESSURE CONTROL ACTIVE
Info:        TARGET PRESSURE IS 1.01325 BAR
Info:     OSCILLATION PERIOD IS 50 FS
Info:             DECAY TIME IS 25 FS
Info:     PISTON TEMPERATURE IS 300 K
Info:       PRESSURE CONTROL IS GROUP-BASED
Info:    INITIAL STRAIN RATE IS 0 0 0
Info:       CELL FLUCTUATION IS ISOTROPIC
Info: PARTICLE MESH EWALD (PME) ACTIVE
Info: PME TOLERANCE               1e-06
Info: PME EWALD COEFFICIENT       0.348832
Info: PME INTERPOLATION ORDER     4
Info: PME GRID DIMENSIONS         44 48 40
Info: PME MAXIMUM GRID SPACING    1
Info: FULL ELECTROSTATIC EVALUATION FREQUENCY      2
Info: USING VERLET I (r-RESPA) MTS SCHEME.
Info: C1 SPLITTING OF LONG RANGE ELECTROSTATICS
Info: PLACING ATOMS IN PATCHES BY HYDROGEN GROUPS
Info: RIGID BONDS TO HYDROGEN : ALL
Info:         ERROR TOLERANCE : 1e-08
Info:          MAX ITERATIONS : 100
Info: RIGID WATER USING SETTLE ALGORITHM
Info: RANDOM NUMBER SEED     1741395395
Info: USE HYDROGEN BONDS?    NO
Info: Using AMBER format force field!
Info: AMBER PARM FILE        mobley_7608435.prmtop
Info: COORDINATE PDB         mobley_7608435.pdb
Info: Exclusions will be read from PARM file!
Info: SCNB (VDW SCALING)     2
Info: USING ARITHMETIC MEAN TO COMBINE L-J SIGMA PARAMETERS
Info: SUMMARY OF PARAMETERS:
Info: 9 BONDS
Info: 11 ANGLES
Info:   11 HARMONIC
Info:   0 COSINE-BASED
Info: 20 DIHEDRAL
Info: 0 IMPROPER
Info: 0 CROSSTERM
Info: 0 VDW
Info: 36 VDW_PAIRS
Info: 0 NBTHOLE_PAIRS
Info: STRUCTURE SUMMARY:
Info: 5588 ATOMS
Info: 5587 BONDS
Info: 52 ANGLES
Info: 75 DIHEDRALS
Info: 0 IMPROPERS
Info: 0 CROSSTERMS
Info: 5704 EXCLUSIONS
Info: 5577 RIGID BONDS
Info: 11187 DEGREES OF FREEDOM
Info: 1864 HYDROGEN GROUPS
Info: 4 ATOMS IN LARGEST HYDROGEN GROUP
Info: 1864 MIGRATION GROUPS
Info: 4 ATOMS IN LARGEST MIGRATION GROUP
Info: TOTAL MASS = 33541.9 amu
Info: TOTAL CHARGE = 9.99831e-05 e
Info: MASS DENSITY = 0.722517 g/cm^3
Info: ATOM DENSITY = 0.0724866 atoms/A^3
Info: ADDED 0 IMPLICIT EXCLUSIONS
Info: NONBONDED TABLE R-SQUARED SPACING: 0.0625
Info: NONBONDED TABLE SIZE: 705 POINTS
Info: REMOVING COM VELOCITY -0.0297114 0.221339 0.0398424
TCL: Minimizing for 2000 steps
ETITLE: TS BOND ANGLE DIHED IMPRP ELECT VDW BOUNDARY MISC KINETIC TOTAL TEMP POTENTIAL TOTAL3 TEMPAVG PRESSURE GPRESSURE VOLUME PRESSAVG GPRESSAVG
ENERGY: 0 0.1647 1.0599 20.7253 0.0000 -17251.0884 1943.5572 0.0000 0.0000 0.0000 -15285.5814 0.0000 -15285.5814 -15285.5814 0.0000 11029.8974 -15375.4518 77090.0640 11029.8974 -15375.4518
ENERGY: 400 54.0488 10.3641 19.7119 0.0000 -23268.7436 3339.2860 0.0000 0.0000 0.0000 -19845.3328 0.0000 -19845.3328 -19845.3328 0.0000 15558.1652 9638.7941 77090.0640 15558.1652 9638.7941
ENERGY: 800 9.5955 5.2836 19.3047 0.0000 -24544.8672 3951.7740 0.0000 0.0000 0.0000 -20558.9094 0.0000 -20558.9094 -20558.9094 0.0000 17988.0299 11573.2858 77090.0640 17988.0299 11573.2858
ENERGY: 1200 0.5130 1.6244 19.1153 0.0000 -24979.9753 4165.7733 0.0000 0.0000 0.0000 -20792.9493 0.0000 -20792.9493 -20792.9493 0.0000 18923.6747 12395.7397 77090.0640 18923.6747 12395.7397
ENERGY: 1600 0.7027 1.2871 19.3610 0.0000 -25177.7813 4248.0475 0.0000 0.0000 0.0000 -20908.3830 0.0000 -20908.3830 -20908.3830 0.0000 19286.8941 12748.6200 77090.0640 19286.8941 12748.6200
ENERGY: 2000 0.6194 1.4403 19.2204 0.0000 -25398.1837 4362.3961 0.0000 0.0000 0.0000 -21014.5074 0.0000 -21014.5074 -21014.5074 0.0000 19821.7922 12992.8376 77090.0640 19821.7922 12992.8376
TCL: Exiting due to exit command.
Info: NAMD 3.0.1 for Linux-x86_64-multicore
Info: Please visit http://www.ks.uiuc.edu/Research/namd/
Info: for updates, documentation, and support information.
Info: Please cite Phillips et al., J. Chem. Phys. 153:044130 (2020) doi:10.1063/5.0014475
Info: in all publications reporting results obtained with NAMD.
Info: Based on Charm++/Converse 80000 for multicore-linux-x86_64-gcc
Info: Built Mon Oct 14 11:11:06 CDT 2024 by dhardy on athine.ks.uiuc.edu
Info: 1 NAMD  3.0.1  Linux-x86_64-multicore  16    k009  z5358697
Info: Running on 16 processors, 1 nodes, 1 physical nodes.
Info: CPU topology information available.
Info: Charm++/Converse parallel runtime startup completed at 0.00937381 s
Info: 1043.45 MB of memory in use based on /proc/self/stat
Info: Configuration file is mobley_7608435_equil.namd
Info: Working in the current directory /srv/scratch/z5358697/prod_prep_9/7608435
TCL: Running 25000 steps at 30 kelvin.
TCL: Suspending until startup complete.
Info: SIMULATION PARAMETERS:
Info: TIMESTEP               2
Info: NUMBER OF STEPS        0
Info: STEPS PER CYCLE        10
Info: PERIODIC CELL BASIS 1  41.123 0 0
Info: PERIODIC CELL BASIS 2  0 47.921 0
Info: PERIODIC CELL BASIS 3  0 0 39.119
Info: PERIODIC CELL CENTER   0 0 0
Info: WRAPPING WATERS AROUND PERIODIC BOUNDARIES ON OUTPUT.
Info: WRAPPING ALL CLUSTERS AROUND PERIODIC BOUNDARIES ON OUTPUT.
Info: FIRST LDB TIMESTEP     50
Info: LAST LDB TIMESTEP     -1
Info: HOM BACKGROUND SCALING 1
Info: PME BACKGROUND SCALING 1
Info: MIN ATOMS PER PATCH    40
Info: EMPTY PATCH LOAD       40 ATOMS
Info: INITIAL TEMPERATURE    300
Info: CENTER OF MASS MOVING INITIALLY? NO
Info: DIELECTRIC             1
Info: EXCLUDE                SCALED ONE-FOUR
Info: 1-4 ELECTROSTATICS SCALED BY 0.833333
Info: MODIFIED 1-4 VDW PARAMETERS WILL BE USED
Info: DCD FILENAME           mobley_7608435_equil.dcd
Info: DCD FREQUENCY          5000
Info: DCD FIRST STEP         5000
Info: DCD FILE WILL CONTAIN UNIT CELL DATA
Info: XST FILENAME           mobley_7608435_equil.xst
Info: XST FREQUENCY          5000
Info: NO VELOCITY DCD OUTPUT
Info: NO FORCE DCD OUTPUT
Info: OUTPUT FILENAME        mobley_7608435_equil
Info: BINARY OUTPUT FILES WILL BE USED
Info: RESTART FILENAME       mobley_7608435_equil.restart
Info: RESTART FREQUENCY      5000
Info: BINARY RESTART FILES WILL BE USED
Info: CUTOFF                 9
Info: PAIRLIST DISTANCE      11
Info: PAIRLIST SHRINK RATE   0.01
Info: PAIRLIST GROW RATE     0.01
Info: PAIRLIST TRIGGER       0.3
Info: PAIRLISTS PER CYCLE    2
Info: PAIRLISTS ENABLED
Info: MARGIN                 8
Info: HYDROGEN GROUP CUTOFF  2.5
Info: PATCH DIMENSION        21.5
Info: ENERGY OUTPUT STEPS    5000
Info: ENERGY EVALUATION STEPS    5000
Info: OUTPUT ENERGY PRECISION 4
Info: CROSSTERM ENERGY INCLUDED IN DIHEDRAL
Info: TIMING OUTPUT STEPS    50000
Info: PRESSURE OUTPUT STEPS  5000
Info: LANGEVIN DYNAMICS ACTIVE
Info: LANGEVIN TEMPERATURE   30
Info: LANGEVIN USING BBK INTEGRATOR
Info: LANGEVIN DAMPING COEFFICIENT IS 1 INVERSE PS
Info: LANGEVIN DYNAMICS APPLIED TO HYDROGENS
Info: LANGEVIN PISTON PRESSURE CONTROL ACTIVE
Info:        TARGET PRESSURE IS 1.01325 BAR
Info:     OSCILLATION PERIOD IS 50 FS
Info:             DECAY TIME IS 25 FS
Info:     PISTON TEMPERATURE IS 300 K
Info:       PRESSURE CONTROL IS GROUP-BASED
Info:    INITIAL STRAIN RATE IS 0 0 0
Info:       CELL FLUCTUATION IS ISOTROPIC
Info: PARTICLE MESH EWALD (PME) ACTIVE
Info: PME TOLERANCE               1e-06
Info: PME EWALD COEFFICIENT       0.348832
Info: PME INTERPOLATION ORDER     4
Info: PME GRID DIMENSIONS         44 48 40
Info: PME MAXIMUM GRID SPACING    1
Info: FULL ELECTROSTATIC EVALUATION FREQUENCY      2
Info: USING VERLET I (r-RESPA) MTS SCHEME.
Info: C1 SPLITTING OF LONG RANGE ELECTROSTATICS
Info: PLACING ATOMS IN PATCHES BY HYDROGEN GROUPS
Info: RIGID BONDS TO HYDROGEN : ALL
Info:         ERROR TOLERANCE : 1e-08
Info:          MAX ITERATIONS : 100
Info: RIGID WATER USING SETTLE ALGORITHM
Info: RANDOM NUMBER SEED     1741395414
Info: USE HYDROGEN BONDS?    NO
Info: Using AMBER format force field!
Info: AMBER PARM FILE        mobley_7608435.prmtop
Info: COORDINATE PDB         mobley_7608435.pdb
Info: Exclusions will be read from PARM file!
Info: SCNB (VDW SCALING)     2
Info: USING ARITHMETIC MEAN TO COMBINE L-J SIGMA PARAMETERS
Info: BINARY COORDINATES     mobley_7608435_min.coor
Info: SUMMARY OF PARAMETERS:
Info: 9 BONDS
Info: 11 ANGLES
Info:   11 HARMONIC
Info:   0 COSINE-BASED
Info: 20 DIHEDRAL
Info: 0 IMPROPER
Info: 0 CROSSTERM
Info: 0 VDW
Info: 36 VDW_PAIRS
Info: 0 NBTHOLE_PAIRS
Info: STRUCTURE SUMMARY:
Info: 5588 ATOMS
Info: 5587 BONDS
Info: 52 ANGLES
Info: 75 DIHEDRALS
Info: 0 IMPROPERS
Info: 0 CROSSTERMS
Info: 5704 EXCLUSIONS
Info: 5577 RIGID BONDS
Info: 11187 DEGREES OF FREEDOM
Info: 1864 HYDROGEN GROUPS
Info: 4 ATOMS IN LARGEST HYDROGEN GROUP
Info: 1864 MIGRATION GROUPS
Info: 4 ATOMS IN LARGEST MIGRATION GROUP
Info: TOTAL MASS = 33541.9 amu
Info: TOTAL CHARGE = 9.99831e-05 e
Info: MASS DENSITY = 0.722517 g/cm^3
Info: ATOM DENSITY = 0.0724866 atoms/A^3
Info: ADDED 0 IMPLICIT EXCLUSIONS
Info: NONBONDED TABLE R-SQUARED SPACING: 0.0625
Info: NONBONDED TABLE SIZE: 705 POINTS
Info: REMOVING COM VELOCITY -0.2127 0.0774424 -0.133287
TCL: Running for 25000 steps
ETITLE: TS BOND ANGLE DIHED IMPRP ELECT VDW BOUNDARY MISC KINETIC TOTAL TEMP POTENTIAL TOTAL3 TEMPAVG PRESSURE GPRESSURE VOLUME PRESSAVG GPRESSAVG
ENERGY: 0 0.6194 1.4403 19.2204 0.0000 -25398.1837 4362.3961 0.0000 0.0000 3395.2152 -17619.2922 305.4528 -21014.5074 -17618.5716 305.4528 180.0313 223.7896 77090.0640 180.0313 223.7896
ENERGY: 5000 0.2685 1.2091 18.8226 0.0000 -26774.0272 4586.8235 0.0000 0.0000 343.8622 -21823.0413 30.9358 -22166.9035 -21822.7264 48.8618 -62.6059 -21.4853 53450.1787 3.0398 3.0226
ENERGY: 10000 0.3012 1.8604 18.1089 0.0000 -26858.6495 4609.5396 0.0000 0.0000 334.8693 -21893.9701 30.1267 -22228.8394 -21893.0766 30.2900 -108.0647 -49.5529 53352.1695 4.5927 4.5389
ENERGY: 15000 0.3566 2.0991 18.6178 0.0000 -26833.4930 4562.8414 0.0000 0.0000 341.3977 -21908.1805 30.7141 -22249.5782 -21906.9292 30.2597 -331.3881 -287.7991 53354.6242 -1.6086 -1.6843
ENERGY: 20000 0.4679 1.7795 18.4609 0.0000 -27124.4927 4836.1741 0.0000 0.0000 330.4731 -21937.1373 29.7312 -22267.6104 -21936.6833 29.9175 918.5367 957.1775 52901.8597 0.1242 -0.1043
ENERGY: 25000 0.5154 1.2371 18.3128 0.0000 -26896.9098 4591.2062 0.0000 0.0000 337.6122 -21948.0260 30.3735 -22285.6382 -21947.3218 30.0897 -290.6793 -237.3259 53301.7536 4.7581 4.7151
TCL: Running 25000 steps at 60 kelvin.
TCL: Setting parameter langevinTemp to 60
TCL: Running for 25000 steps
ETITLE: TS BOND ANGLE DIHED IMPRP ELECT VDW BOUNDARY MISC KINETIC TOTAL TEMP POTENTIAL TOTAL3 TEMPAVG PRESSURE GPRESSURE VOLUME PRESSAVG GPRESSAVG
ENERGY: 25000 0.5154 1.2371 18.3128 0.0000 -26896.9098 4591.2062 0.0000 0.0000 337.4427 -21948.1955 30.3583 -22285.6382 -21947.3259 30.3583 -284.4741 -237.5158 53301.7536 -284.4741 -237.5158
ENERGY: 30000 0.3707 2.6975 18.2102 0.0000 -26466.4319 4467.5330 0.0000 0.0000 663.8042 -21313.8161 59.7196 -21977.6204 -21312.2863 57.1343 -222.4696 -168.0838 53690.3734 1.4550 1.7143
ENERGY: 35000 0.7941 2.1126 19.1444 0.0000 -26357.0786 4375.9646 0.0000 0.0000 671.0743 -21287.9887 60.3736 -21959.0629 -21285.8911 60.2854 -659.6927 -609.3266 53878.1969 3.0191 2.8816
ENERGY: 40000 0.2793 3.8865 18.4544 0.0000 -26676.3150 4671.2014 0.0000 0.0000 671.4061 -21311.0873 60.4035 -21982.4934 -21309.0056 60.3201 667.2732 695.5988 53641.9191 0.5811 0.5057
ENERGY: 45000 0.5112 2.9150 17.9518 0.0000 -26604.0947 4564.9674 0.0000 0.0000 669.2461 -21348.5032 60.2092 -22017.7493 -21346.4052 59.8559 108.1123 165.4550 53702.3069 2.6008 2.6712
ENERGY: 50000 0.3442 3.5573 18.0767 0.0000 -26710.4128 4657.1279 0.0000 0.0000 651.3782 -21379.9286 58.6017 -22031.3068 -21378.4594 59.7419 543.9959 582.5694 53429.6419 -0.1743 -0.1627
TCL: Running 25000 steps at 90 kelvin.
TCL: Setting parameter langevinTemp to 90
TCL: Running for 25000 steps
ETITLE: TS BOND ANGLE DIHED IMPRP ELECT VDW BOUNDARY MISC KINETIC TOTAL TEMP POTENTIAL TOTAL3 TEMPAVG PRESSURE GPRESSURE VOLUME PRESSAVG GPRESSAVG
ENERGY: 50000 0.3442 3.5573 18.0767 0.0000 -26710.4128 4657.1279 0.0000 0.0000 651.0504 -21380.2563 58.5722 -22031.3068 -21378.7109 58.5722 535.6370 582.5237 53429.6419 535.6370 582.5237
ENERGY: 55000 1.1189 4.9149 18.2405 0.0000 -26036.6767 4347.2063 0.0000 0.0000 1009.8357 -20655.3604 90.8505 -21665.1961 -20652.6326 87.6135 -143.0032 -87.7996 54051.6527 5.6466 5.4973
ENERGY: 60000 0.8132 3.3701 18.9154 0.0000 -26080.6884 4324.6454 0.0000 0.0000 984.2950 -20748.6492 88.5527 -21732.9442 -20745.1336 90.3076 -441.4742 -388.5972 54132.4328 4.3497 4.3982
ENERGY: 65000 0.5311 6.1464 18.9595 0.0000 -26200.9101 4408.6917 0.0000 0.0000 982.6074 -20783.9740 88.4009 -21766.5813 -20781.6229 90.5894 -93.1313 -31.6079 54066.5580 1.3821 1.5155
ENERGY: 70000 1.1427 5.1132 18.6927 0.0000 -26217.2967 4424.8078 0.0000 0.0000 1003.9015 -20763.6388 90.3167 -21767.5403 -20761.6822 90.1166 -105.4889 -52.1304 54301.1753 -1.1456 -1.0695
ENERGY: 75000 0.9083 4.5001 19.3706 0.0000 -26243.7000 4457.6485 0.0000 0.0000 999.7544 -20761.5181 89.9436 -21761.2725 -20759.2610 90.4403 65.6787 107.9006 54193.9018 2.4006 2.3475
TCL: Running 25000 steps at 120 kelvin.
TCL: Setting parameter langevinTemp to 120
TCL: Running for 25000 steps
ETITLE: TS BOND ANGLE DIHED IMPRP ELECT VDW BOUNDARY MISC KINETIC TOTAL TEMP POTENTIAL TOTAL3 TEMPAVG PRESSURE GPRESSURE VOLUME PRESSAVG GPRESSAVG
ENERGY: 75000 0.9083 4.5001 19.3706 0.0000 -26243.7000 4457.6485 0.0000 0.0000 999.2450 -20762.0276 89.8977 -21761.2725 -20759.8950 89.8977 53.9309 107.4964 54193.9018 53.9309 107.4964
ENERGY: 80000 0.6415 5.3764 19.5272 0.0000 -25727.7017 4270.0529 0.0000 0.0000 1324.9170 -20107.1867 119.1970 -21432.1037 -20103.7385 116.3348 -100.9746 -36.4893 54509.9168 4.0126 4.5034
ENERGY: 85000 1.2154 8.4231 19.8176 0.0000 -25705.1016 4234.2415 0.0000 0.0000 1346.4857 -20094.9184 121.1375 -21441.4041 -20090.2796 120.1412 -224.0302 -207.3231 54463.5990 -0.9510 -0.7501
ENERGY: 90000 0.9079 5.2973 18.8601 0.0000 -25730.8343 4227.0357 0.0000 0.0000 1354.3232 -20124.4101 121.8426 -21478.7333 -20119.8784 119.7522 -372.2961 -279.0776 54362.1309 2.3427 2.1607
ENERGY: 95000 1.8799 6.2135 20.2075 0.0000 -25777.3318 4255.1075 0.0000 0.0000 1340.0732 -20153.8503 120.5606 -21493.9235 -20150.9597 121.1677 -246.1268 -204.5527 54181.4839 4.8123 5.0190
ENERGY: 100000 1.7479 6.7981 19.1891 0.0000 -25759.7064 4214.1657 0.0000 0.0000 1339.4098 -20178.3957 120.5009 -21517.8055 -20174.4779 120.7003 -301.0896 -274.0491 54085.1823 4.7694 4.5025
TCL: Running 25000 steps at 150 kelvin.
TCL: Setting parameter langevinTemp to 150
TCL: Running for 25000 steps
ETITLE: TS BOND ANGLE DIHED IMPRP ELECT VDW BOUNDARY MISC KINETIC TOTAL TEMP POTENTIAL TOTAL3 TEMPAVG PRESSURE GPRESSURE VOLUME PRESSAVG GPRESSAVG
ENERGY: 100000 1.7479 6.7981 19.1891 0.0000 -25759.7064 4214.1657 0.0000 0.0000 1338.7453 -20179.0602 120.4411 -21517.8055 -20176.0884 120.4411 -326.7320 -273.6426 54085.1823 -326.7320 -273.6426
ENERGY: 105000 2.6393 7.3845 19.3404 0.0000 -25349.7437 4238.3530 0.0000 0.0000 1654.0053 -19428.0212 148.8037 -21082.0265 -19423.1949 146.3573 471.2735 497.7887 54255.9371 7.3679 7.6215
ENERGY: 110000 1.4744 7.6396 19.1289 0.0000 -25413.6643 4253.5958 0.0000 0.0000 1677.8840 -19453.9417 150.9519 -21131.8257 -19449.8825 149.1012 521.5961 594.7182 54065.6477 3.3983 4.0101
ENERGY: 115000 2.9467 7.7170 19.6852 0.0000 -25445.8900 4211.9451 0.0000 0.0000 1674.4169 -19529.1791 150.6400 -21203.5960 -19524.2688 148.7831 317.3196 339.1831 54006.2236 0.2585 0.2707
ENERGY: 120000 0.8973 7.2274 20.3254 0.0000 -25369.3765 4171.5540 0.0000 0.0000 1706.6157 -19462.7566 153.5368 -21169.3723 -19460.1147 150.0539 167.2041 180.9281 54290.1121 1.9808 2.0306
ENERGY: 125000 3.2898 4.5979 19.8288 0.0000 -25531.3771 4234.4056 0.0000 0.0000 1668.6921 -19600.5630 150.1250 -21269.2551 -19594.9147 150.1188 107.1667 153.5367 54185.7417 2.9884 3.0296
TCL: Running 50000 steps at 180 kelvin.
TCL: Setting parameter langevinTemp to 180
TCL: Running for 50000 steps
ETITLE: TS BOND ANGLE DIHED IMPRP ELECT VDW BOUNDARY MISC KINETIC TOTAL TEMP POTENTIAL TOTAL3 TEMPAVG PRESSURE GPRESSURE VOLUME PRESSAVG GPRESSAVG
ENERGY: 125000 3.2898 4.5979 19.8288 0.0000 -25531.3771 4234.4056 0.0000 0.0000 1667.8751 -19601.3799 150.0515 -21269.2550 -19597.9305 150.0515 103.1751 154.5301 54185.7417 103.1751 154.5301
ENERGY: 135000 0.9980 8.3131 19.8635 0.0000 -24752.4048 3991.6174 0.0000 0.0000 2014.3026 -18717.3103 181.2181 -20731.6129 -18712.0109 178.9480 72.7084 117.2004 54653.1789 3.3887 3.9344
ENERGY: 145000 2.0958 8.7522 20.9071 0.0000 -24487.9252 3789.1580 0.0000 0.0000 2005.1807 -18661.8315 180.3974 -20667.0122 -18657.7847 179.3608 -651.9533 -589.5952 54370.5538 7.3637 7.2996
ENERGY: 155000 1.3258 9.9284 19.4866 0.0000 -24681.3068 4008.1792 0.0000 0.0000 1998.6443 -18643.7426 179.8093 -20642.3869 -18636.4354 181.1408 331.1789 401.8717 54440.9604 0.5659 0.5053
ENERGY: 165000 2.6190 8.9257 19.2929 0.0000 -24699.2601 3938.8060 0.0000 0.0000 1967.2541 -18762.3624 176.9853 -20729.6165 -18757.4326 180.4746 -211.9857 -144.4689 54577.0123 -0.0627 -0.2919
ENERGY: 175000 2.3363 7.5155 20.2730 0.0000 -24573.2779 3816.7687 0.0000 0.0000 1999.6860 -18726.6984 179.9031 -20726.3845 -18721.8340 180.3599 -702.5947 -644.0250 54634.1646 4.4136 4.0898
TCL: Running 50000 steps at 210 kelvin.
TCL: Setting parameter langevinTemp to 210
TCL: Running for 50000 steps
ETITLE: TS BOND ANGLE DIHED IMPRP ELECT VDW BOUNDARY MISC KINETIC TOTAL TEMP POTENTIAL TOTAL3 TEMPAVG PRESSURE GPRESSURE VOLUME PRESSAVG GPRESSAVG
ENERGY: 175000 2.3363 7.5155 20.2730 0.0000 -24573.2779 3816.7687 0.0000 0.0000 1998.7081 -18727.6764 179.8151 -20726.3845 -18723.5316 179.8151 -706.1014 -643.9230 54634.1646 -706.1014 -643.9230
ENERGY: 185000 3.4085 8.0572 19.6918 0.0000 -23382.4568 3470.8126 0.0000 0.0000 2325.0616 -17555.4251 209.1757 -19880.4868 -17552.0130 209.1977 -787.2240 -718.1824 55334.7263 -2.4569 -2.4281
ENERGY: 195000 2.2963 6.2156 19.6661 0.0000 -23297.0608 3376.0901 0.0000 0.0000 2298.4417 -17594.3509 206.7808 -19892.7926 -17588.0110 209.6648 -1157.0421 -1095.6089 55096.0932 6.5846 6.4145
ENERGY: 205000 3.4452 8.7556 18.4753 0.0000 -23373.3242 3538.0665 0.0000 0.0000 2319.5235 -17485.0581 208.6775 -19804.5816 -17482.6130 210.0549 -58.4586 73.4640 54178.0916 7.0409 7.5830
ENERGY: 215000 2.6413 9.2926 20.0374 0.0000 -23305.4634 3463.5402 0.0000 0.0000 2387.7081 -17422.2438 214.8117 -19809.9519 -17416.3967 210.3715 -330.4155 -267.5750 54317.5370 2.4730 2.4778
ENERGY: 225000 0.7901 8.4417 20.0098 0.0000 -23319.5618 3445.4330 0.0000 0.0000 2311.8321 -17533.0551 207.9855 -19844.8871 -17527.8650 211.3752 -529.3179 -434.6572 54353.0890 0.4332 0.5892
TCL: Running 50000 steps at 240 kelvin.
TCL: Setting parameter langevinTemp to 240
TCL: Running for 50000 steps
ETITLE: TS BOND ANGLE DIHED IMPRP ELECT VDW BOUNDARY MISC KINETIC TOTAL TEMP POTENTIAL TOTAL3 TEMPAVG PRESSURE GPRESSURE VOLUME PRESSAVG GPRESSAVG
ENERGY: 225000 0.7901 8.4417 20.0098 0.0000 -23319.5618 3445.4330 0.0000 0.0000 2310.7047 -17534.1824 207.8841 -19844.8871 -17529.3432 207.8841 -504.4446 -434.8929 54353.0890 -504.4446 -434.8929
ENERGY: 235000 1.4399 8.7999 17.7590 0.0000 -22343.5951 3150.4655 0.0000 0.0000 2676.8384 -16488.2923 240.8235 -19165.1307 -16482.5436 237.1549 -678.1085 -578.2127 55402.3817 2.0199 2.5624
ENERGY: 245000 2.3019 13.0016 18.1747 0.0000 -22483.0628 3364.2022 0.0000 0.0000 2652.9810 -16432.4015 238.6772 -19085.3825 -16425.7178 238.4476 393.8386 490.5282 55192.4858 2.6630 3.3042
ENERGY: 255000 1.7860 9.4541 17.5662 0.0000 -22466.4049 3354.8824 0.0000 0.0000 2779.8339 -16302.8823 250.0896 -19082.7162 -16297.4034 240.7325 601.9405 679.5223 54749.3241 -2.0441 -1.8731
ENERGY: 265000 1.1741 15.0839 18.4546 0.0000 -22540.1309 3407.3818 0.0000 0.0000 2679.7587 -16418.2778 241.0862 -19098.0365 -16411.1490 239.8608 441.3850 506.1123 55357.8089 0.0222 0.6001
ENERGY: 275000 1.2957 6.6930 18.3671 0.0000 -22240.0416 3235.6985 0.0000 0.0000 2662.5945 -16315.3928 239.5421 -18977.9874 -16310.4407 239.6586 195.6947 271.6535 54918.1281 0.5206 0.8779
TCL: Running 50000 steps at 270 kelvin.
TCL: Setting parameter langevinTemp to 270
TCL: Running for 50000 steps
ETITLE: TS BOND ANGLE DIHED IMPRP ELECT VDW BOUNDARY MISC KINETIC TOTAL TEMP POTENTIAL TOTAL3 TEMPAVG PRESSURE GPRESSURE VOLUME PRESSAVG GPRESSAVG
ENERGY: 275000 1.2957 6.6930 18.3671 0.0000 -22240.0416 3235.6985 0.0000 0.0000 2661.2840 -16316.7034 239.4242 -18977.9874 -16313.4902 239.4242 202.5989 272.0338 54918.1281 202.5989 272.0338
ENERGY: 285000 3.6009 10.8482 19.8442 0.0000 -21271.1638 2917.6989 0.0000 0.0000 2988.9610 -15330.2106 268.9038 -18319.1716 -15325.8147 269.7367 -137.0271 -58.1871 55853.5592 2.3533 2.1852
ENERGY: 295000 1.8453 12.3396 19.5283 0.0000 -21212.3054 2980.3926 0.0000 0.0000 3024.9605 -15173.2392 272.1425 -18198.1996 -15168.7446 269.9385 73.4218 173.1535 56371.5082 5.4751 4.9331
ENERGY: 305000 3.3888 16.2387 20.8802 0.0000 -21072.8265 2810.7142 0.0000 0.0000 2883.1043 -15338.5003 259.3804 -18221.6046 -15333.9758 269.4706 -719.8647 -608.7820 56194.8735 3.4322 2.7925
ENERGY: 315000 2.2499 16.2660 18.8663 0.0000 -21258.7520 2972.2423 0.0000 0.0000 3056.9491 -15192.1785 275.0204 -18249.1276 -15185.0318 270.2178 107.7095 216.1027 55918.0234 -1.6356 -1.4671
ENERGY: 325000 3.0206 17.6520 20.4103 0.0000 -21073.4825 2912.7188 0.0000 0.0000 3001.8032 -15117.8776 270.0592 -18119.6807 -15113.5296 271.3026 101.1199 170.1154 56087.9730 1.5986 2.0409
TCL: Running 1000000 steps at 300 kelvin.
TCL: Setting parameter langevinTemp to 300
TCL: Running for 1000000 steps
ETITLE: TS BOND ANGLE DIHED IMPRP ELECT VDW BOUNDARY MISC KINETIC TOTAL TEMP POTENTIAL TOTAL3 TEMPAVG PRESSURE GPRESSURE VOLUME PRESSAVG GPRESSAVG
ENERGY: 325000 3.0206 17.6520 20.4103 0.0000 -21073.4825 2912.7188 0.0000 0.0000 3000.3281 -15119.3526 269.9265 -18119.6807 -15115.3528 269.9265 90.1196 169.7844 56087.9730 90.1196 169.7844
ENERGY: 525000 2.3325 13.5642 22.6894 0.0000 -20269.7361 2707.7688 0.0000 0.0000 3326.0621 -14197.3191 299.2314 -17523.3811 -14189.9339 299.9392 -40.9284 74.9569 57209.8419 8.2746 7.8170
ENERGY: 725000 5.5179 16.5037 23.1079 0.0000 -20198.8381 2742.3260 0.0000 0.0000 3400.8189 -14010.5637 305.9569 -17411.3826 -14003.5393 299.4263 212.4770 288.6283 57594.2170 2.7432 2.2965
ENERGY: 925000 3.1973 12.1583 21.8042 0.0000 -20307.6205 2788.7417 0.0000 0.0000 3297.2010 -14184.5179 296.6348 -17481.7189 -14178.1542 298.9354 272.5423 397.6561 57279.6328 -0.8313 -1.0841
ENERGY: 1125000 3.8510 13.4166 20.9702 0.0000 -20112.5475 2610.9728 0.0000 0.0000 3431.8315 -14031.5053 308.7470 -17463.3368 -14024.6591 301.9200 -270.2255 -209.6790 57587.7517 2.5068 1.9418
ENERGY: 1325000 3.5413 18.4853 17.9426 0.0000 -20133.9702 2612.4649 0.0000 0.0000 3351.4172 -14130.1188 301.5124 -17481.5360 -14126.5197 301.4770 -363.5408 -267.1553 57252.2247 0.5434 -0.0367
TCL: Exiting due to exit command.
