Info: SIMULATION PARAMETERS:
Info: TIMESTEP               2
Info: NUMBER OF STEPS        0
Info: STEPS PER CYCLE        10
Info: PERIODIC CELL BASIS 1  31.6134 0 0
Info: PERIODIC CELL BASIS 2  0 31.1915 0
Info: PERIODIC CELL BASIS 3  0 0 31.4663
Info: PERIODIC CELL CENTER   0 0 0
Info: WRAPPING WATERS AROUND PERIODIC BOUNDARIES ON OUTPUT.
Info: WRAPPING ALL CLUSTERS AROUND PERIODIC BOUNDARIES ON OUTPUT.
Info: FIRST LDB TIMESTEP     50
Info: LAST LDB TIMESTEP     -1
Info: HOM BACKGROUND SCALING 1
Info: PME BACKGROUND SCALING 1
Info: MIN ATOMS PER PATCH    40
Info: EMPTY PATCH LOAD       40 ATOMS
Info: VELOCITY FILE          mobley_1723043_equil.vel
Info: CENTER OF MASS MOVING INITIALLY? NO
Info: DIELECTRIC             1
Info: EXCLUDE                SCALED ONE-FOUR
Info: 1-4 ELECTROSTATICS SCALED BY 0.833333
Info: MODIFIED 1-4 VDW PARAMETERS WILL BE USED
Info: DCD FILENAME           mobley_1723043_prod.dcd
Info: DCD FREQUENCY          100000
Info: DCD FIRST STEP         100000
Info: DCD FILE WILL CONTAIN UNIT CELL DATA
Info: XST FILENAME           mobley_1723043_prod.xst
Info: XST FREQUENCY          100000
Info: NO VELOCITY DCD OUTPUT
Info: NO FORCE DCD OUTPUT
Info: OUTPUT FILENAME        mobley_1723043_prod
Info: BINARY OUTPUT FILES WILL BE USED
Info: RESTART FILENAME       mobley_1723043_prod.restart
Info: RESTART FREQUENCY      100000
Info: BINARY RESTART FILES WILL BE USED
Info: CUTOFF                 9
Info: PAIRLIST DISTANCE      11
Info: PAIRLIST SHRINK RATE   0.01
Info: PAIRLIST GROW RATE     0.01
Info: PAIRLIST TRIGGER       0.3
Info: PAIRLISTS PER CYCLE    2
Info: PAIRLISTS ENABLED
Info: MARGIN                 2
Info: HYDROGEN GROUP CUTOFF  2.5
Info: PATCH DIMENSION        15.5
Info: ENERGY OUTPUT STEPS    100000
Info: ENERGY EVALUATION STEPS    100000
Info: OUTPUT ENERGY PRECISION 4
Info: CROSSTERM ENERGY INCLUDED IN DIHEDRAL
Info: TIMING OUTPUT STEPS    1000000
Info: PRESSURE OUTPUT STEPS  100000
Info: ALCHEMICAL FEP ON
Info: FEP CURRENT LAMBDA VALUE     0
Info: FEP COMPARISON LAMBDA VALUE  0.05
Info: FEP INTRA-ALCHEMICAL NON-BONDED INTERACTIONS WILL BE RETAINED
Info: FEP INTRA-ALCHEMICAL BONDED INTERACTIONS WILL BE RETAINED
Info: FEP VDW SHIFTING COEFFICIENT 5
Info: FEP ELEC. ACTIVE FOR ANNIHILATED PARTICLES BETWEEN LAMBDA = 0 AND LAMBDA = 0.5
Info: FEP ELEC. ACTIVE FOR EXNIHILATED PARTICLES BETWEEN LAMBDA = 0.5 AND LAMBDA = 1
Info: FEP VDW ACTIVE FOR ANNIHILATED PARTICLES BETWEEN LAMBDA = 0 AND LAMBDA = 1
Info: FEP VDW ACTIVE FOR EXNIHILATED PARTICLES BETWEEN LAMBDA = 0 AND LAMBDA = 1
Info: FEP BOND ACTIVE FOR ANNIHILATED PARTICLES BETWEEN LAMBDA = 1 AND LAMBDA = 1
Info: FEP BOND ACTIVE FOR EXNIHILATED PARTICLES BETWEEN LAMBDA = 0 AND LAMBDA = 0
Info: LANGEVIN DYNAMICS ACTIVE
Info: LANGEVIN TEMPERATURE   300
Info: LANGEVIN USING BBK INTEGRATOR
Info: LANGEVIN DAMPING COEFFICIENT IS 1 INVERSE PS
Info: LANGEVIN DYNAMICS APPLIED TO HYDROGENS
Info: LANGEVIN PISTON PRESSURE CONTROL ACTIVE
Info:        TARGET PRESSURE IS 1.01325 BAR
Info:     OSCILLATION PERIOD IS 50 FS
Info:             DECAY TIME IS 25 FS
Info:     PISTON TEMPERATURE IS 300 K
Info:       PRESSURE CONTROL IS GROUP-BASED
Info:    INITIAL STRAIN RATE IS -0.000220908 -0.000220908 -0.000220908
Info:       CELL FLUCTUATION IS ISOTROPIC
Info: PARTICLE MESH EWALD (PME) ACTIVE
Info: PME TOLERANCE               1e-06
Info: PME EWALD COEFFICIENT       0.348832
Info: PME INTERPOLATION ORDER     4
Info: PME GRID DIMENSIONS         32 32 32
Info: PME MAXIMUM GRID SPACING    1
Info: PME CALCULATION WILL BE PERFORMED ON GPU
Info: FULL ELECTROSTATIC EVALUATION FREQUENCY      2
Info: USING VERLET I (r-RESPA) MTS SCHEME.
Info: C1 SPLITTING OF LONG RANGE ELECTROSTATICS
Info: PLACING ATOMS IN PATCHES BY HYDROGEN GROUPS
Info: RIGID BONDS TO HYDROGEN : ALL
Info:         ERROR TOLERANCE : 1e-08
Info:          MAX ITERATIONS : 100
Info: RIGID WATER USING SETTLE ALGORITHM
Info: RANDOM NUMBER SEED     1742120418
Info: USE HYDROGEN BONDS?    NO
Info: Using AMBER format force field!
Info: AMBER PARM FILE        mobley_1723043.prmtop
Info: COORDINATE PDB         mobley_1723043.pdb
Info: Exclusions will be read from PARM file!
Info: SCNB (VDW SCALING)     2
Info: USING ARITHMETIC MEAN TO COMBINE L-J SIGMA PARAMETERS
Info: BINARY COORDINATES     mobley_1723043_equil.coor
Info: SUMMARY OF PARAMETERS:
Info: 4 BONDS
Info: 3 ANGLES
Info:   3 HARMONIC
Info:   0 COSINE-BASED
Info: 1 DIHEDRAL
Info: 0 IMPROPER
Info: 0 CROSSTERM
Info: 0 VDW
Info: 10 VDW_PAIRS
Info: 0 NBTHOLE_PAIRS
Info: To read alchdata from file: mobley_1723043.pdb
Info: To read alchflag data from column: 5
Info: STRUCTURE SUMMARY:
Info: 2994 ATOMS
Info: 2994 BONDS
Info: 24 ANGLES
Info: 36 DIHEDRALS
Info: 0 IMPROPERS
Info: 0 CROSSTERMS
Info: 3040 EXCLUSIONS
Info: 2982 RIGID BONDS
Info: ALCH: 0 ATOMS TO DISAPPEAR IN FINAL STATE
Info: ALCH: 12 ATOMS TO APPEAR IN FINAL STATE
Info: 6000 DEGREES OF FREEDOM
Info: 1006 HYDROGEN GROUPS
Info: 3 ATOMS IN LARGEST HYDROGEN GROUP
Info: 1006 MIGRATION GROUPS
Info: 3 ATOMS IN LARGEST MIGRATION GROUP
Info: TOTAL MASS = 18107.9 amu
Info: TOTAL CHARGE = 0 e
Info: MASS DENSITY = 0.969115 g/cm^3
Info: ATOM DENSITY = 0.0964937 atoms/A^3
Info: ADDED 0 IMPLICIT EXCLUSIONS
Info: NONBONDED TABLE R-SQUARED SPACING: 0.0625
Info: NONBONDED TABLE SIZE: 705 POINTS
Info: REMOVING COM VELOCITY -0.12142 -0.123799 0.121177
Info: Use 3D box decompostion in PME FFT.
Info: Updated CUDA force table with 4096 elements.
Info: Updated CUDA LJ table with 4 x 4 elements.
Info: Found 15 unique exclusion lists needing 28 bytes
TCL: Running for 1500000 steps
ETITLE: TS BOND ANGLE DIHED IMPRP ELECT VDW BOUNDARY MISC KINETIC TOTAL TEMP POTENTIAL TOTALAVG TEMPAVG PRESSURE GPRESSURE VOLUME PRESSAVG GPRESSAVG
ENERGY: 0 4.3032 5.6000 6.2367 0.0000 -10897.1591 1559.2844 0.0000 0.0000 1770.5984 -7551.1365 297.0019 -9321.7349 -7551.1365 297.0019 869.5100 932.6639 31027.9465 869.5100 932.6639
ENERGY: 300000 7.4142 6.4048 5.5311 0.0000 -10790.6601 1479.4931 0.0000 0.0000 1797.9356 -7493.8813 301.5875 -9291.8170 -7548.3560 300.9052 -132.1838 -80.5495 30838.3796 384.4116 439.1479
ENERGY: 600000 2.2424 5.3351 5.5872 0.0000 -10747.1020 1439.8485 0.0000 0.0000 1889.2484 -7404.8405 316.9043 -9294.0889 -7532.6667 303.2443 83.9993 135.2525 30704.9385 5.9389 46.4214
ENERGY: 900000 4.8513 4.5696 7.1671 0.0000 -10774.2953 1421.9711 0.0000 0.0000 1797.9825 -7537.7537 301.5953 -9335.7363 -7524.6715 302.8350 -304.4291 -250.0509 30550.6569 -37.0687 -2.6673
ENERGY: 1200000 1.8246 6.5836 6.6112 0.0000 -10656.9120 1371.5834 0.0000 0.0000 1801.2226 -7469.0865 302.1388 -9270.3092 -7531.9882 302.1226 -535.6482 -504.3656 30907.2172 -112.4476 -66.3186
ENERGY: 1500000 5.2522 4.2033 5.4655 0.0000 -10825.8149 1409.8524 0.0000 0.0000 1733.5480 -7667.4935 290.7870 -9401.0415 -7549.0983 301.2420 -581.8539 -566.5928 30848.3879 -95.3337 -57.2645
TCL: Running FEP window   2: Lambda1 0.05   Lambda2 0.1    [dLambda 0.05  ]
TCL: Setting parameter firsttimestep to 0
TCL: Setting parameter alchLambda to 0.05
Info: NONBONDED TABLE R-SQUARED SPACING: 0.0625
Info: NONBONDED TABLE SIZE: 705 POINTS
TCL: Setting parameter alchLambda2 to 0.1
Info: NONBONDED TABLE R-SQUARED SPACING: 0.0625
Info: NONBONDED TABLE SIZE: 705 POINTS
TCL: Running for 1500000 steps
ETITLE: TS BOND ANGLE DIHED IMPRP ELECT VDW BOUNDARY MISC KINETIC TOTAL TEMP POTENTIAL TOTALAVG TEMPAVG PRESSURE GPRESSURE VOLUME PRESSAVG GPRESSAVG
ENERGY: 0 5.2522 4.2033 5.4655 0.0000 -10825.8150 1413.3523 0.0000 0.0000 1732.6674 -7664.8742 290.6393 -9397.5416 -7664.8742 290.6393 -651.0708 -555.7616 30848.3879 -651.0708 -555.7616
ENERGY: 300000 4.2688 4.3299 5.7044 0.0000 -10801.9955 1445.5277 0.0000 0.0000 1786.5372 -7555.6276 299.6755 -9342.1647 -7579.0586 298.4556 -86.3172 -26.9976 30417.5432 -477.4534 -402.5450
ENERGY: 600000 4.9269 4.5032 5.4743 0.0000 -10727.9711 1407.3765 0.0000 0.0000 1798.9708 -7506.7195 301.7611 -9305.6902 -7558.5375 299.4301 -354.9565 -326.3713 30962.8719 -392.7018 -337.7326
ENERGY: 900000 2.5647 2.6432 7.0632 0.0000 -10915.6651 1538.9846 0.0000 0.0000 1795.2853 -7569.1240 301.1429 -9364.4093 -7562.7860 298.2915 248.6248 346.2407 30769.8422 -315.9892 -249.8458
ENERGY: 1200000 5.8410 7.3425 7.2132 0.0000 -10585.4442 1246.7148 0.0000 0.0000 1740.7859 -7577.5469 292.0011 -9318.3328 -7560.4147 299.2077 -1695.4153 -1600.6912 31011.5323 -436.9265 -374.0990
ENERGY: 1500000 3.8680 5.2115 5.8433 0.0000 -10871.5295 1493.9119 0.0000 0.0000 1740.4846 -7622.2101 291.9506 -9362.6947 -7559.8543 299.3638 -254.6144 -179.2591 31397.3305 -372.7434 -308.3804
TCL: Running FEP window   3: Lambda1 0.1    Lambda2 0.15000000000000002 [dLambda 0.05000000000000002]
TCL: Setting parameter firsttimestep to 0
TCL: Setting parameter alchLambda to 0.1
Info: NONBONDED TABLE R-SQUARED SPACING: 0.0625
Info: NONBONDED TABLE SIZE: 705 POINTS
TCL: Setting parameter alchLambda2 to 0.15000000000000002
Info: NONBONDED TABLE R-SQUARED SPACING: 0.0625
Info: NONBONDED TABLE SIZE: 705 POINTS
TCL: Running for 1500000 steps
ETITLE: TS BOND ANGLE DIHED IMPRP ELECT VDW BOUNDARY MISC KINETIC TOTAL TEMP POTENTIAL TOTALAVG TEMPAVG PRESSURE GPRESSURE VOLUME PRESSAVG GPRESSAVG
ENERGY: 0 3.8680 5.2115 5.8433 0.0000 -10871.5302 1496.9952 0.0000 0.0000 1739.6469 -7619.9652 291.8101 -9359.6121 -7619.9652 291.8101 -255.0041 -169.2964 31397.3305 -255.0041 -169.2964
ENERGY: 300000 4.5402 4.4253 7.4795 0.0000 -10765.1739 1424.6571 0.0000 0.0000 1790.3585 -7533.7133 300.3165 -9324.0718 -7556.0293 298.3169 -256.6182 -106.9750 30521.3931 -157.6147 -62.4199
ENERGY: 600000 4.0176 3.2127 7.8475 0.0000 -10941.0149 1546.0400 0.0000 0.0000 1789.6860 -7590.2111 300.2037 -9379.8971 -7558.9696 299.7055 459.7838 542.3980 30753.2436 -84.2718 -8.3117
ENERGY: 900000 3.0480 5.6742 5.8503 0.0000 -10933.6941 1519.6284 0.0000 0.0000 1789.3840 -7610.1093 300.1530 -9399.4933 -7567.2658 299.9052 394.8399 507.1049 30232.3562 -3.3659 80.0929
ENERGY: 1200000 6.8887 7.1094 4.8464 0.0000 -10904.2182 1547.7840 0.0000 0.0000 1817.2836 -7520.3062 304.8329 -9337.5897 -7551.5345 300.4426 773.2824 848.4370 30376.8409 36.6260 106.4796
ENERGY: 1500000 4.2044 4.4211 5.1685 0.0000 -10924.7412 1507.1821 0.0000 0.0000 1681.4252 -7722.3400 282.0439 -9403.7651 -7564.2544 299.7074 213.4846 254.6899 30610.8704 -15.9388 45.8378
TCL: Running FEP window   4: Lambda1 0.15000000000000002 Lambda2 0.2    [dLambda 0.04999999999999999]
TCL: Setting parameter firsttimestep to 0
TCL: Setting parameter alchLambda to 0.15000000000000002
Info: NONBONDED TABLE R-SQUARED SPACING: 0.0625
Info: NONBONDED TABLE SIZE: 705 POINTS
TCL: Setting parameter alchLambda2 to 0.2
Info: NONBONDED TABLE R-SQUARED SPACING: 0.0625
Info: NONBONDED TABLE SIZE: 705 POINTS
TCL: Running for 1500000 steps
ETITLE: TS BOND ANGLE DIHED IMPRP ELECT VDW BOUNDARY MISC KINETIC TOTAL TEMP POTENTIAL TOTALAVG TEMPAVG PRESSURE GPRESSURE VOLUME PRESSAVG GPRESSAVG
ENERGY: 0 4.2044 4.4211 5.1685 0.0000 -10924.7407 1507.4433 0.0000 0.0000 1680.5122 -7722.9913 281.8907 -9403.5035 -7722.9913 281.8907 167.7167 259.1266 30610.8704 167.7167 259.1266
ENERGY: 300000 4.1215 6.7752 5.6524 0.0000 -10887.6845 1507.5165 0.0000 0.0000 1734.7408 -7628.8781 290.9871 -9363.6189 -7649.0496 292.5434 395.5567 467.5469 30424.6584 191.3027 247.8079
ENERGY: 600000 4.2769 4.1983 5.6637 0.0000 -10841.2741 1516.6095 0.0000 0.0000 1767.2597 -7543.2661 296.4418 -9310.5257 -7612.1892 294.6832 349.4080 417.3572 30946.5005 121.9865 182.1123
ENERGY: 900000 7.4847 7.3356 7.4534 0.0000 -10933.2107 1513.9361 0.0000 0.0000 1831.8943 -7565.1066 307.2837 -9397.0009 -7592.0147 296.6234 293.2577 428.5064 30445.5573 212.4825 280.8139
ENERGY: 1200000 5.4925 5.0028 5.3825 0.0000 -10989.7083 1580.5972 0.0000 0.0000 1778.6857 -7614.5475 298.3585 -9393.2332 -7598.3503 296.9921 787.9033 795.2347 30737.7529 242.2190 303.5308
ENERGY: 1500000 2.6845 4.3305 6.2251 0.0000 -10979.4320 1559.2594 0.0000 0.0000 1779.3663 -7627.5662 298.4726 -9406.9325 -7598.4633 297.2430 564.5860 602.9822 30543.3255 130.0325 193.4133
TCL: Running FEP window   5: Lambda1 0.2    Lambda2 0.25   [dLambda 0.04999999999999999]
TCL: Setting parameter firsttimestep to 0
TCL: Setting parameter alchLambda to 0.2
Info: NONBONDED TABLE R-SQUARED SPACING: 0.0625
Info: NONBONDED TABLE SIZE: 705 POINTS
TCL: Setting parameter alchLambda2 to 0.25
Info: NONBONDED TABLE R-SQUARED SPACING: 0.0625
Info: NONBONDED TABLE SIZE: 705 POINTS
TCL: Running for 1500000 steps
ETITLE: TS BOND ANGLE DIHED IMPRP ELECT VDW BOUNDARY MISC KINETIC TOTAL TEMP POTENTIAL TOTALAVG TEMPAVG PRESSURE GPRESSURE VOLUME PRESSAVG GPRESSAVG
ENERGY: 0 2.6845 4.3305 6.2251 0.0000 -10979.4308 1560.2486 0.0000 0.0000 1778.4643 -7627.4778 298.3213 -9405.9421 -7627.4778 298.3213 527.5588 612.4762 30543.3255 527.5588 612.4762
ENERGY: 300000 1.2198 5.9940 7.5460 0.0000 -10856.5357 1389.0730 0.0000 0.0000 1795.8209 -7656.8820 301.2327 -9452.7029 -7576.1970 303.5919 -1180.0773 -1082.4240 31157.8607 -292.7936 -226.1980
ENERGY: 600000 6.5063 3.6539 5.0375 0.0000 -10821.5281 1489.9509 0.0000 0.0000 1776.6240 -7539.7556 298.0126 -9316.3796 -7576.6134 302.4635 215.7222 242.5574 30596.9310 -119.1743 -47.1040
ENERGY: 900000 3.1440 3.8526 7.0321 0.0000 -10727.8628 1406.2430 0.0000 0.0000 1809.0812 -7498.5098 303.4570 -9307.5911 -7580.2773 302.1010 -354.8759 -258.7428 30778.5126 -50.8685 23.4177
ENERGY: 1200000 6.4926 8.5749 6.5285 0.0000 -10876.8288 1455.5916 0.0000 0.0000 1810.3890 -7589.2521 303.6764 -9399.6412 -7594.2186 300.8324 -117.7776 -28.4240 30328.3698 -48.0911 30.9309
ENERGY: 1500000 2.8964 3.0124 5.2826 0.0000 -10730.9998 1425.0678 0.0000 0.0000 1778.4382 -7516.3024 298.3169 -9294.7405 -7586.1078 300.7574 -227.1303 -136.0604 30822.0692 -88.4962 -16.5128
TCL: Running FEP window   6: Lambda1 0.25   Lambda2 0.3    [dLambda 0.04999999999999999]
TCL: Setting parameter firsttimestep to 0
TCL: Setting parameter alchLambda to 0.25
Info: NONBONDED TABLE R-SQUARED SPACING: 0.0625
Info: NONBONDED TABLE SIZE: 705 POINTS
TCL: Setting parameter alchLambda2 to 0.3
Info: NONBONDED TABLE R-SQUARED SPACING: 0.0625
Info: NONBONDED TABLE SIZE: 705 POINTS
TCL: Running for 1500000 steps
ETITLE: TS BOND ANGLE DIHED IMPRP ELECT VDW BOUNDARY MISC KINETIC TOTAL TEMP POTENTIAL TOTALAVG TEMPAVG PRESSURE GPRESSURE VOLUME PRESSAVG GPRESSAVG
ENERGY: 0 2.8964 3.0124 5.2826 0.0000 -10731.0002 1425.6341 0.0000 0.0000 1777.5431 -7516.6315 298.1668 -9294.1746 -7516.6315 298.1668 -204.5466 -127.8516 30822.0692 -204.5466 -127.8516
ENERGY: 300000 3.4966 3.7567 6.8777 0.0000 -10880.0931 1532.8856 0.0000 0.0000 1779.3966 -7553.6800 298.4777 -9333.0766 -7538.8009 299.1761 758.2031 822.8852 30677.9192 207.7947 277.9825
ENERGY: 600000 2.6220 5.6050 7.5466 0.0000 -10694.3390 1361.6594 0.0000 0.0000 1779.0513 -7537.8546 298.4198 -9316.9060 -7543.5794 299.4895 -688.6830 -699.6816 31210.0201 -45.0265 4.6694
ENERGY: 900000 2.2063 7.1499 5.5843 0.0000 -10600.3272 1333.8937 0.0000 0.0000 1805.7229 -7445.7701 302.8937 -9251.4930 -7541.2343 300.3979 -694.7234 -655.0978 31037.5524 -30.4693 17.9906
ENERGY: 1200000 2.2359 3.1660 5.7250 0.0000 -10784.0256 1370.0247 0.0000 0.0000 1783.5604 -7619.3136 299.1761 -9402.8740 -7557.6745 299.8759 -1063.0010 -1011.1506 31117.0630 -185.6503 -129.8409
ENERGY: 1500000 3.0765 4.3216 5.3719 0.0000 -10863.6237 1498.8489 0.0000 0.0000 1801.4308 -7550.5740 302.1737 -9352.0048 -7551.7741 300.2925 462.9411 559.0308 30288.0773 -143.5353 -87.8397
TCL: Running FEP window   7: Lambda1 0.3    Lambda2 0.35   [dLambda 0.04999999999999999]
TCL: Setting parameter firsttimestep to 0
TCL: Setting parameter alchLambda to 0.3
Info: NONBONDED TABLE R-SQUARED SPACING: 0.0625
Info: NONBONDED TABLE SIZE: 705 POINTS
TCL: Setting parameter alchLambda2 to 0.35
Info: NONBONDED TABLE R-SQUARED SPACING: 0.0625
Info: NONBONDED TABLE SIZE: 705 POINTS
TCL: Running for 1500000 steps
ETITLE: TS BOND ANGLE DIHED IMPRP ELECT VDW BOUNDARY MISC KINETIC TOTAL TEMP POTENTIAL TOTALAVG TEMPAVG PRESSURE GPRESSURE VOLUME PRESSAVG GPRESSAVG
ENERGY: 0 3.0765 4.3216 5.3719 0.0000 -10863.6242 1499.4491 0.0000 0.0000 1800.5351 -7550.8698 302.0235 -9351.4050 -7550.8698 302.0235 467.7339 564.3682 30288.0773 467.7339 564.3682
ENERGY: 300000 3.8483 3.0761 6.0499 0.0000 -10873.7587 1484.3024 0.0000 0.0000 1752.7648 -7623.7171 294.0105 -9376.4819 -7577.1881 300.4789 320.5612 438.9073 30146.4791 95.8907 180.3641
ENERGY: 600000 4.2228 4.4108 8.4089 0.0000 -10901.4132 1513.1132 0.0000 0.0000 1743.4683 -7627.7892 292.4511 -9371.2575 -7565.9143 299.0925 207.7686 268.5701 30843.1060 189.4989 274.0458
ENERGY: 900000 6.2096 8.7222 5.3720 0.0000 -10823.4532 1469.2938 0.0000 0.0000 1767.1722 -7566.6834 296.4272 -9333.8556 -7574.9817 297.9964 58.4522 97.2422 30555.0135 49.6822 136.6447
ENERGY: 1200000 5.7598 6.9141 6.9912 0.0000 -10902.3971 1492.7553 0.0000 0.0000 1722.9807 -7666.9959 289.0144 -9389.9766 -7578.2974 297.4610 -19.8265 -44.8996 30867.3739 -65.0109 4.7894
ENERGY: 1500000 1.6162 8.3656 5.1140 0.0000 -10721.7822 1434.4219 0.0000 0.0000 1857.5455 -7414.7190 311.5865 -9272.2645 -7559.2970 298.6132 -107.6961 -139.6883 31327.5805 -113.8965 -44.7622
TCL: Running FEP window   8: Lambda1 0.35   Lambda2 0.39999999999999997 [dLambda 0.04999999999999999]
TCL: Setting parameter firsttimestep to 0
TCL: Setting parameter alchLambda to 0.35
Info: NONBONDED TABLE R-SQUARED SPACING: 0.0625
Info: NONBONDED TABLE SIZE: 705 POINTS
TCL: Setting parameter alchLambda2 to 0.39999999999999997
Info: NONBONDED TABLE R-SQUARED SPACING: 0.0625
Info: NONBONDED TABLE SIZE: 705 POINTS
TCL: Running for 1500000 steps
ETITLE: TS BOND ANGLE DIHED IMPRP ELECT VDW BOUNDARY MISC KINETIC TOTAL TEMP POTENTIAL TOTALAVG TEMPAVG PRESSURE GPRESSURE VOLUME PRESSAVG GPRESSAVG
ENERGY: 0 1.6162 8.3656 5.1140 0.0000 -10721.7827 1434.6164 0.0000 0.0000 1856.6498 -7415.4206 311.4362 -9272.0704 -7415.4206 311.4362 -208.9999 -132.5965 31327.5805 -208.9999 -132.5965
ENERGY: 300000 7.5463 8.0040 4.5047 0.0000 -10928.2385 1473.9496 0.0000 0.0000 1777.7619 -7656.4719 298.2035 -9434.2338 -7517.5814 304.1986 -370.5995 -318.9916 30939.6424 -153.2868 -84.7903
ENERGY: 600000 3.3197 4.8804 5.4684 0.0000 -10829.1388 1430.1561 0.0000 0.0000 1817.1882 -7568.1259 304.8169 -9385.3141 -7533.8684 302.1455 -156.2931 -76.6424 30452.9448 -130.4520 -65.2080
ENERGY: 900000 3.7527 7.3581 5.3189 0.0000 -10777.2034 1492.7410 0.0000 0.0000 1791.8017 -7476.2309 300.5585 -9268.0326 -7529.0749 302.0409 486.8630 541.1058 30885.9489 -54.2667 17.5762
ENERGY: 1200000 4.0016 7.4015 6.2251 0.0000 -10918.4331 1483.3517 0.0000 0.0000 1848.6242 -7568.8291 310.0900 -9417.4533 -7539.8410 302.2775 -278.5789 -112.4066 30851.9864 -72.4205 -3.3326
ENERGY: 1500000 2.9365 7.0366 5.2867 0.0000 -10903.1170 1447.7571 0.0000 0.0000 1722.2876 -7717.8124 288.8982 -9440.1000 -7563.1464 300.9424 -426.1026 -295.9792 30503.1869 -168.2286 -102.5310
TCL: Running FEP window   9: Lambda1 0.39999999999999997 Lambda2 0.44999999999999996 [dLambda 0.04999999999999999]
TCL: Setting parameter firsttimestep to 0
TCL: Setting parameter alchLambda to 0.39999999999999997
Info: NONBONDED TABLE R-SQUARED SPACING: 0.0625
Info: NONBONDED TABLE SIZE: 705 POINTS
TCL: Setting parameter alchLambda2 to 0.44999999999999996
Info: NONBONDED TABLE R-SQUARED SPACING: 0.0625
Info: NONBONDED TABLE SIZE: 705 POINTS
TCL: Running for 1500000 steps
ETITLE: TS BOND ANGLE DIHED IMPRP ELECT VDW BOUNDARY MISC KINETIC TOTAL TEMP POTENTIAL TOTALAVG TEMPAVG PRESSURE GPRESSURE VOLUME PRESSAVG GPRESSAVG
ENERGY: 0 2.9365 7.0366 5.2867 0.0000 -10903.1172 1447.4939 0.0000 0.0000 1721.4595 -7718.9039 288.7593 -9440.3634 -7718.9039 288.7593 -377.5104 -290.9650 30503.1869 -377.5104 -290.9650
ENERGY: 300000 4.3602 10.0017 5.6916 0.0000 -10915.2442 1471.1017 0.0000 0.0000 1804.7833 -7619.3056 302.7361 -9424.0890 -7607.6024 300.3501 40.8503 110.8474 30456.3422 54.9989 131.2856
ENERGY: 600000 2.9516 7.6758 4.5332 0.0000 -10893.1755 1497.1466 0.0000 0.0000 1787.5169 -7593.3513 299.8398 -9380.8682 -7582.9707 301.4779 214.0279 275.0127 30968.2216 80.1824 166.3243
ENERGY: 900000 3.0682 7.2502 6.2026 0.0000 -10790.7797 1462.1526 0.0000 0.0000 1850.1038 -7462.0023 310.3382 -9312.1061 -7560.0500 303.6975 -79.4495 -25.8866 31301.2249 -16.7080 63.2277
ENERGY: 1200000 3.3257 9.1074 5.7888 0.0000 -10855.8137 1477.0002 0.0000 0.0000 1783.8383 -7576.7534 299.2228 -9360.5917 -7563.8684 303.1927 135.3860 171.7518 30791.0062 -0.7527 78.0569
ENERGY: 1500000 1.7637 2.8781 5.9953 0.0000 -10804.9729 1482.5263 0.0000 0.0000 1799.3140 -7512.4955 301.8187 -9311.8095 -7558.9999 303.0903 246.6635 285.4400 31039.5975 10.0652 78.4987
TCL: Running FEP window  10: Lambda1 0.44999999999999996 Lambda2 0.49999999999999994 [dLambda 0.04999999999999999]
TCL: Setting parameter firsttimestep to 0
TCL: Setting parameter alchLambda to 0.44999999999999996
Info: NONBONDED TABLE R-SQUARED SPACING: 0.0625
Info: NONBONDED TABLE SIZE: 705 POINTS
TCL: Setting parameter alchLambda2 to 0.49999999999999994
Info: NONBONDED TABLE R-SQUARED SPACING: 0.0625
Info: NONBONDED TABLE SIZE: 705 POINTS
TCL: Running for 1500000 steps
ETITLE: TS BOND ANGLE DIHED IMPRP ELECT VDW BOUNDARY MISC KINETIC TOTAL TEMP POTENTIAL TOTALAVG TEMPAVG PRESSURE GPRESSURE VOLUME PRESSAVG GPRESSAVG
ENERGY: 0 1.7637 2.8781 5.9953 0.0000 -10804.9732 1482.2800 0.0000 0.0000 1798.4149 -7513.6411 301.6679 -9312.0560 -7513.6411 301.6679 208.8214 287.1416 31039.5975 208.8214 287.1416
ENERGY: 300000 4.5417 3.7073 5.8741 0.0000 -10712.7235 1402.6078 0.0000 0.0000 1772.8787 -7523.1139 297.3844 -9295.9926 -7534.9656 301.6092 -284.0092 -237.5717 30961.7449 497.0267 577.4943
ENERGY: 600000 3.8039 5.3878 5.3108 0.0000 -10712.3922 1413.4077 0.0000 0.0000 1764.9647 -7519.5173 296.0569 -9284.4820 -7549.2028 300.6789 -266.5634 -194.1640 31004.1429 150.3480 229.9709
ENERGY: 900000 7.3149 12.0039 6.4178 0.0000 -10816.4908 1427.3221 0.0000 0.0000 1767.8557 -7595.5764 296.5418 -9363.4322 -7564.3579 299.1039 -409.3938 -378.2278 30767.9386 -30.4653 38.9676
ENERGY: 1200000 4.0146 4.6489 7.4849 0.0000 -10928.1400 1494.3499 0.0000 0.0000 1763.1846 -7654.4572 295.7583 -9417.6418 -7568.3144 299.9097 -30.5837 38.5381 30804.4493 -68.8749 -0.0502
ENERGY: 1500000 3.7421 3.9265 6.2430 0.0000 -10866.7636 1526.2865 0.0000 0.0000 1822.7455 -7503.8201 305.7491 -9326.5656 -7570.6386 300.9145 458.4666 559.8786 30949.8542 13.9843 81.6552
TCL: Running FEP window  11: Lambda1 0.49999999999999994 Lambda2 0.5499999999999999 [dLambda 0.04999999999999999]
TCL: Setting parameter firsttimestep to 0
TCL: Setting parameter alchLambda to 0.49999999999999994
Info: NONBONDED TABLE R-SQUARED SPACING: 0.0625
Info: NONBONDED TABLE SIZE: 705 POINTS
TCL: Setting parameter alchLambda2 to 0.5499999999999999
Info: NONBONDED TABLE R-SQUARED SPACING: 0.0625
Info: NONBONDED TABLE SIZE: 705 POINTS
TCL: Running for 1500000 steps
ETITLE: TS BOND ANGLE DIHED IMPRP ELECT VDW BOUNDARY MISC KINETIC TOTAL TEMP POTENTIAL TOTALAVG TEMPAVG PRESSURE GPRESSURE VOLUME PRESSAVG GPRESSAVG
ENERGY: 0 3.7421 3.9265 6.2430 0.0000 -10866.7639 1527.1455 0.0000 0.0000 1821.8655 -7503.8414 305.6015 -9325.7069 -7503.8414 305.6015 485.1833 571.8387 30949.8542 485.1833 571.8387
ENERGY: 300000 5.1111 5.7825 5.2452 0.0000 -10858.0515 1461.5291 0.0000 0.0000 1713.6216 -7666.7620 287.4445 -9380.3836 -7586.3094 298.6492 -151.0603 -95.0657 30615.4531 210.3862 276.7084
ENERGY: 600000 4.1830 3.8883 6.0052 0.0000 -10753.4847 1421.1907 0.0000 0.0000 1789.4392 -7528.7783 300.1622 -9318.2174 -7565.1825 298.7317 -142.1516 -190.0456 30756.4070 178.2612 216.5408
ENERGY: 900000 3.6355 9.4076 6.3445 0.0000 -10745.0347 1434.6965 0.0000 0.0000 1779.5090 -7511.4416 298.4966 -9290.9506 -7569.3355 299.2844 358.4373 383.9937 30409.2277 148.4539 192.2817
ENERGY: 1200000 2.4438 3.3768 5.0394 0.0000 -10898.9419 1532.5344 0.0000 0.0000 1748.8866 -7606.6609 293.3599 -9355.5475 -7567.7506 299.6234 293.8014 410.5337 31086.6223 187.5534 237.2530
ENERGY: 1500000 4.9926 5.5101 4.9224 0.0000 -10945.3332 1498.6544 0.0000 0.0000 1797.5834 -7633.6702 301.5284 -9431.2536 -7571.2572 300.6691 297.8415 264.0256 30492.0867 137.4956 180.1629
TCL: Running FEP window  12: Lambda1 0.5499999999999999 Lambda2 0.6    [dLambda 0.050000000000000044]
TCL: Setting parameter firsttimestep to 0
TCL: Setting parameter alchLambda to 0.5499999999999999
Info: NONBONDED TABLE R-SQUARED SPACING: 0.0625
Info: NONBONDED TABLE SIZE: 705 POINTS
TCL: Setting parameter alchLambda2 to 0.6
Info: NONBONDED TABLE R-SQUARED SPACING: 0.0625
Info: NONBONDED TABLE SIZE: 705 POINTS
TCL: Running for 1500000 steps
ETITLE: TS BOND ANGLE DIHED IMPRP ELECT VDW BOUNDARY MISC KINETIC TOTAL TEMP POTENTIAL TOTALAVG TEMPAVG PRESSURE GPRESSURE VOLUME PRESSAVG GPRESSAVG
ENERGY: 0 4.9926 5.5101 4.9224 0.0000 -10945.5204 1499.7595 0.0000 0.0000 1796.6875 -7633.6483 301.3781 -9430.3358 -7633.6483 301.3781 200.2986 279.6425 30492.0867 200.2986 279.6425
ENERGY: 300000 2.7682 3.0823 7.6809 0.0000 -10666.4856 1397.1677 0.0000 0.0000 1775.5236 -7480.2630 297.8280 -9255.7865 -7582.6861 296.6268 -366.0447 -301.6075 31267.5322 195.5028 255.2136
ENERGY: 600000 3.8139 2.5424 6.0702 0.0000 -10790.3492 1427.4661 0.0000 0.0000 1815.5251 -7534.9315 304.5379 -9350.4566 -7579.4770 299.2321 -147.1570 -105.4463 30718.3201 0.2701 58.4337
ENERGY: 900000 5.6178 4.8449 6.4184 0.0000 -10811.3603 1448.5914 0.0000 0.0000 1820.1999 -7525.6878 305.3221 -9345.8877 -7566.2273 300.7893 -264.3946 -192.4498 31028.7574 -67.5183 -21.2382
ENERGY: 1200000 8.0199 4.4687 5.9464 0.0000 -10994.4082 1546.4762 0.0000 0.0000 1797.3910 -7632.1060 301.4961 -9429.4970 -7583.8827 300.7268 932.2128 936.9467 29890.5139 -64.4642 -15.9938
ENERGY: 1500000 4.6508 5.1488 6.7391 0.0000 -10947.2716 1556.7202 0.0000 0.0000 1843.1918 -7530.8208 309.1788 -9374.0126 -7588.0065 301.0191 540.3028 576.4242 30989.9294 -42.8338 4.7263
TCL: Running FEP window  13: Lambda1 0.6    Lambda2 0.65   [dLambda 0.050000000000000044]
TCL: Setting parameter firsttimestep to 0
TCL: Setting parameter alchLambda to 0.6
Info: NONBONDED TABLE R-SQUARED SPACING: 0.0625
Info: NONBONDED TABLE SIZE: 705 POINTS
TCL: Setting parameter alchLambda2 to 0.65
Info: NONBONDED TABLE R-SQUARED SPACING: 0.0625
Info: NONBONDED TABLE SIZE: 705 POINTS
TCL: Running for 1500000 steps
ETITLE: TS BOND ANGLE DIHED IMPRP ELECT VDW BOUNDARY MISC KINETIC TOTAL TEMP POTENTIAL TOTALAVG TEMPAVG PRESSURE GPRESSURE VOLUME PRESSAVG GPRESSAVG
ENERGY: 0 4.6508 5.1488 6.7391 0.0000 -10947.4434 1556.4060 0.0000 0.0000 1842.2630 -7532.2357 309.0230 -9374.4987 -7532.2357 309.0230 491.4481 580.6907 30989.9294 491.4481 580.6907
ENERGY: 300000 1.7545 8.8623 6.3339 0.0000 -10922.1728 1453.2973 0.0000 0.0000 1817.1594 -7634.7653 304.8121 -9451.9247 -7544.1904 304.7787 -205.9539 -135.8873 30368.9219 200.7366 308.7802
ENERGY: 600000 2.9736 2.6483 6.1445 0.0000 -10946.9824 1567.5159 0.0000 0.0000 1765.4729 -7602.2272 296.1421 -9367.7001 -7573.8910 301.4441 848.3504 902.0830 30661.6061 170.0810 247.8409
ENERGY: 900000 3.6826 5.4666 4.7533 0.0000 -10781.6116 1410.0606 0.0000 0.0000 1815.1441 -7542.5043 304.4740 -9357.6485 -7572.7203 301.1975 -340.9484 -199.1259 30807.0328 109.0232 187.2190
ENERGY: 1200000 4.7398 3.5199 6.3409 0.0000 -10732.8809 1352.8550 0.0000 0.0000 1814.4986 -7550.9267 304.3657 -9365.4252 -7573.8949 300.6281 -1108.5836 -1035.0775 31281.4693 57.1734 128.6290
ENERGY: 1500000 1.9874 3.8342 4.9105 0.0000 -10883.1240 1516.7211 0.0000 0.0000 1766.9752 -7588.6956 296.3941 -9355.6708 -7573.3635 300.2005 508.5625 581.7413 30871.5076 152.3263 221.6900
TCL: Running FEP window  14: Lambda1 0.65   Lambda2 0.7000000000000001 [dLambda 0.050000000000000044]
TCL: Setting parameter firsttimestep to 0
TCL: Setting parameter alchLambda to 0.65
Info: NONBONDED TABLE R-SQUARED SPACING: 0.0625
Info: NONBONDED TABLE SIZE: 705 POINTS
TCL: Setting parameter alchLambda2 to 0.7000000000000001
Info: NONBONDED TABLE R-SQUARED SPACING: 0.0625
Info: NONBONDED TABLE SIZE: 705 POINTS
TCL: Running for 1500000 steps
ETITLE: TS BOND ANGLE DIHED IMPRP ELECT VDW BOUNDARY MISC KINETIC TOTAL TEMP POTENTIAL TOTALAVG TEMPAVG PRESSURE GPRESSURE VOLUME PRESSAVG GPRESSAVG
ENERGY: 0 1.9874 3.8342 4.9105 0.0000 -10882.9859 1517.7600 0.0000 0.0000 1766.0695 -7588.4243 296.2422 -9354.4939 -7588.4243 296.2422 515.8425 598.9679 30871.5076 515.8425 598.9679
ENERGY: 300000 1.2451 6.4099 5.7509 0.0000 -10785.3627 1414.5516 0.0000 0.0000 1846.8942 -7510.5109 309.7998 -9357.4052 -7570.7703 305.1700 -346.3215 -267.0582 30861.7260 25.3763 97.7707
ENERGY: 600000 3.1761 7.3464 5.0479 0.0000 -10871.6591 1449.6928 0.0000 0.0000 1785.8407 -7620.5551 299.5586 -9406.3958 -7582.6848 301.9141 -222.6945 -157.2835 30700.5901 -117.6937 -52.7190
ENERGY: 900000 5.1911 7.2308 4.5787 0.0000 -10926.1574 1477.1970 0.0000 0.0000 1775.1836 -7656.7761 297.7710 -9431.9598 -7580.9972 300.9373 -60.5626 64.5884 30825.1641 -115.4922 -49.3166
ENERGY: 1200000 3.6759 8.8787 4.3849 0.0000 -10680.0637 1369.0280 0.0000 0.0000 1807.3053 -7486.7909 303.1591 -9294.0963 -7580.3227 300.5957 -443.2505 -391.6833 30817.2962 -176.1462 -107.5722
ENERGY: 1500000 3.4938 5.0915 6.2695 0.0000 -10884.3007 1493.8164 0.0000 0.0000 1780.8471 -7594.7823 298.7210 -9375.6295 -7572.6236 300.6021 85.8464 146.5838 30864.6337 -73.2910 -2.9396
TCL: Running FEP window  15: Lambda1 0.7000000000000001 Lambda2 0.7500000000000001 [dLambda 0.050000000000000044]
TCL: Setting parameter firsttimestep to 0
TCL: Setting parameter alchLambda to 0.7000000000000001
Info: NONBONDED TABLE R-SQUARED SPACING: 0.0625
Info: NONBONDED TABLE SIZE: 705 POINTS
TCL: Setting parameter alchLambda2 to 0.7500000000000001
Info: NONBONDED TABLE R-SQUARED SPACING: 0.0625
Info: NONBONDED TABLE SIZE: 705 POINTS
TCL: Running for 1500000 steps
ETITLE: TS BOND ANGLE DIHED IMPRP ELECT VDW BOUNDARY MISC KINETIC TOTAL TEMP POTENTIAL TOTALAVG TEMPAVG PRESSURE GPRESSURE VOLUME PRESSAVG GPRESSAVG
ENERGY: 0 3.4938 5.0915 6.2695 0.0000 -10884.4660 1493.7058 0.0000 0.0000 1779.9569 -7595.9484 298.5717 -9375.9053 -7595.9484 298.5717 66.2929 152.1140 30864.6337 66.2929 152.1140
ENERGY: 300000 5.8667 5.2224 5.3462 0.0000 -10968.2005 1579.4467 0.0000 0.0000 1750.9846 -7621.3338 293.7118 -9372.3184 -7577.8205 298.1269 1139.9122 1191.4940 30129.0366 32.4790 91.8408
ENERGY: 600000 2.3502 6.9635 5.1973 0.0000 -10800.8233 1391.7296 0.0000 0.0000 1769.8372 -7624.7456 296.8742 -9394.5827 -7588.5686 297.8617 -688.4630 -602.6910 30776.1286 -56.0538 3.6596
ENERGY: 900000 2.9502 4.1902 6.1716 0.0000 -10889.5651 1438.6614 0.0000 0.0000 1800.7082 -7636.8836 302.0525 -9437.5918 -7585.1091 298.5350 -291.9075 -178.4206 30761.0948 -41.8524 15.7988
ENERGY: 1200000 3.5669 5.1922 4.9371 0.0000 -10839.2394 1461.0943 0.0000 0.0000 1778.7228 -7585.7262 298.3647 -9364.4489 -7591.2655 298.3209 -35.3397 123.6943 30596.7584 -117.2075 -53.7683
ENERGY: 1500000 2.5798 2.7538 7.2879 0.0000 -10858.0757 1476.6072 0.0000 0.0000 1770.5521 -7598.2949 296.9941 -9368.8471 -7600.2796 298.2002 -30.1516 13.9798 31149.8207 -89.1048 -27.0933
TCL: Running FEP window  16: Lambda1 0.7500000000000001 Lambda2 0.8000000000000002 [dLambda 0.050000000000000044]
TCL: Setting parameter firsttimestep to 0
TCL: Setting parameter alchLambda to 0.7500000000000001
Info: NONBONDED TABLE R-SQUARED SPACING: 0.0625
Info: NONBONDED TABLE SIZE: 705 POINTS
TCL: Setting parameter alchLambda2 to 0.8000000000000002
Info: NONBONDED TABLE R-SQUARED SPACING: 0.0625
Info: NONBONDED TABLE SIZE: 705 POINTS
TCL: Running for 1500000 steps
ETITLE: TS BOND ANGLE DIHED IMPRP ELECT VDW BOUNDARY MISC KINETIC TOTAL TEMP POTENTIAL TOTALAVG TEMPAVG PRESSURE GPRESSURE VOLUME PRESSAVG GPRESSAVG
ENERGY: 0 2.5798 2.7538 7.2879 0.0000 -10858.2364 1476.4310 0.0000 0.0000 1769.6639 -7599.5200 296.8451 -9369.1839 -7599.5200 296.8451 -59.7210 20.2019 31149.8207 -59.7210 20.2019
ENERGY: 300000 3.2567 6.5598 5.6840 0.0000 -10885.0541 1552.3289 0.0000 0.0000 1765.0249 -7552.1999 296.0670 -9317.2248 -7556.8519 299.3710 1054.3613 1071.0153 30651.1079 422.1318 486.2603
ENERGY: 600000 3.8323 6.6270 5.8469 0.0000 -10880.6544 1535.8380 0.0000 0.0000 1754.0961 -7574.4141 294.2338 -9328.5102 -7564.9670 299.3608 559.1734 629.3990 30825.0624 226.0191 287.9106
ENERGY: 900000 4.7947 9.3138 6.2742 0.0000 -10698.9548 1344.7359 0.0000 0.0000 1812.5984 -7521.2379 304.0470 -9333.8363 -7548.6424 300.9094 -955.9574 -909.0496 31108.5622 -7.9355 51.4392
ENERGY: 1200000 3.2307 6.2974 5.2486 0.0000 -10860.3315 1452.4708 0.0000 0.0000 1815.4111 -7577.6729 304.5188 -9393.0840 -7553.2590 302.0910 -176.4878 -59.4396 30872.5043 63.2394 127.3943
ENERGY: 1500000 5.2943 8.5993 6.1034 0.0000 -10871.5402 1495.2807 0.0000 0.0000 1788.0599 -7568.2026 299.9309 -9356.2625 -7557.7999 302.0434 405.6751 478.1765 30598.8700 145.4658 209.4367
TCL: Running FEP window  17: Lambda1 0.8000000000000002 Lambda2 0.8500000000000002 [dLambda 0.050000000000000044]
TCL: Setting parameter firsttimestep to 0
TCL: Setting parameter alchLambda to 0.8000000000000002
Info: NONBONDED TABLE R-SQUARED SPACING: 0.0625
Info: NONBONDED TABLE SIZE: 705 POINTS
TCL: Setting parameter alchLambda2 to 0.8500000000000002
Info: NONBONDED TABLE R-SQUARED SPACING: 0.0625
Info: NONBONDED TABLE SIZE: 705 POINTS
TCL: Running for 1500000 steps
ETITLE: TS BOND ANGLE DIHED IMPRP ELECT VDW BOUNDARY MISC KINETIC TOTAL TEMP POTENTIAL TOTALAVG TEMPAVG PRESSURE GPRESSURE VOLUME PRESSAVG GPRESSAVG
ENERGY: 0 5.2943 8.5993 6.1034 0.0000 -10871.5102 1495.0577 0.0000 0.0000 1787.1691 -7569.2865 299.7815 -9356.4555 -7569.2865 299.7815 400.6823 484.4578 30598.8700 400.6823 484.4578
ENERGY: 300000 2.4120 6.8207 7.2220 0.0000 -10894.1189 1512.7067 0.0000 0.0000 1861.9305 -7503.0269 312.3220 -9364.9574 -7559.2058 301.0660 552.9618 544.5194 30901.2650 108.2248 182.5800
ENERGY: 600000 3.8157 7.7414 7.2456 0.0000 -10855.2890 1504.6006 0.0000 0.0000 1789.7070 -7542.1788 300.2072 -9331.8858 -7567.0046 300.5571 182.3092 205.7455 31120.5653 -165.0274 -101.0731
ENERGY: 900000 4.9294 6.3871 6.5181 0.0000 -10839.7599 1449.9716 0.0000 0.0000 1822.7796 -7549.1740 305.7548 -9371.9536 -7566.8361 300.6423 -261.8859 -222.3972 30885.1591 -25.3321 24.2709
ENERGY: 1200000 4.6220 10.0010 5.8501 0.0000 -10793.1973 1400.2426 0.0000 0.0000 1809.9531 -7562.5285 303.6033 -9372.4816 -7567.2625 300.7944 -560.4433 -512.6340 30815.4163 -47.4999 4.8515
ENERGY: 1500000 5.3890 9.4867 6.0792 0.0000 -10792.8495 1420.6761 0.0000 0.0000 1751.5384 -7599.6801 293.8047 -9351.2185 -7570.6775 300.8002 -162.8127 -84.4265 30753.1872 -53.2915 1.5484
TCL: Running FEP window  18: Lambda1 0.8500000000000002 Lambda2 0.9000000000000002 [dLambda 0.050000000000000044]
TCL: Setting parameter firsttimestep to 0
TCL: Setting parameter alchLambda to 0.8500000000000002
Info: NONBONDED TABLE R-SQUARED SPACING: 0.0625
Info: NONBONDED TABLE SIZE: 705 POINTS
TCL: Setting parameter alchLambda2 to 0.9000000000000002
Info: NONBONDED TABLE R-SQUARED SPACING: 0.0625
Info: NONBONDED TABLE SIZE: 705 POINTS
TCL: Running for 1500000 steps
ETITLE: TS BOND ANGLE DIHED IMPRP ELECT VDW BOUNDARY MISC KINETIC TOTAL TEMP POTENTIAL TOTALAVG TEMPAVG PRESSURE GPRESSURE VOLUME PRESSAVG GPRESSAVG
ENERGY: 0 5.3890 9.4867 6.0792 0.0000 -10793.0138 1420.8705 0.0000 0.0000 1750.6592 -7600.5293 293.6573 -9351.1885 -7600.5293 293.6573 -163.3144 -73.5023 30753.1872 -163.3144 -73.5023
ENERGY: 300000 5.1056 2.9698 5.6879 0.0000 -10859.5192 1427.4739 0.0000 0.0000 1796.3890 -7621.8931 301.3280 -9418.2820 -7601.5004 299.5942 -398.7503 -338.7341 30616.4380 114.9362 180.3678
ENERGY: 600000 3.7916 4.6499 4.9783 0.0000 -10744.7568 1371.2520 0.0000 0.0000 1792.7886 -7567.2964 300.7241 -9360.0850 -7598.7475 299.7721 -630.4000 -638.9562 30833.1856 -38.0011 15.3097
ENERGY: 900000 3.1392 5.3862 5.8046 0.0000 -10963.5986 1508.7940 0.0000 0.0000 1793.1021 -7647.3726 300.7767 -9440.4747 -7589.1905 300.4984 -57.1597 -22.4372 31284.6313 -103.0660 -44.4072
ENERGY: 1200000 2.9808 4.1214 7.7643 0.0000 -10803.9712 1383.2645 0.0000 0.0000 1762.6166 -7643.2237 295.6630 -9405.8403 -7600.9992 300.0538 -613.7758 -524.9390 30809.5554 -151.4257 -86.0297
ENERGY: 1500000 1.9601 4.1437 6.6965 0.0000 -10771.8051 1402.9560 0.0000 0.0000 1801.7066 -7554.3421 302.2200 -9356.0487 -7595.7707 300.5234 -399.8849 -318.8975 31200.2964 -155.1507 -83.4282
TCL: Running FEP window  19: Lambda1 0.9000000000000002 Lambda2 0.9500000000000003 [dLambda 0.050000000000000044]
TCL: Setting parameter firsttimestep to 0
TCL: Setting parameter alchLambda to 0.9000000000000002
Info: NONBONDED TABLE R-SQUARED SPACING: 0.0625
Info: NONBONDED TABLE SIZE: 705 POINTS
TCL: Setting parameter alchLambda2 to 0.9500000000000003
Info: NONBONDED TABLE R-SQUARED SPACING: 0.0625
Info: NONBONDED TABLE SIZE: 705 POINTS
TCL: Running for 1500000 steps
ETITLE: TS BOND ANGLE DIHED IMPRP ELECT VDW BOUNDARY MISC KINETIC TOTAL TEMP POTENTIAL TOTALAVG TEMPAVG PRESSURE GPRESSURE VOLUME PRESSAVG GPRESSAVG
ENERGY: 0 1.9601 4.1437 6.6965 0.0000 -10772.0614 1403.3796 0.0000 0.0000 1800.8286 -7555.0528 302.0727 -9355.8814 -7555.0528 302.0727 -405.6411 -307.3267 31200.2964 -405.6411 -307.3267
ENERGY: 300000 3.1098 5.3921 4.9892 0.0000 -10745.1489 1474.2512 0.0000 0.0000 1804.4044 -7453.0021 302.6725 -9257.4065 -7548.5121 302.5465 287.0279 347.5094 31470.8644 98.1630 168.2987
ENERGY: 600000 2.3519 4.4326 4.6869 0.0000 -10835.8544 1451.0705 0.0000 0.0000 1831.3666 -7541.9458 307.1952 -9373.3124 -7535.7509 303.0056 -89.3608 -59.5220 30977.5305 115.4220 160.4172
ENERGY: 900000 3.3279 3.2557 6.9908 0.0000 -10870.8685 1444.4044 0.0000 0.0000 1731.0019 -7681.8878 290.3599 -9412.8896 -7569.4048 300.8872 -400.6767 -346.3077 31200.1955 18.2573 62.8063
ENERGY: 1200000 3.3000 6.7639 5.4234 0.0000 -10818.1512 1487.3264 0.0000 0.0000 1794.5995 -7520.7381 301.0279 -9315.3376 -7561.0085 301.8129 266.3368 258.4033 31256.2127 -36.0491 4.8704
ENERGY: 1500000 3.2288 8.1621 6.3606 0.0000 -10778.2303 1412.1805 0.0000 0.0000 1811.4513 -7536.8470 303.8546 -9348.2983 -7561.7129 301.3114 -334.9053 -276.1910 31153.7397 -25.3873 21.5743
TCL: Running FEP window  20: Lambda1 0.9500000000000003 Lambda2 1.0    [dLambda 0.04999999999999971]
TCL: Setting parameter firsttimestep to 0
TCL: Setting parameter alchLambda to 0.9500000000000003
Info: NONBONDED TABLE R-SQUARED SPACING: 0.0625
Info: NONBONDED TABLE SIZE: 705 POINTS
TCL: Setting parameter alchLambda2 to 1.0
Info: NONBONDED TABLE R-SQUARED SPACING: 0.0625
Info: NONBONDED TABLE SIZE: 705 POINTS
TCL: Running for 1500000 steps
ETITLE: TS BOND ANGLE DIHED IMPRP ELECT VDW BOUNDARY MISC KINETIC TOTAL TEMP POTENTIAL TOTALAVG TEMPAVG PRESSURE GPRESSURE VOLUME PRESSAVG GPRESSAVG
ENERGY: 0 3.2288 8.1621 6.3606 0.0000 -10778.3226 1412.4009 0.0000 0.0000 1810.5720 -7537.5982 303.7071 -9348.1702 -7537.5982 303.7071 -334.5492 -262.3585 31153.7397 -334.5492 -262.3585
ENERGY: 300000 1.9340 6.1456 6.5143 0.0000 -10842.9630 1477.4778 0.0000 0.0000 1769.4947 -7581.3966 296.8168 -9350.8914 -7545.2290 302.3427 72.0479 169.9935 30927.3603 -266.5356 -208.6463
ENERGY: 600000 4.6896 6.9793 6.9627 0.0000 -10850.9075 1492.3636 0.0000 0.0000 1808.1018 -7531.8105 303.2927 -9339.9123 -7551.4674 301.9410 544.0869 572.0914 30235.0026 -130.1126 -88.0451
ENERGY: 900000 3.1978 4.8082 4.5569 0.0000 -10714.5724 1365.2030 0.0000 0.0000 1747.2048 -7589.6017 293.0778 -9336.8065 -7560.7975 300.6826 -391.4421 -367.9041 30437.2758 -174.3796 -133.4142
ENERGY: 1200000 2.5558 5.7141 6.4708 0.0000 -10822.5914 1439.4360 0.0000 0.0000 1808.5800 -7559.8347 303.3729 -9368.4147 -7561.5607 301.2245 -139.0348 -79.2941 30680.8361 -172.5657 -123.2528
ENERGY: 1500000 1.0098 9.2751 5.4565 0.0000 -10938.5282 1519.3966 0.0000 0.0000 1748.1107 -7655.2795 293.2298 -9403.3902 -7559.4229 300.6065 324.3914 476.3947 30697.1463 -126.4031 -66.9567
TCL: Exiting due to exit command.
