Info: SIMULATION PARAMETERS:
Info: TIMESTEP               2
Info: NUMBER OF STEPS        0
Info: STEPS PER CYCLE        10
Info: PERIODIC CELL BASIS 1  35.01 0 0
Info: PERIODIC CELL BASIS 2  0 35.267 0
Info: PERIODIC CELL BASIS 3  0 0 35.644
Info: PERIODIC CELL CENTER   0 0 0
Info: WRAPPING WATERS AROUND PERIODIC BOUNDARIES ON OUTPUT.
Info: WRAPPING ALL CLUSTERS AROUND PERIODIC BOUNDARIES ON OUTPUT.
Info: FIRST LDB TIMESTEP     50
Info: LAST LDB TIMESTEP     -1
Info: HOM BACKGROUND SCALING 1
Info: PME BACKGROUND SCALING 1
Info: MIN ATOMS PER PATCH    40
Info: EMPTY PATCH LOAD       40 ATOMS
Info: INITIAL TEMPERATURE    300
Info: CENTER OF MASS MOVING INITIALLY? NO
Info: DIELECTRIC             1
Info: EXCLUDE                SCALED ONE-FOUR
Info: 1-4 ELECTROSTATICS SCALED BY 0.833333
Info: MODIFIED 1-4 VDW PARAMETERS WILL BE USED
Info: DCD FILENAME           mobley_3761215_equil.dcd
Info: DCD FREQUENCY          100000
Info: DCD FIRST STEP         100000
Info: DCD FILE WILL CONTAIN UNIT CELL DATA
Info: XST FILENAME           mobley_3761215_equil.xst
Info: XST FREQUENCY          100000
Info: NO VELOCITY DCD OUTPUT
Info: NO FORCE DCD OUTPUT
Info: OUTPUT FILENAME        mobley_3761215_equil
Info: BINARY OUTPUT FILES WILL BE USED
Info: RESTART FILENAME       mobley_3761215_equil.restart
Info: RESTART FREQUENCY      100000
Info: BINARY RESTART FILES WILL BE USED
Info: CUTOFF                 9
Info: PAIRLIST DISTANCE      11
Info: PAIRLIST SHRINK RATE   0.01
Info: PAIRLIST GROW RATE     0.01
Info: PAIRLIST TRIGGER       0.3
Info: PAIRLISTS PER CYCLE    2
Info: PAIRLISTS ENABLED
Info: MARGIN                 8
Info: HYDROGEN GROUP CUTOFF  2.5
Info: PATCH DIMENSION        21.5
Info: ENERGY OUTPUT STEPS    100000
Info: ENERGY EVALUATION STEPS    100000
Info: OUTPUT ENERGY PRECISION 4
Info: CROSSTERM ENERGY INCLUDED IN DIHEDRAL
Info: TIMING OUTPUT STEPS    1000000
Info: PRESSURE OUTPUT STEPS  100000
Info: LANGEVIN DYNAMICS ACTIVE
Info: LANGEVIN TEMPERATURE   30
Info: LANGEVIN USING BBK INTEGRATOR
Info: LANGEVIN DAMPING COEFFICIENT IS 1 INVERSE PS
Info: LANGEVIN DYNAMICS APPLIED TO HYDROGENS
Info: LANGEVIN PISTON PRESSURE CONTROL ACTIVE
Info:        TARGET PRESSURE IS 1.01325 BAR
Info:     OSCILLATION PERIOD IS 50 FS
Info:             DECAY TIME IS 25 FS
Info:     PISTON TEMPERATURE IS 300 K
Info:       PRESSURE CONTROL IS GROUP-BASED
Info:    INITIAL STRAIN RATE IS 0 0 0
Info:       CELL FLUCTUATION IS ISOTROPIC
Info: PARTICLE MESH EWALD (PME) ACTIVE
Info: PME TOLERANCE               1e-06
Info: PME EWALD COEFFICIENT       0.348832
Info: PME INTERPOLATION ORDER     4
Info: PME GRID DIMENSIONS         36 36 36
Info: PME MAXIMUM GRID SPACING    1
Info: FULL ELECTROSTATIC EVALUATION FREQUENCY      2
Info: USING VERLET I (r-RESPA) MTS SCHEME.
Info: C1 SPLITTING OF LONG RANGE ELECTROSTATICS
Info: PLACING ATOMS IN PATCHES BY HYDROGEN GROUPS
Info: RIGID BONDS TO HYDROGEN : ALL
Info:         ERROR TOLERANCE : 1e-08
Info:          MAX ITERATIONS : 100
Info: RIGID WATER USING SETTLE ALGORITHM
Info: RANDOM NUMBER SEED     1741931779
Info: USE HYDROGEN BONDS?    NO
Info: Using AMBER format force field!
Info: AMBER PARM FILE        mobley_3761215.prmtop
Info: COORDINATE PDB         mobley_3761215.pdb
Info: Exclusions will be read from PARM file!
Info: SCNB (VDW SCALING)     2
Info: USING ARITHMETIC MEAN TO COMBINE L-J SIGMA PARAMETERS
Info: BINARY COORDINATES     mobley_3761215_min.coor
Info: SUMMARY OF PARAMETERS:
Info: 5 BONDS
Info: 4 ANGLES
Info:   4 HARMONIC
Info:   0 COSINE-BASED
Info: 1 DIHEDRAL
Info: 0 IMPROPER
Info: 0 CROSSTERM
Info: 0 VDW
Info: 15 VDW_PAIRS
Info: 0 NBTHOLE_PAIRS
Info: STRUCTURE SUMMARY:
Info: 2948 ATOMS
Info: 2947 BONDS
Info: 12 ANGLES
Info: 9 DIHEDRALS
Info: 0 IMPROPERS
Info: 0 CROSSTERMS
Info: 2968 EXCLUSIONS
Info: 2943 RIGID BONDS
Info: 5901 DEGREES OF FREEDOM
Info: 985 HYDROGEN GROUPS
Info: 4 ATOMS IN LARGEST HYDROGEN GROUP
Info: 985 MIGRATION GROUPS
Info: 4 ATOMS IN LARGEST MIGRATION GROUP
Info: TOTAL MASS = 17789.1 amu
Info: TOTAL CHARGE = 0.000100031 e
Info: MASS DENSITY = 0.671221 g/cm^3
Info: ATOM DENSITY = 0.0669854 atoms/A^3
Info: ADDED 0 IMPLICIT EXCLUSIONS
Info: NONBONDED TABLE R-SQUARED SPACING: 0.0625
Info: NONBONDED TABLE SIZE: 705 POINTS
Info: REMOVING COM VELOCITY -0.0922596 -0.0126716 0.0938754
TCL: Running for 100000 steps
ETITLE: TS BOND ANGLE DIHED IMPRP ELECT VDW BOUNDARY MISC KINETIC TOTAL TEMP POTENTIAL TOTAL3 TEMPAVG PRESSURE GPRESSURE VOLUME PRESSAVG GPRESSAVG
ENERGY: 0 0.0039 0.0929 0.0003 0.0000 -13702.5759 2443.7164 0.0000 0.0000 1759.0553 -9499.7071 300.0159 -11258.7625 -9499.3484 300.0159 659.8604 696.0479 44009.5637 659.8604 696.0479
ENERGY: 100000 0.0747 0.4978 0.0111 0.0000 -14304.0778 2488.6296 0.0000 0.0000 173.6750 -11641.1896 29.6212 -11814.8646 -11640.5397 30.9296 61.8319 126.9012 28155.4854 4.5944 4.5212
TCL: Running 100000 steps at 60 kelvin.
TCL: Setting parameter langevinTemp to 60
TCL: Running for 100000 steps
ETITLE: TS BOND ANGLE DIHED IMPRP ELECT VDW BOUNDARY MISC KINETIC TOTAL TEMP POTENTIAL TOTAL3 TEMPAVG PRESSURE GPRESSURE VOLUME PRESSAVG GPRESSAVG
ENERGY: 100000 0.0747 0.4978 0.0111 0.0000 -14304.0778 2488.6296 0.0000 0.0000 173.5885 -11641.2761 29.6064 -11814.8646 -11640.9265 29.6064 64.9129 127.0566 28155.4854 64.9129 127.0566
ENERGY: 200000 0.1683 0.5611 0.0529 0.0000 -14121.2383 2413.8510 0.0000 0.0000 355.1571 -11351.4478 60.5739 -11706.6049 -11350.4690 59.8786 -140.5665 -67.7399 28395.6389 4.9356 4.9400
TCL: Running 100000 steps at 90 kelvin.
TCL: Setting parameter langevinTemp to 90
TCL: Running for 100000 steps
ETITLE: TS BOND ANGLE DIHED IMPRP ELECT VDW BOUNDARY MISC KINETIC TOTAL TEMP POTENTIAL TOTAL3 TEMPAVG PRESSURE GPRESSURE VOLUME PRESSAVG GPRESSAVG
ENERGY: 200000 0.1683 0.5611 0.0529 0.0000 -14121.2383 2413.8510 0.0000 0.0000 354.9812 -11351.6237 60.5439 -11706.6049 -11350.9122 60.5439 -133.0192 -67.2728 28395.6389 -133.0192 -67.2728
ENERGY: 300000 0.5504 0.9407 0.0099 0.0000 -13962.7081 2334.0715 0.0000 0.0000 527.6614 -11099.4742 89.9953 -11627.1356 -11097.9124 90.0367 -533.1418 -511.8168 28525.4254 4.8260 4.7011
TCL: Running 100000 steps at 120 kelvin.
TCL: Setting parameter langevinTemp to 120
TCL: Running for 100000 steps
ETITLE: TS BOND ANGLE DIHED IMPRP ELECT VDW BOUNDARY MISC KINETIC TOTAL TEMP POTENTIAL TOTAL3 TEMPAVG PRESSURE GPRESSURE VOLUME PRESSAVG GPRESSAVG
ENERGY: 300000 0.5504 0.9407 0.0099 0.0000 -13962.7081 2334.0715 0.0000 0.0000 527.4032 -11099.7324 89.9513 -11627.1356 -11098.7975 89.9513 -565.7908 -510.7906 28525.4254 -565.7908 -510.7906
ENERGY: 400000 0.3367 0.8793 0.1172 0.0000 -13738.7331 2237.6570 0.0000 0.0000 704.8084 -10794.9346 120.2087 -11499.7430 -10794.0275 119.9837 -877.1221 -843.2356 28945.0608 4.8696 4.7736
TCL: Running 100000 steps at 150 kelvin.
TCL: Setting parameter langevinTemp to 150
TCL: Running for 100000 steps
ETITLE: TS BOND ANGLE DIHED IMPRP ELECT VDW BOUNDARY MISC KINETIC TOTAL TEMP POTENTIAL TOTAL3 TEMPAVG PRESSURE GPRESSURE VOLUME PRESSAVG GPRESSAVG
ENERGY: 400000 0.3367 0.8793 0.1172 0.0000 -13738.7331 2237.6570 0.0000 0.0000 704.4777 -10795.2653 120.1523 -11499.7430 -10793.3913 120.1523 -904.8263 -844.5070 28945.0608 -904.8263 -844.5070
ENERGY: 500000 0.6648 0.5717 0.5513 0.0000 -13573.3229 2266.5103 0.0000 0.0000 885.2779 -10419.7468 150.9887 -11305.0248 -10417.2407 149.8688 122.9705 196.8182 28742.8607 2.8628 2.7334
TCL: Running 100000 steps at 180 kelvin.
TCL: Setting parameter langevinTemp to 180
TCL: Running for 100000 steps
ETITLE: TS BOND ANGLE DIHED IMPRP ELECT VDW BOUNDARY MISC KINETIC TOTAL TEMP POTENTIAL TOTAL3 TEMPAVG PRESSURE GPRESSURE VOLUME PRESSAVG GPRESSAVG
ENERGY: 500000 0.6648 0.5717 0.5513 0.0000 -13573.3229 2266.5103 0.0000 0.0000 884.8514 -10420.1734 150.9159 -11305.0248 -10418.6392 150.9159 136.4491 198.0193 28742.8607 136.4491 198.0193
ENERGY: 600000 0.6838 1.4792 0.0026 0.0000 -13047.6953 2102.5780 0.0000 0.0000 1083.5339 -9859.4178 184.8023 -10942.9517 -9857.2408 180.1688 10.5184 12.8837 29063.0086 4.0185 4.0185
TCL: Running 100000 steps at 210 kelvin.
TCL: Setting parameter langevinTemp to 210
TCL: Running for 100000 steps
ETITLE: TS BOND ANGLE DIHED IMPRP ELECT VDW BOUNDARY MISC KINETIC TOTAL TEMP POTENTIAL TOTAL3 TEMPAVG PRESSURE GPRESSURE VOLUME PRESSAVG GPRESSAVG
ENERGY: 600000 0.6838 1.4792 0.0026 0.0000 -13047.6953 2102.5780 0.0000 0.0000 1082.9941 -9859.9576 184.7102 -10942.9517 -9857.8338 184.7102 -46.9971 12.7958 29063.0086 -46.9971 12.7958
ENERGY: 700000 0.5820 1.6767 0.5211 0.0000 -12574.1854 2000.8754 0.0000 0.0000 1242.8353 -9327.6949 211.9719 -10570.5302 -9324.4239 209.6666 812.2738 916.7697 28618.3908 4.1013 4.0960
TCL: Running 100000 steps at 240 kelvin.
TCL: Setting parameter langevinTemp to 240
TCL: Running for 100000 steps
ETITLE: TS BOND ANGLE DIHED IMPRP ELECT VDW BOUNDARY MISC KINETIC TOTAL TEMP POTENTIAL TOTAL3 TEMPAVG PRESSURE GPRESSURE VOLUME PRESSAVG GPRESSAVG
ENERGY: 700000 0.5820 1.6767 0.5211 0.0000 -12574.1854 2000.8754 0.0000 0.0000 1242.2309 -9328.2994 211.8688 -10570.5302 -9326.6084 211.8688 826.9763 918.0295 28618.3908 826.9763 918.0295
ENERGY: 800000 3.0684 3.6959 0.3344 0.0000 -11751.5119 1615.1844 0.0000 0.0000 1429.0131 -8700.2157 243.7255 -10129.2288 -8697.9437 239.8195 -960.5327 -892.8484 29160.4547 2.7639 2.7629
TCL: Running 100000 steps at 270 kelvin.
TCL: Setting parameter langevinTemp to 270
TCL: Running for 100000 steps
ETITLE: TS BOND ANGLE DIHED IMPRP ELECT VDW BOUNDARY MISC KINETIC TOTAL TEMP POTENTIAL TOTAL3 TEMPAVG PRESSURE GPRESSURE VOLUME PRESSAVG GPRESSAVG
ENERGY: 800000 3.0684 3.6959 0.3344 0.0000 -11751.5119 1615.1844 0.0000 0.0000 1428.3474 -8700.8813 243.6120 -10129.2288 -8698.4552 243.6120 -983.1064 -894.0467 29160.4547 -983.1064 -894.0467
ENERGY: 900000 0.3242 5.2441 0.6903 0.0000 -11271.9866 1592.9110 0.0000 0.0000 1620.2532 -8052.5638 276.3425 -9672.8170 -8049.6885 270.0244 206.5781 286.2101 29609.0572 3.3729 3.4898
TCL: Running 1000000 steps at 300 kelvin.
TCL: Setting parameter langevinTemp to 300
TCL: Running for 1000000 steps
ETITLE: TS BOND ANGLE DIHED IMPRP ELECT VDW BOUNDARY MISC KINETIC TOTAL TEMP POTENTIAL TOTAL3 TEMPAVG PRESSURE GPRESSURE VOLUME PRESSAVG GPRESSAVG
ENERGY: 900000 0.3242 5.2441 0.6903 0.0000 -11271.9866 1592.9110 0.0000 0.0000 1619.4734 -8053.3435 276.2095 -9672.8170 -8050.9533 276.2095 206.7409 285.6980 29609.0572 206.7409 285.6980
ENERGY: 1100000 1.4895 4.4974 1.9190 0.0000 -10868.3497 1503.9538 0.0000 0.0000 1713.5173 -7642.9727 292.2492 -9356.4900 -7641.1292 301.0339 200.2531 345.2502 30099.1993 4.1234 4.1124
ENERGY: 1300000 0.6535 1.6225 0.0692 0.0000 -10754.3828 1489.3940 0.0000 0.0000 1690.9420 -7571.7015 288.3988 -9262.6435 -7570.0872 300.5080 157.3840 254.7159 30517.0241 3.8654 3.7397
ENERGY: 1500000 1.2720 3.0394 0.0241 0.0000 -10791.8080 1522.2113 0.0000 0.0000 1803.6762 -7461.5850 307.6262 -9265.2612 -7457.5592 300.4923 560.5072 660.5308 30595.1802 3.7662 3.8345
ENERGY: 1700000 1.5831 2.9758 0.0265 0.0000 -10644.5539 1421.8459 0.0000 0.0000 1724.5259 -7493.5968 294.1267 -9218.1226 -7490.2850 300.1629 156.4679 284.3212 30115.1647 4.0427 3.9728
ENERGY: 1900000 0.6466 5.4419 0.1242 0.0000 -10684.4964 1422.6565 0.0000 0.0000 1724.8319 -7530.7952 294.1789 -9255.6272 -7527.5323 300.4732 -337.4365 -299.3394 30831.1434 3.8605 3.8356
TCL: Exiting due to exit command.
