Info: SIMULATION PARAMETERS:
Info: TIMESTEP               2
Info: NUMBER OF STEPS        0
Info: STEPS PER CYCLE        10
Info: PERIODIC CELL BASIS 1  34.207 0 0
Info: PERIODIC CELL BASIS 2  0 35.411 0
Info: PERIODIC CELL BASIS 3  0 0 35.723
Info: PERIODIC CELL CENTER   0 0 0
Info: WRAPPING WATERS AROUND PERIODIC BOUNDARIES ON OUTPUT.
Info: WRAPPING ALL CLUSTERS AROUND PERIODIC BOUNDARIES ON OUTPUT.
Info: FIRST LDB TIMESTEP     50
Info: LAST LDB TIMESTEP     -1
Info: HOM BACKGROUND SCALING 1
Info: PME BACKGROUND SCALING 1
Info: MIN ATOMS PER PATCH    40
Info: EMPTY PATCH LOAD       40 ATOMS
Info: INITIAL TEMPERATURE    300
Info: CENTER OF MASS MOVING INITIALLY? NO
Info: DIELECTRIC             1
Info: EXCLUDE                SCALED ONE-FOUR
Info: 1-4 ELECTROSTATICS SCALED BY 0.833333
Info: MODIFIED 1-4 VDW PARAMETERS WILL BE USED
Info: DCD FILENAME           mobley_646007_equil.dcd
Info: DCD FREQUENCY          100000
Info: DCD FIRST STEP         100000
Info: DCD FILE WILL CONTAIN UNIT CELL DATA
Info: XST FILENAME           mobley_646007_equil.xst
Info: XST FREQUENCY          100000
Info: NO VELOCITY DCD OUTPUT
Info: NO FORCE DCD OUTPUT
Info: OUTPUT FILENAME        mobley_646007_equil
Info: BINARY OUTPUT FILES WILL BE USED
Info: RESTART FILENAME       mobley_646007_equil.restart
Info: RESTART FREQUENCY      100000
Info: BINARY RESTART FILES WILL BE USED
Info: CUTOFF                 9
Info: PAIRLIST DISTANCE      11
Info: PAIRLIST SHRINK RATE   0.01
Info: PAIRLIST GROW RATE     0.01
Info: PAIRLIST TRIGGER       0.3
Info: PAIRLISTS PER CYCLE    2
Info: PAIRLISTS ENABLED
Info: MARGIN                 8
Info: HYDROGEN GROUP CUTOFF  2.5
Info: PATCH DIMENSION        21.5
Info: ENERGY OUTPUT STEPS    100000
Info: ENERGY EVALUATION STEPS    100000
Info: OUTPUT ENERGY PRECISION 4
Info: CROSSTERM ENERGY INCLUDED IN DIHEDRAL
Info: TIMING OUTPUT STEPS    1000000
Info: PRESSURE OUTPUT STEPS  100000
Info: LANGEVIN DYNAMICS ACTIVE
Info: LANGEVIN TEMPERATURE   30
Info: LANGEVIN USING BBK INTEGRATOR
Info: LANGEVIN DAMPING COEFFICIENT IS 1 INVERSE PS
Info: LANGEVIN DYNAMICS APPLIED TO HYDROGENS
Info: LANGEVIN PISTON PRESSURE CONTROL ACTIVE
Info:        TARGET PRESSURE IS 1.01325 BAR
Info:     OSCILLATION PERIOD IS 50 FS
Info:             DECAY TIME IS 25 FS
Info:     PISTON TEMPERATURE IS 300 K
Info:       PRESSURE CONTROL IS GROUP-BASED
Info:    INITIAL STRAIN RATE IS 0 0 0
Info:       CELL FLUCTUATION IS ISOTROPIC
Info: PARTICLE MESH EWALD (PME) ACTIVE
Info: PME TOLERANCE               1e-06
Info: PME EWALD COEFFICIENT       0.348832
Info: PME INTERPOLATION ORDER     4
Info: PME GRID DIMENSIONS         36 36 36
Info: PME MAXIMUM GRID SPACING    1
Info: FULL ELECTROSTATIC EVALUATION FREQUENCY      2
Info: USING VERLET I (r-RESPA) MTS SCHEME.
Info: C1 SPLITTING OF LONG RANGE ELECTROSTATICS
Info: PLACING ATOMS IN PATCHES BY HYDROGEN GROUPS
Info: RIGID BONDS TO HYDROGEN : ALL
Info:         ERROR TOLERANCE : 1e-08
Info:          MAX ITERATIONS : 100
Info: RIGID WATER USING SETTLE ALGORITHM
Info: RANDOM NUMBER SEED     1742204196
Info: USE HYDROGEN BONDS?    NO
Info: Using AMBER format force field!
Info: AMBER PARM FILE        mobley_646007.prmtop
Info: COORDINATE PDB         mobley_646007.pdb
Info: Exclusions will be read from PARM file!
Info: SCNB (VDW SCALING)     2
Info: USING ARITHMETIC MEAN TO COMBINE L-J SIGMA PARAMETERS
Info: BINARY COORDINATES     mobley_646007_min.coor
Info: SUMMARY OF PARAMETERS:
Info: 7 BONDS
Info: 9 ANGLES
Info:   9 HARMONIC
Info:   0 COSINE-BASED
Info: 10 DIHEDRAL
Info: 0 IMPROPER
Info: 0 CROSSTERM
Info: 0 VDW
Info: 28 VDW_PAIRS
Info: 0 NBTHOLE_PAIRS
Info: STRUCTURE SUMMARY:
Info: 2918 ATOMS
Info: 2918 BONDS
Info: 27 ANGLES
Info: 39 DIHEDRALS
Info: 0 IMPROPERS
Info: 0 CROSSTERMS
Info: 2979 EXCLUSIONS
Info: 2913 RIGID BONDS
Info: 5841 DEGREES OF FREEDOM
Info: 973 HYDROGEN GROUPS
Info: 3 ATOMS IN LARGEST HYDROGEN GROUP
Info: 973 MIGRATION GROUPS
Info: 3 ATOMS IN LARGEST MIGRATION GROUP
Info: TOTAL MASS = 17510.6 amu
Info: TOTAL CHARGE = -2.98023e-08 e
Info: MASS DENSITY = 0.671985 g/cm^3
Info: ATOM DENSITY = 0.0674348 atoms/A^3
Info: ADDED 0 IMPLICIT EXCLUSIONS
Info: NONBONDED TABLE R-SQUARED SPACING: 0.0625
Info: NONBONDED TABLE SIZE: 705 POINTS
Info: REMOVING COM VELOCITY -0.245566 -0.0596835 0.251707
TCL: Running for 100000 steps
ETITLE: TS BOND ANGLE DIHED IMPRP ELECT VDW BOUNDARY MISC KINETIC TOTAL TEMP POTENTIAL TOTAL3 TEMPAVG PRESSURE GPRESSURE VOLUME PRESSAVG GPRESSAVG
ENERGY: 0 0.0207 6.3980 8.7530 0.0000 -13480.2633 2336.1761 0.0000 0.0000 1769.2894 -9359.6261 304.8611 -11128.9155 -9359.2804 304.8611 224.6362 264.9197 43271.4155 224.6362 264.9197
ENERGY: 100000 0.1974 7.3190 8.8117 0.0000 -14138.5456 2482.9554 0.0000 0.0000 178.8854 -11460.3768 30.8232 -11639.2622 -11459.7636 30.9271 456.3771 498.9852 27750.8378 3.3751 3.3586
TCL: Running 100000 steps at 60 kelvin.
TCL: Setting parameter langevinTemp to 60
TCL: Running for 100000 steps
ETITLE: TS BOND ANGLE DIHED IMPRP ELECT VDW BOUNDARY MISC KINETIC TOTAL TEMP POTENTIAL TOTAL3 TEMPAVG PRESSURE GPRESSURE VOLUME PRESSAVG GPRESSAVG
ENERGY: 100000 0.1974 7.3190 8.8117 0.0000 -14138.5456 2482.9554 0.0000 0.0000 178.8004 -11460.4618 30.8086 -11639.2622 -11460.0546 30.8086 435.0608 499.2795 27750.8378 435.0608 499.2795
ENERGY: 200000 0.0851 8.0338 8.6532 0.0000 -13942.9588 2378.9914 0.0000 0.0000 345.9533 -11201.2419 59.6102 -11547.1952 -11200.3625 59.9103 233.4284 286.6168 27446.9706 4.1969 4.2513
TCL: Running 100000 steps at 90 kelvin.
TCL: Setting parameter langevinTemp to 90
TCL: Running for 100000 steps
ETITLE: TS BOND ANGLE DIHED IMPRP ELECT VDW BOUNDARY MISC KINETIC TOTAL TEMP POTENTIAL TOTAL3 TEMPAVG PRESSURE GPRESSURE VOLUME PRESSAVG GPRESSAVG
ENERGY: 200000 0.0851 8.0338 8.6532 0.0000 -13942.9588 2378.9914 0.0000 0.0000 345.7803 -11201.4149 59.5804 -11547.1952 -11200.6839 59.5804 239.9443 286.3289 27446.9706 239.9443 286.3289
ENERGY: 300000 0.1518 9.4150 7.8844 0.0000 -13865.2926 2381.7047 0.0000 0.0000 550.0422 -10916.0944 94.7762 -11466.1366 -10915.0580 90.0127 494.9321 515.4680 27733.0126 4.1580 3.9831
TCL: Running 100000 steps at 120 kelvin.
TCL: Setting parameter langevinTemp to 120
TCL: Running for 100000 steps
ETITLE: TS BOND ANGLE DIHED IMPRP ELECT VDW BOUNDARY MISC KINETIC TOTAL TEMP POTENTIAL TOTAL3 TEMPAVG PRESSURE GPRESSURE VOLUME PRESSAVG GPRESSAVG
ENERGY: 300000 0.1518 9.4150 7.8844 0.0000 -13865.2926 2381.7047 0.0000 0.0000 549.7883 -10916.3483 94.7324 -11466.1366 -10915.1012 94.7324 470.5607 515.2725 27733.0126 470.5607 515.2725
ENERGY: 400000 1.0861 8.8844 8.9257 0.0000 -13572.5244 2243.6179 0.0000 0.0000 705.7128 -10604.2975 121.5993 -11310.0103 -10602.6194 119.9604 -377.2856 -356.3292 28207.6261 5.0318 4.9482
TCL: Running 100000 steps at 150 kelvin.
TCL: Setting parameter langevinTemp to 150
TCL: Running for 100000 steps
ETITLE: TS BOND ANGLE DIHED IMPRP ELECT VDW BOUNDARY MISC KINETIC TOTAL TEMP POTENTIAL TOTAL3 TEMPAVG PRESSURE GPRESSURE VOLUME PRESSAVG GPRESSAVG
ENERGY: 400000 1.0861 8.8844 8.9257 0.0000 -13572.5244 2243.6179 0.0000 0.0000 705.3635 -10604.6467 121.5391 -11310.0103 -10602.9376 121.5391 -407.2604 -356.8674 28207.6261 -407.2604 -356.8674
ENERGY: 500000 1.3690 11.0619 7.4811 0.0000 -13379.7321 2205.4009 0.0000 0.0000 872.8942 -10281.5252 150.4059 -11154.4194 -10281.0512 150.1331 -131.8957 -143.7856 28374.0605 3.8632 3.7926
TCL: Running 100000 steps at 180 kelvin.
TCL: Setting parameter langevinTemp to 180
TCL: Running for 100000 steps
ETITLE: TS BOND ANGLE DIHED IMPRP ELECT VDW BOUNDARY MISC KINETIC TOTAL TEMP POTENTIAL TOTAL3 TEMPAVG PRESSURE GPRESSURE VOLUME PRESSAVG GPRESSAVG
ENERGY: 500000 1.3690 11.0619 7.4811 0.0000 -13379.7321 2205.4009 0.0000 0.0000 872.4587 -10281.9607 150.3308 -11154.4194 -10280.2530 150.3308 -177.4738 -144.8495 28374.0605 -177.4738 -144.8495
ENERGY: 600000 1.2296 9.5671 8.0802 0.0000 -12965.7034 2136.2254 0.0000 0.0000 1072.1794 -9738.4217 184.7441 -10810.6011 -9738.4262 179.8012 772.7365 816.6855 28152.4920 4.1030 4.1891
TCL: Running 100000 steps at 210 kelvin.
TCL: Setting parameter langevinTemp to 210
TCL: Running for 100000 steps
ETITLE: TS BOND ANGLE DIHED IMPRP ELECT VDW BOUNDARY MISC KINETIC TOTAL TEMP POTENTIAL TOTAL3 TEMPAVG PRESSURE GPRESSURE VOLUME PRESSAVG GPRESSAVG
ENERGY: 600000 1.2296 9.5671 8.0802 0.0000 -12965.7034 2136.2254 0.0000 0.0000 1071.6497 -9738.9514 184.6528 -10810.6011 -9737.0776 184.6528 748.3271 815.1711 28152.4920 748.3271 815.1711
ENERGY: 700000 0.5743 12.6649 8.1964 0.0000 -12146.3865 1806.8638 0.0000 0.0000 1282.8948 -9035.1922 221.0519 -10318.0870 -9032.9530 209.9252 -415.6794 -342.3708 28811.7043 3.8166 4.0188
TCL: Running 100000 steps at 240 kelvin.
TCL: Setting parameter langevinTemp to 240
TCL: Running for 100000 steps
ETITLE: TS BOND ANGLE DIHED IMPRP ELECT VDW BOUNDARY MISC KINETIC TOTAL TEMP POTENTIAL TOTAL3 TEMPAVG PRESSURE GPRESSURE VOLUME PRESSAVG GPRESSAVG
ENERGY: 700000 0.5743 12.6649 8.1964 0.0000 -12146.3865 1806.8638 0.0000 0.0000 1282.2764 -9035.8106 220.9453 -10318.0870 -9033.2625 220.9453 -434.5210 -343.8091 28811.7043 -434.5210 -343.8091
ENERGY: 800000 0.5548 12.2434 10.0874 0.0000 -11553.6571 1669.6705 0.0000 0.0000 1415.1425 -8445.9586 243.8391 -9861.1011 -8443.6008 239.7609 341.5546 347.7704 28463.2635 4.0653 4.0587
TCL: Running 100000 steps at 270 kelvin.
TCL: Setting parameter langevinTemp to 270
TCL: Running for 100000 steps
ETITLE: TS BOND ANGLE DIHED IMPRP ELECT VDW BOUNDARY MISC KINETIC TOTAL TEMP POTENTIAL TOTAL3 TEMPAVG PRESSURE GPRESSURE VOLUME PRESSAVG GPRESSAVG
ENERGY: 800000 0.5548 12.2434 10.0874 0.0000 -11553.6571 1669.6705 0.0000 0.0000 1414.4585 -8446.6427 243.7212 -9861.1011 -8444.5510 243.7212 258.4322 346.3308 28463.2635 258.4322 346.3308
ENERGY: 900000 1.2639 12.5049 8.7803 0.0000 -11007.5429 1527.6616 0.0000 0.0000 1553.3870 -7903.9452 267.6596 -9457.3322 -7898.3285 270.0131 67.5238 182.6978 29370.5488 2.0639 2.1529
TCL: Running 1000000 steps at 300 kelvin.
TCL: Setting parameter langevinTemp to 300
TCL: Running for 1000000 steps
ETITLE: TS BOND ANGLE DIHED IMPRP ELECT VDW BOUNDARY MISC KINETIC TOTAL TEMP POTENTIAL TOTAL3 TEMPAVG PRESSURE GPRESSURE VOLUME PRESSAVG GPRESSAVG
ENERGY: 900000 1.2639 12.5049 8.7803 0.0000 -11007.5429 1527.6616 0.0000 0.0000 1552.6369 -7904.6953 267.5304 -9457.3322 -7902.3856 267.5304 96.5642 186.2917 29370.5488 96.5642 186.2917
ENERGY: 1100000 2.2315 6.7442 14.3856 0.0000 -10542.2474 1388.1421 0.0000 0.0000 1708.9216 -7421.8224 294.4593 -9130.7440 -7419.9420 300.7224 187.1376 238.5541 29333.3724 2.2492 2.0879
ENERGY: 1300000 1.1388 9.0380 10.8356 0.0000 -10513.1445 1320.2703 0.0000 0.0000 1694.0196 -7477.8422 291.8916 -9171.8618 -7474.9339 299.9716 -777.7178 -736.4967 29853.6565 3.9755 4.1526
ENERGY: 1500000 2.0602 12.8227 9.2825 0.0000 -10551.9066 1370.2124 0.0000 0.0000 1793.6217 -7363.9071 309.0538 -9157.5288 -7360.5904 300.7222 -564.5931 -402.9605 30035.9892 0.8958 0.8872
ENERGY: 1700000 4.6950 12.8895 7.3324 0.0000 -10712.6477 1512.9420 0.0000 0.0000 1803.2224 -7371.5664 310.7080 -9174.7888 -7367.1239 299.7370 498.4538 553.9879 30375.3145 2.2694 2.4325
ENERGY: 1900000 0.2418 12.1738 6.7641 0.0000 -10615.2465 1411.9360 0.0000 0.0000 1722.7917 -7461.3391 296.8492 -9184.1308 -7458.3313 300.2888 -338.9259 -280.5709 30136.5482 3.1897 3.2115
TCL: Exiting due to exit command.
