Info: SIMULATION PARAMETERS:
Info: TIMESTEP               2
Info: NUMBER OF STEPS        0
Info: STEPS PER CYCLE        10
Info: PERIODIC CELL BASIS 1  37.435 0 0
Info: PERIODIC CELL BASIS 2  0 37.796 0
Info: PERIODIC CELL BASIS 3  0 0 37.638
Info: PERIODIC CELL CENTER   0 0 0
Info: WRAPPING WATERS AROUND PERIODIC BOUNDARIES ON OUTPUT.
Info: WRAPPING ALL CLUSTERS AROUND PERIODIC BOUNDARIES ON OUTPUT.
Info: FIRST LDB TIMESTEP     50
Info: LAST LDB TIMESTEP     -1
Info: HOM BACKGROUND SCALING 1
Info: PME BACKGROUND SCALING 1
Info: MIN ATOMS PER PATCH    40
Info: EMPTY PATCH LOAD       40 ATOMS
Info: INITIAL TEMPERATURE    300
Info: CENTER OF MASS MOVING INITIALLY? NO
Info: DIELECTRIC             1
Info: EXCLUDE                SCALED ONE-FOUR
Info: 1-4 ELECTROSTATICS SCALED BY 0.833333
Info: MODIFIED 1-4 VDW PARAMETERS WILL BE USED
Info: DCD FILENAME           mobley_9029594_min.dcd
Info: DCD FREQUENCY          5000
Info: DCD FIRST STEP         5000
Info: DCD FILE WILL CONTAIN UNIT CELL DATA
Info: XST FILENAME           mobley_9029594_min.xst
Info: XST FREQUENCY          5000
Info: NO VELOCITY DCD OUTPUT
Info: NO FORCE DCD OUTPUT
Info: OUTPUT FILENAME        mobley_9029594_min
Info: BINARY OUTPUT FILES WILL BE USED
Info: RESTART FILENAME       mobley_9029594_min.restart
Info: RESTART FREQUENCY      5000
Info: BINARY RESTART FILES WILL BE USED
Info: CUTOFF                 9
Info: PAIRLIST DISTANCE      11
Info: PAIRLIST SHRINK RATE   0.01
Info: PAIRLIST GROW RATE     0.01
Info: PAIRLIST TRIGGER       0.3
Info: PAIRLISTS PER CYCLE    2
Info: PAIRLISTS ENABLED
Info: MARGIN                 1
Info: HYDROGEN GROUP CUTOFF  2.5
Info: PATCH DIMENSION        14.5
Info: ENERGY OUTPUT STEPS    5000
Info: ENERGY EVALUATION STEPS    5000
Info: OUTPUT ENERGY PRECISION 4
Info: CROSSTERM ENERGY INCLUDED IN DIHEDRAL
Info: TIMING OUTPUT STEPS    50000
Info: PRESSURE OUTPUT STEPS  5000
Info: LANGEVIN DYNAMICS ACTIVE
Info: LANGEVIN TEMPERATURE   300
Info: LANGEVIN USING BBK INTEGRATOR
Info: LANGEVIN DAMPING COEFFICIENT IS 1 INVERSE PS
Info: LANGEVIN DYNAMICS APPLIED TO HYDROGENS
Info: LANGEVIN PISTON PRESSURE CONTROL ACTIVE
Info:        TARGET PRESSURE IS 1.01325 BAR
Info:     OSCILLATION PERIOD IS 50 FS
Info:             DECAY TIME IS 25 FS
Info:     PISTON TEMPERATURE IS 300 K
Info:       PRESSURE CONTROL IS GROUP-BASED
Info:    INITIAL STRAIN RATE IS 0 0 0
Info:       CELL FLUCTUATION IS ISOTROPIC
Info: PARTICLE MESH EWALD (PME) ACTIVE
Info: PME TOLERANCE               1e-06
Info: PME EWALD COEFFICIENT       0.348832
Info: PME INTERPOLATION ORDER     4
Info: PME GRID DIMENSIONS         40 40 40
Info: PME MAXIMUM GRID SPACING    1
Info: FULL ELECTROSTATIC EVALUATION FREQUENCY      2
Info: USING VERLET I (r-RESPA) MTS SCHEME.
Info: C1 SPLITTING OF LONG RANGE ELECTROSTATICS
Info: PLACING ATOMS IN PATCHES BY HYDROGEN GROUPS
Info: RIGID BONDS TO HYDROGEN : ALL
Info:         ERROR TOLERANCE : 1e-08
Info:          MAX ITERATIONS : 100
Info: RIGID WATER USING SETTLE ALGORITHM
Info: RANDOM NUMBER SEED     1741085681
Info: USE HYDROGEN BONDS?    NO
Info: Using AMBER format force field!
Info: AMBER PARM FILE        mobley_9029594.prmtop
Info: COORDINATE PDB         mobley_9029594.pdb
Info: Exclusions will be read from PARM file!
Info: SCNB (VDW SCALING)     2
Info: USING ARITHMETIC MEAN TO COMBINE L-J SIGMA PARAMETERS
Info: SUMMARY OF PARAMETERS:
Info: 4 BONDS
Info: 2 ANGLES
Info:   2 HARMONIC
Info:   0 COSINE-BASED
Info: 0 DIHEDRAL
Info: 0 IMPROPER
Info: 0 CROSSTERM
Info: 0 VDW
Info: 15 VDW_PAIRS
Info: 0 NBTHOLE_PAIRS
Info: STRUCTURE SUMMARY:
Info: 3719 ATOMS
Info: 3718 BONDS
Info: 6 ANGLES
Info: 0 DIHEDRALS
Info: 0 IMPROPERS
Info: 0 CROSSTERMS
Info: 3724 EXCLUSIONS
Info: 3717 RIGID BONDS
Info: 7440 DEGREES OF FREEDOM
Info: 1240 HYDROGEN GROUPS
Info: 4 ATOMS IN LARGEST HYDROGEN GROUP
Info: 1240 MIGRATION GROUPS
Info: 4 ATOMS IN LARGEST MIGRATION GROUP
Info: TOTAL MASS = 22337.8 amu
Info: TOTAL CHARGE = 7.45058e-09 e
Info: MASS DENSITY = 0.696547 g/cm^3
Info: ATOM DENSITY = 0.0698355 atoms/A^3
Info: ADDED 0 IMPLICIT EXCLUSIONS
Info: NONBONDED TABLE R-SQUARED SPACING: 0.0625
Info: NONBONDED TABLE SIZE: 705 POINTS
Info: REMOVING COM VELOCITY -0.0842049 0.204765 0.0105084
TCL: Minimizing for 2000 steps
ETITLE: TS BOND ANGLE DIHED IMPRP ELECT VDW BOUNDARY MISC KINETIC TOTAL TEMP POTENTIAL TOTAL3 TEMPAVG PRESSURE GPRESSURE VOLUME PRESSAVG GPRESSAVG
ENERGY: 0 0.0078 0.0974 0.0000 0.0000 -11216.4823 1272.0957 0.0000 0.0000 0.0000 -9944.2814 0.0000 -9944.2814 -9944.2814 0.0000 10379.7298 -15161.5400 53253.7525 10379.7298 -15161.5400
ENERGY: 400 0.1960 0.2672 0.0000 0.0000 -15750.3691 2467.8235 0.0000 0.0000 0.0000 -13282.0824 0.0000 -13282.0824 -13282.0824 0.0000 16292.4252 16450.0077 53253.7525 16292.4252 16450.0077
ENERGY: 800 0.8957 0.4808 0.0000 0.0000 -16426.8563 2744.6022 0.0000 0.0000 0.0000 -13680.8776 0.0000 -13680.8776 -13680.8776 0.0000 17977.4470 18108.8237 53253.7525 17977.4470 18108.8237
ENERGY: 1200 0.2271 0.6698 0.0000 0.0000 -16853.4447 2905.9168 0.0000 0.0000 0.0000 -13946.6309 0.0000 -13946.6309 -13946.6309 0.0000 19001.7497 19145.1114 53253.7525 19001.7497 19145.1114
ENERGY: 1600 0.0054 0.3687 0.0000 0.0000 -17010.8044 2959.2328 0.0000 0.0000 0.0000 -14051.1976 0.0000 -14051.1976 -14051.1976 0.0000 19306.7583 19433.8195 53253.7525 19306.7583 19433.8195
ENERGY: 2000 0.0206 0.1533 0.0000 0.0000 -17089.5976 2986.3872 0.0000 0.0000 0.0000 -14103.0365 0.0000 -14103.0365 -14103.0365 0.0000 19501.2356 19617.3856 53253.7525 19501.2356 19617.3856
TCL: Exiting due to exit command.
Info: NAMD 3.0.1 for Linux-x86_64-multicore
Info: Please visit http://www.ks.uiuc.edu/Research/namd/
Info: for updates, documentation, and support information.
Info: Please cite Phillips et al., J. Chem. Phys. 153:044130 (2020) doi:10.1063/5.0014475
Info: in all publications reporting results obtained with NAMD.
Info: Based on Charm++/Converse 80000 for multicore-linux-x86_64-gcc
Info: Built Mon Oct 14 11:11:06 CDT 2024 by dhardy on athine.ks.uiuc.edu
Info: 1 NAMD  3.0.1  Linux-x86_64-multicore  16    k029  z5358697
Info: Running on 16 processors, 1 nodes, 1 physical nodes.
Info: CPU topology information available.
Info: Charm++/Converse parallel runtime startup completed at 0.00572857 s
Info: 1043.45 MB of memory in use based on /proc/self/stat
Info: Configuration file is mobley_9029594_equil.namd
Info: Working in the current directory /srv/scratch/z5358697/prod/9029594/prep
TCL: Running 25000 steps at 30 kelvin.
TCL: Suspending until startup complete.
Info: SIMULATION PARAMETERS:
Info: TIMESTEP               2
Info: NUMBER OF STEPS        0
Info: STEPS PER CYCLE        10
Info: PERIODIC CELL BASIS 1  37.435 0 0
Info: PERIODIC CELL BASIS 2  0 37.796 0
Info: PERIODIC CELL BASIS 3  0 0 37.638
Info: PERIODIC CELL CENTER   0 0 0
Info: WRAPPING WATERS AROUND PERIODIC BOUNDARIES ON OUTPUT.
Info: WRAPPING ALL CLUSTERS AROUND PERIODIC BOUNDARIES ON OUTPUT.
Info: FIRST LDB TIMESTEP     50
Info: LAST LDB TIMESTEP     -1
Info: HOM BACKGROUND SCALING 1
Info: PME BACKGROUND SCALING 1
Info: MIN ATOMS PER PATCH    40
Info: EMPTY PATCH LOAD       40 ATOMS
Info: INITIAL TEMPERATURE    300
Info: CENTER OF MASS MOVING INITIALLY? NO
Info: DIELECTRIC             1
Info: EXCLUDE                SCALED ONE-FOUR
Info: 1-4 ELECTROSTATICS SCALED BY 0.833333
Info: MODIFIED 1-4 VDW PARAMETERS WILL BE USED
Info: DCD FILENAME           mobley_9029594_equil.dcd
Info: DCD FREQUENCY          5000
Info: DCD FIRST STEP         5000
Info: DCD FILE WILL CONTAIN UNIT CELL DATA
Info: XST FILENAME           mobley_9029594_equil.xst
Info: XST FREQUENCY          5000
Info: NO VELOCITY DCD OUTPUT
Info: NO FORCE DCD OUTPUT
Info: OUTPUT FILENAME        mobley_9029594_equil
Info: BINARY OUTPUT FILES WILL BE USED
Info: RESTART FILENAME       mobley_9029594_equil.restart
Info: RESTART FREQUENCY      5000
Info: BINARY RESTART FILES WILL BE USED
Info: CUTOFF                 9
Info: PAIRLIST DISTANCE      11
Info: PAIRLIST SHRINK RATE   0.01
Info: PAIRLIST GROW RATE     0.01
Info: PAIRLIST TRIGGER       0.3
Info: PAIRLISTS PER CYCLE    2
Info: PAIRLISTS ENABLED
Info: MARGIN                 1
Info: HYDROGEN GROUP CUTOFF  2.5
Info: PATCH DIMENSION        14.5
Info: ENERGY OUTPUT STEPS    5000
Info: ENERGY EVALUATION STEPS    5000
Info: OUTPUT ENERGY PRECISION 4
Info: CROSSTERM ENERGY INCLUDED IN DIHEDRAL
Info: TIMING OUTPUT STEPS    50000
Info: PRESSURE OUTPUT STEPS  5000
Info: LANGEVIN DYNAMICS ACTIVE
Info: LANGEVIN TEMPERATURE   30
Info: LANGEVIN USING BBK INTEGRATOR
Info: LANGEVIN DAMPING COEFFICIENT IS 1 INVERSE PS
Info: LANGEVIN DYNAMICS APPLIED TO HYDROGENS
Info: LANGEVIN PISTON PRESSURE CONTROL ACTIVE
Info:        TARGET PRESSURE IS 1.01325 BAR
Info:     OSCILLATION PERIOD IS 50 FS
Info:             DECAY TIME IS 25 FS
Info:     PISTON TEMPERATURE IS 300 K
Info:       PRESSURE CONTROL IS GROUP-BASED
Info:    INITIAL STRAIN RATE IS 0 0 0
Info:       CELL FLUCTUATION IS ISOTROPIC
Info: PARTICLE MESH EWALD (PME) ACTIVE
Info: PME TOLERANCE               1e-06
Info: PME EWALD COEFFICIENT       0.348832
Info: PME INTERPOLATION ORDER     4
Info: PME GRID DIMENSIONS         40 40 40
Info: PME MAXIMUM GRID SPACING    1
Info: FULL ELECTROSTATIC EVALUATION FREQUENCY      2
Info: USING VERLET I (r-RESPA) MTS SCHEME.
Info: C1 SPLITTING OF LONG RANGE ELECTROSTATICS
Info: PLACING ATOMS IN PATCHES BY HYDROGEN GROUPS
Info: RIGID BONDS TO HYDROGEN : ALL
Info:         ERROR TOLERANCE : 1e-08
Info:          MAX ITERATIONS : 100
Info: RIGID WATER USING SETTLE ALGORITHM
Info: RANDOM NUMBER SEED     1741085697
Info: USE HYDROGEN BONDS?    NO
Info: Using AMBER format force field!
Info: AMBER PARM FILE        mobley_9029594.prmtop
Info: COORDINATE PDB         mobley_9029594.pdb
Info: Exclusions will be read from PARM file!
Info: SCNB (VDW SCALING)     2
Info: USING ARITHMETIC MEAN TO COMBINE L-J SIGMA PARAMETERS
Info: BINARY COORDINATES     mobley_9029594_min.coor
Info: SUMMARY OF PARAMETERS:
Info: 4 BONDS
Info: 2 ANGLES
Info:   2 HARMONIC
Info:   0 COSINE-BASED
Info: 0 DIHEDRAL
Info: 0 IMPROPER
Info: 0 CROSSTERM
Info: 0 VDW
Info: 15 VDW_PAIRS
Info: 0 NBTHOLE_PAIRS
Info: STRUCTURE SUMMARY:
Info: 3719 ATOMS
Info: 3718 BONDS
Info: 6 ANGLES
Info: 0 DIHEDRALS
Info: 0 IMPROPERS
Info: 0 CROSSTERMS
Info: 3724 EXCLUSIONS
Info: 3717 RIGID BONDS
Info: 7440 DEGREES OF FREEDOM
Info: 1240 HYDROGEN GROUPS
Info: 4 ATOMS IN LARGEST HYDROGEN GROUP
Info: 1240 MIGRATION GROUPS
Info: 4 ATOMS IN LARGEST MIGRATION GROUP
Info: TOTAL MASS = 22337.8 amu
Info: TOTAL CHARGE = 7.45058e-09 e
Info: MASS DENSITY = 0.696547 g/cm^3
Info: ATOM DENSITY = 0.0698355 atoms/A^3
Info: ADDED 0 IMPLICIT EXCLUSIONS
Info: NONBONDED TABLE R-SQUARED SPACING: 0.0625
Info: NONBONDED TABLE SIZE: 705 POINTS
Info: REMOVING COM VELOCITY -0.0151528 0.0535846 -0.0270489
TCL: Running for 25000 steps
ETITLE: TS BOND ANGLE DIHED IMPRP ELECT VDW BOUNDARY MISC KINETIC TOTAL TEMP POTENTIAL TOTAL3 TEMPAVG PRESSURE GPRESSURE VOLUME PRESSAVG GPRESSAVG
ENERGY: 0 0.0206 0.1533 0.0000 0.0000 -17089.5976 2986.3872 0.0000 0.0000 2214.7350 -11888.3015 299.5982 -14103.0366 -11887.8286 299.5982 281.6757 316.0184 53253.7525 281.6757 316.0184
ENERGY: 5000 0.0138 0.1852 0.0000 0.0000 -17684.0624 2973.8726 0.0000 0.0000 223.4498 -14486.5410 30.2272 -14709.9908 -14485.9642 47.7205 -877.5216 -817.7332 37099.2158 0.2061 0.5184
ENERGY: 10000 0.0396 0.1600 0.0000 0.0000 -17889.6837 3161.1176 0.0000 0.0000 220.5910 -14507.7755 29.8404 -14728.3664 -14507.2894 30.2616 329.3732 378.9297 36720.1041 3.2843 3.5345
ENERGY: 15000 0.0356 0.2697 0.0000 0.0000 -18053.4345 3309.0395 0.0000 0.0000 229.8862 -14514.2036 31.0978 -14744.0897 -14513.9070 30.3831 1323.7735 1368.8701 36392.4046 2.8993 2.9029
ENERGY: 20000 0.0030 0.2190 0.0000 0.0000 -17840.9040 3057.4757 0.0000 0.0000 220.9687 -14562.2377 29.8915 -14783.2063 -14561.6104 30.0487 -486.8013 -421.1469 36648.9083 2.5713 2.4354
ENERGY: 25000 0.0046 0.2012 0.0000 0.0000 -17867.7894 3068.1992 0.0000 0.0000 224.5402 -14574.8441 30.3747 -14799.3843 -14573.9576 30.0995 -489.1001 -432.8727 36669.3621 3.0596 3.2260
TCL: Running 25000 steps at 60 kelvin.
TCL: Setting parameter langevinTemp to 60
TCL: Running for 25000 steps
ETITLE: TS BOND ANGLE DIHED IMPRP ELECT VDW BOUNDARY MISC KINETIC TOTAL TEMP POTENTIAL TOTAL3 TEMPAVG PRESSURE GPRESSURE VOLUME PRESSAVG GPRESSAVG
ENERGY: 25000 0.0046 0.2012 0.0000 0.0000 -17867.7894 3068.1992 0.0000 0.0000 224.4297 -14574.9547 30.3597 -14799.3843 -14574.4337 30.3597 -486.7339 -432.6693 36669.3621 -486.7339 -432.6693
ENERGY: 30000 0.0975 0.5864 0.0000 0.0000 -17692.6430 3096.0820 0.0000 0.0000 442.2382 -14153.6390 59.8238 -14595.8772 -14152.3443 56.9824 410.1101 474.4268 36426.6121 -0.9701 -0.5934
ENERGY: 35000 0.0000 0.9930 0.0000 0.0000 -17642.9372 3007.8002 0.0000 0.0000 443.5965 -14190.5475 60.0075 -14634.1440 -14189.5174 60.3519 -261.6979 -184.6663 36458.9219 4.3331 4.3566
ENERGY: 40000 0.0248 0.3622 0.0000 0.0000 -17534.8738 2853.7503 0.0000 0.0000 445.8663 -14234.8702 60.3146 -14680.7365 -14233.5355 60.4516 -1285.2544 -1213.1606 36312.3917 0.7630 0.5935
ENERGY: 45000 0.0947 0.4093 0.0000 0.0000 -17649.5271 2951.1708 0.0000 0.0000 440.8910 -14256.9613 59.6415 -14697.8524 -14255.7240 59.5284 -678.7091 -618.5327 36139.2869 5.8699 6.0271
ENERGY: 50000 0.0426 0.1515 0.0000 0.0000 -17717.7852 3004.6303 0.0000 0.0000 447.4833 -14265.4775 60.5333 -14712.9608 -14263.8655 60.0665 -358.3016 -299.0332 36024.7173 2.5387 2.6295
TCL: Running 25000 steps at 90 kelvin.
TCL: Setting parameter langevinTemp to 90
TCL: Running for 25000 steps
ETITLE: TS BOND ANGLE DIHED IMPRP ELECT VDW BOUNDARY MISC KINETIC TOTAL TEMP POTENTIAL TOTAL3 TEMPAVG PRESSURE GPRESSURE VOLUME PRESSAVG GPRESSAVG
ENERGY: 50000 0.0426 0.1515 0.0000 0.0000 -17717.7852 3004.6303 0.0000 0.0000 447.2615 -14265.6993 60.5033 -14712.9608 -14264.7807 60.5033 -357.9415 -298.5037 36024.7173 -357.9415 -298.5037
ENERGY: 55000 0.0006 0.6280 0.0000 0.0000 -17375.0736 2897.1199 0.0000 0.0000 670.4746 -13806.8505 90.6984 -14477.3252 -13805.8653 87.2223 -342.9496 -283.6202 36199.7430 4.2246 4.3604
ENERGY: 60000 0.0275 1.4518 0.0000 0.0000 -17381.7237 2878.0276 0.0000 0.0000 674.4799 -13827.7369 91.2403 -14502.2168 -13826.4804 89.5924 -559.5365 -499.9317 36259.1974 5.2666 5.0390
ENERGY: 65000 0.4141 0.2435 0.0000 0.0000 -17556.9948 3041.8616 0.0000 0.0000 651.1056 -13863.3699 88.0783 -14514.4755 -13861.3397 90.3338 565.7578 628.0417 35836.9241 10.1456 9.9747
ENERGY: 70000 0.1061 0.5262 0.0000 0.0000 -17625.0349 3098.1541 0.0000 0.0000 676.2081 -13850.0405 91.4740 -14526.2486 -13848.3264 89.5277 984.0285 1012.6276 35785.9621 7.6444 7.5012
ENERGY: 75000 0.1024 0.4392 0.0000 0.0000 -17529.8401 2972.8463 0.0000 0.0000 659.9058 -13896.5465 89.2687 -14556.4523 -13895.0625 90.2909 -81.5751 -37.8030 36074.7934 4.2335 4.1391
TCL: Running 25000 steps at 120 kelvin.
TCL: Setting parameter langevinTemp to 120
TCL: Running for 25000 steps
ETITLE: TS BOND ANGLE DIHED IMPRP ELECT VDW BOUNDARY MISC KINETIC TOTAL TEMP POTENTIAL TOTAL3 TEMPAVG PRESSURE GPRESSURE VOLUME PRESSAVG GPRESSAVG
ENERGY: 75000 0.1024 0.4392 0.0000 0.0000 -17529.8401 2972.8463 0.0000 0.0000 659.5643 -13896.8880 89.2225 -14556.4523 -13895.5698 89.2225 -86.7690 -38.0108 36074.7934 -86.7690 -38.0108
ENERGY: 80000 0.0110 0.2298 0.0000 0.0000 -17211.2826 2919.8885 0.0000 0.0000 904.4169 -13386.7363 122.3450 -14291.1532 -13384.7992 116.4368 356.5421 395.4843 36192.4351 5.7276 5.7840
ENERGY: 85000 0.0068 1.2169 0.0000 0.0000 -17321.2387 2990.6709 0.0000 0.0000 897.4743 -13431.8698 121.4058 -14329.3441 -13429.9914 120.1123 666.1964 718.2668 36156.9240 3.4675 4.0103
ENERGY: 90000 0.0010 0.9884 0.0000 0.0000 -17278.3104 2910.4111 0.0000 0.0000 888.2053 -13478.7045 120.1519 -14366.9098 -13476.1621 120.1937 18.8641 69.9266 36152.1589 3.5153 4.0089
ENERGY: 95000 0.6628 0.2640 0.0000 0.0000 -17329.1990 2940.1629 0.0000 0.0000 910.6951 -13477.4141 123.1943 -14388.1093 -13474.5251 118.9892 123.9814 180.8057 36153.9298 -5.5174 -5.4214
ENERGY: 100000 0.0542 0.9713 0.0000 0.0000 -17423.9418 3010.7514 0.0000 0.0000 897.4415 -13514.7233 121.4014 -14412.1649 -13512.1934 120.1361 680.7287 711.3165 35923.3955 1.8113 2.4548
TCL: Running 25000 steps at 150 kelvin.
TCL: Setting parameter langevinTemp to 150
TCL: Running for 25000 steps
ETITLE: TS BOND ANGLE DIHED IMPRP ELECT VDW BOUNDARY MISC KINETIC TOTAL TEMP POTENTIAL TOTAL3 TEMPAVG PRESSURE GPRESSURE VOLUME PRESSAVG GPRESSAVG
ENERGY: 100000 0.0542 0.9713 0.0000 0.0000 -17423.9418 3010.7514 0.0000 0.0000 896.9911 -13515.1738 121.3404 -14412.1649 -13513.3013 121.3404 664.5575 711.6811 35923.3955 664.5575 711.6811
ENERGY: 105000 0.0036 1.2850 0.0000 0.0000 -16900.5248 2795.1836 0.0000 0.0000 1123.1643 -12980.8883 151.9360 -14104.0526 -12978.4581 146.8733 -64.1536 -21.9128 36447.8473 0.2647 0.5952
ENERGY: 110000 0.0566 1.2584 0.0000 0.0000 -16883.9026 2752.3905 0.0000 0.0000 1105.4385 -13024.7586 149.5382 -14130.1971 -13023.3365 151.7212 -364.0364 -307.8141 36396.1781 2.4072 2.4305
ENERGY: 115000 0.1568 1.2555 0.0000 0.0000 -17025.2037 2882.4271 0.0000 0.0000 1103.7419 -13037.6224 149.3087 -14141.3643 -13035.4276 150.4420 560.4777 616.6706 36092.0896 6.5519 6.0364
ENERGY: 120000 0.0140 0.4172 0.0000 0.0000 -16940.7685 2775.2653 0.0000 0.0000 1097.5692 -13067.5027 148.4736 -14165.0719 -13065.4629 150.8918 -442.4050 -326.8397 36368.6357 5.6468 6.2471
ENERGY: 125000 0.3160 0.7207 0.0000 0.0000 -17047.7248 2878.9363 0.0000 0.0000 1114.8762 -13052.8756 150.8148 -14167.7518 -13050.8429 148.6894 322.9448 293.1817 36484.9290 1.7033 1.6068
TCL: Running 50000 steps at 180 kelvin.
TCL: Setting parameter langevinTemp to 180
TCL: Running for 50000 steps
ETITLE: TS BOND ANGLE DIHED IMPRP ELECT VDW BOUNDARY MISC KINETIC TOTAL TEMP POTENTIAL TOTAL3 TEMPAVG PRESSURE GPRESSURE VOLUME PRESSAVG GPRESSAVG
ENERGY: 125000 0.3160 0.7207 0.0000 0.0000 -17047.7248 2878.9363 0.0000 0.0000 1114.3117 -13053.4401 150.7385 -14167.7518 -13051.5004 150.7385 241.8957 293.1158 36484.9290 241.8957 293.1158
ENERGY: 135000 0.1252 1.1667 0.0000 0.0000 -16480.3766 2665.5145 0.0000 0.0000 1331.9739 -12481.5963 180.1827 -13813.5703 -12476.8280 181.6768 167.0683 264.9922 36043.4219 5.8032 5.1913
ENERGY: 145000 0.0005 0.3997 0.0000 0.0000 -16652.5664 2801.8501 0.0000 0.0000 1320.1237 -12530.1924 178.5797 -13850.3161 -12528.7202 179.9938 1291.8206 1324.4966 35415.7205 -3.5914 -3.6133
ENERGY: 155000 0.0296 1.9679 0.0000 0.0000 -16531.6031 2716.5876 0.0000 0.0000 1328.7974 -12484.2206 179.7530 -13813.0181 -12480.9840 180.5289 490.2519 537.3537 36333.5513 4.4909 4.0997
ENERGY: 165000 0.0004 0.5664 0.0000 0.0000 -16606.9303 2695.1497 0.0000 0.0000 1333.6189 -12577.5949 180.4053 -13911.2137 -12573.0436 178.4128 -147.5654 -54.1589 36548.1687 3.7277 4.4877
ENERGY: 175000 0.1665 1.6072 0.0000 0.0000 -16780.6573 2857.4696 0.0000 0.0000 1328.0422 -12593.3717 179.6509 -13921.4139 -12589.6132 179.9507 860.0280 944.7974 36437.9097 7.1222 6.8598
TCL: Running 50000 steps at 210 kelvin.
TCL: Setting parameter langevinTemp to 210
TCL: Running for 50000 steps
ETITLE: TS BOND ANGLE DIHED IMPRP ELECT VDW BOUNDARY MISC KINETIC TOTAL TEMP POTENTIAL TOTAL3 TEMPAVG PRESSURE GPRESSURE VOLUME PRESSAVG GPRESSAVG
ENERGY: 175000 0.1665 1.6072 0.0000 0.0000 -16780.6573 2857.4696 0.0000 0.0000 1327.3907 -12594.0232 179.5627 -13921.4139 -12591.5158 179.5627 876.7061 945.4366 36437.9097 876.7061 945.4366
ENERGY: 185000 0.4605 1.0447 0.0000 0.0000 -15807.1327 2413.0938 0.0000 0.0000 1566.3690 -11826.1646 211.8905 -13392.5336 -11822.5554 210.0252 -515.7779 -449.6852 36883.1442 0.3156 -0.0744
ENERGY: 195000 0.2829 2.4996 0.0000 0.0000 -15561.2284 2289.4272 0.0000 0.0000 1571.2948 -11697.7239 212.5569 -13269.0187 -11694.4770 210.4494 -802.2006 -688.7493 36282.4649 -3.7801 -3.3200
ENERGY: 205000 0.0268 0.5729 0.0000 0.0000 -15818.5853 2426.3179 0.0000 0.0000 1521.3885 -11870.2791 205.8058 -13391.6676 -11865.2108 210.1641 -81.1175 -73.4006 36155.5874 -1.2067 -1.3486
ENERGY: 215000 0.0359 0.8643 0.0000 0.0000 -15654.9456 2401.1196 0.0000 0.0000 1550.8552 -11702.0705 209.7919 -13252.9257 -11698.2367 208.5958 93.1011 229.2320 36213.7223 0.5168 0.9779
ENERGY: 225000 0.0079 0.3209 0.0000 0.0000 -15551.2457 2289.1850 0.0000 0.0000 1548.7777 -11712.9542 209.5109 -13261.7319 -11708.5675 210.3063 -489.9165 -430.5111 36078.8191 5.9797 5.6405
TCL: Running 50000 steps at 240 kelvin.
TCL: Setting parameter langevinTemp to 240
TCL: Running for 50000 steps
ETITLE: TS BOND ANGLE DIHED IMPRP ELECT VDW BOUNDARY MISC KINETIC TOTAL TEMP POTENTIAL TOTAL3 TEMPAVG PRESSURE GPRESSURE VOLUME PRESSAVG GPRESSAVG
ENERGY: 225000 0.0079 0.3209 0.0000 0.0000 -15551.2457 2289.1850 0.0000 0.0000 1548.0241 -11713.7079 209.4089 -13261.7319 -11711.1802 209.4089 -516.1337 -430.6088 36078.8191 -516.1337 -430.6088
ENERGY: 235000 0.2448 3.0010 0.0000 0.0000 -15012.2239 2248.1732 0.0000 0.0000 1771.5267 -10989.2783 239.6432 -12760.8050 -10985.9037 240.0533 286.4644 368.6184 36764.4914 4.9092 4.8791
ENERGY: 245000 0.2620 0.8021 0.0000 0.0000 -14997.5411 2305.9160 0.0000 0.0000 1751.0741 -10939.4869 236.8765 -12690.5610 -10936.3497 241.0142 741.3813 836.0302 36801.3580 1.7868 1.8228
ENERGY: 255000 0.0045 2.1650 0.0000 0.0000 -14978.3841 2159.1059 0.0000 0.0000 1810.5067 -11006.6019 244.9162 -12817.1086 -11002.8566 241.8258 -218.5378 -134.8437 36407.4850 3.3019 2.5825
ENERGY: 265000 0.0185 0.7634 0.0000 0.0000 -14987.8306 2214.1598 0.0000 0.0000 1768.1569 -11004.7320 239.1874 -12772.8889 -11000.5947 241.6637 63.2652 164.1432 36559.7771 6.2445 6.0631
ENERGY: 275000 0.0206 0.4161 0.0000 0.0000 -14968.5836 2203.7679 0.0000 0.0000 1761.6555 -11002.7235 238.3079 -12764.3790 -10997.4798 239.0387 205.5389 281.6252 36452.9680 3.2683 3.8626
TCL: Running 50000 steps at 270 kelvin.
TCL: Setting parameter langevinTemp to 270
TCL: Running for 50000 steps
ETITLE: TS BOND ANGLE DIHED IMPRP ELECT VDW BOUNDARY MISC KINETIC TOTAL TEMP POTENTIAL TOTAL3 TEMPAVG PRESSURE GPRESSURE VOLUME PRESSAVG GPRESSAVG
ENERGY: 275000 0.0206 0.4161 0.0000 0.0000 -14968.5836 2203.7679 0.0000 0.0000 1760.7426 -11003.6364 238.1844 -12764.3790 -11001.2486 238.1844 198.8853 282.7078 36452.9680 198.8853 282.7078
ENERGY: 285000 0.7972 1.9229 0.0000 0.0000 -14171.1033 2015.4279 0.0000 0.0000 1995.5216 -10157.4338 269.9441 -12152.9554 -10155.5059 270.9819 242.4189 368.3827 37217.2075 9.4339 9.4193
ENERGY: 295000 0.0087 0.2503 0.0000 0.0000 -14177.0384 2079.7734 0.0000 0.0000 2070.0253 -10026.9807 280.0226 -12097.0060 -10024.6292 271.1198 852.6505 938.2838 37205.9880 2.3006 2.5976
ENERGY: 305000 0.3297 1.6864 0.0000 0.0000 -14370.3824 2093.9449 0.0000 0.0000 1941.3279 -10333.0935 262.6131 -12274.4214 -10328.6816 268.9450 434.4646 612.1558 36936.2569 3.6222 3.8304
ENERGY: 315000 0.1246 1.7771 0.0000 0.0000 -14128.6561 2018.2892 0.0000 0.0000 1988.4353 -10120.0300 268.9855 -12108.4653 -10115.2093 272.7364 359.8674 487.5839 37446.4624 -0.0327 0.2037
ENERGY: 325000 0.3941 2.1380 0.0000 0.0000 -14055.9368 1932.6919 0.0000 0.0000 1950.2573 -10170.4554 263.8210 -12120.7127 -10166.6417 269.3124 -123.6546 -71.6826 37455.5898 2.9949 2.8202
TCL: Running 1000000 steps at 300 kelvin.
TCL: Setting parameter langevinTemp to 300
TCL: Running for 1000000 steps
ETITLE: TS BOND ANGLE DIHED IMPRP ELECT VDW BOUNDARY MISC KINETIC TOTAL TEMP POTENTIAL TOTAL3 TEMPAVG PRESSURE GPRESSURE VOLUME PRESSAVG GPRESSAVG
ENERGY: 325000 0.3941 2.1380 0.0000 0.0000 -14055.9368 1932.6919 0.0000 0.0000 1949.2699 -10171.4429 263.6874 -12120.7127 -10168.2122 263.6874 -150.7481 -71.3351 37455.5898 -150.7481 -71.3351
ENERGY: 525000 0.3707 0.6737 0.0000 0.0000 -13552.3639 1822.6340 0.0000 0.0000 2268.3404 -9460.3451 306.8497 -11728.6855 -9459.0298 300.0350 -145.6097 -42.3984 38672.1099 -5.1004 -3.9018
ENERGY: 725000 0.2248 0.9317 0.0000 0.0000 -13506.7488 1777.6785 0.0000 0.0000 2277.2295 -9450.6843 308.0522 -11727.9138 -9449.1346 300.8042 -156.4856 -99.7678 38115.3510 9.1767 9.7585
ENERGY: 925000 0.0774 0.8918 0.0000 0.0000 -13374.3982 1686.0650 0.0000 0.0000 2210.9420 -9476.4219 299.0851 -11687.3639 -9472.5663 299.5239 -861.4369 -817.5446 38749.0348 5.0938 4.1972
ENERGY: 1125000 0.0746 1.4667 0.0000 0.0000 -13593.2915 1882.4822 0.0000 0.0000 2256.4737 -9452.7944 305.2444 -11709.2681 -9451.2405 300.1142 584.2627 627.1830 37872.5159 3.4595 3.4087
ENERGY: 1325000 0.0110 1.1374 0.0000 0.0000 -13623.3408 1862.4690 0.0000 0.0000 2207.5223 -9552.2011 298.6225 -11759.7233 -9547.6582 299.2965 -86.1325 -40.6782 38666.0020 -1.4484 -1.5930
TCL: Exiting due to exit command.
