Info: SIMULATION PARAMETERS:
Info: TIMESTEP               2
Info: NUMBER OF STEPS        0
Info: STEPS PER CYCLE        10
Info: PERIODIC CELL BASIS 1  30.8186 0 0
Info: PERIODIC CELL BASIS 2  0 31.5171 0
Info: PERIODIC CELL BASIS 3  0 0 31.4678
Info: PERIODIC CELL CENTER   0 0 0
Info: WRAPPING WATERS AROUND PERIODIC BOUNDARIES ON OUTPUT.
Info: WRAPPING ALL CLUSTERS AROUND PERIODIC BOUNDARIES ON OUTPUT.
Info: FIRST LDB TIMESTEP     50
Info: LAST LDB TIMESTEP     -1
Info: HOM BACKGROUND SCALING 1
Info: PME BACKGROUND SCALING 1
Info: MIN ATOMS PER PATCH    40
Info: EMPTY PATCH LOAD       40 ATOMS
Info: VELOCITY FILE          mobley_1650157_equil.vel
Info: CENTER OF MASS MOVING INITIALLY? NO
Info: DIELECTRIC             1
Info: EXCLUDE                SCALED ONE-FOUR
Info: 1-4 ELECTROSTATICS SCALED BY 0.833333
Info: MODIFIED 1-4 VDW PARAMETERS WILL BE USED
Info: DCD FILENAME           mobley_1650157_prod.dcd
Info: DCD FREQUENCY          100000
Info: DCD FIRST STEP         100000
Info: DCD FILE WILL CONTAIN UNIT CELL DATA
Info: XST FILENAME           mobley_1650157_prod.xst
Info: XST FREQUENCY          100000
Info: NO VELOCITY DCD OUTPUT
Info: NO FORCE DCD OUTPUT
Info: OUTPUT FILENAME        mobley_1650157_prod
Info: BINARY OUTPUT FILES WILL BE USED
Info: RESTART FILENAME       mobley_1650157_prod.restart
Info: RESTART FREQUENCY      100000
Info: BINARY RESTART FILES WILL BE USED
Info: CUTOFF                 9
Info: PAIRLIST DISTANCE      11
Info: PAIRLIST SHRINK RATE   0.01
Info: PAIRLIST GROW RATE     0.01
Info: PAIRLIST TRIGGER       0.3
Info: PAIRLISTS PER CYCLE    2
Info: PAIRLISTS ENABLED
Info: MARGIN                 2
Info: HYDROGEN GROUP CUTOFF  2.5
Info: PATCH DIMENSION        15.5
Info: ENERGY OUTPUT STEPS    100000
Info: ENERGY EVALUATION STEPS    100000
Info: OUTPUT ENERGY PRECISION 4
Info: CROSSTERM ENERGY INCLUDED IN DIHEDRAL
Info: TIMING OUTPUT STEPS    1000000
Info: PRESSURE OUTPUT STEPS  100000
Info: ALCHEMICAL FEP ON
Info: FEP CURRENT LAMBDA VALUE     1
Info: FEP COMPARISON LAMBDA VALUE  0.95
Info: FEP INTRA-ALCHEMICAL NON-BONDED INTERACTIONS WILL BE RETAINED
Info: FEP INTRA-ALCHEMICAL BONDED INTERACTIONS WILL BE RETAINED
Info: FEP VDW SHIFTING COEFFICIENT 5
Info: FEP ELEC. ACTIVE FOR ANNIHILATED PARTICLES BETWEEN LAMBDA = 0 AND LAMBDA = 0.5
Info: FEP ELEC. ACTIVE FOR EXNIHILATED PARTICLES BETWEEN LAMBDA = 0.5 AND LAMBDA = 1
Info: FEP VDW ACTIVE FOR ANNIHILATED PARTICLES BETWEEN LAMBDA = 0 AND LAMBDA = 1
Info: FEP VDW ACTIVE FOR EXNIHILATED PARTICLES BETWEEN LAMBDA = 0 AND LAMBDA = 1
Info: FEP BOND ACTIVE FOR ANNIHILATED PARTICLES BETWEEN LAMBDA = 1 AND LAMBDA = 1
Info: FEP BOND ACTIVE FOR EXNIHILATED PARTICLES BETWEEN LAMBDA = 0 AND LAMBDA = 0
Info: LANGEVIN DYNAMICS ACTIVE
Info: LANGEVIN TEMPERATURE   300
Info: LANGEVIN USING BBK INTEGRATOR
Info: LANGEVIN DAMPING COEFFICIENT IS 1 INVERSE PS
Info: LANGEVIN DYNAMICS APPLIED TO HYDROGENS
Info: LANGEVIN PISTON PRESSURE CONTROL ACTIVE
Info:        TARGET PRESSURE IS 1.01325 BAR
Info:     OSCILLATION PERIOD IS 50 FS
Info:             DECAY TIME IS 25 FS
Info:     PISTON TEMPERATURE IS 300 K
Info:       PRESSURE CONTROL IS GROUP-BASED
Info:    INITIAL STRAIN RATE IS -0.000489923 -0.000489923 -0.000489923
Info:       CELL FLUCTUATION IS ISOTROPIC
Info: PARTICLE MESH EWALD (PME) ACTIVE
Info: PME TOLERANCE               1e-06
Info: PME EWALD COEFFICIENT       0.348832
Info: PME INTERPOLATION ORDER     4
Info: PME GRID DIMENSIONS         32 32 32
Info: PME MAXIMUM GRID SPACING    1
Info: PME CALCULATION WILL BE PERFORMED ON GPU
Info: FULL ELECTROSTATIC EVALUATION FREQUENCY      2
Info: USING VERLET I (r-RESPA) MTS SCHEME.
Info: C1 SPLITTING OF LONG RANGE ELECTROSTATICS
Info: PLACING ATOMS IN PATCHES BY HYDROGEN GROUPS
Info: RIGID BONDS TO HYDROGEN : ALL
Info:         ERROR TOLERANCE : 1e-08
Info:          MAX ITERATIONS : 100
Info: RIGID WATER USING SETTLE ALGORITHM
Info: RANDOM NUMBER SEED     1742269724
Info: USE HYDROGEN BONDS?    NO
Info: Using AMBER format force field!
Info: AMBER PARM FILE        mobley_1650157.prmtop
Info: COORDINATE PDB         mobley_1650157.pdb
Info: Exclusions will be read from PARM file!
Info: SCNB (VDW SCALING)     2
Info: USING ARITHMETIC MEAN TO COMBINE L-J SIGMA PARAMETERS
Info: BINARY COORDINATES     mobley_1650157_equil.coor
Info: SUMMARY OF PARAMETERS:
Info: 6 BONDS
Info: 5 ANGLES
Info:   5 HARMONIC
Info:   0 COSINE-BASED
Info: 3 DIHEDRAL
Info: 0 IMPROPER
Info: 0 CROSSTERM
Info: 0 VDW
Info: 21 VDW_PAIRS
Info: 0 NBTHOLE_PAIRS
Info: To read alchdata from file: mobley_1650157.pdb
Info: To read alchflag data from column: 5
Info: STRUCTURE SUMMARY:
Info: 2976 ATOMS
Info: 2975 BONDS
Info: 25 ANGLES
Info: 30 DIHEDRALS
Info: 0 IMPROPERS
Info: 0 CROSSTERMS
Info: 3030 EXCLUSIONS
Info: 2971 RIGID BONDS
Info: ALCH: 0 ATOMS TO DISAPPEAR IN FINAL STATE
Info: ALCH: 15 ATOMS TO APPEAR IN FINAL STATE
Info: 5957 DEGREES OF FREEDOM
Info: 992 HYDROGEN GROUPS
Info: 4 ATOMS IN LARGEST HYDROGEN GROUP
Info: 992 MIGRATION GROUPS
Info: 4 ATOMS IN LARGEST MIGRATION GROUP
Info: TOTAL MASS = 17855.9 amu
Info: TOTAL CHARGE = 0.000100017 e
Info: MASS DENSITY = 0.970099 g/cm^3
Info: ATOM DENSITY = 0.0973661 atoms/A^3
Info: ADDED 0 IMPLICIT EXCLUSIONS
Info: NONBONDED TABLE R-SQUARED SPACING: 0.0625
Info: NONBONDED TABLE SIZE: 705 POINTS
Info: REMOVING COM VELOCITY -0.0308518 -0.102048 0.10308
Info: Use 3D box decompostion in PME FFT.
Info: Updated CUDA force table with 4096 elements.
Info: Updated CUDA LJ table with 6 x 6 elements.
Info: Found 18 unique exclusion lists needing 40 bytes
TCL: Running for 1500000 steps
ETITLE: TS BOND ANGLE DIHED IMPRP ELECT VDW BOUNDARY MISC KINETIC TOTAL TEMP POTENTIAL TOTALAVG TEMPAVG PRESSURE GPRESSURE VOLUME PRESSAVG GPRESSAVG
ENERGY: 0 2.3774 8.3396 0.5327 0.0000 -10933.7807 1502.6193 0.0000 0.0000 1742.4657 -7677.4460 294.3927 -9419.9117 -7677.4460 294.3927 132.7021 220.9937 30565.0578 132.7021 220.9937
ENERGY: 300000 3.7189 8.8126 0.5475 0.0000 -10882.0554 1528.3133 0.0000 0.0000 1728.4782 -7612.1850 292.0295 -9340.6632 -7601.1616 302.0419 503.3735 538.2109 30716.5725 270.8994 330.9589
ENERGY: 600000 1.5273 7.5843 0.9036 0.0000 -10757.3734 1438.7070 0.0000 0.0000 1790.5386 -7518.1126 302.5147 -9308.6512 -7563.6981 302.9410 -224.1709 -130.6032 31108.7572 -11.1954 64.4912
ENERGY: 900000 2.0131 10.6001 0.7470 0.0000 -10742.2779 1410.5788 0.0000 0.0000 1777.4961 -7540.8427 300.3111 -9318.3388 -7561.3263 302.0104 -64.8331 -34.5254 30406.5784 -1.4020 69.8329
ENERGY: 1200000 0.8271 5.9326 0.4221 0.0000 -10874.8356 1500.6909 0.0000 0.0000 1820.0928 -7546.8701 307.5079 -9366.9629 -7581.8440 301.4876 370.3523 412.9710 30416.9227 -13.0877 46.0794
ENERGY: 1500000 1.8043 5.7539 1.3054 0.0000 -10783.4731 1411.6959 0.0000 0.0000 1781.7399 -7581.1738 301.0281 -9362.9137 -7587.3651 301.6702 -586.3048 -451.0548 31020.7614 25.5220 85.0215
TCL: Running FEP window   2: Lambda1 0.95   Lambda2 0.8999999999999999 [dLambda -0.050000000000000044]
TCL: Setting parameter firsttimestep to 0
TCL: Setting parameter alchLambda to 0.95
Info: NONBONDED TABLE R-SQUARED SPACING: 0.0625
Info: NONBONDED TABLE SIZE: 705 POINTS
TCL: Setting parameter alchLambda2 to 0.8999999999999999
Info: NONBONDED TABLE R-SQUARED SPACING: 0.0625
Info: NONBONDED TABLE SIZE: 705 POINTS
TCL: Running for 1500000 steps
ETITLE: TS BOND ANGLE DIHED IMPRP ELECT VDW BOUNDARY MISC KINETIC TOTAL TEMP POTENTIAL TOTALAVG TEMPAVG PRESSURE GPRESSURE VOLUME PRESSAVG GPRESSAVG
ENERGY: 0 1.8043 5.7539 1.3054 0.0000 -10782.1846 1411.4862 0.0000 0.0000 1780.8423 -7580.9926 300.8765 -9361.8348 -7580.9926 300.8765 -541.1013 -457.9164 31020.7614 -541.1013 -457.9164
ENERGY: 300000 2.7607 6.6821 0.4753 0.0000 -10916.3296 1514.5040 0.0000 0.0000 1790.0282 -7601.8794 302.4285 -9391.9075 -7587.0313 301.2454 108.8795 218.6735 30871.5910 -100.1637 -14.6526
ENERGY: 600000 0.3736 5.5671 0.5413 0.0000 -10794.1506 1538.9605 0.0000 0.0000 1744.0814 -7504.6267 294.6657 -9248.7081 -7575.1153 300.7122 666.6726 665.1901 31355.5378 57.9320 126.8366
ENERGY: 900000 0.3901 4.7257 0.8008 0.0000 -10807.3310 1458.6601 0.0000 0.0000 1809.9188 -7532.8355 305.7890 -9342.7543 -7572.5106 300.4609 103.3790 160.3266 30813.1222 -152.5312 -80.6317
ENERGY: 1200000 1.0377 7.2679 0.9706 0.0000 -10937.0210 1527.3688 0.0000 0.0000 1797.9360 -7602.4400 303.7645 -9400.3760 -7579.4267 299.9601 251.5566 362.1241 30876.2715 -133.6238 -58.6418
ENERGY: 1500000 1.3307 6.1408 1.3262 0.0000 -10948.2106 1493.9263 0.0000 0.0000 1748.1820 -7697.3046 295.3585 -9445.4865 -7597.9712 298.5934 111.7142 249.7491 30105.0068 -141.5401 -52.7936
TCL: Running FEP window   3: Lambda1 0.8999999999999999 Lambda2 0.8499999999999999 [dLambda -0.050000000000000044]
TCL: Setting parameter firsttimestep to 0
TCL: Setting parameter alchLambda to 0.8999999999999999
Info: NONBONDED TABLE R-SQUARED SPACING: 0.0625
Info: NONBONDED TABLE SIZE: 705 POINTS
TCL: Setting parameter alchLambda2 to 0.8499999999999999
Info: NONBONDED TABLE R-SQUARED SPACING: 0.0625
Info: NONBONDED TABLE SIZE: 705 POINTS
TCL: Running for 1500000 steps
ETITLE: TS BOND ANGLE DIHED IMPRP ELECT VDW BOUNDARY MISC KINETIC TOTAL TEMP POTENTIAL TOTALAVG TEMPAVG PRESSURE GPRESSURE VOLUME PRESSAVG GPRESSAVG
ENERGY: 0 1.3307 6.1408 1.3262 0.0000 -10946.8331 1493.8076 0.0000 0.0000 1747.3096 -7696.9181 295.2111 -9444.2277 -7696.9181 295.2111 152.3825 241.2480 30105.0068 152.3825 241.2480
ENERGY: 300000 0.7765 7.8042 0.3022 0.0000 -10934.3758 1434.4876 0.0000 0.0000 1735.8309 -7755.1744 293.2717 -9491.0053 -7621.2970 299.8304 -520.8160 -532.9617 30571.0091 36.7625 80.3833
ENERGY: 600000 0.3199 11.0486 0.7850 0.0000 -10748.4140 1398.8534 0.0000 0.0000 1745.3000 -7592.1072 294.8715 -9337.4072 -7592.5613 299.1097 -218.8930 -162.9264 30267.6956 -252.9302 -190.8240
ENERGY: 900000 0.5034 6.2017 0.7031 0.0000 -10850.1064 1466.3980 0.0000 0.0000 1774.7007 -7601.5995 299.8389 -9376.3002 -7597.5384 298.2995 -121.2143 -27.6299 30912.1911 -257.5670 -190.8924
ENERGY: 1200000 1.6733 6.4014 0.3666 0.0000 -10744.7142 1416.8893 0.0000 0.0000 1749.2618 -7570.1219 295.5409 -9319.3837 -7594.5784 298.7039 -341.3150 -306.5310 31051.8296 -228.9588 -160.2236
ENERGY: 1500000 0.3202 4.9513 0.8500 0.0000 -10849.6921 1484.3497 0.0000 0.0000 1804.8679 -7554.3530 304.9357 -9359.2210 -7590.7103 298.4609 200.5163 247.2181 30643.9307 -238.7661 -173.4210
TCL: Running FEP window   4: Lambda1 0.8499999999999999 Lambda2 0.7999999999999998 [dLambda -0.050000000000000044]
TCL: Setting parameter firsttimestep to 0
TCL: Setting parameter alchLambda to 0.8499999999999999
Info: NONBONDED TABLE R-SQUARED SPACING: 0.0625
Info: NONBONDED TABLE SIZE: 705 POINTS
TCL: Setting parameter alchLambda2 to 0.7999999999999998
Info: NONBONDED TABLE R-SQUARED SPACING: 0.0625
Info: NONBONDED TABLE SIZE: 705 POINTS
TCL: Running for 1500000 steps
ETITLE: TS BOND ANGLE DIHED IMPRP ELECT VDW BOUNDARY MISC KINETIC TOTAL TEMP POTENTIAL TOTALAVG TEMPAVG PRESSURE GPRESSURE VOLUME PRESSAVG GPRESSAVG
ENERGY: 0 0.3202 4.9513 0.8500 0.0000 -10847.7936 1483.3018 0.0000 0.0000 1803.9986 -7554.3718 304.7888 -9358.3703 -7554.3718 304.7888 147.9227 233.3645 30643.9307 147.9227 233.3645
ENERGY: 300000 1.0653 6.3469 0.2909 0.0000 -10930.1393 1547.3268 0.0000 0.0000 1785.4926 -7589.6168 301.6622 -9375.1093 -7562.7150 302.4011 878.1402 966.5828 30075.1481 350.5275 421.8808
ENERGY: 600000 0.9802 4.0612 0.2714 0.0000 -10678.9522 1389.7753 0.0000 0.0000 1734.5999 -7549.2643 293.0638 -9283.8643 -7553.7722 299.8698 -151.8558 -116.6906 30406.8132 28.4661 96.4958
ENERGY: 900000 4.5328 5.0453 0.3360 0.0000 -10608.0074 1299.2108 0.0000 0.0000 1795.0252 -7503.8573 303.2727 -9298.8825 -7559.6344 299.9133 -952.9912 -917.2201 30564.8287 -51.4259 17.5565
ENERGY: 1200000 1.9391 5.4854 0.4359 0.0000 -10751.4784 1412.5755 0.0000 0.0000 1775.8297 -7555.2127 300.0296 -9331.0424 -7554.6779 301.3645 -128.0332 -113.7821 30203.1608 4.8153 66.3131
ENERGY: 1500000 1.1486 4.7609 0.8380 0.0000 -10714.5684 1442.1237 0.0000 0.0000 1784.2155 -7481.4818 301.4464 -9265.6972 -7557.9717 300.8816 93.4017 160.3968 30844.4030 -4.4160 53.5892
TCL: Running FEP window   5: Lambda1 0.7999999999999998 Lambda2 0.7499999999999998 [dLambda -0.050000000000000044]
TCL: Setting parameter firsttimestep to 0
TCL: Setting parameter alchLambda to 0.7999999999999998
Info: NONBONDED TABLE R-SQUARED SPACING: 0.0625
Info: NONBONDED TABLE SIZE: 705 POINTS
TCL: Setting parameter alchLambda2 to 0.7499999999999998
Info: NONBONDED TABLE R-SQUARED SPACING: 0.0625
Info: NONBONDED TABLE SIZE: 705 POINTS
TCL: Running for 1500000 steps
ETITLE: TS BOND ANGLE DIHED IMPRP ELECT VDW BOUNDARY MISC KINETIC TOTAL TEMP POTENTIAL TOTALAVG TEMPAVG PRESSURE GPRESSURE VOLUME PRESSAVG GPRESSAVG
ENERGY: 0 1.1486 4.7609 0.8380 0.0000 -10713.6495 1442.3376 0.0000 0.0000 1783.3363 -7481.2280 301.2979 -9264.5644 -7481.2280 301.2979 72.6781 157.6799 30844.4030 72.6781 157.6799
ENERGY: 300000 0.2949 7.5892 1.8305 0.0000 -10841.5943 1426.4549 0.0000 0.0000 1817.8769 -7587.5479 307.1335 -9405.4248 -7535.0740 302.8314 -130.9345 -35.8405 30167.9334 40.9011 84.4024
ENERGY: 600000 1.3164 6.7714 2.0533 0.0000 -10786.5434 1413.3459 0.0000 0.0000 1838.2215 -7524.8348 310.5708 -9363.0563 -7529.6529 303.5516 -425.6699 -410.6862 30775.4185 -5.4103 29.3786
ENERGY: 900000 2.9348 4.5998 1.8249 0.0000 -10765.6552 1446.2161 0.0000 0.0000 1804.4055 -7505.6741 304.8575 -9310.0796 -7530.7279 303.1180 178.1204 214.7655 30567.3433 -22.1653 11.7111
ENERGY: 1200000 0.3062 10.2897 0.9071 0.0000 -10779.3905 1416.7119 0.0000 0.0000 1785.8507 -7565.3249 301.7227 -9351.1755 -7544.3897 302.9930 -104.4837 44.7535 30059.3638 -39.6673 13.0717
ENERGY: 1500000 1.9434 6.5445 1.6883 0.0000 -10762.7187 1375.1258 0.0000 0.0000 1752.5963 -7624.8204 296.1043 -9377.4167 -7551.3510 301.9956 -766.3446 -681.9887 30956.0375 -38.3776 20.3520
TCL: Running FEP window   6: Lambda1 0.7499999999999998 Lambda2 0.6999999999999997 [dLambda -0.050000000000000044]
TCL: Setting parameter firsttimestep to 0
TCL: Setting parameter alchLambda to 0.7499999999999998
Info: NONBONDED TABLE R-SQUARED SPACING: 0.0625
Info: NONBONDED TABLE SIZE: 705 POINTS
TCL: Setting parameter alchLambda2 to 0.6999999999999997
Info: NONBONDED TABLE R-SQUARED SPACING: 0.0625
Info: NONBONDED TABLE SIZE: 705 POINTS
TCL: Running for 1500000 steps
ETITLE: TS BOND ANGLE DIHED IMPRP ELECT VDW BOUNDARY MISC KINETIC TOTAL TEMP POTENTIAL TOTALAVG TEMPAVG PRESSURE GPRESSURE VOLUME PRESSAVG GPRESSAVG
ENERGY: 0 1.9434 6.5445 1.6883 0.0000 -10761.8632 1375.6304 0.0000 0.0000 1751.7291 -7624.3275 295.9578 -9376.0566 -7624.3275 295.9578 -770.2923 -682.1228 30956.0375 -770.2923 -682.1228
ENERGY: 300000 1.4533 5.7783 0.1798 0.0000 -10834.7831 1489.6561 0.0000 0.0000 1812.5419 -7525.1737 306.2322 -9337.7155 -7562.3933 303.5312 442.4338 483.6201 30272.9817 77.3530 131.8416
ENERGY: 600000 0.1063 6.3749 0.6813 0.0000 -10656.2332 1404.9588 0.0000 0.0000 1730.3887 -7513.7232 292.3523 -9244.1119 -7559.9688 301.4441 24.1217 131.9934 30475.2958 46.4681 127.1416
ENERGY: 900000 0.5678 5.7868 1.4498 0.0000 -10853.1904 1484.9910 0.0000 0.0000 1782.4138 -7577.9812 301.1420 -9360.3950 -7570.3348 301.0492 194.5255 248.5988 30801.9328 77.7483 149.9810
ENERGY: 1200000 0.2346 5.9466 0.9216 0.0000 -10770.5422 1403.6799 0.0000 0.0000 1802.0740 -7557.6855 304.4636 -9359.7595 -7565.6976 301.3345 -379.4252 -303.1431 30498.0433 54.8548 128.1015
ENERGY: 1500000 1.2641 5.0725 0.4525 0.0000 -10830.1636 1464.4184 0.0000 0.0000 1792.4371 -7566.5190 302.8355 -9358.9561 -7568.0586 300.7783 -30.5052 8.4446 30674.9853 128.6443 197.8104
TCL: Running FEP window   7: Lambda1 0.6999999999999997 Lambda2 0.6499999999999997 [dLambda -0.050000000000000044]
TCL: Setting parameter firsttimestep to 0
TCL: Setting parameter alchLambda to 0.6999999999999997
Info: NONBONDED TABLE R-SQUARED SPACING: 0.0625
Info: NONBONDED TABLE SIZE: 705 POINTS
TCL: Setting parameter alchLambda2 to 0.6499999999999997
Info: NONBONDED TABLE R-SQUARED SPACING: 0.0625
Info: NONBONDED TABLE SIZE: 705 POINTS
TCL: Running for 1500000 steps
ETITLE: TS BOND ANGLE DIHED IMPRP ELECT VDW BOUNDARY MISC KINETIC TOTAL TEMP POTENTIAL TOTALAVG TEMPAVG PRESSURE GPRESSURE VOLUME PRESSAVG GPRESSAVG
ENERGY: 0 1.2641 5.0725 0.4525 0.0000 -10830.0253 1464.2485 0.0000 0.0000 1791.5209 -7567.4668 302.6807 -9358.9877 -7567.4668 302.6807 -87.9069 -2.3757 30674.9853 -87.9069 -2.3757
ENERGY: 300000 0.1268 4.8732 0.4462 0.0000 -10694.9804 1375.3269 0.0000 0.0000 1825.2518 -7488.9556 308.3795 -9314.2073 -7530.7213 306.7030 -430.9614 -417.2940 30543.6771 -38.2737 27.5053
ENERGY: 600000 0.6890 13.2915 0.8775 0.0000 -10694.7672 1402.4547 0.0000 0.0000 1750.4937 -7526.9608 295.7490 -9277.4545 -7528.3793 303.4423 -253.7157 -160.8518 30610.0703 -11.3510 59.8634
ENERGY: 900000 0.9004 6.1193 1.7968 0.0000 -10840.2700 1463.0333 0.0000 0.0000 1777.0466 -7591.3735 300.2352 -9368.4201 -7533.6921 301.7213 -30.6913 23.5865 30424.1682 -81.2128 -12.8764
ENERGY: 1200000 0.6324 7.5476 0.7501 0.0000 -10836.0790 1445.2234 0.0000 0.0000 1777.9857 -7603.9398 300.3939 -9381.9255 -7544.2946 301.2009 -62.8508 -38.6103 30726.0545 -84.1902 -18.1648
ENERGY: 1500000 0.9898 6.6804 1.2357 0.0000 -10932.1561 1539.3130 0.0000 0.0000 1756.7671 -7627.1700 296.8089 -9383.9372 -7548.2635 300.7329 611.5449 715.1492 30337.4673 -18.2858 49.4775
TCL: Running FEP window   8: Lambda1 0.6499999999999997 Lambda2 0.5999999999999996 [dLambda -0.050000000000000044]
TCL: Setting parameter firsttimestep to 0
TCL: Setting parameter alchLambda to 0.6499999999999997
Info: NONBONDED TABLE R-SQUARED SPACING: 0.0625
Info: NONBONDED TABLE SIZE: 705 POINTS
TCL: Setting parameter alchLambda2 to 0.5999999999999996
Info: NONBONDED TABLE R-SQUARED SPACING: 0.0625
Info: NONBONDED TABLE SIZE: 705 POINTS
TCL: Running for 1500000 steps
ETITLE: TS BOND ANGLE DIHED IMPRP ELECT VDW BOUNDARY MISC KINETIC TOTAL TEMP POTENTIAL TOTALAVG TEMPAVG PRESSURE GPRESSURE VOLUME PRESSAVG GPRESSAVG
ENERGY: 0 0.9898 6.6804 1.2357 0.0000 -10931.6285 1539.3720 0.0000 0.0000 1755.8522 -7627.4983 296.6544 -9383.3506 -7627.4983 296.6544 630.7236 710.3324 30337.4673 630.7236 710.3324
ENERGY: 300000 0.5788 6.2540 0.4685 0.0000 -10948.2734 1475.0960 0.0000 0.0000 1787.2952 -7678.5810 301.9667 -9465.8762 -7621.2613 299.5254 -87.1842 -49.5468 30626.2525 312.4967 356.8450
ENERGY: 600000 1.3175 3.9650 1.1029 0.0000 -10674.5803 1383.1606 0.0000 0.0000 1771.3913 -7513.6430 299.2797 -9285.0344 -7585.6874 298.4104 -332.1593 -277.6817 30383.7646 204.2804 247.6744
ENERGY: 900000 1.7377 4.2302 0.1958 0.0000 -10843.4609 1479.6270 0.0000 0.0000 1688.2727 -7669.3975 285.2367 -9357.6702 -7605.4092 296.1186 -150.9792 -70.5868 30884.3938 115.0988 166.2122
ENERGY: 1200000 2.5359 5.5584 0.9436 0.0000 -10808.3461 1401.5659 0.0000 0.0000 1744.5427 -7653.1996 294.7436 -9397.7424 -7609.4885 295.9769 -574.3226 -504.6010 30410.6521 111.6122 163.1281
ENERGY: 1500000 0.5207 8.1334 1.3758 0.0000 -10868.7512 1528.7807 0.0000 0.0000 1824.2389 -7505.7017 308.2084 -9329.9405 -7593.4541 297.1695 632.1103 730.2161 30344.0511 171.8782 227.7800
TCL: Running FEP window   9: Lambda1 0.5999999999999996 Lambda2 0.5499999999999996 [dLambda -0.050000000000000044]
TCL: Setting parameter firsttimestep to 0
TCL: Setting parameter alchLambda to 0.5999999999999996
Info: NONBONDED TABLE R-SQUARED SPACING: 0.0625
Info: NONBONDED TABLE SIZE: 705 POINTS
TCL: Setting parameter alchLambda2 to 0.5499999999999996
Info: NONBONDED TABLE R-SQUARED SPACING: 0.0625
Info: NONBONDED TABLE SIZE: 705 POINTS
TCL: Running for 1500000 steps
ETITLE: TS BOND ANGLE DIHED IMPRP ELECT VDW BOUNDARY MISC KINETIC TOTAL TEMP POTENTIAL TOTALAVG TEMPAVG PRESSURE GPRESSURE VOLUME PRESSAVG GPRESSAVG
ENERGY: 0 0.5207 8.1334 1.3758 0.0000 -10867.3016 1528.8133 0.0000 0.0000 1823.3439 -7505.1145 308.0572 -9328.4585 -7505.1145 308.0572 645.1432 730.6977 30344.0511 645.1432 730.6977
ENERGY: 300000 0.4586 5.5135 0.5370 0.0000 -10884.4025 1434.7415 0.0000 0.0000 1812.0749 -7631.0770 306.1533 -9443.1519 -7545.1252 305.4160 -178.6829 -114.5144 30159.8503 259.2444 331.6268
ENERGY: 600000 3.6691 9.4717 1.4245 0.0000 -10691.8883 1400.3579 0.0000 0.0000 1768.3169 -7508.6482 298.7603 -9276.9651 -7545.3105 302.4541 -414.0099 -332.5340 30733.4369 64.3044 129.4604
ENERGY: 900000 0.7557 5.1583 0.7459 0.0000 -10715.6482 1419.8436 0.0000 0.0000 1776.3281 -7512.8168 300.1138 -9289.1449 -7558.0470 302.1931 23.8778 128.1049 30371.3336 29.1576 97.7410
ENERGY: 1200000 1.3030 6.5286 0.9830 0.0000 -10773.0666 1444.6885 0.0000 0.0000 1820.4948 -7499.0687 307.5758 -9319.5635 -7555.8179 303.0453 168.5114 198.0479 30225.9807 61.3221 124.1672
ENERGY: 1500000 1.0420 5.4908 0.5042 0.0000 -10764.1370 1397.1501 0.0000 0.0000 1776.2314 -7583.7185 300.0975 -9359.9499 -7552.8546 302.8778 -375.9998 -380.4831 30324.3454 61.4640 118.9421
TCL: Running FEP window  10: Lambda1 0.5499999999999996 Lambda2 0.4999999999999996 [dLambda -0.04999999999999999]
TCL: Setting parameter firsttimestep to 0
TCL: Setting parameter alchLambda to 0.5499999999999996
Info: NONBONDED TABLE R-SQUARED SPACING: 0.0625
Info: NONBONDED TABLE SIZE: 705 POINTS
TCL: Setting parameter alchLambda2 to 0.4999999999999996
Info: NONBONDED TABLE R-SQUARED SPACING: 0.0625
Info: NONBONDED TABLE SIZE: 705 POINTS
TCL: Running for 1500000 steps
ETITLE: TS BOND ANGLE DIHED IMPRP ELECT VDW BOUNDARY MISC KINETIC TOTAL TEMP POTENTIAL TOTALAVG TEMPAVG PRESSURE GPRESSURE VOLUME PRESSAVG GPRESSAVG
ENERGY: 0 1.0420 5.4908 0.5042 0.0000 -10763.4864 1397.1348 0.0000 0.0000 1775.3313 -7583.9833 299.9454 -9359.3146 -7583.9833 299.9454 -456.0122 -384.6233 30324.3454 -456.0122 -384.6233
ENERGY: 300000 1.7234 7.5433 0.6872 0.0000 -10785.8725 1416.9110 0.0000 0.0000 1798.3740 -7560.6336 303.8385 -9359.0076 -7566.8128 301.4061 -70.8096 -37.8750 30279.4139 -6.9038 21.0089
ENERGY: 600000 1.0299 6.1492 0.3668 0.0000 -10897.0347 1503.3380 0.0000 0.0000 1777.0689 -7609.0818 300.2390 -9386.1507 -7584.4395 299.2868 481.1289 497.6614 30298.0208 48.8942 87.5422
ENERGY: 900000 0.9226 5.6726 1.1418 0.0000 -10737.8094 1405.7170 0.0000 0.0000 1761.0744 -7563.2809 297.5367 -9324.3554 -7583.1310 299.0664 -489.4454 -400.7679 30848.5551 -44.9097 0.8906
ENERGY: 1200000 2.1252 4.8625 1.4610 0.0000 -10881.8590 1469.3964 0.0000 0.0000 1767.2265 -7636.7874 298.5761 -9404.0139 -7584.2347 299.2198 -18.1846 94.4344 30100.6360 8.4589 59.2808
ENERGY: 1500000 1.0988 3.8039 0.4635 0.0000 -10842.7155 1497.0470 0.0000 0.0000 1770.3801 -7569.9222 299.1089 -9340.3023 -7583.4892 298.4057 555.2588 637.9330 30103.1895 20.9044 79.9189
TCL: Running FEP window  11: Lambda1 0.4999999999999996 Lambda2 0.4499999999999996 [dLambda -0.04999999999999999]
TCL: Setting parameter firsttimestep to 0
TCL: Setting parameter alchLambda to 0.4999999999999996
Info: NONBONDED TABLE R-SQUARED SPACING: 0.0625
Info: NONBONDED TABLE SIZE: 705 POINTS
TCL: Setting parameter alchLambda2 to 0.4499999999999996
Info: NONBONDED TABLE R-SQUARED SPACING: 0.0625
Info: NONBONDED TABLE SIZE: 705 POINTS
TCL: Running for 1500000 steps
ETITLE: TS BOND ANGLE DIHED IMPRP ELECT VDW BOUNDARY MISC KINETIC TOTAL TEMP POTENTIAL TOTALAVG TEMPAVG PRESSURE GPRESSURE VOLUME PRESSAVG GPRESSAVG
ENERGY: 0 1.0988 3.8039 0.4635 0.0000 -10842.6685 1497.3603 0.0000 0.0000 1769.4735 -7570.4685 298.9557 -9339.9420 -7570.4685 298.9557 534.3873 635.9403 30103.1895 534.3873 635.9403
ENERGY: 300000 2.5129 5.0648 0.8201 0.0000 -10845.2950 1477.6409 0.0000 0.0000 1722.7084 -7636.5479 291.0547 -9359.2563 -7585.5564 298.7910 -199.4773 -156.8216 31128.4012 89.1125 146.0986
ENERGY: 600000 2.2560 6.2393 0.6084 0.0000 -10907.3574 1530.2302 0.0000 0.0000 1748.0299 -7619.9937 295.3328 -9368.0235 -7553.7272 300.4375 727.7015 751.7025 30129.8221 182.8673 232.2888
ENERGY: 900000 0.3883 7.7476 0.4478 0.0000 -10709.9558 1396.9584 0.0000 0.0000 1761.4388 -7542.9749 297.5982 -9304.4137 -7555.7507 300.0715 -314.8172 -263.2269 30579.4991 61.8327 111.1694
ENERGY: 1200000 0.9602 5.7005 0.7686 0.0000 -10761.1785 1430.3183 0.0000 0.0000 1806.0584 -7517.3724 305.1368 -9323.4308 -7556.8137 300.4662 -9.9670 53.4356 30347.1774 36.0099 88.9438
ENERGY: 1500000 1.1673 6.2283 0.7040 0.0000 -10860.4998 1461.4622 0.0000 0.0000 1797.9489 -7592.9891 303.7667 -9390.9380 -7561.1003 300.3173 54.4236 160.2898 30344.0479 -2.8172 56.5787
TCL: Running FEP window  12: Lambda1 0.4499999999999996 Lambda2 0.39999999999999963 [dLambda -0.04999999999999999]
TCL: Setting parameter firsttimestep to 0
TCL: Setting parameter alchLambda to 0.4499999999999996
Info: NONBONDED TABLE R-SQUARED SPACING: 0.0625
Info: NONBONDED TABLE SIZE: 705 POINTS
TCL: Setting parameter alchLambda2 to 0.39999999999999963
Info: NONBONDED TABLE R-SQUARED SPACING: 0.0625
Info: NONBONDED TABLE SIZE: 705 POINTS
TCL: Running for 1500000 steps
ETITLE: TS BOND ANGLE DIHED IMPRP ELECT VDW BOUNDARY MISC KINETIC TOTAL TEMP POTENTIAL TOTALAVG TEMPAVG PRESSURE GPRESSURE VOLUME PRESSAVG GPRESSAVG
ENERGY: 0 1.1673 6.2283 0.7040 0.0000 -10860.5001 1461.8931 0.0000 0.0000 1797.0720 -7593.4354 303.6185 -9390.5074 -7593.4354 303.6185 77.8990 159.9031 30344.0479 77.8990 159.9031
ENERGY: 300000 1.5502 9.8199 0.6048 0.0000 -10726.1940 1401.3652 0.0000 0.0000 1723.8344 -7589.0194 291.2449 -9312.8538 -7616.7671 297.9739 -356.9841 -261.9897 30504.7117 -267.1688 -201.5466
ENERGY: 600000 0.8215 7.9052 0.8186 0.0000 -10852.4040 1469.4176 0.0000 0.0000 1799.1646 -7574.2766 303.9721 -9373.4412 -7588.6850 300.2450 46.6223 135.5399 30524.2945 -245.4782 -175.8973
ENERGY: 900000 0.3540 4.2694 1.0573 0.0000 -10920.5559 1561.3866 0.0000 0.0000 1795.1764 -7558.3121 303.2983 -9353.4886 -7572.7516 301.9774 706.4374 698.3991 30776.7867 -155.1210 -99.6539
ENERGY: 1200000 2.5617 5.2076 0.8961 0.0000 -10657.4002 1433.0783 0.0000 0.0000 1790.0301 -7425.6264 302.4288 -9215.6564 -7558.0534 302.0899 -41.9571 24.2650 31138.7513 -60.8364 -18.8218
ENERGY: 1500000 1.9092 8.5259 1.1448 0.0000 -10764.4493 1353.8035 0.0000 0.0000 1807.2893 -7591.7767 305.3447 -9399.0659 -7560.0782 302.0307 -930.2142 -825.0664 30648.6537 -99.9703 -54.9805
TCL: Running FEP window  13: Lambda1 0.39999999999999963 Lambda2 0.34999999999999964 [dLambda -0.04999999999999999]
TCL: Setting parameter firsttimestep to 0
TCL: Setting parameter alchLambda to 0.39999999999999963
Info: NONBONDED TABLE R-SQUARED SPACING: 0.0625
Info: NONBONDED TABLE SIZE: 705 POINTS
TCL: Setting parameter alchLambda2 to 0.34999999999999964
Info: NONBONDED TABLE R-SQUARED SPACING: 0.0625
Info: NONBONDED TABLE SIZE: 705 POINTS
TCL: Running for 1500000 steps
ETITLE: TS BOND ANGLE DIHED IMPRP ELECT VDW BOUNDARY MISC KINETIC TOTAL TEMP POTENTIAL TOTALAVG TEMPAVG PRESSURE GPRESSURE VOLUME PRESSAVG GPRESSAVG
ENERGY: 0 1.9092 8.5259 1.1448 0.0000 -10764.4489 1354.2154 0.0000 0.0000 1806.4432 -7592.2103 305.2018 -9398.6535 -7592.2103 305.2018 -916.4327 -827.1945 30648.6537 -916.4327 -827.1945
ENERGY: 300000 1.2024 6.4823 0.4313 0.0000 -10722.1509 1389.8556 0.0000 0.0000 1808.7473 -7515.4320 305.5911 -9324.1794 -7565.8129 301.5097 -537.9159 -469.5099 31053.4134 -228.2554 -141.6460
ENERGY: 600000 2.7872 5.7262 1.6526 0.0000 -10798.1828 1414.5371 0.0000 0.0000 1753.0378 -7620.4418 296.1789 -9373.4796 -7584.5443 299.2785 -299.4942 -234.9232 30332.5661 -100.7021 -25.6390
ENERGY: 900000 0.8517 5.8117 0.9065 0.0000 -10786.9474 1441.5697 0.0000 0.0000 1725.4036 -7612.4043 291.5100 -9337.8078 -7593.9409 296.8965 -169.9515 -47.9739 30569.8091 -151.8791 -69.1988
ENERGY: 1200000 1.4238 3.8529 1.4510 0.0000 -10868.6516 1490.7488 0.0000 0.0000 1748.0179 -7623.1573 295.3307 -9371.1752 -7586.3020 297.4662 507.7652 575.4599 29857.2397 -60.9134 8.5815
ENERGY: 1500000 1.8876 6.2882 1.3971 0.0000 -10777.6654 1469.1250 0.0000 0.0000 1757.9243 -7541.0432 297.0044 -9298.9675 -7583.6432 297.4275 193.7424 192.3330 30721.1285 -30.8050 31.8579
TCL: Running FEP window  14: Lambda1 0.34999999999999964 Lambda2 0.29999999999999966 [dLambda -0.04999999999999999]
TCL: Setting parameter firsttimestep to 0
TCL: Setting parameter alchLambda to 0.34999999999999964
Info: NONBONDED TABLE R-SQUARED SPACING: 0.0625
Info: NONBONDED TABLE SIZE: 705 POINTS
TCL: Setting parameter alchLambda2 to 0.29999999999999966
Info: NONBONDED TABLE R-SQUARED SPACING: 0.0625
Info: NONBONDED TABLE SIZE: 705 POINTS
TCL: Running for 1500000 steps
ETITLE: TS BOND ANGLE DIHED IMPRP ELECT VDW BOUNDARY MISC KINETIC TOTAL TEMP POTENTIAL TOTALAVG TEMPAVG PRESSURE GPRESSURE VOLUME PRESSAVG GPRESSAVG
ENERGY: 0 1.8876 6.2882 1.3971 0.0000 -10777.6646 1469.3687 0.0000 0.0000 1757.0695 -7541.6535 296.8600 -9298.7230 -7541.6535 296.8600 106.3029 194.8118 30721.1285 106.3029 194.8118
ENERGY: 300000 0.7661 10.2397 0.5995 0.0000 -10800.9517 1438.3458 0.0000 0.0000 1812.0565 -7538.9442 306.1502 -9351.0006 -7515.7088 304.4921 -168.8475 -120.3631 30682.5475 -87.6777 4.6445
ENERGY: 600000 2.6317 7.0808 0.7062 0.0000 -10874.9350 1578.6020 0.0000 0.0000 1762.8038 -7523.1105 297.8289 -9285.9143 -7496.8826 304.5383 988.7529 1053.5134 30691.5017 157.4620 244.0945
ENERGY: 900000 0.6544 5.6293 0.8485 0.0000 -10792.9832 1430.9540 0.0000 0.0000 1716.0845 -7638.8123 289.9355 -9354.8969 -7520.5537 302.8877 -520.8086 -444.7969 30831.6560 -73.8092 8.6970
ENERGY: 1200000 1.4152 7.3174 1.4760 0.0000 -10708.4403 1458.1133 0.0000 0.0000 1791.8722 -7448.2463 302.7400 -9240.1185 -7529.8438 301.4931 51.9524 125.4053 30947.5366 -53.5330 30.5150
ENERGY: 1500000 0.2690 5.2568 1.8189 0.0000 -10720.8038 1428.0728 0.0000 0.0000 1745.6845 -7539.7018 294.9365 -9285.3863 -7534.5897 301.0154 237.0688 325.1960 30143.1449 5.4872 86.9510
TCL: Running FEP window  15: Lambda1 0.29999999999999966 Lambda2 0.24999999999999967 [dLambda -0.04999999999999999]
TCL: Setting parameter firsttimestep to 0
TCL: Setting parameter alchLambda to 0.29999999999999966
Info: NONBONDED TABLE R-SQUARED SPACING: 0.0625
Info: NONBONDED TABLE SIZE: 705 POINTS
TCL: Setting parameter alchLambda2 to 0.24999999999999967
Info: NONBONDED TABLE R-SQUARED SPACING: 0.0625
Info: NONBONDED TABLE SIZE: 705 POINTS
TCL: Running for 1500000 steps
ETITLE: TS BOND ANGLE DIHED IMPRP ELECT VDW BOUNDARY MISC KINETIC TOTAL TEMP POTENTIAL TOTALAVG TEMPAVG PRESSURE GPRESSURE VOLUME PRESSAVG GPRESSAVG
ENERGY: 0 0.2690 5.2568 1.8189 0.0000 -10720.8031 1428.0787 0.0000 0.0000 1744.8216 -7540.5582 294.7907 -9285.3798 -7540.5582 294.7907 242.0283 321.3268 30143.1449 242.0283 321.3268
ENERGY: 300000 0.8292 9.0916 0.8402 0.0000 -10805.4472 1399.7180 0.0000 0.0000 1779.5848 -7615.3835 300.6640 -9394.9683 -7574.7797 299.7420 -467.9089 -374.5198 30418.6308 -89.8267 -4.2859
ENERGY: 600000 0.5395 4.5800 0.9727 0.0000 -10832.1740 1479.4397 0.0000 0.0000 1703.1258 -7643.5163 287.7461 -9346.6421 -7581.0487 297.6194 -166.1023 -52.2799 30831.1253 -27.6849 69.7708
ENERGY: 900000 1.6864 6.1326 1.5908 0.0000 -10756.6290 1411.3172 0.0000 0.0000 1732.7390 -7603.1630 292.7493 -9335.9020 -7575.8344 297.4607 -335.2628 -264.1957 30180.7074 -104.2769 -16.4801
ENERGY: 1200000 2.8734 4.9232 0.2118 0.0000 -10886.2601 1468.8532 0.0000 0.0000 1760.7739 -7648.6246 297.4859 -9409.3984 -7577.4247 297.2314 356.4879 455.2895 29716.6249 9.6813 97.5490
ENERGY: 1500000 0.3428 5.9682 0.1891 0.0000 -10802.0467 1454.8465 0.0000 0.0000 1738.2925 -7602.4076 293.6876 -9340.7002 -7579.1728 296.9531 14.6289 78.4887 30426.6765 -8.6950 75.0774
TCL: Running FEP window  16: Lambda1 0.24999999999999967 Lambda2 0.19999999999999968 [dLambda -0.04999999999999999]
TCL: Setting parameter firsttimestep to 0
TCL: Setting parameter alchLambda to 0.24999999999999967
Info: NONBONDED TABLE R-SQUARED SPACING: 0.0625
Info: NONBONDED TABLE SIZE: 705 POINTS
TCL: Setting parameter alchLambda2 to 0.19999999999999968
Info: NONBONDED TABLE R-SQUARED SPACING: 0.0625
Info: NONBONDED TABLE SIZE: 705 POINTS
TCL: Running for 1500000 steps
ETITLE: TS BOND ANGLE DIHED IMPRP ELECT VDW BOUNDARY MISC KINETIC TOTAL TEMP POTENTIAL TOTALAVG TEMPAVG PRESSURE GPRESSURE VOLUME PRESSAVG GPRESSAVG
ENERGY: 0 0.3428 5.9682 0.1891 0.0000 -10802.0468 1455.2585 0.0000 0.0000 1737.4417 -7602.8465 293.5439 -9340.2882 -7602.8465 293.5439 -7.5732 79.2697 30426.6765 -7.5732 79.2697
ENERGY: 300000 2.0523 7.6823 0.3030 0.0000 -10920.7723 1537.5273 0.0000 0.0000 1774.0084 -7599.1988 299.7219 -9373.2072 -7590.9745 299.1316 491.4425 570.5259 30279.8140 -41.3506 38.0591
ENERGY: 600000 0.9781 8.6111 0.6719 0.0000 -10962.5690 1538.9663 0.0000 0.0000 1796.4058 -7616.9359 303.5060 -9413.3417 -7578.5761 300.9843 334.9994 421.9294 30433.5725 122.8956 189.9761
ENERGY: 900000 0.8200 4.9914 0.7876 0.0000 -10744.0494 1383.6805 0.0000 0.0000 1783.8103 -7569.9596 301.3779 -9353.7699 -7570.6060 301.6836 -493.8130 -441.7667 30471.5140 97.8012 154.8047
ENERGY: 1200000 0.5814 6.1535 0.2253 0.0000 -10712.9654 1360.2559 0.0000 0.0000 1756.6080 -7589.1414 296.7821 -9345.7494 -7568.4246 301.3515 -906.9616 -858.2761 31032.3439 24.0707 76.2331
ENERGY: 1500000 1.1342 8.4427 0.7371 0.0000 -10776.4426 1415.4566 0.0000 0.0000 1747.0833 -7603.5888 295.1728 -9350.6720 -7564.7259 300.4871 -449.3211 -356.9246 30506.4404 -51.6732 1.7285
TCL: Running FEP window  17: Lambda1 0.19999999999999968 Lambda2 0.1499999999999997 [dLambda -0.04999999999999999]
TCL: Setting parameter firsttimestep to 0
TCL: Setting parameter alchLambda to 0.19999999999999968
Info: NONBONDED TABLE R-SQUARED SPACING: 0.0625
Info: NONBONDED TABLE SIZE: 705 POINTS
TCL: Setting parameter alchLambda2 to 0.1499999999999997
Info: NONBONDED TABLE R-SQUARED SPACING: 0.0625
Info: NONBONDED TABLE SIZE: 705 POINTS
TCL: Running for 1500000 steps
ETITLE: TS BOND ANGLE DIHED IMPRP ELECT VDW BOUNDARY MISC KINETIC TOTAL TEMP POTENTIAL TOTALAVG TEMPAVG PRESSURE GPRESSURE VOLUME PRESSAVG GPRESSAVG
ENERGY: 0 1.1342 8.4427 0.7371 0.0000 -10776.4424 1415.6492 0.0000 0.0000 1746.2117 -7604.2676 295.0256 -9350.4793 -7604.2676 295.0256 -454.1651 -362.0190 30506.4404 -454.1651 -362.0190
ENERGY: 300000 0.3983 6.3301 0.8400 0.0000 -10828.6584 1455.2463 0.0000 0.0000 1782.7435 -7583.1002 301.1977 -9365.8437 -7557.3117 295.9224 -79.5033 -17.5350 30731.5475 -186.4792 -120.7437
ENERGY: 600000 1.2082 6.1904 0.1485 0.0000 -10853.0481 1488.0338 0.0000 0.0000 1795.2502 -7562.2171 303.3107 -9357.4673 -7546.9915 298.6339 380.8427 381.8152 30259.0973 -72.4671 -1.1471
ENERGY: 900000 0.8429 4.8611 1.1415 0.0000 -10859.1746 1466.0159 0.0000 0.0000 1796.1057 -7590.2075 303.4553 -9386.3132 -7548.0133 299.7188 -8.7944 -9.9883 30686.3156 22.7429 85.0317
ENERGY: 1200000 0.5187 4.2704 0.3276 0.0000 -10743.9814 1387.7653 0.0000 0.0000 1778.9723 -7572.1272 300.5605 -9351.0994 -7552.0277 299.5241 -362.9876 -312.4500 30041.5381 -90.8736 -29.8688
ENERGY: 1500000 1.4055 4.3453 0.3965 0.0000 -10831.6141 1478.9120 0.0000 0.0000 1768.5725 -7577.9821 298.8035 -9346.5546 -7552.0461 300.1270 164.2346 204.4947 30608.0165 -108.2823 -44.2227
TCL: Running FEP window  18: Lambda1 0.1499999999999997 Lambda2 0.09999999999999969 [dLambda -0.05 ]
TCL: Setting parameter firsttimestep to 0
TCL: Setting parameter alchLambda to 0.1499999999999997
Info: NONBONDED TABLE R-SQUARED SPACING: 0.0625
Info: NONBONDED TABLE SIZE: 705 POINTS
TCL: Setting parameter alchLambda2 to 0.09999999999999969
Info: NONBONDED TABLE R-SQUARED SPACING: 0.0625
Info: NONBONDED TABLE SIZE: 705 POINTS
TCL: Running for 1500000 steps
ETITLE: TS BOND ANGLE DIHED IMPRP ELECT VDW BOUNDARY MISC KINETIC TOTAL TEMP POTENTIAL TOTALAVG TEMPAVG PRESSURE GPRESSURE VOLUME PRESSAVG GPRESSAVG
ENERGY: 0 1.4055 4.3453 0.3965 0.0000 -10831.6149 1479.1217 0.0000 0.0000 1767.6628 -7578.6830 298.6498 -9346.3458 -7578.6830 298.6498 130.3079 204.5595 30608.0165 130.3079 204.5595
ENERGY: 300000 3.2979 7.0498 1.6998 0.0000 -10822.5399 1440.1427 0.0000 0.0000 1789.0809 -7581.2689 302.2684 -9370.3498 -7559.1091 300.3539 -77.1678 -30.4639 30392.1200 -88.2149 -22.9097
ENERGY: 600000 0.2460 8.5366 0.9819 0.0000 -10877.7148 1479.1413 0.0000 0.0000 1811.5969 -7577.2122 306.0725 -9388.8091 -7567.3889 300.4203 88.3703 193.7733 30320.8262 -21.7363 45.6623
ENERGY: 900000 0.9118 3.2673 0.6250 0.0000 -10753.5145 1395.2140 0.0000 0.0000 1706.3704 -7647.1260 288.2943 -9353.4964 -7571.9658 299.3425 -396.8785 -323.8798 30032.6384 12.4899 84.3457
ENERGY: 1200000 1.0384 4.2951 0.5678 0.0000 -10769.0962 1452.1973 0.0000 0.0000 1721.4913 -7589.5063 290.8490 -9310.9976 -7566.7861 299.1712 -262.4075 -201.3846 31002.6146 -90.9025 -18.4110
ENERGY: 1500000 1.3422 5.3087 1.7213 0.0000 -10796.2958 1360.2949 0.0000 0.0000 1763.6316 -7663.9971 297.9687 -9427.6287 -7567.4836 299.1639 -848.4993 -805.7929 30298.2221 -114.3930 -50.5978
TCL: Running FEP window  19: Lambda1 0.09999999999999969 Lambda2 0.049999999999999684 [dLambda -0.05 ]
TCL: Setting parameter firsttimestep to 0
TCL: Setting parameter alchLambda to 0.09999999999999969
Info: NONBONDED TABLE R-SQUARED SPACING: 0.0625
Info: NONBONDED TABLE SIZE: 705 POINTS
TCL: Setting parameter alchLambda2 to 0.049999999999999684
Info: NONBONDED TABLE R-SQUARED SPACING: 0.0625
Info: NONBONDED TABLE SIZE: 705 POINTS
TCL: Running for 1500000 steps
ETITLE: TS BOND ANGLE DIHED IMPRP ELECT VDW BOUNDARY MISC KINETIC TOTAL TEMP POTENTIAL TOTALAVG TEMPAVG PRESSURE GPRESSURE VOLUME PRESSAVG GPRESSAVG
ENERGY: 0 1.3422 5.3087 1.7213 0.0000 -10796.2956 1360.2222 0.0000 0.0000 1762.7444 -7664.9568 297.8188 -9427.7012 -7664.9568 297.8188 -873.5785 -806.2357 30298.2221 -873.5785 -806.2357
ENERGY: 300000 1.0480 5.9662 0.2007 0.0000 -10743.5920 1426.9026 0.0000 0.0000 1789.7388 -7519.7359 302.3796 -9309.4747 -7570.1580 300.9270 -102.3887 -36.7672 30569.8679 -308.0326 -253.7676
ENERGY: 600000 0.8857 8.0646 0.4289 0.0000 -10831.4641 1473.5072 0.0000 0.0000 1792.6709 -7555.9068 302.8750 -9348.5777 -7566.8182 300.6755 237.0476 298.7879 30311.4318 -48.4944 2.5694
ENERGY: 900000 0.9118 5.4966 0.7661 0.0000 -10649.4162 1386.5414 0.0000 0.0000 1766.1095 -7489.5907 298.3874 -9255.7003 -7572.0916 299.1119 -512.1726 -439.4370 30817.1526 -219.1834 -160.2535
ENERGY: 1200000 1.6071 8.2126 1.0346 0.0000 -10881.3273 1456.3392 0.0000 0.0000 1772.0823 -7642.0515 299.3965 -9414.1338 -7581.0020 299.5718 -122.6602 -21.9902 30214.6855 -163.1380 -100.8664
ENERGY: 1500000 0.1317 7.7320 0.3433 0.0000 -10942.9664 1545.4309 0.0000 0.0000 1744.2056 -7645.1228 294.6866 -9389.3284 -7595.7423 299.0919 950.7186 1031.0095 29742.9496 -17.2647 41.3355
TCL: Running FEP window  20: Lambda1 0.049999999999999684 Lambda2 0.0    [dLambda -0.049999999999999684]
TCL: Setting parameter firsttimestep to 0
TCL: Setting parameter alchLambda to 0.049999999999999684
Info: NONBONDED TABLE R-SQUARED SPACING: 0.0625
Info: NONBONDED TABLE SIZE: 705 POINTS
TCL: Setting parameter alchLambda2 to 0.0
Info: NONBONDED TABLE R-SQUARED SPACING: 0.0625
Info: NONBONDED TABLE SIZE: 705 POINTS
TCL: Running for 1500000 steps
ETITLE: TS BOND ANGLE DIHED IMPRP ELECT VDW BOUNDARY MISC KINETIC TOTAL TEMP POTENTIAL TOTALAVG TEMPAVG PRESSURE GPRESSURE VOLUME PRESSAVG GPRESSAVG
ENERGY: 0 0.1317 7.7320 0.3433 0.0000 -10942.9668 1544.7596 0.0000 0.0000 1743.2987 -7646.7015 294.5334 -9390.0002 -7646.7015 294.5334 938.6478 1025.2866 29742.9496 938.6478 1025.2866
ENERGY: 300000 1.4027 5.5115 0.4565 0.0000 -10831.4502 1444.3926 0.0000 0.0000 1767.7447 -7611.9423 298.6636 -9379.6870 -7624.2611 298.3735 -268.5549 -220.3251 30596.6836 187.5267 240.5279
ENERGY: 600000 3.7897 8.3622 0.3357 0.0000 -10812.1471 1463.8873 0.0000 0.0000 1777.6252 -7558.1470 300.3329 -9335.7721 -7595.9475 299.9115 -132.4148 -23.6850 30354.5858 174.3137 235.4780
ENERGY: 900000 1.2877 6.2690 0.3249 0.0000 -10879.5470 1484.6011 0.0000 0.0000 1751.1663 -7635.8979 295.8627 -9387.0642 -7597.1883 299.5158 -17.1273 67.8322 30466.0536 94.3098 157.0910
ENERGY: 1200000 2.6915 4.7407 1.9518 0.0000 -10775.3065 1413.5770 0.0000 0.0000 1772.7881 -7579.5575 299.5157 -9352.3456 -7595.5263 299.1731 -513.2499 -501.5795 30663.6472 -88.9274 -33.1390
ENERGY: 1500000 0.5421 5.3748 0.4737 0.0000 -10817.3622 1485.7877 0.0000 0.0000 1823.2528 -7501.9311 308.0418 -9325.1840 -7590.7575 299.6565 155.4148 228.0471 30800.1211 -127.2171 -62.0767
TCL: Exiting due to exit command.
