Info: SIMULATION PARAMETERS:
Info: TIMESTEP               2
Info: NUMBER OF STEPS        0
Info: STEPS PER CYCLE        10
Info: PERIODIC CELL BASIS 1  35.436 0 0
Info: PERIODIC CELL BASIS 2  0 36.451 0
Info: PERIODIC CELL BASIS 3  0 0 34.471
Info: PERIODIC CELL CENTER   0 0 0
Info: WRAPPING WATERS AROUND PERIODIC BOUNDARIES ON OUTPUT.
Info: WRAPPING ALL CLUSTERS AROUND PERIODIC BOUNDARIES ON OUTPUT.
Info: FIRST LDB TIMESTEP     50
Info: LAST LDB TIMESTEP     -1
Info: HOM BACKGROUND SCALING 1
Info: PME BACKGROUND SCALING 1
Info: MIN ATOMS PER PATCH    40
Info: EMPTY PATCH LOAD       40 ATOMS
Info: INITIAL TEMPERATURE    300
Info: CENTER OF MASS MOVING INITIALLY? NO
Info: DIELECTRIC             1
Info: EXCLUDE                SCALED ONE-FOUR
Info: 1-4 ELECTROSTATICS SCALED BY 0.833333
Info: MODIFIED 1-4 VDW PARAMETERS WILL BE USED
Info: DCD FILENAME           mobley_5732611_equil.dcd
Info: DCD FREQUENCY          100000
Info: DCD FIRST STEP         100000
Info: DCD FILE WILL CONTAIN UNIT CELL DATA
Info: XST FILENAME           mobley_5732611_equil.xst
Info: XST FREQUENCY          100000
Info: NO VELOCITY DCD OUTPUT
Info: NO FORCE DCD OUTPUT
Info: OUTPUT FILENAME        mobley_5732611_equil
Info: BINARY OUTPUT FILES WILL BE USED
Info: RESTART FILENAME       mobley_5732611_equil.restart
Info: RESTART FREQUENCY      100000
Info: BINARY RESTART FILES WILL BE USED
Info: CUTOFF                 9
Info: PAIRLIST DISTANCE      11
Info: PAIRLIST SHRINK RATE   0.01
Info: PAIRLIST GROW RATE     0.01
Info: PAIRLIST TRIGGER       0.3
Info: PAIRLISTS PER CYCLE    2
Info: PAIRLISTS ENABLED
Info: MARGIN                 8
Info: HYDROGEN GROUP CUTOFF  2.5
Info: PATCH DIMENSION        21.5
Info: ENERGY OUTPUT STEPS    100000
Info: ENERGY EVALUATION STEPS    100000
Info: OUTPUT ENERGY PRECISION 4
Info: CROSSTERM ENERGY INCLUDED IN DIHEDRAL
Info: TIMING OUTPUT STEPS    1000000
Info: PRESSURE OUTPUT STEPS  100000
Info: FIXED ATOMS ACTIVE
Info: LANGEVIN DYNAMICS ACTIVE
Info: LANGEVIN TEMPERATURE   30
Info: LANGEVIN USING BBK INTEGRATOR
Info: LANGEVIN DAMPING COEFFICIENT IS 1 INVERSE PS
Info: LANGEVIN DYNAMICS APPLIED TO HYDROGENS
Info: LANGEVIN PISTON PRESSURE CONTROL ACTIVE
Info:        TARGET PRESSURE IS 1.01325 BAR
Info:     OSCILLATION PERIOD IS 50 FS
Info:             DECAY TIME IS 25 FS
Info:     PISTON TEMPERATURE IS 300 K
Info:       PRESSURE CONTROL IS GROUP-BASED
Info:    INITIAL STRAIN RATE IS 0 0 0
Info:       CELL FLUCTUATION IS ISOTROPIC
Info: PARTICLE MESH EWALD (PME) ACTIVE
Info: PME TOLERANCE               1e-06
Info: PME EWALD COEFFICIENT       0.348832
Info: PME INTERPOLATION ORDER     4
Info: PME GRID DIMENSIONS         36 40 36
Info: PME MAXIMUM GRID SPACING    1
Info: FULL ELECTROSTATIC EVALUATION FREQUENCY      2
Info: USING VERLET I (r-RESPA) MTS SCHEME.
Info: C1 SPLITTING OF LONG RANGE ELECTROSTATICS
Info: PLACING ATOMS IN PATCHES BY HYDROGEN GROUPS
Info: RIGID BONDS TO HYDROGEN : ALL
Info:         ERROR TOLERANCE : 1e-08
Info:          MAX ITERATIONS : 100
Info: RIGID WATER USING SETTLE ALGORITHM
Info: RANDOM NUMBER SEED     1742484310
Info: USE HYDROGEN BONDS?    NO
Info: Using AMBER format force field!
Info: AMBER PARM FILE        mobley_5732611.prmtop
Info: COORDINATE PDB         mobley_5732611.pdb
Info: Exclusions will be read from PARM file!
Info: SCNB (VDW SCALING)     2
Info: USING ARITHMETIC MEAN TO COMBINE L-J SIGMA PARAMETERS
Info: BINARY COORDINATES     mobley_5732611_min.coor
Info: SUMMARY OF PARAMETERS:
Info: 11 BONDS
Info: 14 ANGLES
Info:   14 HARMONIC
Info:   0 COSINE-BASED
Info: 5 DIHEDRAL
Info: 0 IMPROPER
Info: 0 CROSSTERM
Info: 0 VDW
Info: 55 VDW_PAIRS
Info: 0 NBTHOLE_PAIRS
Info: STRUCTURE SUMMARY:
Info: 2901 ATOMS
Info: 2901 BONDS
Info: 19 ANGLES
Info: 23 DIHEDRALS
Info: 0 IMPROPERS
Info: 0 CROSSTERMS
Info: 2937 EXCLUSIONS
Info: 12 FIXED ATOMS
Info: 2895 RIGID BONDS
Info: 6 RIGID BONDS BETWEEN FIXED ATOMS
Info: 5778 DEGREES OF FREEDOM
Info: 969 HYDROGEN GROUPS
Info: 4 ATOMS IN LARGEST HYDROGEN GROUP
Info: 969 MIGRATION GROUPS
Info: 4 ATOMS IN LARGEST MIGRATION GROUP
Info: 6 HYDROGEN GROUPS WITH ALL ATOMS FIXED
Info: TOTAL MASS = 17431.5 amu
Info: TOTAL CHARGE = -0.000100072 e
Info: MASS DENSITY = 0.650109 g/cm^3
Info: ATOM DENSITY = 0.0651538 atoms/A^3
Info: ADDED 0 IMPLICIT EXCLUSIONS
Info: NONBONDED TABLE R-SQUARED SPACING: 0.0625
Info: NONBONDED TABLE SIZE: 705 POINTS
Info: REMOVING COM VELOCITY 0.00630277 0.11749 -0.150587
TCL: Running for 100000 steps
ETITLE: TS BOND ANGLE DIHED IMPRP ELECT VDW BOUNDARY MISC KINETIC TOTAL TEMP POTENTIAL TOTAL3 TEMPAVG PRESSURE GPRESSURE VOLUME PRESSAVG GPRESSAVG
ENERGY: 0 0.0000 0.0000 0.0000 0.0000 -13517.3806 2376.0528 0.0000 0.0000 1664.8579 -9476.4699 289.9947 -11141.3278 -9476.1646 289.9947 339.6058 382.4547 44525.4198 339.6058 382.4547
ENERGY: 100000 0.0000 0.0000 0.0000 0.0000 -14101.2271 2534.5196 0.0000 0.0000 173.6902 -11393.0173 30.2544 -11566.7075 -11392.3887 30.9061 722.8545 795.2026 28922.0533 3.3600 3.3335
TCL: Running 100000 steps at 60 kelvin.
TCL: Setting parameter langevinTemp to 60
TCL: Running for 100000 steps
ETITLE: TS BOND ANGLE DIHED IMPRP ELECT VDW BOUNDARY MISC KINETIC TOTAL TEMP POTENTIAL TOTAL3 TEMPAVG PRESSURE GPRESSURE VOLUME PRESSAVG GPRESSAVG
ENERGY: 100000 0.0000 0.0000 0.0000 0.0000 -14101.2271 2534.5196 0.0000 0.0000 173.6057 -11393.1018 30.2396 -11566.7075 -11392.6723 30.2396 727.7733 795.2275 28922.0533 727.7733 795.2275
ENERGY: 200000 0.0000 0.0000 0.0000 0.0000 -14001.1109 2462.7224 0.0000 0.0000 339.4779 -11198.9106 59.1322 -11538.3885 -11198.2532 59.9201 406.0320 471.1828 28572.3589 4.9127 4.8641
TCL: Running 100000 steps at 90 kelvin.
TCL: Setting parameter langevinTemp to 90
TCL: Running for 100000 steps
ETITLE: TS BOND ANGLE DIHED IMPRP ELECT VDW BOUNDARY MISC KINETIC TOTAL TEMP POTENTIAL TOTAL3 TEMPAVG PRESSURE GPRESSURE VOLUME PRESSAVG GPRESSAVG
ENERGY: 200000 0.0000 0.0000 0.0000 0.0000 -14001.1109 2462.7224 0.0000 0.0000 339.3022 -11199.0863 59.1016 -11538.3885 -11198.6891 59.1016 424.8309 471.7166 28572.3589 424.8309 471.7166
ENERGY: 300000 0.0000 0.0000 0.0000 0.0000 -13817.9691 2338.1265 0.0000 0.0000 541.1626 -10938.6800 94.2629 -11479.8426 -10937.1975 89.9608 -105.8182 -69.9419 28232.5473 4.3835 4.5235
TCL: Running 100000 steps at 120 kelvin.
TCL: Setting parameter langevinTemp to 120
TCL: Running for 100000 steps
ETITLE: TS BOND ANGLE DIHED IMPRP ELECT VDW BOUNDARY MISC KINETIC TOTAL TEMP POTENTIAL TOTAL3 TEMPAVG PRESSURE GPRESSURE VOLUME PRESSAVG GPRESSAVG
ENERGY: 300000 0.0000 0.0000 0.0000 0.0000 -13817.9691 2338.1265 0.0000 0.0000 540.8958 -10938.9468 94.2164 -11479.8426 -10937.9723 94.2164 -126.8312 -69.6665 28232.5473 -126.8312 -69.6665
ENERGY: 400000 0.0000 0.0000 0.0000 0.0000 -13603.0807 2287.7027 0.0000 0.0000 678.5834 -10636.7946 118.1996 -11315.3780 -10635.0805 119.9136 -185.4322 -107.7484 28520.8647 2.8463 2.8683
TCL: Running 100000 steps at 150 kelvin.
TCL: Setting parameter langevinTemp to 150
TCL: Running for 100000 steps
ETITLE: TS BOND ANGLE DIHED IMPRP ELECT VDW BOUNDARY MISC KINETIC TOTAL TEMP POTENTIAL TOTAL3 TEMPAVG PRESSURE GPRESSURE VOLUME PRESSAVG GPRESSAVG
ENERGY: 400000 0.0000 0.0000 0.0000 0.0000 -13603.0807 2287.7027 0.0000 0.0000 678.2382 -10637.1398 118.1395 -11315.3780 -10635.8909 118.1395 -153.9040 -107.7929 28520.8647 -153.9040 -107.7929
ENERGY: 500000 0.0000 0.0000 0.0000 0.0000 -13363.3914 2223.7248 0.0000 0.0000 844.0900 -10295.5766 147.0285 -11139.6666 -10293.4963 149.8677 -112.1898 -8.4184 28648.4186 4.2294 4.1049
TCL: Running 100000 steps at 180 kelvin.
TCL: Setting parameter langevinTemp to 180
TCL: Running for 100000 steps
ETITLE: TS BOND ANGLE DIHED IMPRP ELECT VDW BOUNDARY MISC KINETIC TOTAL TEMP POTENTIAL TOTAL3 TEMPAVG PRESSURE GPRESSURE VOLUME PRESSAVG GPRESSAVG
ENERGY: 500000 0.0000 0.0000 0.0000 0.0000 -13363.3914 2223.7248 0.0000 0.0000 843.6798 -10295.9869 146.9571 -11139.6666 -10294.7500 146.9571 -62.0563 -8.5663 28648.4186 -62.0563 -8.5663
ENERGY: 600000 0.0000 0.0000 0.0000 0.0000 -12928.7943 2028.5448 0.0000 0.0000 1027.5494 -9872.7002 178.9846 -10900.2496 -9871.5936 179.5913 -503.0765 -460.7601 28344.0237 4.2705 4.2856
TCL: Running 100000 steps at 210 kelvin.
TCL: Setting parameter langevinTemp to 210
TCL: Running for 100000 steps
ETITLE: TS BOND ANGLE DIHED IMPRP ELECT VDW BOUNDARY MISC KINETIC TOTAL TEMP POTENTIAL TOTAL3 TEMPAVG PRESSURE GPRESSURE VOLUME PRESSAVG GPRESSAVG
ENERGY: 600000 0.0000 0.0000 0.0000 0.0000 -12928.7943 2028.5448 0.0000 0.0000 1027.0274 -9873.2221 178.8936 -10900.2496 -9871.0960 178.8936 -515.9240 -462.2920 28344.0237 -515.9240 -462.2920
ENERGY: 700000 0.0000 0.0000 0.0000 0.0000 -12156.1051 1796.0036 0.0000 0.0000 1239.5583 -9120.5432 215.9135 -10360.1015 -9118.1705 210.0138 -66.1779 -40.2906 27865.8730 3.6724 3.7909
TCL: Running 100000 steps at 240 kelvin.
TCL: Setting parameter langevinTemp to 240
TCL: Running for 100000 steps
ETITLE: TS BOND ANGLE DIHED IMPRP ELECT VDW BOUNDARY MISC KINETIC TOTAL TEMP POTENTIAL TOTAL3 TEMPAVG PRESSURE GPRESSURE VOLUME PRESSAVG GPRESSAVG
ENERGY: 700000 0.0000 0.0000 0.0000 0.0000 -12156.1051 1796.0036 0.0000 0.0000 1238.9754 -9121.1261 215.8120 -10360.1015 -9119.1472 215.8120 -130.9442 -40.0127 27865.8730 -130.9442 -40.0127
ENERGY: 800000 0.0000 0.0000 0.0000 0.0000 -11602.8216 1650.0946 0.0000 0.0000 1328.1349 -8624.5921 231.3423 -9952.7270 -8621.0449 239.8335 -168.2658 -34.1021 28350.9309 3.0964 3.1022
TCL: Running 100000 steps at 270 kelvin.
TCL: Setting parameter langevinTemp to 270
TCL: Running for 100000 steps
ETITLE: TS BOND ANGLE DIHED IMPRP ELECT VDW BOUNDARY MISC KINETIC TOTAL TEMP POTENTIAL TOTAL3 TEMPAVG PRESSURE GPRESSURE VOLUME PRESSAVG GPRESSAVG
ENERGY: 800000 0.0000 0.0000 0.0000 0.0000 -11602.8216 1650.0946 0.0000 0.0000 1327.4558 -8625.2712 231.2240 -9952.7270 -8622.9079 231.2240 -126.3866 -33.3958 28350.9309 -126.3866 -33.3958
ENERGY: 900000 0.0000 0.0000 0.0000 0.0000 -10907.4645 1413.9969 0.0000 0.0000 1574.6593 -7918.8084 274.2834 -9493.4676 -7913.4761 269.4268 -939.0179 -869.9223 29541.1700 3.4758 3.6723
TCL: Running 1000000 steps at 300 kelvin.
TCL: Setting parameter langevinTemp to 300
TCL: Running for 1000000 steps
ETITLE: TS BOND ANGLE DIHED IMPRP ELECT VDW BOUNDARY MISC KINETIC TOTAL TEMP POTENTIAL TOTAL3 TEMPAVG PRESSURE GPRESSURE VOLUME PRESSAVG GPRESSAVG
ENERGY: 900000 0.0000 0.0000 0.0000 0.0000 -10907.4645 1413.9969 0.0000 0.0000 1573.8560 -7919.6116 274.1434 -9493.4676 -7916.6940 274.1434 -930.1070 -867.9073 29541.1700 -930.1070 -867.9073
ENERGY: 1100000 0.0000 0.0000 0.0000 0.0000 -10608.8952 1417.9510 0.0000 0.0000 1688.9416 -7502.0026 294.1897 -9190.9442 -7500.2758 300.4138 129.2359 199.2801 29588.2663 3.5049 3.5207
ENERGY: 1300000 0.0000 0.0000 0.0000 0.0000 -10509.4206 1337.0674 0.0000 0.0000 1751.8730 -7420.4802 305.1515 -9172.3532 -7417.7906 300.3233 -581.5914 -459.1068 29822.5849 3.1228 3.1385
ENERGY: 1500000 0.0000 0.0000 0.0000 0.0000 -10519.0855 1295.1535 0.0000 0.0000 1757.0093 -7466.9227 306.0461 -9223.9319 -7462.6577 300.2552 -858.3306 -808.8918 29507.7289 4.4090 4.7711
ENERGY: 1700000 0.0000 0.0000 0.0000 0.0000 -10468.4392 1319.7619 0.0000 0.0000 1750.9773 -7397.7000 304.9955 -9148.6773 -7391.5448 299.8057 -1015.1205 -879.0505 30530.9485 3.4246 3.4388
ENERGY: 1900000 0.0000 0.0000 0.0000 0.0000 -10571.9819 1382.1217 0.0000 0.0000 1782.3406 -7407.5195 310.4585 -9189.8601 -7404.0122 300.8408 -264.5571 -188.2464 29790.9521 4.2052 4.2899
TCL: Exiting due to exit command.
