Info: SIMULATION PARAMETERS:
Info: TIMESTEP               2
Info: NUMBER OF STEPS        0
Info: STEPS PER CYCLE        10
Info: PERIODIC CELL BASIS 1  44.344 0 0
Info: PERIODIC CELL BASIS 2  0 43.772 0
Info: PERIODIC CELL BASIS 3  0 0 44.319
Info: PERIODIC CELL CENTER   0 0 0
Info: WRAPPING WATERS AROUND PERIODIC BOUNDARIES ON OUTPUT.
Info: WRAPPING ALL CLUSTERS AROUND PERIODIC BOUNDARIES ON OUTPUT.
Info: FIRST LDB TIMESTEP     50
Info: LAST LDB TIMESTEP     -1
Info: HOM BACKGROUND SCALING 1
Info: PME BACKGROUND SCALING 1
Info: MIN ATOMS PER PATCH    40
Info: EMPTY PATCH LOAD       40 ATOMS
Info: INITIAL TEMPERATURE    300
Info: CENTER OF MASS MOVING INITIALLY? NO
Info: DIELECTRIC             1
Info: EXCLUDE                SCALED ONE-FOUR
Info: 1-4 ELECTROSTATICS SCALED BY 0.833333
Info: MODIFIED 1-4 VDW PARAMETERS WILL BE USED
Info: DCD FILENAME           mobley_8916409_min.dcd
Info: DCD FREQUENCY          5000
Info: DCD FIRST STEP         5000
Info: DCD FILE WILL CONTAIN UNIT CELL DATA
Info: XST FILENAME           mobley_8916409_min.xst
Info: XST FREQUENCY          5000
Info: NO VELOCITY DCD OUTPUT
Info: NO FORCE DCD OUTPUT
Info: OUTPUT FILENAME        mobley_8916409_min
Info: BINARY OUTPUT FILES WILL BE USED
Info: RESTART FILENAME       mobley_8916409_min.restart
Info: RESTART FREQUENCY      5000
Info: BINARY RESTART FILES WILL BE USED
Info: CUTOFF                 9
Info: PAIRLIST DISTANCE      11
Info: PAIRLIST SHRINK RATE   0.01
Info: PAIRLIST GROW RATE     0.01
Info: PAIRLIST TRIGGER       0.3
Info: PAIRLISTS PER CYCLE    2
Info: PAIRLISTS ENABLED
Info: MARGIN                 8
Info: HYDROGEN GROUP CUTOFF  2.5
Info: PATCH DIMENSION        21.5
Info: ENERGY OUTPUT STEPS    5000
Info: ENERGY EVALUATION STEPS    5000
Info: OUTPUT ENERGY PRECISION 4
Info: CROSSTERM ENERGY INCLUDED IN DIHEDRAL
Info: TIMING OUTPUT STEPS    50000
Info: PRESSURE OUTPUT STEPS  5000
Info: LANGEVIN DYNAMICS ACTIVE
Info: LANGEVIN TEMPERATURE   300
Info: LANGEVIN USING BBK INTEGRATOR
Info: LANGEVIN DAMPING COEFFICIENT IS 1 INVERSE PS
Info: LANGEVIN DYNAMICS APPLIED TO HYDROGENS
Info: LANGEVIN PISTON PRESSURE CONTROL ACTIVE
Info:        TARGET PRESSURE IS 1.01325 BAR
Info:     OSCILLATION PERIOD IS 50 FS
Info:             DECAY TIME IS 25 FS
Info:     PISTON TEMPERATURE IS 300 K
Info:       PRESSURE CONTROL IS GROUP-BASED
Info:    INITIAL STRAIN RATE IS 0 0 0
Info:       CELL FLUCTUATION IS ISOTROPIC
Info: PARTICLE MESH EWALD (PME) ACTIVE
Info: PME TOLERANCE               1e-06
Info: PME EWALD COEFFICIENT       0.348832
Info: PME INTERPOLATION ORDER     4
Info: PME GRID DIMENSIONS         48 44 48
Info: PME MAXIMUM GRID SPACING    1
Info: FULL ELECTROSTATIC EVALUATION FREQUENCY      2
Info: USING VERLET I (r-RESPA) MTS SCHEME.
Info: C1 SPLITTING OF LONG RANGE ELECTROSTATICS
Info: PLACING ATOMS IN PATCHES BY HYDROGEN GROUPS
Info: RIGID BONDS TO HYDROGEN : ALL
Info:         ERROR TOLERANCE : 1e-08
Info:          MAX ITERATIONS : 100
Info: RIGID WATER USING SETTLE ALGORITHM
Info: RANDOM NUMBER SEED     1741397300
Info: USE HYDROGEN BONDS?    NO
Info: Using AMBER format force field!
Info: AMBER PARM FILE        mobley_8916409.prmtop
Info: COORDINATE PDB         mobley_8916409.pdb
Info: Exclusions will be read from PARM file!
Info: SCNB (VDW SCALING)     2
Info: USING ARITHMETIC MEAN TO COMBINE L-J SIGMA PARAMETERS
Info: SUMMARY OF PARAMETERS:
Info: 13 BONDS
Info: 22 ANGLES
Info:   22 HARMONIC
Info:   0 COSINE-BASED
Info: 29 DIHEDRAL
Info: 0 IMPROPER
Info: 0 CROSSTERM
Info: 0 VDW
Info: 55 VDW_PAIRS
Info: 0 NBTHOLE_PAIRS
Info: STRUCTURE SUMMARY:
Info: 6263 ATOMS
Info: 6262 BONDS
Info: 65 ANGLES
Info: 92 DIHEDRALS
Info: 0 IMPROPERS
Info: 0 CROSSTERMS
Info: 6394 EXCLUSIONS
Info: 6244 RIGID BONDS
Info: 12545 DEGREES OF FREEDOM
Info: 2094 HYDROGEN GROUPS
Info: 4 ATOMS IN LARGEST HYDROGEN GROUP
Info: 2094 MIGRATION GROUPS
Info: 4 ATOMS IN LARGEST MIGRATION GROUP
Info: TOTAL MASS = 37713.5 amu
Info: TOTAL CHARGE = 7.82311e-08 e
Info: MASS DENSITY = 0.728007 g/cm^3
Info: ATOM DENSITY = 0.072805 atoms/A^3
Info: ADDED 0 IMPLICIT EXCLUSIONS
Info: NONBONDED TABLE R-SQUARED SPACING: 0.0625
Info: NONBONDED TABLE SIZE: 705 POINTS
Info: REMOVING COM VELOCITY -0.03141 0.040707 -0.0226694
TCL: Minimizing for 2000 steps
ETITLE: TS BOND ANGLE DIHED IMPRP ELECT VDW BOUNDARY MISC KINETIC TOTAL TEMP POTENTIAL TOTAL3 TEMPAVG PRESSURE GPRESSURE VOLUME PRESSAVG GPRESSAVG
ENERGY: 0 0.7309 5.4227 54.6072 0.0000 -19548.8305 2173.6469 0.0000 0.0000 0.0000 -17314.4229 0.0000 -17314.4229 -17314.4229 0.0000 11131.4291 -15983.8793 86024.3121 11131.4291 -15983.8793
ENERGY: 400 4.1878 5.1407 48.1173 0.0000 -26034.0503 3642.5907 0.0000 0.0000 0.0000 -22334.0137 0.0000 -22334.0137 -22334.0137 0.0000 15302.5722 15460.0228 86024.3121 15302.5722 15460.0228
ENERGY: 800 35.2108 10.7040 44.7465 0.0000 -27596.4169 4449.5913 0.0000 0.0000 0.0000 -23056.1643 0.0000 -23056.1643 -23056.1643 0.0000 18274.9098 18408.5726 86024.3121 18274.9098 18408.5726
ENERGY: 1200 1.2540 2.5257 43.5252 0.0000 -28080.2693 4595.7005 0.0000 0.0000 0.0000 -23437.2639 0.0000 -23437.2639 -23437.2639 0.0000 18809.3704 18924.6827 86024.3121 18809.3704 18924.6827
ENERGY: 1600 2.7574 3.8468 43.1914 0.0000 -28383.3221 4716.6570 0.0000 0.0000 0.0000 -23616.8696 0.0000 -23616.8696 -23616.8696 0.0000 19293.4901 19408.6140 86024.3121 19293.4901 19408.6140
ENERGY: 2000 1.0021 1.7563 43.3924 0.0000 -28639.5297 4838.8339 0.0000 0.0000 0.0000 -23754.5450 0.0000 -23754.5450 -23754.5450 0.0000 19833.1205 19947.1011 86024.3121 19833.1205 19947.1011
TCL: Exiting due to exit command.
Info: NAMD 3.0.1 for Linux-x86_64-multicore
Info: Please visit http://www.ks.uiuc.edu/Research/namd/
Info: for updates, documentation, and support information.
Info: Please cite Phillips et al., J. Chem. Phys. 153:044130 (2020) doi:10.1063/5.0014475
Info: in all publications reporting results obtained with NAMD.
Info: Based on Charm++/Converse 80000 for multicore-linux-x86_64-gcc
Info: Built Mon Oct 14 11:11:06 CDT 2024 by dhardy on athine.ks.uiuc.edu
Info: 1 NAMD  3.0.1  Linux-x86_64-multicore  16    k005  z5358697
Info: Running on 16 processors, 1 nodes, 1 physical nodes.
Info: CPU topology information available.
Info: Charm++/Converse parallel runtime startup completed at 0.011576 s
Info: 1043.45 MB of memory in use based on /proc/self/stat
Info: Configuration file is mobley_8916409_equil.namd
Info: Working in the current directory /srv/scratch/z5358697/prod_prep_11/8916409
TCL: Running 25000 steps at 30 kelvin.
TCL: Suspending until startup complete.
Info: SIMULATION PARAMETERS:
Info: TIMESTEP               2
Info: NUMBER OF STEPS        0
Info: STEPS PER CYCLE        10
Info: PERIODIC CELL BASIS 1  44.344 0 0
Info: PERIODIC CELL BASIS 2  0 43.772 0
Info: PERIODIC CELL BASIS 3  0 0 44.319
Info: PERIODIC CELL CENTER   0 0 0
Info: WRAPPING WATERS AROUND PERIODIC BOUNDARIES ON OUTPUT.
Info: WRAPPING ALL CLUSTERS AROUND PERIODIC BOUNDARIES ON OUTPUT.
Info: FIRST LDB TIMESTEP     50
Info: LAST LDB TIMESTEP     -1
Info: HOM BACKGROUND SCALING 1
Info: PME BACKGROUND SCALING 1
Info: MIN ATOMS PER PATCH    40
Info: EMPTY PATCH LOAD       40 ATOMS
Info: INITIAL TEMPERATURE    300
Info: CENTER OF MASS MOVING INITIALLY? NO
Info: DIELECTRIC             1
Info: EXCLUDE                SCALED ONE-FOUR
Info: 1-4 ELECTROSTATICS SCALED BY 0.833333
Info: MODIFIED 1-4 VDW PARAMETERS WILL BE USED
Info: DCD FILENAME           mobley_8916409_equil.dcd
Info: DCD FREQUENCY          5000
Info: DCD FIRST STEP         5000
Info: DCD FILE WILL CONTAIN UNIT CELL DATA
Info: XST FILENAME           mobley_8916409_equil.xst
Info: XST FREQUENCY          5000
Info: NO VELOCITY DCD OUTPUT
Info: NO FORCE DCD OUTPUT
Info: OUTPUT FILENAME        mobley_8916409_equil
Info: BINARY OUTPUT FILES WILL BE USED
Info: RESTART FILENAME       mobley_8916409_equil.restart
Info: RESTART FREQUENCY      5000
Info: BINARY RESTART FILES WILL BE USED
Info: CUTOFF                 9
Info: PAIRLIST DISTANCE      11
Info: PAIRLIST SHRINK RATE   0.01
Info: PAIRLIST GROW RATE     0.01
Info: PAIRLIST TRIGGER       0.3
Info: PAIRLISTS PER CYCLE    2
Info: PAIRLISTS ENABLED
Info: MARGIN                 8
Info: HYDROGEN GROUP CUTOFF  2.5
Info: PATCH DIMENSION        21.5
Info: ENERGY OUTPUT STEPS    5000
Info: ENERGY EVALUATION STEPS    5000
Info: OUTPUT ENERGY PRECISION 4
Info: CROSSTERM ENERGY INCLUDED IN DIHEDRAL
Info: TIMING OUTPUT STEPS    50000
Info: PRESSURE OUTPUT STEPS  5000
Info: LANGEVIN DYNAMICS ACTIVE
Info: LANGEVIN TEMPERATURE   30
Info: LANGEVIN USING BBK INTEGRATOR
Info: LANGEVIN DAMPING COEFFICIENT IS 1 INVERSE PS
Info: LANGEVIN DYNAMICS APPLIED TO HYDROGENS
Info: LANGEVIN PISTON PRESSURE CONTROL ACTIVE
Info:        TARGET PRESSURE IS 1.01325 BAR
Info:     OSCILLATION PERIOD IS 50 FS
Info:             DECAY TIME IS 25 FS
Info:     PISTON TEMPERATURE IS 300 K
Info:       PRESSURE CONTROL IS GROUP-BASED
Info:    INITIAL STRAIN RATE IS 0 0 0
Info:       CELL FLUCTUATION IS ISOTROPIC
Info: PARTICLE MESH EWALD (PME) ACTIVE
Info: PME TOLERANCE               1e-06
Info: PME EWALD COEFFICIENT       0.348832
Info: PME INTERPOLATION ORDER     4
Info: PME GRID DIMENSIONS         48 44 48
Info: PME MAXIMUM GRID SPACING    1
Info: FULL ELECTROSTATIC EVALUATION FREQUENCY      2
Info: USING VERLET I (r-RESPA) MTS SCHEME.
Info: C1 SPLITTING OF LONG RANGE ELECTROSTATICS
Info: PLACING ATOMS IN PATCHES BY HYDROGEN GROUPS
Info: RIGID BONDS TO HYDROGEN : ALL
Info:         ERROR TOLERANCE : 1e-08
Info:          MAX ITERATIONS : 100
Info: RIGID WATER USING SETTLE ALGORITHM
Info: RANDOM NUMBER SEED     1741397330
Info: USE HYDROGEN BONDS?    NO
Info: Using AMBER format force field!
Info: AMBER PARM FILE        mobley_8916409.prmtop
Info: COORDINATE PDB         mobley_8916409.pdb
Info: Exclusions will be read from PARM file!
Info: SCNB (VDW SCALING)     2
Info: USING ARITHMETIC MEAN TO COMBINE L-J SIGMA PARAMETERS
Info: BINARY COORDINATES     mobley_8916409_min.coor
Info: SUMMARY OF PARAMETERS:
Info: 13 BONDS
Info: 22 ANGLES
Info:   22 HARMONIC
Info:   0 COSINE-BASED
Info: 29 DIHEDRAL
Info: 0 IMPROPER
Info: 0 CROSSTERM
Info: 0 VDW
Info: 55 VDW_PAIRS
Info: 0 NBTHOLE_PAIRS
Info: STRUCTURE SUMMARY:
Info: 6263 ATOMS
Info: 6262 BONDS
Info: 65 ANGLES
Info: 92 DIHEDRALS
Info: 0 IMPROPERS
Info: 0 CROSSTERMS
Info: 6394 EXCLUSIONS
Info: 6244 RIGID BONDS
Info: 12545 DEGREES OF FREEDOM
Info: 2094 HYDROGEN GROUPS
Info: 4 ATOMS IN LARGEST HYDROGEN GROUP
Info: 2094 MIGRATION GROUPS
Info: 4 ATOMS IN LARGEST MIGRATION GROUP
Info: TOTAL MASS = 37713.5 amu
Info: TOTAL CHARGE = 7.82311e-08 e
Info: MASS DENSITY = 0.728007 g/cm^3
Info: ATOM DENSITY = 0.072805 atoms/A^3
Info: ADDED 0 IMPLICIT EXCLUSIONS
Info: NONBONDED TABLE R-SQUARED SPACING: 0.0625
Info: NONBONDED TABLE SIZE: 705 POINTS
Info: REMOVING COM VELOCITY 0.0580696 0.113099 0.0416002
TCL: Running for 25000 steps
ETITLE: TS BOND ANGLE DIHED IMPRP ELECT VDW BOUNDARY MISC KINETIC TOTAL TEMP POTENTIAL TOTAL3 TEMPAVG PRESSURE GPRESSURE VOLUME PRESSAVG GPRESSAVG
ENERGY: 0 1.0021 1.7563 43.3924 0.0000 -28639.5297 4838.8339 0.0000 0.0000 3783.4832 -19971.0618 303.5369 -23754.5450 -19970.2909 303.5369 53.0403 88.7172 86024.3121 53.0403 88.7172
ENERGY: 5000 0.9913 3.0901 43.8118 0.0000 -29830.4751 4956.1890 0.0000 0.0000 378.8135 -24447.5793 30.3910 -24826.3929 -24446.5027 47.8678 -822.4074 -769.5919 61114.8039 -2.1566 -2.3911
ENERGY: 10000 1.0523 3.9857 42.9903 0.0000 -30175.0831 5229.7455 0.0000 0.0000 383.2553 -24514.0540 30.7474 -24897.3093 -24513.1571 30.3791 190.2239 252.8269 60623.0069 1.9366 1.9190
ENERGY: 15000 0.9795 3.7799 43.9875 0.0000 -30246.1728 5273.7827 0.0000 0.0000 379.4033 -24544.2399 30.4383 -24923.6433 -24543.0649 30.3915 389.1261 449.5627 60390.5741 0.9486 0.9678
ENERGY: 20000 0.5975 2.3543 43.2992 0.0000 -29983.6264 5016.5538 0.0000 0.0000 374.1725 -24546.6490 30.0187 -24920.8215 -24545.7132 30.1955 -685.2652 -632.1234 60704.6007 3.6516 3.8309
ENERGY: 25000 1.3645 2.9061 44.0802 0.0000 -30233.6506 5251.8703 0.0000 0.0000 367.5112 -24565.9182 29.4843 -24933.4294 -24565.0854 29.9545 227.7989 264.0742 60464.7915 4.4223 4.6120
TCL: Running 25000 steps at 60 kelvin.
TCL: Setting parameter langevinTemp to 60
TCL: Running for 25000 steps
ETITLE: TS BOND ANGLE DIHED IMPRP ELECT VDW BOUNDARY MISC KINETIC TOTAL TEMP POTENTIAL TOTAL3 TEMPAVG PRESSURE GPRESSURE VOLUME PRESSAVG GPRESSAVG
ENERGY: 25000 1.3645 2.9061 44.0802 0.0000 -30233.6506 5251.8703 0.0000 0.0000 367.3278 -24566.1016 29.4696 -24933.4294 -24565.3346 29.4696 208.2859 264.1891 60464.7915 208.2859 264.1891
ENERGY: 30000 1.4061 6.6072 43.3837 0.0000 -29651.8731 4995.3728 0.0000 0.0000 754.5052 -23850.5981 60.5316 -24605.1033 -23848.6582 57.1364 -334.5351 -259.5711 61269.0531 2.1363 2.1529
ENERGY: 35000 1.2177 4.4328 44.2898 0.0000 -29730.8371 5037.9395 0.0000 0.0000 769.9700 -23872.9873 61.7723 -24642.9573 -23870.3056 60.7217 -152.9655 -95.9270 61196.7754 0.8847 0.7470
ENERGY: 40000 1.4074 4.7213 44.8751 0.0000 -29603.5166 4905.4790 0.0000 0.0000 762.1932 -23884.8406 61.1484 -24647.0338 -23882.8455 60.2855 -713.4540 -674.4526 61398.4985 3.9514 3.8530
ENERGY: 45000 0.8918 4.0341 44.6898 0.0000 -29646.8638 4930.1502 0.0000 0.0000 742.5573 -23924.5406 59.5730 -24667.0978 -23922.8601 60.5836 -655.7155 -609.0460 61423.4679 4.8224 4.5136
ENERGY: 50000 2.1549 4.1958 43.7400 0.0000 -30043.4286 5314.1473 0.0000 0.0000 742.1898 -23937.0008 59.5435 -24679.1905 -23935.7293 60.0496 949.2226 990.6780 60703.6248 2.7229 2.7526
TCL: Running 25000 steps at 90 kelvin.
TCL: Setting parameter langevinTemp to 90
TCL: Running for 25000 steps
ETITLE: TS BOND ANGLE DIHED IMPRP ELECT VDW BOUNDARY MISC KINETIC TOTAL TEMP POTENTIAL TOTAL3 TEMPAVG PRESSURE GPRESSURE VOLUME PRESSAVG GPRESSAVG
ENERGY: 50000 2.1549 4.1958 43.7400 0.0000 -30043.4286 5314.1473 0.0000 0.0000 741.8269 -23937.3636 59.5144 -24679.1905 -23935.8832 59.5144 935.5310 989.9853 60703.6248 935.5310 989.9853
ENERGY: 55000 1.8055 7.3199 43.8255 0.0000 -29321.1259 4969.5117 0.0000 0.0000 1151.5304 -23147.1329 92.3837 -24298.6633 -23143.6331 87.2065 262.6172 318.5234 61204.4085 1.7375 1.6039
ENERGY: 60000 2.1255 7.4974 45.3685 0.0000 -29180.4406 4799.2858 0.0000 0.0000 1112.4058 -23213.7575 89.2448 -24326.1633 -23210.8258 89.9917 -606.7305 -554.9916 61628.8844 0.1189 0.1396
ENERGY: 65000 2.3109 6.1712 44.1932 0.0000 -29360.3789 4926.0149 0.0000 0.0000 1109.9992 -23271.6895 89.0517 -24381.6887 -23267.9626 90.0880 -162.1315 -91.5630 61285.6120 2.4075 2.2263
ENERGY: 70000 2.4602 8.1757 44.9755 0.0000 -29446.6457 4979.6116 0.0000 0.0000 1106.4789 -23304.9438 88.7693 -24411.4227 -23302.0340 89.8644 27.0738 72.5457 61083.9932 2.6687 2.8095
ENERGY: 75000 2.8805 6.6931 44.2893 0.0000 -29333.3840 4889.3685 0.0000 0.0000 1106.0955 -23284.0571 88.7386 -24390.1526 -23281.2778 90.5167 -349.3113 -309.0471 61244.0511 5.0283 4.9023
TCL: Running 25000 steps at 120 kelvin.
TCL: Setting parameter langevinTemp to 120
TCL: Running for 25000 steps
ETITLE: TS BOND ANGLE DIHED IMPRP ELECT VDW BOUNDARY MISC KINETIC TOTAL TEMP POTENTIAL TOTAL3 TEMPAVG PRESSURE GPRESSURE VOLUME PRESSAVG GPRESSAVG
ENERGY: 75000 2.8805 6.6931 44.2893 0.0000 -29333.3840 4889.3685 0.0000 0.0000 1105.5342 -23284.6184 88.6935 -24390.1526 -23282.2805 88.6935 -359.4033 -309.0930 61244.0511 -359.4033 -309.0930
ENERGY: 80000 3.4147 10.9859 44.1698 0.0000 -28733.5203 4681.9893 0.0000 0.0000 1498.5042 -22494.4564 120.2203 -23992.9607 -22489.5721 117.7345 -388.6058 -352.8404 61281.8714 3.7325 3.3833
ENERGY: 85000 2.9572 9.4623 45.8189 0.0000 -28823.0500 4706.8029 0.0000 0.0000 1472.7774 -22585.2313 118.1563 -24058.0087 -22581.1207 119.8032 -498.6130 -436.1574 61382.5639 3.9946 3.6873
ENERGY: 90000 2.3030 7.5081 43.8999 0.0000 -29026.2083 4857.6359 0.0000 0.0000 1475.5181 -22639.3433 118.3762 -24114.8614 -22635.1635 119.9600 16.9026 50.4239 61373.8750 1.6587 1.3701
ENERGY: 95000 4.3417 5.2101 46.5185 0.0000 -28974.5344 4801.9424 0.0000 0.0000 1510.5041 -22606.0175 121.1830 -24116.5216 -22603.3566 120.2837 -179.9953 -118.7421 61146.8645 5.0139 4.6194
ENERGY: 100000 1.9511 5.8233 45.2843 0.0000 -29181.1659 4971.2200 0.0000 0.0000 1505.4486 -22651.4385 120.7774 -24156.8871 -22647.5947 120.7077 341.7945 423.0828 60998.0834 4.4046 4.7747
TCL: Running 25000 steps at 150 kelvin.
TCL: Setting parameter langevinTemp to 150
TCL: Running for 25000 steps
ETITLE: TS BOND ANGLE DIHED IMPRP ELECT VDW BOUNDARY MISC KINETIC TOTAL TEMP POTENTIAL TOTAL3 TEMPAVG PRESSURE GPRESSURE VOLUME PRESSAVG GPRESSAVG
ENERGY: 100000 1.9511 5.8233 45.2843 0.0000 -29181.1659 4971.2200 0.0000 0.0000 1504.7198 -22652.1673 120.7189 -24156.8871 -22649.0040 120.7189 372.3323 423.2325 60998.0834 372.3323 423.2325
ENERGY: 105000 1.8152 9.8733 43.5930 0.0000 -28369.2010 4637.0207 0.0000 0.0000 1922.0097 -21754.8891 154.1968 -23676.8988 -21748.5401 146.4981 -87.9570 -18.9105 61494.5331 1.5369 1.3589
ENERGY: 110000 2.2693 12.6646 44.2398 0.0000 -28487.7608 4740.0823 0.0000 0.0000 1863.5512 -21824.9536 149.5068 -23688.5048 -21820.5031 150.4997 268.4546 340.3684 61142.0747 -1.4669 -1.0167
ENERGY: 115000 2.8467 9.2525 45.3993 0.0000 -28490.7767 4669.3539 0.0000 0.0000 1842.2659 -21921.6583 147.7992 -23763.9242 -21916.4254 150.1197 -140.3021 -57.6883 61341.7698 1.0697 0.8645
ENERGY: 120000 6.0499 8.9603 44.9399 0.0000 -28675.1518 4803.3682 0.0000 0.0000 1884.1007 -21927.7327 151.1555 -23811.8335 -21922.2395 150.8916 455.5523 500.3713 60958.4550 1.5893 1.7879
ENERGY: 125000 3.4314 11.4618 42.7946 0.0000 -28595.8140 4738.4174 0.0000 0.0000 1891.1643 -21908.5444 151.7221 -23799.7087 -21902.5429 150.2708 62.6585 108.2684 61360.7162 2.9258 2.8441
TCL: Running 50000 steps at 180 kelvin.
TCL: Setting parameter langevinTemp to 180
TCL: Running for 50000 steps
ETITLE: TS BOND ANGLE DIHED IMPRP ELECT VDW BOUNDARY MISC KINETIC TOTAL TEMP POTENTIAL TOTAL3 TEMPAVG PRESSURE GPRESSURE VOLUME PRESSAVG GPRESSAVG
ENERGY: 125000 3.4314 11.4618 42.7946 0.0000 -28595.8140 4738.4174 0.0000 0.0000 1890.2310 -21909.4778 151.6473 -23799.7087 -21906.0178 151.6473 53.9886 108.6867 61360.7162 53.9886 108.6867
ENERGY: 135000 3.8965 11.8252 44.9896 0.0000 -27855.4418 4563.7075 0.0000 0.0000 2225.2976 -21005.7254 178.5286 -23231.0230 -21000.4380 179.5935 362.6863 438.1841 61425.7815 5.9871 5.9675
ENERGY: 145000 4.0328 11.7742 44.4964 0.0000 -27623.0671 4318.3084 0.0000 0.0000 2223.1584 -21021.2969 178.3570 -23244.4552 -21015.3987 179.6235 -621.1300 -553.3547 61521.6356 3.5304 3.8654
ENERGY: 155000 1.7140 11.7235 43.9117 0.0000 -27879.7443 4532.9350 0.0000 0.0000 2248.5247 -21040.9353 180.3920 -23289.4600 -21034.6702 181.0724 345.6099 407.7451 60909.9245 5.7298 5.7665
ENERGY: 165000 2.7722 13.1362 45.2853 0.0000 -27785.2311 4456.5076 0.0000 0.0000 2267.7611 -20999.7686 181.9353 -23267.5297 -20993.7033 180.5711 39.6884 100.0328 60883.4109 3.5032 3.0315
ENERGY: 175000 3.6299 9.8272 47.0102 0.0000 -27743.9535 4384.8258 0.0000 0.0000 2286.2489 -21012.4114 183.4185 -23298.6603 -21009.2574 180.3499 -124.9124 -60.8106 60543.1679 6.0125 6.2715
TCL: Running 50000 steps at 210 kelvin.
TCL: Setting parameter langevinTemp to 210
TCL: Running for 50000 steps
ETITLE: TS BOND ANGLE DIHED IMPRP ELECT VDW BOUNDARY MISC KINETIC TOTAL TEMP POTENTIAL TOTAL3 TEMPAVG PRESSURE GPRESSURE VOLUME PRESSAVG GPRESSAVG
ENERGY: 175000 3.6299 9.8272 47.0102 0.0000 -27743.9535 4384.8258 0.0000 0.0000 2285.1563 -21013.5040 183.3309 -23298.6603 -21008.7690 183.3309 -121.7731 -61.6748 60543.1679 -121.7731 -61.6748
ENERGY: 185000 2.8594 11.8444 46.5863 0.0000 -26415.4373 3992.8534 0.0000 0.0000 2610.2717 -19751.0221 209.4139 -22361.2938 -19744.4538 208.8566 -258.2294 -214.5192 61539.5152 -0.1738 -0.2965
ENERGY: 195000 5.3996 15.5052 47.8264 0.0000 -26252.1549 3922.1688 0.0000 0.0000 2630.2189 -19631.0361 211.0142 -22261.2549 -19626.2741 210.2266 -280.6746 -203.3916 61017.5475 0.6864 0.9308
ENERGY: 205000 3.1006 11.1979 48.1933 0.0000 -26446.4983 4014.1587 0.0000 0.0000 2641.1679 -19728.6800 211.8926 -22369.8479 -19719.8046 210.2528 -4.2984 82.7935 60815.0879 4.1787 3.9571
ENERGY: 215000 4.3523 14.3851 47.2131 0.0000 -26207.0698 3858.4987 0.0000 0.0000 2605.6672 -19676.9533 209.0445 -22282.6206 -19669.0143 211.0296 -541.5405 -471.0827 60821.9130 0.0579 0.2813
ENERGY: 225000 3.4285 10.3839 46.4846 0.0000 -26243.8252 3919.3509 0.0000 0.0000 2585.5231 -19678.6543 207.4284 -22264.1773 -19672.4401 208.3334 -263.8411 -214.0391 61296.2106 -1.2458 -1.1656
TCL: Running 50000 steps at 240 kelvin.
TCL: Setting parameter langevinTemp to 240
TCL: Running for 50000 steps
ETITLE: TS BOND ANGLE DIHED IMPRP ELECT VDW BOUNDARY MISC KINETIC TOTAL TEMP POTENTIAL TOTAL3 TEMPAVG PRESSURE GPRESSURE VOLUME PRESSAVG GPRESSAVG
ENERGY: 225000 3.4285 10.3839 46.4846 0.0000 -26243.8252 3919.3509 0.0000 0.0000 2584.2537 -19679.9236 207.3265 -22264.1773 -19675.6807 207.3265 -291.5267 -212.9440 61296.2106 -291.5267 -212.9440
ENERGY: 235000 5.1172 13.4056 47.8291 0.0000 -25221.6458 3745.1543 0.0000 0.0000 2994.8406 -18415.2990 240.2666 -21410.1396 -18408.7357 239.1224 399.6985 506.4937 61372.5468 3.6110 3.4846
ENERGY: 245000 4.3106 17.3868 43.3106 0.0000 -25023.7260 3573.1354 0.0000 0.0000 2948.6687 -18436.9139 236.5624 -21385.5826 -18426.8040 240.1955 -254.7474 -175.6600 61521.3801 1.4206 1.6301
ENERGY: 255000 4.6523 15.1556 47.5298 0.0000 -25240.0228 3727.4142 0.0000 0.0000 2986.9359 -18458.3350 239.6324 -21445.2709 -18448.7334 239.2591 267.3832 383.5826 61632.7045 1.0913 0.8939
ENERGY: 265000 4.0659 16.6177 47.1100 0.0000 -25145.2182 3727.4074 0.0000 0.0000 2970.0530 -18379.9642 238.2780 -21350.0172 -18374.6325 239.8233 379.7795 473.5115 61558.5621 0.9490 1.0681
ENERGY: 275000 2.9910 10.4285 46.7136 0.0000 -25087.0005 3633.5254 0.0000 0.0000 2977.4294 -18415.9125 238.8698 -21393.3419 -18412.3173 239.5831 134.9587 176.6978 61273.4697 0.2860 0.2793
TCL: Running 50000 steps at 270 kelvin.
TCL: Setting parameter langevinTemp to 270
TCL: Running for 50000 steps
ETITLE: TS BOND ANGLE DIHED IMPRP ELECT VDW BOUNDARY MISC KINETIC TOTAL TEMP POTENTIAL TOTAL3 TEMPAVG PRESSURE GPRESSURE VOLUME PRESSAVG GPRESSAVG
ENERGY: 275000 2.9910 10.4285 46.7136 0.0000 -25087.0005 3633.5254 0.0000 0.0000 2975.9511 -18417.3907 238.7512 -21393.3419 -18413.5298 238.7512 90.1544 175.7013 61273.4697 90.1544 175.7013
ENERGY: 285000 4.8850 13.8304 46.7530 0.0000 -23896.6283 3305.5510 0.0000 0.0000 3439.7222 -17085.8866 275.9581 -20525.6089 -17081.9751 270.6506 36.4197 127.1537 62824.2029 -1.1960 -2.1216
ENERGY: 295000 7.1770 20.5597 47.1258 0.0000 -23785.9554 3257.8952 0.0000 0.0000 3376.7642 -17076.4334 270.9071 -20453.1977 -17073.4619 270.3722 -264.0988 -151.5263 63088.3926 0.5011 0.5640
ENERGY: 305000 9.3709 17.5995 46.5748 0.0000 -23603.5750 3203.6050 0.0000 0.0000 3267.3199 -17059.1048 262.1268 -20326.4247 -17054.4909 270.9802 -361.9703 -266.0986 63448.2513 -0.7861 -1.0082
ENERGY: 315000 5.8815 15.1902 45.3241 0.0000 -23798.8184 3207.3699 0.0000 0.0000 3346.8030 -17178.2497 268.5034 -20525.0527 -17171.1463 270.8714 -622.4417 -507.2136 63380.9302 0.5052 0.1572
ENERGY: 325000 2.7372 14.6707 48.1707 0.0000 -23652.6370 3178.7347 0.0000 0.0000 3397.9541 -17010.3695 272.6071 -20408.3236 -17002.9929 269.9436 -354.6548 -275.1847 62938.6769 4.9992 5.3040
TCL: Running 1000000 steps at 300 kelvin.
TCL: Setting parameter langevinTemp to 300
TCL: Running for 1000000 steps
ETITLE: TS BOND ANGLE DIHED IMPRP ELECT VDW BOUNDARY MISC KINETIC TOTAL TEMP POTENTIAL TOTAL3 TEMPAVG PRESSURE GPRESSURE VOLUME PRESSAVG GPRESSAVG
ENERGY: 325000 2.7372 14.6707 48.1707 0.0000 -23652.6370 3178.7347 0.0000 0.0000 3396.2964 -17012.0272 272.4741 -20408.3236 -17006.7799 272.4741 -358.0272 -273.8023 62938.6769 -358.0272 -273.8023
ENERGY: 525000 2.5249 16.1839 47.4340 0.0000 -22604.6426 2921.2842 0.0000 0.0000 3746.9346 -15870.2811 300.6047 -19617.2157 -15864.6693 299.7438 -465.5422 -372.8049 64887.1056 3.0981 3.1883
ENERGY: 725000 7.7101 17.9184 44.1715 0.0000 -22802.5165 3082.8362 0.0000 0.0000 3737.2357 -15912.6445 299.8266 -19649.8802 -15903.4779 299.8524 -74.0705 25.3797 64908.1598 1.1419 1.6467
ENERGY: 925000 7.1473 15.9666 46.1449 0.0000 -22590.0124 2875.3254 0.0000 0.0000 3723.4321 -15921.9960 298.7192 -19645.4281 -15915.1853 299.3025 -581.5975 -551.8658 64690.9792 0.8920 1.4420
ENERGY: 1125000 5.7339 13.8443 45.2039 0.0000 -22668.9336 3016.0631 0.0000 0.0000 3766.8507 -15821.2378 302.2026 -19588.0885 -15816.8629 300.0080 -70.7737 39.7905 64693.6134 4.6020 3.7379
ENERGY: 1325000 8.3531 17.6522 46.4553 0.0000 -22638.2727 2946.5460 0.0000 0.0000 3698.3387 -15920.9272 296.7061 -19619.2660 -15915.0591 301.1858 -179.8885 -146.9618 64112.4791 -1.9158 -1.5994
TCL: Exiting due to exit command.
