Info: SIMULATION PARAMETERS:
Info: TIMESTEP               2
Info: NUMBER OF STEPS        0
Info: STEPS PER CYCLE        10
Info: PERIODIC CELL BASIS 1  34.207 0 0
Info: PERIODIC CELL BASIS 2  0 35.411 0
Info: PERIODIC CELL BASIS 3  0 0 35.723
Info: PERIODIC CELL CENTER   0 0 0
Info: WRAPPING WATERS AROUND PERIODIC BOUNDARIES ON OUTPUT.
Info: WRAPPING ALL CLUSTERS AROUND PERIODIC BOUNDARIES ON OUTPUT.
Info: FIRST LDB TIMESTEP     50
Info: LAST LDB TIMESTEP     -1
Info: HOM BACKGROUND SCALING 1
Info: PME BACKGROUND SCALING 1
Info: MIN ATOMS PER PATCH    40
Info: EMPTY PATCH LOAD       40 ATOMS
Info: INITIAL TEMPERATURE    300
Info: CENTER OF MASS MOVING INITIALLY? NO
Info: DIELECTRIC             1
Info: EXCLUDE                SCALED ONE-FOUR
Info: 1-4 ELECTROSTATICS SCALED BY 0.833333
Info: MODIFIED 1-4 VDW PARAMETERS WILL BE USED
Info: DCD FILENAME           mobley_299266_equil.dcd
Info: DCD FREQUENCY          100000
Info: DCD FIRST STEP         100000
Info: DCD FILE WILL CONTAIN UNIT CELL DATA
Info: XST FILENAME           mobley_299266_equil.xst
Info: XST FREQUENCY          100000
Info: NO VELOCITY DCD OUTPUT
Info: NO FORCE DCD OUTPUT
Info: OUTPUT FILENAME        mobley_299266_equil
Info: BINARY OUTPUT FILES WILL BE USED
Info: RESTART FILENAME       mobley_299266_equil.restart
Info: RESTART FREQUENCY      100000
Info: BINARY RESTART FILES WILL BE USED
Info: CUTOFF                 9
Info: PAIRLIST DISTANCE      11
Info: PAIRLIST SHRINK RATE   0.01
Info: PAIRLIST GROW RATE     0.01
Info: PAIRLIST TRIGGER       0.3
Info: PAIRLISTS PER CYCLE    2
Info: PAIRLISTS ENABLED
Info: MARGIN                 8
Info: HYDROGEN GROUP CUTOFF  2.5
Info: PATCH DIMENSION        21.5
Info: ENERGY OUTPUT STEPS    100000
Info: ENERGY EVALUATION STEPS    100000
Info: OUTPUT ENERGY PRECISION 4
Info: CROSSTERM ENERGY INCLUDED IN DIHEDRAL
Info: TIMING OUTPUT STEPS    1000000
Info: PRESSURE OUTPUT STEPS  100000
Info: FIXED ATOMS ACTIVE
Info: LANGEVIN DYNAMICS ACTIVE
Info: LANGEVIN TEMPERATURE   30
Info: LANGEVIN USING BBK INTEGRATOR
Info: LANGEVIN DAMPING COEFFICIENT IS 1 INVERSE PS
Info: LANGEVIN DYNAMICS APPLIED TO HYDROGENS
Info: LANGEVIN PISTON PRESSURE CONTROL ACTIVE
Info:        TARGET PRESSURE IS 1.01325 BAR
Info:     OSCILLATION PERIOD IS 50 FS
Info:             DECAY TIME IS 25 FS
Info:     PISTON TEMPERATURE IS 300 K
Info:       PRESSURE CONTROL IS GROUP-BASED
Info:    INITIAL STRAIN RATE IS 0 0 0
Info:       CELL FLUCTUATION IS ISOTROPIC
Info: PARTICLE MESH EWALD (PME) ACTIVE
Info: PME TOLERANCE               1e-06
Info: PME EWALD COEFFICIENT       0.348832
Info: PME INTERPOLATION ORDER     4
Info: PME GRID DIMENSIONS         36 36 36
Info: PME MAXIMUM GRID SPACING    1
Info: FULL ELECTROSTATIC EVALUATION FREQUENCY      2
Info: USING VERLET I (r-RESPA) MTS SCHEME.
Info: C1 SPLITTING OF LONG RANGE ELECTROSTATICS
Info: PLACING ATOMS IN PATCHES BY HYDROGEN GROUPS
Info: RIGID BONDS TO HYDROGEN : ALL
Info:         ERROR TOLERANCE : 1e-08
Info:          MAX ITERATIONS : 100
Info: RIGID WATER USING SETTLE ALGORITHM
Info: RANDOM NUMBER SEED     1742483519
Info: USE HYDROGEN BONDS?    NO
Info: Using AMBER format force field!
Info: AMBER PARM FILE        mobley_299266.prmtop
Info: COORDINATE PDB         mobley_299266.pdb
Info: Exclusions will be read from PARM file!
Info: SCNB (VDW SCALING)     2
Info: USING ARITHMETIC MEAN TO COMBINE L-J SIGMA PARAMETERS
Info: BINARY COORDINATES     mobley_299266_min.coor
Info: SUMMARY OF PARAMETERS:
Info: 6 BONDS
Info: 6 ANGLES
Info:   6 HARMONIC
Info:   0 COSINE-BASED
Info: 3 DIHEDRAL
Info: 0 IMPROPER
Info: 0 CROSSTERM
Info: 0 VDW
Info: 21 VDW_PAIRS
Info: 0 NBTHOLE_PAIRS
Info: STRUCTURE SUMMARY:
Info: 2907 ATOMS
Info: 2906 BONDS
Info: 18 ANGLES
Info: 16 DIHEDRALS
Info: 0 IMPROPERS
Info: 0 CROSSTERMS
Info: 2940 EXCLUSIONS
Info: 12 FIXED ATOMS
Info: 2903 RIGID BONDS
Info: 8 RIGID BONDS BETWEEN FIXED ATOMS
Info: 5790 DEGREES OF FREEDOM
Info: 969 HYDROGEN GROUPS
Info: 4 ATOMS IN LARGEST HYDROGEN GROUP
Info: 969 MIGRATION GROUPS
Info: 4 ATOMS IN LARGEST MIGRATION GROUP
Info: 4 HYDROGEN GROUPS WITH ALL ATOMS FIXED
Info: TOTAL MASS = 17441.5 amu
Info: TOTAL CHARGE = -0.000199981 e
Info: MASS DENSITY = 0.669334 g/cm^3
Info: ATOM DENSITY = 0.0671806 atoms/A^3
Info: ADDED 0 IMPLICIT EXCLUSIONS
Info: NONBONDED TABLE R-SQUARED SPACING: 0.0625
Info: NONBONDED TABLE SIZE: 705 POINTS
Info: REMOVING COM VELOCITY 0.0542281 0.0287137 0.0264744
TCL: Running for 100000 steps
ETITLE: TS BOND ANGLE DIHED IMPRP ELECT VDW BOUNDARY MISC KINETIC TOTAL TEMP POTENTIAL TOTAL3 TEMPAVG PRESSURE GPRESSURE VOLUME PRESSAVG GPRESSAVG
ENERGY: 0 0.0000 0.0000 0.0000 0.0000 -13480.4149 2384.2336 0.0000 0.0000 1681.3395 -9414.8418 292.2586 -11096.1814 -9414.5336 292.2586 492.6318 531.7733 43271.4155 492.6318 531.7733
ENERGY: 100000 0.0000 0.0000 0.0000 0.0000 -13986.5687 2414.8107 0.0000 0.0000 173.9562 -11397.8017 30.2379 -11571.7580 -11397.3402 30.9017 -280.8266 -220.4240 28621.5384 3.9781 3.9966
TCL: Running 100000 steps at 60 kelvin.
TCL: Setting parameter langevinTemp to 60
TCL: Running for 100000 steps
ETITLE: TS BOND ANGLE DIHED IMPRP ELECT VDW BOUNDARY MISC KINETIC TOTAL TEMP POTENTIAL TOTAL3 TEMPAVG PRESSURE GPRESSURE VOLUME PRESSAVG GPRESSAVG
ENERGY: 100000 0.0000 0.0000 0.0000 0.0000 -13986.5687 2414.8107 0.0000 0.0000 173.8730 -11397.8850 30.2234 -11571.7580 -11397.5351 30.2234 -261.2090 -220.4039 28621.5384 -261.2090 -220.4039
ENERGY: 200000 0.0000 0.0000 0.0000 0.0000 -14042.9800 2524.9946 0.0000 0.0000 351.1480 -11166.8373 61.0383 -11517.9854 -11166.2605 60.1286 1167.5012 1235.0474 27937.7786 2.9614 3.0261
TCL: Running 100000 steps at 90 kelvin.
TCL: Setting parameter langevinTemp to 90
TCL: Running for 100000 steps
ETITLE: TS BOND ANGLE DIHED IMPRP ELECT VDW BOUNDARY MISC KINETIC TOTAL TEMP POTENTIAL TOTAL3 TEMPAVG PRESSURE GPRESSURE VOLUME PRESSAVG GPRESSAVG
ENERGY: 200000 0.0000 0.0000 0.0000 0.0000 -14042.9800 2524.9946 0.0000 0.0000 350.9670 -11167.0184 61.0068 -11517.9854 -11166.3411 61.0068 1174.3813 1234.7752 27937.7786 1174.3813 1234.7752
ENERGY: 300000 0.0000 0.0000 0.0000 0.0000 -13671.9226 2275.2432 0.0000 0.0000 523.6003 -10873.0791 91.0147 -11396.6794 -10871.6674 90.0307 -654.8139 -605.7659 28338.4338 2.7917 2.8552
TCL: Running 100000 steps at 120 kelvin.
TCL: Setting parameter langevinTemp to 120
TCL: Running for 100000 steps
ETITLE: TS BOND ANGLE DIHED IMPRP ELECT VDW BOUNDARY MISC KINETIC TOTAL TEMP POTENTIAL TOTAL3 TEMPAVG PRESSURE GPRESSURE VOLUME PRESSAVG GPRESSAVG
ENERGY: 300000 0.0000 0.0000 0.0000 0.0000 -13671.9226 2275.2432 0.0000 0.0000 523.3313 -10873.3481 90.9680 -11396.6794 -10872.1964 90.9680 -664.1536 -605.9791 28338.4338 -664.1536 -605.9791
ENERGY: 400000 0.0000 0.0000 0.0000 0.0000 -13623.5052 2344.5075 0.0000 0.0000 686.9723 -10592.0253 119.4128 -11278.9977 -10590.5013 119.9041 478.0333 528.9270 28165.4870 2.7862 2.5816
TCL: Running 100000 steps at 150 kelvin.
TCL: Setting parameter langevinTemp to 150
TCL: Running for 100000 steps
ETITLE: TS BOND ANGLE DIHED IMPRP ELECT VDW BOUNDARY MISC KINETIC TOTAL TEMP POTENTIAL TOTAL3 TEMPAVG PRESSURE GPRESSURE VOLUME PRESSAVG GPRESSAVG
ENERGY: 400000 0.0000 0.0000 0.0000 0.0000 -13623.5052 2344.5075 0.0000 0.0000 686.6293 -10592.3683 119.3532 -11278.9977 -10590.9417 119.3532 453.1979 528.7720 28165.4870 453.1979 528.7720
ENERGY: 500000 0.0000 0.0000 0.0000 0.0000 -13357.1156 2216.3316 0.0000 0.0000 866.4509 -10274.3331 150.6107 -11140.7840 -10272.4692 149.7760 -145.1519 -82.6604 28430.1542 5.2743 5.0831
TCL: Running 100000 steps at 180 kelvin.
TCL: Setting parameter langevinTemp to 180
TCL: Running for 100000 steps
ETITLE: TS BOND ANGLE DIHED IMPRP ELECT VDW BOUNDARY MISC KINETIC TOTAL TEMP POTENTIAL TOTAL3 TEMPAVG PRESSURE GPRESSURE VOLUME PRESSAVG GPRESSAVG
ENERGY: 500000 0.0000 0.0000 0.0000 0.0000 -13357.1156 2216.3316 0.0000 0.0000 866.0105 -10274.7735 150.5341 -11140.7840 -10273.1804 150.5341 -149.0907 -83.1917 28430.1542 -149.0907 -83.1917
ENERGY: 600000 0.0000 0.0000 0.0000 0.0000 -12982.9681 2082.1660 0.0000 0.0000 1048.6847 -9852.1174 182.2874 -10900.8021 -9849.3896 179.6284 -526.2457 -482.7604 28785.0930 3.3826 3.3340
TCL: Running 100000 steps at 210 kelvin.
TCL: Setting parameter langevinTemp to 210
TCL: Running for 100000 steps
ETITLE: TS BOND ANGLE DIHED IMPRP ELECT VDW BOUNDARY MISC KINETIC TOTAL TEMP POTENTIAL TOTAL3 TEMPAVG PRESSURE GPRESSURE VOLUME PRESSAVG GPRESSAVG
ENERGY: 600000 0.0000 0.0000 0.0000 0.0000 -12982.9681 2082.1660 0.0000 0.0000 1048.1673 -9852.6348 182.1975 -10900.8021 -9850.1337 182.1975 -538.0839 -482.7316 28785.0930 -538.0839 -482.7316
ENERGY: 700000 0.0000 0.0000 0.0000 0.0000 -12279.2351 1854.8892 0.0000 0.0000 1216.2454 -9208.1005 211.4137 -10424.3459 -9204.0654 210.2450 -348.1520 -238.0696 28433.8802 2.6682 2.5631
TCL: Running 100000 steps at 240 kelvin.
TCL: Setting parameter langevinTemp to 240
TCL: Running for 100000 steps
ETITLE: TS BOND ANGLE DIHED IMPRP ELECT VDW BOUNDARY MISC KINETIC TOTAL TEMP POTENTIAL TOTAL3 TEMPAVG PRESSURE GPRESSURE VOLUME PRESSAVG GPRESSAVG
ENERGY: 700000 0.0000 0.0000 0.0000 0.0000 -12279.2351 1854.8892 0.0000 0.0000 1215.6448 -9208.7012 211.3092 -10424.3459 -9206.3082 211.3092 -324.1966 -237.1316 28433.8802 -324.1966 -237.1316
ENERGY: 800000 0.0000 0.0000 0.0000 0.0000 -11723.1670 1770.8639 0.0000 0.0000 1362.7993 -8589.5037 236.8884 -9952.3031 -8585.6194 240.2870 777.5058 831.3752 28349.5118 3.6706 3.9178
TCL: Running 100000 steps at 270 kelvin.
TCL: Setting parameter langevinTemp to 270
TCL: Running for 100000 steps
ETITLE: TS BOND ANGLE DIHED IMPRP ELECT VDW BOUNDARY MISC KINETIC TOTAL TEMP POTENTIAL TOTAL3 TEMPAVG PRESSURE GPRESSURE VOLUME PRESSAVG GPRESSAVG
ENERGY: 800000 0.0000 0.0000 0.0000 0.0000 -11723.1670 1770.8639 0.0000 0.0000 1362.1084 -8590.1946 236.7683 -9952.3031 -8587.8287 236.7683 743.5443 831.4002 28349.5118 743.5443 831.4002
ENERGY: 900000 0.0000 0.0000 0.0000 0.0000 -11102.2993 1588.9791 0.0000 0.0000 1518.0351 -7995.2852 263.8722 -9513.3202 -7992.8762 270.3141 675.1134 708.9069 28760.4442 3.4978 3.6216
TCL: Running 1000000 steps at 300 kelvin.
TCL: Setting parameter langevinTemp to 300
TCL: Running for 1000000 steps
ETITLE: TS BOND ANGLE DIHED IMPRP ELECT VDW BOUNDARY MISC KINETIC TOTAL TEMP POTENTIAL TOTAL3 TEMPAVG PRESSURE GPRESSURE VOLUME PRESSAVG GPRESSAVG
ENERGY: 900000 0.0000 0.0000 0.0000 0.0000 -11102.2993 1588.9791 0.0000 0.0000 1517.2826 -7996.0376 263.7414 -9513.3202 -7993.4513 263.7414 617.1226 709.2156 28760.4442 617.1226 709.2156
ENERGY: 1100000 0.0000 0.0000 0.0000 0.0000 -10491.6322 1426.8402 0.0000 0.0000 1703.7351 -7361.0569 296.1515 -9064.7919 -7358.4324 299.9883 358.5258 420.8844 29670.3642 3.2400 3.2297
ENERGY: 1300000 0.0000 0.0000 0.0000 0.0000 -10498.4128 1386.4326 0.0000 0.0000 1724.6600 -7387.3202 299.7887 -9111.9802 -7384.3486 300.2608 -38.1342 59.4824 29831.9039 2.2983 2.1834
ENERGY: 1500000 0.0000 0.0000 0.0000 0.0000 -10626.5542 1471.3627 0.0000 0.0000 1811.4972 -7343.6943 314.8832 -9155.1915 -7341.2253 300.1922 474.9584 529.8855 29716.0343 2.9476 3.0208
ENERGY: 1700000 0.0000 0.0000 0.0000 0.0000 -10563.0866 1398.9097 0.0000 0.0000 1693.7921 -7470.3849 294.4231 -9164.1770 -7464.5322 300.7257 -281.4374 -295.0866 30217.1154 1.7596 1.8121
ENERGY: 1900000 0.0000 0.0000 0.0000 0.0000 -10558.0340 1423.5463 0.0000 0.0000 1756.5002 -7377.9876 305.3234 -9134.4878 -7373.9850 299.8860 -14.7921 58.6862 30073.3312 4.5083 4.5206
TCL: Exiting due to exit command.
