Info: SIMULATION PARAMETERS:
Info: TIMESTEP               2
Info: NUMBER OF STEPS        0
Info: STEPS PER CYCLE        10
Info: PERIODIC CELL BASIS 1  30.9175 0 0
Info: PERIODIC CELL BASIS 2  0 29.44 0
Info: PERIODIC CELL BASIS 3  0 0 33.2611
Info: PERIODIC CELL CENTER   0 0 0
Info: WRAPPING WATERS AROUND PERIODIC BOUNDARIES ON OUTPUT.
Info: WRAPPING ALL CLUSTERS AROUND PERIODIC BOUNDARIES ON OUTPUT.
Info: FIRST LDB TIMESTEP     50
Info: LAST LDB TIMESTEP     -1
Info: HOM BACKGROUND SCALING 1
Info: PME BACKGROUND SCALING 1
Info: MIN ATOMS PER PATCH    40
Info: EMPTY PATCH LOAD       40 ATOMS
Info: VELOCITY FILE          mobley_3398536_equil.vel
Info: CENTER OF MASS MOVING INITIALLY? NO
Info: DIELECTRIC             1
Info: EXCLUDE                SCALED ONE-FOUR
Info: 1-4 ELECTROSTATICS SCALED BY 0.833333
Info: MODIFIED 1-4 VDW PARAMETERS WILL BE USED
Info: DCD FILENAME           mobley_3398536_prod.dcd
Info: DCD FREQUENCY          100000
Info: DCD FIRST STEP         100000
Info: DCD FILE WILL CONTAIN UNIT CELL DATA
Info: XST FILENAME           mobley_3398536_prod.xst
Info: XST FREQUENCY          100000
Info: NO VELOCITY DCD OUTPUT
Info: NO FORCE DCD OUTPUT
Info: OUTPUT FILENAME        mobley_3398536_prod
Info: BINARY OUTPUT FILES WILL BE USED
Info: RESTART FILENAME       mobley_3398536_prod.restart
Info: RESTART FREQUENCY      100000
Info: BINARY RESTART FILES WILL BE USED
Info: CUTOFF                 9
Info: PAIRLIST DISTANCE      11
Info: PAIRLIST SHRINK RATE   0.01
Info: PAIRLIST GROW RATE     0.01
Info: PAIRLIST TRIGGER       0.3
Info: PAIRLISTS PER CYCLE    2
Info: PAIRLISTS ENABLED
Info: MARGIN                 2
Info: HYDROGEN GROUP CUTOFF  2.5
Info: PATCH DIMENSION        15.5
Info: ENERGY OUTPUT STEPS    100000
Info: ENERGY EVALUATION STEPS    100000
Info: OUTPUT ENERGY PRECISION 4
Info: CROSSTERM ENERGY INCLUDED IN DIHEDRAL
Info: TIMING OUTPUT STEPS    1000000
Info: PRESSURE OUTPUT STEPS  100000
Info: ALCHEMICAL FEP ON
Info: FEP CURRENT LAMBDA VALUE     1
Info: FEP COMPARISON LAMBDA VALUE  0.95
Info: FEP INTRA-ALCHEMICAL NON-BONDED INTERACTIONS WILL BE RETAINED
Info: FEP INTRA-ALCHEMICAL BONDED INTERACTIONS WILL BE RETAINED
Info: FEP VDW SHIFTING COEFFICIENT 5
Info: FEP ELEC. ACTIVE FOR ANNIHILATED PARTICLES BETWEEN LAMBDA = 0 AND LAMBDA = 0.5
Info: FEP ELEC. ACTIVE FOR EXNIHILATED PARTICLES BETWEEN LAMBDA = 0.5 AND LAMBDA = 1
Info: FEP VDW ACTIVE FOR ANNIHILATED PARTICLES BETWEEN LAMBDA = 0 AND LAMBDA = 1
Info: FEP VDW ACTIVE FOR EXNIHILATED PARTICLES BETWEEN LAMBDA = 0 AND LAMBDA = 1
Info: FEP BOND ACTIVE FOR ANNIHILATED PARTICLES BETWEEN LAMBDA = 1 AND LAMBDA = 1
Info: FEP BOND ACTIVE FOR EXNIHILATED PARTICLES BETWEEN LAMBDA = 0 AND LAMBDA = 0
Info: LANGEVIN DYNAMICS ACTIVE
Info: LANGEVIN TEMPERATURE   300
Info: LANGEVIN USING BBK INTEGRATOR
Info: LANGEVIN DAMPING COEFFICIENT IS 1 INVERSE PS
Info: LANGEVIN DYNAMICS APPLIED TO HYDROGENS
Info: LANGEVIN PISTON PRESSURE CONTROL ACTIVE
Info:        TARGET PRESSURE IS 1.01325 BAR
Info:     OSCILLATION PERIOD IS 50 FS
Info:             DECAY TIME IS 25 FS
Info:     PISTON TEMPERATURE IS 300 K
Info:       PRESSURE CONTROL IS GROUP-BASED
Info:    INITIAL STRAIN RATE IS -0.000200188 -0.000200188 -0.000200188
Info:       CELL FLUCTUATION IS ISOTROPIC
Info: PARTICLE MESH EWALD (PME) ACTIVE
Info: PME TOLERANCE               1e-06
Info: PME EWALD COEFFICIENT       0.348832
Info: PME INTERPOLATION ORDER     4
Info: PME GRID DIMENSIONS         32 32 36
Info: PME MAXIMUM GRID SPACING    1
Info: PME CALCULATION WILL BE PERFORMED ON GPU
Info: FULL ELECTROSTATIC EVALUATION FREQUENCY      2
Info: USING VERLET I (r-RESPA) MTS SCHEME.
Info: C1 SPLITTING OF LONG RANGE ELECTROSTATICS
Info: PLACING ATOMS IN PATCHES BY HYDROGEN GROUPS
Info: RIGID BONDS TO HYDROGEN : ALL
Info:         ERROR TOLERANCE : 1e-08
Info:          MAX ITERATIONS : 100
Info: RIGID WATER USING SETTLE ALGORITHM
Info: RANDOM NUMBER SEED     1742170903
Info: USE HYDROGEN BONDS?    NO
Info: Using AMBER format force field!
Info: AMBER PARM FILE        mobley_3398536.prmtop
Info: COORDINATE PDB         mobley_3398536.pdb
Info: Exclusions will be read from PARM file!
Info: SCNB (VDW SCALING)     2
Info: USING ARITHMETIC MEAN TO COMBINE L-J SIGMA PARAMETERS
Info: BINARY COORDINATES     mobley_3398536_equil.coor
Info: SUMMARY OF PARAMETERS:
Info: 5 BONDS
Info: 3 ANGLES
Info:   3 HARMONIC
Info:   0 COSINE-BASED
Info: 2 DIHEDRAL
Info: 0 IMPROPER
Info: 0 CROSSTERM
Info: 0 VDW
Info: 15 VDW_PAIRS
Info: 0 NBTHOLE_PAIRS
Info: To read alchdata from file: mobley_3398536.pdb
Info: To read alchflag data from column: 5
Info: STRUCTURE SUMMARY:
Info: 2940 ATOMS
Info: 2940 BONDS
Info: 18 ANGLES
Info: 30 DIHEDRALS
Info: 0 IMPROPERS
Info: 0 CROSSTERMS
Info: 2979 EXCLUSIONS
Info: 2933 RIGID BONDS
Info: ALCH: 0 ATOMS TO DISAPPEAR IN FINAL STATE
Info: ALCH: 12 ATOMS TO APPEAR IN FINAL STATE
Info: 5887 DEGREES OF FREEDOM
Info: 983 HYDROGEN GROUPS
Info: 3 ATOMS IN LARGEST HYDROGEN GROUP
Info: 983 MIGRATION GROUPS
Info: 3 ATOMS IN LARGEST MIGRATION GROUP
Info: TOTAL MASS = 17787.6 amu
Info: TOTAL CHARGE = 0.000100022 e
Info: MASS DENSITY = 0.975659 g/cm^3
Info: ATOM DENSITY = 0.097111 atoms/A^3
Info: ADDED 0 IMPLICIT EXCLUSIONS
Info: NONBONDED TABLE R-SQUARED SPACING: 0.0625
Info: NONBONDED TABLE SIZE: 705 POINTS
Info: REMOVING COM VELOCITY 0.0954201 0.0136337 0.0180154
Info: Use 3D box decompostion in PME FFT.
Info: Updated CUDA force table with 4096 elements.
Info: Updated CUDA LJ table with 5 x 5 elements.
Info: Found 14 unique exclusion lists needing 24 bytes
TCL: Running for 1500000 steps
ETITLE: TS BOND ANGLE DIHED IMPRP ELECT VDW BOUNDARY MISC KINETIC TOTAL TEMP POTENTIAL TOTALAVG TEMPAVG PRESSURE GPRESSURE VOLUME PRESSAVG GPRESSAVG
ENERGY: 0 1.5200 2.1584 1.2940 0.0000 -10717.6667 1440.1739 0.0000 0.0000 1692.0542 -7580.4662 289.2748 -9272.5204 -7580.4662 289.2748 -62.2790 14.6800 30274.6378 -62.2790 14.6800
ENERGY: 300000 1.7899 0.9596 2.9072 0.0000 -10613.5468 1385.0129 0.0000 0.0000 1735.2467 -7487.6305 296.6590 -9222.8772 -7461.4797 300.1186 -469.2775 -465.2706 30465.5520 -157.6327 -104.8098
ENERGY: 600000 2.1753 2.6167 0.8675 0.0000 -10646.0515 1448.8536 0.0000 0.0000 1837.2752 -7354.2632 314.1019 -9191.5384 -7433.7820 303.9654 309.1427 299.5175 30579.6870 -57.9538 -0.4087
ENERGY: 900000 3.4366 1.5800 2.1819 0.0000 -10717.8466 1467.4886 0.0000 0.0000 1779.1425 -7464.0172 304.1635 -9243.1596 -7450.2620 303.9491 359.8756 420.3201 29883.7845 83.2994 137.8885
ENERGY: 1200000 2.1501 2.5618 1.0759 0.0000 -10482.9514 1355.8728 0.0000 0.0000 1778.3488 -7342.9421 304.0278 -9121.2909 -7455.2660 303.6332 -370.4885 -315.4956 30517.7069 1.6832 64.8487
ENERGY: 1500000 0.7793 2.2600 2.2388 0.0000 -10705.7205 1428.0895 0.0000 0.0000 1797.3227 -7475.0301 307.2716 -9272.3528 -7463.9796 302.9126 -183.3649 -116.7103 30459.3737 -43.2371 19.5055
TCL: Running FEP window   2: Lambda1 0.95   Lambda2 0.8999999999999999 [dLambda -0.050000000000000044]
TCL: Setting parameter firsttimestep to 0
TCL: Setting parameter alchLambda to 0.95
Info: NONBONDED TABLE R-SQUARED SPACING: 0.0625
Info: NONBONDED TABLE SIZE: 705 POINTS
TCL: Setting parameter alchLambda2 to 0.8999999999999999
Info: NONBONDED TABLE R-SQUARED SPACING: 0.0625
Info: NONBONDED TABLE SIZE: 705 POINTS
TCL: Running for 1500000 steps
ETITLE: TS BOND ANGLE DIHED IMPRP ELECT VDW BOUNDARY MISC KINETIC TOTAL TEMP POTENTIAL TOTALAVG TEMPAVG PRESSURE GPRESSURE VOLUME PRESSAVG GPRESSAVG
ENERGY: 0 0.7793 2.2600 2.2388 0.0000 -10705.1065 1428.2639 0.0000 0.0000 1796.4811 -7475.0834 307.1277 -9271.5644 -7475.0834 307.1277 -215.8941 -128.4587 30459.3737 -215.8941 -128.4587
ENERGY: 300000 2.4136 2.5942 2.8608 0.0000 -10536.8699 1381.6808 0.0000 0.0000 1745.8905 -7401.4300 298.4787 -9147.3205 -7502.3404 298.6034 -283.9753 -347.0902 30743.2793 -365.9077 -351.7174
ENERGY: 600000 1.0667 1.9386 2.2334 0.0000 -10574.8788 1342.5943 0.0000 0.0000 1709.5334 -7517.5125 292.2631 -9227.0459 -7496.6185 296.8580 -732.9287 -659.1145 30472.3944 -201.6998 -169.4270
ENERGY: 900000 0.4789 1.9162 1.4659 0.0000 -10714.6778 1437.6972 0.0000 0.0000 1811.2941 -7461.8256 309.6601 -9273.1196 -7499.7881 298.1572 -58.9021 -0.9132 30296.5422 -254.9869 -222.2531
ENERGY: 1200000 3.6749 2.4047 3.1540 0.0000 -10583.0885 1371.9770 0.0000 0.0000 1741.5604 -7460.3175 297.7384 -9201.8779 -7488.2399 298.5401 -614.0995 -521.0016 30411.7934 -297.2478 -260.3703
ENERGY: 1500000 1.6131 1.6093 4.0818 0.0000 -10772.7814 1417.1932 0.0000 0.0000 1735.3182 -7612.9658 296.6713 -9348.2840 -7491.4709 298.5179 -277.2677 -237.3429 29846.9069 -276.9612 -236.8839
TCL: Running FEP window   3: Lambda1 0.8999999999999999 Lambda2 0.8499999999999999 [dLambda -0.050000000000000044]
TCL: Setting parameter firsttimestep to 0
TCL: Setting parameter alchLambda to 0.8999999999999999
Info: NONBONDED TABLE R-SQUARED SPACING: 0.0625
Info: NONBONDED TABLE SIZE: 705 POINTS
TCL: Setting parameter alchLambda2 to 0.8499999999999999
Info: NONBONDED TABLE R-SQUARED SPACING: 0.0625
Info: NONBONDED TABLE SIZE: 705 POINTS
TCL: Running for 1500000 steps
ETITLE: TS BOND ANGLE DIHED IMPRP ELECT VDW BOUNDARY MISC KINETIC TOTAL TEMP POTENTIAL TOTALAVG TEMPAVG PRESSURE GPRESSURE VOLUME PRESSAVG GPRESSAVG
ENERGY: 0 1.6131 1.6093 4.0818 0.0000 -10772.4165 1416.6347 0.0000 0.0000 1734.4188 -7614.0588 296.5175 -9348.4777 -7614.0588 296.5175 -335.6236 -256.3401 29846.9069 -335.6236 -256.3401
ENERGY: 300000 2.5164 1.5833 2.5976 0.0000 -10826.5809 1560.5916 0.0000 0.0000 1744.2736 -7515.0184 298.2023 -9259.2920 -7526.8025 296.5245 818.8372 865.8689 30454.5006 -225.9955 -161.8472
ENERGY: 600000 3.8554 5.1185 2.3380 0.0000 -10573.6373 1373.5451 0.0000 0.0000 1750.9897 -7437.7905 299.3505 -9188.7802 -7480.5782 301.4566 -316.8467 -319.2702 30245.4030 -15.7375 43.4922
ENERGY: 900000 1.4533 1.7375 2.0826 0.0000 -10685.0394 1491.7002 0.0000 0.0000 1742.0002 -7446.0656 297.8136 -9188.0658 -7458.0882 301.1318 890.0021 897.4830 29646.5291 -25.1541 33.4751
ENERGY: 1200000 1.1692 1.7271 1.2080 0.0000 -10608.4478 1354.7119 0.0000 0.0000 1793.7518 -7455.8798 306.6611 -9249.6316 -7452.9895 301.3880 -800.3640 -704.1737 30523.4059 -167.9446 -99.7205
ENERGY: 1500000 1.1647 4.0265 1.9365 0.0000 -10497.2901 1363.3963 0.0000 0.0000 1727.1148 -7399.6513 295.2688 -9126.7661 -7450.4240 301.0410 -391.7777 -283.0359 30559.6595 -182.5757 -107.3410
TCL: Running FEP window   4: Lambda1 0.8499999999999999 Lambda2 0.7999999999999998 [dLambda -0.050000000000000044]
TCL: Setting parameter firsttimestep to 0
TCL: Setting parameter alchLambda to 0.8499999999999999
Info: NONBONDED TABLE R-SQUARED SPACING: 0.0625
Info: NONBONDED TABLE SIZE: 705 POINTS
TCL: Setting parameter alchLambda2 to 0.7999999999999998
Info: NONBONDED TABLE R-SQUARED SPACING: 0.0625
Info: NONBONDED TABLE SIZE: 705 POINTS
TCL: Running for 1500000 steps
ETITLE: TS BOND ANGLE DIHED IMPRP ELECT VDW BOUNDARY MISC KINETIC TOTAL TEMP POTENTIAL TOTALAVG TEMPAVG PRESSURE GPRESSURE VOLUME PRESSAVG GPRESSAVG
ENERGY: 0 1.1647 4.0265 1.9365 0.0000 -10496.6526 1363.8629 0.0000 0.0000 1726.2016 -7399.4604 295.1127 -9125.6620 -7399.4604 295.1127 -362.8331 -287.4511 30559.6595 -362.8331 -287.4511
ENERGY: 300000 2.6855 1.6650 2.8043 0.0000 -10702.0945 1471.0930 0.0000 0.0000 1730.9088 -7492.9379 295.9174 -9223.8467 -7468.0080 295.0266 233.5594 232.2741 30195.1932 -85.3819 -62.9239
ENERGY: 600000 4.7540 2.4671 2.9551 0.0000 -10511.0955 1306.1051 0.0000 0.0000 1815.9094 -7378.9049 310.4492 -9194.8143 -7476.4705 296.1220 -1276.8823 -1254.1993 30773.7548 -300.8825 -270.9955
ENERGY: 900000 1.2536 2.7467 3.5150 0.0000 -10606.5719 1411.2959 0.0000 0.0000 1703.1018 -7484.6589 291.1635 -9187.7607 -7477.8149 296.3695 -124.9108 -56.6043 30372.3173 -309.0061 -260.3639
ENERGY: 1200000 2.3743 2.2141 4.3335 0.0000 -10324.7281 1240.3014 0.0000 0.0000 1775.3388 -7300.1660 303.5132 -9075.5048 -7463.7910 297.6389 -979.1724 -973.9940 30554.8982 -280.1336 -232.2208
ENERGY: 1500000 1.0846 3.1591 5.6778 0.0000 -10714.0107 1477.5734 0.0000 0.0000 1743.2373 -7483.2784 298.0251 -9226.5157 -7462.7678 298.5870 224.5700 276.4654 30371.2809 -175.9364 -127.2477
TCL: Running FEP window   5: Lambda1 0.7999999999999998 Lambda2 0.7499999999999998 [dLambda -0.050000000000000044]
TCL: Setting parameter firsttimestep to 0
TCL: Setting parameter alchLambda to 0.7999999999999998
Info: NONBONDED TABLE R-SQUARED SPACING: 0.0625
Info: NONBONDED TABLE SIZE: 705 POINTS
TCL: Setting parameter alchLambda2 to 0.7499999999999998
Info: NONBONDED TABLE R-SQUARED SPACING: 0.0625
Info: NONBONDED TABLE SIZE: 705 POINTS
TCL: Running for 1500000 steps
ETITLE: TS BOND ANGLE DIHED IMPRP ELECT VDW BOUNDARY MISC KINETIC TOTAL TEMP POTENTIAL TOTALAVG TEMPAVG PRESSURE GPRESSURE VOLUME PRESSAVG GPRESSAVG
ENERGY: 0 1.0846 3.1591 5.6778 0.0000 -10713.8024 1478.0434 0.0000 0.0000 1742.3545 -7483.4829 297.8742 -9225.8374 -7483.4829 297.8742 194.1079 272.3700 30371.2809 194.1079 272.3700
ENERGY: 300000 2.0721 2.1203 3.3386 0.0000 -10828.7740 1558.5794 0.0000 0.0000 1755.1352 -7507.5284 300.0592 -9262.6636 -7496.0687 301.6539 952.9059 941.6149 30056.9893 483.1941 529.9455
ENERGY: 600000 4.6461 3.1667 2.6590 0.0000 -10803.4085 1478.0573 0.0000 0.0000 1736.8881 -7577.9913 296.9397 -9314.8794 -7502.0426 300.7796 129.9142 263.7307 30048.5363 241.1809 304.1606
ENERGY: 900000 1.3630 4.5876 5.3639 0.0000 -10643.0159 1349.5047 0.0000 0.0000 1719.9626 -7562.2342 294.0460 -9282.1968 -7502.8813 300.4677 -740.1464 -643.6146 30353.5338 72.9419 128.9824
ENERGY: 1200000 4.3370 1.3150 6.5625 0.0000 -10752.8577 1425.8594 0.0000 0.0000 1759.3232 -7555.4606 300.7752 -9314.7838 -7496.5032 300.5518 -249.9700 -201.8939 29874.4009 120.2099 183.9314
ENERGY: 1500000 1.4020 0.9649 1.6120 0.0000 -10576.2846 1399.6203 0.0000 0.0000 1792.1210 -7380.5642 306.3823 -9172.6852 -7492.2713 300.1532 -300.7778 -224.0951 30747.6412 41.3533 110.0810
TCL: Running FEP window   6: Lambda1 0.7499999999999998 Lambda2 0.6999999999999997 [dLambda -0.050000000000000044]
TCL: Setting parameter firsttimestep to 0
TCL: Setting parameter alchLambda to 0.7499999999999998
Info: NONBONDED TABLE R-SQUARED SPACING: 0.0625
Info: NONBONDED TABLE SIZE: 705 POINTS
TCL: Setting parameter alchLambda2 to 0.6999999999999997
Info: NONBONDED TABLE R-SQUARED SPACING: 0.0625
Info: NONBONDED TABLE SIZE: 705 POINTS
TCL: Running for 1500000 steps
ETITLE: TS BOND ANGLE DIHED IMPRP ELECT VDW BOUNDARY MISC KINETIC TOTAL TEMP POTENTIAL TOTALAVG TEMPAVG PRESSURE GPRESSURE VOLUME PRESSAVG GPRESSAVG
ENERGY: 0 1.4020 0.9649 1.6120 0.0000 -10575.4329 1400.1255 0.0000 0.0000 1791.2499 -7380.0785 306.2334 -9171.3283 -7380.0785 306.2334 -320.9996 -226.8872 30747.6412 -320.9996 -226.8872
ENERGY: 300000 2.5359 5.4785 1.3800 0.0000 -10681.6189 1405.5958 0.0000 0.0000 1756.3771 -7510.2515 300.2715 -9266.6286 -7461.6546 300.1245 -324.1160 -248.2303 29998.6131 -321.6279 -252.1608
ENERGY: 600000 1.7486 2.2918 2.1143 0.0000 -10625.7008 1481.7279 0.0000 0.0000 1759.5460 -7378.2723 300.8133 -9137.8183 -7459.7547 300.1058 734.0059 677.8007 30172.7842 -161.8839 -108.4907
ENERGY: 900000 2.6373 6.6819 0.9305 0.0000 -10650.6679 1433.8792 0.0000 0.0000 1748.8721 -7457.6670 298.9884 -9206.5391 -7476.1189 298.8852 -26.1462 65.8280 30357.0619 -197.7051 -132.1779
ENERGY: 1200000 0.6446 1.4459 4.4007 0.0000 -10636.2366 1438.4862 0.0000 0.0000 1756.0628 -7435.1964 300.2178 -9191.2592 -7473.2094 299.3736 433.1343 435.6125 29835.7323 -97.9145 -37.8619
ENERGY: 1500000 0.8798 1.8891 5.5390 0.0000 -10636.9939 1440.4276 0.0000 0.0000 1722.9861 -7465.2724 294.5629 -9188.2585 -7466.3043 299.2815 11.9912 93.7407 30466.2642 -81.7348 -20.0719
TCL: Running FEP window   7: Lambda1 0.6999999999999997 Lambda2 0.6499999999999997 [dLambda -0.050000000000000044]
TCL: Setting parameter firsttimestep to 0
TCL: Setting parameter alchLambda to 0.6999999999999997
Info: NONBONDED TABLE R-SQUARED SPACING: 0.0625
Info: NONBONDED TABLE SIZE: 705 POINTS
TCL: Setting parameter alchLambda2 to 0.6499999999999997
Info: NONBONDED TABLE R-SQUARED SPACING: 0.0625
Info: NONBONDED TABLE SIZE: 705 POINTS
TCL: Running for 1500000 steps
ETITLE: TS BOND ANGLE DIHED IMPRP ELECT VDW BOUNDARY MISC KINETIC TOTAL TEMP POTENTIAL TOTALAVG TEMPAVG PRESSURE GPRESSURE VOLUME PRESSAVG GPRESSAVG
ENERGY: 0 0.8798 1.8891 5.5390 0.0000 -10636.7307 1440.7935 0.0000 0.0000 1722.0750 -7465.5543 294.4072 -9187.6294 -7465.5543 294.4072 14.0663 90.5466 30466.2642 14.0663 90.5466
ENERGY: 300000 1.8470 1.8674 2.2302 0.0000 -10765.0953 1521.0682 0.0000 0.0000 1687.4270 -7550.6554 288.4837 -9238.0824 -7501.6529 293.2220 1053.4375 1107.6453 29595.2355 174.3693 260.1705
ENERGY: 600000 1.8521 1.0123 1.0920 0.0000 -10630.1739 1456.5577 0.0000 0.0000 1722.9235 -7446.7365 294.5522 -9169.6599 -7482.2174 295.4147 311.0374 376.1258 30162.1066 -25.9100 45.8659
ENERGY: 900000 1.8403 2.8467 3.8085 0.0000 -10704.0660 1479.6228 0.0000 0.0000 1708.1729 -7507.7748 292.0305 -9215.9477 -7477.1202 296.1448 239.9818 254.1158 30578.4091 -37.7002 30.1923
ENERGY: 1200000 2.3804 2.8428 3.1541 0.0000 -10615.5046 1373.3288 0.0000 0.0000 1725.0271 -7508.7714 294.9119 -9233.7985 -7469.6305 297.5022 -789.5033 -693.7442 30598.8259 -80.8285 -7.8248
ENERGY: 1500000 2.2010 2.2617 3.3701 0.0000 -10612.2649 1443.0975 0.0000 0.0000 1771.6540 -7389.6806 302.8832 -9161.3346 -7467.0162 298.0070 184.1050 249.9848 30399.7853 -16.2140 51.8161
TCL: Running FEP window   8: Lambda1 0.6499999999999997 Lambda2 0.5999999999999996 [dLambda -0.050000000000000044]
TCL: Setting parameter firsttimestep to 0
TCL: Setting parameter alchLambda to 0.6499999999999997
Info: NONBONDED TABLE R-SQUARED SPACING: 0.0625
Info: NONBONDED TABLE SIZE: 705 POINTS
TCL: Setting parameter alchLambda2 to 0.5999999999999996
Info: NONBONDED TABLE R-SQUARED SPACING: 0.0625
Info: NONBONDED TABLE SIZE: 705 POINTS
TCL: Running for 1500000 steps
ETITLE: TS BOND ANGLE DIHED IMPRP ELECT VDW BOUNDARY MISC KINETIC TOTAL TEMP POTENTIAL TOTALAVG TEMPAVG PRESSURE GPRESSURE VOLUME PRESSAVG GPRESSAVG
ENERGY: 0 2.2010 2.2617 3.3701 0.0000 -10612.0708 1443.6925 0.0000 0.0000 1770.7554 -7389.7902 302.7296 -9160.5455 -7389.7902 302.7296 169.0640 248.5981 30399.7853 169.0640 248.5981
ENERGY: 300000 2.2866 5.4155 3.7708 0.0000 -10646.6068 1433.4425 0.0000 0.0000 1777.3705 -7424.3210 303.8605 -9201.6915 -7410.6080 303.4613 -165.2233 -15.7883 30268.3295 156.1866 222.4828
ENERGY: 600000 1.3554 2.0861 2.2043 0.0000 -10679.5204 1447.7185 0.0000 0.0000 1734.4067 -7491.7494 296.5154 -9226.1561 -7440.2867 302.9947 12.9457 164.0658 30280.7125 28.4556 109.6592
ENERGY: 900000 2.3719 1.9998 2.2526 0.0000 -10664.8065 1452.1415 0.0000 0.0000 1797.1326 -7408.9080 307.2391 -9206.0406 -7447.3673 302.4841 104.0688 40.7002 30690.0479 24.9393 95.0993
ENERGY: 1200000 2.9698 4.3836 2.0271 0.0000 -10619.5859 1395.6621 0.0000 0.0000 1800.5603 -7413.9828 307.8251 -9214.5432 -7440.9413 302.5194 -470.8595 -349.0914 30416.2152 -76.4774 -4.4349
ENERGY: 1500000 1.1577 3.8364 3.5768 0.0000 -10552.3100 1368.5123 0.0000 0.0000 1774.1056 -7401.1212 303.3024 -9175.2268 -7435.6278 302.0002 -673.4959 -563.4047 30477.5963 -100.8315 -27.4791
TCL: Running FEP window   9: Lambda1 0.5999999999999996 Lambda2 0.5499999999999996 [dLambda -0.050000000000000044]
TCL: Setting parameter firsttimestep to 0
TCL: Setting parameter alchLambda to 0.5999999999999996
Info: NONBONDED TABLE R-SQUARED SPACING: 0.0625
Info: NONBONDED TABLE SIZE: 705 POINTS
TCL: Setting parameter alchLambda2 to 0.5499999999999996
Info: NONBONDED TABLE R-SQUARED SPACING: 0.0625
Info: NONBONDED TABLE SIZE: 705 POINTS
TCL: Running for 1500000 steps
ETITLE: TS BOND ANGLE DIHED IMPRP ELECT VDW BOUNDARY MISC KINETIC TOTAL TEMP POTENTIAL TOTALAVG TEMPAVG PRESSURE GPRESSURE VOLUME PRESSAVG GPRESSAVG
ENERGY: 0 1.1577 3.8365 3.5768 0.0000 -10552.1821 1368.7419 0.0000 0.0000 1773.2159 -7401.6533 303.1503 -9174.8692 -7401.6533 303.1503 -650.5068 -568.0946 30477.5963 -650.5068 -568.0946
ENERGY: 300000 1.5555 3.8955 2.8228 0.0000 -10703.3803 1467.6007 0.0000 0.0000 1820.3409 -7407.1649 311.2068 -9227.5058 -7427.9760 304.7018 330.8903 344.7829 30208.2524 19.9989 86.0992
ENERGY: 600000 0.9088 3.2437 2.9164 0.0000 -10793.1427 1515.2642 0.0000 0.0000 1855.7778 -7415.0318 317.2651 -9270.8097 -7456.1045 304.0176 382.6292 424.3499 30486.9162 119.3474 162.3403
ENERGY: 900000 1.9914 1.6806 4.0357 0.0000 -10653.1615 1504.8217 0.0000 0.0000 1741.0002 -7399.6318 297.6427 -9140.6320 -7453.6556 302.6808 766.0660 826.0816 30183.1050 131.8075 185.4672
ENERGY: 1200000 1.8077 2.5146 2.0236 0.0000 -10587.8673 1403.8124 0.0000 0.0000 1739.4799 -7438.2291 297.3827 -9177.7090 -7457.6613 302.3180 -106.1868 -89.0260 30284.6682 77.4897 127.7964
ENERGY: 1500000 1.8891 1.2885 3.8301 0.0000 -10542.5443 1361.3730 0.0000 0.0000 1678.6400 -7495.5235 286.9815 -9174.1635 -7461.6542 301.6605 -689.7215 -677.0084 30691.6461 -25.9368 24.8201
TCL: Running FEP window  10: Lambda1 0.5499999999999996 Lambda2 0.4999999999999996 [dLambda -0.04999999999999999]
TCL: Setting parameter firsttimestep to 0
TCL: Setting parameter alchLambda to 0.5499999999999996
Info: NONBONDED TABLE R-SQUARED SPACING: 0.0625
Info: NONBONDED TABLE SIZE: 705 POINTS
TCL: Setting parameter alchLambda2 to 0.4999999999999996
Info: NONBONDED TABLE R-SQUARED SPACING: 0.0625
Info: NONBONDED TABLE SIZE: 705 POINTS
TCL: Running for 1500000 steps
ETITLE: TS BOND ANGLE DIHED IMPRP ELECT VDW BOUNDARY MISC KINETIC TOTAL TEMP POTENTIAL TOTALAVG TEMPAVG PRESSURE GPRESSURE VOLUME PRESSAVG GPRESSAVG
ENERGY: 0 1.8891 1.2885 3.8301 0.0000 -10542.2937 1361.9054 0.0000 0.0000 1677.7631 -7495.6175 286.8316 -9173.3806 -7495.6175 286.8316 -750.4244 -678.3580 30691.6461 -750.4244 -678.3580
ENERGY: 300000 3.0676 1.3788 3.9873 0.0000 -10673.4495 1459.3681 0.0000 0.0000 1803.2495 -7402.3982 308.2848 -9205.6477 -7458.3588 298.4527 322.8155 459.2486 29832.4969 -36.5607 40.2282
ENERGY: 600000 7.3529 1.5507 3.4955 0.0000 -10777.1455 1466.5191 0.0000 0.0000 1745.4762 -7552.7510 298.4079 -9298.2272 -7482.5224 300.6479 -9.6774 48.6719 30250.4106 165.3742 237.9917
ENERGY: 900000 1.9379 0.7516 0.8321 0.0000 -10684.6477 1426.6453 0.0000 0.0000 1769.7190 -7484.7618 302.5524 -9254.4808 -7483.9277 301.4566 -109.0500 -102.7584 30468.0588 57.8131 121.9127
ENERGY: 1200000 3.2949 1.1942 5.5070 0.0000 -10617.9078 1419.5040 0.0000 0.0000 1757.8460 -7430.5617 300.5226 -9188.4076 -7473.9319 301.8748 76.2957 93.7514 30096.6409 16.8356 72.5358
ENERGY: 1500000 0.9322 1.9127 1.6921 0.0000 -10587.0958 1394.0215 0.0000 0.0000 1804.4663 -7384.0711 308.4929 -9188.5373 -7468.2294 301.8839 -394.1670 -403.7874 30863.1833 -36.2469 19.0709
TCL: Running FEP window  11: Lambda1 0.4999999999999996 Lambda2 0.4499999999999996 [dLambda -0.04999999999999999]
TCL: Setting parameter firsttimestep to 0
TCL: Setting parameter alchLambda to 0.4999999999999996
Info: NONBONDED TABLE R-SQUARED SPACING: 0.0625
Info: NONBONDED TABLE SIZE: 705 POINTS
TCL: Setting parameter alchLambda2 to 0.4499999999999996
Info: NONBONDED TABLE R-SQUARED SPACING: 0.0625
Info: NONBONDED TABLE SIZE: 705 POINTS
TCL: Running for 1500000 steps
ETITLE: TS BOND ANGLE DIHED IMPRP ELECT VDW BOUNDARY MISC KINETIC TOTAL TEMP POTENTIAL TOTALAVG TEMPAVG PRESSURE GPRESSURE VOLUME PRESSAVG GPRESSAVG
ENERGY: 0 0.9322 1.9127 1.6921 0.0000 -10587.1324 1394.4722 0.0000 0.0000 1803.5363 -7384.5869 308.3339 -9188.1232 -7384.5869 308.3339 -483.1782 -403.7383 30863.1833 -483.1782 -403.7383
ENERGY: 300000 2.1578 3.6074 3.0682 0.0000 -10471.4796 1356.9013 0.0000 0.0000 1696.0515 -7409.6935 289.9582 -9105.7450 -7408.3584 300.7549 -704.3068 -699.8026 31049.6467 -2.9540 52.0499
ENERGY: 600000 1.0298 2.4800 5.7807 0.0000 -10733.8751 1507.7350 0.0000 0.0000 1792.4306 -7424.4190 306.4352 -9216.8496 -7437.8460 299.4591 621.9765 681.1313 30267.0631 -95.6422 -29.0891
ENERGY: 900000 1.4449 1.5656 2.4014 0.0000 -10721.4850 1467.1615 0.0000 0.0000 1751.8519 -7497.0597 299.4979 -9248.9117 -7444.4302 301.2543 61.8051 135.1458 30506.2904 -56.3278 12.3401
ENERGY: 1200000 2.2186 1.6084 4.7197 0.0000 -10701.8945 1485.1590 0.0000 0.0000 1725.7289 -7482.4599 295.0319 -9208.1887 -7456.1844 300.4640 336.0624 371.3116 30356.1637 -91.9742 -26.6133
ENERGY: 1500000 1.7120 1.0275 1.9507 0.0000 -10649.3789 1405.7590 0.0000 0.0000 1725.1125 -7513.8172 294.9265 -9238.9297 -7457.6245 299.8818 -311.7578 -212.4849 30287.3097 -107.4481 -42.6936
TCL: Running FEP window  12: Lambda1 0.4499999999999996 Lambda2 0.39999999999999963 [dLambda -0.04999999999999999]
TCL: Setting parameter firsttimestep to 0
TCL: Setting parameter alchLambda to 0.4499999999999996
Info: NONBONDED TABLE R-SQUARED SPACING: 0.0625
Info: NONBONDED TABLE SIZE: 705 POINTS
TCL: Setting parameter alchLambda2 to 0.39999999999999963
Info: NONBONDED TABLE R-SQUARED SPACING: 0.0625
Info: NONBONDED TABLE SIZE: 705 POINTS
TCL: Running for 1500000 steps
ETITLE: TS BOND ANGLE DIHED IMPRP ELECT VDW BOUNDARY MISC KINETIC TOTAL TEMP POTENTIAL TOTALAVG TEMPAVG PRESSURE GPRESSURE VOLUME PRESSAVG GPRESSAVG
ENERGY: 0 1.7120 1.0275 1.9507 0.0000 -10649.3778 1405.8398 0.0000 0.0000 1724.2343 -7514.6135 294.7763 -9238.8479 -7514.6135 294.7763 -298.3701 -217.8696 30287.3097 -298.3701 -217.8696
ENERGY: 300000 2.0641 2.2736 2.1825 0.0000 -10750.2187 1528.5341 0.0000 0.0000 1758.6666 -7456.4978 300.6629 -9215.1644 -7463.9788 297.1299 818.1409 870.7338 30293.4563 173.8895 219.4700
ENERGY: 600000 2.7201 1.7850 1.9249 0.0000 -10580.7755 1373.9382 0.0000 0.0000 1733.3701 -7467.0371 296.3382 -9200.4072 -7450.8789 297.0727 -247.4231 -193.8159 30129.4058 -33.8004 19.8780
ENERGY: 900000 3.4223 2.0472 1.9357 0.0000 -10572.3049 1397.2107 0.0000 0.0000 1745.1888 -7422.5002 298.3587 -9167.6890 -7451.6783 298.2835 -193.6359 -190.2392 30120.3859 -91.1837 -42.8508
ENERGY: 1200000 1.3833 3.6246 1.7419 0.0000 -10675.1661 1418.8845 0.0000 0.0000 1774.5336 -7474.9982 303.3755 -9249.5317 -7467.3627 299.0515 -213.1109 -169.3577 30547.3654 -129.0086 -74.6150
ENERGY: 1500000 2.0423 2.6651 3.0595 0.0000 -10687.2636 1448.3482 0.0000 0.0000 1790.5642 -7440.5843 306.1162 -9231.1485 -7460.6516 300.4519 6.0854 48.7116 30612.4057 -126.0037 -72.9297
TCL: Running FEP window  13: Lambda1 0.39999999999999963 Lambda2 0.34999999999999964 [dLambda -0.04999999999999999]
TCL: Setting parameter firsttimestep to 0
TCL: Setting parameter alchLambda to 0.39999999999999963
Info: NONBONDED TABLE R-SQUARED SPACING: 0.0625
Info: NONBONDED TABLE SIZE: 705 POINTS
TCL: Setting parameter alchLambda2 to 0.34999999999999964
Info: NONBONDED TABLE R-SQUARED SPACING: 0.0625
Info: NONBONDED TABLE SIZE: 705 POINTS
TCL: Running for 1500000 steps
ETITLE: TS BOND ANGLE DIHED IMPRP ELECT VDW BOUNDARY MISC KINETIC TOTAL TEMP POTENTIAL TOTALAVG TEMPAVG PRESSURE GPRESSURE VOLUME PRESSAVG GPRESSAVG
ENERGY: 0 2.0423 2.6651 3.0595 0.0000 -10687.2611 1448.8137 0.0000 0.0000 1789.6517 -7441.0287 305.9601 -9230.6804 -7441.0287 305.9601 -26.7376 48.1864 30612.4057 -26.7376 48.1864
ENERGY: 300000 1.5201 2.1312 2.7268 0.0000 -10598.6111 1424.9889 0.0000 0.0000 1776.9154 -7390.3286 303.7827 -9167.2440 -7442.4020 300.3502 296.7683 402.0887 29671.0018 -37.9575 40.1389
ENERGY: 600000 2.9117 3.4959 2.8904 0.0000 -10715.0180 1460.6528 0.0000 0.0000 1707.3988 -7537.6683 291.8981 -9245.0672 -7480.4915 299.4348 68.6231 110.4781 30268.4544 -90.9919 -37.7833
ENERGY: 900000 0.6777 2.8709 3.0485 0.0000 -10609.0631 1361.5610 0.0000 0.0000 1756.7457 -7484.1594 300.3345 -9240.9051 -7478.7813 298.8040 -819.6510 -788.3404 30429.1771 -140.6420 -89.7097
ENERGY: 1200000 0.6190 3.4350 1.2212 0.0000 -10611.7975 1431.9275 0.0000 0.0000 1749.5379 -7425.0569 299.1023 -9174.5948 -7481.8664 298.6568 118.3068 169.5618 30256.2644 -202.6888 -147.2693
ENERGY: 1500000 3.0922 4.3796 1.8280 0.0000 -10621.5871 1407.0000 0.0000 0.0000 1753.5215 -7451.7659 299.7833 -9205.2873 -7474.3463 299.1027 11.3161 -14.3508 30118.7231 -190.0806 -138.4238
TCL: Running FEP window  14: Lambda1 0.34999999999999964 Lambda2 0.29999999999999966 [dLambda -0.04999999999999999]
TCL: Setting parameter firsttimestep to 0
TCL: Setting parameter alchLambda to 0.34999999999999964
Info: NONBONDED TABLE R-SQUARED SPACING: 0.0625
Info: NONBONDED TABLE SIZE: 705 POINTS
TCL: Setting parameter alchLambda2 to 0.29999999999999966
Info: NONBONDED TABLE R-SQUARED SPACING: 0.0625
Info: NONBONDED TABLE SIZE: 705 POINTS
TCL: Running for 1500000 steps
ETITLE: TS BOND ANGLE DIHED IMPRP ELECT VDW BOUNDARY MISC KINETIC TOTAL TEMP POTENTIAL TOTALAVG TEMPAVG PRESSURE GPRESSURE VOLUME PRESSAVG GPRESSAVG
ENERGY: 0 3.0922 4.3796 1.8280 0.0000 -10621.5865 1407.2367 0.0000 0.0000 1752.6811 -7452.3689 299.6396 -9205.0500 -7452.3689 299.6396 -104.0194 -19.7991 30118.7231 -104.0194 -19.7991
ENERGY: 300000 3.2584 2.4979 2.6793 0.0000 -10627.8762 1368.0762 0.0000 0.0000 1737.0596 -7514.3047 296.9690 -9251.3643 -7458.4864 299.1259 -551.9190 -456.0981 30195.6677 -387.2499 -332.9262
ENERGY: 600000 2.0677 2.0554 1.2483 0.0000 -10665.7357 1435.9852 0.0000 0.0000 1750.8353 -7473.5438 299.3241 -9224.3791 -7474.3582 299.7291 -165.8882 -119.0727 30594.3947 -191.8219 -138.2998
ENERGY: 900000 3.7912 2.3749 1.4911 0.0000 -10454.0529 1314.0399 0.0000 0.0000 1732.7609 -7399.5949 296.2341 -9132.3558 -7468.7763 298.0888 -1116.0873 -1007.1576 30838.3917 -271.2821 -218.5950
ENERGY: 1200000 0.4470 1.5432 5.4661 0.0000 -10614.9702 1430.0789 0.0000 0.0000 1771.8058 -7405.6292 302.9092 -9177.4350 -7457.3675 300.3385 274.7867 355.3002 29927.8457 -178.7592 -131.0512
ENERGY: 1500000 1.0396 1.8245 3.6115 0.0000 -10768.9396 1536.3349 0.0000 0.0000 1720.3658 -7505.7633 294.1150 -9226.1290 -7459.2317 299.6978 603.0272 725.1312 30270.5158 -160.6585 -110.9014
TCL: Running FEP window  15: Lambda1 0.29999999999999966 Lambda2 0.24999999999999967 [dLambda -0.04999999999999999]
TCL: Setting parameter firsttimestep to 0
TCL: Setting parameter alchLambda to 0.29999999999999966
Info: NONBONDED TABLE R-SQUARED SPACING: 0.0625
Info: NONBONDED TABLE SIZE: 705 POINTS
TCL: Setting parameter alchLambda2 to 0.24999999999999967
Info: NONBONDED TABLE R-SQUARED SPACING: 0.0625
Info: NONBONDED TABLE SIZE: 705 POINTS
TCL: Running for 1500000 steps
ETITLE: TS BOND ANGLE DIHED IMPRP ELECT VDW BOUNDARY MISC KINETIC TOTAL TEMP POTENTIAL TOTALAVG TEMPAVG PRESSURE GPRESSURE VOLUME PRESSAVG GPRESSAVG
ENERGY: 0 1.0396 1.8245 3.6115 0.0000 -10768.9401 1536.3336 0.0000 0.0000 1719.4975 -7506.6334 293.9665 -9226.1309 -7506.6334 293.9665 620.4646 720.9046 30270.5158 620.4646 720.9046
ENERGY: 300000 7.7269 3.8036 1.3499 0.0000 -10484.6441 1307.7492 0.0000 0.0000 1719.6444 -7444.3702 293.9916 -9164.0146 -7489.3847 296.8002 -1043.2130 -970.9627 30557.3281 7.0480 103.5147
ENERGY: 600000 2.9243 2.3541 2.2279 0.0000 -10722.2305 1439.9848 0.0000 0.0000 1754.8679 -7519.8716 300.0135 -9274.7394 -7514.4786 297.3523 -90.6632 -66.8748 29953.3664 -36.2874 27.7385
ENERGY: 900000 3.1478 2.7220 1.6751 0.0000 -10667.6447 1440.0501 0.0000 0.0000 1804.4878 -7415.5618 308.4965 -9220.0496 -7502.4924 299.4754 111.0168 139.3875 30181.6770 -81.1467 -25.5609
ENERGY: 1200000 5.2547 2.2714 8.7387 0.0000 -10663.2655 1465.2489 0.0000 0.0000 1806.0163 -7375.7355 308.7579 -9181.7519 -7486.3272 300.6313 298.6767 337.8462 30169.0164 9.0219 57.3028
ENERGY: 1500000 2.0996 4.8663 1.4537 0.0000 -10622.4284 1388.2192 0.0000 0.0000 1756.7764 -7469.0132 300.3398 -9225.7896 -7487.2853 299.2252 -500.5444 -469.1465 30596.2191 25.9028 71.4834
TCL: Running FEP window  16: Lambda1 0.24999999999999967 Lambda2 0.19999999999999968 [dLambda -0.04999999999999999]
TCL: Setting parameter firsttimestep to 0
TCL: Setting parameter alchLambda to 0.24999999999999967
Info: NONBONDED TABLE R-SQUARED SPACING: 0.0625
Info: NONBONDED TABLE SIZE: 705 POINTS
TCL: Setting parameter alchLambda2 to 0.19999999999999968
Info: NONBONDED TABLE R-SQUARED SPACING: 0.0625
Info: NONBONDED TABLE SIZE: 705 POINTS
TCL: Running for 1500000 steps
ETITLE: TS BOND ANGLE DIHED IMPRP ELECT VDW BOUNDARY MISC KINETIC TOTAL TEMP POTENTIAL TOTALAVG TEMPAVG PRESSURE GPRESSURE VOLUME PRESSAVG GPRESSAVG
ENERGY: 0 2.0996 4.8663 1.4537 0.0000 -10622.4292 1388.7422 0.0000 0.0000 1755.8866 -7469.3809 300.1876 -9225.2674 -7469.3809 300.1876 -556.4080 -471.1181 30596.2191 -556.4080 -471.1181
ENERGY: 300000 4.3862 2.1180 1.8845 0.0000 -10561.8659 1397.1857 0.0000 0.0000 1812.2736 -7344.0178 309.8276 -9156.2914 -7437.5629 302.0386 -133.2638 -117.2754 30243.2361 -111.0671 -64.0496
ENERGY: 600000 2.3899 3.2330 8.3247 0.0000 -10599.3091 1359.9945 0.0000 0.0000 1757.8625 -7467.5045 300.5254 -9225.3670 -7452.5563 302.1612 -591.6622 -465.7642 30078.2670 -254.7190 -185.0481
ENERGY: 900000 1.1270 4.0980 4.1487 0.0000 -10716.1941 1409.9220 0.0000 0.0000 1734.5303 -7562.3681 296.5365 -9296.8983 -7480.4458 299.4005 -413.2127 -371.7219 30230.2899 -124.9001 -51.7710
ENERGY: 1200000 2.6260 2.7727 4.7890 0.0000 -10590.2621 1408.8797 0.0000 0.0000 1784.1696 -7387.0253 305.0229 -9171.1948 -7463.3078 299.3021 -224.3006 -221.6443 30515.9935 -210.8494 -143.4276
ENERGY: 1500000 4.8921 3.0995 3.6912 0.0000 -10670.0408 1455.6403 0.0000 0.0000 1744.3417 -7458.3760 298.2139 -9202.7177 -7457.0589 298.6074 223.1006 326.0890 29890.8546 -157.0651 -85.5195
TCL: Running FEP window  17: Lambda1 0.19999999999999968 Lambda2 0.1499999999999997 [dLambda -0.04999999999999999]
TCL: Setting parameter firsttimestep to 0
TCL: Setting parameter alchLambda to 0.19999999999999968
Info: NONBONDED TABLE R-SQUARED SPACING: 0.0625
Info: NONBONDED TABLE SIZE: 705 POINTS
TCL: Setting parameter alchLambda2 to 0.1499999999999997
Info: NONBONDED TABLE R-SQUARED SPACING: 0.0625
Info: NONBONDED TABLE SIZE: 705 POINTS
TCL: Running for 1500000 steps
ETITLE: TS BOND ANGLE DIHED IMPRP ELECT VDW BOUNDARY MISC KINETIC TOTAL TEMP POTENTIAL TOTALAVG TEMPAVG PRESSURE GPRESSURE VOLUME PRESSAVG GPRESSAVG
ENERGY: 0 4.8921 3.0995 3.6912 0.0000 -10670.0410 1455.6592 0.0000 0.0000 1743.4653 -7459.2336 298.0641 -9202.6990 -7459.2336 298.0641 228.2209 323.8648 29890.8546 228.2209 323.8648
ENERGY: 300000 1.5469 1.6519 3.4173 0.0000 -10809.5288 1511.1403 0.0000 0.0000 1712.2886 -7579.4839 292.7341 -9291.7725 -7466.4307 299.9708 492.7100 575.2077 29980.3995 -86.2715 -9.5239
ENERGY: 600000 3.3576 3.2647 2.9698 0.0000 -10540.9083 1335.2543 0.0000 0.0000 1727.4345 -7468.6275 295.3235 -9196.0620 -7453.8659 299.0854 -976.6052 -898.2572 30723.4247 -182.4778 -101.5824
ENERGY: 900000 4.3333 1.2641 2.5179 0.0000 -10848.6420 1530.4066 0.0000 0.0000 1722.8918 -7587.2282 294.5468 -9310.1200 -7474.4198 297.7714 329.4118 389.3603 30313.3658 -165.3517 -82.6120
ENERGY: 1200000 1.7896 2.3582 4.3583 0.0000 -10723.4473 1496.9458 0.0000 0.0000 1716.3687 -7501.6266 293.4316 -9217.9953 -7479.7691 296.8437 414.3799 447.7073 30459.5682 -87.9503 -10.1877
ENERGY: 1500000 1.1428 4.0990 2.3718 0.0000 -10608.7546 1417.6009 0.0000 0.0000 1793.6770 -7389.8631 306.6483 -9183.5400 -7470.1122 297.7515 -188.2559 -112.6142 30387.4155 -127.2725 -45.6997
TCL: Running FEP window  18: Lambda1 0.1499999999999997 Lambda2 0.09999999999999969 [dLambda -0.05 ]
TCL: Setting parameter firsttimestep to 0
TCL: Setting parameter alchLambda to 0.1499999999999997
Info: NONBONDED TABLE R-SQUARED SPACING: 0.0625
Info: NONBONDED TABLE SIZE: 705 POINTS
TCL: Setting parameter alchLambda2 to 0.09999999999999969
Info: NONBONDED TABLE R-SQUARED SPACING: 0.0625
Info: NONBONDED TABLE SIZE: 705 POINTS
TCL: Running for 1500000 steps
ETITLE: TS BOND ANGLE DIHED IMPRP ELECT VDW BOUNDARY MISC KINETIC TOTAL TEMP POTENTIAL TOTALAVG TEMPAVG PRESSURE GPRESSURE VOLUME PRESSAVG GPRESSAVG
ENERGY: 0 1.1428 4.0990 2.3718 0.0000 -10608.7557 1417.8380 0.0000 0.0000 1792.7819 -7390.5222 306.4953 -9183.3041 -7390.5222 306.4953 -189.3519 -114.3632 30387.4155 -189.3519 -114.3632
ENERGY: 300000 2.1734 3.1624 1.0390 0.0000 -10755.3286 1480.8038 0.0000 0.0000 1755.9616 -7512.1884 300.2005 -9268.1500 -7437.2877 302.7368 84.6687 127.3091 30491.4398 -267.3415 -200.8374
ENERGY: 600000 2.8891 2.6312 2.2944 0.0000 -10586.5042 1302.6946 0.0000 0.0000 1759.0680 -7516.9270 300.7315 -9275.9949 -7453.3739 301.6393 -1355.4737 -1291.2765 30543.3733 -438.4280 -361.7913
ENERGY: 900000 1.3481 2.2615 2.4220 0.0000 -10646.9940 1466.6177 0.0000 0.0000 1710.3513 -7463.9934 292.4029 -9174.3447 -7461.8043 300.7187 174.5872 276.0725 30493.9939 -312.6162 -243.8217
ENERGY: 1200000 2.3009 3.8377 1.9369 0.0000 -10514.7675 1375.3243 0.0000 0.0000 1780.9131 -7350.4546 304.4662 -9131.3677 -7460.2085 300.3610 -457.4664 -391.1197 30873.9571 -217.7419 -151.4511
ENERGY: 1500000 1.2526 1.6831 3.3826 0.0000 -10593.0111 1385.9714 0.0000 0.0000 1744.0353 -7456.6862 298.1615 -9200.7214 -7457.8856 299.1176 -459.6145 -376.2130 30268.0937 -201.0379 -127.6807
TCL: Running FEP window  19: Lambda1 0.09999999999999969 Lambda2 0.049999999999999684 [dLambda -0.05 ]
TCL: Setting parameter firsttimestep to 0
TCL: Setting parameter alchLambda to 0.09999999999999969
Info: NONBONDED TABLE R-SQUARED SPACING: 0.0625
Info: NONBONDED TABLE SIZE: 705 POINTS
TCL: Setting parameter alchLambda2 to 0.049999999999999684
Info: NONBONDED TABLE R-SQUARED SPACING: 0.0625
Info: NONBONDED TABLE SIZE: 705 POINTS
TCL: Running for 1500000 steps
ETITLE: TS BOND ANGLE DIHED IMPRP ELECT VDW BOUNDARY MISC KINETIC TOTAL TEMP POTENTIAL TOTALAVG TEMPAVG PRESSURE GPRESSURE VOLUME PRESSAVG GPRESSAVG
ENERGY: 0 1.2526 1.6831 3.3826 0.0000 -10593.0112 1386.0789 0.0000 0.0000 1743.1428 -7457.4712 298.0090 -9200.6140 -7457.4712 298.0090 -473.0169 -380.4624 30268.0937 -473.0169 -380.4624
ENERGY: 300000 3.6109 2.3294 3.1328 0.0000 -10832.2025 1489.7655 0.0000 0.0000 1733.6323 -7599.7316 296.3830 -9333.3639 -7470.7232 298.2310 399.3526 365.9091 29834.7523 306.9992 336.5802
ENERGY: 600000 1.9030 2.9310 4.2496 0.0000 -10683.3416 1485.3490 0.0000 0.0000 1784.9374 -7403.9716 305.1542 -9188.9089 -7448.9920 297.8332 472.0321 517.8245 30420.3164 212.4298 258.0283
ENERGY: 900000 1.8562 3.9743 2.3202 0.0000 -10702.0858 1498.4430 0.0000 0.0000 1728.0095 -7467.4826 295.4218 -9195.4921 -7461.4347 297.6076 321.7988 465.1345 30147.9524 123.2924 174.6094
ENERGY: 1200000 4.2304 2.5415 3.6732 0.0000 -10732.9994 1502.2206 0.0000 0.0000 1785.2980 -7435.0357 305.2158 -9220.3337 -7453.8541 299.9978 581.4264 630.4713 29923.2342 143.0972 193.4027
ENERGY: 1500000 0.7106 1.7688 2.1763 0.0000 -10727.6222 1477.1408 0.0000 0.0000 1741.0889 -7504.7368 297.6578 -9245.8257 -7456.5395 299.7392 302.2059 375.7274 29951.1153 184.6870 241.5962
TCL: Running FEP window  20: Lambda1 0.049999999999999684 Lambda2 0.0    [dLambda -0.049999999999999684]
TCL: Setting parameter firsttimestep to 0
TCL: Setting parameter alchLambda to 0.049999999999999684
Info: NONBONDED TABLE R-SQUARED SPACING: 0.0625
Info: NONBONDED TABLE SIZE: 705 POINTS
TCL: Setting parameter alchLambda2 to 0.0
Info: NONBONDED TABLE R-SQUARED SPACING: 0.0625
Info: NONBONDED TABLE SIZE: 705 POINTS
TCL: Running for 1500000 steps
ETITLE: TS BOND ANGLE DIHED IMPRP ELECT VDW BOUNDARY MISC KINETIC TOTAL TEMP POTENTIAL TOTALAVG TEMPAVG PRESSURE GPRESSURE VOLUME PRESSAVG GPRESSAVG
ENERGY: 0 0.7106 1.7688 2.1763 0.0000 -10727.6227 1477.2698 0.0000 0.0000 1740.2126 -7505.4845 297.5080 -9245.6972 -7505.4845 297.5080 291.3608 373.2659 29951.1153 291.3608 373.2659
ENERGY: 300000 3.7440 2.1297 2.5919 0.0000 -10699.8373 1403.1858 0.0000 0.0000 1735.2676 -7552.9185 296.6626 -9288.1860 -7494.2718 300.1270 -582.8097 -608.7998 30248.0850 352.0850 404.6181
ENERGY: 600000 3.0122 2.2579 1.6850 0.0000 -10688.9733 1485.0373 0.0000 0.0000 1726.4546 -7470.5264 295.1559 -9196.9809 -7493.9524 297.6772 220.8667 287.1256 30138.9811 107.8694 176.5307
ENERGY: 900000 3.6444 5.3417 3.1561 0.0000 -10621.8253 1416.4221 0.0000 0.0000 1751.0702 -7442.1908 299.3642 -9193.2610 -7496.1130 297.0604 -364.6427 -255.6064 30607.5547 -27.4505 51.9524
ENERGY: 1200000 2.4845 3.3293 3.0026 0.0000 -10611.8716 1365.7795 0.0000 0.0000 1717.1896 -7520.0860 293.5720 -9237.2756 -7487.6282 297.5722 -234.4669 -150.7838 29415.5815 -110.4214 -34.1232
ENERGY: 1500000 2.5038 3.8981 4.2317 0.0000 -10663.9146 1476.1218 0.0000 0.0000 1743.5919 -7433.5675 298.0857 -9177.1594 -7480.9676 298.3292 280.8629 404.3531 29970.9920 -53.2513 26.7444
TCL: Exiting due to exit command.
