Info: SIMULATION PARAMETERS:
Info: TIMESTEP               2
Info: NUMBER OF STEPS        0
Info: STEPS PER CYCLE        10
Info: PERIODIC CELL BASIS 1  30.8695 0 0
Info: PERIODIC CELL BASIS 2  0 31.0961 0
Info: PERIODIC CELL BASIS 3  0 0 31.4285
Info: PERIODIC CELL CENTER   0 0 0
Info: WRAPPING WATERS AROUND PERIODIC BOUNDARIES ON OUTPUT.
Info: WRAPPING ALL CLUSTERS AROUND PERIODIC BOUNDARIES ON OUTPUT.
Info: FIRST LDB TIMESTEP     50
Info: LAST LDB TIMESTEP     -1
Info: HOM BACKGROUND SCALING 1
Info: PME BACKGROUND SCALING 1
Info: MIN ATOMS PER PATCH    40
Info: EMPTY PATCH LOAD       40 ATOMS
Info: VELOCITY FILE          mobley_9029594_equil.vel
Info: CENTER OF MASS MOVING INITIALLY? NO
Info: DIELECTRIC             1
Info: EXCLUDE                SCALED ONE-FOUR
Info: 1-4 ELECTROSTATICS SCALED BY 0.833333
Info: MODIFIED 1-4 VDW PARAMETERS WILL BE USED
Info: DCD FILENAME           mobley_9029594_prod.dcd
Info: DCD FREQUENCY          100000
Info: DCD FIRST STEP         100000
Info: DCD FILE WILL CONTAIN UNIT CELL DATA
Info: XST FILENAME           mobley_9029594_prod.xst
Info: XST FREQUENCY          100000
Info: NO VELOCITY DCD OUTPUT
Info: NO FORCE DCD OUTPUT
Info: OUTPUT FILENAME        mobley_9029594_prod
Info: BINARY OUTPUT FILES WILL BE USED
Info: RESTART FILENAME       mobley_9029594_prod.restart
Info: RESTART FREQUENCY      100000
Info: BINARY RESTART FILES WILL BE USED
Info: CUTOFF                 9
Info: PAIRLIST DISTANCE      11
Info: PAIRLIST SHRINK RATE   0.01
Info: PAIRLIST GROW RATE     0.01
Info: PAIRLIST TRIGGER       0.3
Info: PAIRLISTS PER CYCLE    2
Info: PAIRLISTS ENABLED
Info: MARGIN                 2
Info: HYDROGEN GROUP CUTOFF  2.5
Info: PATCH DIMENSION        15.5
Info: ENERGY OUTPUT STEPS    100000
Info: ENERGY EVALUATION STEPS    100000
Info: OUTPUT ENERGY PRECISION 4
Info: CROSSTERM ENERGY INCLUDED IN DIHEDRAL
Info: TIMING OUTPUT STEPS    1000000
Info: PRESSURE OUTPUT STEPS  100000
Info: ALCHEMICAL FEP ON
Info: FEP CURRENT LAMBDA VALUE     1
Info: FEP COMPARISON LAMBDA VALUE  0.95
Info: FEP INTRA-ALCHEMICAL NON-BONDED INTERACTIONS WILL BE RETAINED
Info: FEP INTRA-ALCHEMICAL BONDED INTERACTIONS WILL BE RETAINED
Info: FEP VDW SHIFTING COEFFICIENT 5
Info: FEP ELEC. ACTIVE FOR ANNIHILATED PARTICLES BETWEEN LAMBDA = 0 AND LAMBDA = 0.5
Info: FEP ELEC. ACTIVE FOR EXNIHILATED PARTICLES BETWEEN LAMBDA = 0.5 AND LAMBDA = 1
Info: FEP VDW ACTIVE FOR ANNIHILATED PARTICLES BETWEEN LAMBDA = 0 AND LAMBDA = 1
Info: FEP VDW ACTIVE FOR EXNIHILATED PARTICLES BETWEEN LAMBDA = 0 AND LAMBDA = 1
Info: FEP BOND ACTIVE FOR ANNIHILATED PARTICLES BETWEEN LAMBDA = 1 AND LAMBDA = 1
Info: FEP BOND ACTIVE FOR EXNIHILATED PARTICLES BETWEEN LAMBDA = 0 AND LAMBDA = 0
Info: LANGEVIN DYNAMICS ACTIVE
Info: LANGEVIN TEMPERATURE   300
Info: LANGEVIN USING BBK INTEGRATOR
Info: LANGEVIN DAMPING COEFFICIENT IS 1 INVERSE PS
Info: LANGEVIN DYNAMICS APPLIED TO HYDROGENS
Info: LANGEVIN PISTON PRESSURE CONTROL ACTIVE
Info:        TARGET PRESSURE IS 1.01325 BAR
Info:     OSCILLATION PERIOD IS 50 FS
Info:             DECAY TIME IS 25 FS
Info:     PISTON TEMPERATURE IS 300 K
Info:       PRESSURE CONTROL IS GROUP-BASED
Info:    INITIAL STRAIN RATE IS 0.000256539 0.000256539 0.000256539
Info:       CELL FLUCTUATION IS ISOTROPIC
Info: PARTICLE MESH EWALD (PME) ACTIVE
Info: PME TOLERANCE               1e-06
Info: PME EWALD COEFFICIENT       0.348832
Info: PME INTERPOLATION ORDER     4
Info: PME GRID DIMENSIONS         32 32 32
Info: PME MAXIMUM GRID SPACING    1
Info: PME CALCULATION WILL BE PERFORMED ON GPU
Info: FULL ELECTROSTATIC EVALUATION FREQUENCY      2
Info: USING VERLET I (r-RESPA) MTS SCHEME.
Info: C1 SPLITTING OF LONG RANGE ELECTROSTATICS
Info: PLACING ATOMS IN PATCHES BY HYDROGEN GROUPS
Info: RIGID BONDS TO HYDROGEN : ALL
Info:         ERROR TOLERANCE : 1e-08
Info:          MAX ITERATIONS : 100
Info: RIGID WATER USING SETTLE ALGORITHM
Info: RANDOM NUMBER SEED     1742485452
Info: USE HYDROGEN BONDS?    NO
Info: Using AMBER format force field!
Info: AMBER PARM FILE        mobley_9029594.prmtop
Info: COORDINATE PDB         mobley_9029594.pdb
Info: Exclusions will be read from PARM file!
Info: SCNB (VDW SCALING)     2
Info: USING ARITHMETIC MEAN TO COMBINE L-J SIGMA PARAMETERS
Info: BINARY COORDINATES     mobley_9029594_equil.coor
Info: SUMMARY OF PARAMETERS:
Info: 4 BONDS
Info: 2 ANGLES
Info:   2 HARMONIC
Info:   0 COSINE-BASED
Info: 0 DIHEDRAL
Info: 0 IMPROPER
Info: 0 CROSSTERM
Info: 0 VDW
Info: 15 VDW_PAIRS
Info: 0 NBTHOLE_PAIRS
Info: To read alchdata from file: mobley_9029594.pdb
Info: To read alchflag data from column: 5
Info: STRUCTURE SUMMARY:
Info: 2963 ATOMS
Info: 2962 BONDS
Info: 6 ANGLES
Info: 0 DIHEDRALS
Info: 0 IMPROPERS
Info: 0 CROSSTERMS
Info: 2968 EXCLUSIONS
Info: 2961 RIGID BONDS
Info: ALCH: 0 ATOMS TO DISAPPEAR IN FINAL STATE
Info: ALCH: 5 ATOMS TO APPEAR IN FINAL STATE
Info: 5928 DEGREES OF FREEDOM
Info: 988 HYDROGEN GROUPS
Info: 4 ATOMS IN LARGEST HYDROGEN GROUP
Info: 988 MIGRATION GROUPS
Info: 4 ATOMS IN LARGEST MIGRATION GROUP
Info: TOTAL MASS = 17797.8 amu
Info: TOTAL CHARGE = 7.45058e-09 e
Info: MASS DENSITY = 0.979638 g/cm^3
Info: ATOM DENSITY = 0.0982136 atoms/A^3
Info: ADDED 0 IMPLICIT EXCLUSIONS
Info: NONBONDED TABLE R-SQUARED SPACING: 0.0625
Info: NONBONDED TABLE SIZE: 705 POINTS
Info: REMOVING COM VELOCITY -0.0519339 0.10148 -0.0122691
Info: Use 3D box decompostion in PME FFT.
Info: Updated CUDA force table with 4096 elements.
Info: Updated CUDA LJ table with 5 x 5 elements.
Info: Found 8 unique exclusion lists needing 8 bytes
TCL: Running for 1500000 steps
ETITLE: TS BOND ANGLE DIHED IMPRP ELECT VDW BOUNDARY MISC KINETIC TOTAL TEMP POTENTIAL TOTALAVG TEMPAVG PRESSURE GPRESSURE VOLUME PRESSAVG GPRESSAVG
ENERGY: 0 0.0631 0.8785 0.0000 0.0000 -10823.3178 1451.7279 0.0000 0.0000 1809.3029 -7561.3455 307.1804 -9370.6484 -7561.3455 307.1804 -7.1804 68.1038 30168.9439 -7.1804 68.1038
ENERGY: 300000 0.2989 1.3720 0.0000 0.0000 -10708.1658 1397.0936 0.0000 0.0000 1761.8290 -7547.5723 299.1203 -9309.4013 -7584.6735 298.3263 -227.4285 -174.7527 30299.6126 106.0205 174.6549
ENERGY: 600000 0.1082 0.8874 0.0000 0.0000 -10710.7801 1414.2286 0.0000 0.0000 1746.2075 -7549.3484 296.4682 -9295.5560 -7557.2332 297.3547 -73.7929 -32.4419 30367.8864 86.7226 141.6628
ENERGY: 900000 0.9924 1.0630 0.0000 0.0000 -10710.0348 1439.9999 0.0000 0.0000 1735.0058 -7532.9737 294.5663 -9267.9795 -7544.2455 299.0054 -228.1892 -154.5641 30734.3993 63.0561 120.1042
ENERGY: 1200000 1.3457 1.7423 0.0000 0.0000 -10852.5580 1432.7949 0.0000 0.0000 1733.0276 -7683.6474 294.2305 -9416.6751 -7555.3266 299.3075 -306.7210 -225.2868 30147.0530 45.0930 104.4363
ENERGY: 1500000 1.0463 3.0695 0.0000 0.0000 -10810.1945 1427.0533 0.0000 0.0000 1767.8870 -7611.1384 300.1489 -9379.0254 -7551.2989 300.2606 -293.6070 -300.3396 30765.9518 38.4350 88.5686
TCL: Running FEP window   2: Lambda1 0.95   Lambda2 0.8999999999999999 [dLambda -0.050000000000000044]
TCL: Setting parameter firsttimestep to 0
TCL: Setting parameter alchLambda to 0.95
Info: NONBONDED TABLE R-SQUARED SPACING: 0.0625
Info: NONBONDED TABLE SIZE: 705 POINTS
TCL: Setting parameter alchLambda2 to 0.8999999999999999
Info: NONBONDED TABLE R-SQUARED SPACING: 0.0625
Info: NONBONDED TABLE SIZE: 705 POINTS
TCL: Running for 1500000 steps
ETITLE: TS BOND ANGLE DIHED IMPRP ELECT VDW BOUNDARY MISC KINETIC TOTAL TEMP POTENTIAL TOTALAVG TEMPAVG PRESSURE GPRESSURE VOLUME PRESSAVG GPRESSAVG
ENERGY: 0 1.0463 3.0695 0.0000 0.0000 -10809.8511 1426.9608 0.0000 0.0000 1766.9670 -7611.8075 299.9927 -9378.7745 -7611.8075 299.9927 -370.5543 -302.1206 30765.9518 -370.5543 -302.1206
ENERGY: 300000 0.0024 1.0885 0.0000 0.0000 -10685.9898 1408.2416 0.0000 0.0000 1784.2390 -7492.4184 302.9251 -9276.6573 -7570.1489 300.1077 -80.1109 -33.1805 30682.2384 -48.7083 43.7080
ENERGY: 600000 1.8622 1.0782 0.0000 0.0000 -10740.2841 1446.1826 0.0000 0.0000 1735.1112 -7556.0499 294.5842 -9291.1611 -7571.4742 299.6484 183.2483 263.2058 30573.8449 -9.5226 67.2939
ENERGY: 900000 0.1538 3.0393 0.0000 0.0000 -10692.6035 1375.4848 0.0000 0.0000 1690.6878 -7623.2377 287.0421 -9313.9255 -7571.9119 299.7209 -821.1121 -775.0010 31024.4566 -170.0188 -103.9763
ENERGY: 1200000 0.2040 1.8441 0.0000 0.0000 -10738.1164 1472.8047 0.0000 0.0000 1782.4489 -7480.8148 302.6211 -9263.2636 -7569.0883 299.6054 268.5958 355.7172 30726.5886 -82.1225 -13.3312
ENERGY: 1500000 0.2191 2.6291 0.0000 0.0000 -10920.4556 1530.1625 0.0000 0.0000 1747.7674 -7639.6776 296.7330 -9387.4450 -7579.3471 298.0119 285.1155 346.2419 30349.3394 -82.2881 -10.9913
TCL: Running FEP window   3: Lambda1 0.8999999999999999 Lambda2 0.8499999999999999 [dLambda -0.050000000000000044]
TCL: Setting parameter firsttimestep to 0
TCL: Setting parameter alchLambda to 0.8999999999999999
Info: NONBONDED TABLE R-SQUARED SPACING: 0.0625
Info: NONBONDED TABLE SIZE: 705 POINTS
TCL: Setting parameter alchLambda2 to 0.8499999999999999
Info: NONBONDED TABLE R-SQUARED SPACING: 0.0625
Info: NONBONDED TABLE SIZE: 705 POINTS
TCL: Running for 1500000 steps
ETITLE: TS BOND ANGLE DIHED IMPRP ELECT VDW BOUNDARY MISC KINETIC TOTAL TEMP POTENTIAL TOTALAVG TEMPAVG PRESSURE GPRESSURE VOLUME PRESSAVG GPRESSAVG
ENERGY: 0 0.2191 2.6291 0.0000 0.0000 -10919.8232 1530.1440 0.0000 0.0000 1746.8803 -7639.9508 296.5824 -9386.8311 -7639.9508 296.5824 266.9188 343.0256 30349.3394 266.9188 343.0256
ENERGY: 300000 0.3879 1.0439 0.0000 0.0000 -10597.3048 1348.8368 0.0000 0.0000 1727.5127 -7519.5235 293.2942 -9247.0362 -7583.8141 299.3428 -608.3459 -620.8786 30703.3370 -185.1042 -137.0294
ENERGY: 600000 0.1285 0.4396 0.0000 0.0000 -10856.6073 1505.2591 0.0000 0.0000 1818.5004 -7532.2796 308.7419 -9350.7801 -7574.0137 300.8155 381.9378 422.2488 30487.6755 62.2337 115.8411
ENERGY: 900000 0.1116 0.9739 0.0000 0.0000 -10725.5190 1440.3453 0.0000 0.0000 1770.4784 -7513.6099 300.5888 -9284.0882 -7576.3029 299.4634 60.9689 128.0174 30332.9783 -105.7520 -37.1507
ENERGY: 1200000 0.1971 4.1865 0.0000 0.0000 -10818.7038 1500.7190 0.0000 0.0000 1800.8908 -7512.7104 305.7522 -9313.6012 -7562.9226 300.6613 379.9610 505.6670 30272.7362 -29.9839 44.9189
ENERGY: 1500000 0.0432 5.2918 0.0000 0.0000 -10910.2862 1494.9930 0.0000 0.0000 1821.5262 -7588.4320 309.2556 -9409.9582 -7559.8479 300.9360 9.7332 87.3349 30776.5439 9.8036 80.1813
TCL: Running FEP window   4: Lambda1 0.8499999999999999 Lambda2 0.7999999999999998 [dLambda -0.050000000000000044]
TCL: Setting parameter firsttimestep to 0
TCL: Setting parameter alchLambda to 0.8499999999999999
Info: NONBONDED TABLE R-SQUARED SPACING: 0.0625
Info: NONBONDED TABLE SIZE: 705 POINTS
TCL: Setting parameter alchLambda2 to 0.7999999999999998
Info: NONBONDED TABLE R-SQUARED SPACING: 0.0625
Info: NONBONDED TABLE SIZE: 705 POINTS
TCL: Running for 1500000 steps
ETITLE: TS BOND ANGLE DIHED IMPRP ELECT VDW BOUNDARY MISC KINETIC TOTAL TEMP POTENTIAL TOTALAVG TEMPAVG PRESSURE GPRESSURE VOLUME PRESSAVG GPRESSAVG
ENERGY: 0 0.0432 5.2918 0.0000 0.0000 -10909.9891 1495.2093 0.0000 0.0000 1820.6464 -7588.7985 309.1063 -9409.4448 -7588.7985 309.1063 5.5449 86.5527 30776.5439 5.5449 86.5527
ENERGY: 300000 0.7473 1.4053 0.0000 0.0000 -10948.3923 1591.6671 0.0000 0.0000 1774.1609 -7580.4116 301.2140 -9354.5725 -7568.8752 301.6809 1109.5488 1115.2600 30290.1851 56.0602 114.0309
ENERGY: 600000 0.0333 2.8296 0.0000 0.0000 -10844.7827 1516.5632 0.0000 0.0000 1772.9031 -7552.4534 301.0005 -9325.3565 -7565.4986 303.7962 625.4622 629.9065 30305.8196 207.9900 262.7048
ENERGY: 900000 0.0823 2.8749 0.0000 0.0000 -10768.1825 1468.1768 0.0000 0.0000 1747.2036 -7549.8450 296.6373 -9297.0485 -7556.8037 302.7565 107.3501 161.8983 30595.6268 129.9979 185.2476
ENERGY: 1200000 0.0002 0.3594 0.0000 0.0000 -10745.8616 1424.7000 0.0000 0.0000 1754.0408 -7566.7612 297.7981 -9320.8020 -7554.9769 302.4247 -322.5497 -226.0495 30797.9705 -15.0876 46.8963
ENERGY: 1500000 0.1328 1.4265 0.0000 0.0000 -10668.7366 1378.0456 0.0000 0.0000 1818.2430 -7470.8888 308.6982 -9289.1317 -7546.9003 302.8943 -518.4343 -433.2920 30589.8075 -37.5195 24.7428
TCL: Running FEP window   5: Lambda1 0.7999999999999998 Lambda2 0.7499999999999998 [dLambda -0.050000000000000044]
TCL: Setting parameter firsttimestep to 0
TCL: Setting parameter alchLambda to 0.7999999999999998
Info: NONBONDED TABLE R-SQUARED SPACING: 0.0625
Info: NONBONDED TABLE SIZE: 705 POINTS
TCL: Setting parameter alchLambda2 to 0.7499999999999998
Info: NONBONDED TABLE R-SQUARED SPACING: 0.0625
Info: NONBONDED TABLE SIZE: 705 POINTS
TCL: Running for 1500000 steps
ETITLE: TS BOND ANGLE DIHED IMPRP ELECT VDW BOUNDARY MISC KINETIC TOTAL TEMP POTENTIAL TOTALAVG TEMPAVG PRESSURE GPRESSURE VOLUME PRESSAVG GPRESSAVG
ENERGY: 0 0.1328 1.4265 0.0000 0.0000 -10668.2447 1377.8435 0.0000 0.0000 1817.3644 -7471.4775 308.5490 -9288.8419 -7471.4775 308.5490 -537.4508 -441.2660 30589.8075 -537.4508 -441.2660
ENERGY: 300000 0.2789 2.1121 0.0000 0.0000 -10622.9446 1356.5316 0.0000 0.0000 1717.3458 -7546.6763 291.5680 -9264.0221 -7531.6045 299.0445 -746.9931 -652.6101 30725.1246 -261.5762 -195.9052
ENERGY: 600000 2.5259 2.3846 0.0000 0.0000 -10747.5276 1472.9673 0.0000 0.0000 1798.8761 -7470.7736 305.4101 -9269.6498 -7532.7574 299.3813 431.0115 405.2222 30540.6229 -89.0858 -40.7476
ENERGY: 900000 0.0045 1.3393 0.0000 0.0000 -10749.9712 1493.0179 0.0000 0.0000 1773.5475 -7482.0620 301.1099 -9255.6095 -7547.2200 299.4491 617.3527 581.8009 30559.5845 -132.0299 -88.3193
ENERGY: 1200000 0.0471 1.3709 0.0000 0.0000 -10829.7092 1441.6083 0.0000 0.0000 1733.1249 -7653.5579 294.2470 -9386.6828 -7559.2603 298.5004 -112.5971 -34.9241 29977.7032 -92.4958 -38.5389
ENERGY: 1500000 0.0064 0.3420 0.0000 0.0000 -10746.5564 1445.8563 0.0000 0.0000 1716.5233 -7583.8285 291.4284 -9300.3518 -7569.1267 298.1366 -35.5751 -25.3518 30608.2035 -62.9250 -13.4392
TCL: Running FEP window   6: Lambda1 0.7499999999999998 Lambda2 0.6999999999999997 [dLambda -0.050000000000000044]
TCL: Setting parameter firsttimestep to 0
TCL: Setting parameter alchLambda to 0.7499999999999998
Info: NONBONDED TABLE R-SQUARED SPACING: 0.0625
Info: NONBONDED TABLE SIZE: 705 POINTS
TCL: Setting parameter alchLambda2 to 0.6999999999999997
Info: NONBONDED TABLE R-SQUARED SPACING: 0.0625
Info: NONBONDED TABLE SIZE: 705 POINTS
TCL: Running for 1500000 steps
ETITLE: TS BOND ANGLE DIHED IMPRP ELECT VDW BOUNDARY MISC KINETIC TOTAL TEMP POTENTIAL TOTALAVG TEMPAVG PRESSURE GPRESSURE VOLUME PRESSAVG GPRESSAVG
ENERGY: 0 0.0064 0.3420 0.0000 0.0000 -10746.0555 1445.8622 0.0000 0.0000 1715.6483 -7584.1966 291.2799 -9299.8450 -7584.1966 291.2799 -101.6311 -26.6707 30608.2035 -101.6311 -26.6707
ENERGY: 300000 0.3230 2.5194 0.0000 0.0000 -10756.6265 1459.1369 0.0000 0.0000 1757.1880 -7537.4591 298.3324 -9294.6472 -7547.0988 295.3746 -12.4792 64.6498 30784.5506 141.4275 177.4474
ENERGY: 600000 0.4896 5.5841 0.0000 0.0000 -10772.5266 1482.6940 0.0000 0.0000 1788.2520 -7495.5069 303.6064 -9283.7589 -7532.7431 299.7284 247.1713 294.0806 30652.8810 171.1435 206.3231
ENERGY: 900000 0.0916 0.9772 0.0000 0.0000 -10744.3349 1441.7452 0.0000 0.0000 1800.7610 -7500.7599 305.7302 -9301.5209 -7540.4992 299.3865 -63.2667 12.5836 30537.7326 158.1552 194.8932
ENERGY: 1200000 0.1159 2.0945 0.0000 0.0000 -10951.5315 1531.4191 0.0000 0.0000 1812.8868 -7605.0152 307.7888 -9417.9020 -7546.7035 299.6023 539.8561 574.8691 30253.4664 158.4842 194.3416
ENERGY: 1500000 0.0306 1.1888 0.0000 0.0000 -10758.9947 1381.8298 0.0000 0.0000 1760.1562 -7615.7892 298.8363 -9375.9455 -7553.3031 299.0236 -628.8814 -567.3279 30292.4474 134.3545 180.3396
TCL: Running FEP window   7: Lambda1 0.6999999999999997 Lambda2 0.6499999999999997 [dLambda -0.050000000000000044]
TCL: Setting parameter firsttimestep to 0
TCL: Setting parameter alchLambda to 0.6999999999999997
Info: NONBONDED TABLE R-SQUARED SPACING: 0.0625
Info: NONBONDED TABLE SIZE: 705 POINTS
TCL: Setting parameter alchLambda2 to 0.6499999999999997
Info: NONBONDED TABLE R-SQUARED SPACING: 0.0625
Info: NONBONDED TABLE SIZE: 705 POINTS
TCL: Running for 1500000 steps
ETITLE: TS BOND ANGLE DIHED IMPRP ELECT VDW BOUNDARY MISC KINETIC TOTAL TEMP POTENTIAL TOTALAVG TEMPAVG PRESSURE GPRESSURE VOLUME PRESSAVG GPRESSAVG
ENERGY: 0 0.0306 1.1888 0.0000 0.0000 -10758.9220 1382.0415 0.0000 0.0000 1759.3083 -7616.3527 298.6924 -9375.6610 -7616.3527 298.6924 -648.9148 -568.5575 30292.4474 -648.9148 -568.5575
ENERGY: 300000 0.1298 0.8772 0.0000 0.0000 -10816.7184 1467.9144 0.0000 0.0000 1814.0100 -7533.7870 307.9795 -9347.7970 -7567.1966 301.3659 228.9716 291.2569 30373.7472 -258.8145 -185.9531
ENERGY: 600000 2.0926 1.9106 0.0000 0.0000 -10646.3230 1400.4584 0.0000 0.0000 1750.9882 -7490.8731 297.2798 -9241.8613 -7523.2007 302.9078 -332.0691 -340.0891 30790.5126 -426.5236 -361.7657
ENERGY: 900000 0.4694 2.1366 0.0000 0.0000 -10968.1660 1573.8112 0.0000 0.0000 1854.9233 -7536.8253 314.9257 -9391.7487 -7542.8672 303.2508 593.5866 651.7540 30742.6061 -320.1851 -261.5050
ENERGY: 1200000 0.0844 1.7926 0.0000 0.0000 -10684.0164 1463.6796 0.0000 0.0000 1757.6297 -7460.8302 298.4074 -9218.4598 -7533.4619 302.4780 420.5256 544.3329 30289.8333 -283.3796 -218.1619
ENERGY: 1500000 0.3330 0.6783 0.0000 0.0000 -10860.1342 1496.8749 0.0000 0.0000 1767.3056 -7594.9423 300.0502 -9362.2479 -7543.0413 302.1386 427.9048 424.4405 30381.4367 -195.6850 -134.5362
TCL: Running FEP window   8: Lambda1 0.6499999999999997 Lambda2 0.5999999999999996 [dLambda -0.050000000000000044]
TCL: Setting parameter firsttimestep to 0
TCL: Setting parameter alchLambda to 0.6499999999999997
Info: NONBONDED TABLE R-SQUARED SPACING: 0.0625
Info: NONBONDED TABLE SIZE: 705 POINTS
TCL: Setting parameter alchLambda2 to 0.5999999999999996
Info: NONBONDED TABLE R-SQUARED SPACING: 0.0625
Info: NONBONDED TABLE SIZE: 705 POINTS
TCL: Running for 1500000 steps
ETITLE: TS BOND ANGLE DIHED IMPRP ELECT VDW BOUNDARY MISC KINETIC TOTAL TEMP POTENTIAL TOTALAVG TEMPAVG PRESSURE GPRESSURE VOLUME PRESSAVG GPRESSAVG
ENERGY: 0 0.3330 0.6783 0.0000 0.0000 -10860.0274 1496.9497 0.0000 0.0000 1766.4314 -7595.6349 299.9017 -9362.0663 -7595.6349 299.9017 341.0059 423.1488 30381.4367 341.0059 423.1488
ENERGY: 300000 0.1660 1.4945 0.0000 0.0000 -10601.1741 1423.1133 0.0000 0.0000 1726.6571 -7449.7431 293.1489 -9176.4003 -7529.8629 297.3126 120.0593 188.1406 30714.1010 308.8338 369.2577
ENERGY: 600000 0.0223 1.6026 0.0000 0.0000 -10765.3370 1397.2244 0.0000 0.0000 1747.6958 -7618.7919 296.7208 -9366.4877 -7546.9731 296.3143 -462.2247 -462.4262 30248.3054 227.5518 278.4323
ENERGY: 900000 0.1939 1.9063 0.0000 0.0000 -10753.1689 1445.3451 0.0000 0.0000 1738.7900 -7566.9336 295.2088 -9305.7236 -7554.1012 295.6705 50.9973 192.4439 30371.5584 149.5251 210.7445
ENERGY: 1200000 0.1966 2.3537 0.0000 0.0000 -10958.4192 1508.6643 0.0000 0.0000 1785.4825 -7661.7221 303.1362 -9447.2046 -7563.2071 298.0926 161.4767 275.7332 29990.9206 101.9239 161.6146
ENERGY: 1500000 0.5121 2.4260 0.0000 0.0000 -10940.2248 1544.0974 0.0000 0.0000 1775.8061 -7617.3832 301.4933 -9393.1893 -7563.4679 298.5421 734.9612 778.7149 29873.4467 22.6005 83.1507
TCL: Running FEP window   9: Lambda1 0.5999999999999996 Lambda2 0.5499999999999996 [dLambda -0.050000000000000044]
TCL: Setting parameter firsttimestep to 0
TCL: Setting parameter alchLambda to 0.5999999999999996
Info: NONBONDED TABLE R-SQUARED SPACING: 0.0625
Info: NONBONDED TABLE SIZE: 705 POINTS
TCL: Setting parameter alchLambda2 to 0.5499999999999996
Info: NONBONDED TABLE R-SQUARED SPACING: 0.0625
Info: NONBONDED TABLE SIZE: 705 POINTS
TCL: Running for 1500000 steps
ETITLE: TS BOND ANGLE DIHED IMPRP ELECT VDW BOUNDARY MISC KINETIC TOTAL TEMP POTENTIAL TOTALAVG TEMPAVG PRESSURE GPRESSURE VOLUME PRESSAVG GPRESSAVG
ENERGY: 0 0.5121 2.4260 0.0000 0.0000 -10940.2495 1544.1233 0.0000 0.0000 1774.9298 -7618.2582 301.3446 -9393.1880 -7618.2582 301.3446 689.6233 776.7103 29873.4467 689.6233 776.7103
ENERGY: 300000 0.1678 0.5241 0.0000 0.0000 -10726.3356 1426.8310 0.0000 0.0000 1795.7901 -7503.0225 304.8862 -9298.8126 -7486.9924 306.9956 -15.2556 80.5951 30158.1218 309.1385 386.5185
ENERGY: 600000 0.0995 1.8876 0.0000 0.0000 -10713.2339 1386.4171 0.0000 0.0000 1761.9092 -7562.9205 299.1340 -9324.8297 -7507.0525 302.1942 -305.2750 -288.9523 30233.6574 54.0098 121.8967
ENERGY: 900000 0.0444 2.0455 0.0000 0.0000 -10667.2329 1436.6045 0.0000 0.0000 1803.9936 -7424.5449 306.2790 -9228.5385 -7501.0941 301.8367 153.2007 259.6066 30351.9391 118.3876 188.1634
ENERGY: 1200000 0.3895 4.4464 0.0000 0.0000 -10726.4580 1389.0197 0.0000 0.0000 1788.0180 -7544.5844 303.5667 -9332.6024 -7515.2192 302.0763 -525.6889 -448.8867 30632.4386 36.2898 113.3085
ENERGY: 1500000 0.6523 0.5793 0.0000 0.0000 -10955.5887 1543.7024 0.0000 0.0000 1716.0410 -7694.6136 291.3465 -9410.6546 -7532.3333 300.8064 413.8656 484.0225 30321.2689 50.7485 120.7722
TCL: Running FEP window  10: Lambda1 0.5499999999999996 Lambda2 0.4999999999999996 [dLambda -0.04999999999999999]
TCL: Setting parameter firsttimestep to 0
TCL: Setting parameter alchLambda to 0.5499999999999996
Info: NONBONDED TABLE R-SQUARED SPACING: 0.0625
Info: NONBONDED TABLE SIZE: 705 POINTS
TCL: Setting parameter alchLambda2 to 0.4999999999999996
Info: NONBONDED TABLE R-SQUARED SPACING: 0.0625
Info: NONBONDED TABLE SIZE: 705 POINTS
TCL: Running for 1500000 steps
ETITLE: TS BOND ANGLE DIHED IMPRP ELECT VDW BOUNDARY MISC KINETIC TOTAL TEMP POTENTIAL TOTALAVG TEMPAVG PRESSURE GPRESSURE VOLUME PRESSAVG GPRESSAVG
ENERGY: 0 0.6523 0.5793 0.0000 0.0000 -10955.3739 1543.6738 0.0000 0.0000 1715.2042 -7695.2642 291.2045 -9410.4685 -7695.2642 291.2045 383.8450 479.8657 30321.2689 383.8450 479.8657
ENERGY: 300000 0.1021 3.2093 0.0000 0.0000 -10870.4768 1477.9340 0.0000 0.0000 1741.3094 -7647.9220 295.6366 -9389.2314 -7642.4752 294.7434 -49.2567 62.3449 30355.4795 75.7660 147.0864
ENERGY: 600000 0.0085 1.7036 0.0000 0.0000 -10723.4061 1391.3246 0.0000 0.0000 1759.5797 -7570.7897 298.7384 -9330.3694 -7604.7906 298.2739 -781.1620 -719.1561 30961.2698 -32.7016 33.2882
ENERGY: 900000 0.5455 2.4307 0.0000 0.0000 -10698.6324 1405.6211 0.0000 0.0000 1761.5992 -7528.4359 299.0813 -9290.0350 -7591.3591 299.1933 -200.1109 -129.2225 30293.5772 44.2313 112.8523
ENERGY: 1200000 0.1040 1.7054 0.0000 0.0000 -10764.3409 1456.5009 0.0000 0.0000 1833.9094 -7472.1212 311.3580 -9306.0306 -7567.4377 300.6958 149.1812 221.3486 30453.9836 64.7426 137.9762
ENERGY: 1500000 0.3878 2.9138 0.0000 0.0000 -10720.3012 1417.9456 0.0000 0.0000 1818.2312 -7480.8228 308.6962 -9299.0540 -7552.2920 301.4178 -369.1202 -273.5375 30730.3874 41.6862 114.2142
TCL: Running FEP window  11: Lambda1 0.4999999999999996 Lambda2 0.4499999999999996 [dLambda -0.04999999999999999]
TCL: Setting parameter firsttimestep to 0
TCL: Setting parameter alchLambda to 0.4999999999999996
Info: NONBONDED TABLE R-SQUARED SPACING: 0.0625
Info: NONBONDED TABLE SIZE: 705 POINTS
TCL: Setting parameter alchLambda2 to 0.4499999999999996
Info: NONBONDED TABLE R-SQUARED SPACING: 0.0625
Info: NONBONDED TABLE SIZE: 705 POINTS
TCL: Running for 1500000 steps
ETITLE: TS BOND ANGLE DIHED IMPRP ELECT VDW BOUNDARY MISC KINETIC TOTAL TEMP POTENTIAL TOTALAVG TEMPAVG PRESSURE GPRESSURE VOLUME PRESSAVG GPRESSAVG
ENERGY: 0 0.3878 2.9138 0.0000 0.0000 -10720.2145 1418.1135 0.0000 0.0000 1817.3743 -7481.4251 308.5507 -9298.7994 -7481.4251 308.5507 -351.8590 -271.1600 30730.3874 -351.8590 -271.1600
ENERGY: 300000 0.0002 1.7308 0.0000 0.0000 -10924.1116 1519.2398 0.0000 0.0000 1808.1291 -7595.0117 306.9811 -9403.1407 -7554.4776 301.5162 269.3465 347.3407 30357.1171 -614.1763 -531.7507
ENERGY: 600000 0.0307 1.2966 0.0000 0.0000 -10765.1994 1436.4052 0.0000 0.0000 1736.7158 -7590.7510 294.8567 -9327.4669 -7538.8704 301.0858 85.6901 121.4839 30063.1536 -371.1078 -300.3369
ENERGY: 900000 0.2583 2.4404 0.0000 0.0000 -10768.5943 1449.9986 0.0000 0.0000 1749.3044 -7566.5926 296.9939 -9315.8970 -7527.7741 301.3313 -162.8654 -105.4302 30772.3380 -218.4617 -152.9051
ENERGY: 1200000 0.0009 1.1374 0.0000 0.0000 -10675.7450 1438.4942 0.0000 0.0000 1738.9757 -7497.1368 295.2403 -9236.1126 -7522.4905 300.0864 250.8384 322.0545 30435.4075 -252.5051 -189.7983
ENERGY: 1500000 0.7279 5.2982 0.0000 0.0000 -10714.2446 1434.0077 0.0000 0.0000 1745.4729 -7528.7379 296.3434 -9274.2108 -7515.8216 300.5094 -225.3908 -176.5049 30960.9736 -174.9480 -112.1588
TCL: Running FEP window  12: Lambda1 0.4499999999999996 Lambda2 0.39999999999999963 [dLambda -0.04999999999999999]
TCL: Setting parameter firsttimestep to 0
TCL: Setting parameter alchLambda to 0.4499999999999996
Info: NONBONDED TABLE R-SQUARED SPACING: 0.0625
Info: NONBONDED TABLE SIZE: 705 POINTS
TCL: Setting parameter alchLambda2 to 0.39999999999999963
Info: NONBONDED TABLE R-SQUARED SPACING: 0.0625
Info: NONBONDED TABLE SIZE: 705 POINTS
TCL: Running for 1500000 steps
ETITLE: TS BOND ANGLE DIHED IMPRP ELECT VDW BOUNDARY MISC KINETIC TOTAL TEMP POTENTIAL TOTALAVG TEMPAVG PRESSURE GPRESSURE VOLUME PRESSAVG GPRESSAVG
ENERGY: 0 0.7279 5.2982 0.0000 0.0000 -10714.2446 1434.1513 0.0000 0.0000 1744.6006 -7529.4667 296.1953 -9274.0673 -7529.4667 296.1953 -266.7203 -177.7544 30960.9736 -266.7203 -177.7544
ENERGY: 300000 0.0360 2.4220 0.0000 0.0000 -10903.0817 1539.6173 0.0000 0.0000 1715.0735 -7645.9329 291.1823 -9361.0064 -7566.1353 296.7291 638.3216 789.9871 30214.3443 -18.6637 73.4551
ENERGY: 600000 0.2452 2.6253 0.0000 0.0000 -10817.7137 1477.8759 0.0000 0.0000 1809.3597 -7527.6076 307.1900 -9336.9673 -7552.1673 301.1975 37.7081 45.7162 30655.8434 -96.1573 -19.6976
ENERGY: 900000 0.0438 0.8121 0.0000 0.0000 -10694.0016 1391.6314 0.0000 0.0000 1798.8080 -7502.7063 305.3986 -9301.5143 -7546.1822 301.7771 -298.0603 -260.1280 30469.1287 -125.1739 -61.7775
ENERGY: 1200000 0.4018 1.6369 0.0000 0.0000 -10738.6884 1442.9839 0.0000 0.0000 1781.8332 -7511.8326 302.5166 -9293.6658 -7543.8915 301.9258 -161.8728 -114.5321 30890.3750 -180.2946 -117.7331
ENERGY: 1500000 0.0075 3.2414 0.0000 0.0000 -10716.7506 1353.2201 0.0000 0.0000 1754.3480 -7605.9336 297.8502 -9360.2816 -7549.3732 301.5891 -1032.9876 -926.7162 30574.0595 -249.6369 -178.4603
TCL: Running FEP window  13: Lambda1 0.39999999999999963 Lambda2 0.34999999999999964 [dLambda -0.04999999999999999]
TCL: Setting parameter firsttimestep to 0
TCL: Setting parameter alchLambda to 0.39999999999999963
Info: NONBONDED TABLE R-SQUARED SPACING: 0.0625
Info: NONBONDED TABLE SIZE: 705 POINTS
TCL: Setting parameter alchLambda2 to 0.34999999999999964
Info: NONBONDED TABLE R-SQUARED SPACING: 0.0625
Info: NONBONDED TABLE SIZE: 705 POINTS
TCL: Running for 1500000 steps
ETITLE: TS BOND ANGLE DIHED IMPRP ELECT VDW BOUNDARY MISC KINETIC TOTAL TEMP POTENTIAL TOTALAVG TEMPAVG PRESSURE GPRESSURE VOLUME PRESSAVG GPRESSAVG
ENERGY: 0 0.0075 3.2414 0.0000 0.0000 -10716.7491 1353.2879 0.0000 0.0000 1753.4581 -7606.7543 297.6991 -9360.2124 -7606.7543 297.6991 -1014.1450 -928.4546 30574.0595 -1014.1450 -928.4546
ENERGY: 300000 0.3863 2.5202 0.0000 0.0000 -10820.1563 1521.4282 0.0000 0.0000 1728.4008 -7567.4208 293.4450 -9295.8216 -7576.1196 298.5821 360.5173 481.1205 30609.9605 158.7854 224.6009
ENERGY: 600000 0.2276 3.6814 0.0000 0.0000 -10807.1343 1469.2271 0.0000 0.0000 1732.1766 -7601.8217 294.0860 -9333.9983 -7579.2024 298.7716 -24.9153 74.8891 30725.5213 190.9749 250.1307
ENERGY: 900000 0.0892 2.2252 0.0000 0.0000 -10868.1666 1470.0055 0.0000 0.0000 1736.5638 -7659.2829 294.8309 -9395.8467 -7582.7238 299.0808 -83.0052 -35.5620 30478.4246 133.2083 200.2850
ENERGY: 1200000 0.0123 2.7630 0.0000 0.0000 -10822.4707 1452.8041 0.0000 0.0000 1712.9864 -7653.9050 290.8279 -9366.8913 -7592.1469 298.0503 -40.6195 21.2816 30284.7293 66.5320 139.6204
ENERGY: 1500000 0.5629 1.0989 0.0000 0.0000 -10855.5337 1551.2710 0.0000 0.0000 1764.7729 -7537.8280 299.6202 -9302.6009 -7579.2826 298.6079 893.4422 1018.8230 30448.6402 63.3315 130.3839
TCL: Running FEP window  14: Lambda1 0.34999999999999964 Lambda2 0.29999999999999966 [dLambda -0.04999999999999999]
TCL: Setting parameter firsttimestep to 0
TCL: Setting parameter alchLambda to 0.34999999999999964
Info: NONBONDED TABLE R-SQUARED SPACING: 0.0625
Info: NONBONDED TABLE SIZE: 705 POINTS
TCL: Setting parameter alchLambda2 to 0.29999999999999966
Info: NONBONDED TABLE R-SQUARED SPACING: 0.0625
Info: NONBONDED TABLE SIZE: 705 POINTS
TCL: Running for 1500000 steps
ETITLE: TS BOND ANGLE DIHED IMPRP ELECT VDW BOUNDARY MISC KINETIC TOTAL TEMP POTENTIAL TOTALAVG TEMPAVG PRESSURE GPRESSURE VOLUME PRESSAVG GPRESSAVG
ENERGY: 0 0.5629 1.0989 0.0000 0.0000 -10855.5343 1550.8587 0.0000 0.0000 1763.8978 -7539.1160 299.4716 -9303.0138 -7539.1160 299.4716 927.0991 1016.9959 30448.6402 927.0991 1016.9959
ENERGY: 300000 0.0335 2.1794 0.0000 0.0000 -10837.2632 1502.1072 0.0000 0.0000 1696.9858 -7635.9573 288.1114 -9332.9432 -7564.3388 298.5123 174.3190 288.2182 30525.9750 144.9062 223.4088
ENERGY: 600000 0.0626 2.3009 0.0000 0.0000 -10732.0093 1437.4418 0.0000 0.0000 1770.8446 -7521.3594 300.6510 -9292.2039 -7557.6701 299.3414 78.0243 135.0588 30249.5291 115.7699 198.4603
ENERGY: 900000 0.7183 0.6073 0.0000 0.0000 -10659.6886 1359.7241 0.0000 0.0000 1770.1677 -7528.4712 300.5361 -9298.6389 -7546.9170 299.4161 -372.6307 -292.1748 30147.0331 47.9967 130.6072
ENERGY: 1200000 0.1045 0.8548 0.0000 0.0000 -10842.7993 1503.2824 0.0000 0.0000 1754.5658 -7583.9917 297.8872 -9338.5575 -7547.9571 298.5975 140.6285 267.2807 30757.0215 -60.7306 28.8504
ENERGY: 1500000 0.0363 0.3411 0.0000 0.0000 -10725.3788 1373.4378 0.0000 0.0000 1767.1894 -7584.3742 300.0304 -9351.5636 -7554.3978 298.3700 -855.0658 -803.8252 30793.3399 -55.9584 30.7982
TCL: Running FEP window  15: Lambda1 0.29999999999999966 Lambda2 0.24999999999999967 [dLambda -0.04999999999999999]
TCL: Setting parameter firsttimestep to 0
TCL: Setting parameter alchLambda to 0.29999999999999966
Info: NONBONDED TABLE R-SQUARED SPACING: 0.0625
Info: NONBONDED TABLE SIZE: 705 POINTS
TCL: Setting parameter alchLambda2 to 0.24999999999999967
Info: NONBONDED TABLE R-SQUARED SPACING: 0.0625
Info: NONBONDED TABLE SIZE: 705 POINTS
TCL: Running for 1500000 steps
ETITLE: TS BOND ANGLE DIHED IMPRP ELECT VDW BOUNDARY MISC KINETIC TOTAL TEMP POTENTIAL TOTALAVG TEMPAVG PRESSURE GPRESSURE VOLUME PRESSAVG GPRESSAVG
ENERGY: 0 0.0363 0.3411 0.0000 0.0000 -10725.3791 1373.3014 0.0000 0.0000 1766.3520 -7585.3483 299.8883 -9351.7003 -7585.3483 299.8883 -886.3828 -805.1115 30793.3399 -886.3828 -805.1115
ENERGY: 300000 0.2415 0.3738 0.0000 0.0000 -10711.6712 1398.2680 0.0000 0.0000 1798.8464 -7513.9415 305.4051 -9312.7879 -7551.6444 300.7893 -367.2742 -311.1279 30449.9587 -466.6093 -380.5805
ENERGY: 600000 0.2014 0.6240 0.0000 0.0000 -10779.1152 1477.1859 0.0000 0.0000 1763.4209 -7537.6830 299.3906 -9301.1039 -7549.9093 301.3223 307.0968 292.0047 30564.3949 -204.1096 -128.5627
ENERGY: 900000 0.3916 0.8711 0.0000 0.0000 -10793.4693 1459.8540 0.0000 0.0000 1780.7759 -7551.5767 302.3371 -9332.3526 -7550.9007 301.6774 -21.8128 1.5571 30688.9855 -99.8844 -29.2222
ENERGY: 1200000 0.0009 0.9958 0.0000 0.0000 -10665.1185 1393.4229 0.0000 0.0000 1770.4980 -7500.2009 300.5922 -9270.6989 -7542.7797 301.4082 -376.0406 -330.5409 30742.1912 -63.7683 4.8229
ENERGY: 1500000 0.1434 2.7184 0.0000 0.0000 -10810.5926 1415.7014 0.0000 0.0000 1782.2701 -7609.7593 302.5908 -9392.0293 -7551.0645 301.4855 -419.1999 -391.2951 30548.6097 -68.9312 -8.6572
TCL: Running FEP window  16: Lambda1 0.24999999999999967 Lambda2 0.19999999999999968 [dLambda -0.04999999999999999]
TCL: Setting parameter firsttimestep to 0
TCL: Setting parameter alchLambda to 0.24999999999999967
Info: NONBONDED TABLE R-SQUARED SPACING: 0.0625
Info: NONBONDED TABLE SIZE: 705 POINTS
TCL: Setting parameter alchLambda2 to 0.19999999999999968
Info: NONBONDED TABLE R-SQUARED SPACING: 0.0625
Info: NONBONDED TABLE SIZE: 705 POINTS
TCL: Running for 1500000 steps
ETITLE: TS BOND ANGLE DIHED IMPRP ELECT VDW BOUNDARY MISC KINETIC TOTAL TEMP POTENTIAL TOTALAVG TEMPAVG PRESSURE GPRESSURE VOLUME PRESSAVG GPRESSAVG
ENERGY: 0 0.1434 2.7184 0.0000 0.0000 -10810.5936 1415.0895 0.0000 0.0000 1781.4235 -7611.2188 302.4471 -9392.6423 -7611.2188 302.4471 -487.6047 -395.3320 30548.6097 -487.6047 -395.3320
ENERGY: 300000 0.2854 1.0442 0.0000 0.0000 -10762.1442 1450.6855 0.0000 0.0000 1741.9340 -7568.1951 295.7426 -9310.1291 -7571.4390 299.7359 123.1209 202.3197 30219.6289 -27.7966 28.9580
ENERGY: 600000 0.0300 1.8364 0.0000 0.0000 -10843.0188 1499.1933 0.0000 0.0000 1770.0680 -7571.8911 300.5191 -9341.9591 -7569.0463 298.2684 406.5281 472.7037 30195.1688 17.4257 77.0741
ENERGY: 900000 0.2998 1.8308 0.0000 0.0000 -10818.7900 1486.3462 0.0000 0.0000 1816.2838 -7514.0294 308.3656 -9330.3132 -7564.9610 298.1772 351.4094 464.2546 30190.4475 -62.1103 1.4380
ENERGY: 1200000 0.0850 0.4788 0.0000 0.0000 -10694.2371 1419.9265 0.0000 0.0000 1729.4086 -7544.3380 293.6161 -9273.7467 -7556.1786 298.2585 -63.2018 -9.3030 30409.1600 -72.7923 -3.3708
ENERGY: 1500000 0.0009 0.4790 0.0000 0.0000 -10704.7203 1423.8472 0.0000 0.0000 1698.9775 -7581.4157 288.4495 -9280.3932 -7554.3190 297.9679 -1.7403 94.4825 30174.9735 -93.2328 -19.5999
TCL: Running FEP window  17: Lambda1 0.19999999999999968 Lambda2 0.1499999999999997 [dLambda -0.04999999999999999]
TCL: Setting parameter firsttimestep to 0
TCL: Setting parameter alchLambda to 0.19999999999999968
Info: NONBONDED TABLE R-SQUARED SPACING: 0.0625
Info: NONBONDED TABLE SIZE: 705 POINTS
TCL: Setting parameter alchLambda2 to 0.1499999999999997
Info: NONBONDED TABLE R-SQUARED SPACING: 0.0625
Info: NONBONDED TABLE SIZE: 705 POINTS
TCL: Running for 1500000 steps
ETITLE: TS BOND ANGLE DIHED IMPRP ELECT VDW BOUNDARY MISC KINETIC TOTAL TEMP POTENTIAL TOTALAVG TEMPAVG PRESSURE GPRESSURE VOLUME PRESSAVG GPRESSAVG
ENERGY: 0 0.0009 0.4790 0.0000 0.0000 -10704.7199 1423.0295 0.0000 0.0000 1698.1016 -7583.1089 288.3008 -9281.2105 -7583.1089 288.3008 -4.2824 88.6493 30174.9735 -4.2824 88.6493
ENERGY: 300000 0.0639 0.8652 0.0000 0.0000 -10561.1442 1288.8217 0.0000 0.0000 1746.4864 -7524.9069 296.5155 -9271.3933 -7560.1904 297.8749 -1222.1674 -1199.7216 30864.5935 -395.2194 -340.4065
ENERGY: 600000 0.0627 1.3331 0.0000 0.0000 -10772.1332 1402.3958 0.0000 0.0000 1844.6007 -7523.7409 313.1732 -9368.3416 -7552.1144 301.7478 -404.7619 -381.0292 30598.5843 -324.5175 -273.6725
ENERGY: 900000 0.0438 0.6172 0.0000 0.0000 -10890.1608 1515.2452 0.0000 0.0000 1800.7966 -7573.4581 305.7362 -9374.2546 -7554.3200 301.3124 245.1353 303.7321 30400.8046 -241.5365 -178.2179
ENERGY: 1200000 0.4666 1.1938 0.0000 0.0000 -10854.9161 1461.5616 0.0000 0.0000 1744.0191 -7647.6750 296.0966 -9391.6941 -7564.8606 300.2915 -135.2933 -49.1712 30359.4950 -229.8316 -166.4948
ENERGY: 1500000 0.8214 1.3363 0.0000 0.0000 -10910.9969 1557.5020 0.0000 0.0000 1805.2940 -7546.0432 306.4998 -9351.3372 -7550.5159 302.0623 769.5189 859.6633 30298.3852 -77.0132 -11.4779
TCL: Running FEP window  18: Lambda1 0.1499999999999997 Lambda2 0.09999999999999969 [dLambda -0.05 ]
TCL: Setting parameter firsttimestep to 0
TCL: Setting parameter alchLambda to 0.1499999999999997
Info: NONBONDED TABLE R-SQUARED SPACING: 0.0625
Info: NONBONDED TABLE SIZE: 705 POINTS
TCL: Setting parameter alchLambda2 to 0.09999999999999969
Info: NONBONDED TABLE R-SQUARED SPACING: 0.0625
Info: NONBONDED TABLE SIZE: 705 POINTS
TCL: Running for 1500000 steps
ETITLE: TS BOND ANGLE DIHED IMPRP ELECT VDW BOUNDARY MISC KINETIC TOTAL TEMP POTENTIAL TOTALAVG TEMPAVG PRESSURE GPRESSURE VOLUME PRESSAVG GPRESSAVG
ENERGY: 0 0.8214 1.3363 0.0000 0.0000 -10910.9973 1557.6957 0.0000 0.0000 1804.4384 -7546.7055 306.3545 -9351.1440 -7546.7055 306.3545 782.4278 859.1746 30298.3852 782.4278 859.1746
ENERGY: 300000 0.1967 3.0148 0.0000 0.0000 -10729.6844 1410.0146 0.0000 0.0000 1762.3596 -7554.0988 299.2104 -9316.4584 -7548.6490 304.2664 -333.0326 -277.0899 30436.7284 118.7542 175.2667
ENERGY: 600000 0.2717 0.6105 0.0000 0.0000 -10778.9498 1435.5436 0.0000 0.0000 1773.0359 -7569.4881 301.0230 -9342.5240 -7525.6600 304.9512 51.5551 130.0036 30036.8986 25.1730 91.6846
ENERGY: 900000 1.6435 1.6458 0.0000 0.0000 -10798.2341 1508.7189 0.0000 0.0000 1788.9368 -7497.2891 303.7227 -9286.2259 -7528.7211 302.8083 533.2921 622.7945 30271.8080 58.3888 121.1345
ENERGY: 1200000 0.0108 1.6413 0.0000 0.0000 -10675.4269 1349.3825 0.0000 0.0000 1760.0156 -7564.3767 298.8125 -9324.3923 -7525.7484 302.8925 -678.8306 -739.4160 30303.1215 -50.0373 2.4208
ENERGY: 1500000 0.0801 2.7766 0.0000 0.0000 -10696.2749 1383.9266 0.0000 0.0000 1757.6626 -7551.8290 298.4130 -9309.4917 -7536.2540 301.4836 -947.3530 -843.9327 31107.6233 -88.5098 -35.7773
TCL: Running FEP window  19: Lambda1 0.09999999999999969 Lambda2 0.049999999999999684 [dLambda -0.05 ]
TCL: Setting parameter firsttimestep to 0
TCL: Setting parameter alchLambda to 0.09999999999999969
Info: NONBONDED TABLE R-SQUARED SPACING: 0.0625
Info: NONBONDED TABLE SIZE: 705 POINTS
TCL: Setting parameter alchLambda2 to 0.049999999999999684
Info: NONBONDED TABLE R-SQUARED SPACING: 0.0625
Info: NONBONDED TABLE SIZE: 705 POINTS
TCL: Running for 1500000 steps
ETITLE: TS BOND ANGLE DIHED IMPRP ELECT VDW BOUNDARY MISC KINETIC TOTAL TEMP POTENTIAL TOTALAVG TEMPAVG PRESSURE GPRESSURE VOLUME PRESSAVG GPRESSAVG
ENERGY: 0 0.0801 2.7766 0.0000 0.0000 -10696.2746 1384.0244 0.0000 0.0000 1756.7566 -7552.6369 298.2592 -9309.3936 -7552.6369 298.2592 -926.0777 -844.5582 31107.6233 -926.0777 -844.5582
ENERGY: 300000 0.7794 0.6436 0.0000 0.0000 -10856.2026 1550.8539 0.0000 0.0000 1733.4123 -7570.5132 294.2958 -9303.9255 -7566.0299 301.9149 574.7801 628.0786 30925.9315 -73.4285 -0.0079
ENERGY: 600000 0.7356 2.1994 0.0000 0.0000 -10803.9812 1404.7516 0.0000 0.0000 1727.4222 -7668.8724 293.2788 -9396.2946 -7580.4395 300.6019 -576.0798 -548.7392 30327.1462 -215.2745 -151.4811
ENERGY: 900000 0.1043 1.8198 0.0000 0.0000 -10709.4055 1453.2510 0.0000 0.0000 1743.8604 -7510.3700 296.0697 -9254.2304 -7570.8744 300.7530 68.5619 82.7000 30824.5066 -68.8231 1.2341
ENERGY: 1200000 0.0102 1.0800 0.0000 0.0000 -10707.6228 1384.8212 0.0000 0.0000 1726.8511 -7594.8604 293.1818 -9321.7114 -7576.4235 299.9838 -766.2388 -631.0945 30913.8730 -142.0782 -72.6506
ENERGY: 1500000 0.0932 0.8526 0.0000 0.0000 -10694.8252 1462.4861 0.0000 0.0000 1800.6935 -7430.6998 305.7187 -9231.3933 -7554.7065 300.5154 32.7330 147.4272 31039.0379 -79.9548 -15.3997
TCL: Running FEP window  20: Lambda1 0.049999999999999684 Lambda2 0.0    [dLambda -0.049999999999999684]
TCL: Setting parameter firsttimestep to 0
TCL: Setting parameter alchLambda to 0.049999999999999684
Info: NONBONDED TABLE R-SQUARED SPACING: 0.0625
Info: NONBONDED TABLE SIZE: 705 POINTS
TCL: Setting parameter alchLambda2 to 0.0
Info: NONBONDED TABLE R-SQUARED SPACING: 0.0625
Info: NONBONDED TABLE SIZE: 705 POINTS
TCL: Running for 1500000 steps
ETITLE: TS BOND ANGLE DIHED IMPRP ELECT VDW BOUNDARY MISC KINETIC TOTAL TEMP POTENTIAL TOTALAVG TEMPAVG PRESSURE GPRESSURE VOLUME PRESSAVG GPRESSAVG
ENERGY: 0 0.0932 0.8526 0.0000 0.0000 -10694.8262 1462.6600 0.0000 0.0000 1799.8041 -7431.4163 305.5677 -9231.2203 -7431.4163 305.5677 76.9267 148.9372 31039.0379 76.9267 148.9372
ENERGY: 300000 0.0001 0.5831 0.0000 0.0000 -10728.1065 1512.0645 0.0000 0.0000 1765.9530 -7449.5058 299.8205 -9215.4588 -7456.5098 304.2149 511.3186 640.0052 30720.3323 51.9572 113.8247
ENERGY: 600000 0.0387 0.2410 0.0000 0.0000 -10735.6798 1397.4562 0.0000 0.0000 1771.7018 -7566.2421 300.7965 -9337.9439 -7514.1159 302.3638 -628.8635 -576.4351 30891.1421 -33.3055 33.2369
ENERGY: 900000 0.0007 2.1948 0.0000 0.0000 -10664.6984 1361.9206 0.0000 0.0000 1787.6169 -7512.9654 303.4986 -9300.5823 -7522.9531 300.9202 -783.2907 -733.7778 30853.2706 -80.6289 -16.5332
ENERGY: 1200000 0.0113 1.3051 0.0000 0.0000 -10673.3945 1364.3239 0.0000 0.0000 1750.4342 -7557.3201 297.1858 -9307.7544 -7531.6345 301.0318 -924.6066 -811.8644 30874.0843 -160.9482 -93.6738
ENERGY: 1500000 0.5412 1.7669 0.0000 0.0000 -10717.8911 1420.6012 0.0000 0.0000 1777.9838 -7516.9980 301.8631 -9294.9818 -7530.5117 301.4354 -330.0860 -303.5122 30790.2241 -202.8024 -140.4157
TCL: Exiting due to exit command.
