Info: SIMULATION PARAMETERS:
Info: TIMESTEP               2
Info: NUMBER OF STEPS        0
Info: STEPS PER CYCLE        10
Info: PERIODIC CELL BASIS 1  41.123 0 0
Info: PERIODIC CELL BASIS 2  0 41.891 0
Info: PERIODIC CELL BASIS 3  0 0 40.47
Info: PERIODIC CELL CENTER   0 0 0
Info: WRAPPING WATERS AROUND PERIODIC BOUNDARIES ON OUTPUT.
Info: WRAPPING ALL CLUSTERS AROUND PERIODIC BOUNDARIES ON OUTPUT.
Info: FIRST LDB TIMESTEP     50
Info: LAST LDB TIMESTEP     -1
Info: HOM BACKGROUND SCALING 1
Info: PME BACKGROUND SCALING 1
Info: MIN ATOMS PER PATCH    40
Info: EMPTY PATCH LOAD       40 ATOMS
Info: INITIAL TEMPERATURE    300
Info: CENTER OF MASS MOVING INITIALLY? NO
Info: DIELECTRIC             1
Info: EXCLUDE                SCALED ONE-FOUR
Info: 1-4 ELECTROSTATICS SCALED BY 0.833333
Info: MODIFIED 1-4 VDW PARAMETERS WILL BE USED
Info: DCD FILENAME           mobley_9139060_min.dcd
Info: DCD FREQUENCY          5000
Info: DCD FIRST STEP         5000
Info: DCD FILE WILL CONTAIN UNIT CELL DATA
Info: XST FILENAME           mobley_9139060_min.xst
Info: XST FREQUENCY          5000
Info: NO VELOCITY DCD OUTPUT
Info: NO FORCE DCD OUTPUT
Info: OUTPUT FILENAME        mobley_9139060_min
Info: BINARY OUTPUT FILES WILL BE USED
Info: RESTART FILENAME       mobley_9139060_min.restart
Info: RESTART FREQUENCY      5000
Info: BINARY RESTART FILES WILL BE USED
Info: CUTOFF                 9
Info: PAIRLIST DISTANCE      11
Info: PAIRLIST SHRINK RATE   0.01
Info: PAIRLIST GROW RATE     0.01
Info: PAIRLIST TRIGGER       0.3
Info: PAIRLISTS PER CYCLE    2
Info: PAIRLISTS ENABLED
Info: MARGIN                 8
Info: HYDROGEN GROUP CUTOFF  2.5
Info: PATCH DIMENSION        21.5
Info: ENERGY OUTPUT STEPS    5000
Info: ENERGY EVALUATION STEPS    5000
Info: OUTPUT ENERGY PRECISION 4
Info: CROSSTERM ENERGY INCLUDED IN DIHEDRAL
Info: TIMING OUTPUT STEPS    50000
Info: PRESSURE OUTPUT STEPS  5000
Info: LANGEVIN DYNAMICS ACTIVE
Info: LANGEVIN TEMPERATURE   300
Info: LANGEVIN USING BBK INTEGRATOR
Info: LANGEVIN DAMPING COEFFICIENT IS 1 INVERSE PS
Info: LANGEVIN DYNAMICS APPLIED TO HYDROGENS
Info: LANGEVIN PISTON PRESSURE CONTROL ACTIVE
Info:        TARGET PRESSURE IS 1.01325 BAR
Info:     OSCILLATION PERIOD IS 50 FS
Info:             DECAY TIME IS 25 FS
Info:     PISTON TEMPERATURE IS 300 K
Info:       PRESSURE CONTROL IS GROUP-BASED
Info:    INITIAL STRAIN RATE IS 0 0 0
Info:       CELL FLUCTUATION IS ISOTROPIC
Info: PARTICLE MESH EWALD (PME) ACTIVE
Info: PME TOLERANCE               1e-06
Info: PME EWALD COEFFICIENT       0.348832
Info: PME INTERPOLATION ORDER     4
Info: PME GRID DIMENSIONS         44 44 44
Info: PME MAXIMUM GRID SPACING    1
Info: FULL ELECTROSTATIC EVALUATION FREQUENCY      2
Info: USING VERLET I (r-RESPA) MTS SCHEME.
Info: C1 SPLITTING OF LONG RANGE ELECTROSTATICS
Info: PLACING ATOMS IN PATCHES BY HYDROGEN GROUPS
Info: RIGID BONDS TO HYDROGEN : ALL
Info:         ERROR TOLERANCE : 1e-08
Info:          MAX ITERATIONS : 100
Info: RIGID WATER USING SETTLE ALGORITHM
Info: RANDOM NUMBER SEED     1741400133
Info: USE HYDROGEN BONDS?    NO
Info: Using AMBER format force field!
Info: AMBER PARM FILE        mobley_9139060.prmtop
Info: COORDINATE PDB         mobley_9139060.pdb
Info: Exclusions will be read from PARM file!
Info: SCNB (VDW SCALING)     2
Info: USING ARITHMETIC MEAN TO COMBINE L-J SIGMA PARAMETERS
Info: SUMMARY OF PARAMETERS:
Info: 4 BONDS
Info: 3 ANGLES
Info:   3 HARMONIC
Info:   0 COSINE-BASED
Info: 3 DIHEDRAL
Info: 0 IMPROPER
Info: 0 CROSSTERM
Info: 0 VDW
Info: 10 VDW_PAIRS
Info: 0 NBTHOLE_PAIRS
Info: STRUCTURE SUMMARY:
Info: 5067 ATOMS
Info: 5067 BONDS
Info: 48 ANGLES
Info: 72 DIHEDRALS
Info: 0 IMPROPERS
Info: 0 CROSSTERMS
Info: 5184 EXCLUSIONS
Info: 5059 RIGID BONDS
Info: 10142 DEGREES OF FREEDOM
Info: 1689 HYDROGEN GROUPS
Info: 4 ATOMS IN LARGEST HYDROGEN GROUP
Info: 1689 MIGRATION GROUPS
Info: 4 ATOMS IN LARGEST MIGRATION GROUP
Info: TOTAL MASS = 30397.1 amu
Info: TOTAL CHARGE = -0.000200011 e
Info: MASS DENSITY = 0.724024 g/cm^3
Info: ATOM DENSITY = 0.0726795 atoms/A^3
Info: ADDED 0 IMPLICIT EXCLUSIONS
Info: NONBONDED TABLE R-SQUARED SPACING: 0.0625
Info: NONBONDED TABLE SIZE: 705 POINTS
Info: REMOVING COM VELOCITY 0.202155 -0.126169 -0.0529239
TCL: Minimizing for 2000 steps
ETITLE: TS BOND ANGLE DIHED IMPRP ELECT VDW BOUNDARY MISC KINETIC TOTAL TEMP POTENTIAL TOTAL3 TEMPAVG PRESSURE GPRESSURE VOLUME PRESSAVG GPRESSAVG
ENERGY: 0 0.0637 0.8194 0.2896 0.0000 -15781.3026 1775.2307 0.0000 0.0000 0.0000 -14004.8992 0.0000 -14004.8992 -14004.8992 0.0000 11191.4902 -15893.8656 69717.0050 11191.4902 -15893.8656
ENERGY: 400 3.7628 5.3795 0.4747 0.0000 -21355.9710 3241.8393 0.0000 0.0000 0.0000 -18104.5147 0.0000 -18104.5147 -18104.5147 0.0000 16619.8169 16719.9863 69717.0050 16619.8169 16719.9863
ENERGY: 800 0.9404 1.6585 0.2832 0.0000 -22246.6726 3557.6669 0.0000 0.0000 0.0000 -18686.1236 0.0000 -18686.1236 -18686.1236 0.0000 18001.4425 18119.3125 69717.0050 18001.4425 18119.3125
ENERGY: 1200 2.4887 2.6762 0.3304 0.0000 -22700.3201 3762.3445 0.0000 0.0000 0.0000 -18932.4803 0.0000 -18932.4803 -18932.4803 0.0000 19003.4289 19110.1382 69717.0050 19003.4289 19110.1382
ENERGY: 1600 3.9557 3.1003 0.4193 0.0000 -23032.5447 3915.7962 0.0000 0.0000 0.0000 -19109.2731 0.0000 -19109.2731 -19109.2731 0.0000 19725.3599 19776.4170 69717.0050 19725.3599 19776.4170
ENERGY: 2000 0.4442 0.9862 0.3197 0.0000 -23147.1950 3955.0741 0.0000 0.0000 0.0000 -19190.3709 0.0000 -19190.3709 -19190.3709 0.0000 19899.5564 19962.7482 69717.0050 19899.5564 19962.7482
TCL: Exiting due to exit command.
Info: NAMD 3.0.1 for Linux-x86_64-multicore
Info: Please visit http://www.ks.uiuc.edu/Research/namd/
Info: for updates, documentation, and support information.
Info: Please cite Phillips et al., J. Chem. Phys. 153:044130 (2020) doi:10.1063/5.0014475
Info: in all publications reporting results obtained with NAMD.
Info: Based on Charm++/Converse 80000 for multicore-linux-x86_64-gcc
Info: Built Mon Oct 14 11:11:06 CDT 2024 by dhardy on athine.ks.uiuc.edu
Info: 1 NAMD  3.0.1  Linux-x86_64-multicore  16    k078  z5358697
Info: Running on 16 processors, 1 nodes, 1 physical nodes.
Info: CPU topology information available.
Info: Charm++/Converse parallel runtime startup completed at 0.00553299 s
Info: 1043.48 MB of memory in use based on /proc/self/stat
Info: Configuration file is mobley_9139060_equil.namd
Info: Working in the current directory /srv/scratch/z5358697/prod_prep_11/9139060
TCL: Running 25000 steps at 30 kelvin.
TCL: Suspending until startup complete.
Info: SIMULATION PARAMETERS:
Info: TIMESTEP               2
Info: NUMBER OF STEPS        0
Info: STEPS PER CYCLE        10
Info: PERIODIC CELL BASIS 1  41.123 0 0
Info: PERIODIC CELL BASIS 2  0 41.891 0
Info: PERIODIC CELL BASIS 3  0 0 40.47
Info: PERIODIC CELL CENTER   0 0 0
Info: WRAPPING WATERS AROUND PERIODIC BOUNDARIES ON OUTPUT.
Info: WRAPPING ALL CLUSTERS AROUND PERIODIC BOUNDARIES ON OUTPUT.
Info: FIRST LDB TIMESTEP     50
Info: LAST LDB TIMESTEP     -1
Info: HOM BACKGROUND SCALING 1
Info: PME BACKGROUND SCALING 1
Info: MIN ATOMS PER PATCH    40
Info: EMPTY PATCH LOAD       40 ATOMS
Info: INITIAL TEMPERATURE    300
Info: CENTER OF MASS MOVING INITIALLY? NO
Info: DIELECTRIC             1
Info: EXCLUDE                SCALED ONE-FOUR
Info: 1-4 ELECTROSTATICS SCALED BY 0.833333
Info: MODIFIED 1-4 VDW PARAMETERS WILL BE USED
Info: DCD FILENAME           mobley_9139060_equil.dcd
Info: DCD FREQUENCY          5000
Info: DCD FIRST STEP         5000
Info: DCD FILE WILL CONTAIN UNIT CELL DATA
Info: XST FILENAME           mobley_9139060_equil.xst
Info: XST FREQUENCY          5000
Info: NO VELOCITY DCD OUTPUT
Info: NO FORCE DCD OUTPUT
Info: OUTPUT FILENAME        mobley_9139060_equil
Info: BINARY OUTPUT FILES WILL BE USED
Info: RESTART FILENAME       mobley_9139060_equil.restart
Info: RESTART FREQUENCY      5000
Info: BINARY RESTART FILES WILL BE USED
Info: CUTOFF                 9
Info: PAIRLIST DISTANCE      11
Info: PAIRLIST SHRINK RATE   0.01
Info: PAIRLIST GROW RATE     0.01
Info: PAIRLIST TRIGGER       0.3
Info: PAIRLISTS PER CYCLE    2
Info: PAIRLISTS ENABLED
Info: MARGIN                 8
Info: HYDROGEN GROUP CUTOFF  2.5
Info: PATCH DIMENSION        21.5
Info: ENERGY OUTPUT STEPS    5000
Info: ENERGY EVALUATION STEPS    5000
Info: OUTPUT ENERGY PRECISION 4
Info: CROSSTERM ENERGY INCLUDED IN DIHEDRAL
Info: TIMING OUTPUT STEPS    50000
Info: PRESSURE OUTPUT STEPS  5000
Info: LANGEVIN DYNAMICS ACTIVE
Info: LANGEVIN TEMPERATURE   30
Info: LANGEVIN USING BBK INTEGRATOR
Info: LANGEVIN DAMPING COEFFICIENT IS 1 INVERSE PS
Info: LANGEVIN DYNAMICS APPLIED TO HYDROGENS
Info: LANGEVIN PISTON PRESSURE CONTROL ACTIVE
Info:        TARGET PRESSURE IS 1.01325 BAR
Info:     OSCILLATION PERIOD IS 50 FS
Info:             DECAY TIME IS 25 FS
Info:     PISTON TEMPERATURE IS 300 K
Info:       PRESSURE CONTROL IS GROUP-BASED
Info:    INITIAL STRAIN RATE IS 0 0 0
Info:       CELL FLUCTUATION IS ISOTROPIC
Info: PARTICLE MESH EWALD (PME) ACTIVE
Info: PME TOLERANCE               1e-06
Info: PME EWALD COEFFICIENT       0.348832
Info: PME INTERPOLATION ORDER     4
Info: PME GRID DIMENSIONS         44 44 44
Info: PME MAXIMUM GRID SPACING    1
Info: FULL ELECTROSTATIC EVALUATION FREQUENCY      2
Info: USING VERLET I (r-RESPA) MTS SCHEME.
Info: C1 SPLITTING OF LONG RANGE ELECTROSTATICS
Info: PLACING ATOMS IN PATCHES BY HYDROGEN GROUPS
Info: RIGID BONDS TO HYDROGEN : ALL
Info:         ERROR TOLERANCE : 1e-08
Info:          MAX ITERATIONS : 100
Info: RIGID WATER USING SETTLE ALGORITHM
Info: RANDOM NUMBER SEED     1741400147
Info: USE HYDROGEN BONDS?    NO
Info: Using AMBER format force field!
Info: AMBER PARM FILE        mobley_9139060.prmtop
Info: COORDINATE PDB         mobley_9139060.pdb
Info: Exclusions will be read from PARM file!
Info: SCNB (VDW SCALING)     2
Info: USING ARITHMETIC MEAN TO COMBINE L-J SIGMA PARAMETERS
Info: BINARY COORDINATES     mobley_9139060_min.coor
Info: SUMMARY OF PARAMETERS:
Info: 4 BONDS
Info: 3 ANGLES
Info:   3 HARMONIC
Info:   0 COSINE-BASED
Info: 3 DIHEDRAL
Info: 0 IMPROPER
Info: 0 CROSSTERM
Info: 0 VDW
Info: 10 VDW_PAIRS
Info: 0 NBTHOLE_PAIRS
Info: STRUCTURE SUMMARY:
Info: 5067 ATOMS
Info: 5067 BONDS
Info: 48 ANGLES
Info: 72 DIHEDRALS
Info: 0 IMPROPERS
Info: 0 CROSSTERMS
Info: 5184 EXCLUSIONS
Info: 5059 RIGID BONDS
Info: 10142 DEGREES OF FREEDOM
Info: 1689 HYDROGEN GROUPS
Info: 4 ATOMS IN LARGEST HYDROGEN GROUP
Info: 1689 MIGRATION GROUPS
Info: 4 ATOMS IN LARGEST MIGRATION GROUP
Info: TOTAL MASS = 30397.1 amu
Info: TOTAL CHARGE = -0.000200011 e
Info: MASS DENSITY = 0.724024 g/cm^3
Info: ATOM DENSITY = 0.0726795 atoms/A^3
Info: ADDED 0 IMPLICIT EXCLUSIONS
Info: NONBONDED TABLE R-SQUARED SPACING: 0.0625
Info: NONBONDED TABLE SIZE: 705 POINTS
Info: REMOVING COM VELOCITY -0.0784546 0.075178 -0.0832314
TCL: Running for 25000 steps
ETITLE: TS BOND ANGLE DIHED IMPRP ELECT VDW BOUNDARY MISC KINETIC TOTAL TEMP POTENTIAL TOTAL3 TEMPAVG PRESSURE GPRESSURE VOLUME PRESSAVG GPRESSAVG
ENERGY: 0 0.4442 0.9862 0.3197 0.0000 -23147.1950 3955.0741 0.0000 0.0000 2975.4937 -16214.8772 295.2744 -19190.3709 -16214.2672 295.2744 55.1665 96.9209 69717.0050 55.1665 96.9209
ENERGY: 5000 0.1668 1.8755 0.5646 0.0000 -24401.2405 4269.4221 0.0000 0.0000 305.2222 -19823.9893 30.2889 -20129.2115 -19823.2555 47.5112 272.5394 335.7539 48899.4114 -0.0253 -0.1124
ENERGY: 10000 0.3285 2.7006 0.5498 0.0000 -24475.1096 4316.4779 0.0000 0.0000 303.8114 -19851.2415 30.1489 -20155.0529 -19850.7779 30.1887 467.6366 520.8936 48786.2873 -0.7446 -0.9279
ENERGY: 15000 0.1538 1.5796 0.3752 0.0000 -24386.8390 4190.3987 0.0000 0.0000 303.9807 -19890.3509 30.1657 -20194.3317 -19889.3006 30.4070 -192.3204 -153.8316 48868.5063 3.3250 2.9825
ENERGY: 20000 0.8372 1.7204 0.4733 0.0000 -24349.9515 4142.9601 0.0000 0.0000 299.5449 -19904.4156 29.7255 -20203.9605 -19903.5297 30.0419 -451.1515 -410.4922 48858.0617 6.2527 6.1678
ENERGY: 25000 0.5341 1.7468 0.3733 0.0000 -24355.3882 4151.3088 0.0000 0.0000 309.2567 -19892.1687 30.6892 -20201.4253 -19891.4007 30.1901 -388.1358 -329.7185 48830.4280 3.6271 3.7064
TCL: Running 25000 steps at 60 kelvin.
TCL: Setting parameter langevinTemp to 60
TCL: Running for 25000 steps
ETITLE: TS BOND ANGLE DIHED IMPRP ELECT VDW BOUNDARY MISC KINETIC TOTAL TEMP POTENTIAL TOTAL3 TEMPAVG PRESSURE GPRESSURE VOLUME PRESSAVG GPRESSAVG
ENERGY: 25000 0.5341 1.7468 0.3733 0.0000 -24355.3882 4151.3088 0.0000 0.0000 309.1019 -19892.3234 30.6739 -20201.4253 -19891.6867 30.6739 -375.5022 -329.8470 48830.4280 -375.5022 -329.8470
ENERGY: 30000 0.8138 2.8428 0.4498 0.0000 -23955.5281 4032.6378 0.0000 0.0000 592.9378 -19325.8461 58.8404 -19918.7839 -19324.4216 56.9443 -368.7191 -322.7789 49116.5063 1.3296 1.4408
ENERGY: 35000 0.6660 2.1622 0.5161 0.0000 -23934.4018 4002.7315 0.0000 0.0000 600.7821 -19327.5438 59.6189 -19928.3259 -19326.3534 60.0732 -467.1305 -436.1067 48976.9584 9.4763 9.3787
ENERGY: 40000 0.6929 2.6933 0.5673 0.0000 -24087.1887 4148.9599 0.0000 0.0000 611.3341 -19322.9412 60.6660 -19934.2753 -19321.3737 60.0734 313.5691 357.8822 48720.7763 3.0833 3.1031
ENERGY: 45000 1.0534 3.2921 0.5998 0.0000 -24121.5402 4163.5514 0.0000 0.0000 600.5304 -19352.5129 59.5939 -19953.0434 -19351.3845 59.9615 329.7855 381.0219 48696.0221 0.5402 0.5273
ENERGY: 50000 0.6058 2.8404 0.2972 0.0000 -24084.5685 4113.7661 0.0000 0.0000 604.8567 -19362.2022 60.0232 -19967.0590 -19359.8236 60.5352 19.2654 91.4434 48713.9318 5.5929 5.4670
TCL: Running 25000 steps at 90 kelvin.
TCL: Setting parameter langevinTemp to 90
TCL: Running for 25000 steps
ETITLE: TS BOND ANGLE DIHED IMPRP ELECT VDW BOUNDARY MISC KINETIC TOTAL TEMP POTENTIAL TOTAL3 TEMPAVG PRESSURE GPRESSURE VOLUME PRESSAVG GPRESSAVG
ENERGY: 50000 0.6058 2.8404 0.2972 0.0000 -24084.5685 4113.7661 0.0000 0.0000 604.5632 -19362.4958 59.9941 -19967.0590 -19361.3069 59.9941 28.6123 91.9942 48713.9318 28.6123 91.9942
ENERGY: 55000 0.6434 3.2135 0.6529 0.0000 -23692.9513 4004.4288 0.0000 0.0000 932.1606 -18751.8521 92.5034 -19684.0127 -18748.6070 87.1590 104.0158 158.6424 49111.1983 -0.7777 -0.6675
ENERGY: 60000 1.7090 4.0704 0.7410 0.0000 -23806.5420 4113.3494 0.0000 0.0000 910.0850 -18776.5872 90.3127 -19686.6722 -18774.5112 90.3286 534.2380 583.7499 48988.6975 6.0335 5.7662
ENERGY: 65000 0.6440 3.3497 0.8274 0.0000 -23676.7872 3942.3823 0.0000 0.0000 899.9676 -18829.6161 89.3087 -19729.5838 -18827.5157 90.3978 -257.8646 -187.8547 48977.3238 6.0062 5.8341
ENERGY: 70000 1.4378 3.9106 1.2416 0.0000 -23774.1050 4019.6777 0.0000 0.0000 907.7253 -18840.1120 90.0785 -19747.8373 -18837.5747 90.4235 49.6506 105.9768 48952.6217 -0.2716 -0.0420
ENERGY: 75000 0.2594 3.2047 0.6551 0.0000 -23908.4034 4096.8744 0.0000 0.0000 910.2838 -18897.1260 90.3324 -19807.4098 -18894.9865 89.2504 373.2820 449.9605 48770.5654 2.2281 1.8746
TCL: Running 25000 steps at 120 kelvin.
TCL: Setting parameter langevinTemp to 120
TCL: Running for 25000 steps
ETITLE: TS BOND ANGLE DIHED IMPRP ELECT VDW BOUNDARY MISC KINETIC TOTAL TEMP POTENTIAL TOTAL3 TEMPAVG PRESSURE GPRESSURE VOLUME PRESSAVG GPRESSAVG
ENERGY: 75000 0.2594 3.2047 0.6551 0.0000 -23908.4034 4096.8744 0.0000 0.0000 909.8387 -18897.5711 90.2882 -19807.4098 -18895.8930 90.2882 395.3174 449.9866 48770.5654 395.3174 449.9866
ENERGY: 80000 1.4267 4.4267 0.5169 0.0000 -23300.9879 3890.9172 0.0000 0.0000 1219.7076 -18183.9928 121.0382 -19403.7004 -18181.6763 117.3060 82.1743 145.3484 49337.1148 -1.0391 -1.6361
ENERGY: 85000 0.8693 4.6010 0.9192 0.0000 -23466.4203 3981.5534 0.0000 0.0000 1221.5459 -18256.9315 121.2206 -19478.4774 -18254.2985 121.0270 358.9441 417.9879 49269.4543 2.8993 2.9381
ENERGY: 90000 1.7753 4.2876 1.0513 0.0000 -23259.6813 3766.1647 0.0000 0.0000 1234.7301 -18251.6723 122.5290 -19486.4024 -18248.5893 120.5889 -699.3791 -634.7244 49479.2086 1.0707 1.4050
ENERGY: 95000 0.1528 5.1203 1.3130 0.0000 -23383.3525 3892.7301 0.0000 0.0000 1225.3283 -18258.7080 121.5960 -19484.0363 -18257.3889 120.5660 77.5410 89.1879 49275.9279 6.6536 6.2546
ENERGY: 100000 0.9081 5.1435 1.2556 0.0000 -23584.8965 4058.8421 0.0000 0.0000 1189.9281 -18328.8192 118.0830 -19518.7473 -18326.0308 120.6469 654.7276 719.1062 49130.3683 4.0736 4.0759
TCL: Running 25000 steps at 150 kelvin.
TCL: Setting parameter langevinTemp to 150
TCL: Running for 25000 steps
ETITLE: TS BOND ANGLE DIHED IMPRP ELECT VDW BOUNDARY MISC KINETIC TOTAL TEMP POTENTIAL TOTAL3 TEMPAVG PRESSURE GPRESSURE VOLUME PRESSAVG GPRESSAVG
ENERGY: 100000 0.9081 5.1435 1.2556 0.0000 -23584.8965 4058.8421 0.0000 0.0000 1189.3362 -18329.4110 118.0243 -19518.7473 -18327.1474 118.0243 662.9425 718.7180 49130.3683 662.9425 718.7180
ENERGY: 105000 1.1519 7.3484 0.9322 0.0000 -22717.4880 3600.0422 0.0000 0.0000 1501.3693 -17606.6439 148.9890 -19108.0132 -17604.6598 145.0529 -882.3273 -789.9073 50008.8254 3.8883 3.4037
ENERGY: 110000 1.1347 7.4289 0.9649 0.0000 -22871.3897 3784.0340 0.0000 0.0000 1542.9858 -17534.8413 153.1189 -19077.8272 -17531.8273 150.4914 99.7144 190.2834 49782.0469 -0.2419 -0.0561
ENERGY: 115000 2.4117 5.4497 0.5422 0.0000 -22927.8966 3770.8906 0.0000 0.0000 1503.9154 -17644.6871 149.2417 -19148.6025 -17640.8095 150.8586 -85.3242 -22.5548 49790.4877 1.8512 2.2495
ENERGY: 120000 1.7981 4.6457 0.5276 0.0000 -23006.0861 3809.6131 0.0000 0.0000 1489.7903 -17699.7114 147.8400 -19189.5017 -17695.8786 149.9025 -35.3232 59.0213 49665.0640 3.4197 3.0090
ENERGY: 125000 3.1833 7.0223 1.5601 0.0000 -22960.0546 3768.5603 0.0000 0.0000 1505.9671 -17673.7615 149.4453 -19179.7286 -17671.6285 150.4397 -281.6856 -179.1012 49794.3317 6.5273 6.3364
TCL: Running 50000 steps at 180 kelvin.
TCL: Setting parameter langevinTemp to 180
TCL: Running for 50000 steps
ETITLE: TS BOND ANGLE DIHED IMPRP ELECT VDW BOUNDARY MISC KINETIC TOTAL TEMP POTENTIAL TOTAL3 TEMPAVG PRESSURE GPRESSURE VOLUME PRESSAVG GPRESSAVG
ENERGY: 125000 3.1833 7.0223 1.5601 0.0000 -22960.0546 3768.5603 0.0000 0.0000 1505.2103 -17674.5183 149.3702 -19179.7286 -17671.7722 149.3702 -239.6903 -180.4955 49794.3317 -239.6903 -180.4955
ENERGY: 135000 0.9160 5.8958 1.2537 0.0000 -22498.7704 3740.1189 0.0000 0.0000 1774.5751 -16976.0110 176.1007 -18750.5861 -16972.5594 179.9267 833.2502 871.9160 49316.1888 0.8675 1.0076
ENERGY: 145000 3.3607 8.5972 1.2381 0.0000 -22420.9130 3630.5051 0.0000 0.0000 1800.6739 -16976.5380 178.6907 -18777.2118 -16971.3515 181.4248 166.4925 211.1899 49487.2080 2.1321 1.9890
ENERGY: 155000 2.2198 6.4821 0.4578 0.0000 -22321.4274 3493.2902 0.0000 0.0000 1811.6842 -17007.2933 179.7833 -18818.9775 -17002.4930 179.6336 -686.9281 -668.7736 50214.8801 3.7166 3.4907
ENERGY: 165000 1.1526 7.1403 1.8485 0.0000 -22518.5330 3718.6046 0.0000 0.0000 1802.6838 -16987.1032 178.8901 -18789.7870 -16982.8103 179.9360 564.4311 612.2671 49259.2441 -5.0359 -4.5403
ENERGY: 175000 1.0720 7.1623 1.8789 0.0000 -22549.5625 3658.5918 0.0000 0.0000 1804.2828 -17076.5748 179.0488 -18880.8576 -17073.5426 179.0046 -30.8856 55.0167 49615.1757 0.7642 1.0495
TCL: Running 50000 steps at 210 kelvin.
TCL: Setting parameter langevinTemp to 210
TCL: Running for 50000 steps
ETITLE: TS BOND ANGLE DIHED IMPRP ELECT VDW BOUNDARY MISC KINETIC TOTAL TEMP POTENTIAL TOTAL3 TEMPAVG PRESSURE GPRESSURE VOLUME PRESSAVG GPRESSAVG
ENERGY: 175000 1.0720 7.1623 1.8789 0.0000 -22549.5625 3658.5918 0.0000 0.0000 1803.3607 -17077.4969 178.9573 -18880.8576 -17074.1025 178.9573 -3.5294 54.2734 49615.1757 -3.5294 54.2734
ENERGY: 185000 2.1498 9.9882 1.6153 0.0000 -21407.1315 3257.9775 0.0000 0.0000 2146.0241 -15989.3766 212.9616 -18135.4007 -15986.3835 208.8586 -313.0492 -254.6346 49681.6086 4.3048 4.0088
ENERGY: 195000 0.7568 8.2195 1.0904 0.0000 -21434.5468 3389.0814 0.0000 0.0000 2157.4292 -15877.9694 214.0934 -18035.3986 -15874.9860 211.4143 675.7782 755.5225 49267.2133 0.8443 1.0296
ENERGY: 205000 2.3780 8.2580 1.1924 0.0000 -21240.7020 3195.7353 0.0000 0.0000 2109.5810 -15923.5573 209.3452 -18033.1383 -15918.6170 210.2301 -364.1852 -287.3302 49572.0964 1.3843 2.0787
ENERGY: 215000 3.8433 10.5371 1.9084 0.0000 -21257.4443 3191.8446 0.0000 0.0000 2146.0608 -15903.2501 212.9653 -18049.3109 -15898.5082 210.1069 -47.6304 6.1193 48701.8772 3.5647 3.5117
ENERGY: 225000 0.8031 8.8430 0.7544 0.0000 -21398.6040 3293.7790 0.0000 0.0000 2135.9113 -15958.5132 211.9581 -18094.4245 -15953.1132 210.8589 -59.0194 48.7180 49706.2565 2.8973 2.4910
TCL: Running 50000 steps at 240 kelvin.
TCL: Setting parameter langevinTemp to 240
TCL: Running for 50000 steps
ETITLE: TS BOND ANGLE DIHED IMPRP ELECT VDW BOUNDARY MISC KINETIC TOTAL TEMP POTENTIAL TOTAL3 TEMPAVG PRESSURE GPRESSURE VOLUME PRESSAVG GPRESSAVG
ENERGY: 225000 0.8031 8.8430 0.7544 0.0000 -21398.6040 3293.7790 0.0000 0.0000 2134.8739 -15959.5506 211.8551 -18094.4245 -15955.3346 211.8551 -40.9173 49.6605 49706.2565 -40.9173 49.6605
ENERGY: 235000 1.6158 9.4461 1.9959 0.0000 -20091.4891 2829.0211 0.0000 0.0000 2433.9674 -14815.4429 241.5358 -17249.4102 -14809.1325 239.8272 -396.8583 -330.9448 49586.0647 5.8047 5.9703
ENERGY: 245000 2.0421 9.9988 0.8965 0.0000 -20204.3229 2940.5617 0.0000 0.0000 2401.0606 -14849.7632 238.2703 -17250.8238 -14845.0846 239.5256 -94.0584 -16.4374 50236.2151 0.4314 0.5328
ENERGY: 255000 2.7233 10.0086 1.1466 0.0000 -20316.0672 2929.8840 0.0000 0.0000 2420.7718 -14951.5328 240.2263 -17372.3047 -14944.9604 238.6097 -424.0174 -344.3518 50198.0220 3.1313 3.2585
ENERGY: 265000 1.7295 10.9100 1.4373 0.0000 -20370.6505 3022.4292 0.0000 0.0000 2397.2080 -14936.9366 237.8880 -17334.1446 -14932.1688 240.2219 378.6783 457.2377 49441.2137 6.3471 6.4373
ENERGY: 275000 3.5924 7.3860 2.3682 0.0000 -20231.3458 2985.8465 0.0000 0.0000 2452.7005 -14779.4523 243.3948 -17232.1528 -14775.9695 240.6684 166.2044 280.1084 50078.6782 -0.4088 -0.3871
TCL: Running 50000 steps at 270 kelvin.
TCL: Setting parameter langevinTemp to 270
TCL: Running for 50000 steps
ETITLE: TS BOND ANGLE DIHED IMPRP ELECT VDW BOUNDARY MISC KINETIC TOTAL TEMP POTENTIAL TOTAL3 TEMPAVG PRESSURE GPRESSURE VOLUME PRESSAVG GPRESSAVG
ENERGY: 275000 3.5924 7.3860 2.3682 0.0000 -20231.3458 2985.8465 0.0000 0.0000 2451.5104 -14780.6424 243.2767 -17232.1528 -14776.9496 243.2767 200.3849 279.3673 50078.6782 200.3849 279.3673
ENERGY: 285000 2.8010 13.3316 0.9562 0.0000 -19425.4885 2778.4284 0.0000 0.0000 2729.9212 -13900.0502 270.9049 -16629.9714 -13894.5727 272.7640 561.1433 587.5412 50323.6564 2.5062 2.8554
ENERGY: 295000 3.0712 11.7890 2.6012 0.0000 -19440.7437 2802.8423 0.0000 0.0000 2765.1335 -13855.3065 274.3992 -16620.4400 -13851.0427 269.7789 201.1564 343.0962 50973.9777 -0.2775 0.2461
ENERGY: 305000 1.2491 8.0415 3.1968 0.0000 -19195.3838 2642.9826 0.0000 0.0000 2654.0934 -13885.8204 263.3801 -16539.9138 -13878.6647 271.0389 -273.9103 -207.9034 51019.6800 -0.0919 0.1537
ENERGY: 315000 3.7041 7.6878 3.0054 0.0000 -19351.9584 2726.1252 0.0000 0.0000 2706.7614 -13904.6744 268.6066 -16611.4359 -13899.2762 267.2262 68.6532 180.2029 50602.6444 4.2708 4.4876
ENERGY: 325000 3.9999 9.7901 1.2027 0.0000 -19402.1288 2819.5083 0.0000 0.0000 2760.0425 -13807.5853 273.8940 -16567.6278 -13806.2868 270.8170 456.4544 584.3082 50990.5396 4.8318 5.2746
TCL: Running 1000000 steps at 300 kelvin.
TCL: Setting parameter langevinTemp to 300
TCL: Running for 1000000 steps
ETITLE: TS BOND ANGLE DIHED IMPRP ELECT VDW BOUNDARY MISC KINETIC TOTAL TEMP POTENTIAL TOTAL3 TEMPAVG PRESSURE GPRESSURE VOLUME PRESSAVG GPRESSAVG
ENERGY: 325000 3.9999 9.7901 1.2027 0.0000 -19402.1288 2819.5083 0.0000 0.0000 2758.7073 -13808.9205 273.7615 -16567.6278 -13804.4796 273.7615 486.1065 582.0080 50990.5396 486.1065 582.0080
ENERGY: 525000 2.3858 15.5147 1.2595 0.0000 -18461.1664 2625.5067 0.0000 0.0000 3043.6095 -12772.8902 302.0339 -15816.4998 -12769.6771 300.5673 458.9306 534.4084 53207.8526 2.4229 1.8841
ENERGY: 725000 1.9171 14.5847 1.5385 0.0000 -18246.2800 2431.3369 0.0000 0.0000 3026.2500 -12770.6528 300.3112 -15796.9028 -12765.4861 298.9307 -249.8482 -155.5179 52846.7605 2.3058 2.6160
ENERGY: 925000 2.8146 10.3545 1.2241 0.0000 -18264.5004 2508.7046 0.0000 0.0000 3028.1152 -12713.2874 300.4963 -15741.4026 -12706.9072 301.6530 209.2788 318.8199 52862.2356 5.2787 5.4658
ENERGY: 1125000 2.9194 7.4488 0.4458 0.0000 -18363.3205 2518.9868 0.0000 0.0000 3015.5047 -12818.0150 299.2449 -15833.5198 -12813.1648 301.5947 243.0807 335.3047 51971.4290 3.7943 3.6423
ENERGY: 1325000 1.0514 14.9338 2.4141 0.0000 -18246.8704 2358.3022 0.0000 0.0000 2931.2509 -12938.9180 290.8840 -15870.1690 -12931.6676 299.6540 -474.3129 -389.3436 52154.5289 0.2620 0.3708
TCL: Exiting due to exit command.
