Info: SIMULATION PARAMETERS:
Info: TIMESTEP               2
Info: NUMBER OF STEPS        0
Info: STEPS PER CYCLE        10
Info: PERIODIC CELL BASIS 1  31.8719 0 0
Info: PERIODIC CELL BASIS 2  0 31.431 0
Info: PERIODIC CELL BASIS 3  0 0 30.0693
Info: PERIODIC CELL CENTER   0 0 0
Info: WRAPPING WATERS AROUND PERIODIC BOUNDARIES ON OUTPUT.
Info: WRAPPING ALL CLUSTERS AROUND PERIODIC BOUNDARIES ON OUTPUT.
Info: FIRST LDB TIMESTEP     50
Info: LAST LDB TIMESTEP     -1
Info: HOM BACKGROUND SCALING 1
Info: PME BACKGROUND SCALING 1
Info: MIN ATOMS PER PATCH    40
Info: EMPTY PATCH LOAD       40 ATOMS
Info: VELOCITY FILE          mobley_6091882_equil.vel
Info: CENTER OF MASS MOVING INITIALLY? NO
Info: DIELECTRIC             1
Info: EXCLUDE                SCALED ONE-FOUR
Info: 1-4 ELECTROSTATICS SCALED BY 0.833333
Info: MODIFIED 1-4 VDW PARAMETERS WILL BE USED
Info: DCD FILENAME           mobley_6091882_prod.dcd
Info: DCD FREQUENCY          100000
Info: DCD FIRST STEP         100000
Info: DCD FILE WILL CONTAIN UNIT CELL DATA
Info: XST FILENAME           mobley_6091882_prod.xst
Info: XST FREQUENCY          100000
Info: NO VELOCITY DCD OUTPUT
Info: NO FORCE DCD OUTPUT
Info: OUTPUT FILENAME        mobley_6091882_prod
Info: BINARY OUTPUT FILES WILL BE USED
Info: RESTART FILENAME       mobley_6091882_prod.restart
Info: RESTART FREQUENCY      100000
Info: BINARY RESTART FILES WILL BE USED
Info: CUTOFF                 9
Info: PAIRLIST DISTANCE      11
Info: PAIRLIST SHRINK RATE   0.01
Info: PAIRLIST GROW RATE     0.01
Info: PAIRLIST TRIGGER       0.3
Info: PAIRLISTS PER CYCLE    2
Info: PAIRLISTS ENABLED
Info: MARGIN                 2
Info: HYDROGEN GROUP CUTOFF  2.5
Info: PATCH DIMENSION        15.5
Info: ENERGY OUTPUT STEPS    100000
Info: ENERGY EVALUATION STEPS    100000
Info: OUTPUT ENERGY PRECISION 4
Info: CROSSTERM ENERGY INCLUDED IN DIHEDRAL
Info: TIMING OUTPUT STEPS    1000000
Info: PRESSURE OUTPUT STEPS  100000
Info: ALCHEMICAL FEP ON
Info: FEP CURRENT LAMBDA VALUE     0
Info: FEP COMPARISON LAMBDA VALUE  0.05
Info: FEP INTRA-ALCHEMICAL NON-BONDED INTERACTIONS WILL BE RETAINED
Info: FEP INTRA-ALCHEMICAL BONDED INTERACTIONS WILL BE RETAINED
Info: FEP VDW SHIFTING COEFFICIENT 5
Info: FEP ELEC. ACTIVE FOR ANNIHILATED PARTICLES BETWEEN LAMBDA = 0 AND LAMBDA = 0.5
Info: FEP ELEC. ACTIVE FOR EXNIHILATED PARTICLES BETWEEN LAMBDA = 0.5 AND LAMBDA = 1
Info: FEP VDW ACTIVE FOR ANNIHILATED PARTICLES BETWEEN LAMBDA = 0 AND LAMBDA = 1
Info: FEP VDW ACTIVE FOR EXNIHILATED PARTICLES BETWEEN LAMBDA = 0 AND LAMBDA = 1
Info: FEP BOND ACTIVE FOR ANNIHILATED PARTICLES BETWEEN LAMBDA = 1 AND LAMBDA = 1
Info: FEP BOND ACTIVE FOR EXNIHILATED PARTICLES BETWEEN LAMBDA = 0 AND LAMBDA = 0
Info: LANGEVIN DYNAMICS ACTIVE
Info: LANGEVIN TEMPERATURE   300
Info: LANGEVIN USING BBK INTEGRATOR
Info: LANGEVIN DAMPING COEFFICIENT IS 1 INVERSE PS
Info: LANGEVIN DYNAMICS APPLIED TO HYDROGENS
Info: LANGEVIN PISTON PRESSURE CONTROL ACTIVE
Info:        TARGET PRESSURE IS 1.01325 BAR
Info:     OSCILLATION PERIOD IS 50 FS
Info:             DECAY TIME IS 25 FS
Info:     PISTON TEMPERATURE IS 300 K
Info:       PRESSURE CONTROL IS GROUP-BASED
Info:    INITIAL STRAIN RATE IS -0.00018885 -0.00018885 -0.00018885
Info:       CELL FLUCTUATION IS ISOTROPIC
Info: PARTICLE MESH EWALD (PME) ACTIVE
Info: PME TOLERANCE               1e-06
Info: PME EWALD COEFFICIENT       0.348832
Info: PME INTERPOLATION ORDER     4
Info: PME GRID DIMENSIONS         32 32 32
Info: PME MAXIMUM GRID SPACING    1
Info: PME CALCULATION WILL BE PERFORMED ON GPU
Info: FULL ELECTROSTATIC EVALUATION FREQUENCY      2
Info: USING VERLET I (r-RESPA) MTS SCHEME.
Info: C1 SPLITTING OF LONG RANGE ELECTROSTATICS
Info: PLACING ATOMS IN PATCHES BY HYDROGEN GROUPS
Info: RIGID BONDS TO HYDROGEN : ALL
Info:         ERROR TOLERANCE : 1e-08
Info:          MAX ITERATIONS : 100
Info: RIGID WATER USING SETTLE ALGORITHM
Info: RANDOM NUMBER SEED     1742471896
Info: USE HYDROGEN BONDS?    NO
Info: Using AMBER format force field!
Info: AMBER PARM FILE        mobley_6091882.prmtop
Info: COORDINATE PDB         mobley_6091882.pdb
Info: Exclusions will be read from PARM file!
Info: SCNB (VDW SCALING)     2
Info: USING ARITHMETIC MEAN TO COMBINE L-J SIGMA PARAMETERS
Info: BINARY COORDINATES     mobley_6091882_equil.coor
Info: SUMMARY OF PARAMETERS:
Info: 4 BONDS
Info: 2 ANGLES
Info:   2 HARMONIC
Info:   0 COSINE-BASED
Info: 1 DIHEDRAL
Info: 0 IMPROPER
Info: 0 CROSSTERM
Info: 0 VDW
Info: 10 VDW_PAIRS
Info: 0 NBTHOLE_PAIRS
Info: To read alchdata from file: mobley_6091882.pdb
Info: To read alchflag data from column: 5
Info: STRUCTURE SUMMARY:
Info: 2934 ATOMS
Info: 2933 BONDS
Info: 6 ANGLES
Info: 4 DIHEDRALS
Info: 0 IMPROPERS
Info: 0 CROSSTERMS
Info: 2943 EXCLUSIONS
Info: 2932 RIGID BONDS
Info: ALCH: 0 ATOMS TO DISAPPEAR IN FINAL STATE
Info: ALCH: 6 ATOMS TO APPEAR IN FINAL STATE
Info: 5870 DEGREES OF FREEDOM
Info: 978 HYDROGEN GROUPS
Info: 3 ATOMS IN LARGEST HYDROGEN GROUP
Info: 978 MIGRATION GROUPS
Info: 3 ATOMS IN LARGEST MIGRATION GROUP
Info: TOTAL MASS = 17611.7 amu
Info: TOTAL CHARGE = 0.000100002 e
Info: MASS DENSITY = 0.97089 g/cm^3
Info: ATOM DENSITY = 0.0974026 atoms/A^3
Info: ADDED 0 IMPLICIT EXCLUSIONS
Info: NONBONDED TABLE R-SQUARED SPACING: 0.0625
Info: NONBONDED TABLE SIZE: 705 POINTS
Info: REDUCING NUMBER OF PATCHES TO IMPROVE LOAD BALANCE
Info: REMOVING COM VELOCITY -0.0649294 0.0218087 -0.176072
Info: Use 3D box decompostion in PME FFT.
Info: Updated CUDA force table with 4096 elements.
Info: Updated CUDA LJ table with 4 x 4 elements.
Info: Found 9 unique exclusion lists needing 12 bytes
TCL: Running for 1500000 steps
ETITLE: TS BOND ANGLE DIHED IMPRP ELECT VDW BOUNDARY MISC KINETIC TOTAL TEMP POTENTIAL TOTALAVG TEMPAVG PRESSURE GPRESSURE VOLUME PRESSAVG GPRESSAVG
ENERGY: 0 0.1455 1.8535 0.5729 0.0000 -10645.0069 1440.7633 0.0000 0.0000 1752.4842 -7449.1875 300.4736 -9201.6717 -7449.1875 300.4736 114.4588 203.9586 30122.4087 114.4588 203.9586
ENERGY: 300000 1.2154 0.4863 0.2380 0.0000 -10757.0300 1474.1516 0.0000 0.0000 1783.7507 -7497.1879 305.8345 -9280.9387 -7457.2383 299.5270 -3.5506 73.8785 30224.5205 44.3207 122.6777
ENERGY: 600000 0.0606 1.5297 0.3620 0.0000 -10614.2467 1444.0112 0.0000 0.0000 1801.6365 -7366.6468 308.9011 -9168.2833 -7463.2214 300.8070 182.1902 273.2916 30080.9466 -36.8285 37.4625
ENERGY: 900000 0.2321 2.6188 3.8251 0.0000 -10551.9939 1332.8483 0.0000 0.0000 1776.5534 -7435.9161 304.6005 -9212.4695 -7465.8521 300.4141 -1066.2265 -999.4876 30558.0738 -72.2299 -6.6172
ENERGY: 1200000 0.2101 2.0232 1.0260 0.0000 -10650.8141 1437.3018 0.0000 0.0000 1757.0560 -7453.1969 301.2575 -9210.2529 -7470.7621 300.1230 22.5943 111.0732 30139.0072 -88.1042 -18.6918
ENERGY: 1500000 0.1004 1.5707 0.5026 0.0000 -10805.5108 1544.0850 0.0000 0.0000 1751.1598 -7508.0923 300.2466 -9259.2521 -7470.5451 300.1121 736.0738 835.2542 30058.0229 31.6027 103.6675
TCL: Running FEP window   2: Lambda1 0.05   Lambda2 0.1    [dLambda 0.05  ]
TCL: Setting parameter firsttimestep to 0
TCL: Setting parameter alchLambda to 0.05
Info: NONBONDED TABLE R-SQUARED SPACING: 0.0625
Info: NONBONDED TABLE SIZE: 705 POINTS
TCL: Setting parameter alchLambda2 to 0.1
Info: NONBONDED TABLE R-SQUARED SPACING: 0.0625
Info: NONBONDED TABLE SIZE: 705 POINTS
TCL: Running for 1500000 steps
ETITLE: TS BOND ANGLE DIHED IMPRP ELECT VDW BOUNDARY MISC KINETIC TOTAL TEMP POTENTIAL TOTALAVG TEMPAVG PRESSURE GPRESSURE VOLUME PRESSAVG GPRESSAVG
ENERGY: 0 0.1004 1.5707 0.5026 0.0000 -10805.5114 1544.1459 0.0000 0.0000 1750.2697 -7508.9221 300.0940 -9259.1918 -7508.9221 300.0940 745.3859 834.4366 30058.0229 745.3859 834.4366
ENERGY: 300000 0.0141 2.4593 0.5194 0.0000 -10738.0176 1453.5330 0.0000 0.0000 1754.3447 -7527.1471 300.7926 -9281.4918 -7506.0121 300.5244 105.3547 168.7919 29679.6632 317.7201 379.9856
ENERGY: 600000 0.4440 1.4833 0.8433 0.0000 -10694.7703 1454.7368 0.0000 0.0000 1721.6046 -7515.6583 295.1792 -9237.2629 -7508.5110 298.8169 232.7656 296.9283 29685.3332 92.5094 151.6963
ENERGY: 900000 0.1315 2.9224 0.9300 0.0000 -10708.2447 1445.8510 0.0000 0.0000 1731.1095 -7527.3002 296.8088 -9258.4097 -7491.9714 300.1784 172.4778 159.1366 29880.2564 90.5223 133.7227
ENERGY: 1200000 0.1136 1.5650 1.5097 0.0000 -10550.8888 1377.9476 0.0000 0.0000 1745.1553 -7424.5975 299.2171 -9169.7529 -7479.0443 300.7201 -413.5045 -368.4917 30490.5879 70.1531 109.4672
ENERGY: 1500000 0.2014 0.3381 1.2677 0.0000 -10701.8976 1490.6896 0.0000 0.0000 1728.4108 -7480.9902 296.3461 -9209.4009 -7483.2392 300.0417 472.4107 491.8106 30240.1306 42.6306 82.2823
TCL: Running FEP window   3: Lambda1 0.1    Lambda2 0.15000000000000002 [dLambda 0.05000000000000002]
TCL: Setting parameter firsttimestep to 0
TCL: Setting parameter alchLambda to 0.1
Info: NONBONDED TABLE R-SQUARED SPACING: 0.0625
Info: NONBONDED TABLE SIZE: 705 POINTS
TCL: Setting parameter alchLambda2 to 0.15000000000000002
Info: NONBONDED TABLE R-SQUARED SPACING: 0.0625
Info: NONBONDED TABLE SIZE: 705 POINTS
TCL: Running for 1500000 steps
ETITLE: TS BOND ANGLE DIHED IMPRP ELECT VDW BOUNDARY MISC KINETIC TOTAL TEMP POTENTIAL TOTALAVG TEMPAVG PRESSURE GPRESSURE VOLUME PRESSAVG GPRESSAVG
ENERGY: 0 0.2014 0.3381 1.2677 0.0000 -10701.8947 1490.9462 0.0000 0.0000 1727.5649 -7481.5765 296.2011 -9209.1413 -7481.5765 296.2011 416.7031 493.9124 30240.1306 416.7031 493.9124
ENERGY: 300000 0.0037 1.3487 0.5434 0.0000 -10660.3732 1388.3727 0.0000 0.0000 1730.4494 -7539.6553 296.6957 -9270.1047 -7498.4412 297.8501 -599.7698 -560.5506 30238.6800 -123.0246 -62.8796
ENERGY: 600000 0.4616 0.5963 3.0446 0.0000 -10780.4189 1471.3719 0.0000 0.0000 1724.5742 -7580.3703 295.6883 -9304.9445 -7490.2902 298.4328 -9.7952 76.3770 30156.2282 -88.2407 -28.4110
ENERGY: 900000 0.6808 0.6117 0.4954 0.0000 -10648.8201 1413.1783 0.0000 0.0000 1750.5000 -7483.3538 300.1334 -9233.8538 -7487.3614 298.7629 -175.5303 -136.8802 30177.3135 -34.3127 27.5137
ENERGY: 1200000 0.0323 0.8193 1.8386 0.0000 -10592.1877 1410.0156 0.0000 0.0000 1711.1964 -7468.2855 293.3946 -9179.4818 -7491.7121 297.8784 -85.6410 -31.2567 30130.2776 -36.2502 24.2808
ENERGY: 1500000 1.7609 0.7295 0.5063 0.0000 -10604.7043 1389.8183 0.0000 0.0000 1731.7894 -7480.0999 296.9254 -9211.8893 -7483.9998 298.8137 -720.0972 -617.4290 30518.2988 -122.7611 -59.4112
TCL: Running FEP window   4: Lambda1 0.15000000000000002 Lambda2 0.2    [dLambda 0.04999999999999999]
TCL: Setting parameter firsttimestep to 0
TCL: Setting parameter alchLambda to 0.15000000000000002
Info: NONBONDED TABLE R-SQUARED SPACING: 0.0625
Info: NONBONDED TABLE SIZE: 705 POINTS
TCL: Setting parameter alchLambda2 to 0.2
Info: NONBONDED TABLE R-SQUARED SPACING: 0.0625
Info: NONBONDED TABLE SIZE: 705 POINTS
TCL: Running for 1500000 steps
ETITLE: TS BOND ANGLE DIHED IMPRP ELECT VDW BOUNDARY MISC KINETIC TOTAL TEMP POTENTIAL TOTALAVG TEMPAVG PRESSURE GPRESSURE VOLUME PRESSAVG GPRESSAVG
ENERGY: 0 1.7609 0.7295 0.5063 0.0000 -10604.7025 1390.2353 0.0000 0.0000 1730.9260 -7480.5446 296.7774 -9211.4705 -7480.5446 296.7774 -714.2499 -611.8783 30518.2988 -714.2499 -611.8783
ENERGY: 300000 0.0000 2.1107 0.4707 0.0000 -10735.8705 1512.8674 0.0000 0.0000 1773.4695 -7446.9522 304.0717 -9220.4217 -7451.9293 300.2321 731.3422 806.4303 29922.9323 -93.2274 -16.1875
ENERGY: 600000 0.3181 0.9061 1.9914 0.0000 -10586.1885 1412.5558 0.0000 0.0000 1788.2164 -7382.2008 306.6001 -9170.4172 -7468.4793 300.0744 40.9322 118.4358 30196.5089 106.1871 183.0622
ENERGY: 900000 0.0078 3.5112 1.7752 0.0000 -10685.3365 1446.1992 0.0000 0.0000 1759.6088 -7474.2343 301.6952 -9233.8431 -7460.0110 301.1207 245.3841 268.0048 29906.1269 80.4555 149.2651
ENERGY: 1200000 0.6515 0.1803 1.3330 0.0000 -10754.2080 1533.9564 0.0000 0.0000 1744.3975 -7473.6893 299.0871 -9218.0868 -7472.3485 299.9102 891.3319 970.4262 29972.2667 46.9930 117.8660
ENERGY: 1500000 0.2974 0.4175 0.7290 0.0000 -10563.2996 1350.9607 0.0000 0.0000 1743.1815 -7467.7136 298.8786 -9210.8951 -7472.9999 299.7285 -557.1303 -536.5769 30316.3668 -56.0121 8.3036
TCL: Running FEP window   5: Lambda1 0.2    Lambda2 0.25   [dLambda 0.04999999999999999]
TCL: Setting parameter firsttimestep to 0
TCL: Setting parameter alchLambda to 0.2
Info: NONBONDED TABLE R-SQUARED SPACING: 0.0625
Info: NONBONDED TABLE SIZE: 705 POINTS
TCL: Setting parameter alchLambda2 to 0.25
Info: NONBONDED TABLE R-SQUARED SPACING: 0.0625
Info: NONBONDED TABLE SIZE: 705 POINTS
TCL: Running for 1500000 steps
ETITLE: TS BOND ANGLE DIHED IMPRP ELECT VDW BOUNDARY MISC KINETIC TOTAL TEMP POTENTIAL TOTALAVG TEMPAVG PRESSURE GPRESSURE VOLUME PRESSAVG GPRESSAVG
ENERGY: 0 0.2974 0.4175 0.7290 0.0000 -10563.2996 1350.8713 0.0000 0.0000 1742.2867 -7468.6978 298.7252 -9210.9844 -7468.6978 298.7252 -606.4526 -534.4232 30316.3668 -606.4526 -534.4232
ENERGY: 300000 0.8089 1.9861 0.9513 0.0000 -10661.5523 1483.3623 0.0000 0.0000 1843.4878 -7330.9558 316.0767 -9174.4436 -7469.6949 301.3052 541.0719 561.5973 30079.8465 -173.1425 -104.8367
ENERGY: 600000 0.0695 0.2145 0.6460 0.0000 -10661.4131 1324.4378 0.0000 0.0000 1782.7608 -7553.2845 305.6647 -9336.0453 -7498.1539 299.9174 -1247.4168 -1194.3000 30164.1369 -320.1371 -247.9080
ENERGY: 900000 0.2733 0.5375 1.2086 0.0000 -10675.6549 1469.6958 0.0000 0.0000 1761.1963 -7442.7433 301.9674 -9203.9397 -7487.3870 299.4594 277.5578 319.9693 30238.9480 -254.7061 -190.7331
ENERGY: 1200000 0.0386 1.1082 1.8596 0.0000 -10587.5805 1390.7858 0.0000 0.0000 1782.2791 -7411.5092 305.5822 -9193.7883 -7472.7473 300.7018 1.4171 115.2648 29643.3226 -96.6775 -38.0224
ENERGY: 1500000 0.0017 3.3432 0.2082 0.0000 -10657.9202 1401.4275 0.0000 0.0000 1764.4487 -7488.4908 302.5250 -9252.9396 -7479.1686 300.1667 -394.9582 -285.0421 30157.3525 -171.8405 -109.8463
TCL: Running FEP window   6: Lambda1 0.25   Lambda2 0.3    [dLambda 0.04999999999999999]
TCL: Setting parameter firsttimestep to 0
TCL: Setting parameter alchLambda to 0.25
Info: NONBONDED TABLE R-SQUARED SPACING: 0.0625
Info: NONBONDED TABLE SIZE: 705 POINTS
TCL: Setting parameter alchLambda2 to 0.3
Info: NONBONDED TABLE R-SQUARED SPACING: 0.0625
Info: NONBONDED TABLE SIZE: 705 POINTS
TCL: Running for 1500000 steps
ETITLE: TS BOND ANGLE DIHED IMPRP ELECT VDW BOUNDARY MISC KINETIC TOTAL TEMP POTENTIAL TOTALAVG TEMPAVG PRESSURE GPRESSURE VOLUME PRESSAVG GPRESSAVG
ENERGY: 0 0.0017 3.3432 0.2082 0.0000 -10657.9214 1401.6998 0.0000 0.0000 1763.5444 -7489.1242 302.3700 -9252.6685 -7489.1242 302.3700 -376.3925 -281.9837 30157.3525 -376.3925 -281.9837
ENERGY: 300000 0.2333 0.4127 0.6237 0.0000 -10777.7548 1495.9272 0.0000 0.0000 1754.1397 -7526.4182 300.7575 -9280.5578 -7484.7051 302.0129 278.4431 357.4466 29971.4826 -177.6471 -92.4562
ENERGY: 600000 0.0017 0.0883 1.2366 0.0000 -10571.3946 1378.1895 0.0000 0.0000 1710.5995 -7481.2789 293.2923 -9191.8784 -7497.6270 298.0289 -432.0214 -366.3550 30047.4381 -194.2028 -121.4582
ENERGY: 900000 0.9642 1.3531 0.3440 0.0000 -10592.0440 1419.7827 0.0000 0.0000 1750.5549 -7419.0450 300.1429 -9169.5999 -7482.5952 299.3124 244.3513 302.7195 29885.0559 15.9680 77.6507
ENERGY: 1200000 0.2641 0.8060 0.0759 0.0000 -10864.0291 1537.2903 0.0000 0.0000 1723.9003 -7601.6925 295.5728 -9325.5928 -7488.0447 299.1753 470.0202 533.8517 29974.6765 74.0157 134.3100
ENERGY: 1500000 0.0108 1.3296 3.6734 0.0000 -10523.8075 1353.9204 0.0000 0.0000 1751.3214 -7413.5519 300.2743 -9164.8734 -7478.3636 299.9076 -653.0977 -667.6929 30672.1486 1.1541 57.8356
TCL: Running FEP window   7: Lambda1 0.3    Lambda2 0.35   [dLambda 0.04999999999999999]
TCL: Setting parameter firsttimestep to 0
TCL: Setting parameter alchLambda to 0.3
Info: NONBONDED TABLE R-SQUARED SPACING: 0.0625
Info: NONBONDED TABLE SIZE: 705 POINTS
TCL: Setting parameter alchLambda2 to 0.35
Info: NONBONDED TABLE R-SQUARED SPACING: 0.0625
Info: NONBONDED TABLE SIZE: 705 POINTS
TCL: Running for 1500000 steps
ETITLE: TS BOND ANGLE DIHED IMPRP ELECT VDW BOUNDARY MISC KINETIC TOTAL TEMP POTENTIAL TOTALAVG TEMPAVG PRESSURE GPRESSURE VOLUME PRESSAVG GPRESSAVG
ENERGY: 0 0.0108 1.3296 3.6734 0.0000 -10523.8073 1353.8273 0.0000 0.0000 1750.4351 -7414.5312 300.1223 -9164.9663 -7414.5312 300.1223 -753.8808 -668.9219 30672.1486 -753.8808 -668.9219
ENERGY: 300000 0.0323 2.3908 0.2515 0.0000 -10574.6117 1386.8866 0.0000 0.0000 1732.1548 -7452.8956 296.9881 -9185.0504 -7429.1579 302.1203 -467.5426 -488.4638 30630.5345 -242.1159 -184.8226
ENERGY: 600000 0.0050 3.4346 1.0582 0.0000 -10706.9084 1463.8697 0.0000 0.0000 1789.9408 -7448.6001 306.8958 -9238.5409 -7448.3186 301.2905 53.1855 215.9317 30035.8014 -230.3267 -151.8352
ENERGY: 900000 0.1768 0.4049 0.5570 0.0000 -10457.1467 1314.8631 0.0000 0.0000 1795.2591 -7345.8857 307.8077 -9141.1448 -7452.3093 301.9806 -810.0676 -743.1670 30524.1777 -303.6011 -227.1729
ENERGY: 1200000 0.1277 1.0296 0.3789 0.0000 -10701.1359 1422.0091 0.0000 0.0000 1716.3990 -7561.1916 294.2866 -9277.5906 -7466.7631 301.2518 -23.1681 -88.8745 29892.7036 -288.7437 -227.1262
ENERGY: 1500000 0.0243 0.3093 0.6686 0.0000 -10720.3232 1515.4198 0.0000 0.0000 1758.3807 -7445.5204 301.4846 -9203.9011 -7466.7798 300.9678 766.7719 909.6057 29709.3237 -153.3015 -89.9479
TCL: Running FEP window   8: Lambda1 0.35   Lambda2 0.39999999999999997 [dLambda 0.04999999999999999]
TCL: Setting parameter firsttimestep to 0
TCL: Setting parameter alchLambda to 0.35
Info: NONBONDED TABLE R-SQUARED SPACING: 0.0625
Info: NONBONDED TABLE SIZE: 705 POINTS
TCL: Setting parameter alchLambda2 to 0.39999999999999997
Info: NONBONDED TABLE R-SQUARED SPACING: 0.0625
Info: NONBONDED TABLE SIZE: 705 POINTS
TCL: Running for 1500000 steps
ETITLE: TS BOND ANGLE DIHED IMPRP ELECT VDW BOUNDARY MISC KINETIC TOTAL TEMP POTENTIAL TOTALAVG TEMPAVG PRESSURE GPRESSURE VOLUME PRESSAVG GPRESSAVG
ENERGY: 0 0.0243 0.3093 0.6686 0.0000 -10720.3237 1515.5136 0.0000 0.0000 1757.4960 -7446.3117 301.3330 -9203.8078 -7446.3117 301.3330 825.6921 910.0402 29709.3237 825.6921 910.0402
ENERGY: 300000 0.0003 1.8250 1.4225 0.0000 -10526.1653 1358.6686 0.0000 0.0000 1725.8963 -7438.3526 295.9150 -9164.2488 -7432.6260 299.3714 -337.3543 -360.4899 30073.6901 188.7677 249.1744
ENERGY: 600000 0.1214 2.0149 0.8845 0.0000 -10593.0473 1383.3556 0.0000 0.0000 1800.7210 -7405.9501 308.7441 -9206.6710 -7424.9339 303.4649 -431.0161 -392.2351 30452.2970 236.5172 292.3626
ENERGY: 900000 0.6933 0.9030 0.2120 0.0000 -10502.1629 1429.1191 0.0000 0.0000 1788.1175 -7283.1180 306.5832 -9071.2356 -7431.6741 302.4633 64.9090 107.9573 30735.3507 211.3612 269.9550
ENERGY: 1200000 0.0614 1.3310 0.4727 0.0000 -10718.7504 1434.2286 0.0000 0.0000 1748.2901 -7534.3665 299.7545 -9282.6566 -7442.0586 301.4725 -66.9818 -20.7968 29866.8155 175.6548 232.0264
ENERGY: 1500000 1.1657 0.2100 1.0434 0.0000 -10553.8241 1440.8138 0.0000 0.0000 1747.0371 -7363.5543 299.5397 -9110.5914 -7444.5908 300.8813 266.2396 302.9985 30364.7958 127.6663 190.0346
TCL: Running FEP window   9: Lambda1 0.39999999999999997 Lambda2 0.44999999999999996 [dLambda 0.04999999999999999]
TCL: Setting parameter firsttimestep to 0
TCL: Setting parameter alchLambda to 0.39999999999999997
Info: NONBONDED TABLE R-SQUARED SPACING: 0.0625
Info: NONBONDED TABLE SIZE: 705 POINTS
TCL: Setting parameter alchLambda2 to 0.44999999999999996
Info: NONBONDED TABLE R-SQUARED SPACING: 0.0625
Info: NONBONDED TABLE SIZE: 705 POINTS
TCL: Running for 1500000 steps
ETITLE: TS BOND ANGLE DIHED IMPRP ELECT VDW BOUNDARY MISC KINETIC TOTAL TEMP POTENTIAL TOTALAVG TEMPAVG PRESSURE GPRESSURE VOLUME PRESSAVG GPRESSAVG
ENERGY: 0 1.1657 0.2100 1.0434 0.0000 -10553.8246 1440.7554 0.0000 0.0000 1746.2023 -7364.4480 299.3966 -9110.6503 -7364.4480 299.3966 222.2594 303.4528 30364.7958 222.2594 303.4528
ENERGY: 300000 0.6284 1.5081 0.7834 0.0000 -10773.1393 1490.8571 0.0000 0.0000 1757.1841 -7522.1781 301.2795 -9279.3622 -7496.8893 301.4566 217.0686 336.8581 29945.8292 1.6762 76.0570
ENERGY: 600000 0.5434 3.0684 0.8316 0.0000 -10619.8717 1400.6485 0.0000 0.0000 1740.4613 -7474.3186 298.4123 -9214.7799 -7491.4557 299.7256 -328.6997 -300.1296 30347.0039 -130.7030 -71.1907
ENERGY: 900000 0.6569 1.2705 0.6532 0.0000 -10657.6194 1482.8955 0.0000 0.0000 1707.6529 -7464.4903 292.7871 -9172.1433 -7483.9987 299.6555 343.7691 424.0595 30319.8335 -57.1952 5.7102
ENERGY: 1200000 0.0525 1.0900 0.6859 0.0000 -10694.1261 1502.8095 0.0000 0.0000 1765.4335 -7424.0547 302.6939 -9189.4882 -7473.2817 299.3661 512.1161 512.6658 30316.5722 13.5627 78.9385
ENERGY: 1500000 0.0066 0.4951 1.4339 0.0000 -10782.5769 1490.6017 0.0000 0.0000 1729.5569 -7560.4827 296.5426 -9290.0396 -7471.4113 299.4375 361.2324 472.1432 29687.4567 -18.4073 50.1885
TCL: Running FEP window  10: Lambda1 0.44999999999999996 Lambda2 0.49999999999999994 [dLambda 0.04999999999999999]
TCL: Setting parameter firsttimestep to 0
TCL: Setting parameter alchLambda to 0.44999999999999996
Info: NONBONDED TABLE R-SQUARED SPACING: 0.0625
Info: NONBONDED TABLE SIZE: 705 POINTS
TCL: Setting parameter alchLambda2 to 0.49999999999999994
Info: NONBONDED TABLE R-SQUARED SPACING: 0.0625
Info: NONBONDED TABLE SIZE: 705 POINTS
TCL: Running for 1500000 steps
ETITLE: TS BOND ANGLE DIHED IMPRP ELECT VDW BOUNDARY MISC KINETIC TOTAL TEMP POTENTIAL TOTALAVG TEMPAVG PRESSURE GPRESSURE VOLUME PRESSAVG GPRESSAVG
ENERGY: 0 0.0066 0.4951 1.4339 0.0000 -10782.5777 1491.2523 0.0000 0.0000 1728.6595 -7560.7302 296.3888 -9289.3897 -7560.7302 296.3888 400.9660 480.7032 29687.4567 400.9660 480.7032
ENERGY: 300000 0.0960 0.4479 0.1073 0.0000 -10562.7547 1363.3066 0.0000 0.0000 1803.8900 -7394.9070 309.2875 -9198.7969 -7468.4472 299.9087 -426.1520 -368.4472 30081.1793 -69.9221 -4.9720
ENERGY: 600000 0.0923 0.2716 0.1438 0.0000 -10542.8387 1367.7531 0.0000 0.0000 1714.9123 -7459.6656 294.0317 -9174.5779 -7468.3129 300.3708 -331.1789 -303.7439 30097.3866 -186.9143 -123.2126
ENERGY: 900000 0.0002 0.5318 1.0323 0.0000 -10663.9836 1435.2679 0.0000 0.0000 1806.0019 -7421.1495 309.6496 -9227.1513 -7459.2194 301.1221 -153.7820 -34.4312 30418.0072 -187.8783 -118.1558
ENERGY: 1200000 0.0058 1.5792 1.5433 0.0000 -10745.7322 1426.5705 0.0000 0.0000 1737.0255 -7579.0079 297.8232 -9316.0334 -7480.8554 299.9646 -369.2254 -257.9858 30065.3610 -194.4370 -119.5926
ENERGY: 1500000 0.3943 2.9947 0.5977 0.0000 -10517.5797 1335.5310 0.0000 0.0000 1763.7333 -7414.3288 302.4024 -9178.0620 -7462.3953 301.1768 -668.6594 -604.5336 30459.4968 -190.2963 -116.8281
TCL: Running FEP window  11: Lambda1 0.49999999999999994 Lambda2 0.5499999999999999 [dLambda 0.04999999999999999]
TCL: Setting parameter firsttimestep to 0
TCL: Setting parameter alchLambda to 0.49999999999999994
Info: NONBONDED TABLE R-SQUARED SPACING: 0.0625
Info: NONBONDED TABLE SIZE: 705 POINTS
TCL: Setting parameter alchLambda2 to 0.5499999999999999
Info: NONBONDED TABLE R-SQUARED SPACING: 0.0625
Info: NONBONDED TABLE SIZE: 705 POINTS
TCL: Running for 1500000 steps
ETITLE: TS BOND ANGLE DIHED IMPRP ELECT VDW BOUNDARY MISC KINETIC TOTAL TEMP POTENTIAL TOTALAVG TEMPAVG PRESSURE GPRESSURE VOLUME PRESSAVG GPRESSAVG
ENERGY: 0 0.3943 2.9947 0.5977 0.0000 -10517.5804 1335.2940 0.0000 0.0000 1762.8946 -7415.4052 302.2586 -9178.2998 -7415.4052 302.2586 -687.6270 -603.1674 30459.4968 -687.6270 -603.1674
ENERGY: 300000 0.3747 1.0279 0.9705 0.0000 -10763.5552 1485.1690 0.0000 0.0000 1695.7373 -7580.2758 290.7441 -9276.0131 -7451.0886 300.3173 115.6052 263.0705 30120.4272 -117.0235 -12.7495
ENERGY: 600000 0.0021 0.9076 0.3711 0.0000 -10595.5079 1372.8527 0.0000 0.0000 1730.3075 -7491.0668 296.6713 -9221.3742 -7461.0426 299.4310 -577.2762 -513.8572 30593.3600 -162.9698 -72.6999
ENERGY: 900000 0.0079 0.7866 1.2591 0.0000 -10844.5980 1513.6508 0.0000 0.0000 1835.3871 -7493.5065 314.6878 -9328.8936 -7464.1238 299.6830 527.6649 583.4091 29893.6333 -165.2808 -82.9960
ENERGY: 1200000 0.0005 0.3653 1.9460 0.0000 -10750.0442 1496.8346 0.0000 0.0000 1733.8465 -7517.0512 297.2781 -9250.8977 -7462.4615 299.9904 363.6175 373.9662 30139.1074 -18.2833 57.1976
ENERGY: 1500000 0.0262 1.9664 0.8202 0.0000 -10689.1381 1517.8622 0.0000 0.0000 1807.8831 -7360.5800 309.9721 -9168.4631 -7450.7268 300.8358 890.8070 920.0241 30194.7837 68.8718 143.9167
TCL: Running FEP window  12: Lambda1 0.5499999999999999 Lambda2 0.6    [dLambda 0.050000000000000044]
TCL: Setting parameter firsttimestep to 0
TCL: Setting parameter alchLambda to 0.5499999999999999
Info: NONBONDED TABLE R-SQUARED SPACING: 0.0625
Info: NONBONDED TABLE SIZE: 705 POINTS
TCL: Setting parameter alchLambda2 to 0.6
Info: NONBONDED TABLE R-SQUARED SPACING: 0.0625
Info: NONBONDED TABLE SIZE: 705 POINTS
TCL: Running for 1500000 steps
ETITLE: TS BOND ANGLE DIHED IMPRP ELECT VDW BOUNDARY MISC KINETIC TOTAL TEMP POTENTIAL TOTALAVG TEMPAVG PRESSURE GPRESSURE VOLUME PRESSAVG GPRESSAVG
ENERGY: 0 0.0262 1.9664 0.8202 0.0000 -10689.1853 1517.8741 0.0000 0.0000 1806.9507 -7361.5477 309.8122 -9168.4983 -7361.5477 309.8122 838.7967 922.9240 30194.7837 838.7967 922.9240
ENERGY: 300000 0.0647 0.6458 2.7548 0.0000 -10653.9462 1415.7992 0.0000 0.0000 1757.1361 -7477.5455 301.2713 -9234.6816 -7469.4760 299.4249 -226.9597 -168.4949 30132.2208 120.0906 179.5816
ENERGY: 600000 0.0075 0.6307 0.5899 0.0000 -10595.6464 1384.6067 0.0000 0.0000 1747.1120 -7462.6996 299.5526 -9209.8116 -7475.1996 300.3887 -200.7498 -112.4951 30032.0458 12.6676 85.6872
ENERGY: 900000 0.1198 3.5824 0.7230 0.0000 -10636.6032 1386.3317 0.0000 0.0000 1757.6970 -7488.1493 301.3674 -9245.8463 -7464.5664 301.2109 -219.1320 -198.2234 30026.6860 79.5588 134.5949
ENERGY: 1200000 0.1732 1.6539 1.5974 0.0000 -10532.5592 1388.5462 0.0000 0.0000 1726.2279 -7414.3606 295.9719 -9140.5885 -7466.7270 300.4177 -447.9278 -331.8513 30593.5970 -39.7950 17.7224
ENERGY: 1500000 0.1478 0.6359 1.0734 0.0000 -10564.7534 1364.4970 0.0000 0.0000 1777.3367 -7421.0624 304.7348 -9198.3991 -7458.2168 300.9209 -537.8692 -559.8648 30489.0047 -33.5751 19.7281
TCL: Running FEP window  13: Lambda1 0.6    Lambda2 0.65   [dLambda 0.050000000000000044]
TCL: Setting parameter firsttimestep to 0
TCL: Setting parameter alchLambda to 0.6
Info: NONBONDED TABLE R-SQUARED SPACING: 0.0625
Info: NONBONDED TABLE SIZE: 705 POINTS
TCL: Setting parameter alchLambda2 to 0.65
Info: NONBONDED TABLE R-SQUARED SPACING: 0.0625
Info: NONBONDED TABLE SIZE: 705 POINTS
TCL: Running for 1500000 steps
ETITLE: TS BOND ANGLE DIHED IMPRP ELECT VDW BOUNDARY MISC KINETIC TOTAL TEMP POTENTIAL TOTALAVG TEMPAVG PRESSURE GPRESSURE VOLUME PRESSAVG GPRESSAVG
ENERGY: 0 0.1478 0.6359 1.0734 0.0000 -10564.8224 1364.2654 0.0000 0.0000 1776.4591 -7422.2407 304.5843 -9198.6998 -7422.2407 304.5843 -629.6978 -560.3903 30489.0047 -629.6978 -560.3903
ENERGY: 300000 0.0797 0.6910 0.4884 0.0000 -10653.6948 1468.0759 0.0000 0.0000 1756.9285 -7427.4313 301.2356 -9184.3598 -7441.7460 303.0325 410.7219 462.3104 30174.2825 -10.3764 38.6396
ENERGY: 600000 0.1826 0.6546 0.7914 0.0000 -10710.7834 1408.9627 0.0000 0.0000 1736.9238 -7563.2683 297.8057 -9300.1921 -7473.4523 301.0593 -491.7799 -389.1074 30248.3876 -290.4116 -220.5236
ENERGY: 900000 0.1727 0.7866 2.5868 0.0000 -10722.6019 1454.6594 0.0000 0.0000 1723.5429 -7540.8535 295.5115 -9264.3963 -7474.9840 300.4448 48.8216 143.9975 29836.6773 -225.2220 -156.3256
ENERGY: 1200000 0.0926 2.3474 0.1942 0.0000 -10545.9651 1378.3301 0.0000 0.0000 1741.0126 -7423.9881 298.5068 -9165.0008 -7474.4186 300.6538 -502.1177 -471.1907 30583.0767 -238.6372 -172.9190
ENERGY: 1500000 0.0379 1.4934 0.3107 0.0000 -10700.7176 1502.2798 0.0000 0.0000 1753.8437 -7442.7521 300.7067 -9196.5958 -7474.8580 300.5323 509.5951 561.9947 30209.1807 -178.2324 -112.1818
TCL: Running FEP window  14: Lambda1 0.65   Lambda2 0.7000000000000001 [dLambda 0.050000000000000044]
TCL: Setting parameter firsttimestep to 0
TCL: Setting parameter alchLambda to 0.65
Info: NONBONDED TABLE R-SQUARED SPACING: 0.0625
Info: NONBONDED TABLE SIZE: 705 POINTS
TCL: Setting parameter alchLambda2 to 0.7000000000000001
Info: NONBONDED TABLE R-SQUARED SPACING: 0.0625
Info: NONBONDED TABLE SIZE: 705 POINTS
TCL: Running for 1500000 steps
ETITLE: TS BOND ANGLE DIHED IMPRP ELECT VDW BOUNDARY MISC KINETIC TOTAL TEMP POTENTIAL TOTALAVG TEMPAVG PRESSURE GPRESSURE VOLUME PRESSAVG GPRESSAVG
ENERGY: 0 0.0379 1.4934 0.3107 0.0000 -10700.7402 1502.1848 0.0000 0.0000 1752.9562 -7443.7572 300.5546 -9196.7134 -7443.7572 300.5546 467.9570 562.9943 30209.1807 467.9570 562.9943
ENERGY: 300000 0.0613 0.5126 0.6282 0.0000 -10669.4712 1478.0860 0.0000 0.0000 1730.0745 -7460.1086 296.6314 -9190.1831 -7462.2861 296.0484 670.9618 754.8243 29550.1921 526.9680 599.2779
ENERGY: 600000 0.0002 1.1735 0.8211 0.0000 -10741.1129 1514.3128 0.0000 0.0000 1791.2379 -7433.5673 307.1182 -9224.8052 -7466.2060 299.4188 700.6508 795.6091 29788.1243 511.5518 588.5857
ENERGY: 900000 0.5687 2.5213 0.6002 0.0000 -10729.4700 1445.0656 0.0000 0.0000 1698.4901 -7582.2242 291.2160 -9280.7143 -7462.6944 298.6734 -291.3836 -259.6425 30395.4279 289.9266 355.0459
ENERGY: 1200000 0.3260 0.7936 0.1728 0.0000 -10565.4080 1373.0750 0.0000 0.0000 1755.6157 -7435.4249 301.0106 -9191.0406 -7465.0294 298.7645 -371.5807 -327.7789 30174.8731 211.3603 267.5282
ENERGY: 1500000 0.5671 1.3367 0.3604 0.0000 -10573.7801 1399.0410 0.0000 0.0000 1778.3567 -7394.1182 304.9096 -9172.4749 -7457.0608 298.8430 -216.1509 -203.4368 30323.6919 144.8015 196.1401
TCL: Running FEP window  15: Lambda1 0.7000000000000001 Lambda2 0.7500000000000001 [dLambda 0.050000000000000044]
TCL: Setting parameter firsttimestep to 0
TCL: Setting parameter alchLambda to 0.7000000000000001
Info: NONBONDED TABLE R-SQUARED SPACING: 0.0625
Info: NONBONDED TABLE SIZE: 705 POINTS
TCL: Setting parameter alchLambda2 to 0.7500000000000001
Info: NONBONDED TABLE R-SQUARED SPACING: 0.0625
Info: NONBONDED TABLE SIZE: 705 POINTS
TCL: Running for 1500000 steps
ETITLE: TS BOND ANGLE DIHED IMPRP ELECT VDW BOUNDARY MISC KINETIC TOTAL TEMP POTENTIAL TOTALAVG TEMPAVG PRESSURE GPRESSURE VOLUME PRESSAVG GPRESSAVG
ENERGY: 0 0.5671 1.3368 0.3604 0.0000 -10573.8063 1398.7853 0.0000 0.0000 1777.4605 -7395.2963 304.7560 -9172.7568 -7395.2963 304.7560 -276.9266 -203.4606 30323.6919 -276.9266 -203.4606
ENERGY: 300000 0.5615 0.4248 0.5416 0.0000 -10550.7383 1318.3301 0.0000 0.0000 1745.9663 -7484.9140 299.3561 -9230.8803 -7434.5946 302.1305 -1049.8587 -1023.4499 30636.6706 -676.8270 -618.8244
ENERGY: 600000 0.1662 0.6654 1.1160 0.0000 -10617.3582 1408.6230 0.0000 0.0000 1713.9047 -7492.8829 293.8590 -9206.7877 -7446.4939 300.3905 -124.6557 -116.3006 30171.5609 -460.6508 -413.2074
ENERGY: 900000 0.6248 0.9647 0.3170 0.0000 -10704.3239 1442.9954 0.0000 0.0000 1732.6866 -7526.7353 297.0792 -9259.4219 -7454.4647 301.2879 -67.0367 -52.2170 30358.5005 -270.0562 -224.7107
ENERGY: 1200000 0.0183 1.2427 2.2087 0.0000 -10598.0194 1372.2483 0.0000 0.0000 1684.2939 -7538.0075 288.7820 -9222.3014 -7453.9245 301.1142 -674.3375 -650.0412 30443.2569 -246.7410 -193.5332
ENERGY: 1500000 0.3437 0.8957 1.6324 0.0000 -10565.4123 1349.6143 0.0000 0.0000 1753.3039 -7459.6222 300.6142 -9212.9261 -7460.4463 300.7964 -718.4260 -605.4217 30238.5610 -228.0695 -166.6790
TCL: Running FEP window  16: Lambda1 0.7500000000000001 Lambda2 0.8000000000000002 [dLambda 0.050000000000000044]
TCL: Setting parameter firsttimestep to 0
TCL: Setting parameter alchLambda to 0.7500000000000001
Info: NONBONDED TABLE R-SQUARED SPACING: 0.0625
Info: NONBONDED TABLE SIZE: 705 POINTS
TCL: Setting parameter alchLambda2 to 0.8000000000000002
Info: NONBONDED TABLE R-SQUARED SPACING: 0.0625
Info: NONBONDED TABLE SIZE: 705 POINTS
TCL: Running for 1500000 steps
ETITLE: TS BOND ANGLE DIHED IMPRP ELECT VDW BOUNDARY MISC KINETIC TOTAL TEMP POTENTIAL TOTALAVG TEMPAVG PRESSURE GPRESSURE VOLUME PRESSAVG GPRESSAVG
ENERGY: 0 0.3437 0.8957 1.6324 0.0000 -10565.5194 1349.4129 0.0000 0.0000 1752.3959 -7460.8389 300.4585 -9213.2347 -7460.8389 300.4585 -697.8691 -604.0815 30238.5610 -697.8691 -604.0815
ENERGY: 300000 1.4274 0.9474 2.7631 0.0000 -10651.0016 1393.9597 0.0000 0.0000 1768.4970 -7483.4072 303.2191 -9251.9041 -7490.5293 299.6264 -370.1741 -243.7598 30047.0391 -227.1288 -152.5296
ENERGY: 600000 0.0785 1.1051 0.6381 0.0000 -10755.2118 1437.7757 0.0000 0.0000 1743.9142 -7571.7002 299.0043 -9315.6144 -7498.4512 298.7277 77.0877 104.6345 29807.3051 -173.2782 -126.4780
ENERGY: 900000 0.1197 0.3636 1.2725 0.0000 -10565.3219 1397.0429 0.0000 0.0000 1745.5410 -7420.9822 299.2832 -9166.5232 -7486.5949 298.9279 -322.6991 -253.9976 30396.3392 -177.7340 -124.3165
ENERGY: 1200000 1.5488 1.8889 2.3231 0.0000 -10579.0523 1377.6343 0.0000 0.0000 1815.5262 -7380.1310 311.2826 -9195.6572 -7469.4199 299.9457 -471.4354 -466.9907 30677.3082 -156.8671 -108.1747
ENERGY: 1500000 0.1153 1.1042 0.6344 0.0000 -10680.2559 1428.6347 0.0000 0.0000 1796.9119 -7452.8555 308.0910 -9249.7673 -7465.3399 300.4364 61.9040 101.9160 29887.3490 -41.7157 1.0941
TCL: Running FEP window  17: Lambda1 0.8000000000000002 Lambda2 0.8500000000000002 [dLambda 0.050000000000000044]
TCL: Setting parameter firsttimestep to 0
TCL: Setting parameter alchLambda to 0.8000000000000002
Info: NONBONDED TABLE R-SQUARED SPACING: 0.0625
Info: NONBONDED TABLE SIZE: 705 POINTS
TCL: Setting parameter alchLambda2 to 0.8500000000000002
Info: NONBONDED TABLE R-SQUARED SPACING: 0.0625
Info: NONBONDED TABLE SIZE: 705 POINTS
TCL: Running for 1500000 steps
ETITLE: TS BOND ANGLE DIHED IMPRP ELECT VDW BOUNDARY MISC KINETIC TOTAL TEMP POTENTIAL TOTALAVG TEMPAVG PRESSURE GPRESSURE VOLUME PRESSAVG GPRESSAVG
ENERGY: 0 0.1153 1.1042 0.6344 0.0000 -10680.2024 1428.4308 0.0000 0.0000 1796.0143 -7453.9034 307.9371 -9249.9177 -7453.9034 307.9371 23.6790 103.1864 29887.3490 23.6790 103.1864
ENERGY: 300000 0.0233 0.7684 0.4450 0.0000 -10599.7146 1354.1031 0.0000 0.0000 1748.3831 -7495.9917 299.7705 -9244.3748 -7456.7494 304.5581 -620.2765 -541.9366 30031.4271 -259.4486 -198.2867
ENERGY: 600000 0.2650 3.2774 0.1045 0.0000 -10612.9291 1374.3665 0.0000 0.0000 1769.4858 -7465.4299 303.3887 -9234.9156 -7452.7181 303.9001 -516.4179 -498.1298 30173.5112 -161.0440 -118.4156
ENERGY: 900000 0.0750 0.3774 0.6602 0.0000 -10710.5558 1471.0801 0.0000 0.0000 1795.2442 -7443.1189 307.8051 -9238.3631 -7439.2597 304.8483 227.8717 269.4364 30334.3281 -136.0552 -98.3754
ENERGY: 1200000 0.0094 1.0369 1.2020 0.0000 -10621.0583 1446.0291 0.0000 0.0000 1799.4833 -7373.2976 308.5319 -9172.7809 -7425.8267 304.6670 17.4731 80.5723 30783.3506 -48.7039 -4.1290
ENERGY: 1500000 0.2433 1.3463 1.1784 0.0000 -10639.9011 1445.9813 0.0000 0.0000 1746.2140 -7444.9378 299.3986 -9191.1518 -7437.0941 302.7230 178.0358 224.6920 30142.1599 -47.4233 4.5827
TCL: Running FEP window  18: Lambda1 0.8500000000000002 Lambda2 0.9000000000000002 [dLambda 0.050000000000000044]
TCL: Setting parameter firsttimestep to 0
TCL: Setting parameter alchLambda to 0.8500000000000002
Info: NONBONDED TABLE R-SQUARED SPACING: 0.0625
Info: NONBONDED TABLE SIZE: 705 POINTS
TCL: Setting parameter alchLambda2 to 0.9000000000000002
Info: NONBONDED TABLE R-SQUARED SPACING: 0.0625
Info: NONBONDED TABLE SIZE: 705 POINTS
TCL: Running for 1500000 steps
ETITLE: TS BOND ANGLE DIHED IMPRP ELECT VDW BOUNDARY MISC KINETIC TOTAL TEMP POTENTIAL TOTALAVG TEMPAVG PRESSURE GPRESSURE VOLUME PRESSAVG GPRESSAVG
ENERGY: 0 0.2433 1.3463 1.1784 0.0000 -10639.9479 1445.8315 0.0000 0.0000 1745.3459 -7446.0025 299.2498 -9191.3484 -7446.0025 299.2498 144.2031 227.7393 30142.1599 144.2031 227.7393
ENERGY: 300000 0.0865 1.5966 1.7056 0.0000 -10574.0056 1421.1356 0.0000 0.0000 1744.3717 -7405.1096 299.0827 -9149.4813 -7468.2405 297.9896 -246.2716 -141.3330 30764.1949 -162.2719 -76.8217
ENERGY: 600000 0.0045 0.6476 0.5465 0.0000 -10656.8504 1462.7994 0.0000 0.0000 1774.5710 -7418.2814 304.2606 -9192.8524 -7442.9216 299.6717 325.6551 412.5608 30134.7279 -164.5858 -84.7650
ENERGY: 900000 0.1218 0.6311 0.3902 0.0000 -10524.6470 1359.5047 0.0000 0.0000 1777.4878 -7386.5114 304.7607 -9163.9992 -7446.2712 299.4464 -539.7084 -459.2408 30441.6316 -249.8698 -175.3688
ENERGY: 1200000 0.3452 1.6990 0.9558 0.0000 -10744.0997 1453.6719 0.0000 0.0000 1726.0911 -7561.3367 295.9484 -9287.4278 -7457.1106 299.0142 101.6570 163.5195 29831.8886 -5.7651 61.8973
ENERGY: 1500000 0.2231 2.1750 0.2608 0.0000 -10448.2281 1339.2833 0.0000 0.0000 1777.8726 -7328.4134 304.8266 -9106.2860 -7457.5246 299.1416 -711.0628 -612.6046 30618.8399 -13.5805 53.1867
TCL: Running FEP window  19: Lambda1 0.9000000000000002 Lambda2 0.9500000000000003 [dLambda 0.050000000000000044]
TCL: Setting parameter firsttimestep to 0
TCL: Setting parameter alchLambda to 0.9000000000000002
Info: NONBONDED TABLE R-SQUARED SPACING: 0.0625
Info: NONBONDED TABLE SIZE: 705 POINTS
TCL: Setting parameter alchLambda2 to 0.9500000000000003
Info: NONBONDED TABLE R-SQUARED SPACING: 0.0625
Info: NONBONDED TABLE SIZE: 705 POINTS
TCL: Running for 1500000 steps
ETITLE: TS BOND ANGLE DIHED IMPRP ELECT VDW BOUNDARY MISC KINETIC TOTAL TEMP POTENTIAL TOTALAVG TEMPAVG PRESSURE GPRESSURE VOLUME PRESSAVG GPRESSAVG
ENERGY: 0 0.2231 2.1750 0.2608 0.0000 -10448.3462 1339.5074 0.0000 0.0000 1777.0041 -7329.1759 304.6777 -9106.1800 -7329.1759 304.6777 -687.6098 -604.7590 30618.8399 -687.6098 -604.7590
ENERGY: 300000 0.3678 0.1325 1.3464 0.0000 -10701.5135 1444.4539 0.0000 0.0000 1758.8671 -7496.3458 301.5680 -9255.2129 -7452.2972 301.7347 20.1273 102.5375 29936.0879 -163.8319 -107.8422
ENERGY: 600000 0.0022 1.3471 0.2343 0.0000 -10729.3243 1478.6547 0.0000 0.0000 1714.8977 -7534.1882 294.0292 -9249.0859 -7468.4214 300.1432 397.0487 419.7378 30130.0156 -78.3144 -14.1005
ENERGY: 900000 0.1097 0.8486 0.1979 0.0000 -10753.4831 1484.2517 0.0000 0.0000 1765.6080 -7502.4672 302.7238 -9268.0752 -7468.9979 300.8522 310.9171 370.2005 30171.8203 -22.5683 39.5534
ENERGY: 1200000 1.4172 0.4925 0.4800 0.0000 -10664.5303 1429.9206 0.0000 0.0000 1753.4728 -7478.7471 300.6432 -9232.2199 -7474.5894 300.4368 -247.1531 -217.8473 30308.2809 -55.4642 3.5834
ENERGY: 1500000 0.0074 1.3695 1.7830 0.0000 -10821.6050 1561.1473 0.0000 0.0000 1724.9096 -7532.3882 295.7458 -9257.2978 -7470.4782 300.5375 891.2974 1011.0946 29959.5493 -78.7924 -23.6538
TCL: Running FEP window  20: Lambda1 0.9500000000000003 Lambda2 1.0    [dLambda 0.04999999999999971]
TCL: Setting parameter firsttimestep to 0
TCL: Setting parameter alchLambda to 0.9500000000000003
Info: NONBONDED TABLE R-SQUARED SPACING: 0.0625
Info: NONBONDED TABLE SIZE: 705 POINTS
TCL: Setting parameter alchLambda2 to 1.0
Info: NONBONDED TABLE R-SQUARED SPACING: 0.0625
Info: NONBONDED TABLE SIZE: 705 POINTS
TCL: Running for 1500000 steps
ETITLE: TS BOND ANGLE DIHED IMPRP ELECT VDW BOUNDARY MISC KINETIC TOTAL TEMP POTENTIAL TOTALAVG TEMPAVG PRESSURE GPRESSURE VOLUME PRESSAVG GPRESSAVG
ENERGY: 0 0.0074 1.3695 1.7830 0.0000 -10821.7025 1561.4809 0.0000 0.0000 1724.0620 -7532.9997 295.6005 -9257.0617 -7532.9997 295.6005 929.0858 1020.2355 29959.5493 929.0858 1020.2355
ENERGY: 300000 0.0030 1.0686 0.1263 0.0000 -10653.6122 1383.1117 0.0000 0.0000 1724.8257 -7544.4768 295.7314 -9269.3025 -7518.5034 295.6510 -453.8597 -408.2307 30161.9693 198.9090 263.2405
ENERGY: 600000 0.2796 0.9594 1.5949 0.0000 -10743.4353 1505.9022 0.0000 0.0000 1796.1274 -7438.5719 307.9565 -9234.6993 -7499.1071 298.0348 705.8549 767.4148 30079.7975 86.0412 151.3805
ENERGY: 900000 0.7628 1.0209 0.1905 0.0000 -10630.2801 1394.2894 0.0000 0.0000 1726.5711 -7507.4455 296.0307 -9234.0166 -7475.3511 298.3167 -557.6468 -379.7152 30393.4302 -60.7365 15.0469
ENERGY: 1200000 1.2262 1.2073 2.0173 0.0000 -10694.4493 1470.8267 0.0000 0.0000 1803.3949 -7415.7769 309.2026 -9219.1718 -7473.2560 298.9693 366.4628 432.3538 30375.0301 44.2682 121.6291
ENERGY: 1500000 0.1802 2.9564 0.9125 0.0000 -10572.2517 1392.9628 0.0000 0.0000 1758.2581 -7416.9816 301.4636 -9175.2397 -7459.4584 299.8100 -287.8008 -216.0394 30257.5389 30.2981 105.0318
TCL: Exiting due to exit command.
