Info: SIMULATION PARAMETERS:
Info: TIMESTEP               2
Info: NUMBER OF STEPS        0
Info: STEPS PER CYCLE        10
Info: PERIODIC CELL BASIS 1  31.1212 0 0
Info: PERIODIC CELL BASIS 2  0 31.3497 0
Info: PERIODIC CELL BASIS 3  0 0 31.755
Info: PERIODIC CELL CENTER   0 0 0
Info: WRAPPING WATERS AROUND PERIODIC BOUNDARIES ON OUTPUT.
Info: WRAPPING ALL CLUSTERS AROUND PERIODIC BOUNDARIES ON OUTPUT.
Info: FIRST LDB TIMESTEP     50
Info: LAST LDB TIMESTEP     -1
Info: HOM BACKGROUND SCALING 1
Info: PME BACKGROUND SCALING 1
Info: MIN ATOMS PER PATCH    40
Info: EMPTY PATCH LOAD       40 ATOMS
Info: VELOCITY FILE          mobley_4364398_equil.vel
Info: CENTER OF MASS MOVING INITIALLY? NO
Info: DIELECTRIC             1
Info: EXCLUDE                SCALED ONE-FOUR
Info: 1-4 ELECTROSTATICS SCALED BY 0.833333
Info: MODIFIED 1-4 VDW PARAMETERS WILL BE USED
Info: DCD FILENAME           mobley_4364398_prod.dcd
Info: DCD FREQUENCY          100000
Info: DCD FIRST STEP         100000
Info: DCD FILE WILL CONTAIN UNIT CELL DATA
Info: XST FILENAME           mobley_4364398_prod.xst
Info: XST FREQUENCY          100000
Info: NO VELOCITY DCD OUTPUT
Info: NO FORCE DCD OUTPUT
Info: OUTPUT FILENAME        mobley_4364398_prod
Info: BINARY OUTPUT FILES WILL BE USED
Info: RESTART FILENAME       mobley_4364398_prod.restart
Info: RESTART FREQUENCY      100000
Info: BINARY RESTART FILES WILL BE USED
Info: CUTOFF                 9
Info: PAIRLIST DISTANCE      11
Info: PAIRLIST SHRINK RATE   0.01
Info: PAIRLIST GROW RATE     0.01
Info: PAIRLIST TRIGGER       0.3
Info: PAIRLISTS PER CYCLE    2
Info: PAIRLISTS ENABLED
Info: MARGIN                 2
Info: HYDROGEN GROUP CUTOFF  2.5
Info: PATCH DIMENSION        15.5
Info: ENERGY OUTPUT STEPS    100000
Info: ENERGY EVALUATION STEPS    100000
Info: OUTPUT ENERGY PRECISION 4
Info: CROSSTERM ENERGY INCLUDED IN DIHEDRAL
Info: TIMING OUTPUT STEPS    1000000
Info: PRESSURE OUTPUT STEPS  100000
Info: ALCHEMICAL FEP ON
Info: FEP CURRENT LAMBDA VALUE     0
Info: FEP COMPARISON LAMBDA VALUE  0.05
Info: FEP INTRA-ALCHEMICAL NON-BONDED INTERACTIONS WILL BE RETAINED
Info: FEP INTRA-ALCHEMICAL BONDED INTERACTIONS WILL BE RETAINED
Info: FEP VDW SHIFTING COEFFICIENT 5
Info: FEP ELEC. ACTIVE FOR ANNIHILATED PARTICLES BETWEEN LAMBDA = 0 AND LAMBDA = 0.5
Info: FEP ELEC. ACTIVE FOR EXNIHILATED PARTICLES BETWEEN LAMBDA = 0.5 AND LAMBDA = 1
Info: FEP VDW ACTIVE FOR ANNIHILATED PARTICLES BETWEEN LAMBDA = 0 AND LAMBDA = 1
Info: FEP VDW ACTIVE FOR EXNIHILATED PARTICLES BETWEEN LAMBDA = 0 AND LAMBDA = 1
Info: FEP BOND ACTIVE FOR ANNIHILATED PARTICLES BETWEEN LAMBDA = 1 AND LAMBDA = 1
Info: FEP BOND ACTIVE FOR EXNIHILATED PARTICLES BETWEEN LAMBDA = 0 AND LAMBDA = 0
Info: LANGEVIN DYNAMICS ACTIVE
Info: LANGEVIN TEMPERATURE   300
Info: LANGEVIN USING BBK INTEGRATOR
Info: LANGEVIN DAMPING COEFFICIENT IS 1 INVERSE PS
Info: LANGEVIN DYNAMICS APPLIED TO HYDROGENS
Info: LANGEVIN PISTON PRESSURE CONTROL ACTIVE
Info:        TARGET PRESSURE IS 1.01325 BAR
Info:     OSCILLATION PERIOD IS 50 FS
Info:             DECAY TIME IS 25 FS
Info:     PISTON TEMPERATURE IS 300 K
Info:       PRESSURE CONTROL IS GROUP-BASED
Info:    INITIAL STRAIN RATE IS 0.000149999 0.000149999 0.000149999
Info:       CELL FLUCTUATION IS ISOTROPIC
Info: PARTICLE MESH EWALD (PME) ACTIVE
Info: PME TOLERANCE               1e-06
Info: PME EWALD COEFFICIENT       0.348832
Info: PME INTERPOLATION ORDER     4
Info: PME GRID DIMENSIONS         32 32 32
Info: PME MAXIMUM GRID SPACING    1
Info: PME CALCULATION WILL BE PERFORMED ON GPU
Info: FULL ELECTROSTATIC EVALUATION FREQUENCY      2
Info: USING VERLET I (r-RESPA) MTS SCHEME.
Info: C1 SPLITTING OF LONG RANGE ELECTROSTATICS
Info: PLACING ATOMS IN PATCHES BY HYDROGEN GROUPS
Info: RIGID BONDS TO HYDROGEN : ALL
Info:         ERROR TOLERANCE : 1e-08
Info:          MAX ITERATIONS : 100
Info: RIGID WATER USING SETTLE ALGORITHM
Info: RANDOM NUMBER SEED     1741926231
Info: USE HYDROGEN BONDS?    NO
Info: Using AMBER format force field!
Info: AMBER PARM FILE        mobley_4364398.prmtop
Info: COORDINATE PDB         mobley_4364398.pdb
Info: Exclusions will be read from PARM file!
Info: SCNB (VDW SCALING)     2
Info: USING ARITHMETIC MEAN TO COMBINE L-J SIGMA PARAMETERS
Info: BINARY COORDINATES     mobley_4364398_equil.coor
Info: SUMMARY OF PARAMETERS:
Info: 4 BONDS
Info: 2 ANGLES
Info:   2 HARMONIC
Info:   0 COSINE-BASED
Info: 0 DIHEDRAL
Info: 0 IMPROPER
Info: 0 CROSSTERM
Info: 0 VDW
Info: 15 VDW_PAIRS
Info: 0 NBTHOLE_PAIRS
Info: To read alchdata from file: mobley_4364398.pdb
Info: To read alchflag data from column: 5
Info: STRUCTURE SUMMARY:
Info: 2981 ATOMS
Info: 2980 BONDS
Info: 6 ANGLES
Info: 0 DIHEDRALS
Info: 0 IMPROPERS
Info: 0 CROSSTERMS
Info: 2986 EXCLUSIONS
Info: 2979 RIGID BONDS
Info: ALCH: 0 ATOMS TO DISAPPEAR IN FINAL STATE
Info: ALCH: 5 ATOMS TO APPEAR IN FINAL STATE
Info: 5964 DEGREES OF FREEDOM
Info: 994 HYDROGEN GROUPS
Info: 4 ATOMS IN LARGEST HYDROGEN GROUP
Info: 994 MIGRATION GROUPS
Info: 4 ATOMS IN LARGEST MIGRATION GROUP
Info: TOTAL MASS = 18013.8 amu
Info: TOTAL CHARGE = -9.99942e-05 e
Info: MASS DENSITY = 0.965523 g/cm^3
Info: ATOM DENSITY = 0.0962188 atoms/A^3
Info: ADDED 0 IMPLICIT EXCLUSIONS
Info: NONBONDED TABLE R-SQUARED SPACING: 0.0625
Info: NONBONDED TABLE SIZE: 705 POINTS
Info: REDUCING NUMBER OF PATCHES TO IMPROVE LOAD BALANCE
Info: REMOVING COM VELOCITY 0.000148895 -0.0767422 -0.109741
Info: Use 3D box decompostion in PME FFT.
Info: Updated CUDA force table with 4096 elements.
Info: Updated CUDA LJ table with 5 x 5 elements.
Info: Found 8 unique exclusion lists needing 8 bytes
TCL: Running for 1500000 steps
ETITLE: TS BOND ANGLE DIHED IMPRP ELECT VDW BOUNDARY MISC KINETIC TOTAL TEMP POTENTIAL TOTALAVG TEMPAVG PRESSURE GPRESSURE VOLUME PRESSAVG GPRESSAVG
ENERGY: 0 0.0009 1.5659 0.0000 0.0000 -10785.7276 1417.7942 0.0000 0.0000 1782.5773 -7583.7893 300.8161 -9366.3666 -7583.7893 300.8161 -481.4833 -382.8807 30981.4854 -481.4833 -382.8807
ENERGY: 300000 0.0974 1.3095 0.0000 0.0000 -10862.1978 1467.6778 0.0000 0.0000 1707.8444 -7685.2687 288.2047 -9393.1131 -7604.5133 297.9571 48.1089 51.5104 30576.9309 -102.5171 -52.3498
ENERGY: 600000 0.1951 3.5406 0.0000 0.0000 -10811.3338 1458.0194 0.0000 0.0000 1810.7401 -7538.8385 305.5687 -9349.5786 -7603.7663 299.6348 23.4535 55.2222 30728.6548 -111.2128 -46.8050
ENERGY: 900000 0.0109 1.2493 0.0000 0.0000 -10938.3544 1507.7093 0.0000 0.0000 1797.7139 -7631.6710 303.3705 -9429.3849 -7606.6479 300.1112 341.7755 400.7355 30274.9292 -130.9830 -67.2500
ENERGY: 1200000 0.0911 1.4965 0.0000 0.0000 -10844.1923 1471.7889 0.0000 0.0000 1790.2511 -7580.5647 302.1111 -9370.8158 -7602.1649 300.7468 171.2263 269.7063 30235.0966 -16.8628 48.8237
ENERGY: 1500000 0.0045 2.1542 0.0000 0.0000 -10605.2552 1334.9157 0.0000 0.0000 1756.3035 -7511.8773 296.3823 -9268.1808 -7598.7398 300.5031 -781.6407 -706.0776 30949.5012 -43.1627 19.1290
TCL: Running FEP window   2: Lambda1 0.05   Lambda2 0.1    [dLambda 0.05  ]
TCL: Setting parameter firsttimestep to 0
TCL: Setting parameter alchLambda to 0.05
Info: NONBONDED TABLE R-SQUARED SPACING: 0.0625
Info: NONBONDED TABLE SIZE: 705 POINTS
TCL: Setting parameter alchLambda2 to 0.1
Info: NONBONDED TABLE R-SQUARED SPACING: 0.0625
Info: NONBONDED TABLE SIZE: 705 POINTS
TCL: Running for 1500000 steps
ETITLE: TS BOND ANGLE DIHED IMPRP ELECT VDW BOUNDARY MISC KINETIC TOTAL TEMP POTENTIAL TOTALAVG TEMPAVG PRESSURE GPRESSURE VOLUME PRESSAVG GPRESSAVG
ENERGY: 0 0.0045 2.1542 0.0000 0.0000 -10605.2560 1336.0978 0.0000 0.0000 1755.4214 -7511.5780 296.2335 -9266.9995 -7511.5780 296.2335 -779.8505 -702.7615 30949.5012 -779.8505 -702.7615
ENERGY: 300000 0.1440 1.2602 0.0000 0.0000 -10831.3550 1441.9618 0.0000 0.0000 1727.1487 -7660.8404 291.4624 -9387.9891 -7596.5322 297.1802 -258.8124 -137.8255 30678.0385 -282.4916 -221.9168
ENERGY: 600000 0.1607 1.6568 0.0000 0.0000 -10757.6133 1411.6388 0.0000 0.0000 1804.7886 -7539.3683 304.5644 -9344.1569 -7581.2714 300.9622 -358.7398 -257.6023 30705.6620 -84.2477 -26.5000
ENERGY: 900000 0.0002 0.8738 0.0000 0.0000 -10755.5539 1440.1692 0.0000 0.0000 1781.1180 -7533.3927 300.5699 -9314.5107 -7591.0124 300.1068 12.9643 74.0395 30536.5054 -105.7455 -52.6351
ENERGY: 1200000 0.6007 1.5720 0.0000 0.0000 -10679.9211 1327.1902 0.0000 0.0000 1735.2128 -7615.3453 292.8232 -9350.5581 -7579.7668 301.2425 -1241.8458 -1115.4030 31197.8719 -251.2322 -182.6854
ENERGY: 1500000 0.2344 1.1870 0.0000 0.0000 -10677.4043 1387.5126 0.0000 0.0000 1790.0783 -7498.3920 302.0819 -9288.4703 -7565.2114 301.8160 -543.9648 -458.4929 31156.0472 -273.0901 -201.2947
TCL: Running FEP window   3: Lambda1 0.1    Lambda2 0.15000000000000002 [dLambda 0.05000000000000002]
TCL: Setting parameter firsttimestep to 0
TCL: Setting parameter alchLambda to 0.1
Info: NONBONDED TABLE R-SQUARED SPACING: 0.0625
Info: NONBONDED TABLE SIZE: 705 POINTS
TCL: Setting parameter alchLambda2 to 0.15000000000000002
Info: NONBONDED TABLE R-SQUARED SPACING: 0.0625
Info: NONBONDED TABLE SIZE: 705 POINTS
TCL: Running for 1500000 steps
ETITLE: TS BOND ANGLE DIHED IMPRP ELECT VDW BOUNDARY MISC KINETIC TOTAL TEMP POTENTIAL TOTALAVG TEMPAVG PRESSURE GPRESSURE VOLUME PRESSAVG GPRESSAVG
ENERGY: 0 0.2344 1.1870 0.0000 0.0000 -10677.4034 1389.0233 0.0000 0.0000 1789.2152 -7497.7434 301.9363 -9286.9587 -7497.7434 301.9363 -522.6720 -451.9299 31156.0472 -522.6720 -451.9299
ENERGY: 300000 0.1273 2.2221 0.0000 0.0000 -10988.2134 1490.6541 0.0000 0.0000 1728.0582 -7767.1517 291.6158 -9495.2099 -7581.8189 299.5146 -247.9021 -243.4336 30733.8746 -285.3392 -239.8365
ENERGY: 600000 0.3057 3.6753 0.0000 0.0000 -10817.8419 1437.2985 0.0000 0.0000 1767.6512 -7608.9112 298.2973 -9376.5624 -7574.1082 300.8775 -170.5344 -178.1016 30745.0121 -250.2884 -202.2507
ENERGY: 900000 0.0023 3.8573 0.0000 0.0000 -10782.6953 1425.6817 0.0000 0.0000 1746.5305 -7606.6235 294.7331 -9353.1540 -7592.8977 298.7819 -120.4059 -68.1355 30547.5133 -170.3248 -125.7290
ENERGY: 1200000 0.2688 6.8661 0.0000 0.0000 -10941.2059 1504.0102 0.0000 0.0000 1782.4339 -7647.6268 300.7919 -9430.0607 -7591.9089 299.2040 238.1988 301.0934 30386.0245 -121.7525 -74.8389
ENERGY: 1500000 0.1001 1.8897 0.0000 0.0000 -10782.5268 1456.2787 0.0000 0.0000 1813.6636 -7510.5947 306.0621 -9324.2583 -7594.5998 299.3660 -28.9021 73.0475 30968.4151 -72.0384 -22.9369
TCL: Running FEP window   4: Lambda1 0.15000000000000002 Lambda2 0.2    [dLambda 0.04999999999999999]
TCL: Setting parameter firsttimestep to 0
TCL: Setting parameter alchLambda to 0.15000000000000002
Info: NONBONDED TABLE R-SQUARED SPACING: 0.0625
Info: NONBONDED TABLE SIZE: 705 POINTS
TCL: Setting parameter alchLambda2 to 0.2
Info: NONBONDED TABLE R-SQUARED SPACING: 0.0625
Info: NONBONDED TABLE SIZE: 705 POINTS
TCL: Running for 1500000 steps
ETITLE: TS BOND ANGLE DIHED IMPRP ELECT VDW BOUNDARY MISC KINETIC TOTAL TEMP POTENTIAL TOTALAVG TEMPAVG PRESSURE GPRESSURE VOLUME PRESSAVG GPRESSAVG
ENERGY: 0 0.1001 1.8897 0.0000 0.0000 -10782.5281 1456.4398 0.0000 0.0000 1812.7715 -7511.3270 305.9115 -9324.0985 -7511.3270 305.9115 -9.3081 73.6733 30968.4151 -9.3081 73.6733
ENERGY: 300000 0.7652 2.3606 0.0000 0.0000 -10851.2923 1470.8441 0.0000 0.0000 1783.4181 -7593.9044 300.9580 -9377.3225 -7547.3735 301.4759 19.0778 12.3128 30961.6303 92.1967 147.0193
ENERGY: 600000 0.4644 4.4361 0.0000 0.0000 -10922.1509 1528.8921 0.0000 0.0000 1775.5488 -7612.8095 299.6300 -9388.3583 -7576.8889 301.9970 552.0341 637.5545 30215.4713 25.3963 83.0924
ENERGY: 900000 0.5669 2.8326 0.0000 0.0000 -10910.4872 1537.1648 0.0000 0.0000 1752.9553 -7616.9676 295.8173 -9369.9229 -7584.6183 300.3049 457.4096 538.4919 30590.3650 36.9174 106.5592
ENERGY: 1200000 0.4132 4.4265 0.0000 0.0000 -10845.1503 1505.5404 0.0000 0.0000 1727.6075 -7607.1626 291.5398 -9334.7701 -7592.7665 299.0596 452.4607 490.4843 30492.5044 74.0588 138.3135
ENERGY: 1500000 0.0228 1.4146 0.0000 0.0000 -10818.6343 1486.8772 0.0000 0.0000 1791.8719 -7538.4477 302.3846 -9330.3196 -7592.6794 299.3318 209.7662 297.6574 30660.8371 74.7944 135.2008
TCL: Running FEP window   5: Lambda1 0.2    Lambda2 0.25   [dLambda 0.04999999999999999]
TCL: Setting parameter firsttimestep to 0
TCL: Setting parameter alchLambda to 0.2
Info: NONBONDED TABLE R-SQUARED SPACING: 0.0625
Info: NONBONDED TABLE SIZE: 705 POINTS
TCL: Setting parameter alchLambda2 to 0.25
Info: NONBONDED TABLE R-SQUARED SPACING: 0.0625
Info: NONBONDED TABLE SIZE: 705 POINTS
TCL: Running for 1500000 steps
ETITLE: TS BOND ANGLE DIHED IMPRP ELECT VDW BOUNDARY MISC KINETIC TOTAL TEMP POTENTIAL TOTALAVG TEMPAVG PRESSURE GPRESSURE VOLUME PRESSAVG GPRESSAVG
ENERGY: 0 0.0228 1.4146 0.0000 0.0000 -10818.6330 1487.3997 0.0000 0.0000 1791.0036 -7538.7922 302.2381 -9329.7958 -7538.7922 302.2381 228.8613 301.1530 30660.8371 228.8613 301.1530
ENERGY: 300000 0.0006 2.6397 0.0000 0.0000 -10822.2244 1435.1122 0.0000 0.0000 1775.4722 -7608.9996 299.6171 -9384.4718 -7580.0639 303.9299 -221.0781 -130.7521 30538.1432 64.5436 115.3955
ENERGY: 600000 1.3379 2.2309 0.0000 0.0000 -10728.3342 1347.8693 0.0000 0.0000 1868.6067 -7508.2894 315.3339 -9376.8961 -7591.0316 302.4730 -1124.4898 -1010.3050 31275.2131 -199.7934 -145.2902
ENERGY: 900000 0.7462 1.1682 0.0000 0.0000 -10821.2992 1431.1233 0.0000 0.0000 1778.6967 -7609.5648 300.1613 -9388.2615 -7585.7626 301.6330 -190.0789 -150.9396 30528.0815 -222.1584 -162.2154
ENERGY: 1200000 0.0003 1.7399 0.0000 0.0000 -10789.0749 1423.7723 0.0000 0.0000 1733.0227 -7630.5398 292.4536 -9363.5625 -7574.1245 300.6959 -344.7921 -280.4435 30981.5829 -198.3969 -141.7569
ENERGY: 1500000 0.0262 1.3269 0.0000 0.0000 -10920.1905 1502.2457 0.0000 0.0000 1746.8592 -7669.7326 294.7886 -9416.5917 -7580.5468 300.0665 274.5949 429.3707 30410.1335 -171.4363 -107.8736
TCL: Running FEP window   6: Lambda1 0.25   Lambda2 0.3    [dLambda 0.04999999999999999]
TCL: Setting parameter firsttimestep to 0
TCL: Setting parameter alchLambda to 0.25
Info: NONBONDED TABLE R-SQUARED SPACING: 0.0625
Info: NONBONDED TABLE SIZE: 705 POINTS
TCL: Setting parameter alchLambda2 to 0.3
Info: NONBONDED TABLE R-SQUARED SPACING: 0.0625
Info: NONBONDED TABLE SIZE: 705 POINTS
TCL: Running for 1500000 steps
ETITLE: TS BOND ANGLE DIHED IMPRP ELECT VDW BOUNDARY MISC KINETIC TOTAL TEMP POTENTIAL TOTALAVG TEMPAVG PRESSURE GPRESSURE VOLUME PRESSAVG GPRESSAVG
ENERGY: 0 0.0262 1.3269 0.0000 0.0000 -10920.1903 1502.5064 0.0000 0.0000 1745.9840 -7670.3467 294.6409 -9416.3307 -7670.3467 294.6409 348.7607 435.3266 30410.1335 348.7607 435.3266
ENERGY: 300000 0.3942 1.6511 0.0000 0.0000 -10901.0540 1500.2708 0.0000 0.0000 1788.3707 -7610.3672 301.7938 -9398.7379 -7600.0855 299.1625 64.0454 82.1407 31089.3160 121.1048 174.7525
ENERGY: 600000 0.6069 3.6215 0.0000 0.0000 -10644.1799 1391.6547 0.0000 0.0000 1792.2429 -7456.0538 302.4472 -9248.2967 -7592.0427 298.9477 -519.3002 -468.9522 31477.7085 6.6343 53.7013
ENERGY: 900000 0.1029 1.2643 0.0000 0.0000 -10844.4101 1443.6397 0.0000 0.0000 1741.5473 -7657.8558 293.8922 -9399.4032 -7590.4308 298.3730 -170.0201 -92.0762 30481.4813 -24.2715 32.8331
ENERGY: 1200000 0.3126 3.5311 0.0000 0.0000 -10802.4727 1497.9506 0.0000 0.0000 1787.6104 -7513.0680 301.6655 -9300.6784 -7600.7507 298.2937 473.1304 498.1678 30860.9919 2.4562 60.4255
ENERGY: 1500000 0.0250 2.7675 0.0000 0.0000 -10925.1033 1513.8525 0.0000 0.0000 1828.1307 -7580.3275 308.5034 -9408.4582 -7603.9535 298.8694 474.2468 540.6667 30566.3620 67.6309 125.0538
TCL: Running FEP window   7: Lambda1 0.3    Lambda2 0.35   [dLambda 0.04999999999999999]
TCL: Setting parameter firsttimestep to 0
TCL: Setting parameter alchLambda to 0.3
Info: NONBONDED TABLE R-SQUARED SPACING: 0.0625
Info: NONBONDED TABLE SIZE: 705 POINTS
TCL: Setting parameter alchLambda2 to 0.35
Info: NONBONDED TABLE R-SQUARED SPACING: 0.0625
Info: NONBONDED TABLE SIZE: 705 POINTS
TCL: Running for 1500000 steps
ETITLE: TS BOND ANGLE DIHED IMPRP ELECT VDW BOUNDARY MISC KINETIC TOTAL TEMP POTENTIAL TOTALAVG TEMPAVG PRESSURE GPRESSURE VOLUME PRESSAVG GPRESSAVG
ENERGY: 0 0.0250 2.7675 0.0000 0.0000 -10925.1032 1514.0833 0.0000 0.0000 1827.2325 -7580.9949 308.3518 -9408.2273 -7580.9949 308.3518 463.4436 542.5159 30566.3620 463.4436 542.5159
ENERGY: 300000 0.0057 2.8240 0.0000 0.0000 -10652.4619 1386.8826 0.0000 0.0000 1771.5052 -7491.2444 298.9477 -9262.7496 -7550.8248 302.3905 -314.0693 -281.0597 30787.8476 -75.7134 -27.2133
ENERGY: 600000 0.0635 2.6724 0.0000 0.0000 -10784.1787 1432.6699 0.0000 0.0000 1754.7965 -7593.9762 296.1280 -9348.7728 -7560.4465 303.0670 -160.8512 -70.3965 30592.9761 51.9135 117.0566
ENERGY: 900000 0.1234 1.3476 0.0000 0.0000 -10869.7331 1448.5869 0.0000 0.0000 1793.0920 -7626.5833 302.5905 -9419.6753 -7565.3520 302.5161 -330.6452 -181.9421 30606.4827 -18.6644 60.8276
ENERGY: 1200000 0.0075 2.8652 0.0000 0.0000 -10801.0016 1417.5602 0.0000 0.0000 1728.1169 -7652.4519 291.6257 -9380.5687 -7572.6139 301.5836 -406.9473 -333.2883 30922.6344 -49.5493 26.3228
ENERGY: 1500000 0.0256 3.4297 0.0000 0.0000 -10983.8422 1549.9209 0.0000 0.0000 1721.8774 -7708.5885 290.5728 -9430.4659 -7595.7275 300.3951 573.7456 608.0386 30562.9342 -40.4291 32.7244
TCL: Running FEP window   8: Lambda1 0.35   Lambda2 0.39999999999999997 [dLambda 0.04999999999999999]
TCL: Setting parameter firsttimestep to 0
TCL: Setting parameter alchLambda to 0.35
Info: NONBONDED TABLE R-SQUARED SPACING: 0.0625
Info: NONBONDED TABLE SIZE: 705 POINTS
TCL: Setting parameter alchLambda2 to 0.39999999999999997
Info: NONBONDED TABLE R-SQUARED SPACING: 0.0625
Info: NONBONDED TABLE SIZE: 705 POINTS
TCL: Running for 1500000 steps
ETITLE: TS BOND ANGLE DIHED IMPRP ELECT VDW BOUNDARY MISC KINETIC TOTAL TEMP POTENTIAL TOTALAVG TEMPAVG PRESSURE GPRESSURE VOLUME PRESSAVG GPRESSAVG
ENERGY: 0 0.0256 3.4297 0.0000 0.0000 -10983.8444 1549.7682 0.0000 0.0000 1720.9974 -7709.6234 290.4243 -9430.6209 -7709.6234 290.4243 533.9710 609.6019 30562.9342 533.9710 609.6019
ENERGY: 300000 0.0922 1.3130 0.0000 0.0000 -10933.6827 1510.2802 0.0000 0.0000 1730.2106 -7691.7868 291.9791 -9421.9974 -7611.6874 298.3396 407.5023 487.7938 30306.7152 147.8909 209.0035
ENERGY: 600000 0.0208 2.7403 0.0000 0.0000 -10785.8417 1358.3642 0.0000 0.0000 1815.9506 -7608.7657 306.4480 -9424.7163 -7621.7694 297.4253 -1005.5604 -880.4456 30877.6698 41.0443 104.9744
ENERGY: 900000 0.0125 1.0592 0.0000 0.0000 -10922.3327 1498.3460 0.0000 0.0000 1760.0245 -7662.8905 297.0103 -9422.9150 -7619.1595 298.2036 259.9119 306.6870 30262.9823 105.6103 172.5388
ENERGY: 1200000 0.0469 1.7713 0.0000 0.0000 -10828.7278 1456.3350 0.0000 0.0000 1768.6912 -7601.8834 298.4728 -9370.5746 -7608.8536 298.0206 -210.6452 -188.9088 31010.4171 -13.5835 51.5582
ENERGY: 1500000 0.0128 2.0177 0.0000 0.0000 -10796.3581 1408.9394 0.0000 0.0000 1757.3434 -7628.0448 296.5578 -9385.3883 -7605.5426 297.9583 -607.5882 -555.0799 30848.7128 -101.0832 -35.3860
TCL: Running FEP window   9: Lambda1 0.39999999999999997 Lambda2 0.44999999999999996 [dLambda 0.04999999999999999]
TCL: Setting parameter firsttimestep to 0
TCL: Setting parameter alchLambda to 0.39999999999999997
Info: NONBONDED TABLE R-SQUARED SPACING: 0.0625
Info: NONBONDED TABLE SIZE: 705 POINTS
TCL: Setting parameter alchLambda2 to 0.44999999999999996
Info: NONBONDED TABLE R-SQUARED SPACING: 0.0625
Info: NONBONDED TABLE SIZE: 705 POINTS
TCL: Running for 1500000 steps
ETITLE: TS BOND ANGLE DIHED IMPRP ELECT VDW BOUNDARY MISC KINETIC TOTAL TEMP POTENTIAL TOTALAVG TEMPAVG PRESSURE GPRESSURE VOLUME PRESSAVG GPRESSAVG
ENERGY: 0 0.0128 2.0177 0.0000 0.0000 -10796.3577 1408.7922 0.0000 0.0000 1756.4540 -7629.0811 296.4077 -9385.5351 -7629.0811 296.4077 -629.6660 -554.5394 30848.7128 -629.6660 -554.5394
ENERGY: 300000 0.3244 2.6199 0.0000 0.0000 -10868.1578 1476.2234 0.0000 0.0000 1778.6279 -7610.3622 300.1497 -9388.9901 -7621.4340 297.5391 407.4035 465.5016 30049.0586 142.5651 195.3485
ENERGY: 600000 0.0601 1.6483 0.0000 0.0000 -10916.0873 1494.2602 0.0000 0.0000 1812.9512 -7607.1674 305.9418 -9420.1186 -7595.7447 300.3467 344.8421 417.0695 30185.4743 -0.7307 56.4998
ENERGY: 900000 0.0219 1.4104 0.0000 0.0000 -10888.5752 1479.8122 0.0000 0.0000 1781.0030 -7626.3278 300.5505 -9407.3308 -7584.5053 301.7674 -206.5520 -122.8022 31091.7942 -13.3285 42.3172
ENERGY: 1200000 0.1060 1.5495 0.0000 0.0000 -10758.2706 1389.1384 0.0000 0.0000 1835.2422 -7532.2344 309.7035 -9367.4766 -7577.8604 301.7568 -590.0106 -505.7898 30801.3433 -107.7326 -45.9045
ENERGY: 1500000 0.4323 0.9232 0.0000 0.0000 -10790.2416 1436.8460 0.0000 0.0000 1787.5323 -7564.5078 301.6523 -9352.0401 -7576.5248 301.9516 -214.2440 -159.7727 31027.6855 -79.1487 -16.0245
TCL: Running FEP window  10: Lambda1 0.44999999999999996 Lambda2 0.49999999999999994 [dLambda 0.04999999999999999]
TCL: Setting parameter firsttimestep to 0
TCL: Setting parameter alchLambda to 0.44999999999999996
Info: NONBONDED TABLE R-SQUARED SPACING: 0.0625
Info: NONBONDED TABLE SIZE: 705 POINTS
TCL: Setting parameter alchLambda2 to 0.49999999999999994
Info: NONBONDED TABLE R-SQUARED SPACING: 0.0625
Info: NONBONDED TABLE SIZE: 705 POINTS
TCL: Running for 1500000 steps
ETITLE: TS BOND ANGLE DIHED IMPRP ELECT VDW BOUNDARY MISC KINETIC TOTAL TEMP POTENTIAL TOTALAVG TEMPAVG PRESSURE GPRESSURE VOLUME PRESSAVG GPRESSAVG
ENERGY: 0 0.4323 0.9232 0.0000 0.0000 -10790.2417 1437.3465 0.0000 0.0000 1786.6779 -7564.8617 301.5081 -9351.5397 -7564.8617 301.5081 -232.6148 -153.8961 31027.6855 -232.6148 -153.8961
ENERGY: 300000 0.0010 4.2567 0.0000 0.0000 -10761.7077 1447.9652 0.0000 0.0000 1793.0105 -7516.4743 302.5768 -9309.4848 -7589.8577 300.8424 -18.4397 112.3134 30670.6027 188.9061 257.5520
ENERGY: 600000 0.2609 2.7003 0.0000 0.0000 -10816.5425 1442.0029 0.0000 0.0000 1783.5993 -7587.9790 300.9886 -9371.5784 -7571.6902 302.0718 -483.8821 -390.6347 31453.5007 -15.1848 50.6782
ENERGY: 900000 0.0035 3.7994 0.0000 0.0000 -10785.4439 1383.7569 0.0000 0.0000 1815.6130 -7582.2710 306.3910 -9397.8840 -7567.6711 303.0151 -826.1440 -729.7990 31153.2521 -140.8254 -71.0653
ENERGY: 1200000 0.1622 0.8952 0.0000 0.0000 -10832.9460 1459.0123 0.0000 0.0000 1762.9258 -7609.9504 297.4999 -9372.8763 -7580.0731 302.3535 7.9200 87.3364 30759.9385 -93.4783 -26.6796
ENERGY: 1500000 0.0435 5.5020 0.0000 0.0000 -10924.9193 1491.5381 0.0000 0.0000 1848.0532 -7579.7825 311.8654 -9427.8357 -7590.1875 302.1500 219.7135 250.1913 30529.2065 -94.3513 -32.3745
TCL: Running FEP window  11: Lambda1 0.49999999999999994 Lambda2 0.5499999999999999 [dLambda 0.04999999999999999]
TCL: Setting parameter firsttimestep to 0
TCL: Setting parameter alchLambda to 0.49999999999999994
Info: NONBONDED TABLE R-SQUARED SPACING: 0.0625
Info: NONBONDED TABLE SIZE: 705 POINTS
TCL: Setting parameter alchLambda2 to 0.5499999999999999
Info: NONBONDED TABLE R-SQUARED SPACING: 0.0625
Info: NONBONDED TABLE SIZE: 705 POINTS
TCL: Running for 1500000 steps
ETITLE: TS BOND ANGLE DIHED IMPRP ELECT VDW BOUNDARY MISC KINETIC TOTAL TEMP POTENTIAL TOTALAVG TEMPAVG PRESSURE GPRESSURE VOLUME PRESSAVG GPRESSAVG
ENERGY: 0 0.0435 5.5020 0.0000 0.0000 -10924.9203 1491.4212 0.0000 0.0000 1847.1503 -7580.8032 311.7130 -9427.9535 -7580.8032 311.7130 158.5067 247.6162 30529.2065 158.5067 247.6162
ENERGY: 300000 0.0021 2.8682 0.0000 0.0000 -10841.5053 1474.8028 0.0000 0.0000 1807.7436 -7556.0885 305.0630 -9363.8321 -7590.8546 302.6754 212.5059 272.4856 30546.9278 66.7660 125.1160
ENERGY: 600000 0.0113 3.2493 0.0000 0.0000 -10949.0451 1530.8536 0.0000 0.0000 1758.7498 -7656.1810 296.7952 -9414.9308 -7614.8685 300.1512 394.4525 521.3573 30494.3251 40.1747 119.4598
ENERGY: 900000 0.0332 1.2504 0.0000 0.0000 -10908.4949 1511.5114 0.0000 0.0000 1767.6163 -7628.0835 298.2914 -9395.6999 -7628.1962 298.9668 153.8142 199.8716 31119.0566 -2.6668 76.4077
ENERGY: 1200000 0.3861 1.7041 0.0000 0.0000 -10770.3641 1452.7162 0.0000 0.0000 1769.0680 -7546.4897 298.5364 -9315.5577 -7607.5792 298.8409 155.6633 327.5479 30460.7425 66.9413 147.5099
ENERGY: 1500000 0.5096 2.2160 0.0000 0.0000 -10752.8994 1433.7289 0.0000 0.0000 1835.7853 -7480.6595 309.7952 -9316.4448 -7600.6500 299.9610 1.7802 6.9711 30887.8693 -4.1802 68.7930
TCL: Running FEP window  12: Lambda1 0.5499999999999999 Lambda2 0.6    [dLambda 0.050000000000000044]
TCL: Setting parameter firsttimestep to 0
TCL: Setting parameter alchLambda to 0.5499999999999999
Info: NONBONDED TABLE R-SQUARED SPACING: 0.0625
Info: NONBONDED TABLE SIZE: 705 POINTS
TCL: Setting parameter alchLambda2 to 0.6
Info: NONBONDED TABLE R-SQUARED SPACING: 0.0625
Info: NONBONDED TABLE SIZE: 705 POINTS
TCL: Running for 1500000 steps
ETITLE: TS BOND ANGLE DIHED IMPRP ELECT VDW BOUNDARY MISC KINETIC TOTAL TEMP POTENTIAL TOTALAVG TEMPAVG PRESSURE GPRESSURE VOLUME PRESSAVG GPRESSAVG
ENERGY: 0 0.5096 2.2160 0.0000 0.0000 -10752.9565 1433.6850 0.0000 0.0000 1834.8979 -7481.6479 309.6454 -9316.5457 -7481.6479 309.6454 -72.7380 11.2973 30887.8693 -72.7380 11.2973
ENERGY: 300000 0.4252 1.4165 0.0000 0.0000 -10676.7720 1369.4848 0.0000 0.0000 1840.9303 -7464.5153 310.6634 -9305.4455 -7475.1711 308.0091 -595.6141 -574.4298 31099.2289 -206.7564 -138.0748
ENERGY: 600000 0.2639 1.4720 0.0000 0.0000 -10905.2379 1468.1713 0.0000 0.0000 1784.2760 -7651.0547 301.1028 -9435.3307 -7525.1401 306.6948 -201.1671 -156.2712 30821.4277 -165.8315 -102.3697
ENERGY: 900000 0.2879 1.6720 0.0000 0.0000 -10957.6736 1491.4363 0.0000 0.0000 1780.6391 -7683.6382 300.4891 -9464.2773 -7569.5409 303.8528 132.8083 225.3275 30297.5319 -189.1773 -120.9517
ENERGY: 1200000 0.0457 1.9608 0.0000 0.0000 -10847.1018 1495.7169 0.0000 0.0000 1768.1290 -7581.2493 298.3779 -9349.3783 -7566.6026 302.3405 491.5631 543.1728 30384.8076 -62.1765 6.9693
ENERGY: 1500000 0.3575 1.8056 0.0000 0.0000 -11096.4649 1567.5904 0.0000 0.0000 1765.0279 -7761.6835 297.8546 -9526.7114 -7577.3606 302.1162 695.6060 772.3624 29903.5522 -26.3553 45.9512
TCL: Running FEP window  13: Lambda1 0.6    Lambda2 0.65   [dLambda 0.050000000000000044]
TCL: Setting parameter firsttimestep to 0
TCL: Setting parameter alchLambda to 0.6
Info: NONBONDED TABLE R-SQUARED SPACING: 0.0625
Info: NONBONDED TABLE SIZE: 705 POINTS
TCL: Setting parameter alchLambda2 to 0.65
Info: NONBONDED TABLE R-SQUARED SPACING: 0.0625
Info: NONBONDED TABLE SIZE: 705 POINTS
TCL: Running for 1500000 steps
ETITLE: TS BOND ANGLE DIHED IMPRP ELECT VDW BOUNDARY MISC KINETIC TOTAL TEMP POTENTIAL TOTALAVG TEMPAVG PRESSURE GPRESSURE VOLUME PRESSAVG GPRESSAVG
ENERGY: 0 0.3575 1.8056 0.0000 0.0000 -11096.8405 1568.4297 0.0000 0.0000 1764.1325 -7762.1152 297.7035 -9526.2477 -7762.1152 297.7035 705.5492 781.5954 29903.5522 705.5492 781.5954
ENERGY: 300000 0.0949 1.7551 0.0000 0.0000 -10836.7903 1422.8787 0.0000 0.0000 1760.3091 -7651.7526 297.0583 -9412.0616 -7659.9752 297.1104 -559.7942 -522.3756 31130.8147 207.1740 281.3134
ENERGY: 600000 0.0782 1.8955 0.0000 0.0000 -10970.0837 1628.9389 0.0000 0.0000 1802.9742 -7536.1969 304.2582 -9339.1711 -7631.3644 298.6153 1649.3287 1637.4623 30495.1414 482.2778 535.8563
ENERGY: 900000 0.1676 1.2597 0.0000 0.0000 -10737.5856 1413.9380 0.0000 0.0000 1799.0325 -7523.1877 303.5930 -9322.2203 -7628.8203 298.3396 -297.3333 -214.4635 30966.3315 227.2484 286.2608
ENERGY: 1200000 0.0645 0.8632 0.0000 0.0000 -10753.9128 1367.5979 0.0000 0.0000 1772.3394 -7613.0477 299.0884 -9385.3871 -7629.0445 298.2769 -831.9060 -764.2152 31015.6616 90.4385 149.4313
ENERGY: 1500000 1.3570 2.2699 0.0000 0.0000 -10882.6331 1476.9175 0.0000 0.0000 1735.7808 -7666.3079 292.9191 -9402.0887 -7630.9903 297.9435 265.7485 307.1774 30531.5336 111.6005 167.1456
TCL: Running FEP window  14: Lambda1 0.65   Lambda2 0.7000000000000001 [dLambda 0.050000000000000044]
TCL: Setting parameter firsttimestep to 0
TCL: Setting parameter alchLambda to 0.65
Info: NONBONDED TABLE R-SQUARED SPACING: 0.0625
Info: NONBONDED TABLE SIZE: 705 POINTS
TCL: Setting parameter alchLambda2 to 0.7000000000000001
Info: NONBONDED TABLE R-SQUARED SPACING: 0.0625
Info: NONBONDED TABLE SIZE: 705 POINTS
TCL: Running for 1500000 steps
ETITLE: TS BOND ANGLE DIHED IMPRP ELECT VDW BOUNDARY MISC KINETIC TOTAL TEMP POTENTIAL TOTALAVG TEMPAVG PRESSURE GPRESSURE VOLUME PRESSAVG GPRESSAVG
ENERGY: 0 1.3570 2.2699 0.0000 0.0000 -10882.6196 1476.6177 0.0000 0.0000 1734.9094 -7667.4656 292.7720 -9402.3750 -7667.4656 292.7720 224.2834 310.6748 30531.5336 224.2834 310.6748
ENERGY: 300000 2.7950 2.0398 0.0000 0.0000 -10987.2636 1575.8470 0.0000 0.0000 1800.3465 -7606.2353 303.8147 -9406.5818 -7619.0156 296.5099 961.3490 1075.3972 30346.4440 379.0825 455.5472
ENERGY: 600000 0.0215 3.2801 0.0000 0.0000 -10877.7753 1441.8532 0.0000 0.0000 1732.0429 -7700.5775 292.2883 -9432.6204 -7623.0040 297.7900 -293.9430 -204.8036 30598.9221 192.4807 257.7008
ENERGY: 900000 1.5916 2.2102 0.0000 0.0000 -10803.5121 1373.5212 0.0000 0.0000 1765.9114 -7660.2778 298.0037 -9426.1892 -7628.1393 297.7307 -724.1365 -587.4280 30647.6645 66.9959 135.9427
ENERGY: 1200000 3.7160 1.0320 0.0000 0.0000 -10705.5285 1393.8857 0.0000 0.0000 1733.1561 -7573.7386 292.4761 -9306.8947 -7616.5866 297.9832 -431.4843 -342.6797 30802.6067 -21.2642 52.0315
ENERGY: 1500000 2.1739 2.5697 0.0000 0.0000 -10946.8247 1532.7484 0.0000 0.0000 1790.4887 -7618.8440 302.1512 -9409.3327 -7616.0295 298.5946 381.8415 493.1313 30618.0794 -34.2678 38.4072
TCL: Running FEP window  15: Lambda1 0.7000000000000001 Lambda2 0.7500000000000001 [dLambda 0.050000000000000044]
TCL: Setting parameter firsttimestep to 0
TCL: Setting parameter alchLambda to 0.7000000000000001
Info: NONBONDED TABLE R-SQUARED SPACING: 0.0625
Info: NONBONDED TABLE SIZE: 705 POINTS
TCL: Setting parameter alchLambda2 to 0.7500000000000001
Info: NONBONDED TABLE R-SQUARED SPACING: 0.0625
Info: NONBONDED TABLE SIZE: 705 POINTS
TCL: Running for 1500000 steps
ETITLE: TS BOND ANGLE DIHED IMPRP ELECT VDW BOUNDARY MISC KINETIC TOTAL TEMP POTENTIAL TOTALAVG TEMPAVG PRESSURE GPRESSURE VOLUME PRESSAVG GPRESSAVG
ENERGY: 0 2.1739 2.5697 0.0000 0.0000 -10946.3275 1533.5819 0.0000 0.0000 1789.5448 -7618.4572 301.9919 -9408.0020 -7618.4572 301.9919 424.4089 506.5766 30618.0794 424.4089 506.5766
ENERGY: 300000 0.0028 2.9580 0.0000 0.0000 -10835.8199 1441.4637 0.0000 0.0000 1847.5255 -7543.8699 311.7764 -9391.3954 -7607.0196 305.1802 -166.7724 -116.5621 30483.9255 400.4842 479.9328
ENERGY: 600000 0.5767 1.0122 0.0000 0.0000 -10871.2635 1458.7166 0.0000 0.0000 1726.9284 -7684.0296 291.4252 -9410.9579 -7627.0418 301.5534 -272.8489 -195.0845 30922.6602 103.0624 175.6724
ENERGY: 900000 1.7311 2.3465 0.0000 0.0000 -10747.8819 1435.3521 0.0000 0.0000 1836.5161 -7471.9361 309.9185 -9308.4521 -7593.3814 301.1742 15.7562 104.9398 30693.8496 24.6965 98.0823
ENERGY: 1200000 0.1921 3.0922 0.0000 0.0000 -10973.5279 1585.0839 0.0000 0.0000 1778.4501 -7606.7096 300.1197 -9385.1597 -7589.5571 301.4815 806.8473 819.0007 30917.3805 29.1279 94.7885
ENERGY: 1500000 0.0154 0.9239 0.0000 0.0000 -10709.2014 1370.0843 0.0000 0.0000 1771.0932 -7567.0846 298.8781 -9338.1778 -7583.9716 301.2303 -769.8948 -723.4769 31194.8569 -83.9964 -17.3542
TCL: Running FEP window  16: Lambda1 0.7500000000000001 Lambda2 0.8000000000000002 [dLambda 0.050000000000000044]
TCL: Setting parameter firsttimestep to 0
TCL: Setting parameter alchLambda to 0.7500000000000001
Info: NONBONDED TABLE R-SQUARED SPACING: 0.0625
Info: NONBONDED TABLE SIZE: 705 POINTS
TCL: Setting parameter alchLambda2 to 0.8000000000000002
Info: NONBONDED TABLE R-SQUARED SPACING: 0.0625
Info: NONBONDED TABLE SIZE: 705 POINTS
TCL: Running for 1500000 steps
ETITLE: TS BOND ANGLE DIHED IMPRP ELECT VDW BOUNDARY MISC KINETIC TOTAL TEMP POTENTIAL TOTALAVG TEMPAVG PRESSURE GPRESSURE VOLUME PRESSAVG GPRESSAVG
ENERGY: 0 0.0154 0.9239 0.0000 0.0000 -10709.5449 1369.7417 0.0000 0.0000 1770.1840 -7568.6799 298.7247 -9338.8639 -7568.6799 298.7247 -811.8463 -723.1293 31194.8569 -811.8463 -723.1293
ENERGY: 300000 0.0150 2.0320 0.0000 0.0000 -10587.9917 1288.6229 0.0000 0.0000 1724.1236 -7573.1982 290.9519 -9297.3219 -7625.7481 294.9867 -1328.8680 -1231.9532 31075.1769 -607.5812 -516.6127
ENERGY: 600000 0.3767 1.6441 0.0000 0.0000 -10823.5107 1498.5619 0.0000 0.0000 1793.7330 -7529.1950 302.6987 -9322.9280 -7577.0454 299.2981 364.4541 405.5042 31019.6454 -280.4687 -216.8727
ENERGY: 900000 0.0169 1.2619 0.0000 0.0000 -10915.8568 1499.2913 0.0000 0.0000 1773.4977 -7641.7890 299.2839 -9415.2867 -7596.2618 298.9168 506.3637 593.9718 30134.9739 -231.3107 -160.0336
ENERGY: 1200000 0.1471 2.1715 0.0000 0.0000 -10854.5288 1410.5710 0.0000 0.0000 1797.0581 -7644.5810 303.2598 -9441.6390 -7605.4892 299.3443 -636.5472 -552.3897 30777.1491 -326.6310 -254.1412
ENERGY: 1500000 0.0256 1.4050 0.0000 0.0000 -10801.4170 1451.3017 0.0000 0.0000 1773.0425 -7575.6423 299.2071 -9348.6848 -7610.5226 299.0569 297.4321 268.5944 30324.4988 -232.0078 -173.2897
TCL: Running FEP window  17: Lambda1 0.8000000000000002 Lambda2 0.8500000000000002 [dLambda 0.050000000000000044]
TCL: Setting parameter firsttimestep to 0
TCL: Setting parameter alchLambda to 0.8000000000000002
Info: NONBONDED TABLE R-SQUARED SPACING: 0.0625
Info: NONBONDED TABLE SIZE: 705 POINTS
TCL: Setting parameter alchLambda2 to 0.8500000000000002
Info: NONBONDED TABLE R-SQUARED SPACING: 0.0625
Info: NONBONDED TABLE SIZE: 705 POINTS
TCL: Running for 1500000 steps
ETITLE: TS BOND ANGLE DIHED IMPRP ELECT VDW BOUNDARY MISC KINETIC TOTAL TEMP POTENTIAL TOTALAVG TEMPAVG PRESSURE GPRESSURE VOLUME PRESSAVG GPRESSAVG
ENERGY: 0 0.0256 1.4050 0.0000 0.0000 -10801.9450 1451.1135 0.0000 0.0000 1772.0926 -7577.3083 299.0468 -9349.4009 -7577.3083 299.0468 191.9999 271.2941 30324.4988 191.9999 271.2941
ENERGY: 300000 0.0254 4.0903 0.0000 0.0000 -10700.9413 1411.2954 0.0000 0.0000 1823.2282 -7462.3020 307.6761 -9285.5302 -7568.1798 300.3715 -303.4993 -158.4840 30861.6839 19.9701 104.2795
ENERGY: 600000 0.1607 0.6945 0.0000 0.0000 -10752.5653 1392.8343 0.0000 0.0000 1776.7730 -7582.1028 299.8366 -9358.8758 -7574.2329 300.0382 -745.9289 -618.3474 31384.3468 -11.0544 59.5262
ENERGY: 900000 0.0189 1.6509 0.0000 0.0000 -10763.5816 1375.4369 0.0000 0.0000 1773.2035 -7613.2713 299.2343 -9386.4748 -7587.6097 300.0076 -670.8776 -603.3003 30760.7947 -88.6314 -17.1793
ENERGY: 1200000 0.0014 1.9210 0.0000 0.0000 -10852.8294 1457.0906 0.0000 0.0000 1772.9007 -7620.9157 299.1832 -9393.8164 -7595.3526 299.3972 -303.4003 -238.1771 31105.7212 -82.0777 -11.7757
ENERGY: 1500000 0.0387 1.5910 0.0000 0.0000 -10978.0363 1516.3969 0.0000 0.0000 1776.2085 -7683.8012 299.7414 -9460.0097 -7598.9148 299.3300 141.4144 299.0824 30494.5932 -125.7292 -51.5646
TCL: Running FEP window  18: Lambda1 0.8500000000000002 Lambda2 0.9000000000000002 [dLambda 0.050000000000000044]
TCL: Setting parameter firsttimestep to 0
TCL: Setting parameter alchLambda to 0.8500000000000002
Info: NONBONDED TABLE R-SQUARED SPACING: 0.0625
Info: NONBONDED TABLE SIZE: 705 POINTS
TCL: Setting parameter alchLambda2 to 0.9000000000000002
Info: NONBONDED TABLE R-SQUARED SPACING: 0.0625
Info: NONBONDED TABLE SIZE: 705 POINTS
TCL: Running for 1500000 steps
ETITLE: TS BOND ANGLE DIHED IMPRP ELECT VDW BOUNDARY MISC KINETIC TOTAL TEMP POTENTIAL TOTALAVG TEMPAVG PRESSURE GPRESSURE VOLUME PRESSAVG GPRESSAVG
ENERGY: 0 0.0387 1.5910 0.0000 0.0000 -10978.4837 1516.3143 0.0000 0.0000 1775.2894 -7685.2504 299.5863 -9460.5397 -7685.2504 299.5863 216.9945 304.7546 30494.5932 216.9945 304.7546
ENERGY: 300000 1.5478 0.8280 0.0000 0.0000 -10790.3839 1395.2266 0.0000 0.0000 1801.4754 -7591.3062 304.0052 -9392.7816 -7606.6397 300.5713 -877.5329 -800.5918 31661.8320 -418.3336 -334.0547
ENERGY: 600000 0.0047 3.2892 0.0000 0.0000 -10746.1445 1383.1714 0.0000 0.0000 1776.2589 -7583.4204 299.7499 -9359.6792 -7584.0783 301.5574 -489.7742 -426.2644 30843.2460 -415.4135 -339.9838
ENERGY: 900000 0.0025 0.6720 0.0000 0.0000 -10747.6223 1407.2458 0.0000 0.0000 1818.6095 -7521.0925 306.8967 -9339.7020 -7575.9975 302.9483 -379.6718 -287.7717 31039.8406 -344.9442 -276.4997
ENERGY: 1200000 0.4630 2.1731 0.0000 0.0000 -10770.8441 1440.1959 0.0000 0.0000 1821.3385 -7506.6736 307.3572 -9328.0121 -7572.1587 303.0175 -253.7825 -125.3258 31236.7529 -234.2493 -163.3838
ENERGY: 1500000 0.1039 2.5103 0.0000 0.0000 -10667.5802 1329.1532 0.0000 0.0000 1782.0879 -7553.7249 300.7335 -9335.8128 -7575.5248 302.9672 -1037.1976 -900.0617 30975.0726 -307.7459 -230.8990
TCL: Running FEP window  19: Lambda1 0.9000000000000002 Lambda2 0.9500000000000003 [dLambda 0.050000000000000044]
TCL: Setting parameter firsttimestep to 0
TCL: Setting parameter alchLambda to 0.9000000000000002
Info: NONBONDED TABLE R-SQUARED SPACING: 0.0625
Info: NONBONDED TABLE SIZE: 705 POINTS
TCL: Setting parameter alchLambda2 to 0.9500000000000003
Info: NONBONDED TABLE R-SQUARED SPACING: 0.0625
Info: NONBONDED TABLE SIZE: 705 POINTS
TCL: Running for 1500000 steps
ETITLE: TS BOND ANGLE DIHED IMPRP ELECT VDW BOUNDARY MISC KINETIC TOTAL TEMP POTENTIAL TOTALAVG TEMPAVG PRESSURE GPRESSURE VOLUME PRESSAVG GPRESSAVG
ENERGY: 0 0.1039 2.5103 0.0000 0.0000 -10667.8074 1328.9964 0.0000 0.0000 1781.1720 -7555.0247 300.5790 -9336.1968 -7555.0247 300.5790 -989.6549 -898.1964 30975.0726 -989.6549 -898.1964
ENERGY: 300000 0.2614 1.5832 0.0000 0.0000 -10753.8722 1389.2479 0.0000 0.0000 1705.8987 -7656.8809 287.8764 -9362.7797 -7583.9915 298.4042 -796.1294 -683.0955 31167.6794 -718.6323 -634.4649
ENERGY: 600000 0.0247 1.6976 0.0000 0.0000 -10798.1344 1461.6699 0.0000 0.0000 1784.5400 -7550.2022 301.1474 -9334.7422 -7598.1769 297.4038 391.1582 415.6609 30350.0932 -427.7154 -349.2790
ENERGY: 900000 0.2008 1.3871 0.0000 0.0000 -10966.7527 1543.2919 0.0000 0.0000 1772.0040 -7649.8689 299.0319 -9421.8729 -7600.6325 299.7085 610.0552 676.1523 30427.5523 -181.4029 -110.1830
ENERGY: 1200000 0.0030 3.5129 0.0000 0.0000 -10804.4099 1488.0798 0.0000 0.0000 1779.0632 -7533.7511 300.2231 -9312.8143 -7604.5935 299.3629 498.6454 526.1276 30613.9820 3.3448 70.3602
ENERGY: 1500000 1.0962 1.4610 0.0000 0.0000 -10790.4567 1436.6548 0.0000 0.0000 1735.2468 -7615.9980 292.8289 -9351.2448 -7618.7231 297.9946 -495.3504 -472.1970 31513.5373 -33.2282 35.0181
TCL: Running FEP window  20: Lambda1 0.9500000000000003 Lambda2 1.0    [dLambda 0.04999999999999971]
TCL: Setting parameter firsttimestep to 0
TCL: Setting parameter alchLambda to 0.9500000000000003
Info: NONBONDED TABLE R-SQUARED SPACING: 0.0625
Info: NONBONDED TABLE SIZE: 705 POINTS
TCL: Setting parameter alchLambda2 to 1.0
Info: NONBONDED TABLE R-SQUARED SPACING: 0.0625
Info: NONBONDED TABLE SIZE: 705 POINTS
TCL: Running for 1500000 steps
ETITLE: TS BOND ANGLE DIHED IMPRP ELECT VDW BOUNDARY MISC KINETIC TOTAL TEMP POTENTIAL TOTALAVG TEMPAVG PRESSURE GPRESSURE VOLUME PRESSAVG GPRESSAVG
ENERGY: 0 1.0962 1.4610 0.0000 0.0000 -10790.7192 1436.9727 0.0000 0.0000 1734.3869 -7616.8024 292.6838 -9351.1893 -7616.8024 292.6838 -538.1179 -461.4233 31513.5373 -538.1179 -461.4233
ENERGY: 300000 0.7585 1.6750 0.0000 0.0000 -10890.9576 1486.2182 0.0000 0.0000 1751.8087 -7650.4973 295.6238 -9402.3059 -7591.2184 297.5507 199.4193 260.3269 30518.4012 -190.2323 -123.1402
ENERGY: 600000 0.9426 1.2757 0.0000 0.0000 -10773.3890 1423.5111 0.0000 0.0000 1799.8055 -7547.8541 303.7235 -9347.6597 -7571.8706 300.2837 53.2322 148.4708 30488.1036 -87.7284 -15.2889
ENERGY: 900000 0.0294 1.2504 0.0000 0.0000 -10794.4482 1427.3930 0.0000 0.0000 1785.5439 -7580.2315 301.3168 -9365.7754 -7562.1319 301.2956 -269.0326 -221.9033 30893.0222 -31.3092 30.4877
ENERGY: 1200000 0.3952 1.4551 0.0000 0.0000 -10771.8619 1389.6997 0.0000 0.0000 1798.1007 -7582.2112 303.4358 -9380.3119 -7568.5223 301.4754 -459.1420 -417.4303 30801.3531 -119.1119 -58.9911
ENERGY: 1500000 0.0466 1.5774 0.0000 0.0000 -10879.8180 1492.5239 0.0000 0.0000 1802.8645 -7582.8057 304.2397 -9385.6702 -7578.9862 301.8743 295.0934 353.9597 30459.0486 -117.1560 -58.3276
TCL: Exiting due to exit command.
