Info: SIMULATION PARAMETERS:
Info: TIMESTEP               2
Info: NUMBER OF STEPS        0
Info: STEPS PER CYCLE        10
Info: PERIODIC CELL BASIS 1  30.9101 0 0
Info: PERIODIC CELL BASIS 2  0 31.2856 0
Info: PERIODIC CELL BASIS 3  0 0 31.4915
Info: PERIODIC CELL CENTER   0 0 0
Info: WRAPPING WATERS AROUND PERIODIC BOUNDARIES ON OUTPUT.
Info: WRAPPING ALL CLUSTERS AROUND PERIODIC BOUNDARIES ON OUTPUT.
Info: FIRST LDB TIMESTEP     50
Info: LAST LDB TIMESTEP     -1
Info: HOM BACKGROUND SCALING 1
Info: PME BACKGROUND SCALING 1
Info: MIN ATOMS PER PATCH    40
Info: EMPTY PATCH LOAD       40 ATOMS
Info: VELOCITY FILE          mobley_1328465_equil.vel
Info: CENTER OF MASS MOVING INITIALLY? NO
Info: DIELECTRIC             1
Info: EXCLUDE                SCALED ONE-FOUR
Info: 1-4 ELECTROSTATICS SCALED BY 0.833333
Info: MODIFIED 1-4 VDW PARAMETERS WILL BE USED
Info: DCD FILENAME           mobley_1328465_prod.dcd
Info: DCD FREQUENCY          100000
Info: DCD FIRST STEP         100000
Info: DCD FILE WILL CONTAIN UNIT CELL DATA
Info: XST FILENAME           mobley_1328465_prod.xst
Info: XST FREQUENCY          100000
Info: NO VELOCITY DCD OUTPUT
Info: NO FORCE DCD OUTPUT
Info: OUTPUT FILENAME        mobley_1328465_prod
Info: BINARY OUTPUT FILES WILL BE USED
Info: RESTART FILENAME       mobley_1328465_prod.restart
Info: RESTART FREQUENCY      100000
Info: BINARY RESTART FILES WILL BE USED
Info: CUTOFF                 9
Info: PAIRLIST DISTANCE      11
Info: PAIRLIST SHRINK RATE   0.01
Info: PAIRLIST GROW RATE     0.01
Info: PAIRLIST TRIGGER       0.3
Info: PAIRLISTS PER CYCLE    2
Info: PAIRLISTS ENABLED
Info: MARGIN                 2
Info: HYDROGEN GROUP CUTOFF  2.5
Info: PATCH DIMENSION        15.5
Info: ENERGY OUTPUT STEPS    100000
Info: ENERGY EVALUATION STEPS    100000
Info: OUTPUT ENERGY PRECISION 4
Info: CROSSTERM ENERGY INCLUDED IN DIHEDRAL
Info: TIMING OUTPUT STEPS    1000000
Info: PRESSURE OUTPUT STEPS  100000
Info: ALCHEMICAL FEP ON
Info: FEP CURRENT LAMBDA VALUE     0
Info: FEP COMPARISON LAMBDA VALUE  0.05
Info: FEP INTRA-ALCHEMICAL NON-BONDED INTERACTIONS WILL BE RETAINED
Info: FEP INTRA-ALCHEMICAL BONDED INTERACTIONS WILL BE RETAINED
Info: FEP VDW SHIFTING COEFFICIENT 5
Info: FEP ELEC. ACTIVE FOR ANNIHILATED PARTICLES BETWEEN LAMBDA = 0 AND LAMBDA = 0.5
Info: FEP ELEC. ACTIVE FOR EXNIHILATED PARTICLES BETWEEN LAMBDA = 0.5 AND LAMBDA = 1
Info: FEP VDW ACTIVE FOR ANNIHILATED PARTICLES BETWEEN LAMBDA = 0 AND LAMBDA = 1
Info: FEP VDW ACTIVE FOR EXNIHILATED PARTICLES BETWEEN LAMBDA = 0 AND LAMBDA = 1
Info: FEP BOND ACTIVE FOR ANNIHILATED PARTICLES BETWEEN LAMBDA = 1 AND LAMBDA = 1
Info: FEP BOND ACTIVE FOR EXNIHILATED PARTICLES BETWEEN LAMBDA = 0 AND LAMBDA = 0
Info: LANGEVIN DYNAMICS ACTIVE
Info: LANGEVIN TEMPERATURE   300
Info: LANGEVIN USING BBK INTEGRATOR
Info: LANGEVIN DAMPING COEFFICIENT IS 1 INVERSE PS
Info: LANGEVIN DYNAMICS APPLIED TO HYDROGENS
Info: LANGEVIN PISTON PRESSURE CONTROL ACTIVE
Info:        TARGET PRESSURE IS 1.01325 BAR
Info:     OSCILLATION PERIOD IS 50 FS
Info:             DECAY TIME IS 25 FS
Info:     PISTON TEMPERATURE IS 300 K
Info:       PRESSURE CONTROL IS GROUP-BASED
Info:    INITIAL STRAIN RATE IS 0.000193708 0.000193708 0.000193708
Info:       CELL FLUCTUATION IS ISOTROPIC
Info: PARTICLE MESH EWALD (PME) ACTIVE
Info: PME TOLERANCE               1e-06
Info: PME EWALD COEFFICIENT       0.348832
Info: PME INTERPOLATION ORDER     4
Info: PME GRID DIMENSIONS         32 32 32
Info: PME MAXIMUM GRID SPACING    1
Info: PME CALCULATION WILL BE PERFORMED ON GPU
Info: FULL ELECTROSTATIC EVALUATION FREQUENCY      2
Info: USING VERLET I (r-RESPA) MTS SCHEME.
Info: C1 SPLITTING OF LONG RANGE ELECTROSTATICS
Info: PLACING ATOMS IN PATCHES BY HYDROGEN GROUPS
Info: RIGID BONDS TO HYDROGEN : ALL
Info:         ERROR TOLERANCE : 1e-08
Info:          MAX ITERATIONS : 100
Info: RIGID WATER USING SETTLE ALGORITHM
Info: RANDOM NUMBER SEED     1742400788
Info: USE HYDROGEN BONDS?    NO
Info: Using AMBER format force field!
Info: AMBER PARM FILE        mobley_1328465.prmtop
Info: COORDINATE PDB         mobley_1328465.pdb
Info: Exclusions will be read from PARM file!
Info: SCNB (VDW SCALING)     2
Info: USING ARITHMETIC MEAN TO COMBINE L-J SIGMA PARAMETERS
Info: BINARY COORDINATES     mobley_1328465_equil.coor
Info: SUMMARY OF PARAMETERS:
Info: 6 BONDS
Info: 7 ANGLES
Info:   7 HARMONIC
Info:   0 COSINE-BASED
Info: 4 DIHEDRAL
Info: 0 IMPROPER
Info: 0 CROSSTERM
Info: 0 VDW
Info: 21 VDW_PAIRS
Info: 0 NBTHOLE_PAIRS
Info: To read alchdata from file: mobley_1328465.pdb
Info: To read alchflag data from column: 5
Info: STRUCTURE SUMMARY:
Info: 2945 ATOMS
Info: 2944 BONDS
Info: 12 ANGLES
Info: 13 DIHEDRALS
Info: 0 IMPROPERS
Info: 0 CROSSTERMS
Info: 2965 EXCLUSIONS
Info: 2940 RIGID BONDS
Info: ALCH: 0 ATOMS TO DISAPPEAR IN FINAL STATE
Info: ALCH: 8 ATOMS TO APPEAR IN FINAL STATE
Info: 5895 DEGREES OF FREEDOM
Info: 984 HYDROGEN GROUPS
Info: 3 ATOMS IN LARGEST HYDROGEN GROUP
Info: 984 MIGRATION GROUPS
Info: 3 ATOMS IN LARGEST MIGRATION GROUP
Info: TOTAL MASS = 17771.1 amu
Info: TOTAL CHARGE = -1.86265e-08 e
Info: MASS DENSITY = 0.969023 g/cm^3
Info: ATOM DENSITY = 0.0967046 atoms/A^3
Info: ADDED 0 IMPLICIT EXCLUSIONS
Info: NONBONDED TABLE R-SQUARED SPACING: 0.0625
Info: NONBONDED TABLE SIZE: 705 POINTS
Info: REMOVING COM VELOCITY 0.130558 0.0169876 0.100042
Info: Use 3D box decompostion in PME FFT.
Info: Updated CUDA force table with 4096 elements.
Info: Updated CUDA LJ table with 6 x 6 elements.
Info: Found 11 unique exclusion lists needing 16 bytes
TCL: Running for 1500000 steps
ETITLE: TS BOND ANGLE DIHED IMPRP ELECT VDW BOUNDARY MISC KINETIC TOTAL TEMP POTENTIAL TOTALAVG TEMPAVG PRESSURE GPRESSURE VOLUME PRESSAVG GPRESSAVG
ENERGY: 0 1.3394 2.0577 0.8111 0.0000 -10532.9551 1311.5373 0.0000 0.0000 1757.2174 -7459.9921 300.0075 -9217.2095 -7459.9921 300.0075 -858.9388 -770.3967 30453.5760 -858.9388 -770.3967
ENERGY: 300000 0.4539 2.6747 1.0072 0.0000 -10759.5254 1504.6449 0.0000 0.0000 1763.9154 -7486.8293 301.1510 -9250.7446 -7490.3638 301.0365 334.1358 399.5969 30463.5286 -610.2431 -532.5857
ENERGY: 600000 0.1817 2.5656 1.5456 0.0000 -10693.5315 1456.2395 0.0000 0.0000 1770.5570 -7462.4421 302.2849 -9232.9991 -7500.1565 301.0764 103.5657 158.6301 30436.4215 -381.7445 -320.4625
ENERGY: 900000 0.4421 2.8034 0.8064 0.0000 -10608.7349 1408.0651 0.0000 0.0000 1816.4642 -7380.1537 310.1226 -9196.6179 -7479.7733 301.4237 -292.8650 -249.6794 30809.9044 -317.4160 -260.1440
ENERGY: 1200000 3.0029 0.5499 0.8004 0.0000 -10708.2776 1437.3063 0.0000 0.0000 1791.7605 -7474.8577 305.9050 -9266.6182 -7482.0689 301.0474 -164.3907 -77.0491 30228.1228 -240.1222 -182.1037
ENERGY: 1500000 1.1664 3.8044 0.9468 0.0000 -10662.2847 1445.3631 0.0000 0.0000 1766.9622 -7444.0419 301.6712 -9211.0041 -7490.6084 300.1487 353.3048 424.3609 29850.5955 -208.0541 -150.0510
TCL: Running FEP window   2: Lambda1 0.05   Lambda2 0.1    [dLambda 0.05  ]
TCL: Setting parameter firsttimestep to 0
TCL: Setting parameter alchLambda to 0.05
Info: NONBONDED TABLE R-SQUARED SPACING: 0.0625
Info: NONBONDED TABLE SIZE: 705 POINTS
TCL: Setting parameter alchLambda2 to 0.1
Info: NONBONDED TABLE R-SQUARED SPACING: 0.0625
Info: NONBONDED TABLE SIZE: 705 POINTS
TCL: Running for 1500000 steps
ETITLE: TS BOND ANGLE DIHED IMPRP ELECT VDW BOUNDARY MISC KINETIC TOTAL TEMP POTENTIAL TOTALAVG TEMPAVG PRESSURE GPRESSURE VOLUME PRESSAVG GPRESSAVG
ENERGY: 0 1.1664 3.8044 0.9468 0.0000 -10662.2849 1451.4084 0.0000 0.0000 1766.0734 -7438.8855 301.5194 -9204.9590 -7438.8855 301.5194 355.1609 429.1972 29850.5955 355.1609 429.1972
ENERGY: 300000 2.3895 2.8617 0.7864 0.0000 -10667.2476 1378.9877 0.0000 0.0000 1796.3539 -7485.8683 306.6892 -9282.2222 -7487.7634 302.9790 -732.1400 -700.6654 30532.8850 -69.9672 -30.2803
ENERGY: 600000 3.1380 3.6036 1.2481 0.0000 -10767.5769 1447.3035 0.0000 0.0000 1712.2030 -7600.0807 292.3222 -9312.2838 -7520.7191 299.2305 -238.7521 -212.2114 30220.4975 -101.7888 -53.2056
ENERGY: 900000 0.5710 2.9237 0.7812 0.0000 -10665.8141 1396.5793 0.0000 0.0000 1742.2320 -7522.7270 297.4490 -9264.9590 -7526.4555 298.2055 -416.2340 -378.8486 30315.8907 -245.8786 -184.0942
ENERGY: 1200000 2.2887 4.8913 1.2926 0.0000 -10625.5004 1486.9277 0.0000 0.0000 1739.3674 -7390.7327 296.9600 -9130.1001 -7511.4323 298.1392 679.5929 735.7379 30476.0974 -262.2045 -206.0946
ENERGY: 1500000 1.0909 4.6298 0.7665 0.0000 -10633.8946 1390.4299 0.0000 0.0000 1757.9248 -7479.0526 300.1282 -9236.9774 -7499.8497 299.5819 -369.5040 -367.5682 30437.3772 -239.0555 -184.2527
TCL: Running FEP window   3: Lambda1 0.1    Lambda2 0.15000000000000002 [dLambda 0.05000000000000002]
TCL: Setting parameter firsttimestep to 0
TCL: Setting parameter alchLambda to 0.1
Info: NONBONDED TABLE R-SQUARED SPACING: 0.0625
Info: NONBONDED TABLE SIZE: 705 POINTS
TCL: Setting parameter alchLambda2 to 0.15000000000000002
Info: NONBONDED TABLE R-SQUARED SPACING: 0.0625
Info: NONBONDED TABLE SIZE: 705 POINTS
TCL: Running for 1500000 steps
ETITLE: TS BOND ANGLE DIHED IMPRP ELECT VDW BOUNDARY MISC KINETIC TOTAL TEMP POTENTIAL TOTALAVG TEMPAVG PRESSURE GPRESSURE VOLUME PRESSAVG GPRESSAVG
ENERGY: 0 1.0909 4.6298 0.7665 0.0000 -10633.8938 1391.5550 0.0000 0.0000 1757.0848 -7478.7668 299.9848 -9235.8516 -7478.7668 299.9848 -451.3342 -359.9413 30437.3772 -451.3342 -359.9413
ENERGY: 300000 0.2197 2.7943 0.9216 0.0000 -10657.9129 1375.6573 0.0000 0.0000 1774.3768 -7503.9432 302.9371 -9278.3200 -7499.5825 301.1241 -751.1300 -656.7155 30628.0138 -431.4279 -365.6191
ENERGY: 600000 1.1462 2.4346 0.8690 0.0000 -10503.4179 1270.1980 0.0000 0.0000 1801.6978 -7427.0722 307.6016 -9228.7700 -7458.9575 303.4931 -1243.4642 -1158.7372 30452.3749 -471.7439 -397.8748
ENERGY: 900000 0.1235 1.5455 0.7530 0.0000 -10678.0562 1459.8543 0.0000 0.0000 1799.1710 -7416.6087 307.1702 -9215.7798 -7470.6057 301.6607 416.9342 464.3240 30268.6707 -302.4024 -230.0880
ENERGY: 1200000 0.5073 1.5332 0.8094 0.0000 -10613.2432 1344.2287 0.0000 0.0000 1773.8435 -7492.3210 302.8460 -9266.1645 -7479.9433 301.7971 -940.6192 -839.3660 30493.4374 -346.5408 -271.5696
ENERGY: 1500000 0.4486 3.1839 0.7521 0.0000 -10626.6385 1422.0300 0.0000 0.0000 1759.3013 -7440.9226 300.3632 -9200.2239 -7480.7380 301.4548 -158.7289 -11.2709 30347.5501 -227.0264 -146.9496
TCL: Running FEP window   4: Lambda1 0.15000000000000002 Lambda2 0.2    [dLambda 0.04999999999999999]
TCL: Setting parameter firsttimestep to 0
TCL: Setting parameter alchLambda to 0.15000000000000002
Info: NONBONDED TABLE R-SQUARED SPACING: 0.0625
Info: NONBONDED TABLE SIZE: 705 POINTS
TCL: Setting parameter alchLambda2 to 0.2
Info: NONBONDED TABLE R-SQUARED SPACING: 0.0625
Info: NONBONDED TABLE SIZE: 705 POINTS
TCL: Running for 1500000 steps
ETITLE: TS BOND ANGLE DIHED IMPRP ELECT VDW BOUNDARY MISC KINETIC TOTAL TEMP POTENTIAL TOTALAVG TEMPAVG PRESSURE GPRESSURE VOLUME PRESSAVG GPRESSAVG
ENERGY: 0 0.4486 3.1839 0.7521 0.0000 -10626.6384 1422.5438 0.0000 0.0000 1758.4460 -7441.2639 300.2172 -9199.7099 -7441.2639 300.2172 -85.9956 -6.7438 30347.5501 -85.9956 -6.7438
ENERGY: 300000 0.6939 2.4084 0.8106 0.0000 -10672.1198 1452.6712 0.0000 0.0000 1718.0762 -7497.4595 293.3250 -9215.5357 -7452.2250 301.1081 -51.7306 30.6778 30535.6918 229.4399 305.5340
ENERGY: 600000 1.0755 2.6897 1.1210 0.0000 -10652.1881 1414.7013 0.0000 0.0000 1758.5717 -7474.0288 300.2387 -9232.6005 -7454.7357 300.0532 -237.9520 -163.8092 30433.4933 64.0590 148.7794
ENERGY: 900000 0.9225 4.5291 1.4860 0.0000 -10651.8095 1464.2817 0.0000 0.0000 1739.5351 -7441.0551 296.9886 -9180.5902 -7462.5259 297.9872 259.6407 333.6429 30293.9634 -1.5139 72.3590
ENERGY: 1200000 0.5888 3.9764 1.1529 0.0000 -10789.7553 1463.6347 0.0000 0.0000 1787.7085 -7532.6940 305.2132 -9320.4025 -7464.8263 298.6399 18.3959 126.7920 29837.7230 39.6044 109.7221
ENERGY: 1500000 0.9022 2.2264 0.7997 0.0000 -10811.1436 1435.8210 0.0000 0.0000 1773.0859 -7598.3085 302.7167 -9371.3944 -7473.2907 298.8994 -490.0167 -412.5414 30389.8464 -42.1493 33.0541
TCL: Running FEP window   5: Lambda1 0.2    Lambda2 0.25   [dLambda 0.04999999999999999]
TCL: Setting parameter firsttimestep to 0
TCL: Setting parameter alchLambda to 0.2
Info: NONBONDED TABLE R-SQUARED SPACING: 0.0625
Info: NONBONDED TABLE SIZE: 705 POINTS
TCL: Setting parameter alchLambda2 to 0.25
Info: NONBONDED TABLE R-SQUARED SPACING: 0.0625
Info: NONBONDED TABLE SIZE: 705 POINTS
TCL: Running for 1500000 steps
ETITLE: TS BOND ANGLE DIHED IMPRP ELECT VDW BOUNDARY MISC KINETIC TOTAL TEMP POTENTIAL TOTALAVG TEMPAVG PRESSURE GPRESSURE VOLUME PRESSAVG GPRESSAVG
ENERGY: 0 0.9022 2.2264 0.7997 0.0000 -10811.1433 1436.0911 0.0000 0.0000 1772.2467 -7598.8772 302.5734 -9371.1239 -7598.8772 302.5734 -498.1506 -409.8957 30389.8464 -498.1506 -409.8957
ENERGY: 300000 2.7858 1.9581 0.7769 0.0000 -10718.9441 1448.7052 0.0000 0.0000 1723.6254 -7541.0928 294.2723 -9264.7182 -7498.2262 300.6766 254.7036 276.3368 29809.2449 -271.9864 -211.2607
ENERGY: 600000 1.7166 3.4582 0.7731 0.0000 -10644.9431 1369.9703 0.0000 0.0000 1769.4029 -7499.6221 302.0879 -9269.0250 -7503.9232 300.7923 -473.8009 -386.2399 30005.7611 -195.0416 -130.7617
ENERGY: 900000 1.8307 2.6732 2.3253 0.0000 -10530.9853 1311.2994 0.0000 0.0000 1728.0355 -7484.8211 295.0253 -9212.8566 -7501.9470 302.0167 -911.2375 -855.2433 30412.7202 -312.1165 -250.8930
ENERGY: 1200000 1.1484 1.7653 1.0028 0.0000 -10659.4922 1408.6726 0.0000 0.0000 1789.4650 -7457.4380 305.5131 -9246.9030 -7490.3993 302.3326 -356.2277 -336.6314 30606.2511 -259.2945 -203.2856
ENERGY: 1500000 1.6602 3.5136 0.9707 0.0000 -10697.1881 1420.9057 0.0000 0.0000 1780.6061 -7489.5318 304.0006 -9270.1379 -7488.6695 301.9751 -397.3649 -348.0521 30685.0292 -291.0220 -231.6768
TCL: Running FEP window   6: Lambda1 0.25   Lambda2 0.3    [dLambda 0.04999999999999999]
TCL: Setting parameter firsttimestep to 0
TCL: Setting parameter alchLambda to 0.25
Info: NONBONDED TABLE R-SQUARED SPACING: 0.0625
Info: NONBONDED TABLE SIZE: 705 POINTS
TCL: Setting parameter alchLambda2 to 0.3
Info: NONBONDED TABLE R-SQUARED SPACING: 0.0625
Info: NONBONDED TABLE SIZE: 705 POINTS
TCL: Running for 1500000 steps
ETITLE: TS BOND ANGLE DIHED IMPRP ELECT VDW BOUNDARY MISC KINETIC TOTAL TEMP POTENTIAL TOTALAVG TEMPAVG PRESSURE GPRESSURE VOLUME PRESSAVG GPRESSAVG
ENERGY: 0 1.6602 3.5136 0.9707 0.0000 -10697.1893 1420.8062 0.0000 0.0000 1779.7031 -7490.5354 303.8464 -9270.2385 -7490.5354 303.8464 -435.8291 -346.8292 30685.0292 -435.8291 -346.8292
ENERGY: 300000 0.7359 1.3255 0.8941 0.0000 -10767.8504 1557.2194 0.0000 0.0000 1709.1553 -7498.5203 291.8019 -9207.6756 -7524.5879 295.3360 1254.1481 1252.7532 30015.0172 106.9788 161.1358
ENERGY: 600000 1.8752 6.9005 0.9050 0.0000 -10537.8441 1421.2835 0.0000 0.0000 1775.3051 -7331.5748 303.0956 -9106.8799 -7508.0416 296.8633 232.5215 275.2810 30630.6163 -38.6906 9.1818
ENERGY: 900000 0.6426 4.1099 2.1331 0.0000 -10679.8064 1484.0887 0.0000 0.0000 1793.2544 -7395.5776 306.1600 -9188.8320 -7501.5693 298.1666 432.3361 477.4358 30551.8889 29.5145 86.2213
ENERGY: 1200000 1.1716 5.1455 1.0086 0.0000 -10713.6179 1496.3839 0.0000 0.0000 1755.8984 -7454.0100 299.7823 -9209.9083 -7501.6276 298.5262 525.6873 633.2746 30253.8977 59.0747 121.0817
ENERGY: 1500000 0.9258 2.8965 1.1176 0.0000 -10821.5829 1497.4752 0.0000 0.0000 1737.4360 -7581.7318 296.6302 -9319.1678 -7513.2178 297.8871 389.6026 491.7824 29912.7258 25.8089 90.2875
TCL: Running FEP window   7: Lambda1 0.3    Lambda2 0.35   [dLambda 0.04999999999999999]
TCL: Setting parameter firsttimestep to 0
TCL: Setting parameter alchLambda to 0.3
Info: NONBONDED TABLE R-SQUARED SPACING: 0.0625
Info: NONBONDED TABLE SIZE: 705 POINTS
TCL: Setting parameter alchLambda2 to 0.35
Info: NONBONDED TABLE R-SQUARED SPACING: 0.0625
Info: NONBONDED TABLE SIZE: 705 POINTS
TCL: Running for 1500000 steps
ETITLE: TS BOND ANGLE DIHED IMPRP ELECT VDW BOUNDARY MISC KINETIC TOTAL TEMP POTENTIAL TOTALAVG TEMPAVG PRESSURE GPRESSURE VOLUME PRESSAVG GPRESSAVG
ENERGY: 0 0.9258 2.8965 1.1176 0.0000 -10821.5820 1497.7131 0.0000 0.0000 1736.6090 -7582.3200 296.4890 -9318.9290 -7582.3200 296.4890 412.6040 492.6000 29912.7258 412.6040 492.6000
ENERGY: 300000 1.7927 4.4427 0.8718 0.0000 -10890.9749 1552.2245 0.0000 0.0000 1776.2582 -7555.3849 303.2583 -9331.6431 -7545.5665 297.2526 915.2424 928.0514 29892.0974 220.1922 289.1923
ENERGY: 600000 1.1129 2.4538 1.0875 0.0000 -10779.7858 1469.4822 0.0000 0.0000 1722.2936 -7583.3558 294.0450 -9305.6494 -7509.0295 298.3327 135.0223 183.5241 30142.0458 4.7224 81.4906
ENERGY: 900000 2.4987 4.2156 1.4894 0.0000 -10681.2556 1451.3584 0.0000 0.0000 1727.8823 -7493.8113 294.9991 -9221.6935 -7491.5234 301.1399 273.9274 253.0612 30289.0976 1.2182 59.7394
ENERGY: 1200000 0.1703 2.3526 0.8530 0.0000 -10711.8662 1447.2428 0.0000 0.0000 1743.5776 -7517.6699 297.6788 -9261.2475 -7495.0994 300.2631 -55.5116 -10.7002 30598.0067 -35.8574 19.2574
ENERGY: 1500000 3.9245 4.4519 0.8273 0.0000 -10676.1098 1456.0396 0.0000 0.0000 1763.9086 -7446.9580 301.1498 -9210.8665 -7483.4102 300.6351 85.4915 150.5084 30438.8387 0.8670 55.6605
TCL: Running FEP window   8: Lambda1 0.35   Lambda2 0.39999999999999997 [dLambda 0.04999999999999999]
TCL: Setting parameter firsttimestep to 0
TCL: Setting parameter alchLambda to 0.35
Info: NONBONDED TABLE R-SQUARED SPACING: 0.0625
Info: NONBONDED TABLE SIZE: 705 POINTS
TCL: Setting parameter alchLambda2 to 0.39999999999999997
Info: NONBONDED TABLE R-SQUARED SPACING: 0.0625
Info: NONBONDED TABLE SIZE: 705 POINTS
TCL: Running for 1500000 steps
ETITLE: TS BOND ANGLE DIHED IMPRP ELECT VDW BOUNDARY MISC KINETIC TOTAL TEMP POTENTIAL TOTALAVG TEMPAVG PRESSURE GPRESSURE VOLUME PRESSAVG GPRESSAVG
ENERGY: 0 3.9245 4.4519 0.8273 0.0000 -10676.1090 1456.4323 0.0000 0.0000 1763.0161 -7447.4570 300.9975 -9210.4731 -7447.4570 300.9975 73.0121 157.6718 30438.8387 73.0121 157.6718
ENERGY: 300000 0.4520 2.2367 0.7881 0.0000 -10664.7229 1445.8139 0.0000 0.0000 1782.7882 -7432.6440 304.3731 -9215.4321 -7505.3223 298.2647 208.6085 244.5199 30373.6051 98.1104 178.7556
ENERGY: 600000 0.4623 3.4450 1.0209 0.0000 -10806.3859 1497.0801 0.0000 0.0000 1755.3149 -7549.0627 299.6827 -9304.3777 -7462.0295 302.1052 337.9375 391.2618 29972.7463 100.4291 163.4507
ENERGY: 900000 2.3262 3.8591 1.0690 0.0000 -10581.7251 1358.8909 0.0000 0.0000 1722.7936 -7492.7862 294.1303 -9215.5798 -7470.2157 302.5341 -951.2005 -918.0661 30932.4715 -61.5279 -3.1274
ENERGY: 1200000 0.4661 1.4615 0.8647 0.0000 -10801.9126 1477.8519 0.0000 0.0000 1758.6166 -7562.6519 300.2464 -9321.2685 -7478.9858 302.3907 329.8427 339.1457 30056.1305 -18.4442 34.5382
ENERGY: 1500000 0.5101 1.4712 0.7537 0.0000 -10716.0091 1439.3077 0.0000 0.0000 1740.9121 -7533.0543 297.2237 -9273.9664 -7481.0433 302.2984 -254.3671 -180.0437 30599.2630 -86.9503 -35.8671
TCL: Running FEP window   9: Lambda1 0.39999999999999997 Lambda2 0.44999999999999996 [dLambda 0.04999999999999999]
TCL: Setting parameter firsttimestep to 0
TCL: Setting parameter alchLambda to 0.39999999999999997
Info: NONBONDED TABLE R-SQUARED SPACING: 0.0625
Info: NONBONDED TABLE SIZE: 705 POINTS
TCL: Setting parameter alchLambda2 to 0.44999999999999996
Info: NONBONDED TABLE R-SQUARED SPACING: 0.0625
Info: NONBONDED TABLE SIZE: 705 POINTS
TCL: Running for 1500000 steps
ETITLE: TS BOND ANGLE DIHED IMPRP ELECT VDW BOUNDARY MISC KINETIC TOTAL TEMP POTENTIAL TOTALAVG TEMPAVG PRESSURE GPRESSURE VOLUME PRESSAVG GPRESSAVG
ENERGY: 0 0.5101 1.4712 0.7537 0.0000 -10716.0088 1438.9180 0.0000 0.0000 1740.0205 -7534.3353 297.0715 -9274.3558 -7534.3353 297.0715 -260.5252 -178.6295 30599.2630 -260.5252 -178.6295
ENERGY: 300000 2.2410 3.8665 0.9202 0.0000 -10727.3310 1466.7757 0.0000 0.0000 1783.7378 -7469.7897 304.5353 -9253.5276 -7506.1286 301.1458 215.0397 264.8669 30330.7124 -21.9727 39.7910
ENERGY: 600000 2.2287 1.6541 0.8280 0.0000 -10585.4032 1384.9359 0.0000 0.0000 1788.8127 -7406.9438 305.4017 -9195.7565 -7484.0581 302.2288 -605.1369 -551.4903 30882.5079 -154.5878 -95.7633
ENERGY: 900000 0.2821 6.1280 0.8597 0.0000 -10588.4290 1364.9927 0.0000 0.0000 1743.3134 -7472.8531 297.6337 -9216.1665 -7483.4694 301.1033 -484.6590 -503.2396 30302.0466 -208.1443 -154.5208
ENERGY: 1200000 0.9279 2.9070 0.8259 0.0000 -10844.9973 1512.3092 0.0000 0.0000 1748.2982 -7579.7291 298.4847 -9328.0273 -7494.9908 300.8031 512.8825 517.5623 30021.2272 -158.0435 -106.8676
ENERGY: 1500000 0.4088 3.3670 0.8750 0.0000 -10741.3112 1360.0490 0.0000 0.0000 1761.7295 -7614.8819 300.7778 -9376.6114 -7506.5118 300.5799 -815.9918 -784.4989 29940.4143 -185.1799 -130.4796
TCL: Running FEP window  10: Lambda1 0.44999999999999996 Lambda2 0.49999999999999994 [dLambda 0.04999999999999999]
TCL: Setting parameter firsttimestep to 0
TCL: Setting parameter alchLambda to 0.44999999999999996
Info: NONBONDED TABLE R-SQUARED SPACING: 0.0625
Info: NONBONDED TABLE SIZE: 705 POINTS
TCL: Setting parameter alchLambda2 to 0.49999999999999994
Info: NONBONDED TABLE R-SQUARED SPACING: 0.0625
Info: NONBONDED TABLE SIZE: 705 POINTS
TCL: Running for 1500000 steps
ETITLE: TS BOND ANGLE DIHED IMPRP ELECT VDW BOUNDARY MISC KINETIC TOTAL TEMP POTENTIAL TOTALAVG TEMPAVG PRESSURE GPRESSURE VOLUME PRESSAVG GPRESSAVG
ENERGY: 0 0.4088 3.3670 0.8750 0.0000 -10741.3117 1361.0304 0.0000 0.0000 1760.8536 -7614.7769 300.6283 -9375.6305 -7614.7769 300.6283 -867.1721 -772.2626 29940.4143 -867.1721 -772.2626
ENERGY: 300000 2.7616 3.4459 1.0544 0.0000 -10659.8162 1462.8026 0.0000 0.0000 1743.5543 -7446.1974 297.6748 -9189.7517 -7523.5718 297.7241 74.4298 109.3731 30651.7348 -146.7972 -62.7905
ENERGY: 600000 1.7714 2.4533 0.7904 0.0000 -10719.9399 1440.3349 0.0000 0.0000 1764.6191 -7509.9709 301.2712 -9274.5900 -7510.9106 299.8997 -165.1771 -119.1906 30361.0851 -112.2113 -40.8831
ENERGY: 900000 0.6493 1.8834 0.7685 0.0000 -10702.5885 1473.7051 0.0000 0.0000 1776.2622 -7449.3200 303.2590 -9225.5822 -7492.5347 300.6601 195.3570 317.1315 30497.6945 -146.8407 -70.2815
ENERGY: 1200000 1.2981 1.2089 0.8234 0.0000 -10689.9065 1470.2442 0.0000 0.0000 1759.6620 -7456.6700 300.4248 -9216.3320 -7484.6290 300.5345 3.6606 66.2565 31011.8921 -132.9080 -60.6310
ENERGY: 1500000 0.4548 3.1700 0.8713 0.0000 -10654.2201 1423.7851 0.0000 0.0000 1772.7665 -7453.1724 302.6622 -9225.9390 -7486.9292 300.3562 127.0283 200.7783 30100.9397 -169.7889 -99.5334
TCL: Running FEP window  11: Lambda1 0.49999999999999994 Lambda2 0.5499999999999999 [dLambda 0.04999999999999999]
TCL: Setting parameter firsttimestep to 0
TCL: Setting parameter alchLambda to 0.49999999999999994
Info: NONBONDED TABLE R-SQUARED SPACING: 0.0625
Info: NONBONDED TABLE SIZE: 705 POINTS
TCL: Setting parameter alchLambda2 to 0.5499999999999999
Info: NONBONDED TABLE R-SQUARED SPACING: 0.0625
Info: NONBONDED TABLE SIZE: 705 POINTS
TCL: Running for 1500000 steps
ETITLE: TS BOND ANGLE DIHED IMPRP ELECT VDW BOUNDARY MISC KINETIC TOTAL TEMP POTENTIAL TOTALAVG TEMPAVG PRESSURE GPRESSURE VOLUME PRESSAVG GPRESSAVG
ENERGY: 0 0.4548 3.1700 0.8713 0.0000 -10654.2203 1423.3667 0.0000 0.0000 1771.8895 -7454.4681 302.5124 -9226.3576 -7454.4681 302.5124 133.0948 202.9716 30100.9397 133.0948 202.9716
ENERGY: 300000 1.7126 5.7617 0.8562 0.0000 -10722.5650 1454.7830 0.0000 0.0000 1739.8258 -7519.6256 297.0382 -9259.4515 -7479.7408 298.0212 -2.1559 104.2909 30246.2277 -24.0458 72.7813
ENERGY: 600000 2.5009 5.5310 2.1105 0.0000 -10686.8379 1432.6652 0.0000 0.0000 1763.1952 -7480.8352 301.0280 -9244.0304 -7489.9734 298.9938 -219.7257 -190.0531 30670.6864 -29.6522 44.7393
ENERGY: 900000 0.2761 3.1724 1.0311 0.0000 -10560.6718 1413.6945 0.0000 0.0000 1764.1888 -7378.3088 301.1977 -9142.4976 -7489.3614 298.5055 104.8796 190.8809 30393.8969 -78.7597 -10.5626
ENERGY: 1200000 0.8095 2.1080 0.8630 0.0000 -10639.1409 1450.8212 0.0000 0.0000 1731.7621 -7452.7770 295.6615 -9184.5392 -7492.6569 298.6656 116.9229 167.4580 30753.7845 -59.0541 4.3685
ENERGY: 1500000 1.8092 4.4359 0.8944 0.0000 -10470.4741 1258.5333 0.0000 0.0000 1772.3026 -7432.4987 302.5829 -9204.8013 -7480.9782 299.1612 -1203.6000 -1155.3781 30289.6717 -128.6970 -64.7434
TCL: Running FEP window  12: Lambda1 0.5499999999999999 Lambda2 0.6    [dLambda 0.050000000000000044]
TCL: Setting parameter firsttimestep to 0
TCL: Setting parameter alchLambda to 0.5499999999999999
Info: NONBONDED TABLE R-SQUARED SPACING: 0.0625
Info: NONBONDED TABLE SIZE: 705 POINTS
TCL: Setting parameter alchLambda2 to 0.6
Info: NONBONDED TABLE R-SQUARED SPACING: 0.0625
Info: NONBONDED TABLE SIZE: 705 POINTS
TCL: Running for 1500000 steps
ETITLE: TS BOND ANGLE DIHED IMPRP ELECT VDW BOUNDARY MISC KINETIC TOTAL TEMP POTENTIAL TOTALAVG TEMPAVG PRESSURE GPRESSURE VOLUME PRESSAVG GPRESSAVG
ENERGY: 0 1.8092 4.4359 0.8944 0.0000 -10470.6178 1258.0355 0.0000 0.0000 1771.4023 -7434.0404 302.4292 -9205.4427 -7434.0404 302.4292 -1242.0626 -1154.6954 30289.6717 -1242.0626 -1154.6954
ENERGY: 300000 3.0348 2.7032 0.8077 0.0000 -10822.8461 1472.5786 0.0000 0.0000 1743.4955 -7600.2263 297.6648 -9343.7218 -7516.6105 300.1978 91.8421 177.1813 29983.1521 -365.9180 -312.5075
ENERGY: 600000 0.2281 1.0620 1.1255 0.0000 -10818.6067 1506.9205 0.0000 0.0000 1709.2259 -7600.0446 291.8139 -9309.2705 -7512.8595 298.3769 268.1295 305.8111 30462.9359 -294.2163 -239.9791
ENERGY: 900000 1.0775 4.5695 0.9599 0.0000 -10662.6221 1424.6436 0.0000 0.0000 1803.2464 -7428.1252 307.8659 -9231.3715 -7480.2405 299.0146 149.8266 249.2740 29939.2513 -187.0147 -133.9109
ENERGY: 1200000 0.0183 3.6700 1.3115 0.0000 -10746.8642 1509.2135 0.0000 0.0000 1777.8644 -7454.7866 303.5325 -9232.6510 -7478.0259 299.2659 673.5209 806.4515 30100.2706 -45.4924 15.2448
ENERGY: 1500000 1.0427 3.4702 1.0190 0.0000 -10666.1715 1364.1557 0.0000 0.0000 1767.4895 -7528.9944 301.7612 -9296.4840 -7472.8705 300.0842 -750.0133 -631.2648 30168.2719 -133.3644 -73.2608
TCL: Running FEP window  13: Lambda1 0.6    Lambda2 0.65   [dLambda 0.050000000000000044]
TCL: Setting parameter firsttimestep to 0
TCL: Setting parameter alchLambda to 0.6
Info: NONBONDED TABLE R-SQUARED SPACING: 0.0625
Info: NONBONDED TABLE SIZE: 705 POINTS
TCL: Setting parameter alchLambda2 to 0.65
Info: NONBONDED TABLE R-SQUARED SPACING: 0.0625
Info: NONBONDED TABLE SIZE: 705 POINTS
TCL: Running for 1500000 steps
ETITLE: TS BOND ANGLE DIHED IMPRP ELECT VDW BOUNDARY MISC KINETIC TOTAL TEMP POTENTIAL TOTALAVG TEMPAVG PRESSURE GPRESSURE VOLUME PRESSAVG GPRESSAVG
ENERGY: 0 1.0427 3.4702 1.0190 0.0000 -10666.3934 1363.6354 0.0000 0.0000 1766.6123 -7530.6140 301.6114 -9297.2262 -7530.6140 301.6114 -723.6414 -632.8629 30168.2719 -723.6414 -632.8629
ENERGY: 300000 0.8734 4.5108 0.7657 0.0000 -10784.9235 1518.2116 0.0000 0.0000 1712.0145 -7548.5475 292.2900 -9260.5620 -7503.7052 302.0292 715.6616 793.2032 29907.0062 155.6385 220.2553
ENERGY: 600000 1.0837 1.9906 0.9987 0.0000 -10718.2233 1388.8175 0.0000 0.0000 1733.9770 -7591.3557 296.0397 -9325.3327 -7514.1124 301.0375 -595.0364 -530.6034 30266.0979 50.3028 109.1731
ENERGY: 900000 0.8395 4.1483 0.8080 0.0000 -10552.9486 1359.9603 0.0000 0.0000 1766.9189 -7420.2735 301.6638 -9187.1924 -7494.8285 301.5800 -838.5868 -797.0635 31361.4833 -94.0593 -30.3745
ENERGY: 1200000 0.4749 1.9825 1.0811 0.0000 -10675.3746 1459.9253 0.0000 0.0000 1756.7815 -7455.1292 299.9331 -9211.9108 -7495.3950 300.8365 171.7831 225.8591 30378.7191 -56.1419 8.5431
ENERGY: 1500000 0.5699 4.3144 1.0022 0.0000 -10644.2792 1435.7099 0.0000 0.0000 1870.8865 -7331.7962 319.4141 -9202.6828 -7483.3586 301.4598 24.4726 144.4754 30603.9070 -33.6230 27.7218
TCL: Running FEP window  14: Lambda1 0.65   Lambda2 0.7000000000000001 [dLambda 0.050000000000000044]
TCL: Setting parameter firsttimestep to 0
TCL: Setting parameter alchLambda to 0.65
Info: NONBONDED TABLE R-SQUARED SPACING: 0.0625
Info: NONBONDED TABLE SIZE: 705 POINTS
TCL: Setting parameter alchLambda2 to 0.7000000000000001
Info: NONBONDED TABLE R-SQUARED SPACING: 0.0625
Info: NONBONDED TABLE SIZE: 705 POINTS
TCL: Running for 1500000 steps
ETITLE: TS BOND ANGLE DIHED IMPRP ELECT VDW BOUNDARY MISC KINETIC TOTAL TEMP POTENTIAL TOTALAVG TEMPAVG PRESSURE GPRESSURE VOLUME PRESSAVG GPRESSAVG
ENERGY: 0 0.5699 4.3144 1.0022 0.0000 -10644.8949 1435.9771 0.0000 0.0000 1870.0305 -7333.0007 319.2679 -9203.0313 -7333.0007 319.2679 50.3153 152.7613 30603.9070 50.3153 152.7613
ENERGY: 300000 0.8222 1.9450 1.2935 0.0000 -10675.4356 1429.2803 0.0000 0.0000 1719.7381 -7522.3566 293.6087 -9242.0947 -7430.4656 304.7971 -20.3270 61.6799 30277.4980 251.3166 330.2796
ENERGY: 600000 0.3320 3.2124 0.9089 0.0000 -10676.9818 1434.6430 0.0000 0.0000 1743.0018 -7494.8838 297.5805 -9237.8856 -7450.3763 301.8397 241.3613 261.2939 30095.0525 -27.1878 43.9870
ENERGY: 900000 0.8508 1.6681 0.7643 0.0000 -10671.7871 1406.2734 0.0000 0.0000 1749.1823 -7513.0482 298.6357 -9262.2305 -7478.8519 300.1322 -248.3426 -167.5101 30193.1583 -10.4688 77.7330
ENERGY: 1200000 1.9654 4.5653 1.7473 0.0000 -10684.9598 1428.4806 0.0000 0.0000 1781.0241 -7467.1769 304.0720 -9248.2010 -7492.7226 299.7171 98.0377 210.2307 30206.2424 -34.6862 50.8144
ENERGY: 1500000 0.9356 3.2199 1.2017 0.0000 -10656.2623 1350.3790 0.0000 0.0000 1781.3160 -7519.2101 304.1218 -9300.5261 -7495.4404 300.5458 -835.9960 -760.1540 30452.0844 -111.5447 -25.1574
TCL: Running FEP window  15: Lambda1 0.7000000000000001 Lambda2 0.7500000000000001 [dLambda 0.050000000000000044]
TCL: Setting parameter firsttimestep to 0
TCL: Setting parameter alchLambda to 0.7000000000000001
Info: NONBONDED TABLE R-SQUARED SPACING: 0.0625
Info: NONBONDED TABLE SIZE: 705 POINTS
TCL: Setting parameter alchLambda2 to 0.7500000000000001
Info: NONBONDED TABLE R-SQUARED SPACING: 0.0625
Info: NONBONDED TABLE SIZE: 705 POINTS
TCL: Running for 1500000 steps
ETITLE: TS BOND ANGLE DIHED IMPRP ELECT VDW BOUNDARY MISC KINETIC TOTAL TEMP POTENTIAL TOTALAVG TEMPAVG PRESSURE GPRESSURE VOLUME PRESSAVG GPRESSAVG
ENERGY: 0 0.9356 3.2199 1.2017 0.0000 -10656.5663 1350.0744 0.0000 0.0000 1780.4585 -7520.6763 303.9754 -9301.1348 -7520.6763 303.9754 -830.5542 -758.0006 30452.0844 -830.5542 -758.0006
ENERGY: 300000 0.3726 2.2438 1.1299 0.0000 -10672.1800 1391.7786 0.0000 0.0000 1757.2758 -7519.3793 300.0174 -9276.6551 -7492.1454 303.8591 -525.9936 -449.7750 30638.5271 -507.5343 -444.0232
ENERGY: 600000 0.4169 3.6081 2.1198 0.0000 -10733.2520 1433.2225 0.0000 0.0000 1750.5651 -7543.3196 298.8717 -9293.8847 -7482.9371 302.1657 -77.9569 -34.0771 30090.5100 -203.9427 -144.8223
ENERGY: 900000 0.6846 7.2354 1.3397 0.0000 -10670.8044 1451.6290 0.0000 0.0000 1829.6518 -7380.2639 312.3741 -9209.9157 -7487.8233 301.3925 186.8206 262.9313 30303.9885 -91.1927 -27.9059
ENERGY: 1200000 0.2329 2.2528 1.6043 0.0000 -10485.6310 1319.4822 0.0000 0.0000 1748.1424 -7413.9164 298.4581 -9162.0588 -7479.5209 301.4954 -918.4195 -882.6470 31053.9883 -101.8806 -40.0489
ENERGY: 1500000 3.7701 2.8131 1.1730 0.0000 -10789.6277 1473.9499 0.0000 0.0000 1738.3570 -7569.5646 296.7875 -9307.9215 -7482.2371 301.2926 61.9775 139.1349 30349.1795 -148.7798 -86.5511
TCL: Running FEP window  16: Lambda1 0.7500000000000001 Lambda2 0.8000000000000002 [dLambda 0.050000000000000044]
TCL: Setting parameter firsttimestep to 0
TCL: Setting parameter alchLambda to 0.7500000000000001
Info: NONBONDED TABLE R-SQUARED SPACING: 0.0625
Info: NONBONDED TABLE SIZE: 705 POINTS
TCL: Setting parameter alchLambda2 to 0.8000000000000002
Info: NONBONDED TABLE R-SQUARED SPACING: 0.0625
Info: NONBONDED TABLE SIZE: 705 POINTS
TCL: Running for 1500000 steps
ETITLE: TS BOND ANGLE DIHED IMPRP ELECT VDW BOUNDARY MISC KINETIC TOTAL TEMP POTENTIAL TOTALAVG TEMPAVG PRESSURE GPRESSURE VOLUME PRESSAVG GPRESSAVG
ENERGY: 0 3.7701 2.8131 1.1730 0.0000 -10789.9531 1473.8158 0.0000 0.0000 1737.5078 -7570.8733 296.6425 -9308.3811 -7570.8733 296.6425 65.9403 147.2981 30349.1795 65.9403 147.2981
ENERGY: 300000 0.3856 2.6552 1.2386 0.0000 -10513.2426 1337.9316 0.0000 0.0000 1755.0742 -7415.9573 299.6416 -9171.0316 -7513.5080 297.6046 -687.4420 -628.2079 30843.3106 69.9827 124.4547
ENERGY: 600000 1.0062 1.6006 1.7213 0.0000 -10729.9978 1398.9844 0.0000 0.0000 1755.8727 -7570.8127 299.7779 -9326.6854 -7505.6800 299.2991 -678.0671 -615.0337 30792.1204 -33.8134 15.1000
ENERGY: 900000 0.4543 2.3151 1.1657 0.0000 -10512.5091 1330.3731 0.0000 0.0000 1811.9048 -7366.2960 309.3442 -9178.2008 -7497.0558 299.9722 -292.2078 -241.4335 29983.0321 -174.4891 -119.3951
ENERGY: 1200000 0.4989 3.9622 1.1601 0.0000 -10588.5058 1388.0599 0.0000 0.0000 1728.8019 -7466.0230 295.1561 -9194.8248 -7487.7919 299.8753 -368.5790 -301.6129 30740.3803 -150.6416 -94.6360
ENERGY: 1500000 2.4531 2.3450 1.1516 0.0000 -10888.3901 1560.7566 0.0000 0.0000 1762.8912 -7558.7927 300.9761 -9321.6838 -7481.7946 300.4732 857.6898 934.2579 30190.3079 -63.7590 -12.0289
TCL: Running FEP window  17: Lambda1 0.8000000000000002 Lambda2 0.8500000000000002 [dLambda 0.050000000000000044]
TCL: Setting parameter firsttimestep to 0
TCL: Setting parameter alchLambda to 0.8000000000000002
Info: NONBONDED TABLE R-SQUARED SPACING: 0.0625
Info: NONBONDED TABLE SIZE: 705 POINTS
TCL: Setting parameter alchLambda2 to 0.8500000000000002
Info: NONBONDED TABLE R-SQUARED SPACING: 0.0625
Info: NONBONDED TABLE SIZE: 705 POINTS
TCL: Running for 1500000 steps
ETITLE: TS BOND ANGLE DIHED IMPRP ELECT VDW BOUNDARY MISC KINETIC TOTAL TEMP POTENTIAL TOTALAVG TEMPAVG PRESSURE GPRESSURE VOLUME PRESSAVG GPRESSAVG
ENERGY: 0 2.4531 2.3450 1.1516 0.0000 -10888.8308 1560.4643 0.0000 0.0000 1762.0245 -7560.3923 300.8282 -9322.4168 -7560.3923 300.8282 856.8409 937.5509 30190.3079 856.8409 937.5509
ENERGY: 300000 0.3151 0.8961 2.1202 0.0000 -10622.7060 1388.0281 0.0000 0.0000 1741.1689 -7490.1776 297.2675 -9231.3465 -7492.1399 301.3062 -424.1224 -329.0738 30490.2060 287.0609 367.7782
ENERGY: 600000 1.9342 3.5383 1.1876 0.0000 -10576.8957 1404.2410 0.0000 0.0000 1711.0219 -7454.9727 292.1206 -9165.9947 -7489.6840 299.5454 -14.4834 78.6332 30123.2251 -129.3126 -45.1817
ENERGY: 900000 3.2221 3.3866 1.3670 0.0000 -10814.7990 1427.3478 0.0000 0.0000 1736.7056 -7642.7700 296.5055 -9379.4756 -7509.3014 298.1018 -188.5517 -120.0490 29739.6877 -71.1022 17.4438
ENERGY: 1200000 0.9449 7.0148 1.9200 0.0000 -10677.8498 1403.3081 0.0000 0.0000 1752.9198 -7511.7423 299.2737 -9264.6621 -7499.4671 299.6897 -290.1724 -297.5281 30516.7011 -52.6923 23.4201
ENERGY: 1500000 3.8332 2.3684 1.1868 0.0000 -10714.0720 1397.3424 0.0000 0.0000 1736.5271 -7572.8140 296.4750 -9309.3412 -7504.0122 299.9601 -544.3506 -453.8935 30421.3549 -20.8804 52.8497
TCL: Running FEP window  18: Lambda1 0.8500000000000002 Lambda2 0.9000000000000002 [dLambda 0.050000000000000044]
TCL: Setting parameter firsttimestep to 0
TCL: Setting parameter alchLambda to 0.8500000000000002
Info: NONBONDED TABLE R-SQUARED SPACING: 0.0625
Info: NONBONDED TABLE SIZE: 705 POINTS
TCL: Setting parameter alchLambda2 to 0.9000000000000002
Info: NONBONDED TABLE R-SQUARED SPACING: 0.0625
Info: NONBONDED TABLE SIZE: 705 POINTS
TCL: Running for 1500000 steps
ETITLE: TS BOND ANGLE DIHED IMPRP ELECT VDW BOUNDARY MISC KINETIC TOTAL TEMP POTENTIAL TOTALAVG TEMPAVG PRESSURE GPRESSURE VOLUME PRESSAVG GPRESSAVG
ENERGY: 0 3.8332 2.3684 1.1868 0.0000 -10714.2779 1397.1267 0.0000 0.0000 1735.6740 -7574.0888 296.3294 -9309.7627 -7574.0888 296.3294 -543.9147 -449.4212 30421.3549 -543.9147 -449.4212
ENERGY: 300000 0.3002 4.4508 1.2590 0.0000 -10764.4940 1463.4453 0.0000 0.0000 1737.0635 -7557.9752 296.5666 -9295.0388 -7520.8342 299.9301 112.9431 154.5944 30340.1950 -419.9504 -350.8624
ENERGY: 600000 0.9452 4.2032 1.2587 0.0000 -10739.0936 1429.8222 0.0000 0.0000 1814.9266 -7487.9377 309.8601 -9302.8643 -7520.1322 301.7669 185.8568 252.6688 29847.9432 -271.7965 -192.4731
ENERGY: 900000 1.2352 3.4185 1.2418 0.0000 -10587.5526 1344.2666 0.0000 0.0000 1765.6253 -7471.7652 301.4429 -9237.3905 -7513.7185 300.9697 -685.1341 -617.1846 30361.6787 -142.2886 -56.0216
ENERGY: 1200000 0.3746 4.2985 1.2055 0.0000 -10772.6279 1499.9022 0.0000 0.0000 1757.2420 -7509.6052 300.0117 -9266.8472 -7514.2014 300.5384 509.6371 510.8550 30229.2371 -99.0688 -24.3793
ENERGY: 1500000 0.9039 3.5200 1.1245 0.0000 -10666.8823 1409.8581 0.0000 0.0000 1743.5209 -7507.9549 297.6691 -9251.4758 -7512.4595 300.0661 -418.9887 -289.4659 30580.9591 -103.9859 -27.8836
TCL: Running FEP window  19: Lambda1 0.9000000000000002 Lambda2 0.9500000000000003 [dLambda 0.050000000000000044]
TCL: Setting parameter firsttimestep to 0
TCL: Setting parameter alchLambda to 0.9000000000000002
Info: NONBONDED TABLE R-SQUARED SPACING: 0.0625
Info: NONBONDED TABLE SIZE: 705 POINTS
TCL: Setting parameter alchLambda2 to 0.9500000000000003
Info: NONBONDED TABLE R-SQUARED SPACING: 0.0625
Info: NONBONDED TABLE SIZE: 705 POINTS
TCL: Running for 1500000 steps
ETITLE: TS BOND ANGLE DIHED IMPRP ELECT VDW BOUNDARY MISC KINETIC TOTAL TEMP POTENTIAL TOTALAVG TEMPAVG PRESSURE GPRESSURE VOLUME PRESSAVG GPRESSAVG
ENERGY: 0 0.9039 3.5200 1.1245 0.0000 -10667.2482 1409.8194 0.0000 0.0000 1742.6739 -7509.2063 297.5245 -9251.8802 -7509.2063 297.5245 -353.1354 -277.5647 30580.9591 -353.1354 -277.5647
ENERGY: 300000 0.7562 2.6577 1.6789 0.0000 -10772.5785 1442.9721 0.0000 0.0000 1792.3099 -7532.2036 305.9988 -9324.5136 -7498.7207 301.7620 -77.7495 -30.5908 30518.9804 18.3364 64.8875
ENERGY: 600000 0.6619 1.7545 1.3751 0.0000 -10733.5885 1447.2718 0.0000 0.0000 1716.7536 -7565.7716 293.0991 -9282.5252 -7505.6119 301.2401 15.8597 -8.2611 30478.5255 -122.1487 -74.9088
ENERGY: 900000 1.5224 4.1228 1.7933 0.0000 -10709.6175 1450.9076 0.0000 0.0000 1766.4406 -7484.8308 301.5821 -9251.2713 -7502.1503 301.6681 206.4487 297.2250 30273.4883 -131.2405 -80.2037
ENERGY: 1200000 1.2107 1.8666 1.4376 0.0000 -10682.9814 1416.5870 0.0000 0.0000 1686.0143 -7575.8653 287.8511 -9261.8795 -7495.8294 301.0182 -521.0915 -421.4321 30720.8887 -143.2166 -80.9462
ENERGY: 1500000 1.1224 3.1266 1.4159 0.0000 -10551.3906 1329.0298 0.0000 0.0000 1765.4704 -7451.2255 301.4165 -9216.6959 -7484.6935 301.6546 -871.6528 -807.8317 30735.9780 -205.8071 -142.6243
TCL: Running FEP window  20: Lambda1 0.9500000000000003 Lambda2 1.0    [dLambda 0.04999999999999971]
TCL: Setting parameter firsttimestep to 0
TCL: Setting parameter alchLambda to 0.9500000000000003
Info: NONBONDED TABLE R-SQUARED SPACING: 0.0625
Info: NONBONDED TABLE SIZE: 705 POINTS
TCL: Setting parameter alchLambda2 to 1.0
Info: NONBONDED TABLE R-SQUARED SPACING: 0.0625
Info: NONBONDED TABLE SIZE: 705 POINTS
TCL: Running for 1500000 steps
ETITLE: TS BOND ANGLE DIHED IMPRP ELECT VDW BOUNDARY MISC KINETIC TOTAL TEMP POTENTIAL TOTALAVG TEMPAVG PRESSURE GPRESSURE VOLUME PRESSAVG GPRESSAVG
ENERGY: 0 1.1224 3.1266 1.4159 0.0000 -10551.4923 1329.2110 0.0000 0.0000 1764.6214 -7451.9950 301.2715 -9216.6164 -7451.9950 301.2715 -875.3079 -791.8325 30735.9780 -875.3079 -791.8325
ENERGY: 300000 3.6485 3.7776 1.7066 0.0000 -10735.5146 1450.3610 0.0000 0.0000 1807.0068 -7469.0141 308.5079 -9276.0208 -7524.5103 301.9208 -124.0005 -61.0572 30580.3717 -249.5962 -155.3096
ENERGY: 600000 0.0379 3.5646 1.1430 0.0000 -10824.7029 1570.7430 0.0000 0.0000 1748.4659 -7500.7485 298.5133 -9249.2143 -7508.7296 299.6985 797.5405 807.0050 30765.3457 -74.0297 4.5782
ENERGY: 900000 1.5591 2.8518 1.8449 0.0000 -10600.3924 1363.1933 0.0000 0.0000 1802.5180 -7428.4254 307.7416 -9230.9434 -7492.1549 301.4442 -419.2401 -425.6431 30510.8544 -158.4593 -88.6317
ENERGY: 1200000 1.0177 2.0065 1.3361 0.0000 -10802.7668 1483.7761 0.0000 0.0000 1778.0884 -7536.5420 303.5707 -9314.6304 -7492.2262 301.2699 274.5517 334.3780 30281.5019 -94.5977 -26.0375
ENERGY: 1500000 1.2649 3.6118 1.6459 0.0000 -10651.4287 1393.8889 0.0000 0.0000 1779.6787 -7471.3386 303.8423 -9251.0173 -7482.3945 301.9911 -135.0433 -73.5151 30040.6722 -13.7726 53.5261
TCL: Exiting due to exit command.
