Info: SIMULATION PARAMETERS:
Info: TIMESTEP               2
Info: NUMBER OF STEPS        0
Info: STEPS PER CYCLE        10
Info: PERIODIC CELL BASIS 1  40.176 0 0
Info: PERIODIC CELL BASIS 2  0 39.013 0
Info: PERIODIC CELL BASIS 3  0 0 42.009
Info: PERIODIC CELL CENTER   0 0 0
Info: WRAPPING WATERS AROUND PERIODIC BOUNDARIES ON OUTPUT.
Info: WRAPPING ALL CLUSTERS AROUND PERIODIC BOUNDARIES ON OUTPUT.
Info: FIRST LDB TIMESTEP     50
Info: LAST LDB TIMESTEP     -1
Info: HOM BACKGROUND SCALING 1
Info: PME BACKGROUND SCALING 1
Info: MIN ATOMS PER PATCH    40
Info: EMPTY PATCH LOAD       40 ATOMS
Info: INITIAL TEMPERATURE    300
Info: CENTER OF MASS MOVING INITIALLY? NO
Info: DIELECTRIC             1
Info: EXCLUDE                SCALED ONE-FOUR
Info: 1-4 ELECTROSTATICS SCALED BY 0.833333
Info: MODIFIED 1-4 VDW PARAMETERS WILL BE USED
Info: DCD FILENAME           mobley_3187514_min.dcd
Info: DCD FREQUENCY          5000
Info: DCD FIRST STEP         5000
Info: DCD FILE WILL CONTAIN UNIT CELL DATA
Info: XST FILENAME           mobley_3187514_min.xst
Info: XST FREQUENCY          5000
Info: NO VELOCITY DCD OUTPUT
Info: NO FORCE DCD OUTPUT
Info: OUTPUT FILENAME        mobley_3187514_min
Info: BINARY OUTPUT FILES WILL BE USED
Info: RESTART FILENAME       mobley_3187514_min.restart
Info: RESTART FREQUENCY      5000
Info: BINARY RESTART FILES WILL BE USED
Info: CUTOFF                 9
Info: PAIRLIST DISTANCE      11
Info: PAIRLIST SHRINK RATE   0.01
Info: PAIRLIST GROW RATE     0.01
Info: PAIRLIST TRIGGER       0.3
Info: PAIRLISTS PER CYCLE    2
Info: PAIRLISTS ENABLED
Info: MARGIN                 8
Info: HYDROGEN GROUP CUTOFF  2.5
Info: PATCH DIMENSION        21.5
Info: ENERGY OUTPUT STEPS    5000
Info: ENERGY EVALUATION STEPS    5000
Info: OUTPUT ENERGY PRECISION 4
Info: CROSSTERM ENERGY INCLUDED IN DIHEDRAL
Info: TIMING OUTPUT STEPS    50000
Info: PRESSURE OUTPUT STEPS  5000
Info: LANGEVIN DYNAMICS ACTIVE
Info: LANGEVIN TEMPERATURE   300
Info: LANGEVIN USING BBK INTEGRATOR
Info: LANGEVIN DAMPING COEFFICIENT IS 1 INVERSE PS
Info: LANGEVIN DYNAMICS APPLIED TO HYDROGENS
Info: LANGEVIN PISTON PRESSURE CONTROL ACTIVE
Info:        TARGET PRESSURE IS 1.01325 BAR
Info:     OSCILLATION PERIOD IS 50 FS
Info:             DECAY TIME IS 25 FS
Info:     PISTON TEMPERATURE IS 300 K
Info:       PRESSURE CONTROL IS GROUP-BASED
Info:    INITIAL STRAIN RATE IS 0 0 0
Info:       CELL FLUCTUATION IS ISOTROPIC
Info: PARTICLE MESH EWALD (PME) ACTIVE
Info: PME TOLERANCE               1e-06
Info: PME EWALD COEFFICIENT       0.348832
Info: PME INTERPOLATION ORDER     4
Info: PME GRID DIMENSIONS         44 40 44
Info: PME MAXIMUM GRID SPACING    1
Info: FULL ELECTROSTATIC EVALUATION FREQUENCY      2
Info: USING VERLET I (r-RESPA) MTS SCHEME.
Info: C1 SPLITTING OF LONG RANGE ELECTROSTATICS
Info: PLACING ATOMS IN PATCHES BY HYDROGEN GROUPS
Info: RIGID BONDS TO HYDROGEN : ALL
Info:         ERROR TOLERANCE : 1e-08
Info:          MAX ITERATIONS : 100
Info: RIGID WATER USING SETTLE ALGORITHM
Info: RANDOM NUMBER SEED     1741340576
Info: USE HYDROGEN BONDS?    NO
Info: Using AMBER format force field!
Info: AMBER PARM FILE        mobley_3187514.prmtop
Info: COORDINATE PDB         mobley_3187514.pdb
Info: Exclusions will be read from PARM file!
Info: SCNB (VDW SCALING)     2
Info: USING ARITHMETIC MEAN TO COMBINE L-J SIGMA PARAMETERS
Info: SUMMARY OF PARAMETERS:
Info: 8 BONDS
Info: 8 ANGLES
Info:   8 HARMONIC
Info:   0 COSINE-BASED
Info: 4 DIHEDRAL
Info: 0 IMPROPER
Info: 0 CROSSTERM
Info: 0 VDW
Info: 36 VDW_PAIRS
Info: 0 NBTHOLE_PAIRS
Info: STRUCTURE SUMMARY:
Info: 4727 ATOMS
Info: 4727 BONDS
Info: 27 ANGLES
Info: 39 DIHEDRALS
Info: 0 IMPROPERS
Info: 0 CROSSTERMS
Info: 4785 EXCLUSIONS
Info: 4719 RIGID BONDS
Info: 9462 DEGREES OF FREEDOM
Info: 1578 HYDROGEN GROUPS
Info: 4 ATOMS IN LARGEST HYDROGEN GROUP
Info: 1578 MIGRATION GROUPS
Info: 4 ATOMS IN LARGEST MIGRATION GROUP
Info: TOTAL MASS = 28392.3 amu
Info: TOTAL CHARGE = 4.09782e-08 e
Info: MASS DENSITY = 0.716046 g/cm^3
Info: ATOM DENSITY = 0.0717905 atoms/A^3
Info: ADDED 0 IMPLICIT EXCLUSIONS
Info: NONBONDED TABLE R-SQUARED SPACING: 0.0625
Info: NONBONDED TABLE SIZE: 705 POINTS
Info: REMOVING COM VELOCITY -0.0482667 -0.0338737 0.0681144
TCL: Minimizing for 2000 steps
ETITLE: TS BOND ANGLE DIHED IMPRP ELECT VDW BOUNDARY MISC KINETIC TOTAL TEMP POTENTIAL TOTAL3 TEMPAVG PRESSURE GPRESSURE VOLUME PRESSAVG GPRESSAVG
ENERGY: 0 0.1530 0.9695 0.0255 0.0000 -14770.9926 1710.3938 0.0000 0.0000 0.0000 -13059.4509 0.0000 -13059.4509 -13059.4509 0.0000 11249.6275 -15547.9092 65844.3306 11249.6275 -15547.9092
ENERGY: 400 46.2868 25.7407 3.7379 0.0000 -20055.5637 3097.5893 0.0000 0.0000 0.0000 -16882.2090 0.0000 -16882.2090 -16882.2090 0.0000 16638.6109 16754.9091 65844.3306 16638.6109 16754.9091
ENERGY: 800 0.3726 0.7340 0.8808 0.0000 -20888.0659 3358.0393 0.0000 0.0000 0.0000 -17528.0393 0.0000 -17528.0393 -17528.0393 0.0000 17936.0222 18060.7216 65844.3306 17936.0222 18060.7216
ENERGY: 1200 0.5717 0.3778 1.1318 0.0000 -21299.7721 3548.2011 0.0000 0.0000 0.0000 -17749.4896 0.0000 -17749.4896 -17749.4896 0.0000 18902.3605 19020.2026 65844.3306 18902.3605 19020.2026
ENERGY: 1600 0.3925 0.2584 1.0682 0.0000 -21475.8526 3625.7343 0.0000 0.0000 0.0000 -17848.3991 0.0000 -17848.3991 -17848.3991 0.0000 19324.3293 19436.8103 65844.3306 19324.3293 19436.8103
ENERGY: 2000 0.3321 0.2643 1.1866 0.0000 -21596.4595 3687.1072 0.0000 0.0000 0.0000 -17907.5692 0.0000 -17907.5692 -17907.5692 0.0000 19634.2091 19740.6810 65844.3306 19634.2091 19740.6810
TCL: Exiting due to exit command.
Info: NAMD 3.0.1 for Linux-x86_64-multicore
Info: Please visit http://www.ks.uiuc.edu/Research/namd/
Info: for updates, documentation, and support information.
Info: Please cite Phillips et al., J. Chem. Phys. 153:044130 (2020) doi:10.1063/5.0014475
Info: in all publications reporting results obtained with NAMD.
Info: Based on Charm++/Converse 80000 for multicore-linux-x86_64-gcc
Info: Built Mon Oct 14 11:11:06 CDT 2024 by dhardy on athine.ks.uiuc.edu
Info: 1 NAMD  3.0.1  Linux-x86_64-multicore  16    k008  z5358697
Info: Running on 16 processors, 1 nodes, 1 physical nodes.
Info: CPU topology information available.
Info: Charm++/Converse parallel runtime startup completed at 0.0107146 s
Info: 1043.45 MB of memory in use based on /proc/self/stat
Info: Configuration file is mobley_3187514_equil.namd
Info: Working in the current directory /srv/scratch/z5358697/prod_prep_3/3187514
TCL: Running 25000 steps at 30 kelvin.
TCL: Suspending until startup complete.
Info: SIMULATION PARAMETERS:
Info: TIMESTEP               2
Info: NUMBER OF STEPS        0
Info: STEPS PER CYCLE        10
Info: PERIODIC CELL BASIS 1  40.176 0 0
Info: PERIODIC CELL BASIS 2  0 39.013 0
Info: PERIODIC CELL BASIS 3  0 0 42.009
Info: PERIODIC CELL CENTER   0 0 0
Info: WRAPPING WATERS AROUND PERIODIC BOUNDARIES ON OUTPUT.
Info: WRAPPING ALL CLUSTERS AROUND PERIODIC BOUNDARIES ON OUTPUT.
Info: FIRST LDB TIMESTEP     50
Info: LAST LDB TIMESTEP     -1
Info: HOM BACKGROUND SCALING 1
Info: PME BACKGROUND SCALING 1
Info: MIN ATOMS PER PATCH    40
Info: EMPTY PATCH LOAD       40 ATOMS
Info: INITIAL TEMPERATURE    300
Info: CENTER OF MASS MOVING INITIALLY? NO
Info: DIELECTRIC             1
Info: EXCLUDE                SCALED ONE-FOUR
Info: 1-4 ELECTROSTATICS SCALED BY 0.833333
Info: MODIFIED 1-4 VDW PARAMETERS WILL BE USED
Info: DCD FILENAME           mobley_3187514_equil.dcd
Info: DCD FREQUENCY          5000
Info: DCD FIRST STEP         5000
Info: DCD FILE WILL CONTAIN UNIT CELL DATA
Info: XST FILENAME           mobley_3187514_equil.xst
Info: XST FREQUENCY          5000
Info: NO VELOCITY DCD OUTPUT
Info: NO FORCE DCD OUTPUT
Info: OUTPUT FILENAME        mobley_3187514_equil
Info: BINARY OUTPUT FILES WILL BE USED
Info: RESTART FILENAME       mobley_3187514_equil.restart
Info: RESTART FREQUENCY      5000
Info: BINARY RESTART FILES WILL BE USED
Info: CUTOFF                 9
Info: PAIRLIST DISTANCE      11
Info: PAIRLIST SHRINK RATE   0.01
Info: PAIRLIST GROW RATE     0.01
Info: PAIRLIST TRIGGER       0.3
Info: PAIRLISTS PER CYCLE    2
Info: PAIRLISTS ENABLED
Info: MARGIN                 8
Info: HYDROGEN GROUP CUTOFF  2.5
Info: PATCH DIMENSION        21.5
Info: ENERGY OUTPUT STEPS    5000
Info: ENERGY EVALUATION STEPS    5000
Info: OUTPUT ENERGY PRECISION 4
Info: CROSSTERM ENERGY INCLUDED IN DIHEDRAL
Info: TIMING OUTPUT STEPS    50000
Info: PRESSURE OUTPUT STEPS  5000
Info: LANGEVIN DYNAMICS ACTIVE
Info: LANGEVIN TEMPERATURE   30
Info: LANGEVIN USING BBK INTEGRATOR
Info: LANGEVIN DAMPING COEFFICIENT IS 1 INVERSE PS
Info: LANGEVIN DYNAMICS APPLIED TO HYDROGENS
Info: LANGEVIN PISTON PRESSURE CONTROL ACTIVE
Info:        TARGET PRESSURE IS 1.01325 BAR
Info:     OSCILLATION PERIOD IS 50 FS
Info:             DECAY TIME IS 25 FS
Info:     PISTON TEMPERATURE IS 300 K
Info:       PRESSURE CONTROL IS GROUP-BASED
Info:    INITIAL STRAIN RATE IS 0 0 0
Info:       CELL FLUCTUATION IS ISOTROPIC
Info: PARTICLE MESH EWALD (PME) ACTIVE
Info: PME TOLERANCE               1e-06
Info: PME EWALD COEFFICIENT       0.348832
Info: PME INTERPOLATION ORDER     4
Info: PME GRID DIMENSIONS         44 40 44
Info: PME MAXIMUM GRID SPACING    1
Info: FULL ELECTROSTATIC EVALUATION FREQUENCY      2
Info: USING VERLET I (r-RESPA) MTS SCHEME.
Info: C1 SPLITTING OF LONG RANGE ELECTROSTATICS
Info: PLACING ATOMS IN PATCHES BY HYDROGEN GROUPS
Info: RIGID BONDS TO HYDROGEN : ALL
Info:         ERROR TOLERANCE : 1e-08
Info:          MAX ITERATIONS : 100
Info: RIGID WATER USING SETTLE ALGORITHM
Info: RANDOM NUMBER SEED     1741340592
Info: USE HYDROGEN BONDS?    NO
Info: Using AMBER format force field!
Info: AMBER PARM FILE        mobley_3187514.prmtop
Info: COORDINATE PDB         mobley_3187514.pdb
Info: Exclusions will be read from PARM file!
Info: SCNB (VDW SCALING)     2
Info: USING ARITHMETIC MEAN TO COMBINE L-J SIGMA PARAMETERS
Info: BINARY COORDINATES     mobley_3187514_min.coor
Info: SUMMARY OF PARAMETERS:
Info: 8 BONDS
Info: 8 ANGLES
Info:   8 HARMONIC
Info:   0 COSINE-BASED
Info: 4 DIHEDRAL
Info: 0 IMPROPER
Info: 0 CROSSTERM
Info: 0 VDW
Info: 36 VDW_PAIRS
Info: 0 NBTHOLE_PAIRS
Info: STRUCTURE SUMMARY:
Info: 4727 ATOMS
Info: 4727 BONDS
Info: 27 ANGLES
Info: 39 DIHEDRALS
Info: 0 IMPROPERS
Info: 0 CROSSTERMS
Info: 4785 EXCLUSIONS
Info: 4719 RIGID BONDS
Info: 9462 DEGREES OF FREEDOM
Info: 1578 HYDROGEN GROUPS
Info: 4 ATOMS IN LARGEST HYDROGEN GROUP
Info: 1578 MIGRATION GROUPS
Info: 4 ATOMS IN LARGEST MIGRATION GROUP
Info: TOTAL MASS = 28392.3 amu
Info: TOTAL CHARGE = 4.09782e-08 e
Info: MASS DENSITY = 0.716046 g/cm^3
Info: ATOM DENSITY = 0.0717905 atoms/A^3
Info: ADDED 0 IMPLICIT EXCLUSIONS
Info: NONBONDED TABLE R-SQUARED SPACING: 0.0625
Info: NONBONDED TABLE SIZE: 705 POINTS
Info: REMOVING COM VELOCITY 0.0760177 0.126884 -0.0380423
TCL: Running for 25000 steps
ETITLE: TS BOND ANGLE DIHED IMPRP ELECT VDW BOUNDARY MISC KINETIC TOTAL TEMP POTENTIAL TOTAL3 TEMPAVG PRESSURE GPRESSURE VOLUME PRESSAVG GPRESSAVG
ENERGY: 0 0.3321 0.2643 1.1866 0.0000 -21596.4595 3687.1072 0.0000 0.0000 2807.4765 -15100.0927 298.6232 -17907.5692 -15099.5312 298.6232 57.8662 87.4507 65844.3306 57.8662 87.4507
ENERGY: 5000 0.4560 0.5549 1.4136 0.0000 -22514.1497 3803.7987 0.0000 0.0000 289.9915 -18417.9351 30.8456 -18707.9266 -18417.0928 48.0617 -442.9618 -366.3958 46046.5358 5.0418 5.2387
ENERGY: 10000 1.3458 1.4291 1.7753 0.0000 -22472.8690 3707.7721 0.0000 0.0000 282.4728 -18478.0738 30.0458 -18760.5467 -18477.4029 30.5302 -1107.0970 -1045.2134 46229.6681 4.8727 4.8459
ENERGY: 15000 0.4103 0.7431 1.7483 0.0000 -22885.4564 4103.8061 0.0000 0.0000 277.6521 -18501.0966 29.5331 -18778.7487 -18500.6039 30.1792 1041.0914 1102.0809 45481.0310 -3.0925 -3.0837
ENERGY: 20000 0.8401 0.8890 2.1365 0.0000 -22590.6043 3795.4170 0.0000 0.0000 278.7838 -18512.5378 29.6534 -18791.3216 -18511.9110 30.2666 -751.6892 -696.1664 46043.8601 -3.3690 -3.3457
ENERGY: 25000 0.3635 1.0369 2.1524 0.0000 -22684.0983 3877.4899 0.0000 0.0000 277.5936 -18525.4621 29.5268 -18803.0557 -18524.4765 29.9572 -257.8095 -199.7623 45878.5051 0.8840 0.8538
TCL: Running 25000 steps at 60 kelvin.
TCL: Setting parameter langevinTemp to 60
TCL: Running for 25000 steps
ETITLE: TS BOND ANGLE DIHED IMPRP ELECT VDW BOUNDARY MISC KINETIC TOTAL TEMP POTENTIAL TOTAL3 TEMPAVG PRESSURE GPRESSURE VOLUME PRESSAVG GPRESSAVG
ENERGY: 25000 0.3635 1.0369 2.1524 0.0000 -22684.0983 3877.4899 0.0000 0.0000 277.4489 -18525.6067 29.5114 -18803.0557 -18524.9399 29.5114 -262.2409 -199.6129 45878.5051 -262.2409 -199.6129
ENERGY: 30000 0.4812 1.8743 2.5674 0.0000 -22257.2306 3718.9995 0.0000 0.0000 557.9158 -17975.3924 59.3439 -18533.3082 -17973.7778 56.9610 -424.5558 -367.1839 46067.7762 1.3179 1.3245
ENERGY: 35000 0.8593 1.1918 0.7758 0.0000 -22367.1034 3754.7591 0.0000 0.0000 560.7047 -18048.8127 59.6405 -18609.5174 -18047.5498 59.9924 -488.7235 -416.9151 46189.9529 2.7025 2.6856
ENERGY: 40000 0.6938 0.9799 2.0668 0.0000 -22457.2699 3844.2226 0.0000 0.0000 563.7186 -18045.5881 59.9611 -18609.3067 -18044.1323 60.0668 15.8764 76.6511 45832.1590 6.9866 7.0381
ENERGY: 45000 0.3735 1.9093 2.1408 0.0000 -22665.5898 4014.1800 0.0000 0.0000 562.3582 -18084.6279 59.8164 -18646.9862 -18082.5831 60.3499 960.5919 997.8542 45491.1691 4.7668 4.6771
ENERGY: 50000 0.9029 1.7905 1.9234 0.0000 -22633.8208 3962.4395 0.0000 0.0000 559.7998 -18106.9647 59.5443 -18666.7645 -18105.4695 60.0872 518.1249 577.5080 45722.8498 2.9392 2.9118
TCL: Running 25000 steps at 90 kelvin.
TCL: Setting parameter langevinTemp to 90
TCL: Running for 25000 steps
ETITLE: TS BOND ANGLE DIHED IMPRP ELECT VDW BOUNDARY MISC KINETIC TOTAL TEMP POTENTIAL TOTAL3 TEMPAVG PRESSURE GPRESSURE VOLUME PRESSAVG GPRESSAVG
ENERGY: 50000 0.9029 1.7905 1.9234 0.0000 -22633.8208 3962.4395 0.0000 0.0000 559.5217 -18107.2428 59.5147 -18666.7645 -18106.3466 59.5147 511.2417 577.5622 45722.8498 511.2417 577.5622
ENERGY: 55000 0.5703 1.1616 1.9089 0.0000 -22140.5463 3752.2541 0.0000 0.0000 856.8814 -17527.7701 91.1440 -18384.6515 -17526.0628 87.1547 -0.4683 72.4601 46217.9052 3.6846 3.3402
ENERGY: 60000 0.8898 1.4676 2.0205 0.0000 -22188.7323 3744.4364 0.0000 0.0000 828.2459 -17611.6720 88.0981 -18439.9179 -17608.9570 90.8849 -133.9655 -57.1967 45997.6448 4.4578 4.1123
ENERGY: 65000 0.7472 1.6637 2.0646 0.0000 -22272.9864 3811.9926 0.0000 0.0000 845.6394 -17610.8788 89.9482 -18456.5182 -17608.7375 89.7578 218.7866 298.7310 45887.3326 -0.5094 -0.2878
ENERGY: 70000 0.4627 2.5134 0.9653 0.0000 -22161.3351 3684.5219 0.0000 0.0000 850.0673 -17622.8045 90.4192 -18472.8718 -17620.7123 89.9926 -496.5364 -461.0013 45964.6153 0.4085 0.5743
ENERGY: 75000 0.4763 1.5400 2.1877 0.0000 -22384.4225 3866.9184 0.0000 0.0000 856.8464 -17656.4537 91.1403 -18513.3001 -17654.0734 89.9221 498.7909 561.9945 45398.3676 0.4039 0.6124
TCL: Running 25000 steps at 120 kelvin.
TCL: Setting parameter langevinTemp to 120
TCL: Running for 25000 steps
ETITLE: TS BOND ANGLE DIHED IMPRP ELECT VDW BOUNDARY MISC KINETIC TOTAL TEMP POTENTIAL TOTAL3 TEMPAVG PRESSURE GPRESSURE VOLUME PRESSAVG GPRESSAVG
ENERGY: 75000 0.4763 1.5400 2.1877 0.0000 -22384.4225 3866.9184 0.0000 0.0000 856.4319 -17656.8683 91.0962 -18513.3001 -17655.0857 91.0962 503.4660 561.7577 45398.3676 503.4660 561.7577
ENERGY: 80000 0.5962 2.9195 2.1290 0.0000 -21868.2257 3642.5875 0.0000 0.0000 1131.9772 -17088.0163 120.4052 -18219.9935 -17083.8511 116.2064 -73.8417 12.1338 45956.9570 2.3716 2.1855
ENERGY: 85000 0.9282 1.4226 2.2316 0.0000 -21810.3398 3585.4831 0.0000 0.0000 1106.4720 -17113.8022 117.6923 -18220.2743 -17109.9874 120.2208 -343.8958 -281.6464 46032.1580 4.8813 4.9971
ENERGY: 90000 0.9622 1.9696 3.5158 0.0000 -21980.8739 3750.1580 0.0000 0.0000 1146.2664 -17078.0019 121.9251 -18224.2682 -17075.8791 120.4199 532.8750 561.5603 45776.5704 3.3725 3.4898
ENERGY: 95000 2.0114 3.0879 2.9356 0.0000 -21684.6020 3452.0658 0.0000 0.0000 1116.5615 -17107.9398 118.7654 -18224.5012 -17104.4636 120.5316 -1155.0691 -1101.6722 46193.7933 4.6198 4.5583
ENERGY: 100000 0.4081 1.3655 3.1542 0.0000 -22052.8357 3802.5989 0.0000 0.0000 1144.9374 -17100.3716 121.7837 -18245.3090 -17097.0221 119.5199 718.5929 798.6180 45690.8359 2.1222 1.9324
TCL: Running 25000 steps at 150 kelvin.
TCL: Setting parameter langevinTemp to 150
TCL: Running for 25000 steps
ETITLE: TS BOND ANGLE DIHED IMPRP ELECT VDW BOUNDARY MISC KINETIC TOTAL TEMP POTENTIAL TOTAL3 TEMPAVG PRESSURE GPRESSURE VOLUME PRESSAVG GPRESSAVG
ENERGY: 100000 0.4081 1.3655 3.1542 0.0000 -22052.8357 3802.5989 0.0000 0.0000 1144.3740 -17100.9350 121.7238 -18245.3090 -17099.2952 121.7238 728.6624 799.2248 45690.8359 728.6624 799.2248
ENERGY: 105000 1.6268 3.4932 2.8480 0.0000 -21492.7608 3586.4606 0.0000 0.0000 1419.3584 -16478.9740 150.9731 -17898.3323 -16475.0626 146.3919 258.3322 292.0264 46181.4450 7.4862 7.6439
ENERGY: 110000 1.7947 1.6875 3.3554 0.0000 -21485.8581 3535.1564 0.0000 0.0000 1413.6450 -16530.2190 150.3654 -17943.8641 -16526.3978 150.9620 -40.8148 11.2366 46179.7558 0.7242 0.6703
ENERGY: 115000 0.5860 6.0194 4.2534 0.0000 -21586.6626 3635.7567 0.0000 0.0000 1425.8323 -16514.2148 151.6617 -17940.0471 -16511.0735 150.3080 490.7576 545.9745 46088.8166 4.9470 5.1580
ENERGY: 120000 0.2482 4.3294 3.8817 0.0000 -21603.1588 3586.4168 0.0000 0.0000 1444.6665 -16563.6162 153.6650 -18008.2827 -16560.6239 150.9145 143.9789 225.1094 45977.1608 3.6376 3.8053
ENERGY: 125000 0.5696 1.9892 2.9711 0.0000 -21667.0677 3709.2415 0.0000 0.0000 1410.7142 -16541.5822 150.0536 -17952.2964 -16539.6760 149.9373 926.3726 949.7691 45904.9398 5.5203 5.4834
TCL: Running 50000 steps at 180 kelvin.
TCL: Setting parameter langevinTemp to 180
TCL: Running for 50000 steps
ETITLE: TS BOND ANGLE DIHED IMPRP ELECT VDW BOUNDARY MISC KINETIC TOTAL TEMP POTENTIAL TOTAL3 TEMPAVG PRESSURE GPRESSURE VOLUME PRESSAVG GPRESSAVG
ENERGY: 125000 0.5696 1.9892 2.9711 0.0000 -21667.0678 3709.2415 0.0000 0.0000 1410.0252 -16542.2712 149.9803 -17952.2964 -16539.4904 149.9803 912.2067 949.1581 45904.9398 912.2067 949.1581
ENERGY: 135000 1.2416 3.9467 2.5078 0.0000 -20999.5809 3368.7782 0.0000 0.0000 1711.1887 -15911.9178 182.0142 -17623.1065 -15907.3897 180.3030 -277.0753 -229.0060 46648.1314 6.4234 6.3286
ENERGY: 145000 2.0969 2.0181 3.6116 0.0000 -21053.2863 3398.8283 0.0000 0.0000 1683.1460 -15963.5853 179.0314 -17646.7314 -15957.9048 180.6319 -179.9187 -124.2345 46381.1499 6.4586 5.9230
ENERGY: 155000 0.8144 4.6133 1.8834 0.0000 -21102.0286 3495.4993 0.0000 0.0000 1690.1899 -15909.0283 179.7806 -17599.2182 -15904.4980 180.2232 630.1418 678.5049 46077.0421 3.2240 2.9123
ENERGY: 165000 2.6851 3.3973 1.5036 0.0000 -21096.0350 3479.8681 0.0000 0.0000 1688.0772 -15920.5037 179.5559 -17608.5809 -15919.1967 179.7742 515.3088 568.7782 45875.7772 0.6539 1.1025
ENERGY: 175000 1.8606 1.8154 3.7013 0.0000 -20979.5839 3368.5291 0.0000 0.0000 1722.9787 -15880.6988 183.2683 -17603.6776 -15875.7622 181.1658 -175.3283 -93.6381 46432.6216 1.7886 1.8781
TCL: Running 50000 steps at 210 kelvin.
TCL: Setting parameter langevinTemp to 210
TCL: Running for 50000 steps
ETITLE: TS BOND ANGLE DIHED IMPRP ELECT VDW BOUNDARY MISC KINETIC TOTAL TEMP POTENTIAL TOTAL3 TEMPAVG PRESSURE GPRESSURE VOLUME PRESSAVG GPRESSAVG
ENERGY: 175000 1.8606 1.8154 3.7013 0.0000 -20979.5839 3368.5291 0.0000 0.0000 1722.1262 -15881.5513 183.1776 -17603.6776 -15878.6120 183.1776 -154.1296 -93.8550 46432.6216 -154.1296 -93.8550
ENERGY: 185000 3.6783 3.8883 3.9211 0.0000 -20106.9849 3132.7290 0.0000 0.0000 1994.2386 -14968.5296 212.1214 -16962.7682 -14965.4903 208.6057 52.4942 165.7684 46469.2280 0.5965 0.8923
ENERGY: 195000 0.4860 2.6744 3.8935 0.0000 -20015.8312 3129.9191 0.0000 0.0000 1951.7063 -14927.1521 207.5974 -16878.8583 -14925.2813 209.3965 405.6827 450.7870 46006.3487 3.0527 3.2957
ENERGY: 205000 1.7914 5.2836 3.7624 0.0000 -20098.0714 3204.9627 0.0000 0.0000 1990.5210 -14891.7503 211.7260 -16882.2713 -14888.4349 211.2106 914.8027 956.8203 45609.5483 4.8204 4.4072
ENERGY: 215000 1.2842 7.1893 1.7465 0.0000 -20017.4741 3100.4269 0.0000 0.0000 1972.7535 -14934.0737 209.8361 -16906.8272 -14929.4242 210.2750 478.7171 547.7332 45692.6396 0.6145 0.9570
ENERGY: 225000 2.8068 3.4287 1.8761 0.0000 -19928.0264 3074.4283 0.0000 0.0000 1926.1660 -14919.3205 204.8807 -16845.4865 -14915.5127 209.9828 -142.1682 -22.1950 46748.4792 7.7947 7.2405
TCL: Running 50000 steps at 240 kelvin.
TCL: Setting parameter langevinTemp to 240
TCL: Running for 50000 steps
ETITLE: TS BOND ANGLE DIHED IMPRP ELECT VDW BOUNDARY MISC KINETIC TOTAL TEMP POTENTIAL TOTAL3 TEMPAVG PRESSURE GPRESSURE VOLUME PRESSAVG GPRESSAVG
ENERGY: 225000 2.8068 3.4287 1.8761 0.0000 -19928.0264 3074.4283 0.0000 0.0000 1925.1734 -14920.3131 204.7752 -16845.4865 -14916.3947 204.7752 -103.5047 -23.3277 46748.4792 -103.5047 -23.3277
ENERGY: 235000 2.8784 3.8028 4.8248 0.0000 -18953.5751 2781.9493 0.0000 0.0000 2181.7082 -13978.4116 232.0620 -16160.1198 -13972.1462 240.1739 -57.4987 12.9571 47005.9017 1.8712 2.3353
ENERGY: 245000 1.6058 3.0697 4.3716 0.0000 -18951.5944 2791.9429 0.0000 0.0000 2314.3751 -13836.2293 246.1734 -16150.6044 -13832.7512 240.7409 126.2948 171.3871 47170.8896 4.2527 4.4881
ENERGY: 255000 2.1793 4.2501 2.3119 0.0000 -18821.5680 2694.4593 0.0000 0.0000 2232.6654 -13885.7021 237.4822 -16118.3674 -13879.8622 240.8099 -395.7925 -316.4937 46733.1396 0.0349 0.7457
ENERGY: 265000 3.1708 8.0943 2.2036 0.0000 -18883.0958 2795.7272 0.0000 0.0000 2246.8384 -13827.0615 238.9897 -16073.8999 -13822.2081 240.5339 327.8499 381.6434 46506.0350 5.0106 5.0343
ENERGY: 275000 1.7412 6.4294 3.1008 0.0000 -18980.4499 2814.6167 0.0000 0.0000 2250.3033 -13904.2585 239.3583 -16154.5618 -13897.9549 239.4109 187.3257 224.8487 47071.3732 0.7771 0.9119
TCL: Running 50000 steps at 270 kelvin.
TCL: Setting parameter langevinTemp to 270
TCL: Running for 50000 steps
ETITLE: TS BOND ANGLE DIHED IMPRP ELECT VDW BOUNDARY MISC KINETIC TOTAL TEMP POTENTIAL TOTAL3 TEMPAVG PRESSURE GPRESSURE VOLUME PRESSAVG GPRESSAVG
ENERGY: 275000 1.7412 6.4294 3.1008 0.0000 -18980.4499 2814.6167 0.0000 0.0000 2249.1807 -13905.3811 239.2389 -16154.5618 -13901.6817 239.2389 148.5505 225.4387 47071.3732 148.5505 225.4387
ENERGY: 285000 2.3542 6.0810 1.9346 0.0000 -18058.1216 2504.8786 0.0000 0.0000 2615.3132 -12927.5601 278.1834 -15542.8733 -12923.2357 269.3202 -6.7200 57.3754 47303.4033 -0.5679 -1.3600
ENERGY: 295000 2.1620 3.7746 3.0334 0.0000 -17822.7324 2391.3358 0.0000 0.0000 2521.4143 -12901.0122 268.1956 -15422.4265 -12894.9808 271.6717 -381.3562 -327.4580 47322.8845 2.5864 2.8361
ENERGY: 305000 3.4662 5.4537 1.1148 0.0000 -18004.8277 2444.7175 0.0000 0.0000 2526.8751 -13023.2004 268.7765 -15550.0755 -13016.3802 270.5414 -492.4218 -459.3301 47367.1517 2.2601 2.2923
ENERGY: 315000 2.2677 5.0059 6.4534 0.0000 -18159.9672 2534.8950 0.0000 0.0000 2575.4770 -13035.8683 273.9461 -15611.3453 -13032.4888 269.3564 99.4182 160.5931 47047.8959 0.9423 1.1175
ENERGY: 325000 3.5840 7.0203 3.0175 0.0000 -18029.8949 2442.9932 0.0000 0.0000 2591.7040 -12981.5759 275.6721 -15573.2799 -12975.8177 270.5764 -506.2223 -464.0075 47643.6185 1.2245 1.2571
TCL: Running 1000000 steps at 300 kelvin.
TCL: Setting parameter langevinTemp to 300
TCL: Running for 1000000 steps
ETITLE: TS BOND ANGLE DIHED IMPRP ELECT VDW BOUNDARY MISC KINETIC TOTAL TEMP POTENTIAL TOTAL3 TEMPAVG PRESSURE GPRESSURE VOLUME PRESSAVG GPRESSAVG
ENERGY: 325000 3.5840 7.0203 3.0175 0.0000 -18029.8949 2442.9932 0.0000 0.0000 2590.4586 -12982.8213 275.5396 -15573.2799 -12978.1895 275.5396 -555.4305 -464.2796 47643.6185 -555.4305 -464.2796
ENERGY: 525000 1.3005 5.8898 2.9685 0.0000 -17314.6874 2478.2513 0.0000 0.0000 2834.4488 -11991.8285 301.4922 -14826.2773 -11985.6243 301.0806 685.9933 821.8955 48910.6547 6.3095 6.4027
ENERGY: 725000 0.6971 6.0202 4.5051 0.0000 -17129.8344 2263.3956 0.0000 0.0000 2849.5996 -12005.6169 303.1037 -14855.2165 -12000.7075 300.2257 -184.0455 -68.2729 48217.9492 -3.5073 -3.1665
ENERGY: 925000 2.0762 3.7071 3.2316 0.0000 -17090.5087 2215.1872 0.0000 0.0000 2803.2609 -12063.0457 298.1748 -14866.3067 -12059.0547 299.6999 -497.8398 -476.3141 48797.5901 5.6253 5.4924
ENERGY: 1125000 2.6543 5.3631 1.8723 0.0000 -17167.2720 2345.5433 0.0000 0.0000 2889.1393 -11922.6997 307.3095 -14811.8390 -11914.8618 302.1161 342.9126 414.3263 48228.7600 3.0189 2.9339
ENERGY: 1325000 1.4603 6.3331 3.7733 0.0000 -17124.8043 2229.7970 0.0000 0.0000 2778.5503 -12104.8903 295.5464 -14883.4406 -12096.8856 299.3643 -647.0425 -540.0977 48988.4702 -0.7798 -0.8649
TCL: Exiting due to exit command.
