Info: SIMULATION PARAMETERS:
Info: TIMESTEP               2
Info: NUMBER OF STEPS        0
Info: STEPS PER CYCLE        10
Info: PERIODIC CELL BASIS 1  40.176 0 0
Info: PERIODIC CELL BASIS 2  0 43.492 0
Info: PERIODIC CELL BASIS 3  0 0 41.374
Info: PERIODIC CELL CENTER   0 0 0
Info: WRAPPING WATERS AROUND PERIODIC BOUNDARIES ON OUTPUT.
Info: WRAPPING ALL CLUSTERS AROUND PERIODIC BOUNDARIES ON OUTPUT.
Info: FIRST LDB TIMESTEP     50
Info: LAST LDB TIMESTEP     -1
Info: HOM BACKGROUND SCALING 1
Info: PME BACKGROUND SCALING 1
Info: MIN ATOMS PER PATCH    40
Info: EMPTY PATCH LOAD       40 ATOMS
Info: INITIAL TEMPERATURE    300
Info: CENTER OF MASS MOVING INITIALLY? NO
Info: DIELECTRIC             1
Info: EXCLUDE                SCALED ONE-FOUR
Info: 1-4 ELECTROSTATICS SCALED BY 0.833333
Info: MODIFIED 1-4 VDW PARAMETERS WILL BE USED
Info: DCD FILENAME           mobley_3686115_min.dcd
Info: DCD FREQUENCY          5000
Info: DCD FIRST STEP         5000
Info: DCD FILE WILL CONTAIN UNIT CELL DATA
Info: XST FILENAME           mobley_3686115_min.xst
Info: XST FREQUENCY          5000
Info: NO VELOCITY DCD OUTPUT
Info: NO FORCE DCD OUTPUT
Info: OUTPUT FILENAME        mobley_3686115_min
Info: BINARY OUTPUT FILES WILL BE USED
Info: RESTART FILENAME       mobley_3686115_min.restart
Info: RESTART FREQUENCY      5000
Info: BINARY RESTART FILES WILL BE USED
Info: CUTOFF                 9
Info: PAIRLIST DISTANCE      11
Info: PAIRLIST SHRINK RATE   0.01
Info: PAIRLIST GROW RATE     0.01
Info: PAIRLIST TRIGGER       0.3
Info: PAIRLISTS PER CYCLE    2
Info: PAIRLISTS ENABLED
Info: MARGIN                 8
Info: HYDROGEN GROUP CUTOFF  2.5
Info: PATCH DIMENSION        21.5
Info: ENERGY OUTPUT STEPS    5000
Info: ENERGY EVALUATION STEPS    5000
Info: OUTPUT ENERGY PRECISION 4
Info: CROSSTERM ENERGY INCLUDED IN DIHEDRAL
Info: TIMING OUTPUT STEPS    50000
Info: PRESSURE OUTPUT STEPS  5000
Info: LANGEVIN DYNAMICS ACTIVE
Info: LANGEVIN TEMPERATURE   300
Info: LANGEVIN USING BBK INTEGRATOR
Info: LANGEVIN DAMPING COEFFICIENT IS 1 INVERSE PS
Info: LANGEVIN DYNAMICS APPLIED TO HYDROGENS
Info: LANGEVIN PISTON PRESSURE CONTROL ACTIVE
Info:        TARGET PRESSURE IS 1.01325 BAR
Info:     OSCILLATION PERIOD IS 50 FS
Info:             DECAY TIME IS 25 FS
Info:     PISTON TEMPERATURE IS 300 K
Info:       PRESSURE CONTROL IS GROUP-BASED
Info:    INITIAL STRAIN RATE IS 0 0 0
Info:       CELL FLUCTUATION IS ISOTROPIC
Info: PARTICLE MESH EWALD (PME) ACTIVE
Info: PME TOLERANCE               1e-06
Info: PME EWALD COEFFICIENT       0.348832
Info: PME INTERPOLATION ORDER     4
Info: PME GRID DIMENSIONS         44 44 44
Info: PME MAXIMUM GRID SPACING    1
Info: FULL ELECTROSTATIC EVALUATION FREQUENCY      2
Info: USING VERLET I (r-RESPA) MTS SCHEME.
Info: C1 SPLITTING OF LONG RANGE ELECTROSTATICS
Info: PLACING ATOMS IN PATCHES BY HYDROGEN GROUPS
Info: RIGID BONDS TO HYDROGEN : ALL
Info:         ERROR TOLERANCE : 1e-08
Info:          MAX ITERATIONS : 100
Info: RIGID WATER USING SETTLE ALGORITHM
Info: RANDOM NUMBER SEED     1741328179
Info: USE HYDROGEN BONDS?    NO
Info: Using AMBER format force field!
Info: AMBER PARM FILE        mobley_3686115.prmtop
Info: COORDINATE PDB         mobley_3686115.pdb
Info: Exclusions will be read from PARM file!
Info: SCNB (VDW SCALING)     2
Info: USING ARITHMETIC MEAN TO COMBINE L-J SIGMA PARAMETERS
Info: SUMMARY OF PARAMETERS:
Info: 7 BONDS
Info: 10 ANGLES
Info:   10 HARMONIC
Info:   0 COSINE-BASED
Info: 11 DIHEDRAL
Info: 0 IMPROPER
Info: 0 CROSSTERM
Info: 0 VDW
Info: 28 VDW_PAIRS
Info: 0 NBTHOLE_PAIRS
Info: STRUCTURE SUMMARY:
Info: 5272 ATOMS
Info: 5271 BONDS
Info: 38 ANGLES
Info: 63 DIHEDRALS
Info: 0 IMPROPERS
Info: 0 CROSSTERMS
Info: 5348 EXCLUSIONS
Info: 5264 RIGID BONDS
Info: 10552 DEGREES OF FREEDOM
Info: 1758 HYDROGEN GROUPS
Info: 4 ATOMS IN LARGEST HYDROGEN GROUP
Info: 1758 MIGRATION GROUPS
Info: 4 ATOMS IN LARGEST MIGRATION GROUP
Info: TOTAL MASS = 31646.2 amu
Info: TOTAL CHARGE = 0 e
Info: MASS DENSITY = 0.726904 g/cm^3
Info: ATOM DENSITY = 0.0729242 atoms/A^3
Info: ADDED 0 IMPLICIT EXCLUSIONS
Info: NONBONDED TABLE R-SQUARED SPACING: 0.0625
Info: NONBONDED TABLE SIZE: 705 POINTS
Info: REMOVING COM VELOCITY -0.0420918 -0.0928265 0.0396476
TCL: Minimizing for 2000 steps
ETITLE: TS BOND ANGLE DIHED IMPRP ELECT VDW BOUNDARY MISC KINETIC TOTAL TEMP POTENTIAL TOTAL3 TEMPAVG PRESSURE GPRESSURE VOLUME PRESSAVG GPRESSAVG
ENERGY: 0 0.2795 1.1446 14.1174 0.0000 -16535.1838 1867.0721 0.0000 0.0000 0.0000 -14652.5701 0.0000 -14652.5701 -14652.5701 0.0000 11321.6671 -15535.7748 72294.2214 11321.6671 -15535.7748
ENERGY: 400 4.2810 1.7240 13.1828 0.0000 -22153.6018 3296.5820 0.0000 0.0000 0.0000 -18837.8320 0.0000 -18837.8320 -18837.8320 0.0000 16308.7847 10553.9037 72294.2214 16308.7847 10553.9037
ENERGY: 800 12.1359 6.9540 13.6342 0.0000 -23229.7655 3766.8951 0.0000 0.0000 0.0000 -19430.1463 0.0000 -19430.1463 -19430.1463 0.0000 18365.7818 12346.8306 72294.2214 18365.7818 12346.8306
ENERGY: 1200 0.3423 0.7924 13.5370 0.0000 -23739.5649 4012.2281 0.0000 0.0000 0.0000 -19712.6650 0.0000 -19712.6650 -19712.6650 0.0000 19526.4410 13153.8301 72294.2214 19526.4410 13153.8301
ENERGY: 1600 0.2751 0.5880 15.0379 0.0000 -23964.0571 4110.2922 0.0000 0.0000 0.0000 -19837.8639 0.0000 -19837.8639 -19837.8639 0.0000 19987.0335 13616.0840 72294.2214 19987.0335 13616.0840
ENERGY: 2000 1.0495 0.8653 14.3619 0.0000 -24133.1068 4178.0077 0.0000 0.0000 0.0000 -19938.8223 0.0000 -19938.8223 -19938.8223 0.0000 20284.4836 13898.0693 72294.2214 20284.4836 13898.0693
TCL: Exiting due to exit command.
Info: NAMD 3.0.1 for Linux-x86_64-multicore
Info: Please visit http://www.ks.uiuc.edu/Research/namd/
Info: for updates, documentation, and support information.
Info: Please cite Phillips et al., J. Chem. Phys. 153:044130 (2020) doi:10.1063/5.0014475
Info: in all publications reporting results obtained with NAMD.
Info: Based on Charm++/Converse 80000 for multicore-linux-x86_64-gcc
Info: Built Mon Oct 14 11:11:06 CDT 2024 by dhardy on athine.ks.uiuc.edu
Info: 1 NAMD  3.0.1  Linux-x86_64-multicore  16    k063  z5358697
Info: Running on 16 processors, 1 nodes, 1 physical nodes.
Info: CPU topology information available.
Info: Charm++/Converse parallel runtime startup completed at 0.00928182 s
Info: 1043.46 MB of memory in use based on /proc/self/stat
Info: Configuration file is mobley_3686115_equil.namd
Info: Working in the current directory /srv/scratch/z5358697/prod_prep_4/3686115
TCL: Running 25000 steps at 30 kelvin.
TCL: Suspending until startup complete.
Info: SIMULATION PARAMETERS:
Info: TIMESTEP               2
Info: NUMBER OF STEPS        0
Info: STEPS PER CYCLE        10
Info: PERIODIC CELL BASIS 1  40.176 0 0
Info: PERIODIC CELL BASIS 2  0 43.492 0
Info: PERIODIC CELL BASIS 3  0 0 41.374
Info: PERIODIC CELL CENTER   0 0 0
Info: WRAPPING WATERS AROUND PERIODIC BOUNDARIES ON OUTPUT.
Info: WRAPPING ALL CLUSTERS AROUND PERIODIC BOUNDARIES ON OUTPUT.
Info: FIRST LDB TIMESTEP     50
Info: LAST LDB TIMESTEP     -1
Info: HOM BACKGROUND SCALING 1
Info: PME BACKGROUND SCALING 1
Info: MIN ATOMS PER PATCH    40
Info: EMPTY PATCH LOAD       40 ATOMS
Info: INITIAL TEMPERATURE    300
Info: CENTER OF MASS MOVING INITIALLY? NO
Info: DIELECTRIC             1
Info: EXCLUDE                SCALED ONE-FOUR
Info: 1-4 ELECTROSTATICS SCALED BY 0.833333
Info: MODIFIED 1-4 VDW PARAMETERS WILL BE USED
Info: DCD FILENAME           mobley_3686115_equil.dcd
Info: DCD FREQUENCY          5000
Info: DCD FIRST STEP         5000
Info: DCD FILE WILL CONTAIN UNIT CELL DATA
Info: XST FILENAME           mobley_3686115_equil.xst
Info: XST FREQUENCY          5000
Info: NO VELOCITY DCD OUTPUT
Info: NO FORCE DCD OUTPUT
Info: OUTPUT FILENAME        mobley_3686115_equil
Info: BINARY OUTPUT FILES WILL BE USED
Info: RESTART FILENAME       mobley_3686115_equil.restart
Info: RESTART FREQUENCY      5000
Info: BINARY RESTART FILES WILL BE USED
Info: CUTOFF                 9
Info: PAIRLIST DISTANCE      11
Info: PAIRLIST SHRINK RATE   0.01
Info: PAIRLIST GROW RATE     0.01
Info: PAIRLIST TRIGGER       0.3
Info: PAIRLISTS PER CYCLE    2
Info: PAIRLISTS ENABLED
Info: MARGIN                 8
Info: HYDROGEN GROUP CUTOFF  2.5
Info: PATCH DIMENSION        21.5
Info: ENERGY OUTPUT STEPS    5000
Info: ENERGY EVALUATION STEPS    5000
Info: OUTPUT ENERGY PRECISION 4
Info: CROSSTERM ENERGY INCLUDED IN DIHEDRAL
Info: TIMING OUTPUT STEPS    50000
Info: PRESSURE OUTPUT STEPS  5000
Info: LANGEVIN DYNAMICS ACTIVE
Info: LANGEVIN TEMPERATURE   30
Info: LANGEVIN USING BBK INTEGRATOR
Info: LANGEVIN DAMPING COEFFICIENT IS 1 INVERSE PS
Info: LANGEVIN DYNAMICS APPLIED TO HYDROGENS
Info: LANGEVIN PISTON PRESSURE CONTROL ACTIVE
Info:        TARGET PRESSURE IS 1.01325 BAR
Info:     OSCILLATION PERIOD IS 50 FS
Info:             DECAY TIME IS 25 FS
Info:     PISTON TEMPERATURE IS 300 K
Info:       PRESSURE CONTROL IS GROUP-BASED
Info:    INITIAL STRAIN RATE IS 0 0 0
Info:       CELL FLUCTUATION IS ISOTROPIC
Info: PARTICLE MESH EWALD (PME) ACTIVE
Info: PME TOLERANCE               1e-06
Info: PME EWALD COEFFICIENT       0.348832
Info: PME INTERPOLATION ORDER     4
Info: PME GRID DIMENSIONS         44 44 44
Info: PME MAXIMUM GRID SPACING    1
Info: FULL ELECTROSTATIC EVALUATION FREQUENCY      2
Info: USING VERLET I (r-RESPA) MTS SCHEME.
Info: C1 SPLITTING OF LONG RANGE ELECTROSTATICS
Info: PLACING ATOMS IN PATCHES BY HYDROGEN GROUPS
Info: RIGID BONDS TO HYDROGEN : ALL
Info:         ERROR TOLERANCE : 1e-08
Info:          MAX ITERATIONS : 100
Info: RIGID WATER USING SETTLE ALGORITHM
Info: RANDOM NUMBER SEED     1741328195
Info: USE HYDROGEN BONDS?    NO
Info: Using AMBER format force field!
Info: AMBER PARM FILE        mobley_3686115.prmtop
Info: COORDINATE PDB         mobley_3686115.pdb
Info: Exclusions will be read from PARM file!
Info: SCNB (VDW SCALING)     2
Info: USING ARITHMETIC MEAN TO COMBINE L-J SIGMA PARAMETERS
Info: BINARY COORDINATES     mobley_3686115_min.coor
Info: SUMMARY OF PARAMETERS:
Info: 7 BONDS
Info: 10 ANGLES
Info:   10 HARMONIC
Info:   0 COSINE-BASED
Info: 11 DIHEDRAL
Info: 0 IMPROPER
Info: 0 CROSSTERM
Info: 0 VDW
Info: 28 VDW_PAIRS
Info: 0 NBTHOLE_PAIRS
Info: STRUCTURE SUMMARY:
Info: 5272 ATOMS
Info: 5271 BONDS
Info: 38 ANGLES
Info: 63 DIHEDRALS
Info: 0 IMPROPERS
Info: 0 CROSSTERMS
Info: 5348 EXCLUSIONS
Info: 5264 RIGID BONDS
Info: 10552 DEGREES OF FREEDOM
Info: 1758 HYDROGEN GROUPS
Info: 4 ATOMS IN LARGEST HYDROGEN GROUP
Info: 1758 MIGRATION GROUPS
Info: 4 ATOMS IN LARGEST MIGRATION GROUP
Info: TOTAL MASS = 31646.2 amu
Info: TOTAL CHARGE = 0 e
Info: MASS DENSITY = 0.726904 g/cm^3
Info: ATOM DENSITY = 0.0729242 atoms/A^3
Info: ADDED 0 IMPLICIT EXCLUSIONS
Info: NONBONDED TABLE R-SQUARED SPACING: 0.0625
Info: NONBONDED TABLE SIZE: 705 POINTS
Info: REMOVING COM VELOCITY -0.0223113 -0.109981 -0.0263706
TCL: Running for 25000 steps
ETITLE: TS BOND ANGLE DIHED IMPRP ELECT VDW BOUNDARY MISC KINETIC TOTAL TEMP POTENTIAL TOTAL3 TEMPAVG PRESSURE GPRESSURE VOLUME PRESSAVG GPRESSAVG
ENERGY: 0 1.0495 0.8653 14.3619 0.0000 -24133.1068 4178.0077 0.0000 0.0000 3152.3051 -16786.5173 300.6657 -19938.8223 -16785.8416 300.6657 374.5944 412.0823 72294.2214 374.5944 412.0823
ENERGY: 5000 0.1784 1.5822 13.5407 0.0000 -25292.8829 4304.4400 0.0000 0.0000 325.7631 -20647.3785 31.0712 -20973.1416 -20646.6492 48.2910 -192.0539 -153.8042 50090.5866 2.5920 2.6536
ENERGY: 10000 0.7319 0.9002 13.7244 0.0000 -25349.6327 4321.5680 0.0000 0.0000 314.1370 -20698.5712 29.9623 -21012.7082 -20697.8102 30.4729 -260.2882 -214.2399 50181.5479 3.0813 2.8449
ENERGY: 15000 0.2430 1.1694 12.9937 0.0000 -25479.5568 4427.1603 0.0000 0.0000 314.2865 -20723.7039 29.9765 -21037.9904 -20722.7210 30.1663 243.9775 288.6961 50019.4019 2.9758 2.8493
ENERGY: 20000 0.9006 1.4566 14.0233 0.0000 -25347.1087 4280.2651 0.0000 0.0000 312.1229 -20738.3402 29.7702 -21050.4631 -20737.5038 30.1432 -492.2733 -466.5667 50228.4185 -0.5051 -0.6112
ENERGY: 25000 0.1574 1.8190 13.7216 0.0000 -25526.5112 4436.0340 0.0000 0.0000 312.8393 -20761.9399 29.8385 -21074.7792 -20761.6225 30.2409 171.9876 221.0395 50110.6242 0.6459 0.5829
TCL: Running 25000 steps at 60 kelvin.
TCL: Setting parameter langevinTemp to 60
TCL: Running for 25000 steps
ETITLE: TS BOND ANGLE DIHED IMPRP ELECT VDW BOUNDARY MISC KINETIC TOTAL TEMP POTENTIAL TOTAL3 TEMPAVG PRESSURE GPRESSURE VOLUME PRESSAVG GPRESSAVG
ENERGY: 25000 0.1574 1.8190 13.7216 0.0000 -25526.5112 4436.0340 0.0000 0.0000 312.6850 -20762.0942 29.8238 -21074.7792 -20761.4253 29.8238 177.4939 220.8410 50110.6242 177.4939 220.8410
ENERGY: 30000 0.2902 1.7522 14.3146 0.0000 -25201.8463 4397.8589 0.0000 0.0000 639.7369 -20147.8935 61.0179 -20787.6303 -20146.0324 57.6639 588.2651 655.6389 50225.7235 6.6355 6.5773
ENERGY: 35000 0.1561 3.3343 13.3305 0.0000 -25088.4313 4251.1847 0.0000 0.0000 617.5693 -20202.8564 58.9035 -20820.4257 -20201.3473 60.3659 -191.2277 -156.7168 50487.3074 1.9794 1.5193
ENERGY: 40000 0.1143 2.2771 13.6181 0.0000 -25477.8869 4628.7376 0.0000 0.0000 630.9541 -20202.1857 60.1802 -20833.1398 -20200.4221 60.2625 1617.0064 1672.0284 50064.1046 1.8161 1.5041
ENERGY: 45000 0.3173 2.3456 13.3262 0.0000 -25080.8704 4223.0731 0.0000 0.0000 622.9897 -20218.8186 59.4205 -20841.8083 -20217.0359 60.1182 -415.6088 -350.7594 50703.1773 0.7021 0.5481
ENERGY: 50000 1.0158 1.9464 13.3368 0.0000 -25203.2865 4351.1335 0.0000 0.0000 624.8671 -20210.9871 59.5996 -20835.8541 -20209.6375 59.8097 278.7570 353.1956 50325.2405 -0.2812 -0.1652
TCL: Running 25000 steps at 90 kelvin.
TCL: Setting parameter langevinTemp to 90
TCL: Running for 25000 steps
ETITLE: TS BOND ANGLE DIHED IMPRP ELECT VDW BOUNDARY MISC KINETIC TOTAL TEMP POTENTIAL TOTAL3 TEMPAVG PRESSURE GPRESSURE VOLUME PRESSAVG GPRESSAVG
ENERGY: 50000 1.0158 1.9464 13.3368 0.0000 -25203.2865 4351.1335 0.0000 0.0000 624.5587 -20211.2955 59.5702 -20835.8541 -20210.0917 59.5702 291.0627 353.2747 50325.2405 291.0627 353.2747
ENERGY: 55000 0.6992 2.1867 13.8032 0.0000 -24700.7813 4136.5161 0.0000 0.0000 923.8830 -19623.6931 88.1196 -20547.5761 -19620.7715 86.7737 -209.6268 -109.1222 50727.2580 2.9552 3.0733
ENERGY: 60000 0.2011 3.7409 13.4589 0.0000 -24838.7924 4245.0844 0.0000 0.0000 941.2489 -19635.0582 89.7760 -20576.3070 -19633.4320 89.9914 331.7565 391.9985 50478.1521 5.0350 5.1986
ENERGY: 65000 0.6763 3.7914 13.2935 0.0000 -24670.7050 4033.8831 0.0000 0.0000 961.8220 -19657.2387 91.7382 -20619.0607 -19655.2545 91.0717 -893.2094 -827.2501 51008.4083 -3.3745 -3.7074
ENERGY: 70000 0.7101 2.5257 13.0810 0.0000 -24798.8347 4159.9945 0.0000 0.0000 911.2648 -19711.2586 86.9161 -20622.5234 -19709.0748 90.2865 -175.9895 -129.3987 50731.1319 1.3343 1.2465
ENERGY: 75000 0.5133 4.6016 13.0533 0.0000 -24748.3939 4122.4523 0.0000 0.0000 955.3182 -19652.4552 91.1179 -20607.7734 -19649.7140 90.2065 -451.1696 -404.2802 50851.1071 6.2661 6.4325
TCL: Running 25000 steps at 120 kelvin.
TCL: Setting parameter langevinTemp to 120
TCL: Running for 25000 steps
ETITLE: TS BOND ANGLE DIHED IMPRP ELECT VDW BOUNDARY MISC KINETIC TOTAL TEMP POTENTIAL TOTAL3 TEMPAVG PRESSURE GPRESSURE VOLUME PRESSAVG GPRESSAVG
ENERGY: 75000 0.5133 4.6016 13.0533 0.0000 -24748.3939 4122.4523 0.0000 0.0000 954.8603 -19652.9131 91.0742 -20607.7734 -19650.7555 91.0742 -460.7851 -403.9377 50851.1071 -460.7851 -403.9377
ENERGY: 80000 1.0158 3.3261 13.8324 0.0000 -24212.9318 3940.7110 0.0000 0.0000 1252.6697 -19001.3767 119.4792 -20254.0465 -18998.2132 117.2709 -661.5282 -576.7207 51393.0280 6.1137 6.6681
ENERGY: 85000 1.0988 3.1152 12.9844 0.0000 -24567.0425 4213.7607 0.0000 0.0000 1267.9659 -19068.1175 120.9381 -20336.0835 -19065.2409 119.5996 576.3755 642.2074 50858.3503 1.0292 0.6111
ENERGY: 90000 2.4720 3.6095 13.6540 0.0000 -24168.3738 3830.0066 0.0000 0.0000 1260.3642 -19058.2675 120.2131 -20318.6316 -19054.5724 119.5159 -1331.8238 -1237.0736 51382.0802 1.6941 1.6880
ENERGY: 95000 0.6825 3.0223 14.1634 0.0000 -24747.4637 4389.2122 0.0000 0.0000 1238.1729 -19102.2105 118.0965 -20340.3833 -19098.8814 119.9737 1574.0948 1618.3706 50348.8247 2.5277 3.0449
ENERGY: 100000 0.3673 5.7848 14.8457 0.0000 -24426.1399 4026.8151 0.0000 0.0000 1242.8657 -19135.4613 118.5441 -20378.3270 -19132.0070 119.7929 -334.4546 -300.2350 50994.7382 2.3366 2.7236
TCL: Running 25000 steps at 150 kelvin.
TCL: Setting parameter langevinTemp to 150
TCL: Running for 25000 steps
ETITLE: TS BOND ANGLE DIHED IMPRP ELECT VDW BOUNDARY MISC KINETIC TOTAL TEMP POTENTIAL TOTAL3 TEMPAVG PRESSURE GPRESSURE VOLUME PRESSAVG GPRESSAVG
ENERGY: 100000 0.3673 5.7848 14.8457 0.0000 -24426.1399 4026.8151 0.0000 0.0000 1242.2182 -19136.1088 118.4823 -20378.3270 -19133.9603 118.4823 -351.0238 -299.3956 50994.7382 -351.0238 -299.3956
ENERGY: 105000 1.6054 3.5575 13.2702 0.0000 -23801.7023 3821.9530 0.0000 0.0000 1567.1437 -18394.1724 149.4736 -19961.3161 -18390.1184 146.5117 -582.7161 -512.8233 51464.7299 1.3161 1.1985
ENERGY: 110000 0.2713 4.2191 14.1643 0.0000 -23981.5510 3956.9562 0.0000 0.0000 1556.5032 -18449.4368 148.4587 -20005.9400 -18444.5076 149.4591 -10.2459 75.3339 51171.0139 1.9346 2.1830
ENERGY: 115000 0.7546 5.5420 12.8293 0.0000 -23780.8318 3794.1481 0.0000 0.0000 1572.6164 -18394.9415 149.9956 -19967.5579 -18392.1674 150.0861 -564.5656 -519.5278 51285.6431 1.7169 1.9899
ENERGY: 120000 1.4262 7.0294 13.5687 0.0000 -24216.5304 4182.8295 0.0000 0.0000 1573.7961 -18437.8803 150.1081 -20011.6765 -18433.3668 150.7570 1012.6581 1085.7753 50938.9946 2.4527 2.3247
ENERGY: 125000 0.4638 4.2026 13.9141 0.0000 -23805.8765 3777.8962 0.0000 0.0000 1585.1716 -18424.2282 151.1931 -20009.3998 -18420.0010 150.5851 -919.6838 -864.3408 51773.7577 2.2417 2.0673
TCL: Running 50000 steps at 180 kelvin.
TCL: Setting parameter langevinTemp to 180
TCL: Running for 50000 steps
ETITLE: TS BOND ANGLE DIHED IMPRP ELECT VDW BOUNDARY MISC KINETIC TOTAL TEMP POTENTIAL TOTAL3 TEMPAVG PRESSURE GPRESSURE VOLUME PRESSAVG GPRESSAVG
ENERGY: 125000 0.4638 4.2026 13.9141 0.0000 -23805.8765 3777.8962 0.0000 0.0000 1584.3853 -18425.0146 151.1181 -20009.3998 -18421.5104 151.1181 -925.9308 -864.6056 51773.7577 -925.9308 -864.6056
ENERGY: 135000 0.8316 7.0605 14.0497 0.0000 -23396.5587 3838.3502 0.0000 0.0000 1950.6228 -17585.6438 186.0497 -19536.2666 -17583.9644 180.3359 447.8109 511.1873 51621.0817 4.9939 4.5579
ENERGY: 145000 3.0968 6.4952 13.5227 0.0000 -23308.8073 3676.7595 0.0000 0.0000 1908.4753 -17700.4579 182.0297 -19608.9332 -17694.7276 180.4265 -458.5258 -386.7258 51695.6930 -0.4775 -0.6182
ENERGY: 155000 2.3769 5.7502 14.3304 0.0000 -23269.2896 3679.5523 0.0000 0.0000 1905.0764 -17662.2034 181.7055 -19567.2798 -17659.3901 180.4572 -214.5665 -174.4405 51397.7769 3.8137 4.0910
ENERGY: 165000 1.3471 4.5966 13.2642 0.0000 -23393.3730 3744.9869 0.0000 0.0000 1917.7994 -17711.3788 182.9190 -19629.1783 -17705.1967 181.0046 -84.5358 -11.7064 51446.6962 6.0883 6.5127
ENERGY: 175000 1.2135 3.1793 13.0312 0.0000 -23343.5339 3758.0540 0.0000 0.0000 1882.3348 -17685.7211 179.5364 -19568.0559 -17681.6124 180.9462 -94.4583 -58.8844 51653.1362 4.5874 4.4227
TCL: Running 50000 steps at 210 kelvin.
TCL: Setting parameter langevinTemp to 210
TCL: Running for 50000 steps
ETITLE: TS BOND ANGLE DIHED IMPRP ELECT VDW BOUNDARY MISC KINETIC TOTAL TEMP POTENTIAL TOTAL3 TEMPAVG PRESSURE GPRESSURE VOLUME PRESSAVG GPRESSAVG
ENERGY: 175000 1.2135 3.1793 13.0312 0.0000 -23343.5339 3758.0540 0.0000 0.0000 1881.4214 -17686.6345 179.4493 -19568.0559 -17682.7804 179.4493 -112.4828 -59.6647 51653.1362 -112.4828 -59.6647
ENERGY: 185000 1.5977 6.0399 15.6411 0.0000 -22239.3030 3385.8913 0.0000 0.0000 2193.9810 -16636.1520 209.2611 -18830.1330 -16632.2441 208.5318 -32.5302 10.4571 51014.3562 5.4380 5.3528
ENERGY: 195000 1.4892 4.2616 16.6260 0.0000 -22463.7396 3567.5945 0.0000 0.0000 2206.3948 -16667.3736 210.4451 -18873.7684 -16659.9628 210.4467 502.7416 589.1942 51677.0708 6.5814 6.4273
ENERGY: 205000 1.1668 5.4452 13.6377 0.0000 -22160.9206 3373.2451 0.0000 0.0000 2221.9816 -16545.4441 211.9318 -18767.4257 -16538.9196 210.2463 -152.7443 -63.5778 51666.1416 -2.4583 -2.1117
ENERGY: 215000 1.1221 4.4635 13.7466 0.0000 -22033.6174 3274.7025 0.0000 0.0000 2252.7454 -16486.8373 214.8660 -18739.5827 -16480.8102 211.3927 -354.4966 -289.9628 51243.4787 2.3631 2.6124
ENERGY: 225000 1.8602 4.7902 14.3090 0.0000 -22028.5535 3285.1161 0.0000 0.0000 2197.2789 -16525.1992 209.5756 -18722.4781 -16521.0843 210.9165 -453.1506 -418.9205 51715.8958 1.5613 1.1268
TCL: Running 50000 steps at 240 kelvin.
TCL: Setting parameter langevinTemp to 240
TCL: Running for 50000 steps
ETITLE: TS BOND ANGLE DIHED IMPRP ELECT VDW BOUNDARY MISC KINETIC TOTAL TEMP POTENTIAL TOTAL3 TEMPAVG PRESSURE GPRESSURE VOLUME PRESSAVG GPRESSAVG
ENERGY: 225000 1.8602 4.7902 14.3090 0.0000 -22028.5535 3285.1161 0.0000 0.0000 2196.2113 -16526.2668 209.4738 -18722.4781 -16522.5375 209.4738 -499.8899 -419.4162 51715.8958 -499.8899 -419.4162
ENERGY: 235000 0.8032 7.5735 14.3032 0.0000 -21192.7211 3078.2775 0.0000 0.0000 2569.2415 -15522.5221 245.0533 -18091.7636 -15517.0340 239.7752 15.6697 89.9183 51870.1262 -4.1888 -3.2648
ENERGY: 245000 1.8265 6.4500 14.3304 0.0000 -21225.4207 3134.5736 0.0000 0.0000 2564.6033 -15503.6369 244.6109 -18068.2402 -15497.3345 240.7023 269.7711 357.2991 51467.4560 -0.2572 0.0515
ENERGY: 255000 2.8106 5.8815 16.1405 0.0000 -21088.5601 3089.4991 0.0000 0.0000 2500.7214 -15473.5071 238.5179 -17974.2285 -15464.9175 240.6430 46.1086 150.1759 51829.6694 0.5492 0.7098
ENERGY: 265000 2.8080 6.8393 12.8706 0.0000 -21170.7943 3109.1385 0.0000 0.0000 2476.2352 -15562.9027 236.1824 -18039.1379 -15556.2159 240.2668 -182.4730 -56.1628 52416.4400 0.4414 0.9407
ENERGY: 275000 3.5319 7.4170 14.3244 0.0000 -21015.9713 2995.9403 0.0000 0.0000 2533.8345 -15460.9231 241.6762 -17994.7576 -15455.2098 241.8565 -439.3963 -330.6487 52105.2503 1.9340 1.6727
TCL: Running 50000 steps at 270 kelvin.
TCL: Setting parameter langevinTemp to 270
TCL: Running for 50000 steps
ETITLE: TS BOND ANGLE DIHED IMPRP ELECT VDW BOUNDARY MISC KINETIC TOTAL TEMP POTENTIAL TOTAL3 TEMPAVG PRESSURE GPRESSURE VOLUME PRESSAVG GPRESSAVG
ENERGY: 275000 3.5319 7.4170 14.3244 0.0000 -21015.9713 2995.9403 0.0000 0.0000 2532.5417 -15462.2159 241.5529 -17994.7576 -15457.8240 241.5529 -422.8857 -330.7846 52105.2503 -422.8857 -330.7846
ENERGY: 285000 1.2881 9.0265 13.0463 0.0000 -20077.8923 2752.5827 0.0000 0.0000 2867.6309 -14434.3178 273.5136 -17301.9487 -14426.8012 272.5905 -186.4955 -94.1238 52430.9700 2.6561 2.8099
ENERGY: 295000 5.3731 11.1511 12.7424 0.0000 -19894.9702 2653.3601 0.0000 0.0000 2833.3733 -14378.9702 270.2461 -17212.3435 -14372.7030 270.2048 -697.4736 -628.6142 53192.9527 2.4808 2.7158
ENERGY: 305000 0.2539 6.3705 17.8118 0.0000 -19909.3470 2709.9311 0.0000 0.0000 2819.9903 -14354.9894 268.9696 -17174.9797 -14346.5233 272.3167 -327.0403 -280.7424 53497.3784 1.4806 1.5013
ENERGY: 315000 0.7008 9.6235 14.3770 0.0000 -20154.8502 2774.7927 0.0000 0.0000 2889.2989 -14466.0573 275.5802 -17355.3561 -14455.4438 270.4207 -353.1515 -311.4804 53106.9919 -1.3205 -1.3465
ENERGY: 325000 0.9327 8.1527 13.9463 0.0000 -19942.6475 2729.5382 0.0000 0.0000 2814.8600 -14375.2175 268.4803 -17190.0775 -14369.1699 272.3779 -113.2649 -60.6085 52485.3391 5.0657 4.4792
TCL: Running 1000000 steps at 300 kelvin.
TCL: Setting parameter langevinTemp to 300
TCL: Running for 1000000 steps
ETITLE: TS BOND ANGLE DIHED IMPRP ELECT VDW BOUNDARY MISC KINETIC TOTAL TEMP POTENTIAL TOTAL3 TEMPAVG PRESSURE GPRESSURE VOLUME PRESSAVG GPRESSAVG
ENERGY: 325000 0.9327 8.1527 13.9463 0.0000 -19942.6475 2729.5382 0.0000 0.0000 2813.4883 -14376.5892 268.3495 -17190.0775 -14371.9190 268.3495 -148.3436 -60.9616 52485.3391 -148.3436 -60.9616
ENERGY: 525000 1.7771 8.3105 13.6412 0.0000 -18894.3470 2455.3036 0.0000 0.0000 3115.4696 -13299.8450 297.1523 -16415.3146 -13293.9525 300.4751 -423.5533 -346.1733 54656.2964 3.8644 4.1140
ENERGY: 725000 2.0412 11.4064 17.1403 0.0000 -19147.4430 2600.3537 0.0000 0.0000 3131.6537 -13384.8477 298.6960 -16516.5014 -13380.9116 300.7568 342.1081 411.1766 53556.9014 -0.1162 -0.0667
ENERGY: 925000 1.5015 12.6357 13.7389 0.0000 -19116.4391 2515.5907 0.0000 0.0000 3208.6466 -13364.3256 306.0395 -16572.9723 -13358.8402 299.8513 -182.9801 -134.1261 54317.9178 0.3667 0.7155
ENERGY: 1125000 2.4555 7.1391 12.9254 0.0000 -18984.2346 2526.2727 0.0000 0.0000 3163.4929 -13271.9490 301.7328 -16435.4419 -13265.1025 299.0376 -204.4968 -79.0095 54628.8026 0.5246 1.0298
ENERGY: 1325000 1.4202 9.9730 14.5757 0.0000 -19311.6013 2616.9141 0.0000 0.0000 3073.5105 -13595.2079 293.1503 -16668.7184 -13587.9474 301.7467 -28.6228 65.7327 54383.4653 5.7369 4.9035
TCL: Exiting due to exit command.
