Info: SIMULATION PARAMETERS:
Info: TIMESTEP               2
Info: NUMBER OF STEPS        0
Info: STEPS PER CYCLE        10
Info: PERIODIC CELL BASIS 1  36.005 0 0
Info: PERIODIC CELL BASIS 2  0 34.26 0
Info: PERIODIC CELL BASIS 3  0 0 35.723
Info: PERIODIC CELL CENTER   0 0 0
Info: WRAPPING WATERS AROUND PERIODIC BOUNDARIES ON OUTPUT.
Info: WRAPPING ALL CLUSTERS AROUND PERIODIC BOUNDARIES ON OUTPUT.
Info: FIRST LDB TIMESTEP     50
Info: LAST LDB TIMESTEP     -1
Info: HOM BACKGROUND SCALING 1
Info: PME BACKGROUND SCALING 1
Info: MIN ATOMS PER PATCH    40
Info: EMPTY PATCH LOAD       40 ATOMS
Info: INITIAL TEMPERATURE    300
Info: CENTER OF MASS MOVING INITIALLY? NO
Info: DIELECTRIC             1
Info: EXCLUDE                SCALED ONE-FOUR
Info: 1-4 ELECTROSTATICS SCALED BY 0.833333
Info: MODIFIED 1-4 VDW PARAMETERS WILL BE USED
Info: DCD FILENAME           mobley_9073553_equil.dcd
Info: DCD FREQUENCY          100000
Info: DCD FIRST STEP         100000
Info: DCD FILE WILL CONTAIN UNIT CELL DATA
Info: XST FILENAME           mobley_9073553_equil.xst
Info: XST FREQUENCY          100000
Info: NO VELOCITY DCD OUTPUT
Info: NO FORCE DCD OUTPUT
Info: OUTPUT FILENAME        mobley_9073553_equil
Info: BINARY OUTPUT FILES WILL BE USED
Info: RESTART FILENAME       mobley_9073553_equil.restart
Info: RESTART FREQUENCY      100000
Info: BINARY RESTART FILES WILL BE USED
Info: CUTOFF                 9
Info: PAIRLIST DISTANCE      11
Info: PAIRLIST SHRINK RATE   0.01
Info: PAIRLIST GROW RATE     0.01
Info: PAIRLIST TRIGGER       0.3
Info: PAIRLISTS PER CYCLE    2
Info: PAIRLISTS ENABLED
Info: MARGIN                 8
Info: HYDROGEN GROUP CUTOFF  2.5
Info: PATCH DIMENSION        21.5
Info: ENERGY OUTPUT STEPS    100000
Info: ENERGY EVALUATION STEPS    100000
Info: OUTPUT ENERGY PRECISION 4
Info: CROSSTERM ENERGY INCLUDED IN DIHEDRAL
Info: TIMING OUTPUT STEPS    1000000
Info: PRESSURE OUTPUT STEPS  100000
Info: LANGEVIN DYNAMICS ACTIVE
Info: LANGEVIN TEMPERATURE   30
Info: LANGEVIN USING BBK INTEGRATOR
Info: LANGEVIN DAMPING COEFFICIENT IS 1 INVERSE PS
Info: LANGEVIN DYNAMICS APPLIED TO HYDROGENS
Info: LANGEVIN PISTON PRESSURE CONTROL ACTIVE
Info:        TARGET PRESSURE IS 1.01325 BAR
Info:     OSCILLATION PERIOD IS 50 FS
Info:             DECAY TIME IS 25 FS
Info:     PISTON TEMPERATURE IS 300 K
Info:       PRESSURE CONTROL IS GROUP-BASED
Info:    INITIAL STRAIN RATE IS 0 0 0
Info:       CELL FLUCTUATION IS ISOTROPIC
Info: PARTICLE MESH EWALD (PME) ACTIVE
Info: PME TOLERANCE               1e-06
Info: PME EWALD COEFFICIENT       0.348832
Info: PME INTERPOLATION ORDER     4
Info: PME GRID DIMENSIONS         40 36 36
Info: PME MAXIMUM GRID SPACING    1
Info: FULL ELECTROSTATIC EVALUATION FREQUENCY      2
Info: USING VERLET I (r-RESPA) MTS SCHEME.
Info: C1 SPLITTING OF LONG RANGE ELECTROSTATICS
Info: PLACING ATOMS IN PATCHES BY HYDROGEN GROUPS
Info: RIGID BONDS TO HYDROGEN : ALL
Info:         ERROR TOLERANCE : 1e-08
Info:          MAX ITERATIONS : 100
Info: RIGID WATER USING SETTLE ALGORITHM
Info: RANDOM NUMBER SEED     1742449425
Info: USE HYDROGEN BONDS?    NO
Info: Using AMBER format force field!
Info: AMBER PARM FILE        mobley_9073553.prmtop
Info: COORDINATE PDB         mobley_9073553.pdb
Info: Exclusions will be read from PARM file!
Info: SCNB (VDW SCALING)     2
Info: USING ARITHMETIC MEAN TO COMBINE L-J SIGMA PARAMETERS
Info: BINARY COORDINATES     mobley_9073553_min.coor
Info: SUMMARY OF PARAMETERS:
Info: 4 BONDS
Info: 3 ANGLES
Info:   3 HARMONIC
Info:   0 COSINE-BASED
Info: 1 DIHEDRAL
Info: 0 IMPROPER
Info: 0 CROSSTERM
Info: 0 VDW
Info: 15 VDW_PAIRS
Info: 0 NBTHOLE_PAIRS
Info: STRUCTURE SUMMARY:
Info: 2925 ATOMS
Info: 2924 BONDS
Info: 13 ANGLES
Info: 6 DIHEDRALS
Info: 0 IMPROPERS
Info: 0 CROSSTERMS
Info: 2943 EXCLUSIONS
Info: 2922 RIGID BONDS
Info: 5853 DEGREES OF FREEDOM
Info: 975 HYDROGEN GROUPS
Info: 4 ATOMS IN LARGEST HYDROGEN GROUP
Info: 975 MIGRATION GROUPS
Info: 4 ATOMS IN LARGEST MIGRATION GROUP
Info: TOTAL MASS = 17573.7 amu
Info: TOTAL CHARGE = 0.00029999 e
Info: MASS DENSITY = 0.662253 g/cm^3
Info: ATOM DENSITY = 0.0663786 atoms/A^3
Info: ADDED 0 IMPLICIT EXCLUSIONS
Info: NONBONDED TABLE R-SQUARED SPACING: 0.0625
Info: NONBONDED TABLE SIZE: 705 POINTS
Info: REMOVING COM VELOCITY -0.117745 0.102933 -0.136667
TCL: Running for 100000 steps
ETITLE: TS BOND ANGLE DIHED IMPRP ELECT VDW BOUNDARY MISC KINETIC TOTAL TEMP POTENTIAL TOTAL3 TEMPAVG PRESSURE GPRESSURE VOLUME PRESSAVG GPRESSAVG
ENERGY: 0 0.0025 0.1066 0.0263 0.0000 -13530.1488 2357.1975 0.0000 0.0000 1720.5725 -9452.2435 295.8590 -11172.8159 -9451.9101 295.8590 198.9088 231.4879 44065.4386 198.9088 231.4879
ENERGY: 100000 0.0866 0.2439 0.0211 0.0000 -14328.3916 2664.4385 0.0000 0.0000 175.2357 -11488.3658 30.1325 -11663.6015 -11488.2252 30.9323 1467.7412 1520.4194 28839.2834 4.9333 4.8989
TCL: Running 100000 steps at 60 kelvin.
TCL: Setting parameter langevinTemp to 60
TCL: Running for 100000 steps
ETITLE: TS BOND ANGLE DIHED IMPRP ELECT VDW BOUNDARY MISC KINETIC TOTAL TEMP POTENTIAL TOTAL3 TEMPAVG PRESSURE GPRESSURE VOLUME PRESSAVG GPRESSAVG
ENERGY: 100000 0.0866 0.2439 0.0211 0.0000 -14328.3916 2664.4385 0.0000 0.0000 175.1467 -11488.4548 30.1171 -11663.6015 -11488.1082 30.1171 1464.4957 1520.2254 28839.2834 1464.4957 1520.2254
ENERGY: 200000 0.0234 0.4893 0.0293 0.0000 -13867.2847 2281.0584 0.0000 0.0000 357.6614 -11228.0228 61.5013 -11585.6843 -11227.3529 59.9734 -1440.4987 -1373.3277 29209.5974 2.7883 2.7918
TCL: Running 100000 steps at 90 kelvin.
TCL: Setting parameter langevinTemp to 90
TCL: Running for 100000 steps
ETITLE: TS BOND ANGLE DIHED IMPRP ELECT VDW BOUNDARY MISC KINETIC TOTAL TEMP POTENTIAL TOTAL3 TEMPAVG PRESSURE GPRESSURE VOLUME PRESSAVG GPRESSAVG
ENERGY: 200000 0.0234 0.4893 0.0293 0.0000 -13867.2847 2281.0584 0.0000 0.0000 357.4886 -11228.1957 61.4715 -11585.6843 -11227.3770 61.4715 -1442.2838 -1373.6419 29209.5974 -1442.2838 -1373.6419
ENERGY: 300000 0.0452 0.7816 0.4938 0.0000 -13882.3124 2409.2180 0.0000 0.0000 530.2609 -10941.5129 91.1804 -11471.7738 -10939.7442 89.8990 334.2019 344.5027 28590.3347 4.5363 4.5432
TCL: Running 100000 steps at 120 kelvin.
TCL: Setting parameter langevinTemp to 120
TCL: Running for 100000 steps
ETITLE: TS BOND ANGLE DIHED IMPRP ELECT VDW BOUNDARY MISC KINETIC TOTAL TEMP POTENTIAL TOTAL3 TEMPAVG PRESSURE GPRESSURE VOLUME PRESSAVG GPRESSAVG
ENERGY: 300000 0.0452 0.7816 0.4938 0.0000 -13882.3124 2409.2180 0.0000 0.0000 529.9999 -10941.7739 91.1355 -11471.7738 -10940.9026 91.1355 304.3322 345.0284 28590.3347 304.3322 345.0284
ENERGY: 400000 0.0520 1.0828 0.1138 0.0000 -13646.7250 2277.0985 0.0000 0.0000 701.4891 -10666.8889 120.6237 -11368.3779 -10664.5220 119.8290 -422.3510 -374.1335 28721.7666 5.1123 5.2548
TCL: Running 100000 steps at 150 kelvin.
TCL: Setting parameter langevinTemp to 150
TCL: Running for 100000 steps
ETITLE: TS BOND ANGLE DIHED IMPRP ELECT VDW BOUNDARY MISC KINETIC TOTAL TEMP POTENTIAL TOTAL3 TEMPAVG PRESSURE GPRESSURE VOLUME PRESSAVG GPRESSAVG
ENERGY: 400000 0.0520 1.0828 0.1138 0.0000 -13646.7250 2277.0985 0.0000 0.0000 701.1347 -10667.2432 120.5628 -11368.3779 -10665.4806 120.5628 -408.4134 -374.0848 28721.7666 -408.4134 -374.0848
ENERGY: 500000 0.7126 1.7770 0.4395 0.0000 -13474.1756 2262.9792 0.0000 0.0000 876.0190 -10332.2482 150.6348 -11208.2672 -10329.8025 149.6881 -90.4200 -78.5187 28959.0527 6.1268 5.9721
TCL: Running 100000 steps at 180 kelvin.
TCL: Setting parameter langevinTemp to 180
TCL: Running for 100000 steps
ETITLE: TS BOND ANGLE DIHED IMPRP ELECT VDW BOUNDARY MISC KINETIC TOTAL TEMP POTENTIAL TOTAL3 TEMPAVG PRESSURE GPRESSURE VOLUME PRESSAVG GPRESSAVG
ENERGY: 500000 0.7126 1.7770 0.4395 0.0000 -13474.1756 2262.9792 0.0000 0.0000 875.5892 -10332.6781 150.5609 -11208.2672 -10330.7993 150.5609 -120.5448 -79.4474 28959.0527 -120.5448 -79.4474
ENERGY: 600000 0.2167 2.3398 0.1550 0.0000 -12974.1272 2035.4666 0.0000 0.0000 1049.9549 -9885.9943 180.5438 -10935.9492 -9883.8616 180.4474 -704.8339 -663.2369 28532.3367 3.1412 3.2418
TCL: Running 100000 steps at 210 kelvin.
TCL: Setting parameter langevinTemp to 210
TCL: Running for 100000 steps
ETITLE: TS BOND ANGLE DIHED IMPRP ELECT VDW BOUNDARY MISC KINETIC TOTAL TEMP POTENTIAL TOTAL3 TEMPAVG PRESSURE GPRESSURE VOLUME PRESSAVG GPRESSAVG
ENERGY: 600000 0.2167 2.3398 0.1550 0.0000 -12974.1272 2035.4666 0.0000 0.0000 1049.4187 -9886.5305 180.4516 -10935.9492 -9884.6318 180.4516 -723.8961 -663.6025 28532.3367 -723.8961 -663.6025
ENERGY: 700000 0.2433 1.8762 0.4316 0.0000 -12237.6407 1815.0103 0.0000 0.0000 1245.7157 -9174.3636 214.2056 -10420.0793 -9172.1667 210.0789 -524.3215 -483.8865 28779.5790 3.2697 3.3909
TCL: Running 100000 steps at 240 kelvin.
TCL: Setting parameter langevinTemp to 240
TCL: Running for 100000 steps
ETITLE: TS BOND ANGLE DIHED IMPRP ELECT VDW BOUNDARY MISC KINETIC TOTAL TEMP POTENTIAL TOTAL3 TEMPAVG PRESSURE GPRESSURE VOLUME PRESSAVG GPRESSAVG
ENERGY: 700000 0.2433 1.8762 0.4316 0.0000 -12237.6407 1815.0103 0.0000 0.0000 1245.1216 -9174.9577 214.1034 -10420.0793 -9172.8514 214.1034 -545.9558 -485.4776 28779.5790 -545.9558 -485.4776
ENERGY: 800000 0.9582 2.1363 0.4026 0.0000 -11765.6606 1706.5139 0.0000 0.0000 1443.4900 -8612.1597 248.2136 -10055.6496 -8610.4420 239.7785 -134.4451 -99.9136 28696.0934 3.8464 3.9150
TCL: Running 100000 steps at 270 kelvin.
TCL: Setting parameter langevinTemp to 270
TCL: Running for 100000 steps
ETITLE: TS BOND ANGLE DIHED IMPRP ELECT VDW BOUNDARY MISC KINETIC TOTAL TEMP POTENTIAL TOTAL3 TEMPAVG PRESSURE GPRESSURE VOLUME PRESSAVG GPRESSAVG
ENERGY: 800000 0.9582 2.1363 0.4026 0.0000 -11765.6606 1706.5139 0.0000 0.0000 1442.7720 -8612.8776 248.0902 -10055.6496 -8610.8170 248.0902 -173.9958 -100.4261 28696.0934 -173.9958 -100.4261
ENERGY: 900000 0.1466 3.3784 1.2819 0.0000 -11170.3605 1584.5430 0.0000 0.0000 1583.3067 -7997.7039 272.2557 -9581.0106 -7995.1697 269.2323 338.7132 391.4682 29240.3818 2.9792 3.0308
TCL: Running 1000000 steps at 300 kelvin.
TCL: Setting parameter langevinTemp to 300
TCL: Running for 1000000 steps
ETITLE: TS BOND ANGLE DIHED IMPRP ELECT VDW BOUNDARY MISC KINETIC TOTAL TEMP POTENTIAL TOTAL3 TEMPAVG PRESSURE GPRESSURE VOLUME PRESSAVG GPRESSAVG
ENERGY: 900000 0.1466 3.3784 1.2819 0.0000 -11170.3605 1584.5430 0.0000 0.0000 1582.5462 -7998.4644 272.1249 -9581.0106 -7996.4917 272.1249 308.2936 390.5765 29240.3818 308.2936 390.5765
ENERGY: 1100000 0.5820 1.8254 0.1120 0.0000 -10616.0476 1332.0077 0.0000 0.0000 1751.5369 -7529.9837 301.1835 -9281.5205 -7526.3679 300.4658 -838.1644 -754.5433 29904.0860 3.2831 3.1770
ENERGY: 1300000 0.4060 1.3484 0.1461 0.0000 -10527.9841 1396.6428 0.0000 0.0000 1770.7700 -7358.6709 304.4907 -9129.4408 -7353.1613 300.7807 117.3463 127.6927 30185.4311 2.5034 2.4012
ENERGY: 1500000 0.3486 3.1157 0.4543 0.0000 -10617.8458 1359.7083 0.0000 0.0000 1772.7150 -7481.5039 304.8251 -9254.2189 -7479.3980 300.0555 -505.6865 -460.3857 29956.7770 3.8551 3.7342
ENERGY: 1700000 0.5361 4.4078 0.3760 0.0000 -10694.8182 1437.9494 0.0000 0.0000 1781.5147 -7470.0342 306.3383 -9251.5489 -7466.7720 300.2962 125.1155 188.2641 29655.8260 3.7707 3.8682
ENERGY: 1900000 0.7182 2.5146 0.3023 0.0000 -10651.6009 1435.0484 0.0000 0.0000 1732.8199 -7480.1974 297.9650 -9213.0173 -7476.9989 299.5310 132.7689 170.2348 30163.3674 3.0241 3.0876
TCL: Exiting due to exit command.
