Info: SIMULATION PARAMETERS:
Info: TIMESTEP               2
Info: NUMBER OF STEPS        0
Info: STEPS PER CYCLE        10
Info: PERIODIC CELL BASIS 1  41.545 0 0
Info: PERIODIC CELL BASIS 2  0 39.757 0
Info: PERIODIC CELL BASIS 3  0 0 42.04
Info: PERIODIC CELL CENTER   0 0 0
Info: WRAPPING WATERS AROUND PERIODIC BOUNDARIES ON OUTPUT.
Info: WRAPPING ALL CLUSTERS AROUND PERIODIC BOUNDARIES ON OUTPUT.
Info: FIRST LDB TIMESTEP     50
Info: LAST LDB TIMESTEP     -1
Info: HOM BACKGROUND SCALING 1
Info: PME BACKGROUND SCALING 1
Info: MIN ATOMS PER PATCH    40
Info: EMPTY PATCH LOAD       40 ATOMS
Info: INITIAL TEMPERATURE    300
Info: CENTER OF MASS MOVING INITIALLY? NO
Info: DIELECTRIC             1
Info: EXCLUDE                SCALED ONE-FOUR
Info: 1-4 ELECTROSTATICS SCALED BY 0.833333
Info: MODIFIED 1-4 VDW PARAMETERS WILL BE USED
Info: DCD FILENAME           mobley_4219614_min.dcd
Info: DCD FREQUENCY          5000
Info: DCD FIRST STEP         5000
Info: DCD FILE WILL CONTAIN UNIT CELL DATA
Info: XST FILENAME           mobley_4219614_min.xst
Info: XST FREQUENCY          5000
Info: NO VELOCITY DCD OUTPUT
Info: NO FORCE DCD OUTPUT
Info: OUTPUT FILENAME        mobley_4219614_min
Info: BINARY OUTPUT FILES WILL BE USED
Info: RESTART FILENAME       mobley_4219614_min.restart
Info: RESTART FREQUENCY      5000
Info: BINARY RESTART FILES WILL BE USED
Info: CUTOFF                 9
Info: PAIRLIST DISTANCE      11
Info: PAIRLIST SHRINK RATE   0.01
Info: PAIRLIST GROW RATE     0.01
Info: PAIRLIST TRIGGER       0.3
Info: PAIRLISTS PER CYCLE    2
Info: PAIRLISTS ENABLED
Info: MARGIN                 8
Info: HYDROGEN GROUP CUTOFF  2.5
Info: PATCH DIMENSION        21.5
Info: ENERGY OUTPUT STEPS    5000
Info: ENERGY EVALUATION STEPS    5000
Info: OUTPUT ENERGY PRECISION 4
Info: CROSSTERM ENERGY INCLUDED IN DIHEDRAL
Info: TIMING OUTPUT STEPS    50000
Info: PRESSURE OUTPUT STEPS  5000
Info: LANGEVIN DYNAMICS ACTIVE
Info: LANGEVIN TEMPERATURE   300
Info: LANGEVIN USING BBK INTEGRATOR
Info: LANGEVIN DAMPING COEFFICIENT IS 1 INVERSE PS
Info: LANGEVIN DYNAMICS APPLIED TO HYDROGENS
Info: LANGEVIN PISTON PRESSURE CONTROL ACTIVE
Info:        TARGET PRESSURE IS 1.01325 BAR
Info:     OSCILLATION PERIOD IS 50 FS
Info:             DECAY TIME IS 25 FS
Info:     PISTON TEMPERATURE IS 300 K
Info:       PRESSURE CONTROL IS GROUP-BASED
Info:    INITIAL STRAIN RATE IS 0 0 0
Info:       CELL FLUCTUATION IS ISOTROPIC
Info: PARTICLE MESH EWALD (PME) ACTIVE
Info: PME TOLERANCE               1e-06
Info: PME EWALD COEFFICIENT       0.348832
Info: PME INTERPOLATION ORDER     4
Info: PME GRID DIMENSIONS         44 40 44
Info: PME MAXIMUM GRID SPACING    1
Info: FULL ELECTROSTATIC EVALUATION FREQUENCY      2
Info: USING VERLET I (r-RESPA) MTS SCHEME.
Info: C1 SPLITTING OF LONG RANGE ELECTROSTATICS
Info: PLACING ATOMS IN PATCHES BY HYDROGEN GROUPS
Info: RIGID BONDS TO HYDROGEN : ALL
Info:         ERROR TOLERANCE : 1e-08
Info:          MAX ITERATIONS : 100
Info: RIGID WATER USING SETTLE ALGORITHM
Info: RANDOM NUMBER SEED     1741335775
Info: USE HYDROGEN BONDS?    NO
Info: Using AMBER format force field!
Info: AMBER PARM FILE        mobley_4219614.prmtop
Info: COORDINATE PDB         mobley_4219614.pdb
Info: Exclusions will be read from PARM file!
Info: SCNB (VDW SCALING)     2
Info: USING ARITHMETIC MEAN TO COMBINE L-J SIGMA PARAMETERS
Info: SUMMARY OF PARAMETERS:
Info: 5 BONDS
Info: 3 ANGLES
Info:   3 HARMONIC
Info:   0 COSINE-BASED
Info: 2 DIHEDRAL
Info: 0 IMPROPER
Info: 0 CROSSTERM
Info: 0 VDW
Info: 15 VDW_PAIRS
Info: 0 NBTHOLE_PAIRS
Info: STRUCTURE SUMMARY:
Info: 5046 ATOMS
Info: 5046 BONDS
Info: 18 ANGLES
Info: 30 DIHEDRALS
Info: 0 IMPROPERS
Info: 0 CROSSTERMS
Info: 5085 EXCLUSIONS
Info: 5036 RIGID BONDS
Info: 10102 DEGREES OF FREEDOM
Info: 1688 HYDROGEN GROUPS
Info: 3 ATOMS IN LARGEST HYDROGEN GROUP
Info: 1688 MIGRATION GROUPS
Info: 3 ATOMS IN LARGEST MIGRATION GROUP
Info: TOTAL MASS = 30446.7 amu
Info: TOTAL CHARGE = -9.99942e-05 e
Info: MASS DENSITY = 0.728123 g/cm^3
Info: ATOM DENSITY = 0.0726695 atoms/A^3
Info: ADDED 0 IMPLICIT EXCLUSIONS
Info: NONBONDED TABLE R-SQUARED SPACING: 0.0625
Info: NONBONDED TABLE SIZE: 705 POINTS
Info: REMOVING COM VELOCITY 0.104282 0.0500206 -0.0292035
TCL: Minimizing for 2000 steps
ETITLE: TS BOND ANGLE DIHED IMPRP ELECT VDW BOUNDARY MISC KINETIC TOTAL TEMP POTENTIAL TOTAL3 TEMPAVG PRESSURE GPRESSURE VOLUME PRESSAVG GPRESSAVG
ENERGY: 0 0.3981 0.7159 0.0001 0.0000 -15826.6494 1805.5020 0.0000 0.0000 0.0000 -14020.0334 0.0000 -14020.0334 -14020.0334 0.0000 11306.4916 -15954.9090 69437.6599 11306.4916 -15954.9090
ENERGY: 400 2.8433 0.5143 0.7394 0.0000 -21221.6500 3043.6055 0.0000 0.0000 0.0000 -18173.9475 0.0000 -18173.9475 -18173.9475 0.0000 15714.2152 15853.7947 69437.6599 15714.2152 15853.7947
ENERGY: 800 1.0128 0.6807 0.0172 0.0000 -22178.9952 3488.2939 0.0000 0.0000 0.0000 -18688.9906 0.0000 -18688.9906 -18688.9906 0.0000 17731.0375 17845.4518 69437.6599 17731.0375 17845.4518
ENERGY: 1200 0.6963 0.3128 0.0156 0.0000 -22646.6350 3706.4650 0.0000 0.0000 0.0000 -18939.1453 0.0000 -18939.1453 -18939.1453 0.0000 18743.7550 18840.1688 69437.6599 18743.7550 18840.1688
ENERGY: 1600 0.4624 0.2259 0.1300 0.0000 -22875.2367 3801.8947 0.0000 0.0000 0.0000 -19072.5237 0.0000 -19072.5237 -19072.5237 0.0000 19192.8101 19290.2838 69437.6599 19192.8101 19290.2838
ENERGY: 2000 0.3556 0.1761 0.0133 0.0000 -23032.0696 3873.5627 0.0000 0.0000 0.0000 -19157.9619 0.0000 -19157.9619 -19157.9619 0.0000 19568.8194 19658.7345 69437.6599 19568.8194 19658.7345
TCL: Exiting due to exit command.
Info: NAMD 3.0.1 for Linux-x86_64-multicore
Info: Please visit http://www.ks.uiuc.edu/Research/namd/
Info: for updates, documentation, and support information.
Info: Please cite Phillips et al., J. Chem. Phys. 153:044130 (2020) doi:10.1063/5.0014475
Info: in all publications reporting results obtained with NAMD.
Info: Based on Charm++/Converse 80000 for multicore-linux-x86_64-gcc
Info: Built Mon Oct 14 11:11:06 CDT 2024 by dhardy on athine.ks.uiuc.edu
Info: 1 NAMD  3.0.1  Linux-x86_64-multicore  16    k026  z5358697
Info: Running on 16 processors, 1 nodes, 1 physical nodes.
Info: CPU topology information available.
Info: Charm++/Converse parallel runtime startup completed at 0.00849368 s
Info: 1043.46 MB of memory in use based on /proc/self/stat
Info: Configuration file is mobley_4219614_equil.namd
Info: Working in the current directory /srv/scratch/z5358697/prod_prep_5/4219614
TCL: Running 25000 steps at 30 kelvin.
TCL: Suspending until startup complete.
Info: SIMULATION PARAMETERS:
Info: TIMESTEP               2
Info: NUMBER OF STEPS        0
Info: STEPS PER CYCLE        10
Info: PERIODIC CELL BASIS 1  41.545 0 0
Info: PERIODIC CELL BASIS 2  0 39.757 0
Info: PERIODIC CELL BASIS 3  0 0 42.04
Info: PERIODIC CELL CENTER   0 0 0
Info: WRAPPING WATERS AROUND PERIODIC BOUNDARIES ON OUTPUT.
Info: WRAPPING ALL CLUSTERS AROUND PERIODIC BOUNDARIES ON OUTPUT.
Info: FIRST LDB TIMESTEP     50
Info: LAST LDB TIMESTEP     -1
Info: HOM BACKGROUND SCALING 1
Info: PME BACKGROUND SCALING 1
Info: MIN ATOMS PER PATCH    40
Info: EMPTY PATCH LOAD       40 ATOMS
Info: INITIAL TEMPERATURE    300
Info: CENTER OF MASS MOVING INITIALLY? NO
Info: DIELECTRIC             1
Info: EXCLUDE                SCALED ONE-FOUR
Info: 1-4 ELECTROSTATICS SCALED BY 0.833333
Info: MODIFIED 1-4 VDW PARAMETERS WILL BE USED
Info: DCD FILENAME           mobley_4219614_equil.dcd
Info: DCD FREQUENCY          5000
Info: DCD FIRST STEP         5000
Info: DCD FILE WILL CONTAIN UNIT CELL DATA
Info: XST FILENAME           mobley_4219614_equil.xst
Info: XST FREQUENCY          5000
Info: NO VELOCITY DCD OUTPUT
Info: NO FORCE DCD OUTPUT
Info: OUTPUT FILENAME        mobley_4219614_equil
Info: BINARY OUTPUT FILES WILL BE USED
Info: RESTART FILENAME       mobley_4219614_equil.restart
Info: RESTART FREQUENCY      5000
Info: BINARY RESTART FILES WILL BE USED
Info: CUTOFF                 9
Info: PAIRLIST DISTANCE      11
Info: PAIRLIST SHRINK RATE   0.01
Info: PAIRLIST GROW RATE     0.01
Info: PAIRLIST TRIGGER       0.3
Info: PAIRLISTS PER CYCLE    2
Info: PAIRLISTS ENABLED
Info: MARGIN                 8
Info: HYDROGEN GROUP CUTOFF  2.5
Info: PATCH DIMENSION        21.5
Info: ENERGY OUTPUT STEPS    5000
Info: ENERGY EVALUATION STEPS    5000
Info: OUTPUT ENERGY PRECISION 4
Info: CROSSTERM ENERGY INCLUDED IN DIHEDRAL
Info: TIMING OUTPUT STEPS    50000
Info: PRESSURE OUTPUT STEPS  5000
Info: LANGEVIN DYNAMICS ACTIVE
Info: LANGEVIN TEMPERATURE   30
Info: LANGEVIN USING BBK INTEGRATOR
Info: LANGEVIN DAMPING COEFFICIENT IS 1 INVERSE PS
Info: LANGEVIN DYNAMICS APPLIED TO HYDROGENS
Info: LANGEVIN PISTON PRESSURE CONTROL ACTIVE
Info:        TARGET PRESSURE IS 1.01325 BAR
Info:     OSCILLATION PERIOD IS 50 FS
Info:             DECAY TIME IS 25 FS
Info:     PISTON TEMPERATURE IS 300 K
Info:       PRESSURE CONTROL IS GROUP-BASED
Info:    INITIAL STRAIN RATE IS 0 0 0
Info:       CELL FLUCTUATION IS ISOTROPIC
Info: PARTICLE MESH EWALD (PME) ACTIVE
Info: PME TOLERANCE               1e-06
Info: PME EWALD COEFFICIENT       0.348832
Info: PME INTERPOLATION ORDER     4
Info: PME GRID DIMENSIONS         44 40 44
Info: PME MAXIMUM GRID SPACING    1
Info: FULL ELECTROSTATIC EVALUATION FREQUENCY      2
Info: USING VERLET I (r-RESPA) MTS SCHEME.
Info: C1 SPLITTING OF LONG RANGE ELECTROSTATICS
Info: PLACING ATOMS IN PATCHES BY HYDROGEN GROUPS
Info: RIGID BONDS TO HYDROGEN : ALL
Info:         ERROR TOLERANCE : 1e-08
Info:          MAX ITERATIONS : 100
Info: RIGID WATER USING SETTLE ALGORITHM
Info: RANDOM NUMBER SEED     1741335792
Info: USE HYDROGEN BONDS?    NO
Info: Using AMBER format force field!
Info: AMBER PARM FILE        mobley_4219614.prmtop
Info: COORDINATE PDB         mobley_4219614.pdb
Info: Exclusions will be read from PARM file!
Info: SCNB (VDW SCALING)     2
Info: USING ARITHMETIC MEAN TO COMBINE L-J SIGMA PARAMETERS
Info: BINARY COORDINATES     mobley_4219614_min.coor
Info: SUMMARY OF PARAMETERS:
Info: 5 BONDS
Info: 3 ANGLES
Info:   3 HARMONIC
Info:   0 COSINE-BASED
Info: 2 DIHEDRAL
Info: 0 IMPROPER
Info: 0 CROSSTERM
Info: 0 VDW
Info: 15 VDW_PAIRS
Info: 0 NBTHOLE_PAIRS
Info: STRUCTURE SUMMARY:
Info: 5046 ATOMS
Info: 5046 BONDS
Info: 18 ANGLES
Info: 30 DIHEDRALS
Info: 0 IMPROPERS
Info: 0 CROSSTERMS
Info: 5085 EXCLUSIONS
Info: 5036 RIGID BONDS
Info: 10102 DEGREES OF FREEDOM
Info: 1688 HYDROGEN GROUPS
Info: 3 ATOMS IN LARGEST HYDROGEN GROUP
Info: 1688 MIGRATION GROUPS
Info: 3 ATOMS IN LARGEST MIGRATION GROUP
Info: TOTAL MASS = 30446.7 amu
Info: TOTAL CHARGE = -9.99942e-05 e
Info: MASS DENSITY = 0.728123 g/cm^3
Info: ATOM DENSITY = 0.0726695 atoms/A^3
Info: ADDED 0 IMPLICIT EXCLUSIONS
Info: NONBONDED TABLE R-SQUARED SPACING: 0.0625
Info: NONBONDED TABLE SIZE: 705 POINTS
Info: REMOVING COM VELOCITY -0.0829638 -0.013569 0.128707
TCL: Running for 25000 steps
ETITLE: TS BOND ANGLE DIHED IMPRP ELECT VDW BOUNDARY MISC KINETIC TOTAL TEMP POTENTIAL TOTAL3 TEMPAVG PRESSURE GPRESSURE VOLUME PRESSAVG GPRESSAVG
ENERGY: 0 0.3556 0.1761 0.0133 0.0000 -23032.0696 3873.5627 0.0000 0.0000 3042.7667 -16115.1952 303.1459 -19157.9619 -16114.5749 303.1459 -224.1115 -182.9394 69437.6599 -224.1115 -182.9394
ENERGY: 5000 0.6826 0.2476 0.4203 0.0000 -23918.9182 3930.0063 0.0000 0.0000 304.0798 -19683.4818 30.2950 -19987.5615 -19682.4889 47.8562 -1173.7031 -1111.2748 49625.9349 1.9088 2.2046
ENERGY: 10000 0.5172 0.3222 0.1694 0.0000 -24136.5881 4099.8795 0.0000 0.0000 303.2633 -19732.4365 30.2136 -20035.6998 -19731.3445 30.0160 -455.3755 -390.1337 49408.2548 -2.0755 -2.0574
ENERGY: 15000 0.5489 0.2514 0.4142 0.0000 -24147.3618 4103.8202 0.0000 0.0000 301.5103 -19740.8169 30.0390 -20042.3272 -19739.7064 30.1435 -432.3785 -374.7561 49384.7191 3.5768 3.5887
ENERGY: 20000 0.3172 0.3873 0.0265 0.0000 -24225.0547 4169.9257 0.0000 0.0000 305.3273 -19749.0707 30.4193 -20054.3979 -19748.2035 30.1688 -35.2684 14.7741 49133.5219 3.8840 3.8477
ENERGY: 25000 0.3900 0.4813 0.3340 0.0000 -24170.6699 4101.8947 0.0000 0.0000 301.7847 -19765.7852 30.0663 -20067.5700 -19765.0677 29.9605 -382.5566 -338.0394 49128.2496 -0.1289 -0.1218
TCL: Running 25000 steps at 60 kelvin.
TCL: Setting parameter langevinTemp to 60
TCL: Running for 25000 steps
ETITLE: TS BOND ANGLE DIHED IMPRP ELECT VDW BOUNDARY MISC KINETIC TOTAL TEMP POTENTIAL TOTAL3 TEMPAVG PRESSURE GPRESSURE VOLUME PRESSAVG GPRESSAVG
ENERGY: 25000 0.3900 0.4813 0.3340 0.0000 -24170.6699 4101.8947 0.0000 0.0000 301.6341 -19765.9359 30.0513 -20067.5700 -19765.2755 30.0513 -394.6097 -338.0151 49128.2496 -394.6097 -338.0151
ENERGY: 30000 0.1367 0.4123 0.4358 0.0000 -24038.1364 4279.5775 0.0000 0.0000 584.4436 -19173.1305 58.2272 -19757.5741 -19172.5323 56.8856 1197.0049 1236.2084 49063.0030 6.5093 6.0620
ENERGY: 35000 0.6803 0.3943 0.8677 0.0000 -24072.5229 4277.1342 0.0000 0.0000 596.8831 -19196.5633 59.4665 -19793.4464 -19195.5692 60.3061 1104.4534 1148.2456 48902.9091 5.6262 5.7589
ENERGY: 40000 0.3488 0.6316 0.5715 0.0000 -23931.6910 4090.3366 0.0000 0.0000 602.3901 -19237.4123 60.0151 -19839.8024 -19235.8746 60.2566 38.2076 104.8675 49212.7266 6.1866 5.9704
ENERGY: 45000 1.1639 0.4905 0.2983 0.0000 -24015.3590 4141.1531 0.0000 0.0000 592.9097 -19279.3433 59.0706 -19872.2531 -19278.1459 59.6346 168.7352 217.8225 49174.8721 4.9975 5.1449
ENERGY: 50000 0.9217 0.6284 0.3774 0.0000 -23772.2527 3905.7457 0.0000 0.0000 590.8636 -19273.7160 58.8668 -19864.5796 -19272.2698 60.1522 -963.1766 -918.3127 49518.6604 3.3280 3.2453
TCL: Running 25000 steps at 90 kelvin.
TCL: Setting parameter langevinTemp to 90
TCL: Running for 25000 steps
ETITLE: TS BOND ANGLE DIHED IMPRP ELECT VDW BOUNDARY MISC KINETIC TOTAL TEMP POTENTIAL TOTAL3 TEMPAVG PRESSURE GPRESSURE VOLUME PRESSAVG GPRESSAVG
ENERGY: 50000 0.9217 0.6284 0.3774 0.0000 -23772.2527 3905.7457 0.0000 0.0000 590.5636 -19274.0159 58.8369 -19864.5796 -19272.6407 58.8369 -972.8318 -918.5116 49518.6604 -972.8318 -918.5116
ENERGY: 55000 1.1959 0.7248 0.4124 0.0000 -23490.4135 3904.3663 0.0000 0.0000 908.8406 -18674.8736 90.5463 -19583.7142 -18672.7117 86.9681 -323.0904 -244.6876 49420.6359 2.3758 2.6521
ENERGY: 60000 1.5772 0.4521 0.7141 0.0000 -23634.8235 4033.7631 0.0000 0.0000 929.2252 -18669.0919 92.5772 -19598.3171 -18666.1853 90.8182 346.1867 396.0463 49218.7470 2.1271 2.2081
ENERGY: 65000 1.2625 1.3212 0.2349 0.0000 -23658.5434 4045.0880 0.0000 0.0000 917.4771 -18693.1598 91.4067 -19610.6369 -18691.6599 90.6510 283.5434 324.2703 49484.9533 4.8354 4.9822
ENERGY: 70000 1.8140 0.6114 0.2759 0.0000 -23628.6706 3952.5037 0.0000 0.0000 905.1541 -18768.3115 90.1790 -19673.4656 -18766.9231 90.3888 -326.3801 -273.1097 49412.9714 1.5643 1.7957
ENERGY: 75000 1.0328 0.9858 1.0997 0.0000 -23685.0135 3999.6747 0.0000 0.0000 921.9619 -18760.2585 91.8536 -19682.2204 -18757.2885 90.1349 -69.8818 4.3853 49310.2010 4.5534 4.6691
TCL: Running 25000 steps at 120 kelvin.
TCL: Setting parameter langevinTemp to 120
TCL: Running for 25000 steps
ETITLE: TS BOND ANGLE DIHED IMPRP ELECT VDW BOUNDARY MISC KINETIC TOTAL TEMP POTENTIAL TOTAL3 TEMPAVG PRESSURE GPRESSURE VOLUME PRESSAVG GPRESSAVG
ENERGY: 75000 1.0328 0.9858 1.0997 0.0000 -23685.0135 3999.6747 0.0000 0.0000 921.5257 -18760.6947 91.8101 -19682.2204 -18758.7712 91.8101 -66.2514 4.6988 49310.2010 -66.2514 4.6988
ENERGY: 80000 1.3558 0.7275 0.5481 0.0000 -23172.6193 3803.0188 0.0000 0.0000 1193.3774 -18173.5917 118.8942 -19366.9691 -18169.4154 117.0392 -393.9432 -327.5886 49560.9033 1.7911 2.0955
ENERGY: 85000 0.8595 1.1211 0.3688 0.0000 -23276.5433 3874.2235 0.0000 0.0000 1201.9190 -18198.0515 119.7452 -19399.9704 -18194.2075 120.3856 -112.7708 -32.9231 49572.5273 4.5944 4.6255
ENERGY: 90000 1.4903 2.2532 1.0694 0.0000 -23296.2410 3846.8386 0.0000 0.0000 1224.3673 -18220.2222 121.9817 -19444.5895 -18216.1903 120.0202 -304.1974 -248.4603 49452.3129 7.3697 7.3621
ENERGY: 95000 1.5336 1.4394 1.2191 0.0000 -23450.2700 3966.3644 0.0000 0.0000 1225.4039 -18254.3096 122.0850 -19479.7135 -18251.9961 121.1249 161.1818 230.9858 49301.5728 1.2136 1.1136
ENERGY: 100000 1.5365 0.7479 0.3586 0.0000 -23390.5303 3889.1147 0.0000 0.0000 1252.6359 -18246.1367 124.7981 -19498.7726 -18242.9409 120.6114 -307.6884 -235.9495 49519.0635 1.5924 1.7859
TCL: Running 25000 steps at 150 kelvin.
TCL: Setting parameter langevinTemp to 150
TCL: Running for 25000 steps
ETITLE: TS BOND ANGLE DIHED IMPRP ELECT VDW BOUNDARY MISC KINETIC TOTAL TEMP POTENTIAL TOTAL3 TEMPAVG PRESSURE GPRESSURE VOLUME PRESSAVG GPRESSAVG
ENERGY: 100000 1.5365 0.7479 0.3586 0.0000 -23390.5303 3889.1147 0.0000 0.0000 1252.0203 -18246.7523 124.7367 -19498.7726 -18244.4912 124.7367 -287.0574 -235.8236 49519.0635 -287.0574 -235.8236
ENERGY: 105000 1.7136 1.3372 1.1665 0.0000 -22887.8317 3780.8109 0.0000 0.0000 1522.3893 -17580.4143 151.6732 -19102.8036 -17576.6376 146.9614 -45.0415 12.7875 49793.6929 0.7364 0.8651
ENERGY: 110000 3.0634 1.5336 0.9897 0.0000 -22980.4265 3846.5201 0.0000 0.0000 1536.7570 -17591.5626 153.1046 -19128.3196 -17589.9231 150.4023 404.3723 468.7738 49246.2753 -0.6759 -0.7871
ENERGY: 115000 0.9087 0.9678 2.1700 0.0000 -22909.6675 3742.2901 0.0000 0.0000 1480.7509 -17682.5800 147.5248 -19163.3309 -17679.5642 149.8113 -312.1610 -260.4482 49753.9658 0.9543 1.0048
ENERGY: 120000 1.2633 1.3861 1.6605 0.0000 -23023.1883 3876.7243 0.0000 0.0000 1518.3173 -17623.8368 151.2675 -19142.1540 -17619.7961 150.3520 527.5256 633.3683 49142.6667 5.8706 6.0864
ENERGY: 125000 2.3307 2.1445 0.8040 0.0000 -22951.0988 3747.7318 0.0000 0.0000 1511.7732 -17686.3146 150.6155 -19198.0879 -17685.8247 150.8052 -428.3401 -351.9885 49661.9246 1.7375 1.4761
TCL: Running 50000 steps at 180 kelvin.
TCL: Setting parameter langevinTemp to 180
TCL: Running for 50000 steps
ETITLE: TS BOND ANGLE DIHED IMPRP ELECT VDW BOUNDARY MISC KINETIC TOTAL TEMP POTENTIAL TOTAL3 TEMPAVG PRESSURE GPRESSURE VOLUME PRESSAVG GPRESSAVG
ENERGY: 125000 2.3307 2.1445 0.8040 0.0000 -22951.0988 3747.7318 0.0000 0.0000 1511.0306 -17687.0573 150.5415 -19198.0879 -17684.2183 150.5415 -416.4562 -353.8234 49661.9246 -416.4562 -353.8234
ENERGY: 135000 0.6622 1.2289 0.5459 0.0000 -22441.6111 3700.4133 0.0000 0.0000 1837.1789 -16901.5819 183.0351 -18738.7608 -16897.6028 181.0187 414.0478 456.3839 49797.9924 8.6601 8.4596
ENERGY: 145000 3.1645 1.9058 0.2570 0.0000 -22451.3416 3620.8228 0.0000 0.0000 1821.4461 -17003.7453 181.4677 -18825.1915 -16999.6853 179.5016 -73.8541 17.1054 49188.2506 3.4703 2.7880
ENERGY: 155000 1.4456 2.6031 2.1032 0.0000 -22367.6328 3575.2048 0.0000 0.0000 1818.5326 -16967.7436 181.1774 -18786.2761 -16963.1959 181.2102 -125.7490 -88.2861 49374.7760 6.4507 6.2521
ENERGY: 165000 3.5239 1.3869 0.6625 0.0000 -22497.5230 3696.5342 0.0000 0.0000 1774.6736 -17020.7419 176.8078 -18795.4155 -17017.5912 180.3047 433.7447 467.8142 49126.6661 0.5424 0.6668
ENERGY: 175000 0.9700 0.9468 1.5038 0.0000 -22374.1603 3590.1191 0.0000 0.0000 1798.0708 -16982.5498 179.1389 -18780.6205 -16978.0195 181.8634 -153.2958 -108.2311 49458.2427 -1.0384 -0.8487
TCL: Running 50000 steps at 210 kelvin.
TCL: Setting parameter langevinTemp to 210
TCL: Running for 50000 steps
ETITLE: TS BOND ANGLE DIHED IMPRP ELECT VDW BOUNDARY MISC KINETIC TOTAL TEMP POTENTIAL TOTAL3 TEMPAVG PRESSURE GPRESSURE VOLUME PRESSAVG GPRESSAVG
ENERGY: 175000 0.9700 0.9468 1.5038 0.0000 -22374.1603 3590.1191 0.0000 0.0000 1797.1802 -16983.4403 179.0501 -18780.6206 -16980.1443 179.0501 -172.3232 -108.6639 49458.2427 -172.3232 -108.6639
ENERGY: 185000 3.8384 1.0863 1.5130 0.0000 -21161.9649 3142.9694 0.0000 0.0000 2122.3453 -15890.2126 211.4458 -18012.5578 -15885.5119 209.7342 -515.8692 -464.1625 49254.8658 3.8293 3.6149
ENERGY: 195000 2.8421 2.0421 1.7777 0.0000 -21308.6799 3261.5926 0.0000 0.0000 2072.1108 -15968.3146 206.4410 -18040.4255 -15962.6032 209.3960 -94.0669 -25.5946 49142.1346 6.4306 5.8703
ENERGY: 205000 4.2828 1.5992 1.1097 0.0000 -21095.6944 3116.3650 0.0000 0.0000 2122.8340 -15849.5037 211.4945 -17972.3377 -15841.8506 210.1683 -570.3597 -483.9532 49318.4934 5.9811 5.5129
ENERGY: 215000 3.7446 0.9578 2.7635 0.0000 -21227.7143 3227.1226 0.0000 0.0000 2100.7064 -15892.4195 209.2899 -17993.1258 -15887.6969 209.8142 -102.3371 -26.9156 49038.8269 0.2134 0.7737
ENERGY: 225000 1.5239 1.6789 3.4802 0.0000 -21278.6060 3198.5080 0.0000 0.0000 2088.6588 -15984.7562 208.0897 -18073.4150 -15982.2473 210.1400 -346.3069 -247.1840 49127.0518 7.6065 7.5073
TCL: Running 50000 steps at 240 kelvin.
TCL: Setting parameter langevinTemp to 240
TCL: Running for 50000 steps
ETITLE: TS BOND ANGLE DIHED IMPRP ELECT VDW BOUNDARY MISC KINETIC TOTAL TEMP POTENTIAL TOTAL3 TEMPAVG PRESSURE GPRESSURE VOLUME PRESSAVG GPRESSAVG
ENERGY: 225000 1.5239 1.6789 3.4802 0.0000 -21278.6060 3198.5080 0.0000 0.0000 2087.6360 -15985.7790 207.9878 -18073.4150 -15981.9121 207.9878 -325.1024 -248.9677 49127.0518 -325.1024 -248.9677
ENERGY: 235000 1.4590 2.6460 1.2154 0.0000 -20185.7755 2908.4216 0.0000 0.0000 2370.5502 -14901.4834 236.1740 -17272.0335 -14895.8792 241.4502 -332.5279 -205.3024 50165.2657 1.7299 1.3983
ENERGY: 245000 4.5171 2.3449 2.5681 0.0000 -20324.5044 3031.3848 0.0000 0.0000 2414.6154 -14869.0741 240.5642 -17283.6895 -14861.3613 239.2392 403.1284 459.2876 49506.1759 3.8306 3.3224
ENERGY: 255000 3.8859 2.0093 2.0349 0.0000 -20180.6396 2872.1812 0.0000 0.0000 2416.6212 -14883.9071 240.7640 -17300.5283 -14879.1760 238.9030 -360.4398 -258.5024 49533.9508 2.8570 2.7970
ENERGY: 265000 3.0892 2.0038 1.5672 0.0000 -20105.2876 2957.0661 0.0000 0.0000 2381.2603 -14760.3010 237.2411 -17141.5613 -14755.2734 239.6248 159.7253 206.7720 49988.5078 3.0269 2.9993
ENERGY: 275000 3.5990 0.9024 2.5601 0.0000 -20006.3984 2877.6901 0.0000 0.0000 2385.2296 -14736.4172 237.6365 -17121.6468 -14732.4700 241.2439 -245.9906 -162.4942 50049.2281 5.6684 5.0139
TCL: Running 50000 steps at 270 kelvin.
TCL: Setting parameter langevinTemp to 270
TCL: Running for 50000 steps
ETITLE: TS BOND ANGLE DIHED IMPRP ELECT VDW BOUNDARY MISC KINETIC TOTAL TEMP POTENTIAL TOTAL3 TEMPAVG PRESSURE GPRESSURE VOLUME PRESSAVG GPRESSAVG
ENERGY: 275000 3.5990 0.9024 2.5601 0.0000 -20006.3984 2877.6901 0.0000 0.0000 2384.0466 -14737.6002 237.5187 -17121.6468 -14733.7156 237.5187 -256.1326 -163.9609 50049.2281 -256.1326 -163.9609
ENERGY: 285000 2.9736 2.2157 1.2839 0.0000 -19242.3879 2699.6804 0.0000 0.0000 2729.5418 -13806.6925 271.9398 -16536.2343 -13802.1000 270.1296 48.4909 127.0211 50764.7935 2.4057 1.9346
ENERGY: 295000 2.4172 3.3097 2.1714 0.0000 -19193.2799 2654.0706 0.0000 0.0000 2666.2182 -13865.0928 265.6310 -16531.3110 -13855.8364 269.5446 -176.2125 -96.1597 50816.5361 2.2727 1.9652
ENERGY: 305000 1.6133 1.6722 2.7221 0.0000 -19379.4935 2853.2700 0.0000 0.0000 2754.0989 -13766.1169 274.3864 -16520.2159 -13761.7996 269.6112 883.6662 982.2765 50758.1991 0.5907 1.0940
ENERGY: 315000 5.0938 2.9178 1.6804 0.0000 -19412.8299 2803.5009 0.0000 0.0000 2715.3812 -13884.2558 270.5290 -16599.6370 -13879.3131 269.4991 638.5444 706.5747 50232.9273 0.1336 0.5716
ENERGY: 325000 4.0665 3.2311 2.0623 0.0000 -19270.7957 2756.8404 0.0000 0.0000 2767.9057 -13736.6897 275.7619 -16504.5954 -13728.1962 269.8217 758.1031 860.5408 49692.6161 3.9514 4.9326
TCL: Running 1000000 steps at 300 kelvin.
TCL: Setting parameter langevinTemp to 300
TCL: Running for 1000000 steps
ETITLE: TS BOND ANGLE DIHED IMPRP ELECT VDW BOUNDARY MISC KINETIC TOTAL TEMP POTENTIAL TOTAL3 TEMPAVG PRESSURE GPRESSURE VOLUME PRESSAVG GPRESSAVG
ENERGY: 325000 4.0665 3.2311 2.0623 0.0000 -19270.7957 2756.8404 0.0000 0.0000 2766.5367 -13738.0587 275.6255 -16504.5954 -13734.1997 275.6255 786.5901 862.0740 49692.6161 786.5901 862.0740
ENERGY: 525000 6.6036 1.1617 3.9040 0.0000 -18347.3619 2451.6361 0.0000 0.0000 3023.5729 -12860.4835 301.2336 -15884.0564 -12855.0325 299.4483 -149.5867 -67.5015 51892.9638 0.9876 1.0579
ENERGY: 725000 3.1401 2.0902 3.4570 0.0000 -18543.6512 2574.0736 0.0000 0.0000 3009.1043 -12951.7859 299.7922 -15960.8903 -12946.4318 298.5466 367.0795 447.2973 51545.5818 2.3800 2.5716
ENERGY: 925000 1.7950 5.6043 2.0012 0.0000 -18397.3557 2395.5114 0.0000 0.0000 2978.9476 -13013.4962 296.7877 -15992.4438 -13006.8729 299.6084 -354.8189 -235.4143 51376.5154 3.3870 3.4199
ENERGY: 1125000 1.9237 2.0764 2.6433 0.0000 -18292.6064 2438.6598 0.0000 0.0000 2980.2498 -12867.0535 296.9174 -15847.3033 -12863.9330 298.1492 -264.6899 -164.3334 52471.1157 2.6598 3.1597
ENERGY: 1325000 3.9165 2.5447 3.0942 0.0000 -18272.0474 2416.1800 0.0000 0.0000 2995.2496 -12851.0622 298.4118 -15846.3119 -12845.4118 300.9445 -250.8753 -203.5928 52309.0955 0.2717 0.5985
TCL: Exiting due to exit command.
