Info: SIMULATION PARAMETERS:
Info: TIMESTEP               2
Info: NUMBER OF STEPS        0
Info: STEPS PER CYCLE        10
Info: PERIODIC CELL BASIS 1  44.147 0 0
Info: PERIODIC CELL BASIS 2  0 45.083 0
Info: PERIODIC CELL BASIS 3  0 0 38.617
Info: PERIODIC CELL CENTER   0 0 0
Info: WRAPPING WATERS AROUND PERIODIC BOUNDARIES ON OUTPUT.
Info: WRAPPING ALL CLUSTERS AROUND PERIODIC BOUNDARIES ON OUTPUT.
Info: FIRST LDB TIMESTEP     50
Info: LAST LDB TIMESTEP     -1
Info: HOM BACKGROUND SCALING 1
Info: PME BACKGROUND SCALING 1
Info: MIN ATOMS PER PATCH    40
Info: EMPTY PATCH LOAD       40 ATOMS
Info: INITIAL TEMPERATURE    300
Info: CENTER OF MASS MOVING INITIALLY? NO
Info: DIELECTRIC             1
Info: EXCLUDE                SCALED ONE-FOUR
Info: 1-4 ELECTROSTATICS SCALED BY 0.833333
Info: MODIFIED 1-4 VDW PARAMETERS WILL BE USED
Info: DCD FILENAME           mobley_5371840_min.dcd
Info: DCD FREQUENCY          5000
Info: DCD FIRST STEP         5000
Info: DCD FILE WILL CONTAIN UNIT CELL DATA
Info: XST FILENAME           mobley_5371840_min.xst
Info: XST FREQUENCY          5000
Info: NO VELOCITY DCD OUTPUT
Info: NO FORCE DCD OUTPUT
Info: OUTPUT FILENAME        mobley_5371840_min
Info: BINARY OUTPUT FILES WILL BE USED
Info: RESTART FILENAME       mobley_5371840_min.restart
Info: RESTART FREQUENCY      5000
Info: BINARY RESTART FILES WILL BE USED
Info: CUTOFF                 9
Info: PAIRLIST DISTANCE      11
Info: PAIRLIST SHRINK RATE   0.01
Info: PAIRLIST GROW RATE     0.01
Info: PAIRLIST TRIGGER       0.3
Info: PAIRLISTS PER CYCLE    2
Info: PAIRLISTS ENABLED
Info: MARGIN                 8
Info: HYDROGEN GROUP CUTOFF  2.5
Info: PATCH DIMENSION        21.5
Info: ENERGY OUTPUT STEPS    5000
Info: ENERGY EVALUATION STEPS    5000
Info: OUTPUT ENERGY PRECISION 4
Info: CROSSTERM ENERGY INCLUDED IN DIHEDRAL
Info: TIMING OUTPUT STEPS    50000
Info: PRESSURE OUTPUT STEPS  5000
Info: LANGEVIN DYNAMICS ACTIVE
Info: LANGEVIN TEMPERATURE   300
Info: LANGEVIN USING BBK INTEGRATOR
Info: LANGEVIN DAMPING COEFFICIENT IS 1 INVERSE PS
Info: LANGEVIN DYNAMICS APPLIED TO HYDROGENS
Info: LANGEVIN PISTON PRESSURE CONTROL ACTIVE
Info:        TARGET PRESSURE IS 1.01325 BAR
Info:     OSCILLATION PERIOD IS 50 FS
Info:             DECAY TIME IS 25 FS
Info:     PISTON TEMPERATURE IS 300 K
Info:       PRESSURE CONTROL IS GROUP-BASED
Info:    INITIAL STRAIN RATE IS 0 0 0
Info:       CELL FLUCTUATION IS ISOTROPIC
Info: PARTICLE MESH EWALD (PME) ACTIVE
Info: PME TOLERANCE               1e-06
Info: PME EWALD COEFFICIENT       0.348832
Info: PME INTERPOLATION ORDER     4
Info: PME GRID DIMENSIONS         48 48 40
Info: PME MAXIMUM GRID SPACING    1
Info: FULL ELECTROSTATIC EVALUATION FREQUENCY      2
Info: USING VERLET I (r-RESPA) MTS SCHEME.
Info: C1 SPLITTING OF LONG RANGE ELECTROSTATICS
Info: PLACING ATOMS IN PATCHES BY HYDROGEN GROUPS
Info: RIGID BONDS TO HYDROGEN : ALL
Info:         ERROR TOLERANCE : 1e-08
Info:          MAX ITERATIONS : 100
Info: RIGID WATER USING SETTLE ALGORITHM
Info: RANDOM NUMBER SEED     1741344132
Info: USE HYDROGEN BONDS?    NO
Info: Using AMBER format force field!
Info: AMBER PARM FILE        mobley_5371840.prmtop
Info: COORDINATE PDB         mobley_5371840.pdb
Info: Exclusions will be read from PARM file!
Info: SCNB (VDW SCALING)     2
Info: USING ARITHMETIC MEAN TO COMBINE L-J SIGMA PARAMETERS
Info: SUMMARY OF PARAMETERS:
Info: 6 BONDS
Info: 5 ANGLES
Info:   5 HARMONIC
Info:   0 COSINE-BASED
Info: 3 DIHEDRAL
Info: 0 IMPROPER
Info: 0 CROSSTERM
Info: 0 VDW
Info: 21 VDW_PAIRS
Info: 0 NBTHOLE_PAIRS
Info: STRUCTURE SUMMARY:
Info: 5482 ATOMS
Info: 5484 BONDS
Info: 38 ANGLES
Info: 64 DIHEDRALS
Info: 0 IMPROPERS
Info: 0 CROSSTERMS
Info: 5569 EXCLUSIONS
Info: 5467 RIGID BONDS
Info: 10979 DEGREES OF FREEDOM
Info: 1835 HYDROGEN GROUPS
Info: 3 ATOMS IN LARGEST HYDROGEN GROUP
Info: 1835 MIGRATION GROUPS
Info: 3 ATOMS IN LARGEST MIGRATION GROUP
Info: TOTAL MASS = 33007.7 amu
Info: TOTAL CHARGE = -0.000200002 e
Info: MASS DENSITY = 0.713153 g/cm^3
Info: ATOM DENSITY = 0.0713258 atoms/A^3
Info: ADDED 0 IMPLICIT EXCLUSIONS
Info: NONBONDED TABLE R-SQUARED SPACING: 0.0625
Info: NONBONDED TABLE SIZE: 705 POINTS
Info: REMOVING COM VELOCITY -0.0489133 -0.121768 0.110528
TCL: Minimizing for 2000 steps
ETITLE: TS BOND ANGLE DIHED IMPRP ELECT VDW BOUNDARY MISC KINETIC TOTAL TEMP POTENTIAL TOTAL3 TEMPAVG PRESSURE GPRESSURE VOLUME PRESSAVG GPRESSAVG
ENERGY: 0 0.3161 2.0839 0.0003 0.0000 -16939.0385 1920.9010 0.0000 0.0000 0.0000 -15015.7372 0.0000 -15015.7372 -15015.7372 0.0000 10853.2644 -15612.2525 76858.6119 10853.2644 -15612.2525
ENERGY: 400 3.3188 2.5757 0.2765 0.0000 -22581.0159 3210.9720 0.0000 0.0000 0.0000 -19363.8728 0.0000 -19363.8728 -19363.8728 0.0000 14995.8230 15148.9669 76858.6119 14995.8230 15148.9669
ENERGY: 800 1.1909 0.7546 0.3652 0.0000 -23987.2399 3906.2182 0.0000 0.0000 0.0000 -20078.7110 0.0000 -20078.7110 -20078.7110 0.0000 17792.8089 17935.8881 76858.6119 17792.8089 17935.8881
ENERGY: 1200 0.9246 0.5346 0.0890 0.0000 -24551.2390 4137.9594 0.0000 0.0000 0.0000 -20411.7314 0.0000 -20411.7314 -20411.7314 0.0000 18775.0302 18906.6901 76858.6119 18775.0302 18906.6901
ENERGY: 1600 0.6392 0.4163 0.1013 0.0000 -24850.2852 4235.6687 0.0000 0.0000 0.0000 -20613.4597 0.0000 -20613.4597 -20613.4597 0.0000 19217.2709 19342.9602 76858.6119 19217.2709 19342.9602
ENERGY: 2000 0.5797 0.3176 0.1230 0.0000 -24987.0129 4288.8853 0.0000 0.0000 0.0000 -20697.1072 0.0000 -20697.1072 -20697.1072 0.0000 19477.3011 19596.7204 76858.6119 19477.3011 19596.7204
TCL: Exiting due to exit command.
Info: NAMD 3.0.1 for Linux-x86_64-multicore
Info: Please visit http://www.ks.uiuc.edu/Research/namd/
Info: for updates, documentation, and support information.
Info: Please cite Phillips et al., J. Chem. Phys. 153:044130 (2020) doi:10.1063/5.0014475
Info: in all publications reporting results obtained with NAMD.
Info: Based on Charm++/Converse 80000 for multicore-linux-x86_64-gcc
Info: Built Mon Oct 14 11:11:06 CDT 2024 by dhardy on athine.ks.uiuc.edu
Info: 1 NAMD  3.0.1  Linux-x86_64-multicore  16    k011  z5358697
Info: Running on 16 processors, 1 nodes, 1 physical nodes.
Info: CPU topology information available.
Info: Charm++/Converse parallel runtime startup completed at 0.00980539 s
Info: 1043.45 MB of memory in use based on /proc/self/stat
Info: Configuration file is mobley_5371840_equil.namd
Info: Working in the current directory /srv/scratch/z5358697/prod_prep_6/5371840
TCL: Running 25000 steps at 30 kelvin.
TCL: Suspending until startup complete.
Info: SIMULATION PARAMETERS:
Info: TIMESTEP               2
Info: NUMBER OF STEPS        0
Info: STEPS PER CYCLE        10
Info: PERIODIC CELL BASIS 1  44.147 0 0
Info: PERIODIC CELL BASIS 2  0 45.083 0
Info: PERIODIC CELL BASIS 3  0 0 38.617
Info: PERIODIC CELL CENTER   0 0 0
Info: WRAPPING WATERS AROUND PERIODIC BOUNDARIES ON OUTPUT.
Info: WRAPPING ALL CLUSTERS AROUND PERIODIC BOUNDARIES ON OUTPUT.
Info: FIRST LDB TIMESTEP     50
Info: LAST LDB TIMESTEP     -1
Info: HOM BACKGROUND SCALING 1
Info: PME BACKGROUND SCALING 1
Info: MIN ATOMS PER PATCH    40
Info: EMPTY PATCH LOAD       40 ATOMS
Info: INITIAL TEMPERATURE    300
Info: CENTER OF MASS MOVING INITIALLY? NO
Info: DIELECTRIC             1
Info: EXCLUDE                SCALED ONE-FOUR
Info: 1-4 ELECTROSTATICS SCALED BY 0.833333
Info: MODIFIED 1-4 VDW PARAMETERS WILL BE USED
Info: DCD FILENAME           mobley_5371840_equil.dcd
Info: DCD FREQUENCY          5000
Info: DCD FIRST STEP         5000
Info: DCD FILE WILL CONTAIN UNIT CELL DATA
Info: XST FILENAME           mobley_5371840_equil.xst
Info: XST FREQUENCY          5000
Info: NO VELOCITY DCD OUTPUT
Info: NO FORCE DCD OUTPUT
Info: OUTPUT FILENAME        mobley_5371840_equil
Info: BINARY OUTPUT FILES WILL BE USED
Info: RESTART FILENAME       mobley_5371840_equil.restart
Info: RESTART FREQUENCY      5000
Info: BINARY RESTART FILES WILL BE USED
Info: CUTOFF                 9
Info: PAIRLIST DISTANCE      11
Info: PAIRLIST SHRINK RATE   0.01
Info: PAIRLIST GROW RATE     0.01
Info: PAIRLIST TRIGGER       0.3
Info: PAIRLISTS PER CYCLE    2
Info: PAIRLISTS ENABLED
Info: MARGIN                 8
Info: HYDROGEN GROUP CUTOFF  2.5
Info: PATCH DIMENSION        21.5
Info: ENERGY OUTPUT STEPS    5000
Info: ENERGY EVALUATION STEPS    5000
Info: OUTPUT ENERGY PRECISION 4
Info: CROSSTERM ENERGY INCLUDED IN DIHEDRAL
Info: TIMING OUTPUT STEPS    50000
Info: PRESSURE OUTPUT STEPS  5000
Info: LANGEVIN DYNAMICS ACTIVE
Info: LANGEVIN TEMPERATURE   30
Info: LANGEVIN USING BBK INTEGRATOR
Info: LANGEVIN DAMPING COEFFICIENT IS 1 INVERSE PS
Info: LANGEVIN DYNAMICS APPLIED TO HYDROGENS
Info: LANGEVIN PISTON PRESSURE CONTROL ACTIVE
Info:        TARGET PRESSURE IS 1.01325 BAR
Info:     OSCILLATION PERIOD IS 50 FS
Info:             DECAY TIME IS 25 FS
Info:     PISTON TEMPERATURE IS 300 K
Info:       PRESSURE CONTROL IS GROUP-BASED
Info:    INITIAL STRAIN RATE IS 0 0 0
Info:       CELL FLUCTUATION IS ISOTROPIC
Info: PARTICLE MESH EWALD (PME) ACTIVE
Info: PME TOLERANCE               1e-06
Info: PME EWALD COEFFICIENT       0.348832
Info: PME INTERPOLATION ORDER     4
Info: PME GRID DIMENSIONS         48 48 40
Info: PME MAXIMUM GRID SPACING    1
Info: FULL ELECTROSTATIC EVALUATION FREQUENCY      2
Info: USING VERLET I (r-RESPA) MTS SCHEME.
Info: C1 SPLITTING OF LONG RANGE ELECTROSTATICS
Info: PLACING ATOMS IN PATCHES BY HYDROGEN GROUPS
Info: RIGID BONDS TO HYDROGEN : ALL
Info:         ERROR TOLERANCE : 1e-08
Info:          MAX ITERATIONS : 100
Info: RIGID WATER USING SETTLE ALGORITHM
Info: RANDOM NUMBER SEED     1741344155
Info: USE HYDROGEN BONDS?    NO
Info: Using AMBER format force field!
Info: AMBER PARM FILE        mobley_5371840.prmtop
Info: COORDINATE PDB         mobley_5371840.pdb
Info: Exclusions will be read from PARM file!
Info: SCNB (VDW SCALING)     2
Info: USING ARITHMETIC MEAN TO COMBINE L-J SIGMA PARAMETERS
Info: BINARY COORDINATES     mobley_5371840_min.coor
Info: SUMMARY OF PARAMETERS:
Info: 6 BONDS
Info: 5 ANGLES
Info:   5 HARMONIC
Info:   0 COSINE-BASED
Info: 3 DIHEDRAL
Info: 0 IMPROPER
Info: 0 CROSSTERM
Info: 0 VDW
Info: 21 VDW_PAIRS
Info: 0 NBTHOLE_PAIRS
Info: STRUCTURE SUMMARY:
Info: 5482 ATOMS
Info: 5484 BONDS
Info: 38 ANGLES
Info: 64 DIHEDRALS
Info: 0 IMPROPERS
Info: 0 CROSSTERMS
Info: 5569 EXCLUSIONS
Info: 5467 RIGID BONDS
Info: 10979 DEGREES OF FREEDOM
Info: 1835 HYDROGEN GROUPS
Info: 3 ATOMS IN LARGEST HYDROGEN GROUP
Info: 1835 MIGRATION GROUPS
Info: 3 ATOMS IN LARGEST MIGRATION GROUP
Info: TOTAL MASS = 33007.7 amu
Info: TOTAL CHARGE = -0.000200002 e
Info: MASS DENSITY = 0.713153 g/cm^3
Info: ATOM DENSITY = 0.0713258 atoms/A^3
Info: ADDED 0 IMPLICIT EXCLUSIONS
Info: NONBONDED TABLE R-SQUARED SPACING: 0.0625
Info: NONBONDED TABLE SIZE: 705 POINTS
Info: REMOVING COM VELOCITY 0.0187754 0.111081 0.076738
TCL: Running for 25000 steps
ETITLE: TS BOND ANGLE DIHED IMPRP ELECT VDW BOUNDARY MISC KINETIC TOTAL TEMP POTENTIAL TOTAL3 TEMPAVG PRESSURE GPRESSURE VOLUME PRESSAVG GPRESSAVG
ENERGY: 0 0.5797 0.3176 0.1230 0.0000 -24987.0129 4288.8853 0.0000 0.0000 3289.9972 -17407.1100 301.5943 -20697.1072 -17406.4675 301.5943 90.0307 122.4376 76858.6119 90.0307 122.4376
ENERGY: 5000 1.7411 0.5742 0.5712 0.0000 -26332.8859 4583.6162 0.0000 0.0000 338.2747 -21408.1085 31.0097 -21746.3832 -21407.3212 48.1171 40.8842 85.6826 53564.3798 1.3141 1.1742
ENERGY: 10000 1.7183 1.0445 0.9254 0.0000 -26156.9725 4370.8920 0.0000 0.0000 327.2369 -21455.1552 29.9978 -21782.3922 -21454.4030 30.2769 -1126.0765 -1074.3628 54183.8309 0.4559 0.7032
ENERGY: 15000 0.9883 0.6630 0.8791 0.0000 -26566.5925 4765.1351 0.0000 0.0000 329.7668 -21469.1603 30.2297 -21798.9270 -21468.1855 30.1758 690.6654 742.7901 53461.9293 3.3307 3.4556
ENERGY: 20000 1.0046 0.7733 0.6685 0.0000 -26471.8772 4654.1027 0.0000 0.0000 325.0903 -21490.2377 29.8010 -21815.3280 -21489.5053 29.9968 127.1668 179.6340 53720.5332 -5.4884 -5.6442
ENERGY: 25000 0.5775 0.9621 0.8513 0.0000 -26348.2755 4518.8981 0.0000 0.0000 324.7773 -21502.2091 29.7724 -21826.9864 -21501.0917 30.1813 -489.6470 -438.8015 53904.2936 -3.8428 -3.7148
TCL: Running 25000 steps at 60 kelvin.
TCL: Setting parameter langevinTemp to 60
TCL: Running for 25000 steps
ETITLE: TS BOND ANGLE DIHED IMPRP ELECT VDW BOUNDARY MISC KINETIC TOTAL TEMP POTENTIAL TOTAL3 TEMPAVG PRESSURE GPRESSURE VOLUME PRESSAVG GPRESSAVG
ENERGY: 25000 0.5775 0.9621 0.8513 0.0000 -26348.2755 4518.8981 0.0000 0.0000 324.6134 -21502.3730 29.7573 -21826.9864 -21501.6453 29.7573 -489.6492 -438.6598 53904.2936 -489.6492 -438.6598
ENERGY: 30000 1.0562 1.4424 1.1526 0.0000 -26074.1721 4557.3486 0.0000 0.0000 665.6327 -20847.5396 61.0186 -21513.1723 -20845.4469 57.4640 305.6979 365.3841 53996.9996 -1.1247 -0.9872
ENERGY: 35000 1.1403 1.1467 1.3996 0.0000 -26083.2327 4523.6454 0.0000 0.0000 659.0313 -20896.8694 60.4134 -21555.9007 -20895.3005 60.2982 127.1595 154.5176 53944.0564 -1.4132 -1.5797
ENERGY: 40000 0.9547 1.2154 0.7948 0.0000 -26245.9452 4653.9930 0.0000 0.0000 663.2071 -20925.7801 60.7962 -21588.9872 -20924.0092 59.7851 709.4290 761.3832 53495.5187 3.0888 3.3360
ENERGY: 45000 1.5338 0.8275 1.3842 0.0000 -26162.8081 4558.9009 0.0000 0.0000 652.6997 -20947.4619 59.8330 -21600.1616 -20945.7862 60.3300 217.8879 228.7293 53604.2553 0.8820 1.3656
ENERGY: 50000 1.4768 0.8186 1.6567 0.0000 -26167.9516 4546.4515 0.0000 0.0000 666.4779 -20951.0700 61.0961 -21617.5479 -20949.2681 60.2162 98.1312 142.6418 53817.5008 2.1507 2.3394
TCL: Running 25000 steps at 90 kelvin.
TCL: Setting parameter langevinTemp to 90
TCL: Running for 25000 steps
ETITLE: TS BOND ANGLE DIHED IMPRP ELECT VDW BOUNDARY MISC KINETIC TOTAL TEMP POTENTIAL TOTAL3 TEMPAVG PRESSURE GPRESSURE VOLUME PRESSAVG GPRESSAVG
ENERGY: 50000 1.4768 0.8186 1.6567 0.0000 -26167.9516 4546.4515 0.0000 0.0000 666.1495 -20951.3984 61.0660 -21617.5479 -20950.0410 61.0660 93.3739 142.5243 53817.5008 93.3739 142.5243
ENERGY: 55000 2.6341 1.8397 1.5613 0.0000 -25535.3558 4269.6481 0.0000 0.0000 980.3831 -20279.2895 89.8718 -21259.6726 -20277.3673 88.0555 -472.2397 -430.3012 54285.2854 5.5557 5.8501
ENERGY: 60000 2.5548 1.0117 1.7163 0.0000 -25630.6730 4296.9332 0.0000 0.0000 981.4887 -20346.9683 89.9731 -21328.4570 -20344.6366 89.9909 -538.8745 -455.5043 54368.1062 2.5155 2.6668
ENERGY: 65000 3.0005 1.7090 1.7043 0.0000 -25670.4842 4308.2559 0.0000 0.0000 975.6034 -20380.2110 89.4336 -21355.8144 -20377.9859 90.2477 -534.7642 -470.5386 54183.0142 0.8280 0.6819
ENERGY: 70000 2.4769 2.5495 1.7389 0.0000 -25891.8045 4491.9456 0.0000 0.0000 990.7455 -20402.3482 90.8217 -21393.0936 -20400.0636 90.4907 176.1748 239.8637 54128.8361 1.6156 1.3681
ENERGY: 75000 1.8500 1.5298 1.3952 0.0000 -25730.0059 4312.6191 0.0000 0.0000 995.7609 -20416.8511 91.2815 -21412.6120 -20414.0585 90.4842 -595.0311 -563.0026 54361.1056 4.1832 4.1628
TCL: Running 25000 steps at 120 kelvin.
TCL: Setting parameter langevinTemp to 120
TCL: Running for 25000 steps
ETITLE: TS BOND ANGLE DIHED IMPRP ELECT VDW BOUNDARY MISC KINETIC TOTAL TEMP POTENTIAL TOTAL3 TEMPAVG PRESSURE GPRESSURE VOLUME PRESSAVG GPRESSAVG
ENERGY: 75000 1.8500 1.5298 1.3952 0.0000 -25730.0059 4312.6191 0.0000 0.0000 995.2759 -20417.3360 91.2370 -21412.6120 -20415.0406 91.2370 -611.8921 -562.6276 54361.1056 -611.8921 -562.6276
ENERGY: 80000 1.7362 1.9819 1.7204 0.0000 -25265.2081 4205.5951 0.0000 0.0000 1304.2968 -19749.8777 119.5650 -21054.1745 -19746.2237 117.5431 -425.8232 -372.4248 54816.1606 2.8620 2.6170
ENERGY: 85000 1.8981 3.1432 1.4563 0.0000 -25401.6977 4396.5836 0.0000 0.0000 1335.0877 -19663.5289 122.3876 -20998.6166 -19660.7394 120.7188 593.2276 636.4520 54278.1073 1.7982 1.9237
ENERGY: 90000 1.4270 2.8908 2.1689 0.0000 -25259.4036 4164.3637 0.0000 0.0000 1285.5366 -19803.0167 117.8452 -21088.5533 -19799.0081 120.4335 -654.1114 -587.5754 54647.3816 2.4577 2.0253
ENERGY: 95000 2.9783 1.5439 2.3028 0.0000 -25237.8921 4118.7075 0.0000 0.0000 1346.0840 -19766.2755 123.3956 -21112.3595 -19763.1900 120.5989 -798.6472 -751.5232 54557.4609 -0.8725 -0.4966
ENERGY: 100000 2.8026 1.9356 2.0834 0.0000 -25377.5286 4256.7929 0.0000 0.0000 1278.1994 -19835.7148 117.1726 -21113.9142 -19833.2045 121.0526 -287.2957 -221.2703 54409.8195 2.3870 2.3655
TCL: Running 25000 steps at 150 kelvin.
TCL: Setting parameter langevinTemp to 150
TCL: Running for 25000 steps
ETITLE: TS BOND ANGLE DIHED IMPRP ELECT VDW BOUNDARY MISC KINETIC TOTAL TEMP POTENTIAL TOTAL3 TEMPAVG PRESSURE GPRESSURE VOLUME PRESSAVG GPRESSAVG
ENERGY: 100000 2.8026 1.9356 2.0834 0.0000 -25377.5286 4256.7929 0.0000 0.0000 1277.5382 -19836.3760 117.1120 -21113.9142 -19833.6338 117.1120 -276.1196 -221.7401 54409.8195 -276.1196 -221.7401
ENERGY: 105000 3.6902 2.2761 2.3852 0.0000 -24810.6530 4098.2194 0.0000 0.0000 1641.7614 -19062.3207 150.5004 -20704.0821 -19058.7571 147.5323 -275.4382 -207.3380 54553.4562 0.7663 0.0966
ENERGY: 110000 2.8238 2.9737 3.5358 0.0000 -24740.7624 4013.9110 0.0000 0.0000 1640.7448 -19076.7735 150.4072 -20717.5182 -19071.2920 150.0605 -540.5396 -484.3414 54257.5396 3.1445 2.9800
ENERGY: 115000 3.0886 2.6013 2.3694 0.0000 -24775.8672 4007.0958 0.0000 0.0000 1646.3312 -19114.3809 150.9193 -20760.7121 -19109.7784 150.4602 -512.8577 -457.3081 54061.3989 0.7004 0.6612
ENERGY: 120000 2.3154 3.6033 2.0227 0.0000 -24838.6112 4054.3895 0.0000 0.0000 1611.7118 -19164.5685 147.7457 -20776.2803 -19161.5051 150.9588 -404.4675 -344.8975 53950.3096 5.2015 4.5559
ENERGY: 125000 3.5039 2.1718 3.8035 0.0000 -24921.1529 4084.7557 0.0000 0.0000 1621.6832 -19205.2349 148.6598 -20826.9181 -19200.9418 150.2127 -190.5439 -161.1746 53719.1624 1.5229 1.3113
TCL: Running 50000 steps at 180 kelvin.
TCL: Setting parameter langevinTemp to 180
TCL: Running for 50000 steps
ETITLE: TS BOND ANGLE DIHED IMPRP ELECT VDW BOUNDARY MISC KINETIC TOTAL TEMP POTENTIAL TOTAL3 TEMPAVG PRESSURE GPRESSURE VOLUME PRESSAVG GPRESSAVG
ENERGY: 125000 3.5039 2.1718 3.8035 0.0000 -24921.1529 4084.7557 0.0000 0.0000 1620.8703 -19206.0477 148.5853 -20826.9181 -19202.8289 148.5853 -217.6947 -160.7832 53719.1624 -217.6947 -160.7832
ENERGY: 135000 3.6755 2.9097 5.3285 0.0000 -24346.8329 3919.1453 0.0000 0.0000 1989.1526 -18426.6213 182.3458 -20415.7739 -18420.1759 179.9736 -134.4398 -91.7174 54006.9506 3.0084 2.3208
ENERGY: 145000 2.4714 2.8725 2.6113 0.0000 -24480.7778 4105.8663 0.0000 0.0000 1997.0255 -18369.9308 183.0675 -20366.9562 -18365.2792 180.6939 935.1605 947.1226 53143.6945 -1.7785 -1.5638
ENERGY: 155000 4.0817 2.4659 3.1019 0.0000 -24302.1220 3928.4241 0.0000 0.0000 1965.3130 -18398.7355 180.1604 -20364.0485 -18392.7748 180.4747 -176.7770 -90.9862 54083.1867 0.4216 0.7611
ENERGY: 165000 2.5581 4.0312 2.9713 0.0000 -24200.6406 3813.3203 0.0000 0.0000 1974.8528 -18402.9068 181.0349 -20377.7596 -18399.8134 179.2152 -411.1803 -364.1524 53410.1855 3.0934 2.6086
ENERGY: 175000 3.4242 2.6214 7.0338 0.0000 -24497.4638 4091.4576 0.0000 0.0000 1945.7440 -18447.1828 178.3665 -20392.9268 -18443.3673 178.8001 731.3380 818.3488 53121.3808 1.1956 1.0002
TCL: Running 50000 steps at 210 kelvin.
TCL: Setting parameter langevinTemp to 210
TCL: Running for 50000 steps
ETITLE: TS BOND ANGLE DIHED IMPRP ELECT VDW BOUNDARY MISC KINETIC TOTAL TEMP POTENTIAL TOTAL3 TEMPAVG PRESSURE GPRESSURE VOLUME PRESSAVG GPRESSAVG
ENERGY: 175000 3.4242 2.6214 7.0338 0.0000 -24497.4638 4091.4576 0.0000 0.0000 1944.7828 -18448.1440 178.2784 -20392.9268 -18445.4132 178.2784 755.9232 818.2520 53121.3808 755.9232 818.2520
ENERGY: 185000 4.5779 5.8534 5.5343 0.0000 -23358.7905 3708.4987 0.0000 0.0000 2282.8971 -17351.4291 209.2734 -19634.3262 -17343.7159 210.6373 637.5277 695.4939 53185.9966 -1.4277 -1.4591
ENERGY: 195000 2.9918 3.6031 4.0522 0.0000 -23079.4595 3497.6339 0.0000 0.0000 2252.2586 -17318.9199 206.4647 -19571.1785 -17315.2648 209.7389 -50.9391 3.2628 53228.2853 1.5002 1.7698
ENERGY: 205000 4.9701 4.5534 3.6891 0.0000 -22993.1427 3509.4595 0.0000 0.0000 2307.2666 -17163.2041 211.5073 -19470.4707 -17159.8923 211.8281 -3.5930 53.6506 53529.3169 -0.1343 -0.2510
ENERGY: 215000 3.9992 5.1256 3.9680 0.0000 -23029.9982 3479.7576 0.0000 0.0000 2350.3579 -17186.7899 215.4575 -19537.1479 -17181.8902 211.8856 -163.7055 -94.6430 53445.3129 3.5977 3.6474
ENERGY: 225000 6.8496 5.5510 5.3629 0.0000 -23040.4541 3510.4927 0.0000 0.0000 2308.6086 -17203.5893 211.6303 -19512.1979 -17199.2945 209.6354 -141.1951 -49.4763 53777.6502 1.3435 1.4100
TCL: Running 50000 steps at 240 kelvin.
TCL: Setting parameter langevinTemp to 240
TCL: Running for 50000 steps
ETITLE: TS BOND ANGLE DIHED IMPRP ELECT VDW BOUNDARY MISC KINETIC TOTAL TEMP POTENTIAL TOTAL3 TEMPAVG PRESSURE GPRESSURE VOLUME PRESSAVG GPRESSAVG
ENERGY: 225000 6.8496 5.5510 5.3629 0.0000 -23040.4541 3510.4927 0.0000 0.0000 2307.4839 -17204.7140 211.5272 -19512.1979 -17201.1033 211.5272 -136.7661 -50.4507 53777.6502 -136.7661 -50.4507
ENERGY: 235000 7.8512 4.8377 5.0884 0.0000 -21697.7116 3078.8324 0.0000 0.0000 2637.7698 -15963.3322 241.8046 -18601.1020 -15954.9347 240.7122 -89.3926 -0.8265 53676.9111 0.9617 0.9552
ENERGY: 245000 5.3729 3.6252 4.7313 0.0000 -22166.9984 3284.6358 0.0000 0.0000 2625.3011 -16243.3320 240.6616 -18868.6331 -16235.9223 237.0537 163.6235 213.4325 54020.6786 1.3072 1.0009
ENERGY: 255000 6.3339 5.9010 5.0908 0.0000 -21794.7609 3201.4273 0.0000 0.0000 2624.2393 -15951.7686 240.5642 -18576.0079 -15947.2985 242.1445 281.4619 334.7490 54107.0247 3.2499 2.8406
ENERGY: 265000 5.6940 6.5379 4.1428 0.0000 -21896.7149 3186.1059 0.0000 0.0000 2651.8152 -16042.4191 243.0921 -18694.2343 -16036.8233 240.6610 -74.1057 -24.7766 54133.4236 1.9327 1.5680
ENERGY: 275000 1.9096 4.1578 4.8510 0.0000 -21881.7438 3213.7080 0.0000 0.0000 2612.2191 -16044.8983 239.4623 -18657.1174 -16041.7688 240.7287 234.9993 352.1911 53904.7036 4.1212 4.4165
TCL: Running 50000 steps at 270 kelvin.
TCL: Setting parameter langevinTemp to 270
TCL: Running for 50000 steps
ETITLE: TS BOND ANGLE DIHED IMPRP ELECT VDW BOUNDARY MISC KINETIC TOTAL TEMP POTENTIAL TOTAL3 TEMPAVG PRESSURE GPRESSURE VOLUME PRESSAVG GPRESSAVG
ENERGY: 275000 1.9096 4.1578 4.8510 0.0000 -21881.7438 3213.7080 0.0000 0.0000 2610.9353 -16046.1821 239.3446 -18657.1174 -16042.1101 239.3446 268.7965 351.2264 53904.7036 268.7965 351.2264
ENERGY: 285000 7.0244 6.1741 5.2482 0.0000 -20891.3152 2898.5864 0.0000 0.0000 2879.0678 -15095.2143 263.9244 -17974.2821 -15089.0260 266.6703 -170.0029 -131.3799 55197.6153 2.9499 3.3807
ENERGY: 295000 5.0428 4.8056 3.9272 0.0000 -20789.6944 2888.4638 0.0000 0.0000 3027.7924 -14859.6626 277.5580 -17887.4550 -14853.7147 271.3239 -154.7720 -75.7938 55355.5814 3.2457 3.7698
ENERGY: 305000 5.7641 4.1761 4.4536 0.0000 -20890.1017 2953.1233 0.0000 0.0000 2914.0918 -15008.4928 267.1350 -17922.5846 -15001.8220 268.7123 354.8605 426.7794 54416.7053 -1.0041 -1.2089
ENERGY: 315000 3.0881 3.3828 2.6512 0.0000 -20666.9751 2821.4934 0.0000 0.0000 2939.5162 -14896.8435 269.4657 -17836.3597 -14889.8384 271.4895 -145.9231 -76.9723 55039.1936 3.1110 2.2295
ENERGY: 325000 5.1877 3.9834 4.0592 0.0000 -20706.6180 2814.4944 0.0000 0.0000 2941.0587 -14937.8345 269.6071 -17878.8932 -14932.7804 270.3912 -327.5498 -228.2870 55343.5565 0.1918 0.6612
TCL: Running 1000000 steps at 300 kelvin.
TCL: Setting parameter langevinTemp to 300
TCL: Running for 1000000 steps
ETITLE: TS BOND ANGLE DIHED IMPRP ELECT VDW BOUNDARY MISC KINETIC TOTAL TEMP POTENTIAL TOTAL3 TEMPAVG PRESSURE GPRESSURE VOLUME PRESSAVG GPRESSAVG
ENERGY: 325000 5.1877 3.9834 4.0592 0.0000 -20706.6180 2814.4944 0.0000 0.0000 2939.5476 -14939.3456 269.4686 -17878.8932 -14934.2820 269.4686 -323.7901 -228.9496 55343.5565 -323.7901 -228.9496
ENERGY: 525000 5.7756 6.4610 8.0446 0.0000 -19713.3890 2551.9327 0.0000 0.0000 3263.9641 -13877.2110 299.2078 -17141.1751 -13870.3878 298.4045 -304.6942 -218.3913 56529.2617 -1.0987 -1.1846
ENERGY: 725000 3.9810 4.1483 4.7156 0.0000 -19899.3877 2671.0664 0.0000 0.0000 3248.2724 -13967.2039 297.7694 -17215.4764 -13960.7785 297.9122 -159.0993 -104.0068 56467.8610 0.6832 0.6723
ENERGY: 925000 9.7970 3.3294 8.4806 0.0000 -19949.2617 2733.4388 0.0000 0.0000 3256.6926 -13937.5233 298.5413 -17194.2159 -13934.0826 299.7185 209.9815 290.9584 55959.7460 2.1240 1.8336
ENERGY: 1125000 5.2294 6.5907 7.3904 0.0000 -19842.7515 2704.0055 0.0000 0.0000 3286.7515 -13832.7840 301.2968 -17119.5355 -13826.0738 303.1046 333.4738 371.0067 56149.2595 5.8379 5.8214
ENERGY: 1325000 6.5535 4.7223 3.3477 0.0000 -19856.0488 2712.3970 0.0000 0.0000 3350.3840 -13778.6443 307.1300 -17129.0283 -13770.8821 299.1651 282.3991 352.6855 56386.7290 0.6820 0.6963
TCL: Exiting due to exit command.
