Info: SIMULATION PARAMETERS:
Info: TIMESTEP               2
Info: NUMBER OF STEPS        0
Info: STEPS PER CYCLE        10
Info: PERIODIC CELL BASIS 1  39.512 0 0
Info: PERIODIC CELL BASIS 2  0 39.303 0
Info: PERIODIC CELL BASIS 3  0 0 39.561
Info: PERIODIC CELL CENTER   0 0 0
Info: WRAPPING WATERS AROUND PERIODIC BOUNDARIES ON OUTPUT.
Info: WRAPPING ALL CLUSTERS AROUND PERIODIC BOUNDARIES ON OUTPUT.
Info: FIRST LDB TIMESTEP     50
Info: LAST LDB TIMESTEP     -1
Info: HOM BACKGROUND SCALING 1
Info: PME BACKGROUND SCALING 1
Info: MIN ATOMS PER PATCH    40
Info: EMPTY PATCH LOAD       40 ATOMS
Info: INITIAL TEMPERATURE    300
Info: CENTER OF MASS MOVING INITIALLY? NO
Info: DIELECTRIC             1
Info: EXCLUDE                SCALED ONE-FOUR
Info: 1-4 ELECTROSTATICS SCALED BY 0.833333
Info: MODIFIED 1-4 VDW PARAMETERS WILL BE USED
Info: DCD FILENAME           mobley_1708457_min.dcd
Info: DCD FREQUENCY          5000
Info: DCD FIRST STEP         5000
Info: DCD FILE WILL CONTAIN UNIT CELL DATA
Info: XST FILENAME           mobley_1708457_min.xst
Info: XST FREQUENCY          5000
Info: NO VELOCITY DCD OUTPUT
Info: NO FORCE DCD OUTPUT
Info: OUTPUT FILENAME        mobley_1708457_min
Info: BINARY OUTPUT FILES WILL BE USED
Info: RESTART FILENAME       mobley_1708457_min.restart
Info: RESTART FREQUENCY      5000
Info: BINARY RESTART FILES WILL BE USED
Info: CUTOFF                 9
Info: PAIRLIST DISTANCE      11
Info: PAIRLIST SHRINK RATE   0.01
Info: PAIRLIST GROW RATE     0.01
Info: PAIRLIST TRIGGER       0.3
Info: PAIRLISTS PER CYCLE    2
Info: PAIRLISTS ENABLED
Info: MARGIN                 8
Info: HYDROGEN GROUP CUTOFF  2.5
Info: PATCH DIMENSION        21.5
Info: ENERGY OUTPUT STEPS    5000
Info: ENERGY EVALUATION STEPS    5000
Info: OUTPUT ENERGY PRECISION 4
Info: CROSSTERM ENERGY INCLUDED IN DIHEDRAL
Info: TIMING OUTPUT STEPS    50000
Info: PRESSURE OUTPUT STEPS  5000
Info: LANGEVIN DYNAMICS ACTIVE
Info: LANGEVIN TEMPERATURE   300
Info: LANGEVIN USING BBK INTEGRATOR
Info: LANGEVIN DAMPING COEFFICIENT IS 1 INVERSE PS
Info: LANGEVIN DYNAMICS APPLIED TO HYDROGENS
Info: LANGEVIN PISTON PRESSURE CONTROL ACTIVE
Info:        TARGET PRESSURE IS 1.01325 BAR
Info:     OSCILLATION PERIOD IS 50 FS
Info:             DECAY TIME IS 25 FS
Info:     PISTON TEMPERATURE IS 300 K
Info:       PRESSURE CONTROL IS GROUP-BASED
Info:    INITIAL STRAIN RATE IS 0 0 0
Info:       CELL FLUCTUATION IS ISOTROPIC
Info: PARTICLE MESH EWALD (PME) ACTIVE
Info: PME TOLERANCE               1e-06
Info: PME EWALD COEFFICIENT       0.348832
Info: PME INTERPOLATION ORDER     4
Info: PME GRID DIMENSIONS         40 40 40
Info: PME MAXIMUM GRID SPACING    1
Info: FULL ELECTROSTATIC EVALUATION FREQUENCY      2
Info: USING VERLET I (r-RESPA) MTS SCHEME.
Info: C1 SPLITTING OF LONG RANGE ELECTROSTATICS
Info: PLACING ATOMS IN PATCHES BY HYDROGEN GROUPS
Info: RIGID BONDS TO HYDROGEN : ALL
Info:         ERROR TOLERANCE : 1e-08
Info:          MAX ITERATIONS : 100
Info: RIGID WATER USING SETTLE ALGORITHM
Info: RANDOM NUMBER SEED     1741317593
Info: USE HYDROGEN BONDS?    NO
Info: Using AMBER format force field!
Info: AMBER PARM FILE        mobley_1708457.prmtop
Info: COORDINATE PDB         mobley_1708457.pdb
Info: Exclusions will be read from PARM file!
Info: SCNB (VDW SCALING)     2
Info: USING ARITHMETIC MEAN TO COMBINE L-J SIGMA PARAMETERS
Info: SUMMARY OF PARAMETERS:
Info: 5 BONDS
Info: 5 ANGLES
Info:   5 HARMONIC
Info:   0 COSINE-BASED
Info: 2 DIHEDRAL
Info: 0 IMPROPER
Info: 0 CROSSTERM
Info: 0 VDW
Info: 21 VDW_PAIRS
Info: 0 NBTHOLE_PAIRS
Info: STRUCTURE SUMMARY:
Info: 4436 ATOMS
Info: 4435 BONDS
Info: 18 ANGLES
Info: 18 DIHEDRALS
Info: 0 IMPROPERS
Info: 0 CROSSTERMS
Info: 4471 EXCLUSIONS
Info: 4431 RIGID BONDS
Info: 8877 DEGREES OF FREEDOM
Info: 1480 HYDROGEN GROUPS
Info: 4 ATOMS IN LARGEST HYDROGEN GROUP
Info: 1480 MIGRATION GROUPS
Info: 4 ATOMS IN LARGEST MIGRATION GROUP
Info: TOTAL MASS = 26667.7 amu
Info: TOTAL CHARGE = -0.000100002 e
Info: MASS DENSITY = 0.720814 g/cm^3
Info: ATOM DENSITY = 0.0722054 atoms/A^3
Info: ADDED 0 IMPLICIT EXCLUSIONS
Info: NONBONDED TABLE R-SQUARED SPACING: 0.0625
Info: NONBONDED TABLE SIZE: 705 POINTS
Info: REMOVING COM VELOCITY 0.0351122 0.00851296 -0.117929
TCL: Minimizing for 2000 steps
ETITLE: TS BOND ANGLE DIHED IMPRP ELECT VDW BOUNDARY MISC KINETIC TOTAL TEMP POTENTIAL TOTAL3 TEMPAVG PRESSURE GPRESSURE VOLUME PRESSAVG GPRESSAVG
ENERGY: 0 0.8708 0.6436 0.1310 0.0000 -13858.3080 1597.6348 0.0000 0.0000 0.0000 -12259.0278 0.0000 -12259.0278 -12259.0278 0.0000 11162.4772 -15611.4632 61435.8647 11162.4772 -15611.4632
ENERGY: 400 3.0670 2.2938 0.1382 0.0000 -18480.6044 2594.0083 0.0000 0.0000 0.0000 -15881.0972 0.0000 -15881.0972 -15881.0972 0.0000 15115.2822 15236.5741 61435.8647 15115.2822 15236.5741
ENERGY: 800 15.2065 3.2048 0.1399 0.0000 -19617.9210 3152.7994 0.0000 0.0000 0.0000 -16446.5703 0.0000 -16446.5703 -16446.5703 0.0000 17960.8769 18054.9124 61435.8647 17960.8769 18054.9124
ENERGY: 1200 0.9674 0.8753 0.0722 0.0000 -20057.0868 3340.8886 0.0000 0.0000 0.0000 -16714.2833 0.0000 -16714.2833 -16714.2833 0.0000 18971.2799 19069.1006 61435.8647 18971.2799 19069.1006
ENERGY: 1600 0.5644 0.8621 0.0981 0.0000 -20224.5024 3393.5987 0.0000 0.0000 0.0000 -16829.3791 0.0000 -16829.3791 -16829.3791 0.0000 19271.5329 19367.1387 61435.8647 19271.5329 19367.1387
ENERGY: 2000 0.8202 0.7377 0.2140 0.0000 -20392.8846 3484.3900 0.0000 0.0000 0.0000 -16906.7227 0.0000 -16906.7227 -16906.7227 0.0000 19763.3303 19846.9471 61435.8647 19763.3303 19846.9471
TCL: Exiting due to exit command.
Info: NAMD 3.0.1 for Linux-x86_64-multicore
Info: Please visit http://www.ks.uiuc.edu/Research/namd/
Info: for updates, documentation, and support information.
Info: Please cite Phillips et al., J. Chem. Phys. 153:044130 (2020) doi:10.1063/5.0014475
Info: in all publications reporting results obtained with NAMD.
Info: Based on Charm++/Converse 80000 for multicore-linux-x86_64-gcc
Info: Built Mon Oct 14 11:11:06 CDT 2024 by dhardy on athine.ks.uiuc.edu
Info: 1 NAMD  3.0.1  Linux-x86_64-multicore  16    k016  z5358697
Info: Running on 16 processors, 1 nodes, 1 physical nodes.
Info: CPU topology information available.
Info: Charm++/Converse parallel runtime startup completed at 0.0106148 s
Info: 1043.45 MB of memory in use based on /proc/self/stat
Info: Configuration file is mobley_1708457_equil.namd
Info: Working in the current directory /srv/scratch/z5358697/prod_prep/1708457
TCL: Running 25000 steps at 30 kelvin.
TCL: Suspending until startup complete.
Info: SIMULATION PARAMETERS:
Info: TIMESTEP               2
Info: NUMBER OF STEPS        0
Info: STEPS PER CYCLE        10
Info: PERIODIC CELL BASIS 1  39.512 0 0
Info: PERIODIC CELL BASIS 2  0 39.303 0
Info: PERIODIC CELL BASIS 3  0 0 39.561
Info: PERIODIC CELL CENTER   0 0 0
Info: WRAPPING WATERS AROUND PERIODIC BOUNDARIES ON OUTPUT.
Info: WRAPPING ALL CLUSTERS AROUND PERIODIC BOUNDARIES ON OUTPUT.
Info: FIRST LDB TIMESTEP     50
Info: LAST LDB TIMESTEP     -1
Info: HOM BACKGROUND SCALING 1
Info: PME BACKGROUND SCALING 1
Info: MIN ATOMS PER PATCH    40
Info: EMPTY PATCH LOAD       40 ATOMS
Info: INITIAL TEMPERATURE    300
Info: CENTER OF MASS MOVING INITIALLY? NO
Info: DIELECTRIC             1
Info: EXCLUDE                SCALED ONE-FOUR
Info: 1-4 ELECTROSTATICS SCALED BY 0.833333
Info: MODIFIED 1-4 VDW PARAMETERS WILL BE USED
Info: DCD FILENAME           mobley_1708457_equil.dcd
Info: DCD FREQUENCY          5000
Info: DCD FIRST STEP         5000
Info: DCD FILE WILL CONTAIN UNIT CELL DATA
Info: XST FILENAME           mobley_1708457_equil.xst
Info: XST FREQUENCY          5000
Info: NO VELOCITY DCD OUTPUT
Info: NO FORCE DCD OUTPUT
Info: OUTPUT FILENAME        mobley_1708457_equil
Info: BINARY OUTPUT FILES WILL BE USED
Info: RESTART FILENAME       mobley_1708457_equil.restart
Info: RESTART FREQUENCY      5000
Info: BINARY RESTART FILES WILL BE USED
Info: CUTOFF                 9
Info: PAIRLIST DISTANCE      11
Info: PAIRLIST SHRINK RATE   0.01
Info: PAIRLIST GROW RATE     0.01
Info: PAIRLIST TRIGGER       0.3
Info: PAIRLISTS PER CYCLE    2
Info: PAIRLISTS ENABLED
Info: MARGIN                 8
Info: HYDROGEN GROUP CUTOFF  2.5
Info: PATCH DIMENSION        21.5
Info: ENERGY OUTPUT STEPS    5000
Info: ENERGY EVALUATION STEPS    5000
Info: OUTPUT ENERGY PRECISION 4
Info: CROSSTERM ENERGY INCLUDED IN DIHEDRAL
Info: TIMING OUTPUT STEPS    50000
Info: PRESSURE OUTPUT STEPS  5000
Info: LANGEVIN DYNAMICS ACTIVE
Info: LANGEVIN TEMPERATURE   30
Info: LANGEVIN USING BBK INTEGRATOR
Info: LANGEVIN DAMPING COEFFICIENT IS 1 INVERSE PS
Info: LANGEVIN DYNAMICS APPLIED TO HYDROGENS
Info: LANGEVIN PISTON PRESSURE CONTROL ACTIVE
Info:        TARGET PRESSURE IS 1.01325 BAR
Info:     OSCILLATION PERIOD IS 50 FS
Info:             DECAY TIME IS 25 FS
Info:     PISTON TEMPERATURE IS 300 K
Info:       PRESSURE CONTROL IS GROUP-BASED
Info:    INITIAL STRAIN RATE IS 0 0 0
Info:       CELL FLUCTUATION IS ISOTROPIC
Info: PARTICLE MESH EWALD (PME) ACTIVE
Info: PME TOLERANCE               1e-06
Info: PME EWALD COEFFICIENT       0.348832
Info: PME INTERPOLATION ORDER     4
Info: PME GRID DIMENSIONS         40 40 40
Info: PME MAXIMUM GRID SPACING    1
Info: FULL ELECTROSTATIC EVALUATION FREQUENCY      2
Info: USING VERLET I (r-RESPA) MTS SCHEME.
Info: C1 SPLITTING OF LONG RANGE ELECTROSTATICS
Info: PLACING ATOMS IN PATCHES BY HYDROGEN GROUPS
Info: RIGID BONDS TO HYDROGEN : ALL
Info:         ERROR TOLERANCE : 1e-08
Info:          MAX ITERATIONS : 100
Info: RIGID WATER USING SETTLE ALGORITHM
Info: RANDOM NUMBER SEED     1741317610
Info: USE HYDROGEN BONDS?    NO
Info: Using AMBER format force field!
Info: AMBER PARM FILE        mobley_1708457.prmtop
Info: COORDINATE PDB         mobley_1708457.pdb
Info: Exclusions will be read from PARM file!
Info: SCNB (VDW SCALING)     2
Info: USING ARITHMETIC MEAN TO COMBINE L-J SIGMA PARAMETERS
Info: BINARY COORDINATES     mobley_1708457_min.coor
Info: SUMMARY OF PARAMETERS:
Info: 5 BONDS
Info: 5 ANGLES
Info:   5 HARMONIC
Info:   0 COSINE-BASED
Info: 2 DIHEDRAL
Info: 0 IMPROPER
Info: 0 CROSSTERM
Info: 0 VDW
Info: 21 VDW_PAIRS
Info: 0 NBTHOLE_PAIRS
Info: STRUCTURE SUMMARY:
Info: 4436 ATOMS
Info: 4435 BONDS
Info: 18 ANGLES
Info: 18 DIHEDRALS
Info: 0 IMPROPERS
Info: 0 CROSSTERMS
Info: 4471 EXCLUSIONS
Info: 4431 RIGID BONDS
Info: 8877 DEGREES OF FREEDOM
Info: 1480 HYDROGEN GROUPS
Info: 4 ATOMS IN LARGEST HYDROGEN GROUP
Info: 1480 MIGRATION GROUPS
Info: 4 ATOMS IN LARGEST MIGRATION GROUP
Info: TOTAL MASS = 26667.7 amu
Info: TOTAL CHARGE = -0.000100002 e
Info: MASS DENSITY = 0.720814 g/cm^3
Info: ATOM DENSITY = 0.0722054 atoms/A^3
Info: ADDED 0 IMPLICIT EXCLUSIONS
Info: NONBONDED TABLE R-SQUARED SPACING: 0.0625
Info: NONBONDED TABLE SIZE: 705 POINTS
Info: REMOVING COM VELOCITY -0.0555315 -0.0520585 0.117129
TCL: Running for 25000 steps
ETITLE: TS BOND ANGLE DIHED IMPRP ELECT VDW BOUNDARY MISC KINETIC TOTAL TEMP POTENTIAL TOTAL3 TEMPAVG PRESSURE GPRESSURE VOLUME PRESSAVG GPRESSAVG
ENERGY: 0 0.8202 0.7377 0.2140 0.0000 -20392.8846 3484.3900 0.0000 0.0000 2632.9711 -14273.7516 298.5178 -16906.7227 -14273.2370 298.5178 6.5529 44.1460 61435.8647 6.5529 44.1460
ENERGY: 5000 0.3819 1.0042 0.3248 0.0000 -21388.9271 3677.0700 0.0000 0.0000 264.6977 -17445.4484 30.0106 -17710.1462 -17444.7653 47.8145 -403.5037 -361.8624 44043.1716 3.7292 3.7149
ENERGY: 10000 0.6490 1.1468 0.5705 0.0000 -21476.7887 3710.6468 0.0000 0.0000 275.7581 -17488.0175 31.2646 -17763.7756 -17487.1592 30.2441 -305.7778 -263.4266 43911.3445 5.7296 5.8585
ENERGY: 15000 1.1954 0.8049 0.3212 0.0000 -21394.1349 3622.7010 0.0000 0.0000 267.2947 -17501.8177 30.3050 -17769.1124 -17501.0802 30.0348 -760.2533 -716.4314 43928.9660 1.8374 1.8348
ENERGY: 20000 0.8957 1.5777 0.2885 0.0000 -21410.6512 3626.7092 0.0000 0.0000 271.2874 -17509.8927 30.7577 -17781.1802 -17509.1841 30.2220 -762.5690 -727.4958 43903.2969 1.0377 1.0618
ENERGY: 25000 0.5326 0.9771 0.1637 0.0000 -21482.2518 3691.1397 0.0000 0.0000 260.4673 -17528.9714 29.5309 -17789.4387 -17528.0256 30.0231 -443.4152 -403.3191 43772.2671 1.4489 1.4030
TCL: Running 25000 steps at 60 kelvin.
TCL: Setting parameter langevinTemp to 60
TCL: Running for 25000 steps
ETITLE: TS BOND ANGLE DIHED IMPRP ELECT VDW BOUNDARY MISC KINETIC TOTAL TEMP POTENTIAL TOTAL3 TEMPAVG PRESSURE GPRESSURE VOLUME PRESSAVG GPRESSAVG
ENERGY: 25000 0.5326 0.9771 0.1637 0.0000 -21482.2518 3691.1397 0.0000 0.0000 260.3354 -17529.1033 29.5160 -17789.4387 -17528.5137 29.5160 -455.5149 -403.2099 43772.2671 -455.5149 -403.2099
ENERGY: 30000 0.6679 2.2117 0.2590 0.0000 -21184.5515 3630.5327 0.0000 0.0000 530.0885 -17020.7917 60.0997 -17550.8802 -17019.8225 57.0434 -44.6227 -6.7664 43742.8334 3.7415 4.3182
ENERGY: 35000 0.5132 2.1159 0.2173 0.0000 -21155.1603 3589.3613 0.0000 0.0000 528.5274 -17034.4252 59.9227 -17562.9526 -17032.4209 59.9606 -437.3825 -392.0681 43946.8075 -3.2816 -3.3114
ENERGY: 40000 0.2156 1.8260 0.1929 0.0000 -21106.6015 3523.0306 0.0000 0.0000 530.4048 -17050.9317 60.1356 -17581.3366 -17048.7367 59.6107 -843.3743 -786.5141 43916.7453 2.4257 2.1550
ENERGY: 45000 1.1555 1.2932 0.2038 0.0000 -21376.6221 3771.9764 0.0000 0.0000 515.3463 -17086.6468 58.4283 -17601.9931 -17084.7450 59.8710 569.3127 627.6813 43472.4144 0.1329 0.0370
ENERGY: 50000 0.8390 1.6627 0.6609 0.0000 -21397.6363 3774.1929 0.0000 0.0000 536.2208 -17084.0600 60.7950 -17620.2808 -17082.4644 59.8264 563.8360 620.8759 43482.0628 2.1279 2.1687
TCL: Running 25000 steps at 90 kelvin.
TCL: Setting parameter langevinTemp to 90
TCL: Running for 25000 steps
ETITLE: TS BOND ANGLE DIHED IMPRP ELECT VDW BOUNDARY MISC KINETIC TOTAL TEMP POTENTIAL TOTAL3 TEMPAVG PRESSURE GPRESSURE VOLUME PRESSAVG GPRESSAVG
ENERGY: 50000 0.8390 1.6627 0.6609 0.0000 -21397.6363 3774.1929 0.0000 0.0000 535.9572 -17084.3236 60.7651 -17620.2808 -17083.2182 60.7651 571.4143 620.9896 43482.0628 571.4143 620.9896
ENERGY: 55000 0.6230 1.4678 0.1588 0.0000 -20708.6146 3381.9297 0.0000 0.0000 795.3541 -16529.0812 90.1747 -17324.4353 -16527.7681 87.2930 -887.7963 -866.6736 44102.5559 5.0576 5.1102
ENERGY: 60000 1.8047 2.9047 0.2248 0.0000 -20869.2382 3488.0587 0.0000 0.0000 802.4758 -16573.7695 90.9821 -17376.2453 -16571.3531 89.9958 -482.5338 -428.9272 43985.5784 2.6147 2.4171
ENERGY: 65000 0.8978 2.4556 0.7126 0.0000 -20943.8504 3578.6811 0.0000 0.0000 820.2322 -16540.8711 92.9953 -17361.1033 -16539.0661 90.3406 37.5095 82.3886 43965.0745 4.3787 4.4679
ENERGY: 70000 0.4405 2.4001 0.1812 0.0000 -20933.7199 3539.5621 0.0000 0.0000 797.4175 -16593.7186 90.4086 -17391.1360 -16592.3486 90.1515 -209.0499 -173.4689 43685.8100 3.2251 3.1626
ENERGY: 75000 0.9766 1.5190 0.1520 0.0000 -21002.8341 3582.6071 0.0000 0.0000 792.8758 -16624.7036 89.8937 -17417.5794 -16623.3480 90.7900 140.2618 192.8765 43387.2036 5.1036 5.5249
TCL: Running 25000 steps at 120 kelvin.
TCL: Setting parameter langevinTemp to 120
TCL: Running for 25000 steps
ETITLE: TS BOND ANGLE DIHED IMPRP ELECT VDW BOUNDARY MISC KINETIC TOTAL TEMP POTENTIAL TOTAL3 TEMPAVG PRESSURE GPRESSURE VOLUME PRESSAVG GPRESSAVG
ENERGY: 75000 0.9766 1.5190 0.1520 0.0000 -21002.8341 3582.6071 0.0000 0.0000 792.4810 -16625.0984 89.8490 -17417.5794 -16623.4740 89.8490 144.2610 193.0220 43387.2036 144.2610 193.0220
ENERGY: 80000 0.6051 2.9934 0.2937 0.0000 -20523.9623 3404.2765 0.0000 0.0000 1064.6099 -16051.1836 120.7021 -17115.7936 -16049.1073 117.2742 -217.3221 -191.7152 43836.0040 5.5534 5.7717
ENERGY: 85000 0.8044 1.4335 0.2679 0.0000 -20666.7460 3501.0326 0.0000 0.0000 1040.6286 -16122.5790 117.9831 -17163.2075 -16119.5248 119.3005 269.9828 354.1323 43600.0082 -3.7935 -3.5795
ENERGY: 90000 0.6395 2.0644 0.2297 0.0000 -20721.9393 3516.7669 0.0000 0.0000 1056.5818 -16145.6569 119.7919 -17202.2386 -16143.0950 119.5815 317.1264 379.9338 43298.6125 4.8114 4.7347
ENERGY: 95000 0.0830 1.1696 0.0776 0.0000 -20556.7817 3353.1244 0.0000 0.0000 1069.2711 -16133.0561 121.2305 -17202.3272 -16130.6536 119.8069 -647.7730 -610.0820 43735.5074 0.3844 0.5582
ENERGY: 100000 1.3570 2.3682 0.2996 0.0000 -20752.2142 3552.5965 0.0000 0.0000 1064.5548 -16131.0381 120.6958 -17195.5929 -16128.4937 120.3923 452.6656 497.4517 43384.6155 5.9553 6.0006
TCL: Running 25000 steps at 150 kelvin.
TCL: Setting parameter langevinTemp to 150
TCL: Running for 25000 steps
ETITLE: TS BOND ANGLE DIHED IMPRP ELECT VDW BOUNDARY MISC KINETIC TOTAL TEMP POTENTIAL TOTAL3 TEMPAVG PRESSURE GPRESSURE VOLUME PRESSAVG GPRESSAVG
ENERGY: 100000 1.3570 2.3682 0.2996 0.0000 -20752.2142 3552.5965 0.0000 0.0000 1064.0445 -16131.5483 120.6380 -17195.5929 -16129.5921 120.6380 446.9872 497.6362 43384.6155 446.9872 497.6362
ENERGY: 105000 0.7686 2.4561 0.5559 0.0000 -20252.0469 3321.5386 0.0000 0.0000 1298.4979 -15628.2298 147.2195 -16926.7277 -15625.4766 145.1627 -200.4774 -138.9984 43805.6887 5.6925 5.4492
ENERGY: 110000 2.3526 2.8120 0.0979 0.0000 -20219.8935 3311.6071 0.0000 0.0000 1300.4241 -15602.5998 147.4379 -16903.0239 -15599.3053 149.6025 -203.1315 -140.6608 43738.1926 2.3809 2.0769
ENERGY: 115000 1.4537 3.8278 0.7461 0.0000 -20247.9945 3311.4641 0.0000 0.0000 1334.6229 -15595.8798 151.3153 -16930.5028 -15592.2029 150.7601 -109.2323 -66.0811 43357.3279 1.3294 1.5845
ENERGY: 120000 0.7798 3.0836 0.2554 0.0000 -20334.9716 3343.4838 0.0000 0.0000 1327.0527 -15660.3162 150.4570 -16987.3689 -15657.3564 149.7234 -178.9875 -109.5906 43432.7563 1.8274 1.9596
ENERGY: 125000 1.2708 3.4150 0.2862 0.0000 -20318.8014 3323.3158 0.0000 0.0000 1326.5351 -15663.9784 150.3983 -16990.5135 -15661.9706 148.8683 -271.7954 -200.0495 43564.0907 -3.2753 -2.4643
TCL: Running 50000 steps at 180 kelvin.
TCL: Setting parameter langevinTemp to 180
TCL: Running for 50000 steps
ETITLE: TS BOND ANGLE DIHED IMPRP ELECT VDW BOUNDARY MISC KINETIC TOTAL TEMP POTENTIAL TOTAL3 TEMPAVG PRESSURE GPRESSURE VOLUME PRESSAVG GPRESSAVG
ENERGY: 125000 1.2708 3.4150 0.2862 0.0000 -20318.8014 3323.3158 0.0000 0.0000 1325.8640 -15664.6496 150.3222 -16990.5135 -15662.2792 150.3222 -250.5372 -200.4769 43564.0907 -250.5372 -200.4769
ENERGY: 135000 0.7653 3.6606 0.2262 0.0000 -19778.1516 3150.5514 0.0000 0.0000 1620.0445 -15002.9037 183.6754 -16622.9481 -14999.8974 180.7696 -315.6935 -265.3454 43975.6628 0.8813 0.7329
ENERGY: 145000 1.8130 2.2974 0.4796 0.0000 -19870.1681 3267.4235 0.0000 0.0000 1597.3501 -15000.8045 181.1024 -16598.1546 -14996.8208 179.7689 290.6400 349.8656 43751.1951 6.8201 7.0355
ENERGY: 155000 0.3408 2.2287 0.2579 0.0000 -19766.4829 3202.8894 0.0000 0.0000 1598.8725 -14961.8936 181.2750 -16560.7661 -14958.0091 180.9228 105.1839 191.7549 43575.4693 -1.0018 -0.5889
ENERGY: 165000 0.4177 2.4194 0.7865 0.0000 -19878.0310 3180.8288 0.0000 0.0000 1573.3987 -15120.1799 178.3869 -16693.5786 -15116.3393 179.7536 -344.8021 -242.8659 43668.6070 1.4053 1.9169
ENERGY: 175000 2.0208 2.1495 0.6304 0.0000 -19783.9728 3109.7696 0.0000 0.0000 1596.2540 -15073.1485 180.9782 -16669.4025 -15068.4495 179.6121 -709.1857 -644.2861 43700.0984 3.3343 3.5448
TCL: Running 50000 steps at 210 kelvin.
TCL: Setting parameter langevinTemp to 210
TCL: Running for 50000 steps
ETITLE: TS BOND ANGLE DIHED IMPRP ELECT VDW BOUNDARY MISC KINETIC TOTAL TEMP POTENTIAL TOTAL3 TEMPAVG PRESSURE GPRESSURE VOLUME PRESSAVG GPRESSAVG
ENERGY: 175000 2.0208 2.1495 0.6304 0.0000 -19783.9728 3109.7696 0.0000 0.0000 1595.4634 -15073.9391 180.8885 -16669.4025 -15070.3881 180.8885 -710.6336 -643.6986 43700.0984 -710.6336 -643.6986
ENERGY: 185000 1.7702 2.4786 1.0506 0.0000 -18993.4372 3061.5526 0.0000 0.0000 1803.4932 -14123.0920 204.4743 -15926.5852 -14120.5896 208.2517 1032.5578 1132.9362 43015.8149 2.4773 2.8053
ENERGY: 195000 0.3229 4.4260 0.3529 0.0000 -18820.0302 2922.0223 0.0000 0.0000 1819.4159 -14073.4903 206.2795 -15892.9061 -14068.0389 210.0254 342.0274 445.4681 43175.6205 1.3851 1.6211
ENERGY: 205000 1.3072 4.8469 0.2580 0.0000 -18824.4443 2930.5072 0.0000 0.0000 1828.4846 -14059.0404 207.3077 -15887.5250 -14057.9745 209.8255 742.1659 816.9418 42600.8785 5.1134 5.3565
ENERGY: 215000 1.5537 3.4480 0.1670 0.0000 -18795.7988 2880.2233 0.0000 0.0000 1882.7527 -14027.6541 213.4605 -15910.4068 -14024.1453 209.3257 32.4623 136.2639 43575.9060 8.4732 8.3824
ENERGY: 225000 2.4391 4.8580 0.7345 0.0000 -18837.3216 2899.0803 0.0000 0.0000 1881.6791 -14048.5305 213.3387 -15930.2096 -14042.3908 210.6692 356.0589 419.4330 42768.8214 2.0618 1.6377
TCL: Running 50000 steps at 240 kelvin.
TCL: Setting parameter langevinTemp to 240
TCL: Running for 50000 steps
ETITLE: TS BOND ANGLE DIHED IMPRP ELECT VDW BOUNDARY MISC KINETIC TOTAL TEMP POTENTIAL TOTAL3 TEMPAVG PRESSURE GPRESSURE VOLUME PRESSAVG GPRESSAVG
ENERGY: 225000 2.4391 4.8580 0.7345 0.0000 -18837.3216 2899.0803 0.0000 0.0000 1880.7571 -14049.4526 213.2342 -15930.2096 -14046.8390 213.2342 344.6420 421.7103 42768.8214 344.6420 421.7103
ENERGY: 235000 0.5041 3.0692 1.2409 0.0000 -17953.8396 2652.1205 0.0000 0.0000 2177.9777 -13118.9271 246.9321 -15296.9048 -13116.6194 239.7959 486.9461 584.7913 43202.5083 4.9882 4.9555
ENERGY: 245000 1.4820 9.5596 0.2120 0.0000 -17965.6487 2632.7691 0.0000 0.0000 2104.3454 -13217.2806 238.5839 -15321.6260 -13212.8224 241.0492 -0.3049 150.3127 43832.8402 0.5063 0.3556
ENERGY: 255000 2.3788 3.3340 0.9975 0.0000 -17988.8942 2603.0328 0.0000 0.0000 2046.4011 -13332.7499 232.0144 -15379.1510 -13328.4047 238.9848 -104.4527 12.3308 43515.0743 2.3417 2.4790
ENERGY: 265000 2.1080 4.0122 1.2773 0.0000 -18006.2319 2681.3486 0.0000 0.0000 2085.6587 -13231.8271 236.4653 -15317.4858 -13227.8803 238.8273 342.3122 427.7866 43820.0861 3.2104 3.6737
ENERGY: 275000 2.3228 2.9046 1.7451 0.0000 -17852.0616 2584.2788 0.0000 0.0000 2145.4938 -13115.3164 243.2492 -15260.8102 -13111.3940 239.0782 60.1414 179.7084 43431.9375 3.7190 3.1636
TCL: Running 50000 steps at 270 kelvin.
TCL: Setting parameter langevinTemp to 270
TCL: Running for 50000 steps
ETITLE: TS BOND ANGLE DIHED IMPRP ELECT VDW BOUNDARY MISC KINETIC TOTAL TEMP POTENTIAL TOTAL3 TEMPAVG PRESSURE GPRESSURE VOLUME PRESSAVG GPRESSAVG
ENERGY: 275000 2.3228 2.9046 1.7451 0.0000 -17852.0616 2584.2788 0.0000 0.0000 2144.4418 -13116.3685 243.1299 -15260.8102 -13112.7291 243.1299 90.8247 178.3163 43431.9375 90.8247 178.3163
ENERGY: 285000 1.0135 5.7694 1.2971 0.0000 -17001.8948 2368.4499 0.0000 0.0000 2344.6601 -12280.7048 265.8300 -14625.3649 -12275.1197 269.7903 129.8434 226.2251 44311.6314 3.6922 4.1310
ENERGY: 295000 2.1632 4.4205 0.2845 0.0000 -16937.3908 2308.6454 0.0000 0.0000 2384.5768 -12237.3004 270.3557 -14621.8772 -12232.0996 270.1952 -46.8562 4.7658 44141.9735 -0.8208 -0.2584
ENERGY: 305000 1.3085 7.9669 2.3589 0.0000 -17198.8743 2496.6637 0.0000 0.0000 2324.8910 -12365.6854 263.5887 -14690.5764 -12362.2232 270.4347 844.3869 900.1700 43659.1030 0.5563 1.0223
ENERGY: 315000 0.3456 3.4100 0.8319 0.0000 -16877.7556 2257.2097 0.0000 0.0000 2402.7597 -12213.1987 272.4172 -14615.9584 -12205.9300 269.2378 -640.7933 -549.5087 44725.4966 -2.9846 -3.4158
ENERGY: 325000 0.1136 3.7803 0.7870 0.0000 -16807.7237 2212.7482 0.0000 0.0000 2365.4374 -12224.8572 268.1857 -14590.2946 -12220.6604 271.8651 -911.0812 -786.4935 45064.9994 -2.9464 -2.5869
TCL: Running 1000000 steps at 300 kelvin.
TCL: Setting parameter langevinTemp to 300
TCL: Running for 1000000 steps
ETITLE: TS BOND ANGLE DIHED IMPRP ELECT VDW BOUNDARY MISC KINETIC TOTAL TEMP POTENTIAL TOTAL3 TEMPAVG PRESSURE GPRESSURE VOLUME PRESSAVG GPRESSAVG
ENERGY: 325000 0.1136 3.7803 0.7870 0.0000 -16807.7237 2212.7482 0.0000 0.0000 2364.2174 -12226.0772 268.0474 -14590.2946 -12222.0854 268.0474 -865.9754 -786.7540 45064.9994 -865.9754 -786.7540
ENERGY: 525000 1.3652 5.9035 0.4138 0.0000 -16133.0367 2128.4981 0.0000 0.0000 2656.9337 -11339.9224 301.2346 -13996.8561 -11336.5840 302.4568 -112.4438 -6.3660 45618.9355 -0.2827 -0.6369
ENERGY: 725000 1.2992 4.7243 0.1741 0.0000 -16029.5666 1979.8163 0.0000 0.0000 2620.7522 -11422.8006 297.1325 -14043.5528 -11418.2747 298.8659 -924.9422 -891.7476 46093.3078 6.0939 5.6437
ENERGY: 925000 2.0647 3.7791 0.1915 0.0000 -16340.5305 2245.5792 0.0000 0.0000 2658.3978 -11430.5182 301.4006 -14088.9160 -11425.9410 299.4233 268.8809 381.0616 45977.0616 7.2413 7.0515
ENERGY: 1125000 0.8628 3.7692 0.3539 0.0000 -16228.9333 2178.5359 0.0000 0.0000 2635.0307 -11410.3808 298.7513 -14045.4115 -11406.8843 300.7861 71.0749 177.1110 45544.3629 4.0453 4.3599
ENERGY: 1325000 1.5696 4.6846 0.1553 0.0000 -16189.8662 2097.1821 0.0000 0.0000 2578.8256 -11507.4490 292.3790 -14086.2746 -11502.9156 298.9296 -549.3063 -451.5503 45947.6501 6.3729 6.4704
TCL: Exiting due to exit command.
