Info: SIMULATION PARAMETERS:
Info: TIMESTEP               2
Info: NUMBER OF STEPS        0
Info: STEPS PER CYCLE        10
Info: PERIODIC CELL BASIS 1  31.0655 0 0
Info: PERIODIC CELL BASIS 2  0 30.4209 0
Info: PERIODIC CELL BASIS 3  0 0 32.1426
Info: PERIODIC CELL CENTER   0 0 0
Info: WRAPPING WATERS AROUND PERIODIC BOUNDARIES ON OUTPUT.
Info: WRAPPING ALL CLUSTERS AROUND PERIODIC BOUNDARIES ON OUTPUT.
Info: FIRST LDB TIMESTEP     50
Info: LAST LDB TIMESTEP     -1
Info: HOM BACKGROUND SCALING 1
Info: PME BACKGROUND SCALING 1
Info: MIN ATOMS PER PATCH    40
Info: EMPTY PATCH LOAD       40 ATOMS
Info: VELOCITY FILE          mobley_4291494_equil.vel
Info: CENTER OF MASS MOVING INITIALLY? NO
Info: DIELECTRIC             1
Info: EXCLUDE                SCALED ONE-FOUR
Info: 1-4 ELECTROSTATICS SCALED BY 0.833333
Info: MODIFIED 1-4 VDW PARAMETERS WILL BE USED
Info: DCD FILENAME           mobley_4291494_prod.dcd
Info: DCD FREQUENCY          100000
Info: DCD FIRST STEP         100000
Info: DCD FILE WILL CONTAIN UNIT CELL DATA
Info: XST FILENAME           mobley_4291494_prod.xst
Info: XST FREQUENCY          100000
Info: NO VELOCITY DCD OUTPUT
Info: NO FORCE DCD OUTPUT
Info: OUTPUT FILENAME        mobley_4291494_prod
Info: BINARY OUTPUT FILES WILL BE USED
Info: RESTART FILENAME       mobley_4291494_prod.restart
Info: RESTART FREQUENCY      100000
Info: BINARY RESTART FILES WILL BE USED
Info: CUTOFF                 9
Info: PAIRLIST DISTANCE      11
Info: PAIRLIST SHRINK RATE   0.01
Info: PAIRLIST GROW RATE     0.01
Info: PAIRLIST TRIGGER       0.3
Info: PAIRLISTS PER CYCLE    2
Info: PAIRLISTS ENABLED
Info: MARGIN                 2
Info: HYDROGEN GROUP CUTOFF  2.5
Info: PATCH DIMENSION        15.5
Info: ENERGY OUTPUT STEPS    100000
Info: ENERGY EVALUATION STEPS    100000
Info: OUTPUT ENERGY PRECISION 4
Info: CROSSTERM ENERGY INCLUDED IN DIHEDRAL
Info: TIMING OUTPUT STEPS    1000000
Info: PRESSURE OUTPUT STEPS  100000
Info: ALCHEMICAL FEP ON
Info: FEP CURRENT LAMBDA VALUE     1
Info: FEP COMPARISON LAMBDA VALUE  0.95
Info: FEP INTRA-ALCHEMICAL NON-BONDED INTERACTIONS WILL BE RETAINED
Info: FEP INTRA-ALCHEMICAL BONDED INTERACTIONS WILL BE RETAINED
Info: FEP VDW SHIFTING COEFFICIENT 5
Info: FEP ELEC. ACTIVE FOR ANNIHILATED PARTICLES BETWEEN LAMBDA = 0 AND LAMBDA = 0.5
Info: FEP ELEC. ACTIVE FOR EXNIHILATED PARTICLES BETWEEN LAMBDA = 0.5 AND LAMBDA = 1
Info: FEP VDW ACTIVE FOR ANNIHILATED PARTICLES BETWEEN LAMBDA = 0 AND LAMBDA = 1
Info: FEP VDW ACTIVE FOR EXNIHILATED PARTICLES BETWEEN LAMBDA = 0 AND LAMBDA = 1
Info: FEP BOND ACTIVE FOR ANNIHILATED PARTICLES BETWEEN LAMBDA = 1 AND LAMBDA = 1
Info: FEP BOND ACTIVE FOR EXNIHILATED PARTICLES BETWEEN LAMBDA = 0 AND LAMBDA = 0
Info: LANGEVIN DYNAMICS ACTIVE
Info: LANGEVIN TEMPERATURE   300
Info: LANGEVIN USING BBK INTEGRATOR
Info: LANGEVIN DAMPING COEFFICIENT IS 1 INVERSE PS
Info: LANGEVIN DYNAMICS APPLIED TO HYDROGENS
Info: LANGEVIN PISTON PRESSURE CONTROL ACTIVE
Info:        TARGET PRESSURE IS 1.01325 BAR
Info:     OSCILLATION PERIOD IS 50 FS
Info:             DECAY TIME IS 25 FS
Info:     PISTON TEMPERATURE IS 300 K
Info:       PRESSURE CONTROL IS GROUP-BASED
Info:    INITIAL STRAIN RATE IS 0.000214761 0.000214761 0.000214761
Info:       CELL FLUCTUATION IS ISOTROPIC
Info: PARTICLE MESH EWALD (PME) ACTIVE
Info: PME TOLERANCE               1e-06
Info: PME EWALD COEFFICIENT       0.348832
Info: PME INTERPOLATION ORDER     4
Info: PME GRID DIMENSIONS         32 32 36
Info: PME MAXIMUM GRID SPACING    1
Info: PME CALCULATION WILL BE PERFORMED ON GPU
Info: FULL ELECTROSTATIC EVALUATION FREQUENCY      2
Info: USING VERLET I (r-RESPA) MTS SCHEME.
Info: C1 SPLITTING OF LONG RANGE ELECTROSTATICS
Info: PLACING ATOMS IN PATCHES BY HYDROGEN GROUPS
Info: RIGID BONDS TO HYDROGEN : ALL
Info:         ERROR TOLERANCE : 1e-08
Info:          MAX ITERATIONS : 100
Info: RIGID WATER USING SETTLE ALGORITHM
Info: RANDOM NUMBER SEED     1742129081
Info: USE HYDROGEN BONDS?    NO
Info: Using AMBER format force field!
Info: AMBER PARM FILE        mobley_4291494.prmtop
Info: COORDINATE PDB         mobley_4291494.pdb
Info: Exclusions will be read from PARM file!
Info: SCNB (VDW SCALING)     2
Info: USING ARITHMETIC MEAN TO COMBINE L-J SIGMA PARAMETERS
Info: BINARY COORDINATES     mobley_4291494_equil.coor
Info: SUMMARY OF PARAMETERS:
Info: 7 BONDS
Info: 8 ANGLES
Info:   8 HARMONIC
Info:   0 COSINE-BASED
Info: 3 DIHEDRAL
Info: 0 IMPROPER
Info: 0 CROSSTERM
Info: 0 VDW
Info: 28 VDW_PAIRS
Info: 0 NBTHOLE_PAIRS
Info: To read alchdata from file: mobley_4291494.pdb
Info: To read alchflag data from column: 5
Info: STRUCTURE SUMMARY:
Info: 2966 ATOMS
Info: 2966 BONDS
Info: 16 ANGLES
Info: 23 DIHEDRALS
Info: 0 IMPROPERS
Info: 0 CROSSTERMS
Info: 2999 EXCLUSIONS
Info: 2959 RIGID BONDS
Info: ALCH: 0 ATOMS TO DISAPPEAR IN FINAL STATE
Info: ALCH: 11 ATOMS TO APPEAR IN FINAL STATE
Info: 5939 DEGREES OF FREEDOM
Info: 992 HYDROGEN GROUPS
Info: 3 ATOMS IN LARGEST HYDROGEN GROUP
Info: 992 MIGRATION GROUPS
Info: 3 ATOMS IN LARGEST MIGRATION GROUP
Info: TOTAL MASS = 17859.3 amu
Info: TOTAL CHARGE = 9.99942e-05 e
Info: MASS DENSITY = 0.97632 g/cm^3
Info: ATOM DENSITY = 0.0976427 atoms/A^3
Info: ADDED 0 IMPLICIT EXCLUSIONS
Info: NONBONDED TABLE R-SQUARED SPACING: 0.0625
Info: NONBONDED TABLE SIZE: 705 POINTS
Info: REMOVING COM VELOCITY -0.165372 -0.0249952 -0.0203174
Info: Use 3D box decompostion in PME FFT.
Info: Updated CUDA force table with 4096 elements.
Info: Updated CUDA LJ table with 7 x 7 elements.
Info: Found 13 unique exclusion lists needing 24 bytes
TCL: Running for 1500000 steps
ETITLE: TS BOND ANGLE DIHED IMPRP ELECT VDW BOUNDARY MISC KINETIC TOTAL TEMP POTENTIAL TOTALAVG TEMPAVG PRESSURE GPRESSURE VOLUME PRESSAVG GPRESSAVG
ENERGY: 0 5.3499 1.5431 0.9942 0.0000 -10764.4731 1450.9285 0.0000 0.0000 1755.3015 -7550.3560 297.4601 -9305.6575 -7550.3560 297.4601 248.0432 337.7061 30376.0560 248.0432 337.7061
ENERGY: 300000 1.9554 3.7809 1.3778 0.0000 -10737.6808 1400.6441 0.0000 0.0000 1766.0067 -7563.9160 299.2743 -9329.9227 -7544.4227 302.0160 -356.8477 -348.7121 30520.2254 -20.8787 34.7642
ENERGY: 600000 1.3430 1.6773 1.7557 0.0000 -10628.9490 1371.1978 0.0000 0.0000 1768.0565 -7484.9187 299.6216 -9252.9751 -7543.6960 300.9303 -546.5432 -530.3745 31183.4820 16.8473 57.8339
ENERGY: 900000 1.7546 2.9159 1.7375 0.0000 -10786.0837 1392.4686 0.0000 0.0000 1780.4461 -7606.7609 301.7212 -9387.2071 -7562.7885 300.5909 -353.0676 -289.2204 30400.6045 44.6587 99.0042
ENERGY: 1200000 1.8678 4.6924 2.4828 0.0000 -10752.8390 1434.0680 0.0000 0.0000 1772.0028 -7537.7252 300.2904 -9309.7280 -7575.1990 299.6098 -48.9607 28.0416 30457.2085 -48.6449 6.9693
ENERGY: 1500000 4.1168 1.3264 0.5911 0.0000 -10632.9381 1390.0547 0.0000 0.0000 1799.1896 -7437.6594 304.8976 -9236.8491 -7557.0231 300.6152 -250.4769 -177.5129 30763.0753 -138.1282 -79.4775
TCL: Running FEP window   2: Lambda1 0.95   Lambda2 0.8999999999999999 [dLambda -0.050000000000000044]
TCL: Setting parameter firsttimestep to 0
TCL: Setting parameter alchLambda to 0.95
Info: NONBONDED TABLE R-SQUARED SPACING: 0.0625
Info: NONBONDED TABLE SIZE: 705 POINTS
TCL: Setting parameter alchLambda2 to 0.8999999999999999
Info: NONBONDED TABLE R-SQUARED SPACING: 0.0625
Info: NONBONDED TABLE SIZE: 705 POINTS
TCL: Running for 1500000 steps
ETITLE: TS BOND ANGLE DIHED IMPRP ELECT VDW BOUNDARY MISC KINETIC TOTAL TEMP POTENTIAL TOTALAVG TEMPAVG PRESSURE GPRESSURE VOLUME PRESSAVG GPRESSAVG
ENERGY: 0 4.1168 1.3264 0.5911 0.0000 -10631.4933 1389.2648 0.0000 0.0000 1798.3357 -7437.8586 304.7529 -9236.1943 -7437.8586 304.7529 -290.3437 -192.6474 30763.0753 -290.3437 -192.6474
ENERGY: 300000 2.2006 0.7279 1.6029 0.0000 -10835.1353 1472.4774 0.0000 0.0000 1817.5939 -7540.5326 308.0165 -9358.1265 -7567.9910 301.6829 351.5359 402.5685 30326.9617 180.6076 220.3041
ENERGY: 600000 4.0876 1.7451 3.0488 0.0000 -10853.8926 1461.1592 0.0000 0.0000 1778.8678 -7604.9840 301.4538 -9383.8518 -7583.4532 300.7816 -31.1261 -16.5101 30370.8767 48.0168 86.5093
ENERGY: 900000 1.9069 2.3578 2.5663 0.0000 -10864.7007 1522.1651 0.0000 0.0000 1756.3430 -7579.3616 297.6366 -9335.7046 -7585.4118 299.5005 370.5456 468.0918 30644.6394 122.0048 162.2725
ENERGY: 1200000 1.9386 2.6265 1.6140 0.0000 -10866.5152 1510.8666 0.0000 0.0000 1827.6286 -7521.8409 309.7170 -9349.4695 -7562.5902 301.1700 602.1043 679.2983 30248.6171 104.0676 143.2535
ENERGY: 1500000 3.2025 2.5279 3.2239 0.0000 -10658.0670 1374.1509 0.0000 0.0000 1757.2567 -7517.7050 297.7915 -9274.9617 -7565.4915 300.9774 -592.6843 -502.9668 30980.2603 7.9902 55.2369
TCL: Running FEP window   3: Lambda1 0.8999999999999999 Lambda2 0.8499999999999999 [dLambda -0.050000000000000044]
TCL: Setting parameter firsttimestep to 0
TCL: Setting parameter alchLambda to 0.8999999999999999
Info: NONBONDED TABLE R-SQUARED SPACING: 0.0625
Info: NONBONDED TABLE SIZE: 705 POINTS
TCL: Setting parameter alchLambda2 to 0.8499999999999999
Info: NONBONDED TABLE R-SQUARED SPACING: 0.0625
Info: NONBONDED TABLE SIZE: 705 POINTS
TCL: Running for 1500000 steps
ETITLE: TS BOND ANGLE DIHED IMPRP ELECT VDW BOUNDARY MISC KINETIC TOTAL TEMP POTENTIAL TOTALAVG TEMPAVG PRESSURE GPRESSURE VOLUME PRESSAVG GPRESSAVG
ENERGY: 0 3.2025 2.5279 3.2239 0.0000 -10657.2168 1374.0567 0.0000 0.0000 1756.3447 -7517.8611 297.6369 -9274.2058 -7517.8611 297.6369 -588.8198 -512.2859 30980.2603 -588.8198 -512.2859
ENERGY: 300000 4.0340 2.4620 1.8249 0.0000 -10656.7487 1421.3030 0.0000 0.0000 1776.2782 -7450.8466 301.0149 -9227.1248 -7534.2320 299.4447 -20.3419 27.6691 31120.3158 -248.1587 -205.8129
ENERGY: 600000 2.4971 1.1625 2.5490 0.0000 -10692.1409 1384.3636 0.0000 0.0000 1758.9798 -7542.5889 298.0835 -9301.5687 -7536.9781 299.9026 -136.3101 -39.3915 30256.8530 -159.1566 -103.8784
ENERGY: 900000 1.8305 3.5051 0.6466 0.0000 -10793.7625 1421.3392 0.0000 0.0000 1798.6074 -7567.8337 304.7989 -9366.4411 -7551.9121 299.4375 -340.0029 -245.4441 30928.5331 -214.0530 -156.2387
ENERGY: 1200000 3.7137 4.1428 2.5488 0.0000 -10794.7038 1478.9251 0.0000 0.0000 1768.7188 -7536.6547 299.7339 -9305.3735 -7549.9119 299.0766 436.9919 497.2973 30420.2441 -46.8032 12.9274
ENERGY: 1500000 4.0842 1.8335 1.8982 0.0000 -10695.9119 1379.7947 0.0000 0.0000 1750.7565 -7557.5447 296.6899 -9308.3013 -7560.7413 298.5984 -557.8169 -485.8346 30852.7790 -5.5623 54.7328
TCL: Running FEP window   4: Lambda1 0.8499999999999999 Lambda2 0.7999999999999998 [dLambda -0.050000000000000044]
TCL: Setting parameter firsttimestep to 0
TCL: Setting parameter alchLambda to 0.8499999999999999
Info: NONBONDED TABLE R-SQUARED SPACING: 0.0625
Info: NONBONDED TABLE SIZE: 705 POINTS
TCL: Setting parameter alchLambda2 to 0.7999999999999998
Info: NONBONDED TABLE R-SQUARED SPACING: 0.0625
Info: NONBONDED TABLE SIZE: 705 POINTS
TCL: Running for 1500000 steps
ETITLE: TS BOND ANGLE DIHED IMPRP ELECT VDW BOUNDARY MISC KINETIC TOTAL TEMP POTENTIAL TOTALAVG TEMPAVG PRESSURE GPRESSURE VOLUME PRESSAVG GPRESSAVG
ENERGY: 0 4.0842 1.8335 1.8982 0.0000 -10695.3518 1379.7273 0.0000 0.0000 1749.8586 -7557.9500 296.5378 -9307.8086 -7557.9500 296.5378 -585.3805 -496.4584 30852.7790 -585.3805 -496.4584
ENERGY: 300000 2.1350 1.3872 3.0228 0.0000 -10705.9523 1331.3979 0.0000 0.0000 1798.6157 -7569.3937 304.8003 -9368.0095 -7562.6471 300.0926 -982.4075 -821.2296 30284.7493 -278.0550 -179.8282
ENERGY: 600000 1.4852 3.8544 3.5565 0.0000 -10632.8928 1330.6661 0.0000 0.0000 1821.1084 -7472.2222 308.6120 -9293.3307 -7558.7313 300.3180 -1102.5778 -1022.8864 31082.1469 -272.9575 -177.7054
ENERGY: 900000 1.2277 2.4911 4.4286 0.0000 -10766.0009 1462.9027 0.0000 0.0000 1773.8620 -7521.0889 300.6055 -9294.9508 -7552.3714 299.9362 412.2074 481.2083 30182.3888 -103.9302 -15.5916
ENERGY: 1200000 1.6938 3.7778 1.7103 0.0000 -10804.4298 1503.6813 0.0000 0.0000 1781.0490 -7512.5176 301.8234 -9293.5667 -7537.0997 300.2675 786.5098 786.7959 30331.8758 3.0266 78.8405
ENERGY: 1500000 2.8487 2.7458 0.8923 0.0000 -10790.7534 1393.5269 0.0000 0.0000 1801.7692 -7588.9704 305.3347 -9390.7397 -7552.5683 300.4686 -363.9916 -377.7919 30461.3336 -1.7005 69.0109
TCL: Running FEP window   5: Lambda1 0.7999999999999998 Lambda2 0.7499999999999998 [dLambda -0.050000000000000044]
TCL: Setting parameter firsttimestep to 0
TCL: Setting parameter alchLambda to 0.7999999999999998
Info: NONBONDED TABLE R-SQUARED SPACING: 0.0625
Info: NONBONDED TABLE SIZE: 705 POINTS
TCL: Setting parameter alchLambda2 to 0.7499999999999998
Info: NONBONDED TABLE R-SQUARED SPACING: 0.0625
Info: NONBONDED TABLE SIZE: 705 POINTS
TCL: Running for 1500000 steps
ETITLE: TS BOND ANGLE DIHED IMPRP ELECT VDW BOUNDARY MISC KINETIC TOTAL TEMP POTENTIAL TOTALAVG TEMPAVG PRESSURE GPRESSURE VOLUME PRESSAVG GPRESSAVG
ENERGY: 0 2.8487 2.7458 0.8923 0.0000 -10790.5038 1393.9826 0.0000 0.0000 1800.9297 -7589.1047 305.1925 -9390.0344 -7589.1047 305.1925 -466.4416 -381.4309 30461.3336 -466.4416 -381.4309
ENERGY: 300000 3.1063 1.3282 2.4615 0.0000 -10770.2719 1422.1454 0.0000 0.0000 1739.9582 -7601.2723 294.8600 -9341.2305 -7574.5969 299.9537 -82.1529 -35.1850 30324.1533 -63.6000 -18.1046
ENERGY: 600000 0.7492 4.3335 3.9646 0.0000 -10763.0250 1439.4423 0.0000 0.0000 1748.5074 -7566.0280 296.3088 -9314.5353 -7566.9780 299.0936 -229.8819 -177.0849 30926.0439 58.3038 114.1397
ENERGY: 900000 1.1385 1.0719 4.9721 0.0000 -10874.6624 1507.9713 0.0000 0.0000 1794.6432 -7564.8655 304.1271 -9359.5087 -7574.9293 299.3180 310.9333 446.3725 30239.3166 -39.0007 31.0053
ENERGY: 1200000 2.5999 1.0889 2.3299 0.0000 -10757.0059 1409.2246 0.0000 0.0000 1779.6052 -7562.1574 301.5787 -9341.7626 -7564.3653 300.2083 -465.1608 -397.9234 30710.5795 -167.4534 -99.4566
ENERGY: 1500000 1.5242 2.4741 3.4963 0.0000 -10780.8461 1379.5367 0.0000 0.0000 1753.8737 -7639.9411 297.2182 -9393.8149 -7574.4223 299.6873 -611.2562 -571.2766 30603.7804 -209.3199 -142.0091
TCL: Running FEP window   6: Lambda1 0.7499999999999998 Lambda2 0.6999999999999997 [dLambda -0.050000000000000044]
TCL: Setting parameter firsttimestep to 0
TCL: Setting parameter alchLambda to 0.7499999999999998
Info: NONBONDED TABLE R-SQUARED SPACING: 0.0625
Info: NONBONDED TABLE SIZE: 705 POINTS
TCL: Setting parameter alchLambda2 to 0.6999999999999997
Info: NONBONDED TABLE R-SQUARED SPACING: 0.0625
Info: NONBONDED TABLE SIZE: 705 POINTS
TCL: Running for 1500000 steps
ETITLE: TS BOND ANGLE DIHED IMPRP ELECT VDW BOUNDARY MISC KINETIC TOTAL TEMP POTENTIAL TOTALAVG TEMPAVG PRESSURE GPRESSURE VOLUME PRESSAVG GPRESSAVG
ENERGY: 0 1.5242 2.4741 3.4963 0.0000 -10779.8025 1378.9343 0.0000 0.0000 1752.9825 -7640.3911 297.0672 -9393.3736 -7640.3911 297.0672 -673.3187 -584.3325 30603.7804 -673.3187 -584.3325
ENERGY: 300000 2.3337 1.8106 2.0887 0.0000 -10785.0708 1459.2987 0.0000 0.0000 1808.6580 -7510.8812 306.5021 -9319.5391 -7562.5318 303.8980 8.7951 -5.6434 30931.8154 -48.2285 13.7712
ENERGY: 600000 1.4746 4.7494 1.2241 0.0000 -10659.9436 1372.0115 0.0000 0.0000 1727.8560 -7552.6278 292.8091 -9280.4839 -7548.8478 300.9837 -672.6117 -636.5455 31120.7034 2.7126 59.0073
ENERGY: 900000 1.6649 2.6128 2.7034 0.0000 -10797.5300 1476.6419 0.0000 0.0000 1750.4394 -7563.4676 296.6362 -9313.9070 -7545.5084 301.3548 57.4407 187.9236 30586.2316 -140.1047 -72.0723
ENERGY: 1200000 0.5286 3.1302 4.0365 0.0000 -10851.6943 1486.9812 0.0000 0.0000 1830.1913 -7526.8265 310.1513 -9357.0178 -7538.0346 302.4731 83.9349 88.9223 30945.6763 11.1098 79.1478
ENERGY: 1500000 2.0504 2.4704 1.4496 0.0000 -10757.4624 1497.3372 0.0000 0.0000 1781.4838 -7472.6710 301.8971 -9254.1548 -7538.5653 301.8368 590.1227 599.9622 30750.5940 9.1412 67.7753
TCL: Running FEP window   7: Lambda1 0.6999999999999997 Lambda2 0.6499999999999997 [dLambda -0.050000000000000044]
TCL: Setting parameter firsttimestep to 0
TCL: Setting parameter alchLambda to 0.6999999999999997
Info: NONBONDED TABLE R-SQUARED SPACING: 0.0625
Info: NONBONDED TABLE SIZE: 705 POINTS
TCL: Setting parameter alchLambda2 to 0.6499999999999997
Info: NONBONDED TABLE R-SQUARED SPACING: 0.0625
Info: NONBONDED TABLE SIZE: 705 POINTS
TCL: Running for 1500000 steps
ETITLE: TS BOND ANGLE DIHED IMPRP ELECT VDW BOUNDARY MISC KINETIC TOTAL TEMP POTENTIAL TOTALAVG TEMPAVG PRESSURE GPRESSURE VOLUME PRESSAVG GPRESSAVG
ENERGY: 0 2.0504 2.4704 1.4496 0.0000 -10756.2038 1496.7796 0.0000 0.0000 1780.6278 -7472.8260 301.7520 -9253.4538 -7472.8260 301.7520 494.5928 591.0132 30750.5940 494.5928 591.0132
ENERGY: 300000 1.5767 1.0887 2.3428 0.0000 -10584.8348 1314.3298 0.0000 0.0000 1752.1421 -7513.3547 296.9247 -9265.4968 -7535.8711 297.7173 -1089.7322 -1003.8319 31151.3552 -189.9717 -116.0329
ENERGY: 600000 1.7145 3.1665 1.9134 0.0000 -10666.5149 1397.2006 0.0000 0.0000 1760.7394 -7501.7804 298.3817 -9262.5198 -7517.6511 297.7514 -406.6239 -359.2444 30780.8480 -161.6633 -105.4345
ENERGY: 900000 0.6999 3.2826 2.6850 0.0000 -10694.2035 1403.3633 0.0000 0.0000 1811.2643 -7472.9083 306.9438 -9284.1727 -7509.7767 299.2727 -131.8642 -86.4488 30662.1057 -131.0156 -78.0896
ENERGY: 1200000 2.5311 1.2663 0.8240 0.0000 -10717.8804 1405.1225 0.0000 0.0000 1780.4000 -7527.7366 301.7134 -9308.1365 -7517.9555 299.3988 -185.6291 -166.5106 30469.9747 -81.6002 -32.4962
ENERGY: 1500000 1.0184 2.2063 4.3233 0.0000 -10861.7296 1516.1201 0.0000 0.0000 1795.5447 -7542.5169 304.2799 -9338.0616 -7524.9935 299.8894 669.2252 709.2333 30318.9418 -63.3850 -12.0614
TCL: Running FEP window   8: Lambda1 0.6499999999999997 Lambda2 0.5999999999999996 [dLambda -0.050000000000000044]
TCL: Setting parameter firsttimestep to 0
TCL: Setting parameter alchLambda to 0.6499999999999997
Info: NONBONDED TABLE R-SQUARED SPACING: 0.0625
Info: NONBONDED TABLE SIZE: 705 POINTS
TCL: Setting parameter alchLambda2 to 0.5999999999999996
Info: NONBONDED TABLE R-SQUARED SPACING: 0.0625
Info: NONBONDED TABLE SIZE: 705 POINTS
TCL: Running for 1500000 steps
ETITLE: TS BOND ANGLE DIHED IMPRP ELECT VDW BOUNDARY MISC KINETIC TOTAL TEMP POTENTIAL TOTALAVG TEMPAVG PRESSURE GPRESSURE VOLUME PRESSAVG GPRESSAVG
ENERGY: 0 1.0184 2.2063 4.3233 0.0000 -10861.1693 1515.4599 0.0000 0.0000 1794.6909 -7543.4706 304.1352 -9338.1615 -7543.4706 304.1352 621.4011 692.7411 30318.9418 621.4011 692.7411
ENERGY: 300000 2.8371 2.5002 3.6467 0.0000 -10785.8461 1440.6518 0.0000 0.0000 1761.6920 -7574.5184 298.5431 -9336.2104 -7525.5612 300.1912 -81.8062 -43.8251 30573.2169 196.4766 229.8990
ENERGY: 600000 3.1575 5.6825 2.8253 0.0000 -10859.1602 1475.6187 0.0000 0.0000 1811.5421 -7560.3341 306.9909 -9371.8761 -7509.7618 303.5776 200.9914 218.5553 30499.4192 198.2634 229.7178
ENERGY: 900000 3.1771 3.0833 1.5689 0.0000 -10710.3309 1384.5842 0.0000 0.0000 1802.9138 -7515.0036 305.5287 -9317.9174 -7521.0382 301.6943 -473.4395 -393.7594 30387.7015 16.7841 67.3934
ENERGY: 1200000 0.9110 1.9422 3.5196 0.0000 -10701.0708 1376.4639 0.0000 0.0000 1722.2297 -7596.0044 291.8557 -9318.2340 -7530.1304 300.6277 -541.5390 -423.0242 30160.0507 8.2857 71.0787
ENERGY: 1500000 1.3128 1.2588 1.4705 0.0000 -10810.5417 1393.0468 0.0000 0.0000 1782.4704 -7630.9825 302.0643 -9413.4528 -7531.5685 300.7941 -579.5628 -498.3417 30462.5893 -11.2020 55.9688
TCL: Running FEP window   9: Lambda1 0.5999999999999996 Lambda2 0.5499999999999996 [dLambda -0.050000000000000044]
TCL: Setting parameter firsttimestep to 0
TCL: Setting parameter alchLambda to 0.5999999999999996
Info: NONBONDED TABLE R-SQUARED SPACING: 0.0625
Info: NONBONDED TABLE SIZE: 705 POINTS
TCL: Setting parameter alchLambda2 to 0.5499999999999996
Info: NONBONDED TABLE R-SQUARED SPACING: 0.0625
Info: NONBONDED TABLE SIZE: 705 POINTS
TCL: Running for 1500000 steps
ETITLE: TS BOND ANGLE DIHED IMPRP ELECT VDW BOUNDARY MISC KINETIC TOTAL TEMP POTENTIAL TOTALAVG TEMPAVG PRESSURE GPRESSURE VOLUME PRESSAVG GPRESSAVG
ENERGY: 0 1.3128 1.2588 1.4705 0.0000 -10810.7289 1393.4506 0.0000 0.0000 1781.6015 -7631.6347 301.9170 -9413.2362 -7631.6347 301.9170 -578.6379 -504.0886 30462.5893 -578.6379 -504.0886
ENERGY: 300000 1.3792 3.1790 2.1638 0.0000 -10718.2356 1380.6010 0.0000 0.0000 1751.8609 -7579.0518 296.8771 -9330.9127 -7553.0638 302.2722 -642.5239 -558.4501 30682.8335 -296.0094 -247.8287
ENERGY: 600000 1.0711 1.4625 2.4600 0.0000 -10892.5898 1500.1010 0.0000 0.0000 1823.6132 -7563.8820 309.0365 -9387.4952 -7553.2975 304.3395 332.4512 362.1626 30687.7501 -222.6483 -178.0589
ENERGY: 900000 2.4548 2.1726 0.4795 0.0000 -10729.0538 1384.7577 0.0000 0.0000 1758.3488 -7580.8404 297.9765 -9339.1892 -7551.3221 303.4061 -639.9060 -582.7292 30581.3572 -353.2565 -308.3933
ENERGY: 1200000 1.5690 1.5323 2.8422 0.0000 -10767.3730 1466.7037 0.0000 0.0000 1797.7968 -7496.9289 304.6616 -9294.7258 -7545.9988 303.3664 -71.8070 -37.0442 31170.7409 -289.5329 -248.2115
ENERGY: 1500000 2.3956 2.9452 0.6837 0.0000 -10780.4021 1462.0478 0.0000 0.0000 1760.7157 -7551.6142 298.3776 -9312.3299 -7549.1694 301.8874 211.2420 276.3317 30378.9156 -173.9000 -130.4918
TCL: Running FEP window  10: Lambda1 0.5499999999999996 Lambda2 0.4999999999999996 [dLambda -0.04999999999999999]
TCL: Setting parameter firsttimestep to 0
TCL: Setting parameter alchLambda to 0.5499999999999996
Info: NONBONDED TABLE R-SQUARED SPACING: 0.0625
Info: NONBONDED TABLE SIZE: 705 POINTS
TCL: Setting parameter alchLambda2 to 0.4999999999999996
Info: NONBONDED TABLE R-SQUARED SPACING: 0.0625
Info: NONBONDED TABLE SIZE: 705 POINTS
TCL: Running for 1500000 steps
ETITLE: TS BOND ANGLE DIHED IMPRP ELECT VDW BOUNDARY MISC KINETIC TOTAL TEMP POTENTIAL TOTALAVG TEMPAVG PRESSURE GPRESSURE VOLUME PRESSAVG GPRESSAVG
ENERGY: 0 2.3956 2.9452 0.6837 0.0000 -10780.0580 1461.9634 0.0000 0.0000 1759.8494 -7552.2207 298.2309 -9312.0701 -7552.2207 298.2309 193.7425 269.3492 30378.9156 193.7425 269.3492
ENERGY: 300000 3.2636 3.3839 4.0893 0.0000 -10845.6352 1475.2322 0.0000 0.0000 1770.5831 -7589.0830 300.0498 -9359.6661 -7540.6996 300.2806 43.1226 54.0561 30627.2774 72.2424 139.4324
ENERGY: 600000 2.7224 2.0398 2.2868 0.0000 -10790.9520 1450.1212 0.0000 0.0000 1804.3514 -7529.4305 305.7723 -9333.7818 -7557.1704 300.4765 -120.6760 -65.2784 30514.8900 55.7591 127.0776
ENERGY: 900000 4.6297 3.0283 2.0288 0.0000 -10647.4487 1354.5777 0.0000 0.0000 1750.8497 -7532.3346 296.7057 -9283.1843 -7566.7382 299.0986 -623.7818 -497.3598 30409.1698 134.8741 206.7595
ENERGY: 1200000 1.0548 2.5187 4.2456 0.0000 -10670.0016 1389.3486 0.0000 0.0000 1825.6466 -7447.1873 309.3811 -9272.8340 -7553.0681 300.3537 -121.4709 -81.3039 30391.4642 58.0964 130.1835
ENERGY: 1500000 2.7793 4.4680 3.2457 0.0000 -10658.5323 1380.5341 0.0000 0.0000 1727.0284 -7540.4768 292.6689 -9267.5052 -7546.9341 300.4927 -508.1249 -440.6718 30597.7196 2.0569 68.2070
TCL: Running FEP window  11: Lambda1 0.4999999999999996 Lambda2 0.4499999999999996 [dLambda -0.04999999999999999]
TCL: Setting parameter firsttimestep to 0
TCL: Setting parameter alchLambda to 0.4999999999999996
Info: NONBONDED TABLE R-SQUARED SPACING: 0.0625
Info: NONBONDED TABLE SIZE: 705 POINTS
TCL: Setting parameter alchLambda2 to 0.4499999999999996
Info: NONBONDED TABLE R-SQUARED SPACING: 0.0625
Info: NONBONDED TABLE SIZE: 705 POINTS
TCL: Running for 1500000 steps
ETITLE: TS BOND ANGLE DIHED IMPRP ELECT VDW BOUNDARY MISC KINETIC TOTAL TEMP POTENTIAL TOTALAVG TEMPAVG PRESSURE GPRESSURE VOLUME PRESSAVG GPRESSAVG
ENERGY: 0 2.7793 4.4680 3.2457 0.0000 -10658.5580 1380.8322 0.0000 0.0000 1726.1434 -7541.0894 292.5189 -9267.2328 -7541.0894 292.5189 -523.6404 -442.1633 30597.7196 -523.6404 -442.1633
ENERGY: 300000 2.7054 1.5227 1.4420 0.0000 -10896.5273 1479.8975 0.0000 0.0000 1789.2135 -7621.7462 303.2070 -9410.9597 -7595.8480 293.9700 -97.4794 -9.3916 30534.0958 -253.8997 -173.2740
ENERGY: 600000 2.3830 2.2989 2.4134 0.0000 -10803.3869 1452.4995 0.0000 0.0000 1735.9177 -7607.8744 294.1753 -9343.7921 -7605.0684 294.3733 -134.8551 -119.3241 30722.8928 -254.6527 -188.4698
ENERGY: 900000 3.0045 2.0405 2.5262 0.0000 -10757.7832 1422.0343 0.0000 0.0000 1769.9782 -7558.1995 299.9473 -9328.1777 -7580.2406 297.1254 -284.2922 -168.9996 30603.9385 -210.4997 -149.1560
ENERGY: 1200000 2.0629 2.4855 3.1525 0.0000 -10699.4093 1408.1630 0.0000 0.0000 1807.6408 -7475.9046 306.3298 -9283.5454 -7563.6298 298.6603 -471.2221 -406.3177 30896.4758 -204.6673 -141.2248
ENERGY: 1500000 6.0399 1.4496 1.7759 0.0000 -10603.9500 1293.8556 0.0000 0.0000 1765.7610 -7535.0680 299.2326 -9300.8290 -7560.3519 298.8045 -1306.8939 -1279.3701 30647.7713 -255.6766 -195.2133
TCL: Running FEP window  12: Lambda1 0.4499999999999996 Lambda2 0.39999999999999963 [dLambda -0.04999999999999999]
TCL: Setting parameter firsttimestep to 0
TCL: Setting parameter alchLambda to 0.4499999999999996
Info: NONBONDED TABLE R-SQUARED SPACING: 0.0625
Info: NONBONDED TABLE SIZE: 705 POINTS
TCL: Setting parameter alchLambda2 to 0.39999999999999963
Info: NONBONDED TABLE R-SQUARED SPACING: 0.0625
Info: NONBONDED TABLE SIZE: 705 POINTS
TCL: Running for 1500000 steps
ETITLE: TS BOND ANGLE DIHED IMPRP ELECT VDW BOUNDARY MISC KINETIC TOTAL TEMP POTENTIAL TOTALAVG TEMPAVG PRESSURE GPRESSURE VOLUME PRESSAVG GPRESSAVG
ENERGY: 0 6.0399 1.4496 1.7759 0.0000 -10603.9508 1293.9797 0.0000 0.0000 1764.8563 -7535.8494 299.0793 -9300.7057 -7535.8494 299.0793 -1371.7745 -1284.1827 30647.7713 -1371.7745 -1284.1827
ENERGY: 300000 2.1900 1.5370 5.0577 0.0000 -10898.1415 1501.5103 0.0000 0.0000 1760.3995 -7627.4469 298.3241 -9387.8465 -7594.7028 299.5412 367.6894 442.3617 30141.7716 127.8266 196.3169
ENERGY: 600000 3.4412 1.2882 1.0297 0.0000 -10598.3668 1310.7813 0.0000 0.0000 1769.9782 -7511.8482 299.9473 -9281.8263 -7572.2239 298.4148 -1158.9078 -1083.8293 30994.3158 -107.9817 -34.0063
ENERGY: 900000 2.7653 3.1067 1.3408 0.0000 -10677.4677 1471.2343 0.0000 0.0000 1748.6219 -7450.3986 296.3282 -9199.0205 -7548.6209 299.1596 214.0379 251.5778 31386.0925 -130.0111 -58.4783
ENERGY: 1200000 1.8639 3.5886 2.4301 0.0000 -10738.1502 1417.9729 0.0000 0.0000 1753.7771 -7558.5177 297.2018 -9312.2947 -7542.8530 299.0849 -278.7323 -198.3416 30668.6445 -89.5569 -17.6490
ENERGY: 1500000 2.9971 3.3957 2.1417 0.0000 -10889.4975 1493.5813 0.0000 0.0000 1804.0141 -7583.3678 305.7152 -9387.3818 -7543.5877 299.8785 464.3794 564.0005 29971.6104 -47.0957 21.1358
TCL: Running FEP window  13: Lambda1 0.39999999999999963 Lambda2 0.34999999999999964 [dLambda -0.04999999999999999]
TCL: Setting parameter firsttimestep to 0
TCL: Setting parameter alchLambda to 0.39999999999999963
Info: NONBONDED TABLE R-SQUARED SPACING: 0.0625
Info: NONBONDED TABLE SIZE: 705 POINTS
TCL: Setting parameter alchLambda2 to 0.34999999999999964
Info: NONBONDED TABLE R-SQUARED SPACING: 0.0625
Info: NONBONDED TABLE SIZE: 705 POINTS
TCL: Running for 1500000 steps
ETITLE: TS BOND ANGLE DIHED IMPRP ELECT VDW BOUNDARY MISC KINETIC TOTAL TEMP POTENTIAL TOTALAVG TEMPAVG PRESSURE GPRESSURE VOLUME PRESSAVG GPRESSAVG
ENERGY: 0 2.9971 3.3957 2.1417 0.0000 -10889.4975 1493.5055 0.0000 0.0000 1803.1067 -7584.3509 305.5614 -9387.4575 -7584.3509 305.5614 468.7269 556.6351 29971.6104 468.7269 556.6351
ENERGY: 300000 3.4424 2.2952 2.3132 0.0000 -10662.4168 1378.1990 0.0000 0.0000 1762.7800 -7513.3869 298.7275 -9276.1669 -7566.0222 300.2384 -779.6868 -725.4074 30992.5722 -124.9573 -76.7365
ENERGY: 600000 0.7449 0.9008 2.3942 0.0000 -10648.7436 1348.7003 0.0000 0.0000 1766.8908 -7529.1127 299.4241 -9296.0035 -7545.6068 301.5267 -1017.8796 -925.5447 30963.7381 -249.3207 -183.0368
ENERGY: 900000 1.3184 3.0316 2.4877 0.0000 -10691.5031 1404.8913 0.0000 0.0000 1756.7030 -7523.0712 297.6976 -9279.7741 -7548.5752 301.3964 -242.1787 -158.5417 30808.6329 -159.7977 -86.7690
ENERGY: 1200000 1.0768 4.0645 2.0430 0.0000 -10723.2636 1439.2365 0.0000 0.0000 1856.6068 -7420.2361 314.6277 -9276.8428 -7542.3406 302.6170 -86.2687 16.0861 30717.1437 -142.4413 -65.2105
ENERGY: 1500000 1.8587 1.4145 3.9534 0.0000 -10837.5086 1532.5202 0.0000 0.0000 1716.3966 -7581.3653 290.8672 -9297.7619 -7549.5567 301.7034 498.6973 651.9348 30673.0480 -22.1841 57.3132
TCL: Running FEP window  14: Lambda1 0.34999999999999964 Lambda2 0.29999999999999966 [dLambda -0.04999999999999999]
TCL: Setting parameter firsttimestep to 0
TCL: Setting parameter alchLambda to 0.34999999999999964
Info: NONBONDED TABLE R-SQUARED SPACING: 0.0625
Info: NONBONDED TABLE SIZE: 705 POINTS
TCL: Setting parameter alchLambda2 to 0.29999999999999966
Info: NONBONDED TABLE R-SQUARED SPACING: 0.0625
Info: NONBONDED TABLE SIZE: 705 POINTS
TCL: Running for 1500000 steps
ETITLE: TS BOND ANGLE DIHED IMPRP ELECT VDW BOUNDARY MISC KINETIC TOTAL TEMP POTENTIAL TOTALAVG TEMPAVG PRESSURE GPRESSURE VOLUME PRESSAVG GPRESSAVG
ENERGY: 0 1.8587 1.4145 3.9534 0.0000 -10837.5106 1532.9193 0.0000 0.0000 1715.4995 -7581.8652 290.7151 -9297.3647 -7581.8652 290.7151 555.2230 649.6321 30673.0480 555.2230 649.6321
ENERGY: 300000 1.2575 4.2643 4.4150 0.0000 -10710.4227 1391.8805 0.0000 0.0000 1806.2896 -7502.3158 306.1008 -9308.6054 -7525.3244 299.3876 -663.5967 -589.9743 31058.4271 -300.9524 -233.1061
ENERGY: 600000 0.6204 2.1703 3.2267 0.0000 -10806.1462 1414.3025 0.0000 0.0000 1813.4415 -7572.3847 307.3128 -9385.8262 -7503.0248 301.5722 -374.6351 -293.2445 30599.2531 -406.7054 -346.4897
ENERGY: 900000 1.9506 4.4842 1.8078 0.0000 -10468.4852 1299.0783 0.0000 0.0000 1777.1881 -7383.9762 301.1691 -9161.1643 -7495.0584 301.7489 -763.9795 -682.3517 30956.1190 -281.5337 -221.1676
ENERGY: 1200000 4.4193 3.0197 2.9926 0.0000 -10805.5379 1447.3637 0.0000 0.0000 1720.2566 -7627.4860 291.5213 -9347.7426 -7513.4292 300.9539 91.0257 145.4556 30201.8754 -231.9108 -172.1510
ENERGY: 1500000 3.9046 2.7210 1.1679 0.0000 -10868.9537 1505.1712 0.0000 0.0000 1757.4029 -7598.5862 297.8163 -9355.9890 -7518.9153 300.7846 579.1526 643.9302 30165.0155 -161.8648 -97.8980
TCL: Running FEP window  15: Lambda1 0.29999999999999966 Lambda2 0.24999999999999967 [dLambda -0.04999999999999999]
TCL: Setting parameter firsttimestep to 0
TCL: Setting parameter alchLambda to 0.29999999999999966
Info: NONBONDED TABLE R-SQUARED SPACING: 0.0625
Info: NONBONDED TABLE SIZE: 705 POINTS
TCL: Setting parameter alchLambda2 to 0.24999999999999967
Info: NONBONDED TABLE R-SQUARED SPACING: 0.0625
Info: NONBONDED TABLE SIZE: 705 POINTS
TCL: Running for 1500000 steps
ETITLE: TS BOND ANGLE DIHED IMPRP ELECT VDW BOUNDARY MISC KINETIC TOTAL TEMP POTENTIAL TOTALAVG TEMPAVG PRESSURE GPRESSURE VOLUME PRESSAVG GPRESSAVG
ENERGY: 0 3.9046 2.7210 1.1679 0.0000 -10868.9540 1505.1913 0.0000 0.0000 1756.5457 -7599.4236 297.6710 -9355.9692 -7599.4236 297.6710 554.7442 639.1991 30165.0155 554.7442 639.1991
ENERGY: 300000 1.6610 1.4062 1.9851 0.0000 -10742.0196 1439.6021 0.0000 0.0000 1798.7387 -7498.6265 304.8212 -9297.3652 -7554.3392 299.0947 -144.0045 -88.0453 30765.6797 567.4262 654.6335
ENERGY: 600000 1.6550 1.5283 2.2678 0.0000 -10732.7530 1415.2394 0.0000 0.0000 1753.6558 -7558.4066 297.1813 -9312.0624 -7532.6809 301.4640 -284.2408 -181.9308 30521.7191 90.7403 169.9726
ENERGY: 900000 0.5686 2.1590 1.2396 0.0000 -10767.4336 1503.6956 0.0000 0.0000 1809.1739 -7450.5970 306.5896 -9259.7709 -7522.9102 302.1979 547.1444 667.6035 30333.4908 178.7323 258.5125
ENERGY: 1200000 3.0657 2.7044 1.4155 0.0000 -10769.3181 1422.5451 0.0000 0.0000 1723.7186 -7615.8689 292.1080 -9339.5875 -7540.1290 300.4089 -308.2465 -176.4277 30318.5761 120.7217 195.9153
ENERGY: 1500000 1.6826 2.1363 1.9275 0.0000 -10862.8692 1472.8988 0.0000 0.0000 1805.2895 -7578.9346 305.9313 -9384.2241 -7547.1291 300.5296 -62.5212 7.4944 30678.3739 94.5269 164.9031
TCL: Running FEP window  16: Lambda1 0.24999999999999967 Lambda2 0.19999999999999968 [dLambda -0.04999999999999999]
TCL: Setting parameter firsttimestep to 0
TCL: Setting parameter alchLambda to 0.24999999999999967
Info: NONBONDED TABLE R-SQUARED SPACING: 0.0625
Info: NONBONDED TABLE SIZE: 705 POINTS
TCL: Setting parameter alchLambda2 to 0.19999999999999968
Info: NONBONDED TABLE R-SQUARED SPACING: 0.0625
Info: NONBONDED TABLE SIZE: 705 POINTS
TCL: Running for 1500000 steps
ETITLE: TS BOND ANGLE DIHED IMPRP ELECT VDW BOUNDARY MISC KINETIC TOTAL TEMP POTENTIAL TOTALAVG TEMPAVG PRESSURE GPRESSURE VOLUME PRESSAVG GPRESSAVG
ENERGY: 0 1.6826 2.1363 1.9275 0.0000 -10862.8694 1473.2171 0.0000 0.0000 1804.3878 -7579.5182 305.7785 -9383.9060 -7579.5182 305.7785 -68.7014 5.2080 30678.3739 -68.7014 5.2080
ENERGY: 300000 3.3266 2.4432 1.4081 0.0000 -10752.6924 1407.3590 0.0000 0.0000 1740.6711 -7597.4844 294.9808 -9338.1555 -7607.2275 299.6201 -423.0736 -370.9609 30410.1841 -72.5164 -37.6207
ENERGY: 600000 4.9448 4.9261 2.9251 0.0000 -10839.8453 1416.1445 0.0000 0.0000 1797.3257 -7613.5792 304.5817 -9410.9049 -7582.8690 301.9303 -286.5439 -219.8965 30144.0570 -122.0641 -77.4238
ENERGY: 900000 1.9039 3.8688 2.6437 0.0000 -10651.7104 1353.9303 0.0000 0.0000 1797.4323 -7491.9314 304.5998 -9289.3637 -7551.9944 303.4354 -691.8040 -640.2205 30698.4349 -145.0593 -98.8528
ENERGY: 1200000 4.1702 2.0044 2.4711 0.0000 -10891.9152 1518.1853 0.0000 0.0000 1817.1473 -7547.9369 307.9408 -9365.0842 -7550.8187 303.5636 449.6744 463.9693 30206.9035 -116.4642 -75.3773
ENERGY: 1500000 1.4315 5.4288 2.9965 0.0000 -10809.5524 1499.1986 0.0000 0.0000 1776.3610 -7524.1360 301.0290 -9300.4970 -7550.7874 303.1639 522.6320 533.7407 30710.2279 -62.6818 -17.2952
TCL: Running FEP window  17: Lambda1 0.19999999999999968 Lambda2 0.1499999999999997 [dLambda -0.04999999999999999]
TCL: Setting parameter firsttimestep to 0
TCL: Setting parameter alchLambda to 0.19999999999999968
Info: NONBONDED TABLE R-SQUARED SPACING: 0.0625
Info: NONBONDED TABLE SIZE: 705 POINTS
TCL: Setting parameter alchLambda2 to 0.1499999999999997
Info: NONBONDED TABLE R-SQUARED SPACING: 0.0625
Info: NONBONDED TABLE SIZE: 705 POINTS
TCL: Running for 1500000 steps
ETITLE: TS BOND ANGLE DIHED IMPRP ELECT VDW BOUNDARY MISC KINETIC TOTAL TEMP POTENTIAL TOTALAVG TEMPAVG PRESSURE GPRESSURE VOLUME PRESSAVG GPRESSAVG
ENERGY: 0 1.4315 5.4288 2.9965 0.0000 -10809.5525 1499.4163 0.0000 0.0000 1775.4875 -7524.7920 300.8809 -9300.2795 -7524.7920 300.8809 444.0542 533.1516 30710.2279 444.0542 533.1516
ENERGY: 300000 1.3419 2.1215 0.8138 0.0000 -10907.9102 1477.5978 0.0000 0.0000 1823.1028 -7602.9324 308.9500 -9426.0352 -7594.7595 303.8833 169.3651 252.7057 30110.5986 107.3672 174.8511
ENERGY: 600000 2.1943 2.6081 2.8878 0.0000 -10575.3045 1300.8308 0.0000 0.0000 1787.2105 -7479.5731 302.8676 -9266.7835 -7548.0815 303.1100 -911.1205 -933.9899 30565.1170 -150.0897 -92.4233
ENERGY: 900000 1.8619 1.9829 4.7297 0.0000 -10803.8074 1570.8064 0.0000 0.0000 1757.3026 -7467.1239 297.7993 -9224.4265 -7552.0641 301.8580 1107.3771 1161.2644 30491.9185 -89.5935 -28.5473
ENERGY: 1200000 1.5633 1.7174 1.0857 0.0000 -10796.7532 1462.2869 0.0000 0.0000 1813.7797 -7516.3202 307.3701 -9330.0999 -7539.2750 303.0958 -139.1815 -66.4154 30636.6042 -129.4826 -63.3746
ENERGY: 1500000 2.0060 1.4919 2.9624 0.0000 -10799.7735 1425.2761 0.0000 0.0000 1784.7710 -7583.2661 302.4542 -9368.0371 -7553.3209 302.0447 -305.1709 -232.7457 30755.2350 -178.9920 -117.6590
TCL: Running FEP window  18: Lambda1 0.1499999999999997 Lambda2 0.09999999999999969 [dLambda -0.05 ]
TCL: Setting parameter firsttimestep to 0
TCL: Setting parameter alchLambda to 0.1499999999999997
Info: NONBONDED TABLE R-SQUARED SPACING: 0.0625
Info: NONBONDED TABLE SIZE: 705 POINTS
TCL: Setting parameter alchLambda2 to 0.09999999999999969
Info: NONBONDED TABLE R-SQUARED SPACING: 0.0625
Info: NONBONDED TABLE SIZE: 705 POINTS
TCL: Running for 1500000 steps
ETITLE: TS BOND ANGLE DIHED IMPRP ELECT VDW BOUNDARY MISC KINETIC TOTAL TEMP POTENTIAL TOTALAVG TEMPAVG PRESSURE GPRESSURE VOLUME PRESSAVG GPRESSAVG
ENERGY: 0 2.0060 1.4919 2.9624 0.0000 -10799.7728 1425.5206 0.0000 0.0000 1783.8919 -7583.9000 302.3052 -9367.7919 -7583.9000 302.3052 -302.8931 -234.5063 30755.2350 -302.8931 -234.5063
ENERGY: 300000 2.3776 4.7497 2.3151 0.0000 -10857.3161 1514.3715 0.0000 0.0000 1763.8765 -7569.6257 298.9133 -9333.5021 -7572.5057 298.4695 297.9208 380.6970 30694.1227 -330.9837 -244.7638
ENERGY: 600000 1.5984 2.7767 3.5061 0.0000 -10811.4298 1496.4182 0.0000 0.0000 1769.8080 -7537.3225 299.9185 -9307.1305 -7578.6592 299.2954 281.3292 312.5567 30628.2778 -34.9845 43.0122
ENERGY: 900000 0.7366 2.7712 3.8006 0.0000 -10838.9223 1463.9809 0.0000 0.0000 1796.8577 -7570.7753 304.5024 -9367.6330 -7557.6340 300.5406 0.3980 28.0835 30287.7193 -1.1507 67.7819
ENERGY: 1200000 1.6531 2.3185 1.8380 0.0000 -10703.1101 1401.1863 0.0000 0.0000 1733.3314 -7562.7828 293.7370 -9296.1142 -7553.0954 299.8261 -458.7492 -423.7826 31138.4028 -97.2519 -35.7641
ENERGY: 1500000 2.5238 1.7971 3.2471 0.0000 -10920.9203 1530.9653 0.0000 0.0000 1710.9469 -7671.4401 289.9436 -9382.3870 -7559.4414 300.1995 -17.0714 53.4033 30673.3726 -130.2416 -64.0632
TCL: Running FEP window  19: Lambda1 0.09999999999999969 Lambda2 0.049999999999999684 [dLambda -0.05 ]
TCL: Setting parameter firsttimestep to 0
TCL: Setting parameter alchLambda to 0.09999999999999969
Info: NONBONDED TABLE R-SQUARED SPACING: 0.0625
Info: NONBONDED TABLE SIZE: 705 POINTS
TCL: Setting parameter alchLambda2 to 0.049999999999999684
Info: NONBONDED TABLE R-SQUARED SPACING: 0.0625
Info: NONBONDED TABLE SIZE: 705 POINTS
TCL: Running for 1500000 steps
ETITLE: TS BOND ANGLE DIHED IMPRP ELECT VDW BOUNDARY MISC KINETIC TOTAL TEMP POTENTIAL TOTALAVG TEMPAVG PRESSURE GPRESSURE VOLUME PRESSAVG GPRESSAVG
ENERGY: 0 2.5238 1.7971 3.2471 0.0000 -10920.9208 1531.2015 0.0000 0.0000 1710.0688 -7672.0826 289.7948 -9382.1514 -7672.0826 289.7948 -10.6833 53.6963 30673.3726 -10.6833 53.6963
ENERGY: 300000 3.9550 3.8537 1.5898 0.0000 -10811.8107 1495.1966 0.0000 0.0000 1786.9534 -7520.2621 302.8240 -9307.2155 -7544.4563 301.4270 237.7840 279.4168 30255.9335 215.6553 266.3965
ENERGY: 600000 1.8654 2.1327 2.9897 0.0000 -10780.6372 1444.2587 0.0000 0.0000 1772.6452 -7556.7454 300.3993 -9329.3906 -7550.0816 301.5861 -117.9459 -36.0822 30566.7147 -83.6662 -21.0877
ENERGY: 900000 0.5523 3.2634 2.4097 0.0000 -10775.0076 1491.0749 0.0000 0.0000 1746.5851 -7531.1223 295.9830 -9277.7073 -7563.4431 299.0008 207.5213 303.7561 30830.3045 9.4467 79.1935
ENERGY: 1200000 2.7423 3.3924 1.6812 0.0000 -10848.6420 1501.2531 0.0000 0.0000 1753.8176 -7585.7554 297.2087 -9339.5731 -7566.2895 299.0546 238.6430 287.8100 30310.7610 -90.5152 -23.2739
ENERGY: 1500000 1.1567 2.2651 1.9723 0.0000 -10853.1305 1501.8763 0.0000 0.0000 1797.1989 -7548.6612 304.5602 -9345.8601 -7560.5366 299.9686 309.9387 373.3302 30250.9900 -146.9735 -79.8061
TCL: Running FEP window  20: Lambda1 0.049999999999999684 Lambda2 0.0    [dLambda -0.049999999999999684]
TCL: Setting parameter firsttimestep to 0
TCL: Setting parameter alchLambda to 0.049999999999999684
Info: NONBONDED TABLE R-SQUARED SPACING: 0.0625
Info: NONBONDED TABLE SIZE: 705 POINTS
TCL: Setting parameter alchLambda2 to 0.0
Info: NONBONDED TABLE R-SQUARED SPACING: 0.0625
Info: NONBONDED TABLE SIZE: 705 POINTS
TCL: Running for 1500000 steps
ETITLE: TS BOND ANGLE DIHED IMPRP ELECT VDW BOUNDARY MISC KINETIC TOTAL TEMP POTENTIAL TOTALAVG TEMPAVG PRESSURE GPRESSURE VOLUME PRESSAVG GPRESSAVG
ENERGY: 0 1.1567 2.2651 1.9723 0.0000 -10853.1312 1502.1389 0.0000 0.0000 1796.2684 -7549.3299 304.4025 -9345.5982 -7549.3299 304.4025 288.1227 372.0203 30250.9900 288.1227 372.0203
ENERGY: 300000 4.1100 2.3176 2.5299 0.0000 -10826.6362 1497.0675 0.0000 0.0000 1805.4222 -7515.1890 305.9538 -9320.6112 -7498.7461 302.2833 421.4113 434.4733 30255.2532 184.0467 243.9527
ENERGY: 600000 1.8063 3.0357 4.5444 0.0000 -10819.6854 1474.1650 0.0000 0.0000 1774.3122 -7561.8218 300.6818 -9336.1340 -7515.6724 300.3772 96.6527 154.6679 30451.8238 221.9500 278.7866
ENERGY: 900000 2.4809 1.5566 0.6829 0.0000 -10792.4407 1451.5657 0.0000 0.0000 1684.0276 -7652.1271 285.3818 -9336.1547 -7541.4142 298.3197 -207.1167 -138.6210 30353.6885 91.8786 149.3087
ENERGY: 1200000 2.2166 1.4542 2.1436 0.0000 -10867.1583 1525.0435 0.0000 0.0000 1743.8558 -7592.4445 295.5205 -9336.3003 -7548.8967 297.4616 543.7575 581.3618 30152.2608 66.5346 129.2033
ENERGY: 1500000 1.3673 4.1833 1.4999 0.0000 -10888.8522 1512.4295 0.0000 0.0000 1737.7915 -7631.5807 294.4928 -9369.3722 -7550.4741 297.5549 216.6555 268.7997 30718.1851 22.4405 81.3776
TCL: Exiting due to exit command.
