Info: SIMULATION PARAMETERS:
Info: TIMESTEP               2
Info: NUMBER OF STEPS        0
Info: STEPS PER CYCLE        10
Info: PERIODIC CELL BASIS 1  41.123 0 0
Info: PERIODIC CELL BASIS 2  0 39.303 0
Info: PERIODIC CELL BASIS 3  0 0 43.222
Info: PERIODIC CELL CENTER   0 0 0
Info: WRAPPING WATERS AROUND PERIODIC BOUNDARIES ON OUTPUT.
Info: WRAPPING ALL CLUSTERS AROUND PERIODIC BOUNDARIES ON OUTPUT.
Info: FIRST LDB TIMESTEP     50
Info: LAST LDB TIMESTEP     -1
Info: HOM BACKGROUND SCALING 1
Info: PME BACKGROUND SCALING 1
Info: MIN ATOMS PER PATCH    40
Info: EMPTY PATCH LOAD       40 ATOMS
Info: INITIAL TEMPERATURE    300
Info: CENTER OF MASS MOVING INITIALLY? NO
Info: DIELECTRIC             1
Info: EXCLUDE                SCALED ONE-FOUR
Info: 1-4 ELECTROSTATICS SCALED BY 0.833333
Info: MODIFIED 1-4 VDW PARAMETERS WILL BE USED
Info: DCD FILENAME           mobley_3266352_min.dcd
Info: DCD FREQUENCY          5000
Info: DCD FIRST STEP         5000
Info: DCD FILE WILL CONTAIN UNIT CELL DATA
Info: XST FILENAME           mobley_3266352_min.xst
Info: XST FREQUENCY          5000
Info: NO VELOCITY DCD OUTPUT
Info: NO FORCE DCD OUTPUT
Info: OUTPUT FILENAME        mobley_3266352_min
Info: BINARY OUTPUT FILES WILL BE USED
Info: RESTART FILENAME       mobley_3266352_min.restart
Info: RESTART FREQUENCY      5000
Info: BINARY RESTART FILES WILL BE USED
Info: CUTOFF                 9
Info: PAIRLIST DISTANCE      11
Info: PAIRLIST SHRINK RATE   0.01
Info: PAIRLIST GROW RATE     0.01
Info: PAIRLIST TRIGGER       0.3
Info: PAIRLISTS PER CYCLE    2
Info: PAIRLISTS ENABLED
Info: MARGIN                 8
Info: HYDROGEN GROUP CUTOFF  2.5
Info: PATCH DIMENSION        21.5
Info: ENERGY OUTPUT STEPS    5000
Info: ENERGY EVALUATION STEPS    5000
Info: OUTPUT ENERGY PRECISION 4
Info: CROSSTERM ENERGY INCLUDED IN DIHEDRAL
Info: TIMING OUTPUT STEPS    50000
Info: PRESSURE OUTPUT STEPS  5000
Info: LANGEVIN DYNAMICS ACTIVE
Info: LANGEVIN TEMPERATURE   300
Info: LANGEVIN USING BBK INTEGRATOR
Info: LANGEVIN DAMPING COEFFICIENT IS 1 INVERSE PS
Info: LANGEVIN DYNAMICS APPLIED TO HYDROGENS
Info: LANGEVIN PISTON PRESSURE CONTROL ACTIVE
Info:        TARGET PRESSURE IS 1.01325 BAR
Info:     OSCILLATION PERIOD IS 50 FS
Info:             DECAY TIME IS 25 FS
Info:     PISTON TEMPERATURE IS 300 K
Info:       PRESSURE CONTROL IS GROUP-BASED
Info:    INITIAL STRAIN RATE IS 0 0 0
Info:       CELL FLUCTUATION IS ISOTROPIC
Info: PARTICLE MESH EWALD (PME) ACTIVE
Info: PME TOLERANCE               1e-06
Info: PME EWALD COEFFICIENT       0.348832
Info: PME INTERPOLATION ORDER     4
Info: PME GRID DIMENSIONS         44 40 44
Info: PME MAXIMUM GRID SPACING    1
Info: FULL ELECTROSTATIC EVALUATION FREQUENCY      2
Info: USING VERLET I (r-RESPA) MTS SCHEME.
Info: C1 SPLITTING OF LONG RANGE ELECTROSTATICS
Info: PLACING ATOMS IN PATCHES BY HYDROGEN GROUPS
Info: RIGID BONDS TO HYDROGEN : ALL
Info:         ERROR TOLERANCE : 1e-08
Info:          MAX ITERATIONS : 100
Info: RIGID WATER USING SETTLE ALGORITHM
Info: RANDOM NUMBER SEED     1741328220
Info: USE HYDROGEN BONDS?    NO
Info: Using AMBER format force field!
Info: AMBER PARM FILE        mobley_3266352.prmtop
Info: COORDINATE PDB         mobley_3266352.pdb
Info: Exclusions will be read from PARM file!
Info: SCNB (VDW SCALING)     2
Info: USING ARITHMETIC MEAN TO COMBINE L-J SIGMA PARAMETERS
Info: SUMMARY OF PARAMETERS:
Info: 9 BONDS
Info: 11 ANGLES
Info:   11 HARMONIC
Info:   0 COSINE-BASED
Info: 8 DIHEDRAL
Info: 0 IMPROPER
Info: 0 CROSSTERM
Info: 0 VDW
Info: 36 VDW_PAIRS
Info: 0 NBTHOLE_PAIRS
Info: STRUCTURE SUMMARY:
Info: 5066 ATOMS
Info: 5066 BONDS
Info: 39 ANGLES
Info: 60 DIHEDRALS
Info: 0 IMPROPERS
Info: 0 CROSSTERMS
Info: 5151 EXCLUSIONS
Info: 5053 RIGID BONDS
Info: 10145 DEGREES OF FREEDOM
Info: 1694 HYDROGEN GROUPS
Info: 4 ATOMS IN LARGEST HYDROGEN GROUP
Info: 1694 MIGRATION GROUPS
Info: 4 ATOMS IN LARGEST MIGRATION GROUP
Info: TOTAL MASS = 30474.1 amu
Info: TOTAL CHARGE = 0.00010002 e
Info: MASS DENSITY = 0.724393 g/cm^3
Info: ATOM DENSITY = 0.0725187 atoms/A^3
Info: ADDED 0 IMPLICIT EXCLUSIONS
Info: NONBONDED TABLE R-SQUARED SPACING: 0.0625
Info: NONBONDED TABLE SIZE: 705 POINTS
Info: REMOVING COM VELOCITY 0.0855554 0.128556 -0.04559
TCL: Minimizing for 2000 steps
ETITLE: TS BOND ANGLE DIHED IMPRP ELECT VDW BOUNDARY MISC KINETIC TOTAL TEMP POTENTIAL TOTAL3 TEMPAVG PRESSURE GPRESSURE VOLUME PRESSAVG GPRESSAVG
ENERGY: 0 0.3463 1.0479 3.8195 0.0000 -15697.8854 1803.5121 0.0000 0.0000 0.0000 -13889.1596 0.0000 -13889.1596 -13889.1596 0.0000 11259.2066 -15453.7152 69857.8717 11259.2066 -15453.7152
ENERGY: 400 2.2335 5.2676 4.8022 0.0000 -21159.7402 3096.8155 0.0000 0.0000 0.0000 -18050.6214 0.0000 -18050.6214 -18050.6214 0.0000 15896.8319 11117.3885 69857.8717 15896.8319 11117.3885
ENERGY: 800 12.5845 7.5834 5.1911 0.0000 -22281.1911 3648.6879 0.0000 0.0000 0.0000 -18607.1442 0.0000 -18607.1442 -18607.1442 0.0000 18309.2198 13213.0874 69857.8717 18309.2198 13213.0874
ENERGY: 1200 13.5689 5.8753 6.6048 0.0000 -22825.9810 3917.7822 0.0000 0.0000 0.0000 -18882.1499 0.0000 -18882.1499 -18882.1499 0.0000 19605.4764 14383.2797 69857.8717 19605.4764 14383.2797
ENERGY: 1600 14.1760 9.2689 6.7047 0.0000 -22970.9331 3926.8709 0.0000 0.0000 0.0000 -19013.9127 0.0000 -19013.9127 -19013.9127 0.0000 19667.5395 14321.7151 69857.8717 19667.5395 14321.7151
ENERGY: 2000 0.7972 1.5622 6.6643 0.0000 -23113.1461 3992.9262 0.0000 0.0000 0.0000 -19111.1962 0.0000 -19111.1962 -19111.1962 0.0000 20067.9786 14738.9707 69857.8717 20067.9786 14738.9707
TCL: Exiting due to exit command.
Info: NAMD 3.0.1 for Linux-x86_64-multicore
Info: Please visit http://www.ks.uiuc.edu/Research/namd/
Info: for updates, documentation, and support information.
Info: Please cite Phillips et al., J. Chem. Phys. 153:044130 (2020) doi:10.1063/5.0014475
Info: in all publications reporting results obtained with NAMD.
Info: Based on Charm++/Converse 80000 for multicore-linux-x86_64-gcc
Info: Built Mon Oct 14 11:11:06 CDT 2024 by dhardy on athine.ks.uiuc.edu
Info: 1 NAMD  3.0.1  Linux-x86_64-multicore  16    k061  z5358697
Info: Running on 16 processors, 1 nodes, 1 physical nodes.
Info: CPU topology information available.
Info: Charm++/Converse parallel runtime startup completed at 0.00905172 s
Info: 1043.46 MB of memory in use based on /proc/self/stat
Info: Configuration file is mobley_3266352_equil.namd
Info: Working in the current directory /srv/scratch/z5358697/prod_prep_4/3266352
TCL: Running 25000 steps at 30 kelvin.
TCL: Suspending until startup complete.
Info: SIMULATION PARAMETERS:
Info: TIMESTEP               2
Info: NUMBER OF STEPS        0
Info: STEPS PER CYCLE        10
Info: PERIODIC CELL BASIS 1  41.123 0 0
Info: PERIODIC CELL BASIS 2  0 39.303 0
Info: PERIODIC CELL BASIS 3  0 0 43.222
Info: PERIODIC CELL CENTER   0 0 0
Info: WRAPPING WATERS AROUND PERIODIC BOUNDARIES ON OUTPUT.
Info: WRAPPING ALL CLUSTERS AROUND PERIODIC BOUNDARIES ON OUTPUT.
Info: FIRST LDB TIMESTEP     50
Info: LAST LDB TIMESTEP     -1
Info: HOM BACKGROUND SCALING 1
Info: PME BACKGROUND SCALING 1
Info: MIN ATOMS PER PATCH    40
Info: EMPTY PATCH LOAD       40 ATOMS
Info: INITIAL TEMPERATURE    300
Info: CENTER OF MASS MOVING INITIALLY? NO
Info: DIELECTRIC             1
Info: EXCLUDE                SCALED ONE-FOUR
Info: 1-4 ELECTROSTATICS SCALED BY 0.833333
Info: MODIFIED 1-4 VDW PARAMETERS WILL BE USED
Info: DCD FILENAME           mobley_3266352_equil.dcd
Info: DCD FREQUENCY          5000
Info: DCD FIRST STEP         5000
Info: DCD FILE WILL CONTAIN UNIT CELL DATA
Info: XST FILENAME           mobley_3266352_equil.xst
Info: XST FREQUENCY          5000
Info: NO VELOCITY DCD OUTPUT
Info: NO FORCE DCD OUTPUT
Info: OUTPUT FILENAME        mobley_3266352_equil
Info: BINARY OUTPUT FILES WILL BE USED
Info: RESTART FILENAME       mobley_3266352_equil.restart
Info: RESTART FREQUENCY      5000
Info: BINARY RESTART FILES WILL BE USED
Info: CUTOFF                 9
Info: PAIRLIST DISTANCE      11
Info: PAIRLIST SHRINK RATE   0.01
Info: PAIRLIST GROW RATE     0.01
Info: PAIRLIST TRIGGER       0.3
Info: PAIRLISTS PER CYCLE    2
Info: PAIRLISTS ENABLED
Info: MARGIN                 8
Info: HYDROGEN GROUP CUTOFF  2.5
Info: PATCH DIMENSION        21.5
Info: ENERGY OUTPUT STEPS    5000
Info: ENERGY EVALUATION STEPS    5000
Info: OUTPUT ENERGY PRECISION 4
Info: CROSSTERM ENERGY INCLUDED IN DIHEDRAL
Info: TIMING OUTPUT STEPS    50000
Info: PRESSURE OUTPUT STEPS  5000
Info: LANGEVIN DYNAMICS ACTIVE
Info: LANGEVIN TEMPERATURE   30
Info: LANGEVIN USING BBK INTEGRATOR
Info: LANGEVIN DAMPING COEFFICIENT IS 1 INVERSE PS
Info: LANGEVIN DYNAMICS APPLIED TO HYDROGENS
Info: LANGEVIN PISTON PRESSURE CONTROL ACTIVE
Info:        TARGET PRESSURE IS 1.01325 BAR
Info:     OSCILLATION PERIOD IS 50 FS
Info:             DECAY TIME IS 25 FS
Info:     PISTON TEMPERATURE IS 300 K
Info:       PRESSURE CONTROL IS GROUP-BASED
Info:    INITIAL STRAIN RATE IS 0 0 0
Info:       CELL FLUCTUATION IS ISOTROPIC
Info: PARTICLE MESH EWALD (PME) ACTIVE
Info: PME TOLERANCE               1e-06
Info: PME EWALD COEFFICIENT       0.348832
Info: PME INTERPOLATION ORDER     4
Info: PME GRID DIMENSIONS         44 40 44
Info: PME MAXIMUM GRID SPACING    1
Info: FULL ELECTROSTATIC EVALUATION FREQUENCY      2
Info: USING VERLET I (r-RESPA) MTS SCHEME.
Info: C1 SPLITTING OF LONG RANGE ELECTROSTATICS
Info: PLACING ATOMS IN PATCHES BY HYDROGEN GROUPS
Info: RIGID BONDS TO HYDROGEN : ALL
Info:         ERROR TOLERANCE : 1e-08
Info:          MAX ITERATIONS : 100
Info: RIGID WATER USING SETTLE ALGORITHM
Info: RANDOM NUMBER SEED     1741328235
Info: USE HYDROGEN BONDS?    NO
Info: Using AMBER format force field!
Info: AMBER PARM FILE        mobley_3266352.prmtop
Info: COORDINATE PDB         mobley_3266352.pdb
Info: Exclusions will be read from PARM file!
Info: SCNB (VDW SCALING)     2
Info: USING ARITHMETIC MEAN TO COMBINE L-J SIGMA PARAMETERS
Info: BINARY COORDINATES     mobley_3266352_min.coor
Info: SUMMARY OF PARAMETERS:
Info: 9 BONDS
Info: 11 ANGLES
Info:   11 HARMONIC
Info:   0 COSINE-BASED
Info: 8 DIHEDRAL
Info: 0 IMPROPER
Info: 0 CROSSTERM
Info: 0 VDW
Info: 36 VDW_PAIRS
Info: 0 NBTHOLE_PAIRS
Info: STRUCTURE SUMMARY:
Info: 5066 ATOMS
Info: 5066 BONDS
Info: 39 ANGLES
Info: 60 DIHEDRALS
Info: 0 IMPROPERS
Info: 0 CROSSTERMS
Info: 5151 EXCLUSIONS
Info: 5053 RIGID BONDS
Info: 10145 DEGREES OF FREEDOM
Info: 1694 HYDROGEN GROUPS
Info: 4 ATOMS IN LARGEST HYDROGEN GROUP
Info: 1694 MIGRATION GROUPS
Info: 4 ATOMS IN LARGEST MIGRATION GROUP
Info: TOTAL MASS = 30474.1 amu
Info: TOTAL CHARGE = 0.00010002 e
Info: MASS DENSITY = 0.724393 g/cm^3
Info: ATOM DENSITY = 0.0725187 atoms/A^3
Info: ADDED 0 IMPLICIT EXCLUSIONS
Info: NONBONDED TABLE R-SQUARED SPACING: 0.0625
Info: NONBONDED TABLE SIZE: 705 POINTS
Info: REMOVING COM VELOCITY 0.0357467 -0.23353 0.0519919
TCL: Running for 25000 steps
ETITLE: TS BOND ANGLE DIHED IMPRP ELECT VDW BOUNDARY MISC KINETIC TOTAL TEMP POTENTIAL TOTAL3 TEMPAVG PRESSURE GPRESSURE VOLUME PRESSAVG GPRESSAVG
ENERGY: 0 0.7972 1.5622 6.6643 0.0000 -23113.1461 3992.9262 0.0000 0.0000 3019.9146 -16091.2815 299.5939 -19111.1962 -16090.6819 299.5939 285.0820 323.6982 69857.8717 285.0820 323.6982
ENERGY: 5000 1.7763 1.9567 6.8985 0.0000 -24268.5044 4225.4550 0.0000 0.0000 309.8504 -19722.5676 30.7390 -20032.4180 -19722.0687 47.8887 203.7186 245.5386 48540.0185 5.6391 5.4589
ENERGY: 10000 1.0401 2.2852 6.0129 0.0000 -24164.8320 4080.1361 0.0000 0.0000 306.4102 -19768.9474 30.3978 -20075.3576 -19768.1642 30.3650 -559.3011 -526.5912 48671.5561 2.5693 2.7757
ENERGY: 15000 0.7263 2.2301 6.2633 0.0000 -24244.7460 4131.8916 0.0000 0.0000 299.1043 -19804.5304 29.6730 -20103.6347 -19803.8529 30.0552 -280.8625 -236.1948 48514.9230 1.9404 2.0403
ENERGY: 20000 0.8142 2.0720 6.6074 0.0000 -24472.2701 4334.7799 0.0000 0.0000 303.2300 -19824.7665 30.0823 -20127.9965 -19824.3792 30.1292 695.7145 745.1930 48162.1043 3.3943 3.2034
ENERGY: 25000 2.1751 1.5357 6.6616 0.0000 -24362.3392 4222.2853 0.0000 0.0000 300.6997 -19828.9819 29.8312 -20129.6815 -19828.3639 30.1097 38.7224 96.6598 48347.5839 4.6027 4.4781
TCL: Running 25000 steps at 60 kelvin.
TCL: Setting parameter langevinTemp to 60
TCL: Running for 25000 steps
ETITLE: TS BOND ANGLE DIHED IMPRP ELECT VDW BOUNDARY MISC KINETIC TOTAL TEMP POTENTIAL TOTAL3 TEMPAVG PRESSURE GPRESSURE VOLUME PRESSAVG GPRESSAVG
ENERGY: 25000 2.1751 1.5357 6.6616 0.0000 -24362.3392 4222.2853 0.0000 0.0000 300.5466 -19829.1349 29.8161 -20129.6815 -19828.3960 29.8161 44.9751 96.4964 48347.5839 44.9751 96.4964
ENERGY: 30000 1.8215 2.7842 6.3413 0.0000 -23809.3578 3940.6427 0.0000 0.0000 605.3321 -19252.4359 60.0526 -19857.7681 -19250.6156 57.4042 -680.6748 -636.3284 48661.4313 1.7004 1.7971
ENERGY: 35000 1.3167 2.5536 6.5265 0.0000 -24113.7095 4194.7367 0.0000 0.0000 614.4285 -19294.1474 60.9551 -19908.5759 -19292.7574 60.5884 485.5189 551.4165 48337.2041 -2.0857 -1.8864
ENERGY: 40000 1.5190 3.3040 6.3514 0.0000 -23956.4526 4003.8697 0.0000 0.0000 600.0279 -19341.3805 59.5264 -19941.4085 -19339.1952 59.7545 -474.6877 -449.9552 48522.9060 4.3262 4.2812
ENERGY: 45000 1.8654 1.8044 6.7284 0.0000 -24095.2868 4144.8160 0.0000 0.0000 602.6506 -19337.4220 59.7866 -19940.0726 -19336.1774 59.6263 118.9222 197.2632 48427.6863 1.9007 2.1875
ENERGY: 50000 1.0490 3.8272 6.8274 0.0000 -24040.5200 4061.2429 0.0000 0.0000 613.7898 -19353.7836 60.8917 -19967.5734 -19351.8817 59.8813 -204.5306 -181.7843 48446.2037 -2.1901 -2.3778
TCL: Running 25000 steps at 90 kelvin.
TCL: Setting parameter langevinTemp to 90
TCL: Running for 25000 steps
ETITLE: TS BOND ANGLE DIHED IMPRP ELECT VDW BOUNDARY MISC KINETIC TOTAL TEMP POTENTIAL TOTAL3 TEMPAVG PRESSURE GPRESSURE VOLUME PRESSAVG GPRESSAVG
ENERGY: 50000 1.0490 3.8272 6.8274 0.0000 -24040.5200 4061.2429 0.0000 0.0000 613.4891 -19354.0843 60.8619 -19967.5734 -19352.5930 60.8619 -222.8847 -181.4425 48446.2037 -222.8847 -181.4425
ENERGY: 55000 1.3407 3.5276 6.0302 0.0000 -23703.8873 4031.0564 0.0000 0.0000 895.1147 -18766.8177 88.8008 -19661.9324 -18763.7627 86.9523 284.5497 329.0871 48673.4940 4.7117 4.5230
ENERGY: 60000 3.6604 3.1523 6.9227 0.0000 -23711.4413 4004.8611 0.0000 0.0000 865.2692 -18827.5755 85.8400 -19692.8447 -18825.3089 89.7316 21.0102 77.7209 48606.2908 -1.4825 -1.3045
ENERGY: 65000 1.8962 3.1056 5.7170 0.0000 -23724.5613 4019.2711 0.0000 0.0000 928.5265 -18766.0450 92.1155 -19694.5715 -18764.4834 89.7955 271.0516 304.8138 48505.0516 3.8145 3.9478
ENERGY: 70000 2.5372 2.6745 6.0504 0.0000 -23770.6476 4051.9772 0.0000 0.0000 933.5769 -18773.8314 92.6165 -19707.4083 -18770.8924 90.7135 246.9741 349.1366 48567.3188 -3.1911 -2.8354
ENERGY: 75000 1.9105 4.3809 6.2080 0.0000 -23654.7061 3906.9477 0.0000 0.0000 912.1884 -18823.0705 90.4946 -19735.2589 -18820.5734 90.4816 -572.1980 -528.7599 48900.0191 0.7303 0.4173
TCL: Running 25000 steps at 120 kelvin.
TCL: Setting parameter langevinTemp to 120
TCL: Running for 25000 steps
ETITLE: TS BOND ANGLE DIHED IMPRP ELECT VDW BOUNDARY MISC KINETIC TOTAL TEMP POTENTIAL TOTAL3 TEMPAVG PRESSURE GPRESSURE VOLUME PRESSAVG GPRESSAVG
ENERGY: 75000 1.9105 4.3809 6.2080 0.0000 -23654.7061 3906.9477 0.0000 0.0000 911.7320 -18823.5269 90.4494 -19735.2589 -18821.5292 90.4494 -581.5602 -529.0674 48900.0191 -581.5602 -529.0674
ENERGY: 80000 1.9675 3.1257 7.5798 0.0000 -23299.2171 3896.3652 0.0000 0.0000 1219.7350 -18170.4439 121.0051 -19390.1789 -18167.4248 117.0854 254.2864 310.0166 48958.4902 1.1990 1.5070
ENERGY: 85000 2.2966 4.1270 5.8124 0.0000 -23450.3172 3999.1034 0.0000 0.0000 1218.4425 -18220.5354 120.8769 -19438.9779 -18217.6656 120.1157 708.3757 731.9741 48690.2134 3.5316 3.7845
ENERGY: 90000 2.4731 3.6771 6.2128 0.0000 -23395.7813 3920.2442 0.0000 0.0000 1200.3586 -18262.8155 119.0829 -19463.1741 -18260.8504 119.6628 209.6581 222.2021 48797.8442 2.5239 2.2577
ENERGY: 95000 2.0940 3.3333 6.8543 0.0000 -23541.4116 4064.2730 0.0000 0.0000 1229.5284 -18235.3287 121.9767 -19464.8570 -18232.7735 120.1403 921.5729 985.9018 48576.1001 2.4252 2.5217
ENERGY: 100000 1.4704 4.0348 9.8045 0.0000 -23264.6896 3767.5793 0.0000 0.0000 1230.1734 -18251.6273 122.0407 -19481.8007 -18247.8691 120.2338 -654.5414 -570.3104 49033.3545 6.6158 6.2312
TCL: Running 25000 steps at 150 kelvin.
TCL: Setting parameter langevinTemp to 150
TCL: Running for 25000 steps
ETITLE: TS BOND ANGLE DIHED IMPRP ELECT VDW BOUNDARY MISC KINETIC TOTAL TEMP POTENTIAL TOTAL3 TEMPAVG PRESSURE GPRESSURE VOLUME PRESSAVG GPRESSAVG
ENERGY: 100000 1.4704 4.0348 9.8045 0.0000 -23264.6897 3767.5793 0.0000 0.0000 1229.5848 -18252.2159 121.9823 -19481.8007 -18249.6512 121.9823 -617.9444 -569.5030 49033.3545 -617.9444 -569.5030
ENERGY: 105000 4.1712 5.8272 6.3240 0.0000 -22900.2925 3725.1412 0.0000 0.0000 1532.7747 -17626.0542 152.0606 -19158.8289 -17622.3428 148.1048 -254.1968 -206.1584 49254.8351 1.0804 1.3817
ENERGY: 110000 2.8375 6.1201 7.6204 0.0000 -22859.5396 3699.2093 0.0000 0.0000 1497.3335 -17646.4188 148.5446 -19143.7523 -17641.1235 149.3961 -407.2921 -344.4727 49673.5507 2.7819 2.8559
ENERGY: 115000 3.1603 7.2303 6.1050 0.0000 -22898.0248 3699.9839 0.0000 0.0000 1501.9976 -17679.5477 149.0073 -19181.5453 -17677.3608 150.2336 -364.9573 -275.6837 49311.3696 5.7617 5.5428
ENERGY: 120000 3.7863 4.1868 5.4505 0.0000 -23073.9219 3858.1212 0.0000 0.0000 1514.3589 -17688.0183 150.2336 -19202.3771 -17684.9276 150.0154 321.8949 355.6872 49367.6747 3.6322 3.7124
ENERGY: 125000 4.4430 9.1882 4.6949 0.0000 -22891.7708 3684.0270 0.0000 0.0000 1503.9300 -17685.4877 149.1990 -19189.4177 -17682.2725 151.0207 -573.2458 -545.3231 49717.8895 4.8324 5.4389
TCL: Running 50000 steps at 180 kelvin.
TCL: Setting parameter langevinTemp to 180
TCL: Running for 50000 steps
ETITLE: TS BOND ANGLE DIHED IMPRP ELECT VDW BOUNDARY MISC KINETIC TOTAL TEMP POTENTIAL TOTAL3 TEMPAVG PRESSURE GPRESSURE VOLUME PRESSAVG GPRESSAVG
ENERGY: 125000 4.4430 9.1882 4.6949 0.0000 -22891.7708 3684.0270 0.0000 0.0000 1503.1726 -17686.2451 149.1239 -19189.4177 -17682.9175 149.1239 -600.2724 -545.5208 49717.8895 -600.2724 -545.5208
ENERGY: 135000 1.7003 6.2229 8.1464 0.0000 -22394.0993 3590.9427 0.0000 0.0000 1791.3272 -16995.7598 177.7106 -18787.0870 -16990.4054 179.8110 -274.3612 -184.8597 49993.5480 3.6633 4.1427
ENERGY: 145000 3.6330 8.5741 5.9336 0.0000 -22222.9473 3445.5445 0.0000 0.0000 1758.3786 -17000.8836 174.4419 -18759.2622 -16994.9011 180.8161 -900.1246 -851.3449 50000.6400 2.3274 2.0990
ENERGY: 155000 4.6935 4.1171 5.5645 0.0000 -22367.7925 3551.0974 0.0000 0.0000 1825.1929 -16977.1271 181.0702 -18802.3200 -16972.7429 181.5283 -563.4085 -502.1121 50076.0248 -0.3240 -0.4875
ENERGY: 165000 4.8033 8.5426 4.7189 0.0000 -22405.0917 3577.7543 0.0000 0.0000 1810.3601 -16998.9125 179.5987 -18809.2726 -16994.2257 180.4288 -319.6423 -285.6096 49669.2849 5.0189 5.6723
ENERGY: 175000 7.5709 6.9749 7.7885 0.0000 -22522.7694 3716.1303 0.0000 0.0000 1827.8309 -16956.4739 181.3320 -18784.3048 -16953.4523 180.2672 446.6376 502.6688 49390.0834 3.6999 3.2095
TCL: Running 50000 steps at 210 kelvin.
TCL: Setting parameter langevinTemp to 210
TCL: Running for 50000 steps
ETITLE: TS BOND ANGLE DIHED IMPRP ELECT VDW BOUNDARY MISC KINETIC TOTAL TEMP POTENTIAL TOTAL3 TEMPAVG PRESSURE GPRESSURE VOLUME PRESSAVG GPRESSAVG
ENERGY: 175000 7.5709 6.9749 7.7885 0.0000 -22522.7694 3716.1303 0.0000 0.0000 1826.9532 -16957.3516 181.2449 -18784.3048 -16953.9022 181.2449 446.5243 500.7364 49390.0834 446.5243 500.7364
ENERGY: 185000 3.7836 7.4622 8.1910 0.0000 -21476.9822 3333.8126 0.0000 0.0000 2098.6263 -16025.1063 208.1965 -18123.7327 -16021.5099 210.3742 225.3775 288.5850 49330.4136 2.5427 2.2602
ENERGY: 195000 2.9506 6.8979 9.5294 0.0000 -21334.2499 3274.0865 0.0000 0.0000 2139.7512 -15901.0344 212.2763 -18040.7856 -15898.3385 210.9798 115.8784 241.7619 49271.5257 5.3524 5.7288
ENERGY: 205000 6.6198 5.6025 9.2723 0.0000 -21308.7533 3241.7802 0.0000 0.0000 2103.4124 -15942.0661 208.6713 -18045.4785 -15938.3668 207.8820 -191.9652 -112.2894 49703.3830 5.3032 5.4190
ENERGY: 215000 2.4188 4.8909 9.1576 0.0000 -21336.0376 3218.5930 0.0000 0.0000 2115.1589 -15985.8182 209.8366 -18100.9772 -15980.7777 209.6455 -221.0113 -153.5956 48927.4477 -0.3122 -0.4886
ENERGY: 225000 3.2219 7.4058 9.0220 0.0000 -21153.0407 3160.3671 0.0000 0.0000 2085.8272 -15887.1967 206.9268 -17973.0239 -15882.3562 210.5743 -83.7889 -17.3788 48608.3278 1.5480 2.3099
TCL: Running 50000 steps at 240 kelvin.
TCL: Setting parameter langevinTemp to 240
TCL: Running for 50000 steps
ETITLE: TS BOND ANGLE DIHED IMPRP ELECT VDW BOUNDARY MISC KINETIC TOTAL TEMP POTENTIAL TOTAL3 TEMPAVG PRESSURE GPRESSURE VOLUME PRESSAVG GPRESSAVG
ENERGY: 225000 3.2219 7.4058 9.0220 0.0000 -21153.0407 3160.3671 0.0000 0.0000 2084.7686 -15888.2553 206.8217 -17973.0239 -15884.9920 206.8217 -92.6435 -17.2949 48608.3278 -92.6435 -17.2949
ENERGY: 235000 4.4523 7.2425 8.7668 0.0000 -20142.9574 2896.5776 0.0000 0.0000 2466.7576 -14759.1607 244.7174 -17225.9183 -14757.0709 239.5770 22.2347 79.3867 49418.1623 0.5708 1.2392
ENERGY: 245000 3.0373 7.0540 8.8482 0.0000 -20261.2620 2918.8063 0.0000 0.0000 2361.2686 -14962.2476 234.2522 -17323.5162 -14958.7744 238.8937 -405.2079 -301.2751 50202.6677 0.5738 0.3144
ENERGY: 255000 3.5857 6.9117 6.7362 0.0000 -20192.6138 2871.0980 0.0000 0.0000 2444.7890 -14859.4932 242.5380 -17304.2822 -14855.1958 239.8793 -379.2808 -259.9928 49734.2607 4.9754 5.2233
ENERGY: 265000 4.6952 8.9640 8.4605 0.0000 -20089.6937 2866.3450 0.0000 0.0000 2466.6578 -14734.5713 244.7075 -17201.2290 -14731.1248 240.5263 -315.1506 -197.7512 50083.5854 1.1540 1.0859
ENERGY: 275000 8.0093 10.2467 12.3704 0.0000 -20197.3216 2923.5593 0.0000 0.0000 2442.4032 -14800.7327 242.3013 -17243.1359 -14794.0245 241.3461 -247.6698 -155.2970 50114.4185 0.2031 0.4277
TCL: Running 50000 steps at 270 kelvin.
TCL: Setting parameter langevinTemp to 270
TCL: Running for 50000 steps
ETITLE: TS BOND ANGLE DIHED IMPRP ELECT VDW BOUNDARY MISC KINETIC TOTAL TEMP POTENTIAL TOTAL3 TEMPAVG PRESSURE GPRESSURE VOLUME PRESSAVG GPRESSAVG
ENERGY: 275000 8.0093 10.2467 12.3704 0.0000 -20197.3216 2923.5593 0.0000 0.0000 2441.2044 -14801.9315 242.1823 -17243.1359 -14797.9059 242.1823 -225.3512 -153.8724 50114.4185 -225.3512 -153.8724
ENERGY: 285000 2.9911 9.5557 6.8493 0.0000 -19092.9162 2538.9720 0.0000 0.0000 2750.7561 -13783.7920 272.8918 -16534.5482 -13775.3227 269.1520 -769.7960 -659.6291 51246.1173 5.2485 4.3562
ENERGY: 295000 6.4316 11.0713 7.5645 0.0000 -19240.8979 2740.8300 0.0000 0.0000 2669.0552 -13805.9453 264.7865 -16475.0005 -13798.5989 270.6510 276.4365 401.1954 50540.8796 3.3748 3.7391
ENERGY: 305000 5.6470 10.7082 7.1826 0.0000 -19208.2631 2667.3517 0.0000 0.0000 2737.0056 -13780.3680 271.5276 -16517.3735 -13774.8773 270.2639 37.2878 144.8980 50484.1733 1.7931 1.7984
ENERGY: 315000 3.0041 5.8871 12.9943 0.0000 -19250.3624 2667.6534 0.0000 0.0000 2790.7387 -13770.0847 276.8583 -16560.8234 -13763.4957 268.4442 52.9834 177.7048 50399.8246 2.3918 2.3330
ENERGY: 325000 5.2599 10.9850 11.0070 0.0000 -19334.2379 2716.5877 0.0000 0.0000 2682.2090 -13908.1894 266.0915 -16590.3984 -13904.0825 271.6007 39.4859 65.6375 51131.6488 1.4816 1.8174
TCL: Running 1000000 steps at 300 kelvin.
TCL: Setting parameter langevinTemp to 300
TCL: Running for 1000000 steps
ETITLE: TS BOND ANGLE DIHED IMPRP ELECT VDW BOUNDARY MISC KINETIC TOTAL TEMP POTENTIAL TOTAL3 TEMPAVG PRESSURE GPRESSURE VOLUME PRESSAVG GPRESSAVG
ENERGY: 325000 5.2599 10.9850 11.0070 0.0000 -19334.2379 2716.5877 0.0000 0.0000 2680.8408 -13909.5577 265.9557 -16590.3984 -13905.3978 265.9557 -19.6973 65.6020 51131.6488 -19.6973 65.6020
ENERGY: 525000 2.2351 10.0138 8.1017 0.0000 -18404.4548 2548.5567 0.0000 0.0000 3024.6196 -12810.9279 300.0607 -15835.5475 -12803.5311 299.8517 375.0919 449.7174 52128.9727 0.0097 0.4658
ENERGY: 725000 6.5266 8.3269 10.5827 0.0000 -18361.2270 2514.6746 0.0000 0.0000 2986.8410 -12834.2752 296.3128 -15821.1163 -12830.5545 299.1477 289.6733 355.6917 52202.7872 1.8525 1.6317
ENERGY: 925000 6.0701 8.8014 6.9591 0.0000 -18248.6720 2380.5922 0.0000 0.0000 3042.1808 -12804.0684 301.8029 -15846.2492 -12799.4964 301.8404 -593.3466 -542.2673 52957.0619 7.4636 8.1632
ENERGY: 1125000 3.3418 9.1283 5.0657 0.0000 -18060.6084 2384.6906 0.0000 0.0000 3043.5193 -12614.8628 301.9357 -15658.3821 -12609.3839 300.0016 -14.8891 53.0886 52509.8424 3.0495 3.0776
ENERGY: 1325000 4.3112 7.3215 7.6570 0.0000 -18299.0821 2430.4064 0.0000 0.0000 3008.1893 -12841.1967 298.4307 -15849.3860 -12834.7493 299.5483 -158.3751 -59.0210 51809.2639 1.4546 1.8692
TCL: Exiting due to exit command.
