Info: SIMULATION PARAMETERS:
Info: TIMESTEP               1
Info: NUMBER OF STEPS        0
Info: STEPS PER CYCLE        10
Info: PERIODIC CELL BASIS 1  30 0 0
Info: PERIODIC CELL BASIS 2  0 30 0
Info: PERIODIC CELL BASIS 3  0 0 30
Info: PERIODIC CELL CENTER   0 0 0
Info: WRAPPING ALL CLUSTERS AROUND PERIODIC BOUNDARIES ON OUTPUT.
Info: FIRST LDB TIMESTEP     50
Info: LAST LDB TIMESTEP     -1
Info: HOM BACKGROUND SCALING 1
Info: MIN ATOMS PER PATCH    40
Info: EMPTY PATCH LOAD       40 ATOMS
Info: INITIAL TEMPERATURE    298
Info: CENTER OF MASS MOVING INITIALLY? NO
Info: DIELECTRIC             1
Info: EXCLUDE                SCALED ONE-FOUR
Info: 1-4 ELECTROSTATICS SCALED BY 1
Info: MODIFIED 1-4 VDW PARAMETERS WILL BE USED
Info: DCD FILENAME           output.dcd
Info: DCD FREQUENCY          5000
Info: DCD FIRST STEP         5000
Info: DCD FILE WILL CONTAIN UNIT CELL DATA
Info: NO EXTENDED SYSTEM TRAJECTORY OUTPUT
Info: NO VELOCITY DCD OUTPUT
Info: NO FORCE DCD OUTPUT
Info: OUTPUT FILENAME        output
Info: BINARY OUTPUT FILES WILL BE USED
Info: NO RESTART FILE
Info: SWITCHING ACTIVE
Info: SWITCHING ON           10
Info: SWITCHING OFF          12
Info: PAIRLIST DISTANCE      14
Info: PAIRLIST SHRINK RATE   0.01
Info: PAIRLIST GROW RATE     0.01
Info: PAIRLIST TRIGGER       0.3
Info: PAIRLISTS PER CYCLE    2
Info: PAIRLISTS ENABLED
Info: MARGIN                 0
Info: HYDROGEN GROUP CUTOFF  2.5
Info: PATCH DIMENSION        16.5
Info: ENERGY OUTPUT STEPS    5000
Info: ENERGY EVALUATION STEPS    5000
Info: OUTPUT ENERGY PRECISION 4
Info: CROSSTERM ENERGY INCLUDED IN DIHEDRAL
Info: TIMING OUTPUT STEPS    5000
Info: LANGEVIN DYNAMICS ACTIVE
Info: LANGEVIN TEMPERATURE   298
Info: LANGEVIN USING BBK INTEGRATOR
Info: LANGEVIN DAMPING COEFFICIENT IS 1 INVERSE PS
Info: LANGEVIN DYNAMICS NOT APPLIED TO HYDROGENS
Info: MULTILEVEL SUMMATION METHOD (MSM) FOR ELECTROSTATICS ACTIVE
Info: MSM WITH C1 CUBIC INTERPOLATION AND C2 TAYLOR SPLITTING
Info: FULL ELECTROSTATIC EVALUATION FREQUENCY      1
Info: USING VERLET I (r-RESPA) MTS SCHEME.
Info: C1 SPLITTING OF LONG RANGE ELECTROSTATICS
Info: PLACING ATOMS IN PATCHES BY HYDROGEN GROUPS
Info: RIGID BONDS TO HYDROGEN : ALL
Info:         ERROR TOLERANCE : 1e-08
Info:          MAX ITERATIONS : 100
Info: RIGID WATER USING SETTLE ALGORITHM
Info: RANDOM NUMBER SEED     1740224368
Info: USE HYDROGEN BONDS?    NO
Info: COORDINATE PDB         ionized.pdb
Info: STRUCTURE FILE         ionized.psf
Info: PARAMETER file: CHARMM format!
Info: PARAMETERS             par_all27_prot_lipid.inp
Info: USING ARITHMETIC MEAN TO COMBINE L-J SIGMA PARAMETERS
Info: SUMMARY OF PARAMETERS:
Info: 180 BONDS
Info: 447 ANGLES
Info: 566 DIHEDRAL
Info: 46 IMPROPER
Info: 6 CROSSTERM
Info: 119 VDW
Info: 0 VDW_PAIRS
Info: 0 NBTHOLE_PAIRS
Info: STRUCTURE SUMMARY:
Info: 2476 ATOMS
Info: 1650 BONDS
Info: 825 ANGLES
Info: 0 DIHEDRALS
Info: 0 IMPROPERS
Info: 0 CROSSTERMS
Info: 0 EXCLUSIONS
Info: 2475 RIGID BONDS
Info: 4953 DEGREES OF FREEDOM
Info: 826 HYDROGEN GROUPS
Info: 3 ATOMS IN LARGEST HYDROGEN GROUP
Info: 826 MIGRATION GROUPS
Info: 3 ATOMS IN LARGEST MIGRATION GROUP
Info: TOTAL MASS = 14885.7 amu
Info: TOTAL CHARGE = 1 e
Info: MASS DENSITY = 0.915513 g/cm^3
Info: ATOM DENSITY = 0.0917037 atoms/A^3
Info: ADDED 2475 IMPLICIT EXCLUSIONS
Info: NONBONDED TABLE R-SQUARED SPACING: 0.0625
Info: NONBONDED TABLE SIZE: 769 POINTS
Info: REMOVING COM VELOCITY 0.00336356 0.105687 -0.0350831
Info: MSM using C1 cubic interpolation
Info: MSM using C2 Taylor splitting function
Info: MSM block size decomposition along X is 8 grid points
Info: MSM block size decomposition along Y is 8 grid points
Info: MSM block size decomposition along Z is 8 grid points
Info: MSM grid spacing along X is 2.5 A
Info: MSM grid spacing along Y is 2.5 A
Info: MSM grid spacing along Z is 2.5 A
Info: MSM using 3 levels
Info:     level 0:  [0..11] x [0..11] x [0..11]
Info:     level 1:  [0..5] x [0..5] x [0..5]
Info:     level 2:  [0..2] x [0..2] x [0..2]
Info: MSM finished calculating stencils
Info: MSM finished creating map for grid levels
Info: MSM finished creating map for patches
Info: MSM has 9 interpolation / anterpolation objects (one per patch)
Info: MSM grid level 0 decomposed into 8 blocks ( 2 x 2 x 2 )
Info: MSM grid level 1 decomposed into 1 block ( 1 x 1 x 1 )
Info: MSM grid level 2 decomposed into 1 block ( 1 x 1 x 1 )
Info: MSM grid cutoff calculation decomposed into 783 work objects
TCL: Minimizing for 100 steps
ETITLE: TS BOND ANGLE DIHED IMPRP ELECT VDW BOUNDARY MISC KINETIC TOTAL TEMP POTENTIAL TOTAL3 TEMPAVG PRESSURE GPRESSURE VOLUME PRESSAVG GPRESSAVG
ENERGY: 0 0.0000 0.0000 0.0000 0.0000 -7348.6495 6353.7252 0.0000 0.0000 0.0000 -994.9244 0.0000 -994.9244 -994.9244 0.0000 75204.0846 46356.0500 27000.0000 75204.0846 46356.0500
ENERGY: 20 0.0000 0.0000 0.0000 0.0000 -8744.5978 644.7588 0.0000 0.0000 0.0000 -8099.8391 0.0000 -8099.8391 -8099.8391 0.0000 14286.6720 -2608.4253 27000.0000 14286.6720 -2608.4253
ENERGY: 40 0.0000 0.0000 0.0000 0.0000 -9255.3680 673.7887 0.0000 0.0000 0.0000 -8581.5792 0.0000 -8581.5792 -8581.5792 0.0000 14306.7124 -3612.4724 27000.0000 14306.7124 -3612.4724
ENERGY: 60 0.0000 0.0000 0.0000 0.0000 -9570.7002 738.1054 0.0000 0.0000 0.0000 -8832.5948 0.0000 -8832.5948 -8832.5948 0.0000 14889.9943 -3661.0807 27000.0000 14889.9943 -3661.0807
ENERGY: 80 0.0000 0.0000 0.0000 0.0000 -9709.9024 782.3663 0.0000 0.0000 0.0000 -8927.5361 0.0000 -8927.5361 -8927.5361 0.0000 15330.7193 -3519.6551 27000.0000 15330.7193 -3519.6551
ENERGY: 100 0.0000 0.0000 0.0000 0.0000 -9872.4358 824.8817 0.0000 0.0000 0.0000 -9047.5541 0.0000 -9047.5541 -9047.5541 0.0000 15759.6231 15681.2432 27000.0000 15759.6231 15681.2432
TCL: Running for 1000000 steps
ETITLE: TS BOND ANGLE DIHED IMPRP ELECT VDW BOUNDARY MISC KINETIC TOTAL TEMP POTENTIAL TOTAL3 TEMPAVG PRESSURE GPRESSURE VOLUME PRESSAVG GPRESSAVG
ENERGY: 5000 0.0000 0.0000 0.0000 0.0000 -9141.9121 917.8508 0.0000 0.0000 1346.4783 -6877.5830 273.6034 -8224.0614 -6877.3320 252.7723 -1423.1787 -1422.9514 27000.0000 -1652.8542 -1652.9130
ENERGY: 205000 0.0000 0.0000 0.0000 0.0000 -8829.6315 818.4343 0.0000 0.0000 1482.3564 -6528.8407 301.2137 -8011.1972 -6528.7597 296.7419 -1612.9133 -1604.2194 27000.0000 -1441.4915 -1441.4791
ENERGY: 405000 0.0000 0.0000 0.0000 0.0000 -8773.3308 822.5634 0.0000 0.0000 1473.2890 -6477.4784 299.3712 -7950.7674 -6475.9969 301.0603 -1270.7623 -1281.6796 27000.0000 -1129.1766 -1129.0922
ENERGY: 600000 0.0000 0.0000 0.0000 0.0000 -8822.7410 880.0844 0.0000 0.0000 1454.7998 -6487.8568 295.6142 -7942.6566 -6488.3636 299.0585 -895.0874 -875.1088 27000.0000 -1323.6628 -1323.6175
ENERGY: 800000 0.0000 0.0000 0.0000 0.0000 -8781.9033 830.5269 0.0000 0.0000 1417.1728 -6534.2036 287.9684 -7951.3764 -6533.1153 296.2304 -1388.8401 -1386.1394 27000.0000 -1339.8864 -1339.7984
ENERGY: 1000000 0.0000 0.0000 0.0000 0.0000 -8868.5681 869.9468 0.0000 0.0000 1428.7048 -6569.9165 290.3117 -7998.6213 -6569.0206 295.9415 -1130.1879 -1144.7248 27000.0000 -1419.1466 -1419.2370
