Info: SIMULATION PARAMETERS:
Info: TIMESTEP               2
Info: NUMBER OF STEPS        0
Info: STEPS PER CYCLE        10
Info: PERIODIC CELL BASIS 1  39.806 0 0
Info: PERIODIC CELL BASIS 2  0 39.115 0
Info: PERIODIC CELL BASIS 3  0 0 42.851
Info: PERIODIC CELL CENTER   0 0 0
Info: WRAPPING WATERS AROUND PERIODIC BOUNDARIES ON OUTPUT.
Info: WRAPPING ALL CLUSTERS AROUND PERIODIC BOUNDARIES ON OUTPUT.
Info: FIRST LDB TIMESTEP     50
Info: LAST LDB TIMESTEP     -1
Info: HOM BACKGROUND SCALING 1
Info: PME BACKGROUND SCALING 1
Info: MIN ATOMS PER PATCH    40
Info: EMPTY PATCH LOAD       40 ATOMS
Info: INITIAL TEMPERATURE    300
Info: CENTER OF MASS MOVING INITIALLY? NO
Info: DIELECTRIC             1
Info: EXCLUDE                SCALED ONE-FOUR
Info: 1-4 ELECTROSTATICS SCALED BY 0.833333
Info: MODIFIED 1-4 VDW PARAMETERS WILL BE USED
Info: DCD FILENAME           mobley_2484519_min.dcd
Info: DCD FREQUENCY          5000
Info: DCD FIRST STEP         5000
Info: DCD FILE WILL CONTAIN UNIT CELL DATA
Info: XST FILENAME           mobley_2484519_min.xst
Info: XST FREQUENCY          5000
Info: NO VELOCITY DCD OUTPUT
Info: NO FORCE DCD OUTPUT
Info: OUTPUT FILENAME        mobley_2484519_min
Info: BINARY OUTPUT FILES WILL BE USED
Info: RESTART FILENAME       mobley_2484519_min.restart
Info: RESTART FREQUENCY      5000
Info: BINARY RESTART FILES WILL BE USED
Info: CUTOFF                 9
Info: PAIRLIST DISTANCE      11
Info: PAIRLIST SHRINK RATE   0.01
Info: PAIRLIST GROW RATE     0.01
Info: PAIRLIST TRIGGER       0.3
Info: PAIRLISTS PER CYCLE    2
Info: PAIRLISTS ENABLED
Info: MARGIN                 8
Info: HYDROGEN GROUP CUTOFF  2.5
Info: PATCH DIMENSION        21.5
Info: ENERGY OUTPUT STEPS    5000
Info: ENERGY EVALUATION STEPS    5000
Info: OUTPUT ENERGY PRECISION 4
Info: CROSSTERM ENERGY INCLUDED IN DIHEDRAL
Info: TIMING OUTPUT STEPS    50000
Info: PRESSURE OUTPUT STEPS  5000
Info: LANGEVIN DYNAMICS ACTIVE
Info: LANGEVIN TEMPERATURE   300
Info: LANGEVIN USING BBK INTEGRATOR
Info: LANGEVIN DAMPING COEFFICIENT IS 1 INVERSE PS
Info: LANGEVIN DYNAMICS APPLIED TO HYDROGENS
Info: LANGEVIN PISTON PRESSURE CONTROL ACTIVE
Info:        TARGET PRESSURE IS 1.01325 BAR
Info:     OSCILLATION PERIOD IS 50 FS
Info:             DECAY TIME IS 25 FS
Info:     PISTON TEMPERATURE IS 300 K
Info:       PRESSURE CONTROL IS GROUP-BASED
Info:    INITIAL STRAIN RATE IS 0 0 0
Info:       CELL FLUCTUATION IS ISOTROPIC
Info: PARTICLE MESH EWALD (PME) ACTIVE
Info: PME TOLERANCE               1e-06
Info: PME EWALD COEFFICIENT       0.348832
Info: PME INTERPOLATION ORDER     4
Info: PME GRID DIMENSIONS         40 40 44
Info: PME MAXIMUM GRID SPACING    1
Info: FULL ELECTROSTATIC EVALUATION FREQUENCY      2
Info: USING VERLET I (r-RESPA) MTS SCHEME.
Info: C1 SPLITTING OF LONG RANGE ELECTROSTATICS
Info: PLACING ATOMS IN PATCHES BY HYDROGEN GROUPS
Info: RIGID BONDS TO HYDROGEN : ALL
Info:         ERROR TOLERANCE : 1e-08
Info:          MAX ITERATIONS : 100
Info: RIGID WATER USING SETTLE ALGORITHM
Info: RANDOM NUMBER SEED     1741325069
Info: USE HYDROGEN BONDS?    NO
Info: Using AMBER format force field!
Info: AMBER PARM FILE        mobley_2484519.prmtop
Info: COORDINATE PDB         mobley_2484519.pdb
Info: Exclusions will be read from PARM file!
Info: SCNB (VDW SCALING)     2
Info: USING ARITHMETIC MEAN TO COMBINE L-J SIGMA PARAMETERS
Info: SUMMARY OF PARAMETERS:
Info: 7 BONDS
Info: 7 ANGLES
Info:   7 HARMONIC
Info:   0 COSINE-BASED
Info: 3 DIHEDRAL
Info: 0 IMPROPER
Info: 0 CROSSTERM
Info: 0 VDW
Info: 28 VDW_PAIRS
Info: 0 NBTHOLE_PAIRS
Info: STRUCTURE SUMMARY:
Info: 4779 ATOMS
Info: 4779 BONDS
Info: 24 ANGLES
Info: 36 DIHEDRALS
Info: 0 IMPROPERS
Info: 0 CROSSTERMS
Info: 4830 EXCLUSIONS
Info: 4771 RIGID BONDS
Info: 9566 DEGREES OF FREEDOM
Info: 1596 HYDROGEN GROUPS
Info: 3 ATOMS IN LARGEST HYDROGEN GROUP
Info: 1596 MIGRATION GROUPS
Info: 3 ATOMS IN LARGEST MIGRATION GROUP
Info: TOTAL MASS = 28736 amu
Info: TOTAL CHARGE = -9.99719e-05 e
Info: MASS DENSITY = 0.715208 g/cm^3
Info: ATOM DENSITY = 0.0716282 atoms/A^3
Info: ADDED 0 IMPLICIT EXCLUSIONS
Info: NONBONDED TABLE R-SQUARED SPACING: 0.0625
Info: NONBONDED TABLE SIZE: 705 POINTS
Info: REMOVING COM VELOCITY -0.0752745 -0.0634351 0.0452422
TCL: Minimizing for 2000 steps
ETITLE: TS BOND ANGLE DIHED IMPRP ELECT VDW BOUNDARY MISC KINETIC TOTAL TEMP POTENTIAL TOTAL3 TEMPAVG PRESSURE GPRESSURE VOLUME PRESSAVG GPRESSAVG
ENERGY: 0 0.3288 0.1984 0.0002 0.0000 -14865.8505 1700.2330 0.0000 0.0000 0.0000 -13165.0901 0.0000 -13165.0901 -13165.0901 0.0000 11095.2803 -15540.4837 66719.5079 11095.2803 -15540.4837
ENERGY: 400 4.3592 2.7953 0.1301 0.0000 -20031.0853 2945.6906 0.0000 0.0000 0.0000 -17078.1101 0.0000 -17078.1101 -17078.1101 0.0000 15803.1239 15670.8711 66719.5079 15803.1239 15670.8711
ENERGY: 800 1.7745 1.0940 0.5448 0.0000 -21104.2633 3437.9158 0.0000 0.0000 0.0000 -17662.9343 0.0000 -17662.9343 -17662.9343 0.0000 18095.4032 17881.2622 66719.5079 18095.4032 17881.2622
ENERGY: 1200 7.9911 2.0900 0.0774 0.0000 -21573.6179 3652.9458 0.0000 0.0000 0.0000 -17910.5136 0.0000 -17910.5136 -17910.5136 0.0000 19172.9458 18915.7446 66719.5079 19172.9458 18915.7446
ENERGY: 1600 0.9987 0.3789 0.0279 0.0000 -21726.9121 3702.5246 0.0000 0.0000 0.0000 -18022.9820 0.0000 -18022.9820 -18022.9820 0.0000 19475.8471 19217.3333 66719.5079 19475.8471 19217.3333
ENERGY: 2000 0.2298 0.1631 0.0361 0.0000 -21892.3790 3789.3979 0.0000 0.0000 0.0000 -18102.5521 0.0000 -18102.5521 -18102.5521 0.0000 19935.8605 19670.2727 66719.5079 19935.8605 19670.2727
TCL: Exiting due to exit command.
Info: NAMD 3.0.1 for Linux-x86_64-multicore
Info: Please visit http://www.ks.uiuc.edu/Research/namd/
Info: for updates, documentation, and support information.
Info: Please cite Phillips et al., J. Chem. Phys. 153:044130 (2020) doi:10.1063/5.0014475
Info: in all publications reporting results obtained with NAMD.
Info: Based on Charm++/Converse 80000 for multicore-linux-x86_64-gcc
Info: Built Mon Oct 14 11:11:06 CDT 2024 by dhardy on athine.ks.uiuc.edu
Info: 1 NAMD  3.0.1  Linux-x86_64-multicore  16    k068  z5358697
Info: Running on 16 processors, 1 nodes, 1 physical nodes.
Info: CPU topology information available.
Info: Charm++/Converse parallel runtime startup completed at 0.00721686 s
Info: 1043.48 MB of memory in use based on /proc/self/stat
Info: Configuration file is mobley_2484519_equil.namd
Info: Working in the current directory /srv/scratch/z5358697/prod_prep_2/2484519
TCL: Running 25000 steps at 30 kelvin.
TCL: Suspending until startup complete.
Info: SIMULATION PARAMETERS:
Info: TIMESTEP               2
Info: NUMBER OF STEPS        0
Info: STEPS PER CYCLE        10
Info: PERIODIC CELL BASIS 1  39.806 0 0
Info: PERIODIC CELL BASIS 2  0 39.115 0
Info: PERIODIC CELL BASIS 3  0 0 42.851
Info: PERIODIC CELL CENTER   0 0 0
Info: WRAPPING WATERS AROUND PERIODIC BOUNDARIES ON OUTPUT.
Info: WRAPPING ALL CLUSTERS AROUND PERIODIC BOUNDARIES ON OUTPUT.
Info: FIRST LDB TIMESTEP     50
Info: LAST LDB TIMESTEP     -1
Info: HOM BACKGROUND SCALING 1
Info: PME BACKGROUND SCALING 1
Info: MIN ATOMS PER PATCH    40
Info: EMPTY PATCH LOAD       40 ATOMS
Info: INITIAL TEMPERATURE    300
Info: CENTER OF MASS MOVING INITIALLY? NO
Info: DIELECTRIC             1
Info: EXCLUDE                SCALED ONE-FOUR
Info: 1-4 ELECTROSTATICS SCALED BY 0.833333
Info: MODIFIED 1-4 VDW PARAMETERS WILL BE USED
Info: DCD FILENAME           mobley_2484519_equil.dcd
Info: DCD FREQUENCY          5000
Info: DCD FIRST STEP         5000
Info: DCD FILE WILL CONTAIN UNIT CELL DATA
Info: XST FILENAME           mobley_2484519_equil.xst
Info: XST FREQUENCY          5000
Info: NO VELOCITY DCD OUTPUT
Info: NO FORCE DCD OUTPUT
Info: OUTPUT FILENAME        mobley_2484519_equil
Info: BINARY OUTPUT FILES WILL BE USED
Info: RESTART FILENAME       mobley_2484519_equil.restart
Info: RESTART FREQUENCY      5000
Info: BINARY RESTART FILES WILL BE USED
Info: CUTOFF                 9
Info: PAIRLIST DISTANCE      11
Info: PAIRLIST SHRINK RATE   0.01
Info: PAIRLIST GROW RATE     0.01
Info: PAIRLIST TRIGGER       0.3
Info: PAIRLISTS PER CYCLE    2
Info: PAIRLISTS ENABLED
Info: MARGIN                 8
Info: HYDROGEN GROUP CUTOFF  2.5
Info: PATCH DIMENSION        21.5
Info: ENERGY OUTPUT STEPS    5000
Info: ENERGY EVALUATION STEPS    5000
Info: OUTPUT ENERGY PRECISION 4
Info: CROSSTERM ENERGY INCLUDED IN DIHEDRAL
Info: TIMING OUTPUT STEPS    50000
Info: PRESSURE OUTPUT STEPS  5000
Info: LANGEVIN DYNAMICS ACTIVE
Info: LANGEVIN TEMPERATURE   30
Info: LANGEVIN USING BBK INTEGRATOR
Info: LANGEVIN DAMPING COEFFICIENT IS 1 INVERSE PS
Info: LANGEVIN DYNAMICS APPLIED TO HYDROGENS
Info: LANGEVIN PISTON PRESSURE CONTROL ACTIVE
Info:        TARGET PRESSURE IS 1.01325 BAR
Info:     OSCILLATION PERIOD IS 50 FS
Info:             DECAY TIME IS 25 FS
Info:     PISTON TEMPERATURE IS 300 K
Info:       PRESSURE CONTROL IS GROUP-BASED
Info:    INITIAL STRAIN RATE IS 0 0 0
Info:       CELL FLUCTUATION IS ISOTROPIC
Info: PARTICLE MESH EWALD (PME) ACTIVE
Info: PME TOLERANCE               1e-06
Info: PME EWALD COEFFICIENT       0.348832
Info: PME INTERPOLATION ORDER     4
Info: PME GRID DIMENSIONS         40 40 44
Info: PME MAXIMUM GRID SPACING    1
Info: FULL ELECTROSTATIC EVALUATION FREQUENCY      2
Info: USING VERLET I (r-RESPA) MTS SCHEME.
Info: C1 SPLITTING OF LONG RANGE ELECTROSTATICS
Info: PLACING ATOMS IN PATCHES BY HYDROGEN GROUPS
Info: RIGID BONDS TO HYDROGEN : ALL
Info:         ERROR TOLERANCE : 1e-08
Info:          MAX ITERATIONS : 100
Info: RIGID WATER USING SETTLE ALGORITHM
Info: RANDOM NUMBER SEED     1741325082
Info: USE HYDROGEN BONDS?    NO
Info: Using AMBER format force field!
Info: AMBER PARM FILE        mobley_2484519.prmtop
Info: COORDINATE PDB         mobley_2484519.pdb
Info: Exclusions will be read from PARM file!
Info: SCNB (VDW SCALING)     2
Info: USING ARITHMETIC MEAN TO COMBINE L-J SIGMA PARAMETERS
Info: BINARY COORDINATES     mobley_2484519_min.coor
Info: SUMMARY OF PARAMETERS:
Info: 7 BONDS
Info: 7 ANGLES
Info:   7 HARMONIC
Info:   0 COSINE-BASED
Info: 3 DIHEDRAL
Info: 0 IMPROPER
Info: 0 CROSSTERM
Info: 0 VDW
Info: 28 VDW_PAIRS
Info: 0 NBTHOLE_PAIRS
Info: STRUCTURE SUMMARY:
Info: 4779 ATOMS
Info: 4779 BONDS
Info: 24 ANGLES
Info: 36 DIHEDRALS
Info: 0 IMPROPERS
Info: 0 CROSSTERMS
Info: 4830 EXCLUSIONS
Info: 4771 RIGID BONDS
Info: 9566 DEGREES OF FREEDOM
Info: 1596 HYDROGEN GROUPS
Info: 3 ATOMS IN LARGEST HYDROGEN GROUP
Info: 1596 MIGRATION GROUPS
Info: 3 ATOMS IN LARGEST MIGRATION GROUP
Info: TOTAL MASS = 28736 amu
Info: TOTAL CHARGE = -9.99719e-05 e
Info: MASS DENSITY = 0.715208 g/cm^3
Info: ATOM DENSITY = 0.0716282 atoms/A^3
Info: ADDED 0 IMPLICIT EXCLUSIONS
Info: NONBONDED TABLE R-SQUARED SPACING: 0.0625
Info: NONBONDED TABLE SIZE: 705 POINTS
Info: REMOVING COM VELOCITY 0.138469 0.0516067 0.18318
TCL: Running for 25000 steps
ETITLE: TS BOND ANGLE DIHED IMPRP ELECT VDW BOUNDARY MISC KINETIC TOTAL TEMP POTENTIAL TOTAL3 TEMPAVG PRESSURE GPRESSURE VOLUME PRESSAVG GPRESSAVG
ENERGY: 0 0.2298 0.1631 0.0361 0.0000 -21892.3790 3789.3979 0.0000 0.0000 2803.7446 -15298.8075 294.9840 -18102.5521 -15298.2561 294.9840 287.0338 321.0962 66719.5079 287.0338 321.0962
ENERGY: 5000 0.1899 0.2609 0.4483 0.0000 -23071.1148 4110.1605 0.0000 0.0000 287.8323 -18672.2229 30.2830 -18960.0552 -18671.5902 47.5953 819.0970 876.0426 46107.2472 1.4828 1.7089
ENERGY: 10000 0.6122 0.4454 0.2127 0.0000 -22791.7799 3799.7114 0.0000 0.0000 285.5492 -18705.2490 30.0428 -18990.7982 -18704.2081 30.1528 -955.5300 -908.9401 46552.7015 2.1577 2.2026
ENERGY: 15000 0.4907 0.5346 0.2331 0.0000 -22987.6750 3976.7840 0.0000 0.0000 278.8910 -18730.7417 29.3423 -19009.6327 -18729.7498 30.0046 -11.7690 18.5044 46255.3858 3.6136 3.4613
ENERGY: 20000 0.2102 0.4245 0.4371 0.0000 -22921.0470 3899.6434 0.0000 0.0000 285.3993 -18734.9325 30.0271 -19020.3318 -18734.2726 30.2296 -427.8447 -362.4794 46309.3681 4.0515 4.0688
ENERGY: 25000 0.2736 0.5661 0.3378 0.0000 -23037.6403 4005.8289 0.0000 0.0000 290.0398 -18740.5941 30.5153 -19030.6340 -18739.6346 30.2503 163.4523 226.9520 45990.1346 3.4845 3.2836
TCL: Running 25000 steps at 60 kelvin.
TCL: Setting parameter langevinTemp to 60
TCL: Running for 25000 steps
ETITLE: TS BOND ANGLE DIHED IMPRP ELECT VDW BOUNDARY MISC KINETIC TOTAL TEMP POTENTIAL TOTAL3 TEMPAVG PRESSURE GPRESSURE VOLUME PRESSAVG GPRESSAVG
ENERGY: 25000 0.2736 0.5661 0.3378 0.0000 -23037.6403 4005.8289 0.0000 0.0000 289.8925 -18740.7415 30.4998 -19030.6340 -18740.0803 30.4998 176.5996 226.9751 45990.1346 176.5996 226.9751
ENERGY: 30000 0.4657 1.1756 0.2561 0.0000 -22610.8866 3830.2819 0.0000 0.0000 570.8495 -18207.8577 60.0595 -18778.7073 -18205.9060 56.8336 -265.1543 -222.5029 46448.2787 -1.4807 -1.3063
ENERGY: 35000 0.5085 0.9183 0.2091 0.0000 -22567.5917 3749.2492 0.0000 0.0000 570.1420 -18246.5646 59.9851 -18816.7066 -18244.9775 60.0384 -792.3829 -738.4407 46580.4634 4.9783 5.1390
ENERGY: 40000 0.4720 1.0663 0.6148 0.0000 -22704.6456 3858.6784 0.0000 0.0000 578.2548 -18265.5593 60.8386 -18843.8141 -18263.7153 60.0415 -281.2884 -220.3823 46457.9556 3.3509 2.9856
ENERGY: 45000 0.4840 0.6540 0.4766 0.0000 -22722.7663 3859.4668 0.0000 0.0000 562.3351 -18299.3499 59.1637 -18861.6850 -18297.3015 60.4106 -357.6087 -277.4117 46415.7215 7.6715 7.5269
ENERGY: 50000 0.5221 0.9543 0.6143 0.0000 -22830.7735 3937.4938 0.0000 0.0000 570.9294 -18320.2596 60.0679 -18891.1890 -18318.6266 60.3092 99.5026 143.7577 46112.3987 1.3950 1.4770
TCL: Running 25000 steps at 90 kelvin.
TCL: Setting parameter langevinTemp to 90
TCL: Running for 25000 steps
ETITLE: TS BOND ANGLE DIHED IMPRP ELECT VDW BOUNDARY MISC KINETIC TOTAL TEMP POTENTIAL TOTAL3 TEMPAVG PRESSURE GPRESSURE VOLUME PRESSAVG GPRESSAVG
ENERGY: 50000 0.5221 0.9543 0.6143 0.0000 -22830.7735 3937.4938 0.0000 0.0000 570.6520 -18320.5370 60.0387 -18891.1890 -18319.4097 60.0387 94.2366 144.3117 46112.3987 94.2366 144.3117
ENERGY: 55000 0.2947 1.3216 0.3634 0.0000 -22324.3847 3734.4093 0.0000 0.0000 866.3798 -17721.6158 91.1524 -18587.9956 -17718.6348 87.1533 -299.5446 -245.3981 46505.1855 1.4762 1.3696
ENERGY: 60000 0.6454 1.0647 0.4092 0.0000 -22539.6081 3912.5048 0.0000 0.0000 856.3721 -17768.6119 90.0995 -18624.9840 -17766.6306 89.7417 546.6495 592.7729 46177.6103 3.9667 4.1107
ENERGY: 65000 0.8340 0.9181 1.0219 0.0000 -22311.8760 3662.1787 0.0000 0.0000 861.4523 -17785.4711 90.6340 -18646.9233 -17782.5466 90.5049 -959.3560 -884.5783 46746.7593 2.8435 2.9581
ENERGY: 70000 0.9072 1.2790 1.2737 0.0000 -22449.3124 3778.7581 0.0000 0.0000 836.9988 -17830.0956 88.0612 -18667.0944 -17827.9601 89.9457 -310.9235 -253.4985 46473.7742 7.2300 7.3424
ENERGY: 75000 0.2914 0.8595 0.9586 0.0000 -22414.6901 3746.3465 0.0000 0.0000 841.5368 -17824.6973 88.5387 -18666.2340 -17821.9410 89.8488 -461.8153 -408.8796 46509.7810 -0.0878 -0.4049
TCL: Running 25000 steps at 120 kelvin.
TCL: Setting parameter langevinTemp to 120
TCL: Running for 25000 steps
ETITLE: TS BOND ANGLE DIHED IMPRP ELECT VDW BOUNDARY MISC KINETIC TOTAL TEMP POTENTIAL TOTAL3 TEMPAVG PRESSURE GPRESSURE VOLUME PRESSAVG GPRESSAVG
ENERGY: 75000 0.2914 0.8595 0.9586 0.0000 -22414.6901 3746.3465 0.0000 0.0000 841.1129 -17825.1212 88.4941 -18666.2340 -17823.1177 88.4941 -464.5249 -408.5650 46509.7810 -464.5249 -408.5650
ENERGY: 80000 1.9787 2.0800 1.5262 0.0000 -21930.2715 3594.2592 0.0000 0.0000 1184.5520 -17145.8754 124.6276 -18330.4274 -17144.0437 116.6905 -500.2548 -421.8044 46746.2576 2.5241 2.7939
ENERGY: 85000 1.9514 1.5699 1.0388 0.0000 -22167.5891 3784.4342 0.0000 0.0000 1154.7044 -17223.8905 121.4873 -18378.5949 -17222.9104 121.3835 462.5652 517.9622 46492.6514 2.5422 2.6123
ENERGY: 90000 0.7672 3.2593 1.1704 0.0000 -22266.2132 3845.4210 0.0000 0.0000 1163.0227 -17252.5726 122.3625 -18415.5953 -17251.1652 120.2810 751.3811 783.4736 46230.8291 0.5881 0.6103
ENERGY: 95000 1.6386 0.7012 1.3398 0.0000 -22206.6290 3774.8228 0.0000 0.0000 1146.6011 -17281.5254 120.6347 -18428.1265 -17279.7063 120.5910 219.6281 255.4927 46451.9994 -2.0960 -1.9848
ENERGY: 100000 1.2182 1.8677 1.3342 0.0000 -22189.3497 3727.3249 0.0000 0.0000 1151.8620 -17305.7427 121.1882 -18457.6047 -17303.4682 120.2363 -25.9468 32.5739 46473.7285 -2.1274 -2.0272
TCL: Running 25000 steps at 150 kelvin.
TCL: Setting parameter langevinTemp to 150
TCL: Running for 25000 steps
ETITLE: TS BOND ANGLE DIHED IMPRP ELECT VDW BOUNDARY MISC KINETIC TOTAL TEMP POTENTIAL TOTAL3 TEMPAVG PRESSURE GPRESSURE VOLUME PRESSAVG GPRESSAVG
ENERGY: 100000 1.2182 1.8677 1.3342 0.0000 -22189.3497 3727.3249 0.0000 0.0000 1151.2947 -17306.3100 121.1285 -18457.6047 -17304.0954 121.1285 -21.8349 32.1053 46473.7285 -21.8349 32.1053
ENERGY: 105000 1.1094 2.2995 2.2352 0.0000 -21627.4120 3547.3760 0.0000 0.0000 1459.5071 -16614.8848 153.5558 -18074.3919 -16611.6317 146.7850 -226.1428 -149.3812 47075.5101 -3.2401 -2.8113
ENERGY: 110000 1.9762 1.0653 0.8140 0.0000 -21632.0525 3537.7604 0.0000 0.0000 1395.7736 -16694.6630 146.8503 -18090.4366 -16690.9316 150.8142 -262.8938 -193.8337 46900.2648 1.5919 1.3529
ENERGY: 115000 0.6909 2.0205 0.6651 0.0000 -21911.5507 3775.6539 0.0000 0.0000 1443.1573 -16689.3631 151.8356 -18132.5204 -16686.0513 150.4553 1039.2967 1128.5892 46239.0551 0.0050 -0.0304
ENERGY: 120000 1.8681 2.8504 0.6685 0.0000 -21796.4430 3653.7158 0.0000 0.0000 1375.0318 -16762.3085 144.6681 -18137.3403 -16757.2722 150.9693 359.7979 417.2916 46313.3630 6.3792 6.1376
ENERGY: 125000 0.6578 2.4978 2.0617 0.0000 -21846.9940 3694.6560 0.0000 0.0000 1436.1891 -16710.9317 151.1025 -18147.1208 -16707.5303 151.5483 600.4732 685.9630 46405.0435 6.0216 6.1297
TCL: Running 50000 steps at 180 kelvin.
TCL: Setting parameter langevinTemp to 180
TCL: Running for 50000 steps
ETITLE: TS BOND ANGLE DIHED IMPRP ELECT VDW BOUNDARY MISC KINETIC TOTAL TEMP POTENTIAL TOTAL3 TEMPAVG PRESSURE GPRESSURE VOLUME PRESSAVG GPRESSAVG
ENERGY: 125000 0.6578 2.4978 2.0617 0.0000 -21846.9940 3694.6560 0.0000 0.0000 1435.4802 -16711.6406 151.0279 -18147.1208 -16709.4680 151.0279 630.9534 685.8786 46405.0435 630.9534 685.8786
ENERGY: 135000 2.0937 2.6013 1.8415 0.0000 -21198.3579 3420.1201 0.0000 0.0000 1703.8099 -16067.8914 179.2591 -17771.7013 -16062.4315 180.5342 -94.4341 -11.7147 46765.0548 9.2108 9.4583
ENERGY: 145000 1.4756 3.4692 3.6529 0.0000 -21086.4145 3420.6847 0.0000 0.0000 1724.0329 -15933.0993 181.3868 -17657.1322 -15929.6574 180.7372 143.0371 170.5057 46795.1447 2.6860 2.2072
ENERGY: 155000 1.3103 1.8509 1.9623 0.0000 -21276.2716 3506.5269 0.0000 0.0000 1733.8949 -16030.7263 182.4243 -17764.6212 -16028.1456 179.5167 366.9714 430.0439 46758.5060 4.4598 4.2478
ENERGY: 165000 1.3626 2.7856 2.4966 0.0000 -21163.1802 3402.8328 0.0000 0.0000 1674.8921 -16078.8106 176.2166 -17753.7026 -16073.8438 179.5714 -303.7325 -284.5544 47281.8168 3.7035 3.8825
ENERGY: 175000 1.8410 3.4342 1.8645 0.0000 -21417.9430 3533.7674 0.0000 0.0000 1700.8959 -16176.1400 178.9525 -17877.0359 -16172.3974 180.9374 30.9588 79.7780 47297.7746 3.1685 3.0345
TCL: Running 50000 steps at 210 kelvin.
TCL: Setting parameter langevinTemp to 210
TCL: Running for 50000 steps
ETITLE: TS BOND ANGLE DIHED IMPRP ELECT VDW BOUNDARY MISC KINETIC TOTAL TEMP POTENTIAL TOTAL3 TEMPAVG PRESSURE GPRESSURE VOLUME PRESSAVG GPRESSAVG
ENERGY: 175000 1.8410 3.4342 1.8645 0.0000 -21417.9430 3533.7674 0.0000 0.0000 1700.0286 -16177.0073 178.8612 -17877.0359 -16173.7777 178.8612 16.3278 79.4455 47297.7746 16.3278 79.4455
ENERGY: 185000 1.4818 1.8965 2.9841 0.0000 -20341.3214 3226.8710 0.0000 0.0000 1981.1431 -15126.9448 208.4375 -17108.0879 -15125.2377 209.3384 491.3305 554.0221 47009.0522 2.6935 3.1118
ENERGY: 195000 1.2065 2.3336 1.3197 0.0000 -19917.2421 2895.6682 0.0000 0.0000 2069.4466 -14947.2675 217.7280 -17016.7141 -14943.4712 210.6697 -864.0704 -753.3424 46701.7202 2.8317 2.8351
ENERGY: 205000 1.2097 3.8963 0.6287 0.0000 -19921.9237 2994.5499 0.0000 0.0000 2032.0918 -14889.5473 213.7978 -16921.6390 -14885.8775 210.0775 -263.1530 -181.0246 46935.0142 6.1075 6.0755
ENERGY: 215000 2.4347 3.2984 1.2903 0.0000 -20094.4002 3012.7003 0.0000 0.0000 2007.0067 -15067.6698 211.1586 -17074.6765 -15062.5137 211.1831 -411.9273 -334.9069 46465.0501 3.6116 3.7025
ENERGY: 225000 0.9213 2.7122 2.7054 0.0000 -20129.5818 3130.5245 0.0000 0.0000 2051.6266 -14941.0918 215.8531 -16992.7184 -14935.8895 210.9431 291.6058 377.4503 46788.8643 0.6667 0.6839
TCL: Running 50000 steps at 240 kelvin.
TCL: Setting parameter langevinTemp to 240
TCL: Running for 50000 steps
ETITLE: TS BOND ANGLE DIHED IMPRP ELECT VDW BOUNDARY MISC KINETIC TOTAL TEMP POTENTIAL TOTAL3 TEMPAVG PRESSURE GPRESSURE VOLUME PRESSAVG GPRESSAVG
ENERGY: 225000 0.9213 2.7122 2.7054 0.0000 -20129.5818 3130.5245 0.0000 0.0000 2050.6511 -14942.0673 215.7505 -16992.7184 -14938.5000 215.7505 308.8057 378.0392 46788.8643 308.8057 378.0392
ENERGY: 235000 2.5253 3.5290 3.1266 0.0000 -18881.4144 2621.7668 0.0000 0.0000 2265.7579 -13984.7087 238.3820 -16250.4666 -13980.5098 240.5838 -845.8748 -766.8643 47399.4490 -3.6384 -3.2298
ENERGY: 245000 1.6476 3.0223 1.4477 0.0000 -19174.5456 2869.2349 0.0000 0.0000 2360.9937 -13938.1994 248.4019 -16299.1931 -13935.4767 240.4867 527.1203 628.0830 46829.7442 4.3575 4.3132
ENERGY: 255000 1.7758 1.7537 1.6438 0.0000 -19035.6366 2717.3165 0.0000 0.0000 2253.9499 -14059.1968 237.1397 -16313.1467 -14053.1534 239.0399 -390.5531 -280.3628 47224.1976 4.0292 4.2392
ENERGY: 265000 2.1401 2.6968 1.1398 0.0000 -19109.1673 2756.2106 0.0000 0.0000 2304.6880 -14042.2920 242.4779 -16346.9800 -14036.6734 240.0057 -225.0478 -133.5235 46953.7694 4.7025 5.1082
ENERGY: 275000 0.8356 2.5032 1.6761 0.0000 -19044.5189 2698.0207 0.0000 0.0000 2280.0052 -14061.4781 239.8810 -16341.4833 -14058.5290 240.0401 -498.7779 -382.4881 47321.7754 4.0512 3.2276
TCL: Running 50000 steps at 270 kelvin.
TCL: Setting parameter langevinTemp to 270
TCL: Running for 50000 steps
ETITLE: TS BOND ANGLE DIHED IMPRP ELECT VDW BOUNDARY MISC KINETIC TOTAL TEMP POTENTIAL TOTAL3 TEMPAVG PRESSURE GPRESSURE VOLUME PRESSAVG GPRESSAVG
ENERGY: 275000 0.8356 2.5032 1.6761 0.0000 -19044.5189 2698.0207 0.0000 0.0000 2278.8513 -14062.6321 239.7596 -16341.4833 -14058.9827 239.7596 -466.8422 -383.1953 47321.7754 -466.8422 -383.1953
ENERGY: 285000 3.2533 4.7726 2.0537 0.0000 -18228.2296 2567.1324 0.0000 0.0000 2557.8429 -13093.1748 269.1125 -15651.0177 -13090.0356 270.4789 67.3607 169.7111 47963.9394 1.6963 1.4978
ENERGY: 295000 1.7156 4.7560 2.1150 0.0000 -18189.4390 2508.2530 0.0000 0.0000 2561.3115 -13111.2879 269.4774 -15672.5994 -13103.2317 269.0942 -392.2696 -251.7855 48114.8021 4.9157 5.3889
ENERGY: 305000 5.6057 1.7971 1.4985 0.0000 -18143.5893 2491.8906 0.0000 0.0000 2648.0419 -12994.7555 278.6024 -15642.7974 -12990.7724 272.2106 -203.8428 -131.0037 47968.9098 0.0219 0.3490
ENERGY: 315000 1.2727 2.4501 3.0191 0.0000 -18161.4997 2531.5637 0.0000 0.0000 2512.6000 -13110.5941 264.3525 -15623.1941 -13107.9703 268.0842 8.1417 96.6107 48002.8356 -0.7453 -0.9929
ENERGY: 325000 2.1019 3.9841 1.2134 0.0000 -18342.8917 2556.6542 0.0000 0.0000 2547.5404 -13231.3977 268.0286 -15778.9381 -13225.4495 268.7875 -123.2642 -58.1009 47647.3335 3.6332 3.5013
TCL: Running 1000000 steps at 300 kelvin.
TCL: Setting parameter langevinTemp to 300
TCL: Running for 1000000 steps
ETITLE: TS BOND ANGLE DIHED IMPRP ELECT VDW BOUNDARY MISC KINETIC TOTAL TEMP POTENTIAL TOTAL3 TEMPAVG PRESSURE GPRESSURE VOLUME PRESSAVG GPRESSAVG
ENERGY: 325000 2.1019 3.9841 1.2134 0.0000 -18342.8917 2556.6542 0.0000 0.0000 2546.2727 -13232.6654 267.8952 -15778.9381 -13229.0295 267.8952 -134.0969 -58.8864 47647.3335 -134.0969 -58.8864
ENERGY: 525000 1.1014 3.6470 2.9472 0.0000 -17542.9571 2513.3525 0.0000 0.0000 2845.3381 -12176.5709 299.3601 -15021.9090 -12172.7624 301.1688 885.6002 918.5140 49322.4918 1.0034 1.7271
ENERGY: 725000 5.7942 2.2118 3.7015 0.0000 -17431.4139 2370.1150 0.0000 0.0000 2883.3895 -12166.2019 303.3635 -15049.5914 -12161.0227 300.4993 240.6976 383.9686 48503.9174 6.9544 7.0349
ENERGY: 925000 4.9271 5.2463 1.6727 0.0000 -17170.1445 2215.7249 0.0000 0.0000 2900.4607 -12042.1129 305.1596 -14942.5735 -12036.3928 301.5063 -349.3180 -255.1665 48836.5360 3.0296 2.5742
ENERGY: 1125000 2.6391 5.8442 3.5783 0.0000 -17326.2145 2326.3660 0.0000 0.0000 2836.0135 -12151.7733 298.3790 -14987.7868 -12143.1583 300.9499 109.5043 161.8702 48858.1045 1.3921 1.7775
ENERGY: 1325000 1.0001 4.7345 2.2547 0.0000 -17318.5820 2295.7272 0.0000 0.0000 2800.0035 -12214.8620 294.5904 -15014.8654 -12210.7017 300.5336 -218.8371 -169.2308 49075.6673 0.3148 -0.1344
TCL: Exiting due to exit command.
