Info: SIMULATION PARAMETERS:
Info: TIMESTEP               2
Info: NUMBER OF STEPS        0
Info: STEPS PER CYCLE        10
Info: PERIODIC CELL BASIS 1  34.986 0 0
Info: PERIODIC CELL BASIS 2  0 33.399 0
Info: PERIODIC CELL BASIS 3  0 0 37.451
Info: PERIODIC CELL CENTER   0 0 0
Info: WRAPPING WATERS AROUND PERIODIC BOUNDARIES ON OUTPUT.
Info: WRAPPING ALL CLUSTERS AROUND PERIODIC BOUNDARIES ON OUTPUT.
Info: FIRST LDB TIMESTEP     50
Info: LAST LDB TIMESTEP     -1
Info: HOM BACKGROUND SCALING 1
Info: PME BACKGROUND SCALING 1
Info: MIN ATOMS PER PATCH    40
Info: EMPTY PATCH LOAD       40 ATOMS
Info: INITIAL TEMPERATURE    300
Info: CENTER OF MASS MOVING INITIALLY? NO
Info: DIELECTRIC             1
Info: EXCLUDE                SCALED ONE-FOUR
Info: 1-4 ELECTROSTATICS SCALED BY 0.833333
Info: MODIFIED 1-4 VDW PARAMETERS WILL BE USED
Info: DCD FILENAME           mobley_5520946_equil.dcd
Info: DCD FREQUENCY          100000
Info: DCD FIRST STEP         100000
Info: DCD FILE WILL CONTAIN UNIT CELL DATA
Info: XST FILENAME           mobley_5520946_equil.xst
Info: XST FREQUENCY          100000
Info: NO VELOCITY DCD OUTPUT
Info: NO FORCE DCD OUTPUT
Info: OUTPUT FILENAME        mobley_5520946_equil
Info: BINARY OUTPUT FILES WILL BE USED
Info: RESTART FILENAME       mobley_5520946_equil.restart
Info: RESTART FREQUENCY      100000
Info: BINARY RESTART FILES WILL BE USED
Info: CUTOFF                 9
Info: PAIRLIST DISTANCE      11
Info: PAIRLIST SHRINK RATE   0.01
Info: PAIRLIST GROW RATE     0.01
Info: PAIRLIST TRIGGER       0.3
Info: PAIRLISTS PER CYCLE    2
Info: PAIRLISTS ENABLED
Info: MARGIN                 8
Info: HYDROGEN GROUP CUTOFF  2.5
Info: PATCH DIMENSION        21.5
Info: ENERGY OUTPUT STEPS    100000
Info: ENERGY EVALUATION STEPS    100000
Info: OUTPUT ENERGY PRECISION 4
Info: CROSSTERM ENERGY INCLUDED IN DIHEDRAL
Info: TIMING OUTPUT STEPS    1000000
Info: PRESSURE OUTPUT STEPS  100000
Info: LANGEVIN DYNAMICS ACTIVE
Info: LANGEVIN TEMPERATURE   30
Info: LANGEVIN USING BBK INTEGRATOR
Info: LANGEVIN DAMPING COEFFICIENT IS 1 INVERSE PS
Info: LANGEVIN DYNAMICS APPLIED TO HYDROGENS
Info: LANGEVIN PISTON PRESSURE CONTROL ACTIVE
Info:        TARGET PRESSURE IS 1.01325 BAR
Info:     OSCILLATION PERIOD IS 50 FS
Info:             DECAY TIME IS 25 FS
Info:     PISTON TEMPERATURE IS 300 K
Info:       PRESSURE CONTROL IS GROUP-BASED
Info:    INITIAL STRAIN RATE IS 0 0 0
Info:       CELL FLUCTUATION IS ISOTROPIC
Info: PARTICLE MESH EWALD (PME) ACTIVE
Info: PME TOLERANCE               1e-06
Info: PME EWALD COEFFICIENT       0.348832
Info: PME INTERPOLATION ORDER     4
Info: PME GRID DIMENSIONS         36 36 40
Info: PME MAXIMUM GRID SPACING    1
Info: FULL ELECTROSTATIC EVALUATION FREQUENCY      2
Info: USING VERLET I (r-RESPA) MTS SCHEME.
Info: C1 SPLITTING OF LONG RANGE ELECTROSTATICS
Info: PLACING ATOMS IN PATCHES BY HYDROGEN GROUPS
Info: RIGID BONDS TO HYDROGEN : ALL
Info:         ERROR TOLERANCE : 1e-08
Info:          MAX ITERATIONS : 100
Info: RIGID WATER USING SETTLE ALGORITHM
Info: RANDOM NUMBER SEED     1742538955
Info: USE HYDROGEN BONDS?    NO
Info: Using AMBER format force field!
Info: AMBER PARM FILE        mobley_5520946.prmtop
Info: COORDINATE PDB         mobley_5520946.pdb
Info: Exclusions will be read from PARM file!
Info: SCNB (VDW SCALING)     2
Info: USING ARITHMETIC MEAN TO COMBINE L-J SIGMA PARAMETERS
Info: BINARY COORDINATES     mobley_5520946_min.coor
Info: SUMMARY OF PARAMETERS:
Info: 6 BONDS
Info: 4 ANGLES
Info:   4 HARMONIC
Info:   0 COSINE-BASED
Info: 3 DIHEDRAL
Info: 0 IMPROPER
Info: 0 CROSSTERM
Info: 0 VDW
Info: 21 VDW_PAIRS
Info: 0 NBTHOLE_PAIRS
Info: STRUCTURE SUMMARY:
Info: 2971 ATOMS
Info: 2971 BONDS
Info: 19 ANGLES
Info: 31 DIHEDRALS
Info: 0 IMPROPERS
Info: 0 CROSSTERMS
Info: 3013 EXCLUSIONS
Info: 2964 RIGID BONDS
Info: 5949 DEGREES OF FREEDOM
Info: 993 HYDROGEN GROUPS
Info: 3 ATOMS IN LARGEST HYDROGEN GROUP
Info: 993 MIGRATION GROUPS
Info: 3 ATOMS IN LARGEST MIGRATION GROUP
Info: TOTAL MASS = 17873.9 amu
Info: TOTAL CHARGE = -2.04891e-08 e
Info: MASS DENSITY = 0.678248 g/cm^3
Info: ATOM DENSITY = 0.0678909 atoms/A^3
Info: ADDED 0 IMPLICIT EXCLUSIONS
Info: NONBONDED TABLE R-SQUARED SPACING: 0.0625
Info: NONBONDED TABLE SIZE: 705 POINTS
Info: REMOVING COM VELOCITY -0.024845 0.0632084 0.0803048
TCL: Running for 100000 steps
ETITLE: TS BOND ANGLE DIHED IMPRP ELECT VDW BOUNDARY MISC KINETIC TOTAL TEMP POTENTIAL TOTAL3 TEMPAVG PRESSURE GPRESSURE VOLUME PRESSAVG GPRESSAVG
ENERGY: 0 0.1010 0.1110 0.4230 0.0000 -13765.7737 2430.2225 0.0000 0.0000 1786.4886 -9548.4276 302.2363 -11334.9161 -9548.0873 302.2363 608.4215 643.1217 43761.3967 608.4215 643.1217
ENERGY: 100000 0.3994 0.4123 0.4753 0.0000 -14415.6626 2557.2348 0.0000 0.0000 178.6670 -11678.4737 30.2267 -11857.1408 -11678.0272 30.9451 699.6854 721.2899 28586.4678 4.6773 4.7021
TCL: Running 100000 steps at 60 kelvin.
TCL: Setting parameter langevinTemp to 60
TCL: Running for 100000 steps
ETITLE: TS BOND ANGLE DIHED IMPRP ELECT VDW BOUNDARY MISC KINETIC TOTAL TEMP POTENTIAL TOTAL3 TEMPAVG PRESSURE GPRESSURE VOLUME PRESSAVG GPRESSAVG
ENERGY: 100000 0.3994 0.4123 0.4753 0.0000 -14415.6626 2557.2348 0.0000 0.0000 178.5793 -11678.5615 30.2119 -11857.1408 -11678.0732 30.2119 684.8039 721.3604 28586.4678 684.8039 721.3604
ENERGY: 200000 0.4630 0.6774 0.8263 0.0000 -14348.6861 2566.3420 0.0000 0.0000 365.2455 -11415.1320 61.7919 -11780.3774 -11413.7662 59.9091 801.0503 882.3031 28945.3867 3.5296 3.5927
TCL: Running 100000 steps at 90 kelvin.
TCL: Setting parameter langevinTemp to 90
TCL: Running for 100000 steps
ETITLE: TS BOND ANGLE DIHED IMPRP ELECT VDW BOUNDARY MISC KINETIC TOTAL TEMP POTENTIAL TOTAL3 TEMPAVG PRESSURE GPRESSURE VOLUME PRESSAVG GPRESSAVG
ENERGY: 200000 0.4630 0.6774 0.8263 0.0000 -14348.6861 2566.3420 0.0000 0.0000 365.0761 -11415.3014 61.7632 -11780.3774 -11414.4589 61.7632 823.6516 882.4593 28945.3867 823.6516 882.4593
ENERGY: 300000 0.4300 0.7429 1.1320 0.0000 -14147.8359 2465.1615 0.0000 0.0000 522.7171 -11157.6524 88.4328 -11680.3695 -11155.7005 90.0696 556.0505 608.7232 28817.9534 3.9091 3.9553
TCL: Running 100000 steps at 120 kelvin.
TCL: Setting parameter langevinTemp to 120
TCL: Running for 100000 steps
ETITLE: TS BOND ANGLE DIHED IMPRP ELECT VDW BOUNDARY MISC KINETIC TOTAL TEMP POTENTIAL TOTAL3 TEMPAVG PRESSURE GPRESSURE VOLUME PRESSAVG GPRESSAVG
ENERGY: 300000 0.4300 0.7429 1.1320 0.0000 -14147.8359 2465.1615 0.0000 0.0000 522.4561 -11157.9135 88.3886 -11680.3695 -11156.9277 88.3886 551.0995 609.1909 28817.9534 551.0995 609.1909
ENERGY: 400000 0.4515 1.1812 2.4568 0.0000 -13739.8957 2228.0075 0.0000 0.0000 700.5596 -10807.2392 118.5200 -11507.7988 -10805.6450 120.1284 -912.3643 -863.8985 29324.5244 3.9953 3.9932
TCL: Running 100000 steps at 150 kelvin.
TCL: Setting parameter langevinTemp to 150
TCL: Running for 100000 steps
ETITLE: TS BOND ANGLE DIHED IMPRP ELECT VDW BOUNDARY MISC KINETIC TOTAL TEMP POTENTIAL TOTAL3 TEMPAVG PRESSURE GPRESSURE VOLUME PRESSAVG GPRESSAVG
ENERGY: 400000 0.4515 1.1812 2.4568 0.0000 -13739.8957 2228.0075 0.0000 0.0000 700.2106 -10807.5882 118.4609 -11507.7988 -10805.9194 118.4609 -932.4736 -863.4247 29324.5244 -932.4736 -863.4247
ENERGY: 500000 1.4546 0.9189 2.0898 0.0000 -13550.8885 2192.7431 0.0000 0.0000 867.7404 -10485.9417 146.8034 -11353.6821 -10483.2126 150.0380 -805.3627 -708.0347 29270.5356 3.2723 3.4385
TCL: Running 100000 steps at 180 kelvin.
TCL: Setting parameter langevinTemp to 180
TCL: Running for 100000 steps
ETITLE: TS BOND ANGLE DIHED IMPRP ELECT VDW BOUNDARY MISC KINETIC TOTAL TEMP POTENTIAL TOTAL3 TEMPAVG PRESSURE GPRESSURE VOLUME PRESSAVG GPRESSAVG
ENERGY: 500000 1.4546 0.9189 2.0898 0.0000 -13550.8885 2192.7431 0.0000 0.0000 867.2960 -10486.3861 146.7283 -11353.6821 -10484.4794 146.7283 -770.3573 -708.1916 29270.5356 -770.3573 -708.1916
ENERGY: 600000 1.5791 1.4380 2.3544 0.0000 -13383.7199 2335.9983 0.0000 0.0000 1022.9339 -10019.4162 173.0589 -11042.3501 -10016.9448 180.0922 1744.1199 1833.3749 28846.6175 4.5155 4.3702
TCL: Running 100000 steps at 210 kelvin.
TCL: Setting parameter langevinTemp to 210
TCL: Running for 100000 steps
ETITLE: TS BOND ANGLE DIHED IMPRP ELECT VDW BOUNDARY MISC KINETIC TOTAL TEMP POTENTIAL TOTAL3 TEMPAVG PRESSURE GPRESSURE VOLUME PRESSAVG GPRESSAVG
ENERGY: 600000 1.5791 1.4380 2.3544 0.0000 -13383.7199 2335.9983 0.0000 0.0000 1022.3997 -10019.9504 172.9685 -11042.3501 -10018.4623 172.9685 1771.6835 1832.9623 28846.6175 1771.6835 1832.9623
ENERGY: 700000 1.2484 1.4408 2.3227 0.0000 -12567.6037 1945.6340 0.0000 0.0000 1259.1257 -9357.8320 213.0176 -10616.9578 -9354.5709 210.1776 591.8347 570.8628 28474.1780 3.8912 4.1706
TCL: Running 100000 steps at 240 kelvin.
TCL: Setting parameter langevinTemp to 240
TCL: Running for 100000 steps
ETITLE: TS BOND ANGLE DIHED IMPRP ELECT VDW BOUNDARY MISC KINETIC TOTAL TEMP POTENTIAL TOTAL3 TEMPAVG PRESSURE GPRESSURE VOLUME PRESSAVG GPRESSAVG
ENERGY: 700000 1.2484 1.4408 2.3227 0.0000 -12567.6037 1945.6340 0.0000 0.0000 1258.4897 -9358.4681 212.9100 -10616.9578 -9356.5567 212.9100 485.8221 571.1711 28474.1780 485.8221 571.1711
ENERGY: 800000 2.0347 1.8038 6.2236 0.0000 -11854.8550 1793.7472 0.0000 0.0000 1425.4902 -8625.5555 241.1630 -10051.0457 -8623.2485 240.1756 794.9524 808.5945 29337.3312 2.3796 2.4706
TCL: Running 100000 steps at 270 kelvin.
TCL: Setting parameter langevinTemp to 270
TCL: Running for 100000 steps
ETITLE: TS BOND ANGLE DIHED IMPRP ELECT VDW BOUNDARY MISC KINETIC TOTAL TEMP POTENTIAL TOTAL3 TEMPAVG PRESSURE GPRESSURE VOLUME PRESSAVG GPRESSAVG
ENERGY: 800000 2.0347 1.8038 6.2236 0.0000 -11854.8550 1793.7472 0.0000 0.0000 1424.8147 -8626.2310 241.0487 -10051.0457 -8624.3569 241.0487 729.4077 807.9257 29337.3312 729.4077 807.9257
ENERGY: 900000 3.1586 1.9199 2.9269 0.0000 -11226.2485 1496.6557 0.0000 0.0000 1572.7551 -8148.8322 266.0771 -9721.5874 -8144.2739 269.8286 -481.0802 -426.4153 29971.2645 2.1847 2.1283
TCL: Running 1000000 steps at 300 kelvin.
TCL: Setting parameter langevinTemp to 300
TCL: Running for 1000000 steps
ETITLE: TS BOND ANGLE DIHED IMPRP ELECT VDW BOUNDARY MISC KINETIC TOTAL TEMP POTENTIAL TOTAL3 TEMPAVG PRESSURE GPRESSURE VOLUME PRESSAVG GPRESSAVG
ENERGY: 900000 3.1586 1.9199 2.9269 0.0000 -11226.2485 1496.6557 0.0000 0.0000 1571.9912 -8149.5962 265.9479 -9721.5874 -8147.4290 265.9479 -509.8923 -425.2307 29971.2645 -509.8923 -425.2307
ENERGY: 1100000 3.2975 2.2623 3.1299 0.0000 -10800.5377 1491.3137 0.0000 0.0000 1742.4617 -7558.0726 294.7879 -9300.5343 -7553.5513 299.8971 402.7311 516.2763 30249.9693 4.0720 3.8444
ENERGY: 1300000 0.7560 3.5040 2.9732 0.0000 -10814.4346 1484.9492 0.0000 0.0000 1774.4026 -7547.8496 300.1916 -9322.2521 -7545.0039 300.5102 388.3995 499.2893 30173.6765 3.6629 3.3951
ENERGY: 1500000 2.3100 2.2052 7.6680 0.0000 -10773.5386 1410.7492 0.0000 0.0000 1771.6431 -7578.9631 299.7248 -9350.6063 -7575.7620 299.9020 -376.7209 -239.7179 30437.3649 3.3610 3.3967
ENERGY: 1700000 1.8165 6.0542 2.8621 0.0000 -10818.4108 1430.4328 0.0000 0.0000 1780.4681 -7596.7770 301.2178 -9377.2451 -7593.3706 299.8843 -310.5996 -231.1647 30497.8508 1.9604 2.0861
ENERGY: 1900000 1.8841 2.0109 2.8703 0.0000 -10878.5459 1482.5248 0.0000 0.0000 1789.7188 -7599.5369 302.7828 -9389.2557 -7597.1252 299.9089 -54.2811 117.7704 30616.1999 2.8643 2.6779
TCL: Exiting due to exit command.
