Info: SIMULATION PARAMETERS:
Info: TIMESTEP               2
Info: NUMBER OF STEPS        0
Info: STEPS PER CYCLE        10
Info: PERIODIC CELL BASIS 1  39.806 0 0
Info: PERIODIC CELL BASIS 2  0 40.343 0
Info: PERIODIC CELL BASIS 3  0 0 39.797
Info: PERIODIC CELL CENTER   0 0 0
Info: WRAPPING WATERS AROUND PERIODIC BOUNDARIES ON OUTPUT.
Info: WRAPPING ALL CLUSTERS AROUND PERIODIC BOUNDARIES ON OUTPUT.
Info: FIRST LDB TIMESTEP     50
Info: LAST LDB TIMESTEP     -1
Info: HOM BACKGROUND SCALING 1
Info: PME BACKGROUND SCALING 1
Info: MIN ATOMS PER PATCH    40
Info: EMPTY PATCH LOAD       40 ATOMS
Info: INITIAL TEMPERATURE    300
Info: CENTER OF MASS MOVING INITIALLY? NO
Info: DIELECTRIC             1
Info: EXCLUDE                SCALED ONE-FOUR
Info: 1-4 ELECTROSTATICS SCALED BY 0.833333
Info: MODIFIED 1-4 VDW PARAMETERS WILL BE USED
Info: DCD FILENAME           mobley_2143011_min.dcd
Info: DCD FREQUENCY          5000
Info: DCD FIRST STEP         5000
Info: DCD FILE WILL CONTAIN UNIT CELL DATA
Info: XST FILENAME           mobley_2143011_min.xst
Info: XST FREQUENCY          5000
Info: NO VELOCITY DCD OUTPUT
Info: NO FORCE DCD OUTPUT
Info: OUTPUT FILENAME        mobley_2143011_min
Info: BINARY OUTPUT FILES WILL BE USED
Info: RESTART FILENAME       mobley_2143011_min.restart
Info: RESTART FREQUENCY      5000
Info: BINARY RESTART FILES WILL BE USED
Info: CUTOFF                 9
Info: PAIRLIST DISTANCE      11
Info: PAIRLIST SHRINK RATE   0.01
Info: PAIRLIST GROW RATE     0.01
Info: PAIRLIST TRIGGER       0.3
Info: PAIRLISTS PER CYCLE    2
Info: PAIRLISTS ENABLED
Info: MARGIN                 8
Info: HYDROGEN GROUP CUTOFF  2.5
Info: PATCH DIMENSION        21.5
Info: ENERGY OUTPUT STEPS    5000
Info: ENERGY EVALUATION STEPS    5000
Info: OUTPUT ENERGY PRECISION 4
Info: CROSSTERM ENERGY INCLUDED IN DIHEDRAL
Info: TIMING OUTPUT STEPS    50000
Info: PRESSURE OUTPUT STEPS  5000
Info: LANGEVIN DYNAMICS ACTIVE
Info: LANGEVIN TEMPERATURE   300
Info: LANGEVIN USING BBK INTEGRATOR
Info: LANGEVIN DAMPING COEFFICIENT IS 1 INVERSE PS
Info: LANGEVIN DYNAMICS APPLIED TO HYDROGENS
Info: LANGEVIN PISTON PRESSURE CONTROL ACTIVE
Info:        TARGET PRESSURE IS 1.01325 BAR
Info:     OSCILLATION PERIOD IS 50 FS
Info:             DECAY TIME IS 25 FS
Info:     PISTON TEMPERATURE IS 300 K
Info:       PRESSURE CONTROL IS GROUP-BASED
Info:    INITIAL STRAIN RATE IS 0 0 0
Info:       CELL FLUCTUATION IS ISOTROPIC
Info: PARTICLE MESH EWALD (PME) ACTIVE
Info: PME TOLERANCE               1e-06
Info: PME EWALD COEFFICIENT       0.348832
Info: PME INTERPOLATION ORDER     4
Info: PME GRID DIMENSIONS         40 44 40
Info: PME MAXIMUM GRID SPACING    1
Info: FULL ELECTROSTATIC EVALUATION FREQUENCY      2
Info: USING VERLET I (r-RESPA) MTS SCHEME.
Info: C1 SPLITTING OF LONG RANGE ELECTROSTATICS
Info: PLACING ATOMS IN PATCHES BY HYDROGEN GROUPS
Info: RIGID BONDS TO HYDROGEN : ALL
Info:         ERROR TOLERANCE : 1e-08
Info:          MAX ITERATIONS : 100
Info: RIGID WATER USING SETTLE ALGORITHM
Info: RANDOM NUMBER SEED     1741354949
Info: USE HYDROGEN BONDS?    NO
Info: Using AMBER format force field!
Info: AMBER PARM FILE        mobley_2143011.prmtop
Info: COORDINATE PDB         mobley_2143011.pdb
Info: Exclusions will be read from PARM file!
Info: SCNB (VDW SCALING)     2
Info: USING ARITHMETIC MEAN TO COMBINE L-J SIGMA PARAMETERS
Info: SUMMARY OF PARAMETERS:
Info: 7 BONDS
Info: 9 ANGLES
Info:   9 HARMONIC
Info:   0 COSINE-BASED
Info: 6 DIHEDRAL
Info: 0 IMPROPER
Info: 0 CROSSTERM
Info: 0 VDW
Info: 21 VDW_PAIRS
Info: 0 NBTHOLE_PAIRS
Info: STRUCTURE SUMMARY:
Info: 4686 ATOMS
Info: 4685 BONDS
Info: 24 ANGLES
Info: 28 DIHEDRALS
Info: 0 IMPROPERS
Info: 0 CROSSTERMS
Info: 4737 EXCLUSIONS
Info: 4681 RIGID BONDS
Info: 9377 DEGREES OF FREEDOM
Info: 1562 HYDROGEN GROUPS
Info: 4 ATOMS IN LARGEST HYDROGEN GROUP
Info: 1562 MIGRATION GROUPS
Info: 4 ATOMS IN LARGEST MIGRATION GROUP
Info: TOTAL MASS = 28121 amu
Info: TOTAL CHARGE = 0.000199992 e
Info: MASS DENSITY = 0.730674 g/cm^3
Info: ATOM DENSITY = 0.0733222 atoms/A^3
Info: ADDED 0 IMPLICIT EXCLUSIONS
Info: NONBONDED TABLE R-SQUARED SPACING: 0.0625
Info: NONBONDED TABLE SIZE: 705 POINTS
Info: REMOVING COM VELOCITY -0.0494704 0.0306139 0.000490594
TCL: Minimizing for 2000 steps
ETITLE: TS BOND ANGLE DIHED IMPRP ELECT VDW BOUNDARY MISC KINETIC TOTAL TEMP POTENTIAL TOTAL3 TEMPAVG PRESSURE GPRESSURE VOLUME PRESSAVG GPRESSAVG
ENERGY: 0 0.0242 0.7468 0.0096 0.0000 -14650.5116 1674.2224 0.0000 0.0000 0.0000 -12975.5085 0.0000 -12975.5085 -12975.5085 0.0000 11297.1734 -16085.8294 63909.7419 11297.1734 -16085.8294
ENERGY: 400 2.9881 3.5716 0.2306 0.0000 -19538.3343 2802.3336 0.0000 0.0000 0.0000 -16729.2105 0.0000 -16729.2105 -16729.2105 0.0000 15668.4802 15492.8799 63909.7419 15668.4802 15492.8799
ENERGY: 800 7.0577 2.6209 0.1980 0.0000 -20724.5690 3353.8370 0.0000 0.0000 0.0000 -17360.8555 0.0000 -17360.8555 -17360.8555 0.0000 18392.0741 18120.2264 63909.7419 18392.0741 18120.2264
ENERGY: 1200 0.4655 0.6926 0.0645 0.0000 -21144.0273 3540.6135 0.0000 0.0000 0.0000 -17602.1911 0.0000 -17602.1911 -17602.1911 0.0000 19324.0134 19005.2118 63909.7419 19324.0134 19005.2118
ENERGY: 1600 0.2666 0.5771 0.0377 0.0000 -21384.2410 3647.9343 0.0000 0.0000 0.0000 -17735.4253 0.0000 -17735.4253 -17735.4253 0.0000 19888.7007 19620.5548 63909.7419 19888.7007 19620.5548
ENERGY: 2000 0.1245 0.5138 0.0881 0.0000 -21562.8966 3755.9080 0.0000 0.0000 0.0000 -17806.2623 0.0000 -17806.2623 -17806.2623 0.0000 20489.4707 20213.9166 63909.7419 20489.4707 20213.9166
TCL: Exiting due to exit command.
Info: NAMD 3.0.1 for Linux-x86_64-multicore
Info: Please visit http://www.ks.uiuc.edu/Research/namd/
Info: for updates, documentation, and support information.
Info: Please cite Phillips et al., J. Chem. Phys. 153:044130 (2020) doi:10.1063/5.0014475
Info: in all publications reporting results obtained with NAMD.
Info: Based on Charm++/Converse 80000 for multicore-linux-x86_64-gcc
Info: Built Mon Oct 14 11:11:06 CDT 2024 by dhardy on athine.ks.uiuc.edu
Info: 1 NAMD  3.0.1  Linux-x86_64-multicore  16    k013  z5358697
Info: Running on 16 processors, 1 nodes, 1 physical nodes.
Info: CPU topology information available.
Info: Charm++/Converse parallel runtime startup completed at 0.00951152 s
Info: 1043.45 MB of memory in use based on /proc/self/stat
Info: Configuration file is mobley_2143011_equil.namd
Info: Working in the current directory /srv/scratch/z5358697/prod_prep_1/2143011
TCL: Running 25000 steps at 30 kelvin.
TCL: Suspending until startup complete.
Info: SIMULATION PARAMETERS:
Info: TIMESTEP               2
Info: NUMBER OF STEPS        0
Info: STEPS PER CYCLE        10
Info: PERIODIC CELL BASIS 1  39.806 0 0
Info: PERIODIC CELL BASIS 2  0 40.343 0
Info: PERIODIC CELL BASIS 3  0 0 39.797
Info: PERIODIC CELL CENTER   0 0 0
Info: WRAPPING WATERS AROUND PERIODIC BOUNDARIES ON OUTPUT.
Info: WRAPPING ALL CLUSTERS AROUND PERIODIC BOUNDARIES ON OUTPUT.
Info: FIRST LDB TIMESTEP     50
Info: LAST LDB TIMESTEP     -1
Info: HOM BACKGROUND SCALING 1
Info: PME BACKGROUND SCALING 1
Info: MIN ATOMS PER PATCH    40
Info: EMPTY PATCH LOAD       40 ATOMS
Info: INITIAL TEMPERATURE    300
Info: CENTER OF MASS MOVING INITIALLY? NO
Info: DIELECTRIC             1
Info: EXCLUDE                SCALED ONE-FOUR
Info: 1-4 ELECTROSTATICS SCALED BY 0.833333
Info: MODIFIED 1-4 VDW PARAMETERS WILL BE USED
Info: DCD FILENAME           mobley_2143011_equil.dcd
Info: DCD FREQUENCY          5000
Info: DCD FIRST STEP         5000
Info: DCD FILE WILL CONTAIN UNIT CELL DATA
Info: XST FILENAME           mobley_2143011_equil.xst
Info: XST FREQUENCY          5000
Info: NO VELOCITY DCD OUTPUT
Info: NO FORCE DCD OUTPUT
Info: OUTPUT FILENAME        mobley_2143011_equil
Info: BINARY OUTPUT FILES WILL BE USED
Info: RESTART FILENAME       mobley_2143011_equil.restart
Info: RESTART FREQUENCY      5000
Info: BINARY RESTART FILES WILL BE USED
Info: CUTOFF                 9
Info: PAIRLIST DISTANCE      11
Info: PAIRLIST SHRINK RATE   0.01
Info: PAIRLIST GROW RATE     0.01
Info: PAIRLIST TRIGGER       0.3
Info: PAIRLISTS PER CYCLE    2
Info: PAIRLISTS ENABLED
Info: MARGIN                 8
Info: HYDROGEN GROUP CUTOFF  2.5
Info: PATCH DIMENSION        21.5
Info: ENERGY OUTPUT STEPS    5000
Info: ENERGY EVALUATION STEPS    5000
Info: OUTPUT ENERGY PRECISION 4
Info: CROSSTERM ENERGY INCLUDED IN DIHEDRAL
Info: TIMING OUTPUT STEPS    50000
Info: PRESSURE OUTPUT STEPS  5000
Info: LANGEVIN DYNAMICS ACTIVE
Info: LANGEVIN TEMPERATURE   30
Info: LANGEVIN USING BBK INTEGRATOR
Info: LANGEVIN DAMPING COEFFICIENT IS 1 INVERSE PS
Info: LANGEVIN DYNAMICS APPLIED TO HYDROGENS
Info: LANGEVIN PISTON PRESSURE CONTROL ACTIVE
Info:        TARGET PRESSURE IS 1.01325 BAR
Info:     OSCILLATION PERIOD IS 50 FS
Info:             DECAY TIME IS 25 FS
Info:     PISTON TEMPERATURE IS 300 K
Info:       PRESSURE CONTROL IS GROUP-BASED
Info:    INITIAL STRAIN RATE IS 0 0 0
Info:       CELL FLUCTUATION IS ISOTROPIC
Info: PARTICLE MESH EWALD (PME) ACTIVE
Info: PME TOLERANCE               1e-06
Info: PME EWALD COEFFICIENT       0.348832
Info: PME INTERPOLATION ORDER     4
Info: PME GRID DIMENSIONS         40 44 40
Info: PME MAXIMUM GRID SPACING    1
Info: FULL ELECTROSTATIC EVALUATION FREQUENCY      2
Info: USING VERLET I (r-RESPA) MTS SCHEME.
Info: C1 SPLITTING OF LONG RANGE ELECTROSTATICS
Info: PLACING ATOMS IN PATCHES BY HYDROGEN GROUPS
Info: RIGID BONDS TO HYDROGEN : ALL
Info:         ERROR TOLERANCE : 1e-08
Info:          MAX ITERATIONS : 100
Info: RIGID WATER USING SETTLE ALGORITHM
Info: RANDOM NUMBER SEED     1741354970
Info: USE HYDROGEN BONDS?    NO
Info: Using AMBER format force field!
Info: AMBER PARM FILE        mobley_2143011.prmtop
Info: COORDINATE PDB         mobley_2143011.pdb
Info: Exclusions will be read from PARM file!
Info: SCNB (VDW SCALING)     2
Info: USING ARITHMETIC MEAN TO COMBINE L-J SIGMA PARAMETERS
Info: BINARY COORDINATES     mobley_2143011_min.coor
Info: SUMMARY OF PARAMETERS:
Info: 7 BONDS
Info: 9 ANGLES
Info: 6 DIHEDRAL
Info: 0 IMPROPER
Info: 0 CROSSTERM
Info: 0 VDW
Info: 21 VDW_PAIRS
Info: 0 NBTHOLE_PAIRS
Info: STRUCTURE SUMMARY:
Info: 4686 ATOMS
Info: 4685 BONDS
Info: 24 ANGLES
Info: 28 DIHEDRALS
Info: 0 IMPROPERS
Info: 0 CROSSTERMS
Info: 4737 EXCLUSIONS
Info: 4681 RIGID BONDS
Info: 9377 DEGREES OF FREEDOM
Info: 1562 HYDROGEN GROUPS
Info: 4 ATOMS IN LARGEST HYDROGEN GROUP
Info: 1562 MIGRATION GROUPS
Info: 4 ATOMS IN LARGEST MIGRATION GROUP
Info: TOTAL MASS = 28121 amu
Info: TOTAL CHARGE = 0.000199992 e
Info: MASS DENSITY = 0.730674 g/cm^3
Info: ATOM DENSITY = 0.0733222 atoms/A^3
Info: ADDED 0 IMPLICIT EXCLUSIONS
Info: NONBONDED TABLE R-SQUARED SPACING: 0.0625
Info: NONBONDED TABLE SIZE: 705 POINTS
Info: REMOVING COM VELOCITY -0.0997882 -0.0476099 0.0610629
TCL: Running for 25000 steps
ETITLE: TS BOND ANGLE DIHED IMPRP ELECT VDW BOUNDARY MISC KINETIC TOTAL TEMP POTENTIAL TOTAL3 TEMPAVG PRESSURE GPRESSURE VOLUME PRESSAVG GPRESSAVG
ENERGY: 0 0.1245 0.5138 0.0881 0.0000 -21562.8966 3755.9080 0.0000 0.0000 2761.0287 -15045.2336 296.3449 -17806.2623 -15044.6855 296.3449 256.5868 292.9460 63909.7419 256.5868 292.9460
ENERGY: 5000 0.0827 1.2245 0.0778 0.0000 -22647.1196 4032.0847 0.0000 0.0000 279.8880 -18333.7618 30.0407 -18613.6498 -18332.9038 47.4239 513.6950 567.7826 45610.1720 1.7352 1.8323
ENERGY: 10000 0.0905 1.1218 0.2012 0.0000 -22583.0174 3938.2569 0.0000 0.0000 286.1173 -18357.2296 30.7093 -18643.3469 -18356.1831 30.0280 -44.5393 21.9613 45700.3926 0.4836 0.4928
ENERGY: 15000 0.0834 1.4019 0.1731 0.0000 -22539.6288 3865.1139 0.0000 0.0000 292.2099 -18380.6465 31.3633 -18672.8565 -18379.6563 30.1536 -489.5050 -445.6320 45751.1337 -1.6996 -1.7162
ENERGY: 20000 0.1863 1.5297 0.1052 0.0000 -22537.0444 3858.4869 0.0000 0.0000 282.3146 -18394.4217 30.3012 -18676.7364 -18393.5512 30.2077 -459.5744 -384.8252 45531.6361 8.4428 8.4140
ENERGY: 25000 0.0475 1.0885 0.2976 0.0000 -22530.2287 3855.6884 0.0000 0.0000 281.1386 -18391.9681 30.1750 -18673.1067 -18390.9504 30.2215 -509.9626 -450.0264 45623.0857 4.3373 4.5588
TCL: Running 25000 steps at 60 kelvin.
TCL: Setting parameter langevinTemp to 60
TCL: Running for 25000 steps
ETITLE: TS BOND ANGLE DIHED IMPRP ELECT VDW BOUNDARY MISC KINETIC TOTAL TEMP POTENTIAL TOTAL3 TEMPAVG PRESSURE GPRESSURE VOLUME PRESSAVG GPRESSAVG
ENERGY: 25000 0.0475 1.0885 0.2976 0.0000 -22530.2287 3855.6884 0.0000 0.0000 281.0007 -18392.1060 30.1602 -18673.1067 -18391.4973 30.1602 -507.4349 -449.9197 45623.0857 -507.4349 -449.9197
ENERGY: 30000 0.2803 1.5871 0.2686 0.0000 -22384.6775 3937.2160 0.0000 0.0000 567.5072 -17877.8182 60.9113 -18445.3255 -17876.0094 57.5803 550.1932 611.1324 45456.8606 7.0244 7.0468
ENERGY: 35000 1.4172 1.3588 0.6529 0.0000 -22180.7254 3704.5460 0.0000 0.0000 559.7726 -17912.9780 60.0811 -18472.7506 -17911.0867 60.1346 -786.4505 -734.9540 45727.2123 0.1839 0.1711
ENERGY: 40000 0.0619 1.3293 0.1399 0.0000 -22271.2927 3776.7794 0.0000 0.0000 573.6872 -17919.2949 61.5746 -18492.9821 -17917.5122 60.6484 -380.8336 -354.3192 45625.0992 3.4620 3.2365
ENERGY: 45000 0.0983 1.2040 0.0687 0.0000 -22190.8481 3675.0415 0.0000 0.0000 563.7689 -17950.6667 60.5101 -18514.4356 -17949.0689 59.9517 -996.3740 -938.2183 45822.5471 2.5840 2.6431
ENERGY: 50000 0.2696 2.2734 0.8723 0.0000 -22311.5945 3794.8994 0.0000 0.0000 558.7075 -17954.5724 59.9668 -18513.2799 -17953.2316 59.7037 -237.6379 -204.4749 45527.8925 1.4605 1.6746
TCL: Running 25000 steps at 90 kelvin.
TCL: Setting parameter langevinTemp to 90
TCL: Running for 25000 steps
ETITLE: TS BOND ANGLE DIHED IMPRP ELECT VDW BOUNDARY MISC KINETIC TOTAL TEMP POTENTIAL TOTAL3 TEMPAVG PRESSURE GPRESSURE VOLUME PRESSAVG GPRESSAVG
ENERGY: 50000 0.2696 2.2734 0.8723 0.0000 -22311.5945 3794.8994 0.0000 0.0000 558.4267 -17954.8532 59.9367 -18513.2799 -17953.5583 59.9367 -253.5360 -204.6570 45527.8925 -253.5360 -204.6570
ENERGY: 55000 0.3265 2.1757 0.3302 0.0000 -21815.0113 3611.7624 0.0000 0.0000 847.6735 -17352.7429 90.9819 -18200.4164 -17350.3197 87.2161 -634.1579 -587.9530 46057.7845 4.8303 4.4000
ENERGY: 60000 0.5561 1.4651 0.8859 0.0000 -21924.8764 3690.2068 0.0000 0.0000 844.4084 -17387.3541 90.6315 -18231.7625 -17386.0382 90.4954 -324.9158 -260.3270 46046.1885 6.4262 6.3837
ENERGY: 65000 0.3141 1.9372 0.3218 0.0000 -21957.9874 3694.2687 0.0000 0.0000 844.7586 -17416.3871 90.6691 -18261.1457 -17413.9826 90.2605 -306.6954 -255.4123 46036.8442 2.4108 2.5790
ENERGY: 70000 0.1129 1.6396 0.3946 0.0000 -22130.5965 3838.7644 0.0000 0.0000 849.2990 -17440.3861 91.1564 -18289.6851 -17438.0785 90.6621 384.7588 414.2200 45692.5356 1.7430 1.5140
ENERGY: 75000 0.3964 2.4705 0.6713 0.0000 -22337.4704 4004.6808 0.0000 0.0000 853.3503 -17475.9012 91.5912 -18329.2514 -17474.4375 90.2865 1279.2093 1352.0490 45173.9406 2.6176 2.4806
TCL: Running 25000 steps at 120 kelvin.
TCL: Setting parameter langevinTemp to 120
TCL: Running for 25000 steps
ETITLE: TS BOND ANGLE DIHED IMPRP ELECT VDW BOUNDARY MISC KINETIC TOTAL TEMP POTENTIAL TOTAL3 TEMPAVG PRESSURE GPRESSURE VOLUME PRESSAVG GPRESSAVG
ENERGY: 75000 0.3964 2.4705 0.6713 0.0000 -22337.4704 4004.6808 0.0000 0.0000 852.9373 -17476.3142 91.5469 -18329.2514 -17474.5119 91.5469 1297.3758 1351.1897 45173.9406 1297.3758 1351.1897
ENERGY: 80000 0.2547 2.6713 0.2168 0.0000 -21623.5763 3611.9476 0.0000 0.0000 1115.1093 -16893.3766 119.6861 -18008.4858 -16890.9079 117.6142 -191.4538 -129.2820 46163.4802 0.2122 0.1271
ENERGY: 85000 0.1066 2.4692 0.9151 0.0000 -21789.1381 3774.2356 0.0000 0.0000 1116.7132 -16894.6986 119.8583 -18011.4117 -16892.5490 120.1018 834.3247 871.5270 45459.8350 4.3782 4.0702
ENERGY: 90000 0.7005 2.9966 0.5488 0.0000 -21889.2463 3834.2322 0.0000 0.0000 1125.4886 -16925.2796 120.8002 -18050.7682 -16922.8705 120.6287 992.1474 1015.8221 45555.1572 2.9331 3.1933
ENERGY: 95000 0.2327 4.8372 0.8303 0.0000 -21791.7672 3698.6675 0.0000 0.0000 1108.9618 -16978.2378 119.0263 -18087.1996 -16974.4126 119.7023 163.4261 209.7640 45681.2849 4.9901 4.8641
ENERGY: 100000 0.9977 2.4025 0.8216 0.0000 -21700.6718 3587.2175 0.0000 0.0000 1142.4866 -16966.7459 122.6246 -18109.2325 -16963.5341 120.8737 -518.3795 -451.3172 45959.5588 3.2865 3.4633
TCL: Running 25000 steps at 150 kelvin.
TCL: Setting parameter langevinTemp to 150
TCL: Running for 25000 steps
ETITLE: TS BOND ANGLE DIHED IMPRP ELECT VDW BOUNDARY MISC KINETIC TOTAL TEMP POTENTIAL TOTAL3 TEMPAVG PRESSURE GPRESSURE VOLUME PRESSAVG GPRESSAVG
ENERGY: 100000 0.9977 2.4025 0.8216 0.0000 -21700.6718 3587.2175 0.0000 0.0000 1141.9481 -16967.2844 122.5668 -18109.2325 -16965.0289 122.5668 -507.2075 -451.3316 45959.5588 -507.2075 -451.3316
ENERGY: 105000 0.0567 4.6115 0.7740 0.0000 -21482.9922 3692.7210 0.0000 0.0000 1379.7665 -16405.0626 148.0922 -17784.8291 -16402.4714 145.2995 977.2934 1071.8401 45421.7610 4.9221 4.7114
ENERGY: 110000 0.8177 3.7612 0.8630 0.0000 -21222.7373 3468.8916 0.0000 0.0000 1397.0060 -16351.3977 149.9425 -17748.4038 -16348.5762 150.1975 -330.6327 -266.2995 46197.1774 6.8590 6.7947
ENERGY: 115000 1.7794 2.8474 1.3208 0.0000 -21291.4399 3475.7933 0.0000 0.0000 1413.0703 -16396.6287 151.6667 -17809.6990 -16395.0638 150.2841 -479.7717 -417.6535 46080.0127 1.4854 0.8104
ENERGY: 120000 0.1239 3.6630 1.5849 0.0000 -21360.3106 3519.1512 0.0000 0.0000 1382.0219 -16453.7657 148.3342 -17835.7876 -16449.4611 149.7053 -349.9279 -342.1234 46353.4586 3.8028 3.7629
ENERGY: 125000 0.3025 2.7301 0.6483 0.0000 -21230.4524 3419.7666 0.0000 0.0000 1419.4425 -16387.5625 152.3506 -17807.0050 -16384.8558 151.3814 -573.1072 -562.9231 46037.9955 4.1524 3.9876
TCL: Running 50000 steps at 180 kelvin.
TCL: Setting parameter langevinTemp to 180
TCL: Running for 50000 steps
ETITLE: TS BOND ANGLE DIHED IMPRP ELECT VDW BOUNDARY MISC KINETIC TOTAL TEMP POTENTIAL TOTAL3 TEMPAVG PRESSURE GPRESSURE VOLUME PRESSAVG GPRESSAVG
ENERGY: 125000 0.3025 2.7301 0.6483 0.0000 -21230.4524 3419.7666 0.0000 0.0000 1418.7626 -16388.2424 152.2777 -17807.0050 -16385.4112 152.2777 -623.4559 -563.3535 46037.9955 -623.4559 -563.3535
ENERGY: 135000 2.0118 4.2141 0.6817 0.0000 -20739.3843 3350.1671 0.0000 0.0000 1735.4190 -15646.8905 186.2648 -17382.3095 -15643.6408 179.8188 -115.7987 -61.0680 46087.1761 3.4090 2.9080
ENERGY: 145000 0.5831 3.1259 0.4579 0.0000 -20754.5381 3420.6291 0.0000 0.0000 1656.8593 -15672.8829 177.8329 -17329.7422 -15669.6047 180.2776 615.0797 699.6847 45410.8117 0.7253 1.1604
ENERGY: 155000 1.0860 1.8707 0.3320 0.0000 -20849.9124 3369.0797 0.0000 0.0000 1665.8250 -15811.7191 178.7952 -17477.5441 -15808.9121 180.2204 -64.5080 16.8207 45823.2361 1.1405 1.4847
ENERGY: 165000 0.9841 3.0817 1.6598 0.0000 -20789.1329 3302.8203 0.0000 0.0000 1699.6204 -15780.9666 182.4225 -17480.5870 -15775.7531 180.1858 -402.8225 -336.3919 45978.8734 1.9730 1.9107
ENERGY: 175000 0.3074 4.8366 1.2529 0.0000 -20753.8571 3277.5136 0.0000 0.0000 1688.1414 -15781.8053 181.1904 -17469.9467 -15776.9239 180.5106 -653.3497 -618.4965 46336.7359 5.2337 5.0083
TCL: Running 50000 steps at 210 kelvin.
TCL: Setting parameter langevinTemp to 210
TCL: Running for 50000 steps
ETITLE: TS BOND ANGLE DIHED IMPRP ELECT VDW BOUNDARY MISC KINETIC TOTAL TEMP POTENTIAL TOTAL3 TEMPAVG PRESSURE GPRESSURE VOLUME PRESSAVG GPRESSAVG
ENERGY: 175000 0.3074 4.8366 1.2529 0.0000 -20753.8571 3277.5136 0.0000 0.0000 1687.2790 -15782.6677 181.0979 -17469.9467 -15779.2996 181.0979 -676.8915 -617.4800 46336.7359 -676.8915 -617.4800
ENERGY: 185000 0.4800 6.1274 1.9098 0.0000 -19687.2233 2946.6229 0.0000 0.0000 1975.0971 -14756.9861 211.9898 -16732.0832 -14750.8618 210.5895 -398.2366 -312.7638 45644.1971 4.9093 4.5319
ENERGY: 195000 0.2931 4.7931 0.7234 0.0000 -19724.4749 3008.0915 0.0000 0.0000 1932.0088 -14778.5649 207.3651 -16710.5737 -14772.7013 210.4402 -38.2177 12.2160 45559.9676 1.5976 1.7065
ENERGY: 205000 1.9580 4.1681 0.7157 0.0000 -19830.0363 3033.6136 0.0000 0.0000 1952.7608 -14836.8201 209.5924 -16789.5809 -14829.8026 208.0275 78.7846 138.0364 45363.5482 5.0448 5.6206
ENERGY: 215000 1.9510 3.8620 1.2591 0.0000 -19729.6761 3010.8166 0.0000 0.0000 1988.0773 -14723.7102 213.3830 -16711.7874 -14721.1845 209.3260 -166.4719 -79.7794 45974.7676 3.7096 3.3225
ENERGY: 225000 1.8225 3.8147 1.1417 0.0000 -19874.1158 3159.0393 0.0000 0.0000 1993.2781 -14715.0195 213.9412 -16708.2975 -14710.6574 211.4174 672.5054 779.5685 45728.6002 6.3445 6.3868
TCL: Running 50000 steps at 240 kelvin.
TCL: Setting parameter langevinTemp to 240
TCL: Running for 50000 steps
ETITLE: TS BOND ANGLE DIHED IMPRP ELECT VDW BOUNDARY MISC KINETIC TOTAL TEMP POTENTIAL TOTAL3 TEMPAVG PRESSURE GPRESSURE VOLUME PRESSAVG GPRESSAVG
ENERGY: 225000 1.8225 3.8147 1.1417 0.0000 -19874.1158 3159.0393 0.0000 0.0000 1992.3141 -14715.9834 213.8377 -16708.2975 -14712.7214 213.8377 693.2729 779.9253 45728.6002 693.2729 779.9253
ENERGY: 235000 2.5945 4.7413 0.7959 0.0000 -18875.5828 2786.6227 0.0000 0.0000 2224.3596 -13856.4688 238.7434 -16080.8284 -13850.5872 240.0813 -29.6424 35.5205 46326.3575 0.0346 0.2430
ENERGY: 245000 1.0552 4.5840 2.2328 0.0000 -18748.4054 2794.8415 0.0000 0.0000 2250.9324 -13694.7596 241.5955 -15945.6920 -13689.4828 240.6351 371.7211 472.7057 46071.0047 -0.2824 -0.7221
ENERGY: 255000 2.2742 7.4586 0.5557 0.0000 -18807.8685 2758.5669 0.0000 0.0000 2250.3062 -13788.7069 241.5283 -16039.0131 -13787.2667 239.5477 -10.9840 60.0724 46218.8204 0.5737 0.1260
ENERGY: 265000 1.2857 3.5932 1.7247 0.0000 -18700.9657 2719.4393 0.0000 0.0000 2239.2222 -13735.7006 240.3387 -15974.9228 -13728.9056 238.4689 -36.6520 44.9426 46299.4893 -3.0079 -2.7061
ENERGY: 275000 0.9280 3.4230 1.8212 0.0000 -18932.8077 2921.9975 0.0000 0.0000 2206.6994 -13797.9385 236.8480 -16004.6379 -13793.2242 240.7386 796.0452 844.2638 46569.4771 -1.9794 -2.2538
TCL: Running 50000 steps at 270 kelvin.
TCL: Setting parameter langevinTemp to 270
TCL: Running for 50000 steps
ETITLE: TS BOND ANGLE DIHED IMPRP ELECT VDW BOUNDARY MISC KINETIC TOTAL TEMP POTENTIAL TOTAL3 TEMPAVG PRESSURE GPRESSURE VOLUME PRESSAVG GPRESSAVG
ENERGY: 275000 0.9280 3.4230 1.8212 0.0000 -18932.8076 2921.9975 0.0000 0.0000 2205.6077 -13799.0302 236.7308 -16004.6379 -13796.3847 236.7308 763.8205 845.3580 46569.4771 763.8205 845.3580
ENERGY: 285000 0.7159 3.1633 0.9716 0.0000 -17839.6440 2495.1508 0.0000 0.0000 2480.8793 -12858.7630 266.2760 -15339.6424 -12854.3267 268.0745 -16.6969 39.6342 47073.8947 0.4389 0.2029
ENERGY: 295000 1.4054 4.3087 0.9458 0.0000 -18001.2691 2576.3718 0.0000 0.0000 2423.2804 -12994.9570 260.0939 -15418.2373 -12989.8238 268.1002 282.0762 316.8801 47192.2341 5.0064 4.5492
ENERGY: 305000 1.1410 5.1274 1.5935 0.0000 -17972.3712 2608.8968 0.0000 0.0000 2530.6378 -12824.9748 271.6167 -15355.6125 -12818.3104 270.6016 407.9397 540.1368 47024.1932 0.5495 0.7262
ENERGY: 315000 1.7770 4.8938 1.8464 0.0000 -17897.4041 2523.7075 0.0000 0.0000 2501.2465 -12863.9330 268.4621 -15365.1794 -12860.0097 271.1160 135.4525 258.0194 46652.4864 0.7895 1.3488
ENERGY: 325000 1.2338 2.2431 0.5927 0.0000 -17921.6629 2472.1545 0.0000 0.0000 2564.0439 -12881.3949 275.2022 -15445.4388 -12876.5065 270.8025 -137.1422 -29.9078 46509.3490 3.2137 3.4896
TCL: Running 1000000 steps at 300 kelvin.
TCL: Setting parameter langevinTemp to 300
TCL: Running for 1000000 steps
ETITLE: TS BOND ANGLE DIHED IMPRP ELECT VDW BOUNDARY MISC KINETIC TOTAL TEMP POTENTIAL TOTAL3 TEMPAVG PRESSURE GPRESSURE VOLUME PRESSAVG GPRESSAVG
ENERGY: 325000 1.2338 2.2431 0.5927 0.0000 -17921.6629 2472.1545 0.0000 0.0000 2562.7939 -12882.6448 275.0681 -15445.4388 -12878.4613 275.0681 -111.7730 -29.5327 46509.3490 -111.7730 -29.5327
ENERGY: 525000 0.2659 6.3431 0.9805 0.0000 -16904.5096 2236.7477 0.0000 0.0000 2704.9665 -11955.2058 290.3276 -14660.1723 -11952.2647 300.2688 -221.1549 -130.3451 48233.3742 2.0344 1.8121
ENERGY: 725000 0.2748 7.9126 3.4467 0.0000 -17094.6425 2308.0874 0.0000 0.0000 2763.5677 -12011.3532 296.6174 -14774.9209 -12005.9303 300.9393 -27.9335 70.2632 47921.6918 2.2460 2.2137
ENERGY: 925000 1.8649 4.9034 1.4110 0.0000 -16839.0584 2158.8537 0.0000 0.0000 2794.1232 -11877.9021 299.8969 -14672.0253 -11873.6432 301.0142 -544.8497 -490.9049 48297.2024 0.1531 0.2673
ENERGY: 1125000 0.5948 7.3782 1.2585 0.0000 -16988.6956 2263.0933 0.0000 0.0000 2792.5814 -11923.7894 299.7315 -14716.3709 -11915.7687 300.8601 -203.8735 -105.8766 48384.1428 3.3173 3.1613
ENERGY: 1325000 0.9321 7.1470 0.7430 0.0000 -17047.7846 2336.1484 0.0000 0.0000 2785.4738 -11917.3403 298.9686 -14702.8141 -11911.5527 301.0634 270.0062 376.5816 47894.8058 3.8863 4.1485
TCL: Exiting due to exit command.
