Info: SIMULATION PARAMETERS:
Info: TIMESTEP               2
Info: NUMBER OF STEPS        0
Info: STEPS PER CYCLE        10
Info: PERIODIC CELL BASIS 1  38.861 0 0
Info: PERIODIC CELL BASIS 2  0 39.115 0
Info: PERIODIC CELL BASIS 3  0 0 39.271
Info: PERIODIC CELL CENTER   0 0 0
Info: WRAPPING WATERS AROUND PERIODIC BOUNDARIES ON OUTPUT.
Info: WRAPPING ALL CLUSTERS AROUND PERIODIC BOUNDARIES ON OUTPUT.
Info: FIRST LDB TIMESTEP     50
Info: LAST LDB TIMESTEP     -1
Info: HOM BACKGROUND SCALING 1
Info: PME BACKGROUND SCALING 1
Info: MIN ATOMS PER PATCH    40
Info: EMPTY PATCH LOAD       40 ATOMS
Info: INITIAL TEMPERATURE    300
Info: CENTER OF MASS MOVING INITIALLY? NO
Info: DIELECTRIC             1
Info: EXCLUDE                SCALED ONE-FOUR
Info: 1-4 ELECTROSTATICS SCALED BY 0.833333
Info: MODIFIED 1-4 VDW PARAMETERS WILL BE USED
Info: DCD FILENAME           mobley_2310185_min.dcd
Info: DCD FREQUENCY          5000
Info: DCD FIRST STEP         5000
Info: DCD FILE WILL CONTAIN UNIT CELL DATA
Info: XST FILENAME           mobley_2310185_min.xst
Info: XST FREQUENCY          5000
Info: NO VELOCITY DCD OUTPUT
Info: NO FORCE DCD OUTPUT
Info: OUTPUT FILENAME        mobley_2310185_min
Info: BINARY OUTPUT FILES WILL BE USED
Info: RESTART FILENAME       mobley_2310185_min.restart
Info: RESTART FREQUENCY      5000
Info: BINARY RESTART FILES WILL BE USED
Info: CUTOFF                 9
Info: PAIRLIST DISTANCE      11
Info: PAIRLIST SHRINK RATE   0.01
Info: PAIRLIST GROW RATE     0.01
Info: PAIRLIST TRIGGER       0.3
Info: PAIRLISTS PER CYCLE    2
Info: PAIRLISTS ENABLED
Info: MARGIN                 8
Info: HYDROGEN GROUP CUTOFF  2.5
Info: PATCH DIMENSION        21.5
Info: ENERGY OUTPUT STEPS    5000
Info: ENERGY EVALUATION STEPS    5000
Info: OUTPUT ENERGY PRECISION 4
Info: CROSSTERM ENERGY INCLUDED IN DIHEDRAL
Info: TIMING OUTPUT STEPS    50000
Info: PRESSURE OUTPUT STEPS  5000
Info: LANGEVIN DYNAMICS ACTIVE
Info: LANGEVIN TEMPERATURE   300
Info: LANGEVIN USING BBK INTEGRATOR
Info: LANGEVIN DAMPING COEFFICIENT IS 1 INVERSE PS
Info: LANGEVIN DYNAMICS APPLIED TO HYDROGENS
Info: LANGEVIN PISTON PRESSURE CONTROL ACTIVE
Info:        TARGET PRESSURE IS 1.01325 BAR
Info:     OSCILLATION PERIOD IS 50 FS
Info:             DECAY TIME IS 25 FS
Info:     PISTON TEMPERATURE IS 300 K
Info:       PRESSURE CONTROL IS GROUP-BASED
Info:    INITIAL STRAIN RATE IS 0 0 0
Info:       CELL FLUCTUATION IS ISOTROPIC
Info: PARTICLE MESH EWALD (PME) ACTIVE
Info: PME TOLERANCE               1e-06
Info: PME EWALD COEFFICIENT       0.348832
Info: PME INTERPOLATION ORDER     4
Info: PME GRID DIMENSIONS         40 40 40
Info: PME MAXIMUM GRID SPACING    1
Info: FULL ELECTROSTATIC EVALUATION FREQUENCY      2
Info: USING VERLET I (r-RESPA) MTS SCHEME.
Info: C1 SPLITTING OF LONG RANGE ELECTROSTATICS
Info: PLACING ATOMS IN PATCHES BY HYDROGEN GROUPS
Info: RIGID BONDS TO HYDROGEN : ALL
Info:         ERROR TOLERANCE : 1e-08
Info:          MAX ITERATIONS : 100
Info: RIGID WATER USING SETTLE ALGORITHM
Info: RANDOM NUMBER SEED     1741319049
Info: USE HYDROGEN BONDS?    NO
Info: Using AMBER format force field!
Info: AMBER PARM FILE        mobley_2310185.prmtop
Info: COORDINATE PDB         mobley_2310185.pdb
Info: Exclusions will be read from PARM file!
Info: SCNB (VDW SCALING)     2
Info: USING ARITHMETIC MEAN TO COMBINE L-J SIGMA PARAMETERS
Info: SUMMARY OF PARAMETERS:
Info: 7 BONDS
Info: 7 ANGLES
Info:   7 HARMONIC
Info:   0 COSINE-BASED
Info: 4 DIHEDRAL
Info: 0 IMPROPER
Info: 0 CROSSTERM
Info: 0 VDW
Info: 28 VDW_PAIRS
Info: 0 NBTHOLE_PAIRS
Info: STRUCTURE SUMMARY:
Info: 4179 ATOMS
Info: 4178 BONDS
Info: 13 ANGLES
Info: 12 DIHEDRALS
Info: 0 IMPROPERS
Info: 0 CROSSTERMS
Info: 4203 EXCLUSIONS
Info: 4176 RIGID BONDS
Info: 8361 DEGREES OF FREEDOM
Info: 1393 HYDROGEN GROUPS
Info: 4 ATOMS IN LARGEST HYDROGEN GROUP
Info: 1393 MIGRATION GROUPS
Info: 4 ATOMS IN LARGEST MIGRATION GROUP
Info: TOTAL MASS = 25088.3 amu
Info: TOTAL CHARGE = -9.99831e-05 e
Info: MASS DENSITY = 0.697913 g/cm^3
Info: ATOM DENSITY = 0.0700073 atoms/A^3
Info: ADDED 0 IMPLICIT EXCLUSIONS
Info: NONBONDED TABLE R-SQUARED SPACING: 0.0625
Info: NONBONDED TABLE SIZE: 705 POINTS
Info: REMOVING COM VELOCITY 0.016725 0.22118 0.049956
TCL: Minimizing for 2000 steps
ETITLE: TS BOND ANGLE DIHED IMPRP ELECT VDW BOUNDARY MISC KINETIC TOTAL TEMP POTENTIAL TOTAL3 TEMPAVG PRESSURE GPRESSURE VOLUME PRESSAVG GPRESSAVG
ENERGY: 0 0.1172 0.2079 0.0012 0.0000 -12846.5310 1472.2071 0.0000 0.0000 0.0000 -11373.9975 0.0000 -11373.9975 -11373.9975 0.0000 10642.9903 -15078.4504 59693.8056 10642.9903 -15078.4504
ENERGY: 400 1.4781 2.0482 0.0241 0.0000 -17587.0150 2629.7340 0.0000 0.0000 0.0000 -14953.7307 0.0000 -14953.7307 -14953.7307 0.0000 15626.5436 15740.0573 59693.8056 15626.5436 15740.0573
ENERGY: 800 0.6851 0.6600 0.0160 0.0000 -18547.9016 3049.8588 0.0000 0.0000 0.0000 -15496.6817 0.0000 -15496.6817 -15496.6817 0.0000 17891.7232 18010.3385 59693.8056 17891.7232 18010.3385
ENERGY: 1200 0.3142 0.1774 0.0476 0.0000 -19030.8516 3295.2194 0.0000 0.0000 0.0000 -15735.0930 0.0000 -15735.0930 -15735.0930 0.0000 19305.9028 19404.2366 59693.8056 19305.9028 19404.2366
ENERGY: 1600 4.9291 2.7994 0.0738 0.0000 -19190.0408 3365.6119 0.0000 0.0000 0.0000 -15816.6266 0.0000 -15816.6266 -15816.6266 0.0000 19683.1254 19777.7625 59693.8056 19683.1254 19777.7625
ENERGY: 2000 0.1533 0.2185 0.0117 0.0000 -19255.9902 3371.1538 0.0000 0.0000 0.0000 -15884.4529 0.0000 -15884.4529 -15884.4529 0.0000 19816.1663 19900.5564 59693.8056 19816.1663 19900.5564
TCL: Exiting due to exit command.
Info: NAMD 3.0.1 for Linux-x86_64-multicore
Info: Please visit http://www.ks.uiuc.edu/Research/namd/
Info: for updates, documentation, and support information.
Info: Please cite Phillips et al., J. Chem. Phys. 153:044130 (2020) doi:10.1063/5.0014475
Info: in all publications reporting results obtained with NAMD.
Info: Based on Charm++/Converse 80000 for multicore-linux-x86_64-gcc
Info: Built Mon Oct 14 11:11:06 CDT 2024 by dhardy on athine.ks.uiuc.edu
Info: 1 NAMD  3.0.1  Linux-x86_64-multicore  16    k061  z5358697
Info: Running on 16 processors, 1 nodes, 1 physical nodes.
Info: CPU topology information available.
Info: Charm++/Converse parallel runtime startup completed at 0.00925514 s
Info: 1043.46 MB of memory in use based on /proc/self/stat
Info: Configuration file is mobley_2310185_equil.namd
Info: Working in the current directory /srv/scratch/z5358697/prod_prep_2/2310185
TCL: Running 25000 steps at 30 kelvin.
TCL: Suspending until startup complete.
Info: SIMULATION PARAMETERS:
Info: TIMESTEP               2
Info: NUMBER OF STEPS        0
Info: STEPS PER CYCLE        10
Info: PERIODIC CELL BASIS 1  38.861 0 0
Info: PERIODIC CELL BASIS 2  0 39.115 0
Info: PERIODIC CELL BASIS 3  0 0 39.271
Info: PERIODIC CELL CENTER   0 0 0
Info: WRAPPING WATERS AROUND PERIODIC BOUNDARIES ON OUTPUT.
Info: WRAPPING ALL CLUSTERS AROUND PERIODIC BOUNDARIES ON OUTPUT.
Info: FIRST LDB TIMESTEP     50
Info: LAST LDB TIMESTEP     -1
Info: HOM BACKGROUND SCALING 1
Info: PME BACKGROUND SCALING 1
Info: MIN ATOMS PER PATCH    40
Info: EMPTY PATCH LOAD       40 ATOMS
Info: INITIAL TEMPERATURE    300
Info: CENTER OF MASS MOVING INITIALLY? NO
Info: DIELECTRIC             1
Info: EXCLUDE                SCALED ONE-FOUR
Info: 1-4 ELECTROSTATICS SCALED BY 0.833333
Info: MODIFIED 1-4 VDW PARAMETERS WILL BE USED
Info: DCD FILENAME           mobley_2310185_equil.dcd
Info: DCD FREQUENCY          5000
Info: DCD FIRST STEP         5000
Info: DCD FILE WILL CONTAIN UNIT CELL DATA
Info: XST FILENAME           mobley_2310185_equil.xst
Info: XST FREQUENCY          5000
Info: NO VELOCITY DCD OUTPUT
Info: NO FORCE DCD OUTPUT
Info: OUTPUT FILENAME        mobley_2310185_equil
Info: BINARY OUTPUT FILES WILL BE USED
Info: RESTART FILENAME       mobley_2310185_equil.restart
Info: RESTART FREQUENCY      5000
Info: BINARY RESTART FILES WILL BE USED
Info: CUTOFF                 9
Info: PAIRLIST DISTANCE      11
Info: PAIRLIST SHRINK RATE   0.01
Info: PAIRLIST GROW RATE     0.01
Info: PAIRLIST TRIGGER       0.3
Info: PAIRLISTS PER CYCLE    2
Info: PAIRLISTS ENABLED
Info: MARGIN                 8
Info: HYDROGEN GROUP CUTOFF  2.5
Info: PATCH DIMENSION        21.5
Info: ENERGY OUTPUT STEPS    5000
Info: ENERGY EVALUATION STEPS    5000
Info: OUTPUT ENERGY PRECISION 4
Info: CROSSTERM ENERGY INCLUDED IN DIHEDRAL
Info: TIMING OUTPUT STEPS    50000
Info: PRESSURE OUTPUT STEPS  5000
Info: LANGEVIN DYNAMICS ACTIVE
Info: LANGEVIN TEMPERATURE   30
Info: LANGEVIN USING BBK INTEGRATOR
Info: LANGEVIN DAMPING COEFFICIENT IS 1 INVERSE PS
Info: LANGEVIN DYNAMICS APPLIED TO HYDROGENS
Info: LANGEVIN PISTON PRESSURE CONTROL ACTIVE
Info:        TARGET PRESSURE IS 1.01325 BAR
Info:     OSCILLATION PERIOD IS 50 FS
Info:             DECAY TIME IS 25 FS
Info:     PISTON TEMPERATURE IS 300 K
Info:       PRESSURE CONTROL IS GROUP-BASED
Info:    INITIAL STRAIN RATE IS 0 0 0
Info:       CELL FLUCTUATION IS ISOTROPIC
Info: PARTICLE MESH EWALD (PME) ACTIVE
Info: PME TOLERANCE               1e-06
Info: PME EWALD COEFFICIENT       0.348832
Info: PME INTERPOLATION ORDER     4
Info: PME GRID DIMENSIONS         40 40 40
Info: PME MAXIMUM GRID SPACING    1
Info: FULL ELECTROSTATIC EVALUATION FREQUENCY      2
Info: USING VERLET I (r-RESPA) MTS SCHEME.
Info: C1 SPLITTING OF LONG RANGE ELECTROSTATICS
Info: PLACING ATOMS IN PATCHES BY HYDROGEN GROUPS
Info: RIGID BONDS TO HYDROGEN : ALL
Info:         ERROR TOLERANCE : 1e-08
Info:          MAX ITERATIONS : 100
Info: RIGID WATER USING SETTLE ALGORITHM
Info: RANDOM NUMBER SEED     1741319065
Info: USE HYDROGEN BONDS?    NO
Info: Using AMBER format force field!
Info: AMBER PARM FILE        mobley_2310185.prmtop
Info: COORDINATE PDB         mobley_2310185.pdb
Info: Exclusions will be read from PARM file!
Info: SCNB (VDW SCALING)     2
Info: USING ARITHMETIC MEAN TO COMBINE L-J SIGMA PARAMETERS
Info: BINARY COORDINATES     mobley_2310185_min.coor
Info: SUMMARY OF PARAMETERS:
Info: 7 BONDS
Info: 7 ANGLES
Info:   7 HARMONIC
Info:   0 COSINE-BASED
Info: 4 DIHEDRAL
Info: 0 IMPROPER
Info: 0 CROSSTERM
Info: 0 VDW
Info: 28 VDW_PAIRS
Info: 0 NBTHOLE_PAIRS
Info: STRUCTURE SUMMARY:
Info: 4179 ATOMS
Info: 4178 BONDS
Info: 13 ANGLES
Info: 12 DIHEDRALS
Info: 0 IMPROPERS
Info: 0 CROSSTERMS
Info: 4203 EXCLUSIONS
Info: 4176 RIGID BONDS
Info: 8361 DEGREES OF FREEDOM
Info: 1393 HYDROGEN GROUPS
Info: 4 ATOMS IN LARGEST HYDROGEN GROUP
Info: 1393 MIGRATION GROUPS
Info: 4 ATOMS IN LARGEST MIGRATION GROUP
Info: TOTAL MASS = 25088.3 amu
Info: TOTAL CHARGE = -9.99831e-05 e
Info: MASS DENSITY = 0.697913 g/cm^3
Info: ATOM DENSITY = 0.0700073 atoms/A^3
Info: ADDED 0 IMPLICIT EXCLUSIONS
Info: NONBONDED TABLE R-SQUARED SPACING: 0.0625
Info: NONBONDED TABLE SIZE: 705 POINTS
Info: REMOVING COM VELOCITY 0.108004 -0.00556269 0.110485
TCL: Running for 25000 steps
ETITLE: TS BOND ANGLE DIHED IMPRP ELECT VDW BOUNDARY MISC KINETIC TOTAL TEMP POTENTIAL TOTAL3 TEMPAVG PRESSURE GPRESSURE VOLUME PRESSAVG GPRESSAVG
ENERGY: 0 0.1533 0.2185 0.0117 0.0000 -19255.9902 3371.1538 0.0000 0.0000 2436.8737 -13447.5792 293.3359 -15884.4529 -13447.0836 293.3359 489.4628 521.7196 59693.8056 489.4628 521.7196
ENERGY: 5000 0.0947 0.3533 0.1160 0.0000 -20119.8529 3526.3039 0.0000 0.0000 253.9487 -16339.0364 30.5688 -16592.9851 -16338.5287 47.1609 554.4654 607.2132 40048.9025 9.0819 9.1189
ENERGY: 10000 0.0133 0.1921 0.1031 0.0000 -20255.4197 3631.9334 0.0000 0.0000 247.3990 -16375.7789 29.7804 -16623.1779 -16375.3307 30.2448 1137.2325 1187.2634 39781.7463 4.7563 4.8878
ENERGY: 15000 0.0569 0.2033 0.1792 0.0000 -20257.9558 3600.5441 0.0000 0.0000 247.8754 -16409.0969 29.8377 -16656.9723 -16408.3780 29.9058 891.8917 924.5600 39838.6296 5.7065 5.8906
ENERGY: 20000 0.0336 0.1377 0.0367 0.0000 -20135.7858 3463.5768 0.0000 0.0000 248.1175 -16423.8836 29.8669 -16672.0011 -16423.1095 29.9423 -27.9556 18.8535 40050.5766 4.0121 4.2034
ENERGY: 25000 0.0370 0.4006 0.0252 0.0000 -20176.4919 3510.1145 0.0000 0.0000 253.2627 -16412.6520 30.4862 -16665.9147 -16411.8465 29.9931 295.5969 336.5269 39921.3125 3.2879 3.6627
TCL: Running 25000 steps at 60 kelvin.
TCL: Setting parameter langevinTemp to 60
TCL: Running for 25000 steps
ETITLE: TS BOND ANGLE DIHED IMPRP ELECT VDW BOUNDARY MISC KINETIC TOTAL TEMP POTENTIAL TOTAL3 TEMPAVG PRESSURE GPRESSURE VOLUME PRESSAVG GPRESSAVG
ENERGY: 25000 0.0370 0.4006 0.0252 0.0000 -20176.4919 3510.1145 0.0000 0.0000 253.1407 -16412.7740 30.4715 -16665.9147 -16412.2432 30.4715 290.2006 336.4821 39921.3125 290.2006 336.4821
ENERGY: 30000 0.1296 0.2426 0.0388 0.0000 -19806.2015 3343.8927 0.0000 0.0000 500.2857 -15961.6121 60.2213 -16461.8978 -15959.9884 56.9937 -156.5876 -109.2988 40150.5411 6.4068 6.4473
ENERGY: 35000 0.0501 0.7718 0.0127 0.0000 -20014.3162 3497.0519 0.0000 0.0000 496.7091 -16019.7206 59.7908 -16516.4296 -16018.6235 60.2080 585.9031 643.8765 40114.7327 7.0171 7.4196
ENERGY: 40000 0.0255 1.0003 0.0660 0.0000 -19843.1958 3329.5300 0.0000 0.0000 503.8879 -16008.6861 60.6549 -16512.5741 -16006.8236 60.0704 -452.9692 -390.2927 40353.1062 -0.2188 -0.6128
ENERGY: 45000 0.0077 0.9465 0.1144 0.0000 -20018.4374 3488.1795 0.0000 0.0000 495.6816 -16033.5077 59.6671 -16529.1893 -16032.1640 60.2393 501.9237 549.2691 40103.3476 3.3253 3.7889
ENERGY: 50000 0.0810 0.7987 0.0148 0.0000 -19920.6509 3373.3143 0.0000 0.0000 503.9864 -16042.4557 60.6668 -16546.4421 -16041.2450 60.1851 -147.8470 -118.5779 40074.7515 -1.1847 -1.0847
TCL: Running 25000 steps at 90 kelvin.
TCL: Setting parameter langevinTemp to 90
TCL: Running for 25000 steps
ETITLE: TS BOND ANGLE DIHED IMPRP ELECT VDW BOUNDARY MISC KINETIC TOTAL TEMP POTENTIAL TOTAL3 TEMPAVG PRESSURE GPRESSURE VOLUME PRESSAVG GPRESSAVG
ENERGY: 50000 0.0810 0.7987 0.0148 0.0000 -19920.6509 3373.3143 0.0000 0.0000 503.7438 -16042.6983 60.6376 -16546.4421 -16041.7334 60.6376 -154.9330 -118.8599 40074.7515 -154.9330 -118.8599
ENERGY: 55000 0.0375 1.0630 0.0534 0.0000 -19655.6131 3361.1751 0.0000 0.0000 736.5666 -15556.7176 88.6634 -16293.2841 -15554.7855 86.6467 433.3907 458.1387 40203.5142 8.5641 8.6041
ENERGY: 60000 0.0324 0.9618 0.7042 0.0000 -19718.9746 3378.8889 0.0000 0.0000 739.8441 -15598.5432 89.0579 -16338.3873 -15596.4705 89.9096 393.3869 403.5793 40252.2224 1.4227 1.9350
ENERGY: 65000 0.0136 0.6365 0.5222 0.0000 -19760.4129 3399.3644 0.0000 0.0000 724.3114 -15635.5649 87.1881 -16359.8763 -15633.3246 89.7561 410.3964 461.1659 40184.9436 -0.0090 -0.2942
ENERGY: 70000 0.1715 0.8300 0.3729 0.0000 -19593.3012 3260.7738 0.0000 0.0000 745.0213 -15586.1318 89.6811 -16331.1531 -15584.1642 89.9648 -271.7886 -252.6667 40318.8132 5.2594 5.1824
ENERGY: 75000 0.0512 3.0448 0.3377 0.0000 -19775.6276 3418.0000 0.0000 0.0000 746.5757 -15607.6183 89.8682 -16354.1940 -15606.1333 90.5924 499.7431 551.3239 40187.0132 0.6937 1.2465
TCL: Running 25000 steps at 120 kelvin.
TCL: Setting parameter langevinTemp to 120
TCL: Running for 25000 steps
ETITLE: TS BOND ANGLE DIHED IMPRP ELECT VDW BOUNDARY MISC KINETIC TOTAL TEMP POTENTIAL TOTAL3 TEMPAVG PRESSURE GPRESSURE VOLUME PRESSAVG GPRESSAVG
ENERGY: 75000 0.0512 3.0448 0.3377 0.0000 -19775.6276 3418.0000 0.0000 0.0000 746.1971 -15607.9968 89.8226 -16354.1940 -15606.6492 89.8226 506.1279 551.5137 40187.0132 506.1279 551.5137
ENERGY: 80000 0.4770 0.5940 0.4094 0.0000 -19308.9825 3228.7738 0.0000 0.0000 985.3156 -15093.4128 118.6062 -16078.7284 -15090.8366 117.2897 -51.7730 52.4172 40666.6946 4.3200 4.2052
ENERGY: 85000 0.0929 2.3249 0.2429 0.0000 -19304.1158 3215.7129 0.0000 0.0000 995.7023 -15090.0400 119.8565 -16085.7423 -15087.3740 119.8037 -59.6807 9.3218 40643.7446 1.9381 1.7024
ENERGY: 90000 0.1511 1.0014 0.2362 0.0000 -19318.9639 3218.5626 0.0000 0.0000 978.1653 -15120.8473 117.7455 -16099.0126 -15118.7637 119.5518 -72.5597 -18.0107 40706.3309 5.7177 5.5820
ENERGY: 95000 0.0071 0.7505 0.3636 0.0000 -19440.6492 3300.1158 0.0000 0.0000 1014.0543 -15125.3579 122.0656 -16139.4122 -15123.1461 120.2582 335.6961 382.7557 40581.3417 2.0278 2.4061
ENERGY: 100000 0.0709 1.5140 0.1279 0.0000 -19308.8276 3168.9627 0.0000 0.0000 994.6269 -15143.5252 119.7271 -16138.1521 -15141.3433 119.4054 -489.8120 -451.6226 40778.3492 -1.2540 -1.1324
TCL: Running 25000 steps at 150 kelvin.
TCL: Setting parameter langevinTemp to 150
TCL: Running for 25000 steps
ETITLE: TS BOND ANGLE DIHED IMPRP ELECT VDW BOUNDARY MISC KINETIC TOTAL TEMP POTENTIAL TOTAL3 TEMPAVG PRESSURE GPRESSURE VOLUME PRESSAVG GPRESSAVG
ENERGY: 100000 0.0709 1.5140 0.1279 0.0000 -19308.8276 3168.9627 0.0000 0.0000 994.1256 -15144.0265 119.6667 -16138.1521 -15142.2090 119.6667 -496.8622 -452.2239 40778.3492 -496.8622 -452.2239
ENERGY: 105000 1.0078 1.7743 0.2428 0.0000 -18888.3702 3035.4143 0.0000 0.0000 1228.9140 -14621.0170 147.9291 -15849.9310 -14617.0847 146.6593 -355.4213 -359.9208 40558.6121 2.0018 1.5511
ENERGY: 110000 0.0220 1.2908 0.6971 0.0000 -18962.7862 3091.2357 0.0000 0.0000 1239.1274 -14630.4132 149.1585 -15869.5406 -14626.1007 149.5112 -128.9769 -50.0013 40481.9840 6.8329 6.3900
ENERGY: 115000 0.0846 1.1322 0.3000 0.0000 -18979.7494 3038.0038 0.0000 0.0000 1282.4405 -14657.7883 154.3723 -15940.2288 -14654.4358 150.2244 -654.8235 -554.8014 40692.3510 2.8899 3.6901
ENERGY: 120000 0.0374 1.4107 0.0416 0.0000 -19098.1391 3199.0554 0.0000 0.0000 1289.0767 -14608.5173 155.1711 -15897.5939 -14605.2505 150.2421 377.8248 441.4556 40595.5895 6.1379 5.5831
ENERGY: 125000 0.2209 1.4116 0.3859 0.0000 -19092.1869 3162.0653 0.0000 0.0000 1244.2642 -14683.8390 149.7769 -15928.1032 -14680.2460 150.4520 49.5795 91.6134 40578.0813 3.8756 3.7203
TCL: Running 50000 steps at 180 kelvin.
TCL: Setting parameter langevinTemp to 180
TCL: Running for 50000 steps
ETITLE: TS BOND ANGLE DIHED IMPRP ELECT VDW BOUNDARY MISC KINETIC TOTAL TEMP POTENTIAL TOTAL3 TEMPAVG PRESSURE GPRESSURE VOLUME PRESSAVG GPRESSAVG
ENERGY: 125000 0.2209 1.4116 0.3859 0.0000 -19092.1869 3162.0653 0.0000 0.0000 1243.6434 -14684.4597 149.7021 -15928.1031 -14682.3836 149.7021 37.2355 91.2986 40578.0813 37.2355 91.2986
ENERGY: 135000 0.2307 1.8623 0.4790 0.0000 -18588.5971 3019.8805 0.0000 0.0000 1516.7958 -14049.3488 182.5826 -15566.1446 -14045.3288 180.6453 349.1442 423.5594 40378.4140 3.1264 2.8077
ENERGY: 145000 0.0177 1.5467 0.0564 0.0000 -18714.5409 3136.5112 0.0000 0.0000 1461.3708 -14115.0381 175.9108 -15576.4089 -14112.2328 179.4176 878.2563 973.8498 40338.8410 4.4608 3.9745
ENERGY: 155000 0.0092 1.9387 0.1557 0.0000 -18650.7872 3052.6193 0.0000 0.0000 1481.9118 -14114.1525 178.3834 -15596.0642 -14111.9340 180.2296 339.9578 369.0764 40447.8312 2.5428 2.5242
ENERGY: 165000 0.0644 2.3370 0.1789 0.0000 -18512.2953 2917.8439 0.0000 0.0000 1477.2099 -14114.6612 177.8174 -15591.8711 -14110.2841 180.5518 -460.0028 -418.1000 40618.5621 5.8077 5.6313
ENERGY: 175000 0.0000 0.6837 0.0204 0.0000 -18533.8705 2965.3998 0.0000 0.0000 1485.1791 -14082.5874 178.7767 -15567.7665 -14079.6321 179.7800 -277.8581 -201.6399 40977.9977 3.1867 3.6574
TCL: Running 50000 steps at 210 kelvin.
TCL: Setting parameter langevinTemp to 210
TCL: Running for 50000 steps
ETITLE: TS BOND ANGLE DIHED IMPRP ELECT VDW BOUNDARY MISC KINETIC TOTAL TEMP POTENTIAL TOTAL3 TEMPAVG PRESSURE GPRESSURE VOLUME PRESSAVG GPRESSAVG
ENERGY: 175000 0.0000 0.6837 0.0204 0.0000 -18533.8705 2965.3998 0.0000 0.0000 1484.4321 -14083.3345 178.6868 -15567.7665 -14080.0944 178.6868 -267.0491 -201.7348 40977.9977 -267.0491 -201.7348
ENERGY: 185000 0.7478 3.1546 0.3076 0.0000 -17653.3447 2714.9563 0.0000 0.0000 1693.7742 -13240.4041 203.8861 -14934.1783 -13236.4301 207.8204 -111.5195 -42.0248 40777.5343 7.0188 6.7993
ENERGY: 195000 0.1548 3.2010 0.4886 0.0000 -17653.4411 2709.3224 0.0000 0.0000 1752.5514 -13187.7228 210.9614 -14940.2742 -13184.9842 208.8574 5.9227 50.5806 40842.7941 2.5606 2.3310
ENERGY: 205000 0.7388 2.7125 1.1180 0.0000 -17560.1300 2610.3654 0.0000 0.0000 1812.8215 -13132.3737 218.2163 -14945.1953 -13129.5191 209.8714 -570.2267 -520.0374 41136.8568 5.1424 5.4054
ENERGY: 215000 0.0409 3.5063 1.7939 0.0000 -17535.7590 2580.8832 0.0000 0.0000 1718.0581 -13231.4764 206.8093 -14949.5345 -13228.3183 211.2663 -857.0459 -793.9233 41092.7912 3.5924 3.4714
ENERGY: 225000 0.2624 3.1387 0.4448 0.0000 -17492.2005 2613.3195 0.0000 0.0000 1762.6959 -13112.3393 212.1825 -14875.0352 -13108.1027 209.0698 -383.5769 -317.1877 40799.1151 4.7914 4.5287
TCL: Running 50000 steps at 240 kelvin.
TCL: Setting parameter langevinTemp to 240
TCL: Running for 50000 steps
ETITLE: TS BOND ANGLE DIHED IMPRP ELECT VDW BOUNDARY MISC KINETIC TOTAL TEMP POTENTIAL TOTAL3 TEMPAVG PRESSURE GPRESSURE VOLUME PRESSAVG GPRESSAVG
ENERGY: 225000 0.2624 3.1387 0.4448 0.0000 -17492.2005 2613.3195 0.0000 0.0000 1761.8139 -13113.2213 212.0763 -14875.0352 -13110.0763 212.0763 -384.5731 -317.0372 40799.1151 -384.5731 -317.0372
ENERGY: 235000 1.8747 2.6313 0.1560 0.0000 -16790.2133 2488.8456 0.0000 0.0000 2025.0052 -12271.7006 243.7577 -14296.7058 -12266.8053 240.0916 159.1547 283.2291 41433.8679 4.3931 4.7756
ENERGY: 245000 0.1403 2.7682 0.3546 0.0000 -16750.4047 2410.4492 0.0000 0.0000 1993.7700 -12342.9224 239.9978 -14336.6924 -12339.8116 239.5005 -280.1389 -195.7328 41112.7583 -2.9899 -2.7984
ENERGY: 255000 0.5684 4.6217 0.1890 0.0000 -16795.9709 2377.0419 0.0000 0.0000 2023.3475 -12390.2025 243.5581 -14413.5500 -12383.8066 239.0567 -593.0312 -494.0754 40963.1018 -1.4984 -0.9877
ENERGY: 265000 0.2001 2.4487 0.5681 0.0000 -16547.0104 2306.0587 0.0000 0.0000 2016.5145 -12221.2203 242.7356 -14237.7348 -12215.9073 242.1396 -874.7657 -802.8225 41716.9339 7.0282 6.6676
ENERGY: 275000 0.5581 3.1594 0.8274 0.0000 -16843.3293 2471.4172 0.0000 0.0000 2026.4837 -12340.8835 243.9357 -14367.3672 -12336.5358 240.1125 44.8965 138.5566 41018.4067 2.2714 1.6534
TCL: Running 50000 steps at 270 kelvin.
TCL: Setting parameter langevinTemp to 270
TCL: Running for 50000 steps
ETITLE: TS BOND ANGLE DIHED IMPRP ELECT VDW BOUNDARY MISC KINETIC TOTAL TEMP POTENTIAL TOTAL3 TEMPAVG PRESSURE GPRESSURE VOLUME PRESSAVG GPRESSAVG
ENERGY: 275000 0.5581 3.1594 0.8274 0.0000 -16843.3293 2471.4172 0.0000 0.0000 2025.4819 -12341.8853 243.8151 -14367.3672 -12339.4308 243.8151 64.3175 139.4117 41018.4067 64.3175 139.4117
ENERGY: 285000 0.6190 1.3838 0.2832 0.0000 -15974.5755 2238.2711 0.0000 0.0000 2215.4335 -11518.5848 266.6803 -13734.0183 -11516.4116 269.6943 -36.0069 39.4463 41877.8532 2.7166 2.6824
ENERGY: 295000 0.7045 5.4807 0.8295 0.0000 -16008.6051 2271.8874 0.0000 0.0000 2164.5388 -11565.1643 260.5539 -13729.7031 -11561.3498 268.6652 80.7980 174.8216 42147.1775 1.2584 1.1955
ENERGY: 305000 0.1491 0.3567 0.5006 0.0000 -15879.5869 2180.0822 0.0000 0.0000 2268.3211 -11430.1772 273.0465 -13698.4982 -11426.7675 269.2885 -296.7421 -254.6899 42345.6156 0.7127 0.7725
ENERGY: 315000 0.3023 4.6631 0.6706 0.0000 -15741.8235 2059.9552 0.0000 0.0000 2224.5703 -11451.6621 267.7801 -13676.2324 -11446.1845 268.8400 -1060.5652 -1008.5886 42629.4300 2.5905 2.4892
ENERGY: 325000 0.5062 1.3130 0.2491 0.0000 -16031.4357 2322.0413 0.0000 0.0000 2227.2824 -11480.0438 268.1066 -13707.3262 -11473.9930 270.5531 564.6148 668.8259 41694.3555 1.7797 2.7452
TCL: Running 1000000 steps at 300 kelvin.
TCL: Setting parameter langevinTemp to 300
TCL: Running for 1000000 steps
ETITLE: TS BOND ANGLE DIHED IMPRP ELECT VDW BOUNDARY MISC KINETIC TOTAL TEMP POTENTIAL TOTAL3 TEMPAVG PRESSURE GPRESSURE VOLUME PRESSAVG GPRESSAVG
ENERGY: 325000 0.5062 1.3130 0.2491 0.0000 -16031.4357 2322.0413 0.0000 0.0000 2226.1733 -11481.1529 267.9731 -13707.3262 -11478.1873 267.9731 590.2482 669.4445 41694.3555 590.2482 669.4445
ENERGY: 525000 0.0143 2.5673 0.1520 0.0000 -15400.5024 2229.6029 0.0000 0.0000 2520.7969 -10647.3691 303.4380 -13168.1659 -10643.3871 300.4079 1086.5894 1203.4229 42275.2358 0.0945 0.0256
ENERGY: 725000 1.0164 2.3334 0.2221 0.0000 -15173.3396 2065.9300 0.0000 0.0000 2468.2670 -10635.5707 297.1148 -13103.8377 -10632.2894 300.3834 -38.4452 111.9330 43311.3096 5.7116 6.4345
ENERGY: 925000 0.4937 2.4532 0.6624 0.0000 -15085.6680 2020.9523 0.0000 0.0000 2510.7261 -10550.3802 302.2258 -13061.1063 -10547.8624 300.3661 -21.6039 62.8600 43229.5870 1.2120 1.7062
ENERGY: 1125000 0.6731 3.2629 0.0674 0.0000 -15165.3329 2065.1048 0.0000 0.0000 2507.3290 -10588.8958 301.8169 -13096.2248 -10582.5545 303.0347 38.7715 78.0282 43676.5472 8.7137 8.4559
ENERGY: 1325000 0.7843 2.8405 0.0946 0.0000 -15187.1261 2040.3505 0.0000 0.0000 2437.6833 -10705.3728 293.4333 -13143.0561 -10704.0208 299.8492 62.7345 165.5544 42974.6468 -2.3014 -2.4398
TCL: Exiting due to exit command.
