Info: SIMULATION PARAMETERS:
Info: TIMESTEP               2
Info: NUMBER OF STEPS        0
Info: STEPS PER CYCLE        10
Info: PERIODIC CELL BASIS 1  41.545 0 0
Info: PERIODIC CELL BASIS 2  0 40.343 0
Info: PERIODIC CELL BASIS 3  0 0 39.119
Info: PERIODIC CELL CENTER   0 0 0
Info: WRAPPING WATERS AROUND PERIODIC BOUNDARIES ON OUTPUT.
Info: WRAPPING ALL CLUSTERS AROUND PERIODIC BOUNDARIES ON OUTPUT.
Info: FIRST LDB TIMESTEP     50
Info: LAST LDB TIMESTEP     -1
Info: HOM BACKGROUND SCALING 1
Info: PME BACKGROUND SCALING 1
Info: MIN ATOMS PER PATCH    40
Info: EMPTY PATCH LOAD       40 ATOMS
Info: INITIAL TEMPERATURE    300
Info: CENTER OF MASS MOVING INITIALLY? NO
Info: DIELECTRIC             1
Info: EXCLUDE                SCALED ONE-FOUR
Info: 1-4 ELECTROSTATICS SCALED BY 0.833333
Info: MODIFIED 1-4 VDW PARAMETERS WILL BE USED
Info: DCD FILENAME           mobley_3727287_min.dcd
Info: DCD FREQUENCY          5000
Info: DCD FIRST STEP         5000
Info: DCD FILE WILL CONTAIN UNIT CELL DATA
Info: XST FILENAME           mobley_3727287_min.xst
Info: XST FREQUENCY          5000
Info: NO VELOCITY DCD OUTPUT
Info: NO FORCE DCD OUTPUT
Info: OUTPUT FILENAME        mobley_3727287_min
Info: BINARY OUTPUT FILES WILL BE USED
Info: RESTART FILENAME       mobley_3727287_min.restart
Info: RESTART FREQUENCY      5000
Info: BINARY RESTART FILES WILL BE USED
Info: CUTOFF                 9
Info: PAIRLIST DISTANCE      11
Info: PAIRLIST SHRINK RATE   0.01
Info: PAIRLIST GROW RATE     0.01
Info: PAIRLIST TRIGGER       0.3
Info: PAIRLISTS PER CYCLE    2
Info: PAIRLISTS ENABLED
Info: MARGIN                 8
Info: HYDROGEN GROUP CUTOFF  2.5
Info: PATCH DIMENSION        21.5
Info: ENERGY OUTPUT STEPS    5000
Info: ENERGY EVALUATION STEPS    5000
Info: OUTPUT ENERGY PRECISION 4
Info: CROSSTERM ENERGY INCLUDED IN DIHEDRAL
Info: TIMING OUTPUT STEPS    50000
Info: PRESSURE OUTPUT STEPS  5000
Info: LANGEVIN DYNAMICS ACTIVE
Info: LANGEVIN TEMPERATURE   300
Info: LANGEVIN USING BBK INTEGRATOR
Info: LANGEVIN DAMPING COEFFICIENT IS 1 INVERSE PS
Info: LANGEVIN DYNAMICS APPLIED TO HYDROGENS
Info: LANGEVIN PISTON PRESSURE CONTROL ACTIVE
Info:        TARGET PRESSURE IS 1.01325 BAR
Info:     OSCILLATION PERIOD IS 50 FS
Info:             DECAY TIME IS 25 FS
Info:     PISTON TEMPERATURE IS 300 K
Info:       PRESSURE CONTROL IS GROUP-BASED
Info:    INITIAL STRAIN RATE IS 0 0 0
Info:       CELL FLUCTUATION IS ISOTROPIC
Info: PARTICLE MESH EWALD (PME) ACTIVE
Info: PME TOLERANCE               1e-06
Info: PME EWALD COEFFICIENT       0.348832
Info: PME INTERPOLATION ORDER     4
Info: PME GRID DIMENSIONS         44 44 40
Info: PME MAXIMUM GRID SPACING    1
Info: FULL ELECTROSTATIC EVALUATION FREQUENCY      2
Info: USING VERLET I (r-RESPA) MTS SCHEME.
Info: C1 SPLITTING OF LONG RANGE ELECTROSTATICS
Info: PLACING ATOMS IN PATCHES BY HYDROGEN GROUPS
Info: RIGID BONDS TO HYDROGEN : ALL
Info:         ERROR TOLERANCE : 1e-08
Info:          MAX ITERATIONS : 100
Info: RIGID WATER USING SETTLE ALGORITHM
Info: RANDOM NUMBER SEED     1741328871
Info: USE HYDROGEN BONDS?    NO
Info: Using AMBER format force field!
Info: AMBER PARM FILE        mobley_3727287.prmtop
Info: COORDINATE PDB         mobley_3727287.pdb
Info: Exclusions will be read from PARM file!
Info: SCNB (VDW SCALING)     2
Info: USING ARITHMETIC MEAN TO COMBINE L-J SIGMA PARAMETERS
Info: SUMMARY OF PARAMETERS:
Info: 8 BONDS
Info: 9 ANGLES
Info:   9 HARMONIC
Info:   0 COSINE-BASED
Info: 3 DIHEDRAL
Info: 0 IMPROPER
Info: 0 CROSSTERM
Info: 0 VDW
Info: 15 VDW_PAIRS
Info: 0 NBTHOLE_PAIRS
Info: STRUCTURE SUMMARY:
Info: 4701 ATOMS
Info: 4701 BONDS
Info: 18 ANGLES
Info: 26 DIHEDRALS
Info: 0 IMPROPERS
Info: 0 CROSSTERMS
Info: 4740 EXCLUSIONS
Info: 4693 RIGID BONDS
Info: 9410 DEGREES OF FREEDOM
Info: 1571 HYDROGEN GROUPS
Info: 3 ATOMS IN LARGEST HYDROGEN GROUP
Info: 1571 MIGRATION GROUPS
Info: 3 ATOMS IN LARGEST MIGRATION GROUP
Info: TOTAL MASS = 28267.1 amu
Info: TOTAL CHARGE = 0 e
Info: MASS DENSITY = 0.715922 g/cm^3
Info: ATOM DENSITY = 0.0716994 atoms/A^3
Info: ADDED 0 IMPLICIT EXCLUSIONS
Info: NONBONDED TABLE R-SQUARED SPACING: 0.0625
Info: NONBONDED TABLE SIZE: 705 POINTS
Info: REMOVING COM VELOCITY -0.0301905 -0.00395998 0.0720135
TCL: Minimizing for 2000 steps
ETITLE: TS BOND ANGLE DIHED IMPRP ELECT VDW BOUNDARY MISC KINETIC TOTAL TEMP POTENTIAL TOTAL3 TEMPAVG PRESSURE GPRESSURE VOLUME PRESSAVG GPRESSAVG
ENERGY: 0 1.2451 0.7411 0.0001 0.0000 -14691.4927 1654.8920 0.0000 0.0000 0.0000 -13034.6143 0.0000 -13034.6143 -13034.6143 0.0000 10922.9462 -15821.2400 65565.3974 10922.9462 -15821.2400
ENERGY: 400 5.9265 3.6658 1.9596 0.0000 -19970.6057 3023.4815 0.0000 0.0000 0.0000 -16935.5723 0.0000 -16935.5723 -16935.5723 0.0000 16293.3449 16420.5414 65565.3974 16293.3449 16420.5414
ENERGY: 800 1.0887 0.8556 0.2263 0.0000 -20861.8600 3433.8100 0.0000 0.0000 0.0000 -17425.8795 0.0000 -17425.8795 -17425.8795 0.0000 18340.6625 18453.7495 65565.3974 18340.6625 18453.7495
ENERGY: 1200 0.4525 0.6230 0.0820 0.0000 -21138.0778 3520.9211 0.0000 0.0000 0.0000 -17615.9993 0.0000 -17615.9993 -17615.9993 0.0000 18798.8324 18910.0574 65565.3974 18798.8324 18910.0574
ENERGY: 1600 0.3990 0.6540 0.0447 0.0000 -21334.4854 3618.5917 0.0000 0.0000 0.0000 -17714.7959 0.0000 -17714.7959 -17714.7959 0.0000 19309.5495 19415.3582 65565.3974 19309.5495 19415.3582
ENERGY: 2000 0.2725 0.5641 0.0534 0.0000 -21538.7770 3736.2033 0.0000 0.0000 0.0000 -17801.6836 0.0000 -17801.6836 -17801.6836 0.0000 19882.1270 19993.7318 65565.3974 19882.1270 19993.7318
TCL: Exiting due to exit command.
Info: NAMD 3.0.1 for Linux-x86_64-multicore
Info: Please visit http://www.ks.uiuc.edu/Research/namd/
Info: for updates, documentation, and support information.
Info: Please cite Phillips et al., J. Chem. Phys. 153:044130 (2020) doi:10.1063/5.0014475
Info: in all publications reporting results obtained with NAMD.
Info: Based on Charm++/Converse 80000 for multicore-linux-x86_64-gcc
Info: Built Mon Oct 14 11:11:06 CDT 2024 by dhardy on athine.ks.uiuc.edu
Info: 1 NAMD  3.0.1  Linux-x86_64-multicore  16    k024  z5358697
Info: Running on 16 processors, 1 nodes, 1 physical nodes.
Info: CPU topology information available.
Info: Charm++/Converse parallel runtime startup completed at 0.00807327 s
Info: 1043.46 MB of memory in use based on /proc/self/stat
Info: Configuration file is mobley_3727287_equil.namd
Info: Working in the current directory /srv/scratch/z5358697/prod_prep_4/3727287
TCL: Running 25000 steps at 30 kelvin.
TCL: Suspending until startup complete.
Info: SIMULATION PARAMETERS:
Info: TIMESTEP               2
Info: NUMBER OF STEPS        0
Info: STEPS PER CYCLE        10
Info: PERIODIC CELL BASIS 1  41.545 0 0
Info: PERIODIC CELL BASIS 2  0 40.343 0
Info: PERIODIC CELL BASIS 3  0 0 39.119
Info: PERIODIC CELL CENTER   0 0 0
Info: WRAPPING WATERS AROUND PERIODIC BOUNDARIES ON OUTPUT.
Info: WRAPPING ALL CLUSTERS AROUND PERIODIC BOUNDARIES ON OUTPUT.
Info: FIRST LDB TIMESTEP     50
Info: LAST LDB TIMESTEP     -1
Info: HOM BACKGROUND SCALING 1
Info: PME BACKGROUND SCALING 1
Info: MIN ATOMS PER PATCH    40
Info: EMPTY PATCH LOAD       40 ATOMS
Info: INITIAL TEMPERATURE    300
Info: CENTER OF MASS MOVING INITIALLY? NO
Info: DIELECTRIC             1
Info: EXCLUDE                SCALED ONE-FOUR
Info: 1-4 ELECTROSTATICS SCALED BY 0.833333
Info: MODIFIED 1-4 VDW PARAMETERS WILL BE USED
Info: DCD FILENAME           mobley_3727287_equil.dcd
Info: DCD FREQUENCY          5000
Info: DCD FIRST STEP         5000
Info: DCD FILE WILL CONTAIN UNIT CELL DATA
Info: XST FILENAME           mobley_3727287_equil.xst
Info: XST FREQUENCY          5000
Info: NO VELOCITY DCD OUTPUT
Info: NO FORCE DCD OUTPUT
Info: OUTPUT FILENAME        mobley_3727287_equil
Info: BINARY OUTPUT FILES WILL BE USED
Info: RESTART FILENAME       mobley_3727287_equil.restart
Info: RESTART FREQUENCY      5000
Info: BINARY RESTART FILES WILL BE USED
Info: CUTOFF                 9
Info: PAIRLIST DISTANCE      11
Info: PAIRLIST SHRINK RATE   0.01
Info: PAIRLIST GROW RATE     0.01
Info: PAIRLIST TRIGGER       0.3
Info: PAIRLISTS PER CYCLE    2
Info: PAIRLISTS ENABLED
Info: MARGIN                 8
Info: HYDROGEN GROUP CUTOFF  2.5
Info: PATCH DIMENSION        21.5
Info: ENERGY OUTPUT STEPS    5000
Info: ENERGY EVALUATION STEPS    5000
Info: OUTPUT ENERGY PRECISION 4
Info: CROSSTERM ENERGY INCLUDED IN DIHEDRAL
Info: TIMING OUTPUT STEPS    50000
Info: PRESSURE OUTPUT STEPS  5000
Info: LANGEVIN DYNAMICS ACTIVE
Info: LANGEVIN TEMPERATURE   30
Info: LANGEVIN USING BBK INTEGRATOR
Info: LANGEVIN DAMPING COEFFICIENT IS 1 INVERSE PS
Info: LANGEVIN DYNAMICS APPLIED TO HYDROGENS
Info: LANGEVIN PISTON PRESSURE CONTROL ACTIVE
Info:        TARGET PRESSURE IS 1.01325 BAR
Info:     OSCILLATION PERIOD IS 50 FS
Info:             DECAY TIME IS 25 FS
Info:     PISTON TEMPERATURE IS 300 K
Info:       PRESSURE CONTROL IS GROUP-BASED
Info:    INITIAL STRAIN RATE IS 0 0 0
Info:       CELL FLUCTUATION IS ISOTROPIC
Info: PARTICLE MESH EWALD (PME) ACTIVE
Info: PME TOLERANCE               1e-06
Info: PME EWALD COEFFICIENT       0.348832
Info: PME INTERPOLATION ORDER     4
Info: PME GRID DIMENSIONS         44 44 40
Info: PME MAXIMUM GRID SPACING    1
Info: FULL ELECTROSTATIC EVALUATION FREQUENCY      2
Info: USING VERLET I (r-RESPA) MTS SCHEME.
Info: C1 SPLITTING OF LONG RANGE ELECTROSTATICS
Info: PLACING ATOMS IN PATCHES BY HYDROGEN GROUPS
Info: RIGID BONDS TO HYDROGEN : ALL
Info:         ERROR TOLERANCE : 1e-08
Info:          MAX ITERATIONS : 100
Info: RIGID WATER USING SETTLE ALGORITHM
Info: RANDOM NUMBER SEED     1741328890
Info: USE HYDROGEN BONDS?    NO
Info: Using AMBER format force field!
Info: AMBER PARM FILE        mobley_3727287.prmtop
Info: COORDINATE PDB         mobley_3727287.pdb
Info: Exclusions will be read from PARM file!
Info: SCNB (VDW SCALING)     2
Info: USING ARITHMETIC MEAN TO COMBINE L-J SIGMA PARAMETERS
Info: BINARY COORDINATES     mobley_3727287_min.coor
Info: SUMMARY OF PARAMETERS:
Info: 8 BONDS
Info: 9 ANGLES
Info:   9 HARMONIC
Info:   0 COSINE-BASED
Info: 3 DIHEDRAL
Info: 0 IMPROPER
Info: 0 CROSSTERM
Info: 0 VDW
Info: 15 VDW_PAIRS
Info: 0 NBTHOLE_PAIRS
Info: STRUCTURE SUMMARY:
Info: 4701 ATOMS
Info: 4701 BONDS
Info: 18 ANGLES
Info: 26 DIHEDRALS
Info: 0 IMPROPERS
Info: 0 CROSSTERMS
Info: 4740 EXCLUSIONS
Info: 4693 RIGID BONDS
Info: 9410 DEGREES OF FREEDOM
Info: 1571 HYDROGEN GROUPS
Info: 3 ATOMS IN LARGEST HYDROGEN GROUP
Info: 1571 MIGRATION GROUPS
Info: 3 ATOMS IN LARGEST MIGRATION GROUP
Info: TOTAL MASS = 28267.1 amu
Info: TOTAL CHARGE = 0 e
Info: MASS DENSITY = 0.715922 g/cm^3
Info: ATOM DENSITY = 0.0716994 atoms/A^3
Info: ADDED 0 IMPLICIT EXCLUSIONS
Info: NONBONDED TABLE R-SQUARED SPACING: 0.0625
Info: NONBONDED TABLE SIZE: 705 POINTS
Info: REMOVING COM VELOCITY 0.112463 0.0179826 0.018134
TCL: Running for 25000 steps
ETITLE: TS BOND ANGLE DIHED IMPRP ELECT VDW BOUNDARY MISC KINETIC TOTAL TEMP POTENTIAL TOTAL3 TEMPAVG PRESSURE GPRESSURE VOLUME PRESSAVG GPRESSAVG
ENERGY: 0 0.2725 0.5641 0.0534 0.0000 -21538.7770 3736.2033 0.0000 0.0000 2780.8392 -15020.8445 297.4244 -17801.6836 -15020.2619 297.4244 218.7868 254.5221 65565.3974 218.7868 254.5221
ENERGY: 5000 1.3317 0.7872 0.3518 0.0000 -22521.1710 3855.1818 0.0000 0.0000 287.3243 -18376.1942 30.7307 -18663.5185 -18375.4845 47.5412 -484.0656 -443.0152 46703.8810 0.8615 0.7234
ENERGY: 10000 0.5526 0.7021 0.1431 0.0000 -22496.3823 3799.4549 0.0000 0.0000 280.7820 -18414.7476 30.0310 -18695.5296 -18414.0718 30.3678 -846.0879 -788.1160 46649.2319 4.5269 4.4361
ENERGY: 15000 0.3223 1.0029 0.2223 0.0000 -22770.7773 4048.7858 0.0000 0.0000 282.1590 -18438.2850 30.1783 -18720.4440 -18437.4854 30.2122 465.1897 522.6852 46207.2117 0.9633 1.0115
ENERGY: 20000 1.0645 0.9521 0.3776 0.0000 -22738.5443 3995.8565 0.0000 0.0000 282.3796 -18457.9140 30.2019 -18740.2937 -18457.1567 30.0836 153.3270 189.6221 46090.0659 6.8936 6.9772
ENERGY: 25000 0.3804 0.8181 0.6085 0.0000 -22674.4963 3919.2101 0.0000 0.0000 281.6025 -18471.8767 30.1188 -18753.4792 -18470.7545 30.3281 -319.2798 -249.1577 46207.8749 1.2645 1.0695
TCL: Running 25000 steps at 60 kelvin.
TCL: Setting parameter langevinTemp to 60
TCL: Running for 25000 steps
ETITLE: TS BOND ANGLE DIHED IMPRP ELECT VDW BOUNDARY MISC KINETIC TOTAL TEMP POTENTIAL TOTAL3 TEMPAVG PRESSURE GPRESSURE VOLUME PRESSAVG GPRESSAVG
ENERGY: 25000 0.3804 0.8181 0.6085 0.0000 -22674.4963 3919.2101 0.0000 0.0000 281.4609 -18472.0183 30.1036 -18753.4792 -18471.3854 30.1036 -303.3859 -248.8805 46207.8749 -303.3859 -248.8805
ENERGY: 30000 0.2301 0.9866 0.2748 0.0000 -22656.3510 4173.6835 0.0000 0.0000 556.3887 -17924.7873 59.5085 -18481.1759 -17923.2542 56.9236 1776.5580 1819.6479 45949.4769 0.7139 0.7389
ENERGY: 35000 0.7866 0.9825 0.7990 0.0000 -22326.6622 3818.5661 0.0000 0.0000 542.9434 -17962.5845 58.0705 -18505.5279 -17961.3269 59.7193 -216.5734 -170.5901 46466.9893 6.2671 6.2668
ENERGY: 40000 0.4414 0.8251 0.3708 0.0000 -22549.8501 4036.0858 0.0000 0.0000 571.8769 -17940.2501 61.1650 -18512.1270 -17938.6730 60.3488 926.9711 970.3093 46172.3631 1.0250 1.1260
ENERGY: 45000 0.3696 0.8396 0.2077 0.0000 -22431.1837 3880.8328 0.0000 0.0000 566.5107 -17982.4233 60.5911 -18548.9340 -17980.7591 60.4608 117.7002 161.4972 46199.9185 4.7122 4.8738
ENERGY: 50000 1.3880 1.2831 0.6997 0.0000 -22393.4889 3839.7083 0.0000 0.0000 551.8503 -17998.5596 59.0231 -18550.4099 -17997.1180 60.3301 -225.1407 -177.3719 46314.7511 4.0821 4.3615
TCL: Running 25000 steps at 90 kelvin.
TCL: Setting parameter langevinTemp to 90
TCL: Running for 25000 steps
ETITLE: TS BOND ANGLE DIHED IMPRP ELECT VDW BOUNDARY MISC KINETIC TOTAL TEMP POTENTIAL TOTAL3 TEMPAVG PRESSURE GPRESSURE VOLUME PRESSAVG GPRESSAVG
ENERGY: 50000 1.3880 1.2831 0.6997 0.0000 -22393.4889 3839.7083 0.0000 0.0000 551.5649 -17998.8449 58.9926 -18550.4099 -17997.5279 58.9926 -223.8273 -177.2397 46314.7511 -223.8273 -177.2397
ENERGY: 55000 0.4272 0.9380 0.7459 0.0000 -22050.8671 3766.2289 0.0000 0.0000 844.2648 -17438.2623 90.2983 -18282.5271 -17436.6976 87.3733 158.5431 209.3454 46290.7609 1.5004 1.5650
ENERGY: 60000 1.0173 1.6285 0.4342 0.0000 -22069.2420 3754.1430 0.0000 0.0000 837.4210 -17474.5980 89.5663 -18312.0190 -17472.6166 90.1616 -64.2426 -3.0494 46365.6907 6.7623 6.5116
ENERGY: 65000 1.4506 2.2468 0.5053 0.0000 -21876.9823 3552.4356 0.0000 0.0000 835.9948 -17484.3491 89.4138 -18320.3439 -17482.2136 90.4395 -1139.2569 -1090.6532 46669.3581 1.1507 1.3786
ENERGY: 70000 0.8849 0.9032 0.4189 0.0000 -22197.0266 3829.4425 0.0000 0.0000 850.0041 -17515.3730 90.9121 -18365.3771 -17512.4786 90.2449 291.0935 336.9550 46163.4207 6.0042 5.9554
ENERGY: 75000 0.5691 1.3356 0.7184 0.0000 -22092.5782 3711.4088 0.0000 0.0000 849.8314 -17528.7150 90.8936 -18378.5463 -17527.1327 89.7497 -400.8451 -368.0896 46490.1668 1.6660 1.6191
TCL: Running 25000 steps at 120 kelvin.
TCL: Setting parameter langevinTemp to 120
TCL: Running for 25000 steps
ETITLE: TS BOND ANGLE DIHED IMPRP ELECT VDW BOUNDARY MISC KINETIC TOTAL TEMP POTENTIAL TOTAL3 TEMPAVG PRESSURE GPRESSURE VOLUME PRESSAVG GPRESSAVG
ENERGY: 75000 0.5691 1.3356 0.7184 0.0000 -22092.5782 3711.4088 0.0000 0.0000 849.4319 -17529.1144 90.8509 -18378.5463 -17527.2118 90.8509 -413.2818 -368.6259 46490.1668 -413.2818 -368.6259
ENERGY: 80000 1.8509 0.9658 1.3492 0.0000 -21744.9790 3688.4884 0.0000 0.0000 1139.2694 -16913.0552 121.8505 -18052.3246 -16910.3430 117.3828 239.0079 299.4199 46314.8170 0.8081 0.7900
ENERGY: 85000 0.8711 2.9917 0.7669 0.0000 -21757.5721 3698.5594 0.0000 0.0000 1144.3888 -16909.9942 122.3980 -18054.3829 -16908.0383 119.4505 361.6143 405.7772 46381.9750 5.0067 5.7003
ENERGY: 90000 0.7885 1.2969 0.5562 0.0000 -21865.3071 3731.1864 0.0000 0.0000 1123.3581 -17008.1211 120.1487 -18131.4791 -17004.4349 120.9685 321.9384 361.9748 46286.3605 0.1975 0.4819
ENERGY: 95000 2.5161 1.7369 0.7434 0.0000 -21703.6326 3525.6311 0.0000 0.0000 1108.0081 -17064.9970 118.5069 -18173.0051 -17061.3737 119.8293 -972.1648 -917.4412 46458.4844 6.9077 6.6744
ENERGY: 100000 1.0584 1.0815 1.1502 0.0000 -21778.5008 3579.9681 0.0000 0.0000 1176.5503 -17018.6923 125.8378 -18195.2427 -17015.5451 120.1237 -517.8945 -487.7503 46232.0438 3.8708 3.9888
TCL: Running 25000 steps at 150 kelvin.
TCL: Setting parameter langevinTemp to 150
TCL: Running for 25000 steps
ETITLE: TS BOND ANGLE DIHED IMPRP ELECT VDW BOUNDARY MISC KINETIC TOTAL TEMP POTENTIAL TOTAL3 TEMPAVG PRESSURE GPRESSURE VOLUME PRESSAVG GPRESSAVG
ENERGY: 100000 1.0584 1.0815 1.1502 0.0000 -21778.5008 3579.9681 0.0000 0.0000 1175.9755 -17019.2672 125.7764 -18195.2427 -17017.0112 125.7764 -544.8923 -487.4654 46232.0438 -544.8923 -487.4654
ENERGY: 105000 0.8273 1.9428 2.2161 0.0000 -21391.3208 3571.8556 0.0000 0.0000 1441.5537 -16372.9252 154.1813 -17814.4789 -16368.9990 147.0259 226.9945 296.7612 46212.7161 2.8163 3.1827
ENERGY: 110000 0.7165 1.5535 1.3729 0.0000 -21486.2210 3633.4926 0.0000 0.0000 1420.1457 -16428.9398 151.8916 -17849.0855 -16425.4962 150.3069 651.7794 732.2318 45795.6434 5.9668 5.4324
ENERGY: 115000 1.0824 2.0370 1.8564 0.0000 -21276.7045 3450.9506 0.0000 0.0000 1394.2412 -16426.5369 149.1210 -17820.7780 -16425.2172 150.6688 -326.2452 -263.9353 46109.8925 -2.4726 -2.7654
ENERGY: 120000 2.3592 2.5685 0.5687 0.0000 -21549.6994 3659.3568 0.0000 0.0000 1391.2965 -16493.5497 148.8060 -17884.8462 -16491.4480 150.5381 588.4808 623.9975 45926.5910 4.2859 3.9005
ENERGY: 125000 1.9352 1.2273 2.3325 0.0000 -21268.0047 3383.2819 0.0000 0.0000 1397.6188 -16481.6089 149.4822 -17879.2277 -16478.8138 149.4002 -955.3961 -933.3558 46422.4949 4.2040 3.9203
TCL: Running 50000 steps at 180 kelvin.
TCL: Setting parameter langevinTemp to 180
TCL: Running for 50000 steps
ETITLE: TS BOND ANGLE DIHED IMPRP ELECT VDW BOUNDARY MISC KINETIC TOTAL TEMP POTENTIAL TOTAL3 TEMPAVG PRESSURE GPRESSURE VOLUME PRESSAVG GPRESSAVG
ENERGY: 125000 1.9352 1.2273 2.3325 0.0000 -21268.0047 3383.2819 0.0000 0.0000 1396.9272 -16482.3005 149.4082 -17879.2277 -16479.3124 149.4082 -995.0591 -933.9854 46422.4949 -995.0591 -933.9854
ENERGY: 135000 1.1185 0.7775 1.0956 0.0000 -21014.0125 3501.8803 0.0000 0.0000 1722.3878 -15786.7528 184.2178 -17509.1406 -15783.0180 179.8034 448.3547 548.1487 46608.2730 3.4868 3.4128
ENERGY: 145000 0.9065 4.0111 1.0952 0.0000 -20926.7499 3391.9761 0.0000 0.0000 1716.7639 -15811.9973 183.6163 -17528.7611 -15808.5683 181.1049 -153.8709 -65.5805 46637.6539 3.7074 3.6379
ENERGY: 155000 2.3145 1.4637 1.1078 0.0000 -21050.0336 3529.7430 0.0000 0.0000 1651.4779 -15863.9267 176.6337 -17515.4045 -15861.6420 179.9126 613.3914 644.2929 46357.8183 1.0184 1.4253
ENERGY: 165000 1.1614 0.9993 1.7363 0.0000 -21078.3200 3605.6265 0.0000 0.0000 1678.9858 -15789.8107 179.5758 -17468.7965 -15786.5554 180.4442 1260.0776 1286.9770 46099.1910 0.3938 0.3306
ENERGY: 175000 1.3046 3.3908 1.4080 0.0000 -20950.6816 3386.0106 0.0000 0.0000 1678.5460 -15880.0216 179.5288 -17558.5676 -15877.4199 180.9350 -138.2323 -116.3080 46239.9548 6.1704 5.9325
TCL: Running 50000 steps at 210 kelvin.
TCL: Setting parameter langevinTemp to 210
TCL: Running for 50000 steps
ETITLE: TS BOND ANGLE DIHED IMPRP ELECT VDW BOUNDARY MISC KINETIC TOTAL TEMP POTENTIAL TOTAL3 TEMPAVG PRESSURE GPRESSURE VOLUME PRESSAVG GPRESSAVG
ENERGY: 175000 1.3046 3.3908 1.4080 0.0000 -20950.6816 3386.0106 0.0000 0.0000 1677.7305 -15880.8371 179.4415 -17558.5676 -15877.7812 179.4415 -160.5320 -116.5037 46239.9548 -160.5320 -116.5037
ENERGY: 185000 0.9622 1.9632 3.0672 0.0000 -19886.7364 2955.3311 0.0000 0.0000 1972.1545 -14953.2581 210.9316 -16925.4126 -14946.8685 207.7874 -796.9902 -729.4859 46213.3598 4.1498 4.6411
ENERGY: 195000 1.3455 1.9781 2.1730 0.0000 -19699.7500 2964.7176 0.0000 0.0000 1936.6365 -14792.8994 207.1328 -16729.5359 -14789.7059 211.2271 -272.9176 -186.4594 45758.9707 -0.5697 -0.4865
ENERGY: 205000 4.6816 3.1830 1.8560 0.0000 -19757.8709 2962.4463 0.0000 0.0000 1940.5208 -14845.1831 207.5482 -16785.7039 -14841.9703 210.5366 -247.9726 -142.4538 45444.9207 2.7491 3.1704
ENERGY: 215000 3.0378 2.0414 4.6190 0.0000 -19961.2050 3119.1117 0.0000 0.0000 1955.6018 -14876.7933 209.1612 -16832.3951 -14873.7281 209.8418 534.3675 588.5788 45539.3840 1.1711 1.0546
ENERGY: 225000 0.8401 3.3789 2.0698 0.0000 -19732.8020 2965.4537 0.0000 0.0000 1944.8303 -14816.2290 208.0092 -16761.0593 -14810.8155 210.0752 -370.7733 -298.2471 46120.6553 3.4831 3.5300
TCL: Running 50000 steps at 240 kelvin.
TCL: Setting parameter langevinTemp to 240
TCL: Running for 50000 steps
ETITLE: TS BOND ANGLE DIHED IMPRP ELECT VDW BOUNDARY MISC KINETIC TOTAL TEMP POTENTIAL TOTAL3 TEMPAVG PRESSURE GPRESSURE VOLUME PRESSAVG GPRESSAVG
ENERGY: 225000 0.8401 3.3789 2.0698 0.0000 -19732.8020 2965.4537 0.0000 0.0000 1943.8730 -14817.1863 207.9068 -16761.0593 -14813.4060 207.9068 -374.1373 -298.1792 46120.6553 -374.1373 -298.1792
ENERGY: 235000 1.8766 1.4081 2.4143 0.0000 -18857.2478 2737.1180 0.0000 0.0000 2295.0775 -13819.3533 245.4698 -16114.4308 -13813.8276 239.3608 -143.0909 -77.5323 46488.1671 8.0688 7.5269
ENERGY: 245000 2.4696 3.8151 2.3875 0.0000 -18856.4932 2717.2764 0.0000 0.0000 2272.3266 -13858.2179 243.0365 -16130.5446 -13853.5355 240.3096 -110.3759 -55.5258 46305.6605 1.5123 2.0647
ENERGY: 255000 2.6567 2.4938 0.8400 0.0000 -18730.3429 2671.9188 0.0000 0.0000 2180.6100 -13871.8235 233.2270 -16052.4336 -13868.4813 239.3584 -470.8836 -423.1078 46665.8944 2.9919 2.9845
ENERGY: 265000 0.5371 1.8122 2.5794 0.0000 -18846.6383 2747.0760 0.0000 0.0000 2303.8973 -13790.7362 246.4132 -16094.6335 -13785.7487 239.1501 18.1330 132.6003 46382.0425 -1.9135 -2.2954
ENERGY: 275000 1.0591 3.5488 3.6037 0.0000 -18980.3358 2873.4341 0.0000 0.0000 2219.0459 -13879.6443 237.3379 -16098.6902 -13875.7080 240.8193 569.4749 601.7036 46509.9221 -0.8873 0.1996
TCL: Running 50000 steps at 270 kelvin.
TCL: Setting parameter langevinTemp to 270
TCL: Running for 50000 steps
ETITLE: TS BOND ANGLE DIHED IMPRP ELECT VDW BOUNDARY MISC KINETIC TOTAL TEMP POTENTIAL TOTAL3 TEMPAVG PRESSURE GPRESSURE VOLUME PRESSAVG GPRESSAVG
ENERGY: 275000 1.0591 3.5488 3.6037 0.0000 -18980.3358 2873.4341 0.0000 0.0000 2217.9266 -13880.7636 237.2182 -16098.6902 -13877.4871 237.2182 539.7374 601.7313 46509.9221 539.7374 601.7313
ENERGY: 285000 1.4710 3.1712 1.0420 0.0000 -17920.9307 2517.1670 0.0000 0.0000 2503.2965 -12894.7830 267.7399 -15398.0795 -12888.7300 269.5967 113.7912 153.7959 47308.9782 1.9603 1.3571
ENERGY: 295000 0.9782 3.1471 3.6215 0.0000 -18157.9187 2562.5691 0.0000 0.0000 2572.1000 -13015.5027 275.0987 -15587.6027 -13009.8586 268.7252 194.6383 255.4134 46665.8657 4.3128 3.9526
ENERGY: 305000 2.5811 2.5037 1.6287 0.0000 -18063.1641 2555.6347 0.0000 0.0000 2521.5510 -12979.2648 269.6923 -15500.8159 -12974.4973 270.8023 93.7122 185.3787 47261.8345 6.8545 7.4381
ENERGY: 315000 3.4822 1.0861 2.7070 0.0000 -17782.4470 2416.0322 0.0000 0.0000 2538.4015 -12820.7380 271.4945 -15359.1395 -12813.7836 270.6667 -525.7721 -467.7556 47805.7322 3.8445 3.6636
ENERGY: 325000 1.7665 3.4350 0.5279 0.0000 -17919.3288 2494.1377 0.0000 0.0000 2514.8001 -12904.6616 268.9702 -15419.4617 -12897.4037 269.1279 -82.9639 12.6341 46998.5220 -0.4165 0.1334
TCL: Running 1000000 steps at 300 kelvin.
TCL: Setting parameter langevinTemp to 300
TCL: Running for 1000000 steps
ETITLE: TS BOND ANGLE DIHED IMPRP ELECT VDW BOUNDARY MISC KINETIC TOTAL TEMP POTENTIAL TOTAL3 TEMPAVG PRESSURE GPRESSURE VOLUME PRESSAVG GPRESSAVG
ENERGY: 325000 1.7665 3.4350 0.5279 0.0000 -17919.3288 2494.1377 0.0000 0.0000 2513.5522 -12905.9095 268.8368 -15419.4617 -12901.2824 268.8368 -82.0300 12.6736 46998.5220 -82.0300 12.6736
ENERGY: 525000 2.4756 4.1961 1.7898 0.0000 -17399.7371 2472.0443 0.0000 0.0000 2827.6397 -12091.5915 302.4300 -14919.2312 -12085.1722 299.3319 785.9740 873.7300 47685.9112 1.0389 1.1970
ENERGY: 725000 0.6809 3.4486 1.0188 0.0000 -17124.3433 2325.8270 0.0000 0.0000 2745.7632 -12047.6049 293.6729 -14793.3681 -12043.5822 300.3898 -177.5903 -34.6667 48711.8069 0.5547 0.4428
ENERGY: 925000 1.7040 4.0438 3.7978 0.0000 -17033.3395 2240.3501 0.0000 0.0000 2747.4825 -12035.9613 293.8568 -14783.4438 -12030.1047 299.4468 -196.5851 -148.8296 48162.1731 -0.2389 0.1462
ENERGY: 1125000 2.9797 3.3970 5.0382 0.0000 -17151.2729 2339.1576 0.0000 0.0000 2804.6306 -11996.0697 299.9690 -14800.7003 -11990.0223 300.1887 182.6651 189.9382 48894.6347 4.4425 4.1394
ENERGY: 1325000 1.2924 3.5482 1.5130 0.0000 -17071.0609 2268.2317 0.0000 0.0000 2765.3666 -12031.1089 295.7696 -14796.4755 -12025.3803 299.0009 -257.8798 -138.6573 48427.6255 -0.0838 -0.2580
TCL: Exiting due to exit command.
