Info: SIMULATION PARAMETERS:
Info: TIMESTEP               2
Info: NUMBER OF STEPS        0
Info: STEPS PER CYCLE        10
Info: PERIODIC CELL BASIS 1  30.2279 0 0
Info: PERIODIC CELL BASIS 2  0 31.1646 0
Info: PERIODIC CELL BASIS 3  0 0 31.6851
Info: PERIODIC CELL CENTER   0 0 0
Info: WRAPPING WATERS AROUND PERIODIC BOUNDARIES ON OUTPUT.
Info: WRAPPING ALL CLUSTERS AROUND PERIODIC BOUNDARIES ON OUTPUT.
Info: FIRST LDB TIMESTEP     50
Info: LAST LDB TIMESTEP     -1
Info: HOM BACKGROUND SCALING 1
Info: PME BACKGROUND SCALING 1
Info: MIN ATOMS PER PATCH    40
Info: EMPTY PATCH LOAD       40 ATOMS
Info: VELOCITY FILE          mobley_9557440_equil.vel
Info: CENTER OF MASS MOVING INITIALLY? NO
Info: DIELECTRIC             1
Info: EXCLUDE                SCALED ONE-FOUR
Info: 1-4 ELECTROSTATICS SCALED BY 0.833333
Info: MODIFIED 1-4 VDW PARAMETERS WILL BE USED
Info: DCD FILENAME           mobley_9557440_prod.dcd
Info: DCD FREQUENCY          100000
Info: DCD FIRST STEP         100000
Info: DCD FILE WILL CONTAIN UNIT CELL DATA
Info: XST FILENAME           mobley_9557440_prod.xst
Info: XST FREQUENCY          100000
Info: NO VELOCITY DCD OUTPUT
Info: NO FORCE DCD OUTPUT
Info: OUTPUT FILENAME        mobley_9557440_prod
Info: BINARY OUTPUT FILES WILL BE USED
Info: RESTART FILENAME       mobley_9557440_prod.restart
Info: RESTART FREQUENCY      100000
Info: BINARY RESTART FILES WILL BE USED
Info: CUTOFF                 9
Info: PAIRLIST DISTANCE      11
Info: PAIRLIST SHRINK RATE   0.01
Info: PAIRLIST GROW RATE     0.01
Info: PAIRLIST TRIGGER       0.3
Info: PAIRLISTS PER CYCLE    2
Info: PAIRLISTS ENABLED
Info: MARGIN                 2
Info: HYDROGEN GROUP CUTOFF  2.5
Info: PATCH DIMENSION        15.5
Info: ENERGY OUTPUT STEPS    100000
Info: ENERGY EVALUATION STEPS    100000
Info: OUTPUT ENERGY PRECISION 4
Info: CROSSTERM ENERGY INCLUDED IN DIHEDRAL
Info: TIMING OUTPUT STEPS    1000000
Info: PRESSURE OUTPUT STEPS  100000
Info: ALCHEMICAL FEP ON
Info: FEP CURRENT LAMBDA VALUE     0
Info: FEP COMPARISON LAMBDA VALUE  0.05
Info: FEP INTRA-ALCHEMICAL NON-BONDED INTERACTIONS WILL BE RETAINED
Info: FEP INTRA-ALCHEMICAL BONDED INTERACTIONS WILL BE RETAINED
Info: FEP VDW SHIFTING COEFFICIENT 5
Info: FEP ELEC. ACTIVE FOR ANNIHILATED PARTICLES BETWEEN LAMBDA = 0 AND LAMBDA = 0.5
Info: FEP ELEC. ACTIVE FOR EXNIHILATED PARTICLES BETWEEN LAMBDA = 0.5 AND LAMBDA = 1
Info: FEP VDW ACTIVE FOR ANNIHILATED PARTICLES BETWEEN LAMBDA = 0 AND LAMBDA = 1
Info: FEP VDW ACTIVE FOR EXNIHILATED PARTICLES BETWEEN LAMBDA = 0 AND LAMBDA = 1
Info: FEP BOND ACTIVE FOR ANNIHILATED PARTICLES BETWEEN LAMBDA = 1 AND LAMBDA = 1
Info: FEP BOND ACTIVE FOR EXNIHILATED PARTICLES BETWEEN LAMBDA = 0 AND LAMBDA = 0
Info: LANGEVIN DYNAMICS ACTIVE
Info: LANGEVIN TEMPERATURE   300
Info: LANGEVIN USING BBK INTEGRATOR
Info: LANGEVIN DAMPING COEFFICIENT IS 1 INVERSE PS
Info: LANGEVIN DYNAMICS APPLIED TO HYDROGENS
Info: LANGEVIN PISTON PRESSURE CONTROL ACTIVE
Info:        TARGET PRESSURE IS 1.01325 BAR
Info:     OSCILLATION PERIOD IS 50 FS
Info:             DECAY TIME IS 25 FS
Info:     PISTON TEMPERATURE IS 300 K
Info:       PRESSURE CONTROL IS GROUP-BASED
Info:    INITIAL STRAIN RATE IS 0.000471256 0.000471256 0.000471256
Info:       CELL FLUCTUATION IS ISOTROPIC
Info: PARTICLE MESH EWALD (PME) ACTIVE
Info: PME TOLERANCE               1e-06
Info: PME EWALD COEFFICIENT       0.348832
Info: PME INTERPOLATION ORDER     4
Info: PME GRID DIMENSIONS         32 32 32
Info: PME MAXIMUM GRID SPACING    1
Info: PME CALCULATION WILL BE PERFORMED ON GPU
Info: FULL ELECTROSTATIC EVALUATION FREQUENCY      2
Info: USING VERLET I (r-RESPA) MTS SCHEME.
Info: C1 SPLITTING OF LONG RANGE ELECTROSTATICS
Info: PLACING ATOMS IN PATCHES BY HYDROGEN GROUPS
Info: RIGID BONDS TO HYDROGEN : ALL
Info:         ERROR TOLERANCE : 1e-08
Info:          MAX ITERATIONS : 100
Info: RIGID WATER USING SETTLE ALGORITHM
Info: RANDOM NUMBER SEED     1742220969
Info: USE HYDROGEN BONDS?    NO
Info: Using AMBER format force field!
Info: AMBER PARM FILE        mobley_9557440.prmtop
Info: COORDINATE PDB         mobley_9557440.pdb
Info: Exclusions will be read from PARM file!
Info: SCNB (VDW SCALING)     2
Info: USING ARITHMETIC MEAN TO COMBINE L-J SIGMA PARAMETERS
Info: BINARY COORDINATES     mobley_9557440_equil.coor
Info: SUMMARY OF PARAMETERS:
Info: 10 BONDS
Info: 14 ANGLES
Info:   14 HARMONIC
Info:   0 COSINE-BASED
Info: 7 DIHEDRAL
Info: 0 IMPROPER
Info: 0 CROSSTERM
Info: 0 VDW
Info: 36 VDW_PAIRS
Info: 0 NBTHOLE_PAIRS
Info: To read alchdata from file: mobley_9557440.pdb
Info: To read alchflag data from column: 5
Info: STRUCTURE SUMMARY:
Info: 2925 ATOMS
Info: 2925 BONDS
Info: 18 ANGLES
Info: 31 DIHEDRALS
Info: 0 IMPROPERS
Info: 0 CROSSTERMS
Info: 2964 EXCLUSIONS
Info: 2916 RIGID BONDS
Info: ALCH: 0 ATOMS TO DISAPPEAR IN FINAL STATE
Info: ALCH: 12 ATOMS TO APPEAR IN FINAL STATE
Info: 5859 DEGREES OF FREEDOM
Info: 980 HYDROGEN GROUPS
Info: 3 ATOMS IN LARGEST HYDROGEN GROUP
Info: 980 MIGRATION GROUPS
Info: 3 ATOMS IN LARGEST MIGRATION GROUP
Info: TOTAL MASS = 17640.1 amu
Info: TOTAL CHARGE = 0.000100046 e
Info: MASS DENSITY = 0.981375 g/cm^3
Info: ATOM DENSITY = 0.0979944 atoms/A^3
Info: ADDED 0 IMPLICIT EXCLUSIONS
Info: NONBONDED TABLE R-SQUARED SPACING: 0.0625
Info: NONBONDED TABLE SIZE: 705 POINTS
Info: REMOVING COM VELOCITY 0.028778 -0.1849 0.185702
Info: Use 3D box decompostion in PME FFT.
Info: Updated CUDA force table with 4096 elements.
Info: Updated CUDA LJ table with 8 x 8 elements.
Info: Found 14 unique exclusion lists needing 24 bytes
TCL: Running for 1500000 steps
ETITLE: TS BOND ANGLE DIHED IMPRP ELECT VDW BOUNDARY MISC KINETIC TOTAL TEMP POTENTIAL TOTALAVG TEMPAVG PRESSURE GPRESSURE VOLUME PRESSAVG GPRESSAVG
ENERGY: 0 3.4720 2.2145 13.8230 0.0000 -10702.8924 1409.2475 0.0000 0.0000 1782.1392 -7491.9961 306.1319 -9274.1353 -7491.9961 306.1319 -49.4707 54.4165 29848.6433 -49.4707 54.4165
ENERGY: 300000 1.6010 2.4647 15.5428 0.0000 -10882.4378 1473.4726 0.0000 0.0000 1696.4745 -7692.8822 291.4166 -9389.3567 -7579.7054 299.7637 235.5729 324.3773 29513.5790 278.1415 345.5399
ENERGY: 600000 4.6223 4.9652 14.6863 0.0000 -10723.4491 1423.0329 0.0000 0.0000 1757.3761 -7518.7663 301.8781 -9276.1425 -7562.6350 299.9071 125.4038 162.1993 29900.4476 336.5674 396.0842
ENERGY: 900000 3.2328 5.3854 13.3026 0.0000 -10812.4614 1434.7305 0.0000 0.0000 1734.5621 -7621.2480 297.9592 -9355.8102 -7562.4215 299.4697 239.4248 268.6128 29411.8721 189.1686 244.6727
ENERGY: 1200000 9.3510 4.1592 14.3416 0.0000 -10889.2593 1601.7609 0.0000 0.0000 1720.2968 -7539.3497 295.5087 -9259.6465 -7545.1004 300.2522 1726.0088 1730.8610 29809.4453 236.4405 290.0543
ENERGY: 1500000 4.4752 5.9452 14.3367 0.0000 -10832.8660 1454.9852 0.0000 0.0000 1790.3505 -7562.7732 307.5424 -9353.1237 -7544.6018 300.4929 -35.3919 26.6152 30228.8412 94.9576 147.3541
TCL: Running FEP window   2: Lambda1 0.05   Lambda2 0.1    [dLambda 0.05  ]
TCL: Setting parameter firsttimestep to 0
TCL: Setting parameter alchLambda to 0.05
Info: NONBONDED TABLE R-SQUARED SPACING: 0.0625
Info: NONBONDED TABLE SIZE: 705 POINTS
TCL: Setting parameter alchLambda2 to 0.1
Info: NONBONDED TABLE R-SQUARED SPACING: 0.0625
Info: NONBONDED TABLE SIZE: 705 POINTS
TCL: Running for 1500000 steps
ETITLE: TS BOND ANGLE DIHED IMPRP ELECT VDW BOUNDARY MISC KINETIC TOTAL TEMP POTENTIAL TOTALAVG TEMPAVG PRESSURE GPRESSURE VOLUME PRESSAVG GPRESSAVG
ENERGY: 0 4.4752 5.9452 14.3367 0.0000 -10832.8661 1458.5742 0.0000 0.0000 1789.5040 -7560.0308 307.3969 -9349.5348 -7560.0308 307.3969 -61.7024 33.7067 30228.8412 -61.7024 33.7067
ENERGY: 300000 3.0678 6.6126 14.6664 0.0000 -10814.2989 1466.3244 0.0000 0.0000 1702.4977 -7621.1300 292.4512 -9323.6277 -7568.9629 299.7881 226.2624 304.2317 29943.8053 -44.8795 17.0075
ENERGY: 600000 2.6738 5.9264 13.4828 0.0000 -10682.2183 1345.0484 0.0000 0.0000 1714.7099 -7600.3771 294.5490 -9315.0870 -7582.6247 298.0053 -1131.9796 -1052.1388 30691.7470 -98.7614 -46.4556
ENERGY: 900000 3.9000 3.7481 14.9381 0.0000 -10795.2867 1422.9998 0.0000 0.0000 1781.1392 -7568.5616 305.9601 -9349.7008 -7583.6722 298.0208 -115.8010 -60.2271 30126.8865 -136.8322 -73.2345
ENERGY: 1200000 4.5371 3.1998 13.1691 0.0000 -10765.1719 1420.8542 0.0000 0.0000 1733.4116 -7590.0001 297.7615 -9323.4117 -7572.0010 299.4728 -409.5783 -354.4482 30525.3802 -81.3168 -21.9642
ENERGY: 1500000 1.9913 2.4478 18.4904 0.0000 -10780.3780 1467.3116 0.0000 0.0000 1810.2252 -7479.9117 310.9564 -9290.1370 -7563.8508 300.1080 91.8150 167.0035 30448.2569 -72.6211 -3.3034
TCL: Running FEP window   3: Lambda1 0.1    Lambda2 0.15000000000000002 [dLambda 0.05000000000000002]
TCL: Setting parameter firsttimestep to 0
TCL: Setting parameter alchLambda to 0.1
Info: NONBONDED TABLE R-SQUARED SPACING: 0.0625
Info: NONBONDED TABLE SIZE: 705 POINTS
TCL: Setting parameter alchLambda2 to 0.15000000000000002
Info: NONBONDED TABLE R-SQUARED SPACING: 0.0625
Info: NONBONDED TABLE SIZE: 705 POINTS
TCL: Running for 1500000 steps
ETITLE: TS BOND ANGLE DIHED IMPRP ELECT VDW BOUNDARY MISC KINETIC TOTAL TEMP POTENTIAL TOTALAVG TEMPAVG PRESSURE GPRESSURE VOLUME PRESSAVG GPRESSAVG
ENERGY: 0 1.9913 2.4478 18.4904 0.0000 -10780.3775 1467.5303 0.0000 0.0000 1809.3707 -7480.5471 310.8096 -9289.9178 -7480.5471 310.8096 77.4370 172.3852 30448.2569 77.4370 172.3852
ENERGY: 300000 1.9689 1.9930 13.7256 0.0000 -10617.3086 1307.7764 0.0000 0.0000 1728.9220 -7562.9227 296.9903 -9291.8447 -7550.8690 304.3070 -1091.5642 -1036.2997 30597.4195 -112.1130 -58.3121
ENERGY: 600000 5.7647 2.1707 12.8835 0.0000 -10724.3587 1380.8064 0.0000 0.0000 1756.9032 -7565.8301 301.7969 -9322.7333 -7545.8823 303.0596 -416.8657 -353.7389 30016.0194 -131.9973 -70.5846
ENERGY: 900000 4.1733 5.6127 13.2189 0.0000 -10779.6105 1468.8102 0.0000 0.0000 1736.0652 -7551.7302 298.2174 -9287.7954 -7554.3324 301.0068 670.2459 712.5534 29879.8785 10.6008 65.1746
ENERGY: 1200000 2.0995 4.4555 13.5988 0.0000 -10798.0001 1450.7461 0.0000 0.0000 1766.4131 -7560.6871 303.4304 -9327.1002 -7554.7570 300.9308 261.2115 312.0005 29749.2292 -123.3928 -69.3139
ENERGY: 1500000 4.1662 6.6159 15.1118 0.0000 -10804.3705 1451.7019 0.0000 0.0000 1772.2817 -7554.4930 304.4386 -9326.7747 -7564.9951 301.2713 194.2227 226.6706 30012.8273 -85.5648 -34.7149
TCL: Running FEP window   4: Lambda1 0.15000000000000002 Lambda2 0.2    [dLambda 0.04999999999999999]
TCL: Setting parameter firsttimestep to 0
TCL: Setting parameter alchLambda to 0.15000000000000002
Info: NONBONDED TABLE R-SQUARED SPACING: 0.0625
Info: NONBONDED TABLE SIZE: 705 POINTS
TCL: Setting parameter alchLambda2 to 0.2
Info: NONBONDED TABLE R-SQUARED SPACING: 0.0625
Info: NONBONDED TABLE SIZE: 705 POINTS
TCL: Running for 1500000 steps
ETITLE: TS BOND ANGLE DIHED IMPRP ELECT VDW BOUNDARY MISC KINETIC TOTAL TEMP POTENTIAL TOTALAVG TEMPAVG PRESSURE GPRESSURE VOLUME PRESSAVG GPRESSAVG
ENERGY: 0 4.1662 6.6159 15.1118 0.0000 -10804.3712 1453.7684 0.0000 0.0000 1771.4279 -7553.2810 304.2919 -9324.7089 -7553.2810 304.2919 159.2935 238.0714 30012.8273 159.2935 238.0714
ENERGY: 300000 4.6279 7.1255 14.0523 0.0000 -10765.0106 1496.0718 0.0000 0.0000 1704.7978 -7538.3354 292.8463 -9243.1332 -7595.5650 298.5336 529.8673 542.5051 30279.4908 105.4464 143.0343
ENERGY: 600000 4.0361 4.5265 13.6415 0.0000 -10760.6275 1414.3653 0.0000 0.0000 1710.5981 -7613.4600 293.8427 -9324.0580 -7599.4260 297.7998 -126.0321 -89.1713 30055.0710 106.1603 151.5531
ENERGY: 900000 1.8989 3.4195 13.9337 0.0000 -10925.5130 1600.8189 0.0000 0.0000 1707.7871 -7597.6550 293.3598 -9305.4421 -7595.8576 298.2312 1237.0176 1286.8077 29648.2889 80.9598 127.4657
ENERGY: 1200000 5.5676 4.0656 16.2025 0.0000 -10831.8613 1477.3376 0.0000 0.0000 1730.4872 -7598.2007 297.2592 -9328.6879 -7603.5897 297.7102 559.3802 591.2916 29712.1118 49.0217 98.2910
ENERGY: 1500000 3.2029 3.9659 13.0418 0.0000 -10860.6373 1480.9301 0.0000 0.0000 1756.8311 -7602.6656 301.7845 -9359.4967 -7604.7471 297.0253 367.2912 438.5399 29426.2012 -36.7217 13.5395
TCL: Running FEP window   5: Lambda1 0.2    Lambda2 0.25   [dLambda 0.04999999999999999]
TCL: Setting parameter firsttimestep to 0
TCL: Setting parameter alchLambda to 0.2
Info: NONBONDED TABLE R-SQUARED SPACING: 0.0625
Info: NONBONDED TABLE SIZE: 705 POINTS
TCL: Setting parameter alchLambda2 to 0.25
Info: NONBONDED TABLE R-SQUARED SPACING: 0.0625
Info: NONBONDED TABLE SIZE: 705 POINTS
TCL: Running for 1500000 steps
ETITLE: TS BOND ANGLE DIHED IMPRP ELECT VDW BOUNDARY MISC KINETIC TOTAL TEMP POTENTIAL TOTALAVG TEMPAVG PRESSURE GPRESSURE VOLUME PRESSAVG GPRESSAVG
ENERGY: 0 3.2029 3.9659 13.0418 0.0000 -10860.6385 1481.1449 0.0000 0.0000 1755.9690 -7603.3141 301.6364 -9359.2831 -7603.3141 301.6364 347.5124 443.4828 29426.2012 347.5124 443.4828
ENERGY: 300000 6.5486 6.9744 13.1001 0.0000 -10706.1213 1393.5154 0.0000 0.0000 1766.2566 -7519.7261 303.4036 -9285.9828 -7573.7583 301.4489 29.7135 148.5763 29680.7679 309.9245 397.4565
ENERGY: 600000 5.7853 8.7577 13.0102 0.0000 -10858.8802 1481.9536 0.0000 0.0000 1710.7306 -7638.6429 293.8654 -9349.3735 -7569.1817 298.8558 345.5120 366.9185 29924.5773 -30.1140 43.9973
ENERGY: 900000 1.6166 4.9645 14.5703 0.0000 -10632.4490 1330.7442 0.0000 0.0000 1728.3398 -7552.2138 296.8903 -9280.5536 -7551.4317 300.7704 -753.4745 -752.5661 30106.5827 -51.8373 20.1862
ENERGY: 1200000 3.6626 6.9640 14.4270 0.0000 -10754.4872 1472.2315 0.0000 0.0000 1750.3288 -7506.8732 300.6675 -9257.2020 -7554.9492 299.8899 416.6314 520.9676 30012.7089 -20.4294 53.4029
ENERGY: 1500000 2.4348 4.5451 14.1379 0.0000 -10679.3152 1396.6473 0.0000 0.0000 1753.7847 -7507.7654 301.2612 -9261.5501 -7551.6264 299.7463 -134.2603 -92.5990 30197.9130 -27.5942 34.7073
TCL: Running FEP window   6: Lambda1 0.25   Lambda2 0.3    [dLambda 0.04999999999999999]
TCL: Setting parameter firsttimestep to 0
TCL: Setting parameter alchLambda to 0.25
Info: NONBONDED TABLE R-SQUARED SPACING: 0.0625
Info: NONBONDED TABLE SIZE: 705 POINTS
TCL: Setting parameter alchLambda2 to 0.3
Info: NONBONDED TABLE R-SQUARED SPACING: 0.0625
Info: NONBONDED TABLE SIZE: 705 POINTS
TCL: Running for 1500000 steps
ETITLE: TS BOND ANGLE DIHED IMPRP ELECT VDW BOUNDARY MISC KINETIC TOTAL TEMP POTENTIAL TOTALAVG TEMPAVG PRESSURE GPRESSURE VOLUME PRESSAVG GPRESSAVG
ENERGY: 0 2.4348 4.5451 14.1379 0.0000 -10679.3150 1397.3207 0.0000 0.0000 1752.9128 -7507.9637 301.1114 -9260.8765 -7507.9637 301.1114 -154.1474 -84.3177 30197.9130 -154.1474 -84.3177
ENERGY: 300000 5.3330 2.7534 13.5227 0.0000 -10907.4574 1465.0213 0.0000 0.0000 1771.2751 -7649.5520 304.2656 -9420.8271 -7584.4579 299.0148 3.0852 84.5028 30108.3088 36.0665 108.5168
ENERGY: 600000 2.2434 4.3170 13.5754 0.0000 -10647.2118 1362.1802 0.0000 0.0000 1781.7695 -7483.1262 306.0683 -9264.8957 -7547.5587 299.5243 -406.4974 -358.9286 30176.0314 -286.9961 -196.6540
ENERGY: 900000 3.3045 5.0917 15.3335 0.0000 -10737.8318 1396.2306 0.0000 0.0000 1741.2717 -7576.5997 299.1117 -9317.8715 -7551.7953 300.6810 -240.0811 -267.3872 29912.7367 -264.0763 -188.9064
ENERGY: 1200000 2.0646 4.2227 15.1794 0.0000 -10760.4611 1414.0048 0.0000 0.0000 1750.7299 -7574.2596 300.7364 -9324.9895 -7548.0677 299.2368 -405.4929 -380.2243 30199.3721 -298.9362 -236.5555
ENERGY: 1500000 5.1083 4.7704 16.2536 0.0000 -10850.6866 1545.2328 0.0000 0.0000 1797.1415 -7482.1798 308.7089 -9279.3213 -7541.6031 299.9595 1045.1394 1029.2234 29987.2694 -187.0167 -129.2851
TCL: Running FEP window   7: Lambda1 0.3    Lambda2 0.35   [dLambda 0.04999999999999999]
TCL: Setting parameter firsttimestep to 0
TCL: Setting parameter alchLambda to 0.3
Info: NONBONDED TABLE R-SQUARED SPACING: 0.0625
Info: NONBONDED TABLE SIZE: 705 POINTS
TCL: Setting parameter alchLambda2 to 0.35
Info: NONBONDED TABLE R-SQUARED SPACING: 0.0625
Info: NONBONDED TABLE SIZE: 705 POINTS
TCL: Running for 1500000 steps
ETITLE: TS BOND ANGLE DIHED IMPRP ELECT VDW BOUNDARY MISC KINETIC TOTAL TEMP POTENTIAL TOTALAVG TEMPAVG PRESSURE GPRESSURE VOLUME PRESSAVG GPRESSAVG
ENERGY: 0 5.1083 4.7704 16.2536 0.0000 -10850.6891 1545.4073 0.0000 0.0000 1796.3214 -7482.8280 308.5680 -9279.1494 -7482.8280 308.5680 948.6147 1033.8193 29987.2694 948.6147 1033.8193
ENERGY: 300000 3.0542 4.7876 14.0440 0.0000 -10844.7370 1437.4247 0.0000 0.0000 1752.5778 -7632.8487 301.0538 -9385.4265 -7577.7821 301.0643 36.7742 55.0533 29717.9402 157.3790 203.8699
ENERGY: 600000 3.8714 4.6025 15.8668 0.0000 -10665.5998 1399.5501 0.0000 0.0000 1688.3085 -7553.4005 290.0138 -9241.7090 -7576.3934 298.8212 -95.0667 -18.9237 30107.4405 305.3676 370.5535
ENERGY: 900000 3.3468 4.0311 13.1252 0.0000 -10587.3960 1338.0911 0.0000 0.0000 1763.8235 -7464.9783 302.9856 -9228.8018 -7567.9788 298.4356 -170.4228 -169.8635 29828.4782 179.9352 228.8334
ENERGY: 1200000 7.0738 5.5718 13.2462 0.0000 -10678.2227 1419.8830 0.0000 0.0000 1750.4670 -7481.9809 300.6913 -9232.4479 -7557.7339 298.7668 217.9729 304.4599 30037.0562 151.7960 209.6752
ENERGY: 1500000 3.1218 8.7611 13.8942 0.0000 -10834.0599 1460.8846 0.0000 0.0000 1801.9774 -7545.4208 309.5396 -9347.3982 -7560.3131 300.0469 375.9444 436.8039 29584.3334 172.4847 230.9844
TCL: Running FEP window   8: Lambda1 0.35   Lambda2 0.39999999999999997 [dLambda 0.04999999999999999]
TCL: Setting parameter firsttimestep to 0
TCL: Setting parameter alchLambda to 0.35
Info: NONBONDED TABLE R-SQUARED SPACING: 0.0625
Info: NONBONDED TABLE SIZE: 705 POINTS
TCL: Setting parameter alchLambda2 to 0.39999999999999997
Info: NONBONDED TABLE R-SQUARED SPACING: 0.0625
Info: NONBONDED TABLE SIZE: 705 POINTS
TCL: Running for 1500000 steps
ETITLE: TS BOND ANGLE DIHED IMPRP ELECT VDW BOUNDARY MISC KINETIC TOTAL TEMP POTENTIAL TOTALAVG TEMPAVG PRESSURE GPRESSURE VOLUME PRESSAVG GPRESSAVG
ENERGY: 0 3.1218 8.7611 13.8942 0.0000 -10834.0592 1460.3805 0.0000 0.0000 1801.1033 -7546.7983 309.3895 -9347.9016 -7546.7983 309.3895 354.3089 436.6500 29584.3334 354.3089 436.6500
ENERGY: 300000 3.5716 3.6532 16.1670 0.0000 -10741.4079 1418.4229 0.0000 0.0000 1732.8616 -7566.7317 297.6670 -9299.5933 -7545.1840 300.9018 -148.4612 -89.7943 30014.7904 222.5756 281.0777
ENERGY: 600000 5.1474 2.9278 13.7179 0.0000 -10807.4464 1432.9161 0.0000 0.0000 1772.6633 -7580.0738 304.5041 -9352.7371 -7555.9429 301.0416 -239.0300 -192.5020 30128.9706 -50.0480 12.9556
ENERGY: 900000 2.5762 5.7008 16.0294 0.0000 -10618.7222 1333.6626 0.0000 0.0000 1708.7331 -7552.0200 293.5223 -9260.7531 -7546.2625 302.0046 -777.7878 -664.2654 30433.7834 -116.2972 -50.9783
ENERGY: 1200000 3.4311 4.1737 14.4285 0.0000 -10552.0094 1320.5102 0.0000 0.0000 1754.5582 -7454.9076 301.3941 -9209.4658 -7546.5057 301.9157 -620.3414 -574.3394 30345.1761 -185.0718 -123.6908
ENERGY: 1500000 2.5653 4.3861 15.2740 0.0000 -10741.0763 1405.8499 0.0000 0.0000 1802.0891 -7510.9120 309.5588 -9313.0011 -7541.5957 302.4673 -270.2068 -165.6032 30247.0920 -53.0530 12.0339
TCL: Running FEP window   9: Lambda1 0.39999999999999997 Lambda2 0.44999999999999996 [dLambda 0.04999999999999999]
TCL: Setting parameter firsttimestep to 0
TCL: Setting parameter alchLambda to 0.39999999999999997
Info: NONBONDED TABLE R-SQUARED SPACING: 0.0625
Info: NONBONDED TABLE SIZE: 705 POINTS
TCL: Setting parameter alchLambda2 to 0.44999999999999996
Info: NONBONDED TABLE R-SQUARED SPACING: 0.0625
Info: NONBONDED TABLE SIZE: 705 POINTS
TCL: Running for 1500000 steps
ETITLE: TS BOND ANGLE DIHED IMPRP ELECT VDW BOUNDARY MISC KINETIC TOTAL TEMP POTENTIAL TOTALAVG TEMPAVG PRESSURE GPRESSURE VOLUME PRESSAVG GPRESSAVG
ENERGY: 0 2.5653 4.3861 15.2740 0.0000 -10741.0765 1405.4438 0.0000 0.0000 1801.1968 -7512.2105 309.4055 -9313.4073 -7512.2105 309.4055 -242.2342 -163.5755 30247.0920 -242.2342 -163.5755
ENERGY: 300000 3.1947 2.2216 14.0899 0.0000 -10619.5487 1395.9305 0.0000 0.0000 1715.4908 -7488.6212 294.6831 -9204.1121 -7576.8141 299.5167 -157.1925 -101.5971 30668.6500 -317.9779 -247.1900
ENERGY: 600000 4.2884 3.2036 13.9053 0.0000 -10613.8217 1370.3066 0.0000 0.0000 1821.9093 -7400.2086 312.9635 -9222.1179 -7531.9598 302.5460 -615.9899 -546.6575 30753.3542 -124.7318 -59.9085
ENERGY: 900000 4.9409 4.6152 15.1369 0.0000 -10782.3447 1435.5642 0.0000 0.0000 1717.9756 -7604.1117 295.1100 -9322.0874 -7551.3480 300.9754 243.3012 349.2917 29782.3002 -103.1687 -40.3716
ENERGY: 1200000 2.8295 5.2634 15.0409 0.0000 -10911.4036 1526.4197 0.0000 0.0000 1765.3127 -7596.5374 303.2414 -9361.8501 -7548.0379 302.0355 649.1504 736.5010 29855.0204 -11.3469 44.8192
ENERGY: 1500000 5.0807 4.2869 14.3300 0.0000 -10742.0684 1446.8534 0.0000 0.0000 1747.4898 -7524.0276 300.1798 -9271.5174 -7545.5052 301.5403 301.3954 338.7958 30130.9069 35.0304 89.1155
TCL: Running FEP window  10: Lambda1 0.44999999999999996 Lambda2 0.49999999999999994 [dLambda 0.04999999999999999]
TCL: Setting parameter firsttimestep to 0
TCL: Setting parameter alchLambda to 0.44999999999999996
Info: NONBONDED TABLE R-SQUARED SPACING: 0.0625
Info: NONBONDED TABLE SIZE: 705 POINTS
TCL: Setting parameter alchLambda2 to 0.49999999999999994
Info: NONBONDED TABLE R-SQUARED SPACING: 0.0625
Info: NONBONDED TABLE SIZE: 705 POINTS
TCL: Running for 1500000 steps
ETITLE: TS BOND ANGLE DIHED IMPRP ELECT VDW BOUNDARY MISC KINETIC TOTAL TEMP POTENTIAL TOTALAVG TEMPAVG PRESSURE GPRESSURE VOLUME PRESSAVG GPRESSAVG
ENERGY: 0 5.0807 4.2869 14.3300 0.0000 -10742.0689 1446.2195 0.0000 0.0000 1746.6393 -7525.5127 300.0337 -9272.1519 -7525.5127 300.0337 230.3070 337.5746 30130.9069 230.3070 337.5746
ENERGY: 300000 3.2780 2.5050 16.5429 0.0000 -10824.0881 1445.3090 0.0000 0.0000 1763.4970 -7592.9561 302.9295 -9356.4532 -7530.3728 305.7069 -331.1346 -239.3194 30634.4092 -132.8921 -34.8366
ENERGY: 600000 3.2710 4.4189 16.6103 0.0000 -10840.7318 1457.7583 0.0000 0.0000 1804.2698 -7554.4036 309.9334 -9358.6734 -7545.0134 303.3898 34.6580 108.2387 30044.3781 -269.3717 -180.5957
ENERGY: 900000 6.3082 3.6338 17.7818 0.0000 -10746.1725 1384.3422 0.0000 0.0000 1747.5674 -7586.5392 300.1932 -9334.1066 -7549.1059 302.5875 -426.6306 -337.7615 30352.0454 -255.0780 -175.2690
ENERGY: 1200000 2.9152 6.1746 14.3661 0.0000 -10706.6527 1450.2449 0.0000 0.0000 1730.4783 -7502.4738 297.2576 -9232.9520 -7551.6688 301.5987 116.9524 124.9812 30402.8163 -216.9738 -142.7088
ENERGY: 1500000 2.7220 3.0491 17.1077 0.0000 -10679.7184 1415.8158 0.0000 0.0000 1742.3188 -7498.7050 299.2916 -9241.0238 -7549.3172 300.8166 95.7139 141.1691 30054.7103 -257.6394 -188.8063
TCL: Running FEP window  11: Lambda1 0.49999999999999994 Lambda2 0.5499999999999999 [dLambda 0.04999999999999999]
TCL: Setting parameter firsttimestep to 0
TCL: Setting parameter alchLambda to 0.49999999999999994
Info: NONBONDED TABLE R-SQUARED SPACING: 0.0625
Info: NONBONDED TABLE SIZE: 705 POINTS
TCL: Setting parameter alchLambda2 to 0.5499999999999999
Info: NONBONDED TABLE R-SQUARED SPACING: 0.0625
Info: NONBONDED TABLE SIZE: 705 POINTS
TCL: Running for 1500000 steps
ETITLE: TS BOND ANGLE DIHED IMPRP ELECT VDW BOUNDARY MISC KINETIC TOTAL TEMP POTENTIAL TOTALAVG TEMPAVG PRESSURE GPRESSURE VOLUME PRESSAVG GPRESSAVG
ENERGY: 0 2.7220 3.0491 17.1077 0.0000 -10679.7191 1415.8038 0.0000 0.0000 1741.4478 -7499.5887 299.1420 -9241.0365 -7499.5887 299.1420 60.9725 147.0336 30054.7103 60.9725 147.0336
ENERGY: 300000 4.4945 3.8821 14.4751 0.0000 -10779.8257 1457.8210 0.0000 0.0000 1732.5043 -7566.6487 297.6057 -9299.1529 -7538.4668 299.8251 319.6424 396.4510 30134.6132 -251.9687 -171.5315
ENERGY: 600000 3.7157 4.5529 13.1027 0.0000 -10665.4494 1419.2688 0.0000 0.0000 1739.5353 -7485.2740 298.8134 -9224.8093 -7564.0482 298.2007 34.2027 16.3085 30506.1639 -32.5071 26.4385
ENERGY: 900000 7.3969 6.4684 15.0020 0.0000 -10768.2100 1420.5886 0.0000 0.0000 1697.0136 -7621.7404 291.5092 -9318.7541 -7573.3314 297.9249 65.0877 197.5922 29739.3484 10.8648 66.1884
ENERGY: 1200000 3.2820 3.5991 14.7719 0.0000 -10916.6031 1529.2444 0.0000 0.0000 1728.8612 -7636.8445 296.9799 -9365.7057 -7578.3552 298.0937 652.0312 704.4741 30093.6069 55.7208 112.0988
ENERGY: 1500000 6.3571 2.5466 15.7332 0.0000 -10829.6693 1422.9879 0.0000 0.0000 1754.9464 -7627.0982 301.4607 -9382.0445 -7584.2247 297.5283 -206.1758 -79.7019 29897.4710 87.0757 152.6018
TCL: Running FEP window  12: Lambda1 0.5499999999999999 Lambda2 0.6    [dLambda 0.050000000000000044]
TCL: Setting parameter firsttimestep to 0
TCL: Setting parameter alchLambda to 0.5499999999999999
Info: NONBONDED TABLE R-SQUARED SPACING: 0.0625
Info: NONBONDED TABLE SIZE: 705 POINTS
TCL: Setting parameter alchLambda2 to 0.6
Info: NONBONDED TABLE R-SQUARED SPACING: 0.0625
Info: NONBONDED TABLE SIZE: 705 POINTS
TCL: Running for 1500000 steps
ETITLE: TS BOND ANGLE DIHED IMPRP ELECT VDW BOUNDARY MISC KINETIC TOTAL TEMP POTENTIAL TOTALAVG TEMPAVG PRESSURE GPRESSURE VOLUME PRESSAVG GPRESSAVG
ENERGY: 0 6.3571 2.5466 15.7332 0.0000 -10829.9051 1422.2981 0.0000 0.0000 1754.0637 -7628.9063 301.3091 -9382.9701 -7628.9063 301.3091 -172.2235 -78.3530 29897.4710 -172.2235 -78.3530
ENERGY: 300000 6.2170 4.2010 13.4420 0.0000 -10812.0385 1438.9159 0.0000 0.0000 1761.8307 -7587.4319 302.6433 -9349.2626 -7563.4854 301.9516 271.7161 330.5694 29523.0137 284.5340 389.8636
ENERGY: 600000 4.7700 3.2007 15.1703 0.0000 -10614.6464 1305.1644 0.0000 0.0000 1740.5314 -7545.8095 298.9846 -9286.3409 -7551.4570 300.8827 -792.8837 -771.1609 30334.0533 -8.5610 72.3511
ENERGY: 900000 2.8899 6.0771 15.6337 0.0000 -10992.7074 1579.7356 0.0000 0.0000 1668.2414 -7720.1297 286.5667 -9388.3711 -7559.7384 300.5352 967.6509 1008.5464 30004.4903 82.5293 153.4733
ENERGY: 1200000 4.6518 3.1517 13.6029 0.0000 -10828.3495 1453.6503 0.0000 0.0000 1737.7245 -7615.5682 298.5024 -9353.2926 -7567.5687 299.7356 81.7824 85.8549 30000.0896 69.2605 127.6882
ENERGY: 1500000 4.5139 5.0918 14.0113 0.0000 -10651.4962 1392.7039 0.0000 0.0000 1770.1915 -7464.9838 304.0795 -9235.1753 -7556.9810 300.5918 17.6273 81.4880 30096.0344 32.4747 90.0654
TCL: Running FEP window  13: Lambda1 0.6    Lambda2 0.65   [dLambda 0.050000000000000044]
TCL: Setting parameter firsttimestep to 0
TCL: Setting parameter alchLambda to 0.6
Info: NONBONDED TABLE R-SQUARED SPACING: 0.0625
Info: NONBONDED TABLE SIZE: 705 POINTS
TCL: Setting parameter alchLambda2 to 0.65
Info: NONBONDED TABLE R-SQUARED SPACING: 0.0625
Info: NONBONDED TABLE SIZE: 705 POINTS
TCL: Running for 1500000 steps
ETITLE: TS BOND ANGLE DIHED IMPRP ELECT VDW BOUNDARY MISC KINETIC TOTAL TEMP POTENTIAL TOTALAVG TEMPAVG PRESSURE GPRESSURE VOLUME PRESSAVG GPRESSAVG
ENERGY: 0 4.5139 5.0918 14.0113 0.0000 -10652.6185 1392.1589 0.0000 0.0000 1769.3211 -7467.5215 303.9300 -9236.8426 -7467.5215 303.9300 -5.6932 81.4405 30096.0344 -5.6932 81.4405
ENERGY: 300000 5.6614 6.8730 13.9993 0.0000 -10714.0005 1344.1918 0.0000 0.0000 1806.8983 -7536.3766 310.3849 -9343.2749 -7528.1062 301.2512 -499.3655 -471.3779 29938.8049 -151.4892 -72.3331
ENERGY: 600000 7.4318 1.6614 17.4357 0.0000 -10740.5284 1383.2926 0.0000 0.0000 1693.3107 -7637.3961 290.8731 -9330.7068 -7555.2967 298.0575 -594.3748 -567.2058 30268.2667 -197.6887 -141.4873
ENERGY: 900000 3.9288 4.7461 14.1098 0.0000 -10700.6126 1374.8197 0.0000 0.0000 1737.9207 -7565.0875 298.5361 -9303.0082 -7566.0772 298.0612 -728.2723 -641.2203 30887.2706 -213.6410 -149.6461
ENERGY: 1200000 2.9231 3.3377 15.0124 0.0000 -10720.1777 1425.2284 0.0000 0.0000 1730.9547 -7542.7214 297.3395 -9273.6761 -7567.1432 298.1683 -58.1413 -53.1764 30559.5694 -201.8506 -146.6813
ENERGY: 1500000 3.7557 3.7502 15.2588 0.0000 -10891.2464 1480.3667 0.0000 0.0000 1722.5450 -7665.5700 295.8949 -9388.1150 -7569.4811 298.4040 9.2692 49.2885 30379.4378 -201.2209 -142.6730
TCL: Running FEP window  14: Lambda1 0.65   Lambda2 0.7000000000000001 [dLambda 0.050000000000000044]
TCL: Setting parameter firsttimestep to 0
TCL: Setting parameter alchLambda to 0.65
Info: NONBONDED TABLE R-SQUARED SPACING: 0.0625
Info: NONBONDED TABLE SIZE: 705 POINTS
TCL: Setting parameter alchLambda2 to 0.7000000000000001
Info: NONBONDED TABLE R-SQUARED SPACING: 0.0625
Info: NONBONDED TABLE SIZE: 705 POINTS
TCL: Running for 1500000 steps
ETITLE: TS BOND ANGLE DIHED IMPRP ELECT VDW BOUNDARY MISC KINETIC TOTAL TEMP POTENTIAL TOTALAVG TEMPAVG PRESSURE GPRESSURE VOLUME PRESSAVG GPRESSAVG
ENERGY: 0 3.7557 3.7502 15.2588 0.0000 -10894.6818 1480.8284 0.0000 0.0000 1721.6919 -7669.3969 295.7483 -9391.0887 -7669.3969 295.7483 -39.5850 51.8580 30379.4378 -39.5850 51.8580
ENERGY: 300000 9.4826 6.0641 16.7128 0.0000 -10725.7055 1384.4375 0.0000 0.0000 1741.5940 -7567.4145 299.1671 -9309.0085 -7612.4788 298.9962 -316.1205 -247.7762 30161.2633 -161.2389 -88.1224
ENERGY: 600000 3.2585 5.2753 16.4400 0.0000 -10825.8396 1403.2122 0.0000 0.0000 1690.4581 -7707.1955 290.3831 -9397.6536 -7598.3288 296.9717 -467.4742 -403.9692 29869.6787 -225.7767 -153.6333
ENERGY: 900000 3.4207 5.6096 13.2016 0.0000 -10885.4425 1439.6863 0.0000 0.0000 1728.4134 -7695.1108 296.9029 -9423.5242 -7617.5901 296.8476 -73.8889 -21.9326 29916.0945 -138.6455 -73.1874
ENERGY: 1200000 1.5804 2.9250 14.1454 0.0000 -10634.4700 1356.8207 0.0000 0.0000 1762.1316 -7496.8669 302.6950 -9258.9985 -7600.2661 298.6772 -420.9144 -424.9921 30301.8673 -179.2982 -116.7371
ENERGY: 1500000 4.3297 3.8509 15.7848 0.0000 -10664.3065 1397.3447 0.0000 0.0000 1741.5387 -7501.4577 299.1576 -9242.9963 -7591.0117 299.3250 51.2098 32.1070 30230.7401 -76.7077 -14.4011
TCL: Running FEP window  15: Lambda1 0.7000000000000001 Lambda2 0.7500000000000001 [dLambda 0.050000000000000044]
TCL: Setting parameter firsttimestep to 0
TCL: Setting parameter alchLambda to 0.7000000000000001
Info: NONBONDED TABLE R-SQUARED SPACING: 0.0625
Info: NONBONDED TABLE SIZE: 705 POINTS
TCL: Setting parameter alchLambda2 to 0.7500000000000001
Info: NONBONDED TABLE R-SQUARED SPACING: 0.0625
Info: NONBONDED TABLE SIZE: 705 POINTS
TCL: Running for 1500000 steps
ETITLE: TS BOND ANGLE DIHED IMPRP ELECT VDW BOUNDARY MISC KINETIC TOTAL TEMP POTENTIAL TOTALAVG TEMPAVG PRESSURE GPRESSURE VOLUME PRESSAVG GPRESSAVG
ENERGY: 0 4.3297 3.8509 15.7848 0.0000 -10668.1803 1398.4415 0.0000 0.0000 1740.6676 -7505.1057 299.0080 -9245.7733 -7505.1057 299.0080 -48.6911 38.8769 30230.7401 -48.6911 38.8769
ENERGY: 300000 2.0931 2.7665 15.2503 0.0000 -10739.3070 1443.6801 0.0000 0.0000 1777.3326 -7498.1844 305.3062 -9275.5171 -7544.2964 302.2285 201.6655 215.6866 30283.9121 -140.3334 -92.4426
ENERGY: 600000 2.7166 7.3185 13.6192 0.0000 -10765.6936 1423.2797 0.0000 0.0000 1765.9219 -7552.8377 303.3461 -9318.7596 -7553.2837 302.1246 109.5108 185.3942 29926.7681 -39.7487 16.4264
ENERGY: 900000 3.8912 2.0466 15.2426 0.0000 -10841.1602 1482.2674 0.0000 0.0000 1731.8012 -7605.9111 297.4849 -9337.7123 -7575.6664 299.7926 543.0006 564.4465 29868.7206 -34.0517 17.3545
ENERGY: 1200000 4.0656 3.9912 16.3798 0.0000 -10837.8883 1468.8457 0.0000 0.0000 1703.2074 -7641.3987 292.5731 -9344.6061 -7572.1155 299.6253 72.8919 106.2975 30316.7065 -27.5481 27.6944
ENERGY: 1500000 4.6725 5.3979 13.5560 0.0000 -10706.3489 1409.1502 0.0000 0.0000 1737.8405 -7535.7318 298.5223 -9273.5723 -7580.5826 299.2334 -412.9509 -250.3079 30483.4874 -5.6740 53.4308
TCL: Running FEP window  16: Lambda1 0.7500000000000001 Lambda2 0.8000000000000002 [dLambda 0.050000000000000044]
TCL: Setting parameter firsttimestep to 0
TCL: Setting parameter alchLambda to 0.7500000000000001
Info: NONBONDED TABLE R-SQUARED SPACING: 0.0625
Info: NONBONDED TABLE SIZE: 705 POINTS
TCL: Setting parameter alchLambda2 to 0.8000000000000002
Info: NONBONDED TABLE R-SQUARED SPACING: 0.0625
Info: NONBONDED TABLE SIZE: 705 POINTS
TCL: Running for 1500000 steps
ETITLE: TS BOND ANGLE DIHED IMPRP ELECT VDW BOUNDARY MISC KINETIC TOTAL TEMP POTENTIAL TOTALAVG TEMPAVG PRESSURE GPRESSURE VOLUME PRESSAVG GPRESSAVG
ENERGY: 0 4.6725 5.3979 13.5560 0.0000 -10710.9820 1411.1809 0.0000 0.0000 1736.9700 -7539.2046 298.3728 -9276.1746 -7539.2046 298.3728 -312.0685 -234.7248 30483.4874 -312.0685 -234.7248
ENERGY: 300000 3.3391 4.0273 14.3798 0.0000 -10794.8518 1440.8596 0.0000 0.0000 1771.0642 -7561.1817 304.2294 -9332.2459 -7579.6733 298.7539 340.7999 384.3269 29716.5902 174.3505 231.9431
ENERGY: 600000 4.1997 4.2941 14.9992 0.0000 -10780.4463 1352.4771 0.0000 0.0000 1785.7374 -7618.7388 306.7499 -9404.4762 -7584.5233 300.5877 -1196.9642 -1058.1607 30399.2149 -137.5715 -64.3465
ENERGY: 900000 5.6610 3.9651 12.9922 0.0000 -10777.8870 1384.2664 0.0000 0.0000 1767.6242 -7603.3781 303.6385 -9371.0022 -7584.1906 301.0466 -268.5834 -211.8348 29959.6356 -110.7083 -46.9056
ENERGY: 1200000 5.2172 1.3708 15.5738 0.0000 -10887.5224 1536.7935 0.0000 0.0000 1734.6868 -7593.8803 297.9806 -9328.5671 -7574.0424 301.3614 476.0551 548.5542 30539.4885 -99.4532 -28.3302
ENERGY: 1500000 2.9905 6.5856 13.9122 0.0000 -10728.1754 1398.6759 0.0000 0.0000 1723.9100 -7582.1012 296.1294 -9306.0113 -7578.4148 300.6910 -266.4393 -188.6709 30103.6196 -88.6355 -18.0680
TCL: Running FEP window  17: Lambda1 0.8000000000000002 Lambda2 0.8500000000000002 [dLambda 0.050000000000000044]
TCL: Setting parameter firsttimestep to 0
TCL: Setting parameter alchLambda to 0.8000000000000002
Info: NONBONDED TABLE R-SQUARED SPACING: 0.0625
Info: NONBONDED TABLE SIZE: 705 POINTS
TCL: Setting parameter alchLambda2 to 0.8500000000000002
Info: NONBONDED TABLE R-SQUARED SPACING: 0.0625
Info: NONBONDED TABLE SIZE: 705 POINTS
TCL: Running for 1500000 steps
ETITLE: TS BOND ANGLE DIHED IMPRP ELECT VDW BOUNDARY MISC KINETIC TOTAL TEMP POTENTIAL TOTALAVG TEMPAVG PRESSURE GPRESSURE VOLUME PRESSAVG GPRESSAVG
ENERGY: 0 2.9905 6.5856 13.9122 0.0000 -10731.6709 1400.6750 0.0000 0.0000 1723.0327 -7584.4750 295.9787 -9307.5077 -7584.4750 295.9787 -247.5519 -163.0047 30103.6196 -247.5519 -163.0047
ENERGY: 300000 2.8367 7.9980 14.6561 0.0000 -10755.0608 1394.2208 0.0000 0.0000 1785.9287 -7549.4205 306.7828 -9335.3492 -7601.5175 301.6164 -361.9472 -314.4890 30082.7835 170.8761 189.2076
ENERGY: 600000 3.7664 2.0133 13.3821 0.0000 -10809.5421 1476.3130 0.0000 0.0000 1768.2805 -7545.7867 303.7512 -9314.0672 -7595.8371 301.0764 447.7256 556.5219 30034.2349 137.1602 177.3775
ENERGY: 900000 1.4805 4.5428 13.8270 0.0000 -10693.8969 1376.7689 0.0000 0.0000 1763.5209 -7533.7568 302.9336 -9297.2777 -7594.6827 300.3322 -372.6473 -315.1651 29921.0875 97.9600 143.6468
ENERGY: 1200000 3.3920 2.2933 16.0678 0.0000 -10676.3507 1348.6327 0.0000 0.0000 1747.3541 -7558.6108 300.1565 -9305.9649 -7595.0310 299.9323 -536.3843 -547.4358 30328.3005 27.4300 67.5659
ENERGY: 1500000 4.4367 6.7419 14.9177 0.0000 -10891.7065 1445.6157 0.0000 0.0000 1747.1668 -7672.8277 300.1244 -9419.9945 -7586.0881 300.3064 -252.5861 -250.2465 30145.5557 56.0211 100.3821
TCL: Running FEP window  18: Lambda1 0.8500000000000002 Lambda2 0.9000000000000002 [dLambda 0.050000000000000044]
TCL: Setting parameter firsttimestep to 0
TCL: Setting parameter alchLambda to 0.8500000000000002
Info: NONBONDED TABLE R-SQUARED SPACING: 0.0625
Info: NONBONDED TABLE SIZE: 705 POINTS
TCL: Setting parameter alchLambda2 to 0.9000000000000002
Info: NONBONDED TABLE R-SQUARED SPACING: 0.0625
Info: NONBONDED TABLE SIZE: 705 POINTS
TCL: Running for 1500000 steps
ETITLE: TS BOND ANGLE DIHED IMPRP ELECT VDW BOUNDARY MISC KINETIC TOTAL TEMP POTENTIAL TOTALAVG TEMPAVG PRESSURE GPRESSURE VOLUME PRESSAVG GPRESSAVG
ENERGY: 0 4.4367 6.7419 14.9177 0.0000 -10894.7454 1446.7358 0.0000 0.0000 1746.2757 -7675.6375 299.9713 -9421.9132 -7675.6375 299.9713 -314.6717 -229.8971 30145.5557 -314.6717 -229.8971
ENERGY: 300000 1.9371 2.2417 13.4586 0.0000 -10570.8414 1283.0347 0.0000 0.0000 1761.2520 -7508.9173 302.5439 -9270.1693 -7611.9918 298.9613 -1043.3611 -955.0537 30562.4273 -523.8167 -446.8883
ENERGY: 600000 2.7548 3.8239 13.4119 0.0000 -10649.9691 1356.8495 0.0000 0.0000 1758.1144 -7515.0146 302.0049 -9273.1289 -7591.1472 298.0024 -301.1133 -201.9173 30024.5405 -199.0783 -123.8391
ENERGY: 900000 10.2539 4.0705 14.6985 0.0000 -10742.1863 1446.5108 0.0000 0.0000 1742.2393 -7524.4133 299.2779 -9266.6526 -7588.6998 297.8471 130.0235 191.7462 30360.4430 -114.1738 -38.7614
ENERGY: 1200000 2.6334 5.7504 13.6258 0.0000 -11009.0161 1553.3818 0.0000 0.0000 1765.4881 -7668.1366 303.2716 -9433.6247 -7597.7463 298.6074 703.5696 745.3208 29713.2790 94.3485 154.0732
ENERGY: 1500000 2.1950 1.7920 14.1738 0.0000 -10698.8430 1404.2902 0.0000 0.0000 1783.6211 -7492.7709 306.3864 -9276.3920 -7591.9484 299.6191 -51.8363 -56.6111 30414.2668 59.0059 114.5027
TCL: Running FEP window  19: Lambda1 0.9000000000000002 Lambda2 0.9500000000000003 [dLambda 0.050000000000000044]
TCL: Setting parameter firsttimestep to 0
TCL: Setting parameter alchLambda to 0.9000000000000002
Info: NONBONDED TABLE R-SQUARED SPACING: 0.0625
Info: NONBONDED TABLE SIZE: 705 POINTS
TCL: Setting parameter alchLambda2 to 0.9500000000000003
Info: NONBONDED TABLE R-SQUARED SPACING: 0.0625
Info: NONBONDED TABLE SIZE: 705 POINTS
TCL: Running for 1500000 steps
ETITLE: TS BOND ANGLE DIHED IMPRP ELECT VDW BOUNDARY MISC KINETIC TOTAL TEMP POTENTIAL TOTALAVG TEMPAVG PRESSURE GPRESSURE VOLUME PRESSAVG GPRESSAVG
ENERGY: 0 2.1950 1.7920 14.1738 0.0000 -10702.2873 1405.2153 0.0000 0.0000 1782.7656 -7496.1457 306.2394 -9278.9113 -7496.1457 306.2394 -125.7173 -44.1657 30414.2668 -125.7173 -44.1657
ENERGY: 300000 2.7272 5.2938 14.9935 0.0000 -10749.6479 1377.7100 0.0000 0.0000 1795.0131 -7553.9103 308.3433 -9348.9234 -7569.5141 301.9682 -406.0499 -300.0213 30185.2312 -392.3247 -315.6679
ENERGY: 600000 2.6016 3.3039 15.1095 0.0000 -10725.0883 1410.2596 0.0000 0.0000 1708.1936 -7585.6200 293.4296 -9293.8136 -7570.0708 299.8368 18.5471 32.8341 29854.1738 -371.9214 -311.5365
ENERGY: 900000 1.4190 3.8488 15.0796 0.0000 -10858.5229 1492.9594 0.0000 0.0000 1754.9323 -7590.2838 301.4583 -9345.2161 -7580.8931 300.1660 661.3212 745.4515 29631.5955 -173.7873 -113.2535
ENERGY: 1200000 3.3672 2.4004 16.9566 0.0000 -10913.1484 1442.9737 0.0000 0.0000 1723.5343 -7723.9161 296.0648 -9447.4503 -7590.9433 300.3168 93.5635 189.8727 29605.3905 -158.3491 -93.2427
ENERGY: 1500000 3.4341 2.4588 14.9915 0.0000 -10677.9469 1375.3085 0.0000 0.0000 1782.8679 -7498.8862 306.2570 -9281.7541 -7581.7771 300.7713 -405.1090 -367.2500 30660.6704 -216.8677 -155.3072
TCL: Running FEP window  20: Lambda1 0.9500000000000003 Lambda2 1.0    [dLambda 0.04999999999999971]
TCL: Setting parameter firsttimestep to 0
TCL: Setting parameter alchLambda to 0.9500000000000003
Info: NONBONDED TABLE R-SQUARED SPACING: 0.0625
Info: NONBONDED TABLE SIZE: 705 POINTS
TCL: Setting parameter alchLambda2 to 1.0
Info: NONBONDED TABLE R-SQUARED SPACING: 0.0625
Info: NONBONDED TABLE SIZE: 705 POINTS
TCL: Running for 1500000 steps
ETITLE: TS BOND ANGLE DIHED IMPRP ELECT VDW BOUNDARY MISC KINETIC TOTAL TEMP POTENTIAL TOTALAVG TEMPAVG PRESSURE GPRESSURE VOLUME PRESSAVG GPRESSAVG
ENERGY: 0 3.4341 2.4588 14.9915 0.0000 -10680.7043 1375.5028 0.0000 0.0000 1782.0047 -7502.3124 306.1087 -9284.3171 -7502.3124 306.1087 -447.5396 -355.7776 30660.6704 -447.5396 -355.7776
ENERGY: 300000 3.4633 4.2144 13.3410 0.0000 -10732.1499 1383.7622 0.0000 0.0000 1753.7274 -7573.6416 301.2513 -9327.3691 -7558.5246 301.3161 -242.3256 -179.4603 30139.0508 -255.8241 -201.7066
ENERGY: 600000 4.8217 2.0927 14.7607 0.0000 -10625.2971 1313.2373 0.0000 0.0000 1754.9284 -7535.4563 301.4576 -9290.3847 -7578.4458 299.2549 -888.4070 -834.5622 30449.4657 -438.4362 -384.6616
ENERGY: 900000 1.4175 3.4093 16.7037 0.0000 -10757.7056 1428.1490 0.0000 0.0000 1790.1514 -7517.8748 307.5082 -9308.0262 -7570.9050 301.1276 -45.9693 22.6762 30276.6885 -286.3675 -232.0134
ENERGY: 1200000 2.2743 3.7554 13.4931 0.0000 -10867.5142 1434.4194 0.0000 0.0000 1756.1498 -7657.4221 301.6674 -9413.5719 -7576.1135 301.3226 -270.8246 -197.1551 30312.3880 -331.0373 -275.3491
ENERGY: 1500000 2.4984 4.5266 15.4466 0.0000 -10921.1115 1443.2530 0.0000 0.0000 1803.1324 -7652.2545 309.7380 -9455.3869 -7566.8112 302.6196 -34.8817 -11.7979 29840.4615 -289.7113 -239.9066
TCL: Exiting due to exit command.
