Info: SIMULATION PARAMETERS:
Info: TIMESTEP               1
Info: NUMBER OF STEPS        0
Info: STEPS PER CYCLE        10
Info: PERIODIC CELL BASIS 1  30 0 0
Info: PERIODIC CELL BASIS 2  0 30 0
Info: PERIODIC CELL BASIS 3  0 0 30
Info: PERIODIC CELL CENTER   0 0 0
Info: WRAPPING ALL CLUSTERS AROUND PERIODIC BOUNDARIES ON OUTPUT.
Info: FIRST LDB TIMESTEP     50
Info: LAST LDB TIMESTEP     -1
Info: HOM BACKGROUND SCALING 1
Info: MIN ATOMS PER PATCH    40
Info: EMPTY PATCH LOAD       40 ATOMS
Info: INITIAL TEMPERATURE    298
Info: CENTER OF MASS MOVING INITIALLY? NO
Info: DIELECTRIC             1
Info: EXCLUDE                SCALED ONE-FOUR
Info: 1-4 ELECTROSTATICS SCALED BY 1
Info: MODIFIED 1-4 VDW PARAMETERS WILL BE USED
Info: DCD FILENAME           output.dcd
Info: DCD FREQUENCY          10
Info: DCD FIRST STEP         10
Info: DCD FILE WILL CONTAIN UNIT CELL DATA
Info: NO EXTENDED SYSTEM TRAJECTORY OUTPUT
Info: NO VELOCITY DCD OUTPUT
Info: NO FORCE DCD OUTPUT
Info: OUTPUT FILENAME        output
Info: BINARY OUTPUT FILES WILL BE USED
Info: NO RESTART FILE
Info: SWITCHING ACTIVE
Info: SWITCHING ON           10
Info: SWITCHING OFF          12
Info: PAIRLIST DISTANCE      14
Info: PAIRLIST SHRINK RATE   0.01
Info: PAIRLIST GROW RATE     0.01
Info: PAIRLIST TRIGGER       0.3
Info: PAIRLISTS PER CYCLE    2
Info: PAIRLISTS ENABLED
Info: MARGIN                 0.495
Info: HYDROGEN GROUP CUTOFF  2.5
Info: PATCH DIMENSION        16.995
Info: ENERGY OUTPUT STEPS    10
Info: ENERGY EVALUATION STEPS    10
Info: OUTPUT ENERGY PRECISION 4
Info: CROSSTERM ENERGY INCLUDED IN DIHEDRAL
Info: TIMING OUTPUT STEPS    10
Info: LANGEVIN DYNAMICS ACTIVE
Info: LANGEVIN TEMPERATURE   298
Info: LANGEVIN USING BBK INTEGRATOR
Info: LANGEVIN DAMPING COEFFICIENT IS 1 INVERSE PS
Info: LANGEVIN DYNAMICS NOT APPLIED TO HYDROGENS
Info: LANGEVIN PISTON PRESSURE CONTROL ACTIVE
Info:        TARGET PRESSURE IS 1.01325 BAR
Info:     OSCILLATION PERIOD IS 100 FS
Info:             DECAY TIME IS 50 FS
Info:     PISTON TEMPERATURE IS 298 K
Info:       PRESSURE CONTROL IS GROUP-BASED
Info:    INITIAL STRAIN RATE IS 0 0 0
Info:       CELL FLUCTUATION IS ISOTROPIC
Info: MULTILEVEL SUMMATION METHOD (MSM) FOR ELECTROSTATICS ACTIVE
Info: MSM WITH C1 CUBIC INTERPOLATION AND C2 TAYLOR SPLITTING
Info: FULL ELECTROSTATIC EVALUATION FREQUENCY      1
Info: USING VERLET I (r-RESPA) MTS SCHEME.
Info: C1 SPLITTING OF LONG RANGE ELECTROSTATICS
Info: PLACING ATOMS IN PATCHES BY HYDROGEN GROUPS
Info: RIGID BONDS TO HYDROGEN : ALL
Info:         ERROR TOLERANCE : 1e-08
Info:          MAX ITERATIONS : 100
Info: RIGID WATER USING SETTLE ALGORITHM
Info: RANDOM NUMBER SEED     1740284845
Info: USE HYDROGEN BONDS?    NO
Info: COORDINATE PDB         ionized.pdb
Info: STRUCTURE FILE         ionized.psf
Info: PARAMETER file: CHARMM format!
Info: PARAMETERS             par_all27_prot_lipid.inp
Info: USING ARITHMETIC MEAN TO COMBINE L-J SIGMA PARAMETERS
Info: SUMMARY OF PARAMETERS:
Info: 180 BONDS
Info: 447 ANGLES
Info: 566 DIHEDRAL
Info: 46 IMPROPER
Info: 6 CROSSTERM
Info: 119 VDW
Info: 0 VDW_PAIRS
Info: 0 NBTHOLE_PAIRS
Info: STRUCTURE SUMMARY:
Info: 2476 ATOMS
Info: 1650 BONDS
Info: 825 ANGLES
Info: 0 DIHEDRALS
Info: 0 IMPROPERS
Info: 0 CROSSTERMS
Info: 0 EXCLUSIONS
Info: 2475 RIGID BONDS
Info: 4953 DEGREES OF FREEDOM
Info: 826 HYDROGEN GROUPS
Info: 3 ATOMS IN LARGEST HYDROGEN GROUP
Info: 826 MIGRATION GROUPS
Info: 3 ATOMS IN LARGEST MIGRATION GROUP
Info: TOTAL MASS = 14885.7 amu
Info: TOTAL CHARGE = 1 e
Info: MASS DENSITY = 0.915513 g/cm^3
Info: ATOM DENSITY = 0.0917037 atoms/A^3
Info: ADDED 2475 IMPLICIT EXCLUSIONS
Info: NONBONDED TABLE R-SQUARED SPACING: 0.0625
Info: NONBONDED TABLE SIZE: 769 POINTS
Info: REMOVING COM VELOCITY -0.0627062 0.0767679 0.0127631
Info: MSM using C1 cubic interpolation
Info: MSM using C2 Taylor splitting function
Info: MSM block size decomposition along X is 8 grid points
Info: MSM block size decomposition along Y is 8 grid points
Info: MSM block size decomposition along Z is 8 grid points
Info: MSM grid spacing along X is 2.5 A
Info: MSM grid spacing along Y is 2.5 A
Info: MSM grid spacing along Z is 2.5 A
Info: MSM using 3 levels
Info:     level 0:  [0..11] x [0..11] x [0..11]
Info:     level 1:  [0..5] x [0..5] x [0..5]
Info:     level 2:  [0..2] x [0..2] x [0..2]
Info: MSM finished calculating stencils
Info: MSM finished creating map for grid levels
Info: MSM finished creating map for patches
Info: MSM has 9 interpolation / anterpolation objects (one per patch)
Info: MSM grid level 0 decomposed into 8 blocks ( 2 x 2 x 2 )
Info: MSM grid level 1 decomposed into 1 block ( 1 x 1 x 1 )
Info: MSM grid level 2 decomposed into 1 block ( 1 x 1 x 1 )
Info: MSM grid cutoff calculation decomposed into 783 work objects
TCL: Minimizing for 1000 steps
ETITLE: TS BOND ANGLE DIHED IMPRP ELECT VDW BOUNDARY MISC KINETIC TOTAL TEMP POTENTIAL TOTAL3 TEMPAVG PRESSURE GPRESSURE VOLUME PRESSAVG GPRESSAVG
ENERGY: 0 0.0000 0.0000 0.0000 0.0000 -7348.6498 6353.7252 0.0000 0.0000 0.0000 -994.9246 0.0000 -994.9246 -994.9246 0.0000 75204.0846 46356.0499 27000.0000 75204.0846 46356.0499
ENERGY: 200 0.0000 0.0000 0.0000 0.0000 -10376.4812 1013.2473 0.0000 0.0000 0.0000 -9363.2339 0.0000 -9363.2339 -9363.2339 0.0000 17774.8617 17713.0125 27000.0000 17774.8617 17713.0125
ENERGY: 400 0.0000 0.0000 0.0000 0.0000 -10906.6909 1243.0576 0.0000 0.0000 0.0000 -9663.6333 0.0000 -9663.6333 -9663.6333 0.0000 20349.0224 20261.4082 27000.0000 20349.0224 20261.4082
ENERGY: 600 0.0000 0.0000 0.0000 0.0000 -11072.7543 1290.7125 0.0000 0.0000 0.0000 -9782.0418 0.0000 -9782.0418 -9782.0418 0.0000 20903.6209 20822.3505 27000.0000 20903.6209 20822.3505
ENERGY: 800 0.0000 0.0000 0.0000 0.0000 -11173.9340 1313.9173 0.0000 0.0000 0.0000 -9860.0167 0.0000 -9860.0167 -9860.0167 0.0000 21157.3690 21098.0163 27000.0000 21157.3690 21098.0163
ENERGY: 1000 0.0000 0.0000 0.0000 0.0000 -11241.5679 1331.2918 0.0000 0.0000 0.0000 -9910.2761 0.0000 -9910.2761 -9910.2761 0.0000 21348.4453 21288.4063 27000.0000 21348.4453 21288.4063
TCL: Running for 2000 steps
ETITLE: TS BOND ANGLE DIHED IMPRP ELECT VDW BOUNDARY MISC KINETIC TOTAL TEMP POTENTIAL TOTAL3 TEMPAVG PRESSURE GPRESSURE VOLUME PRESSAVG GPRESSAVG
ENERGY: 1000 0.0000 0.0000 0.0000 0.0000 -11241.5678 1331.2918 0.0000 0.0000 1462.8387 -8447.4373 297.2477 -9910.2760 -8447.6572 297.2477 -2591.8595 -2591.8595 27000.0000 -2591.8595 -2591.8595
ENERGY: 1400 0.0000 0.0000 0.0000 0.0000 -10335.5219 1235.6928 0.0000 0.0000 859.5166 -8240.3124 174.6531 -9099.8290 -8239.8057 174.5872 -607.7336 -603.8862 25639.8957 -172.3144 -174.9794
ENERGY: 1800 0.0000 0.0000 0.0000 0.0000 -10269.3327 1260.2026 0.0000 0.0000 939.3938 -8069.7363 190.8841 -9009.1301 -8069.8327 193.6527 527.0482 507.5604 24677.0207 726.3833 726.5655
ENERGY: 2200 0.0000 0.0000 0.0000 0.0000 -10187.6400 1233.8862 0.0000 0.0000 1035.4787 -7918.2752 210.4085 -8953.7538 -7917.2891 211.1127 809.7222 819.5285 24028.7481 635.2964 636.4725
ENERGY: 2600 0.0000 0.0000 0.0000 0.0000 -10032.1409 1157.4199 0.0000 0.0000 1079.8024 -7794.9186 219.4150 -8874.7210 -7794.4356 218.2739 545.4239 547.9540 23915.7381 385.8634 385.3903
ENERGY: 3000 0.0000 0.0000 0.0000 0.0000 -9994.1935 1165.6792 0.0000 0.0000 1186.7301 -7641.7842 241.1426 -8828.5143 -7640.5385 238.7555 1106.2561 1102.0812 23561.9834 601.0902 600.1260
