Info: SIMULATION PARAMETERS:
Info: TIMESTEP               2
Info: NUMBER OF STEPS        0
Info: STEPS PER CYCLE        10
Info: PERIODIC CELL BASIS 1  32.3883 0 0
Info: PERIODIC CELL BASIS 2  0 31.343 0
Info: PERIODIC CELL BASIS 3  0 0 30.2967
Info: PERIODIC CELL CENTER   0 0 0
Info: WRAPPING WATERS AROUND PERIODIC BOUNDARIES ON OUTPUT.
Info: WRAPPING ALL CLUSTERS AROUND PERIODIC BOUNDARIES ON OUTPUT.
Info: FIRST LDB TIMESTEP     50
Info: LAST LDB TIMESTEP     -1
Info: HOM BACKGROUND SCALING 1
Info: PME BACKGROUND SCALING 1
Info: MIN ATOMS PER PATCH    40
Info: EMPTY PATCH LOAD       40 ATOMS
Info: VELOCITY FILE          mobley_3727287_equil.vel
Info: CENTER OF MASS MOVING INITIALLY? NO
Info: DIELECTRIC             1
Info: EXCLUDE                SCALED ONE-FOUR
Info: 1-4 ELECTROSTATICS SCALED BY 0.833333
Info: MODIFIED 1-4 VDW PARAMETERS WILL BE USED
Info: DCD FILENAME           mobley_3727287_prod.dcd
Info: DCD FREQUENCY          100000
Info: DCD FIRST STEP         100000
Info: DCD FILE WILL CONTAIN UNIT CELL DATA
Info: XST FILENAME           mobley_3727287_prod.xst
Info: XST FREQUENCY          100000
Info: NO VELOCITY DCD OUTPUT
Info: NO FORCE DCD OUTPUT
Info: OUTPUT FILENAME        mobley_3727287_prod
Info: BINARY OUTPUT FILES WILL BE USED
Info: RESTART FILENAME       mobley_3727287_prod.restart
Info: RESTART FREQUENCY      100000
Info: BINARY RESTART FILES WILL BE USED
Info: CUTOFF                 9
Info: PAIRLIST DISTANCE      11
Info: PAIRLIST SHRINK RATE   0.01
Info: PAIRLIST GROW RATE     0.01
Info: PAIRLIST TRIGGER       0.3
Info: PAIRLISTS PER CYCLE    2
Info: PAIRLISTS ENABLED
Info: MARGIN                 2
Info: HYDROGEN GROUP CUTOFF  2.5
Info: PATCH DIMENSION        15.5
Info: ENERGY OUTPUT STEPS    100000
Info: ENERGY EVALUATION STEPS    100000
Info: OUTPUT ENERGY PRECISION 4
Info: CROSSTERM ENERGY INCLUDED IN DIHEDRAL
Info: TIMING OUTPUT STEPS    1000000
Info: PRESSURE OUTPUT STEPS  100000
Info: ALCHEMICAL FEP ON
Info: FEP CURRENT LAMBDA VALUE     1
Info: FEP COMPARISON LAMBDA VALUE  0.95
Info: FEP INTRA-ALCHEMICAL NON-BONDED INTERACTIONS WILL BE RETAINED
Info: FEP INTRA-ALCHEMICAL BONDED INTERACTIONS WILL BE RETAINED
Info: FEP VDW SHIFTING COEFFICIENT 5
Info: FEP ELEC. ACTIVE FOR ANNIHILATED PARTICLES BETWEEN LAMBDA = 0 AND LAMBDA = 0.5
Info: FEP ELEC. ACTIVE FOR EXNIHILATED PARTICLES BETWEEN LAMBDA = 0.5 AND LAMBDA = 1
Info: FEP VDW ACTIVE FOR ANNIHILATED PARTICLES BETWEEN LAMBDA = 0 AND LAMBDA = 1
Info: FEP VDW ACTIVE FOR EXNIHILATED PARTICLES BETWEEN LAMBDA = 0 AND LAMBDA = 1
Info: FEP BOND ACTIVE FOR ANNIHILATED PARTICLES BETWEEN LAMBDA = 1 AND LAMBDA = 1
Info: FEP BOND ACTIVE FOR EXNIHILATED PARTICLES BETWEEN LAMBDA = 0 AND LAMBDA = 0
Info: LANGEVIN DYNAMICS ACTIVE
Info: LANGEVIN TEMPERATURE   300
Info: LANGEVIN USING BBK INTEGRATOR
Info: LANGEVIN DAMPING COEFFICIENT IS 1 INVERSE PS
Info: LANGEVIN DYNAMICS APPLIED TO HYDROGENS
Info: LANGEVIN PISTON PRESSURE CONTROL ACTIVE
Info:        TARGET PRESSURE IS 1.01325 BAR
Info:     OSCILLATION PERIOD IS 50 FS
Info:             DECAY TIME IS 25 FS
Info:     PISTON TEMPERATURE IS 300 K
Info:       PRESSURE CONTROL IS GROUP-BASED
Info:    INITIAL STRAIN RATE IS 0.000110039 0.000110039 0.000110039
Info:       CELL FLUCTUATION IS ISOTROPIC
Info: PARTICLE MESH EWALD (PME) ACTIVE
Info: PME TOLERANCE               1e-06
Info: PME EWALD COEFFICIENT       0.348832
Info: PME INTERPOLATION ORDER     4
Info: PME GRID DIMENSIONS         36 32 32
Info: PME MAXIMUM GRID SPACING    1
Info: PME CALCULATION WILL BE PERFORMED ON GPU
Info: FULL ELECTROSTATIC EVALUATION FREQUENCY      2
Info: USING VERLET I (r-RESPA) MTS SCHEME.
Info: C1 SPLITTING OF LONG RANGE ELECTROSTATICS
Info: PLACING ATOMS IN PATCHES BY HYDROGEN GROUPS
Info: RIGID BONDS TO HYDROGEN : ALL
Info:         ERROR TOLERANCE : 1e-08
Info:          MAX ITERATIONS : 100
Info: RIGID WATER USING SETTLE ALGORITHM
Info: RANDOM NUMBER SEED     1742179901
Info: USE HYDROGEN BONDS?    NO
Info: Using AMBER format force field!
Info: AMBER PARM FILE        mobley_3727287.prmtop
Info: COORDINATE PDB         mobley_3727287.pdb
Info: Exclusions will be read from PARM file!
Info: SCNB (VDW SCALING)     2
Info: USING ARITHMETIC MEAN TO COMBINE L-J SIGMA PARAMETERS
Info: BINARY COORDINATES     mobley_3727287_equil.coor
Info: SUMMARY OF PARAMETERS:
Info: 8 BONDS
Info: 9 ANGLES
Info:   9 HARMONIC
Info:   0 COSINE-BASED
Info: 3 DIHEDRAL
Info: 0 IMPROPER
Info: 0 CROSSTERM
Info: 0 VDW
Info: 15 VDW_PAIRS
Info: 0 NBTHOLE_PAIRS
Info: To read alchdata from file: mobley_3727287.pdb
Info: To read alchflag data from column: 5
Info: STRUCTURE SUMMARY:
Info: 2961 ATOMS
Info: 2961 BONDS
Info: 18 ANGLES
Info: 26 DIHEDRALS
Info: 0 IMPROPERS
Info: 0 CROSSTERMS
Info: 3000 EXCLUSIONS
Info: 2953 RIGID BONDS
Info: ALCH: 0 ATOMS TO DISAPPEAR IN FINAL STATE
Info: ALCH: 12 ATOMS TO APPEAR IN FINAL STATE
Info: 5930 DEGREES OF FREEDOM
Info: 991 HYDROGEN GROUPS
Info: 3 ATOMS IN LARGEST HYDROGEN GROUP
Info: 991 MIGRATION GROUPS
Info: 3 ATOMS IN LARGEST MIGRATION GROUP
Info: TOTAL MASS = 17817.8 amu
Info: TOTAL CHARGE = 0 e
Info: MASS DENSITY = 0.962033 g/cm^3
Info: ATOM DENSITY = 0.0962752 atoms/A^3
Info: ADDED 0 IMPLICIT EXCLUSIONS
Info: NONBONDED TABLE R-SQUARED SPACING: 0.0625
Info: NONBONDED TABLE SIZE: 705 POINTS
Info: REMOVING COM VELOCITY -0.000880033 0.0319139 -0.0966392
Info: Use 3D box decompostion in PME FFT.
Info: Updated CUDA force table with 4096 elements.
Info: Updated CUDA LJ table with 5 x 5 elements.
Info: Found 15 unique exclusion lists needing 28 bytes
TCL: Running for 1500000 steps
ETITLE: TS BOND ANGLE DIHED IMPRP ELECT VDW BOUNDARY MISC KINETIC TOTAL TEMP POTENTIAL TOTALAVG TEMPAVG PRESSURE GPRESSURE VOLUME PRESSAVG GPRESSAVG
ENERGY: 0 2.4926 4.3743 2.3527 0.0000 -10609.4971 1432.2957 0.0000 0.0000 1814.4078 -7353.5740 307.9432 -9167.9817 -7353.5740 307.9432 300.8286 385.9464 30755.5728 300.8286 385.9464
ENERGY: 300000 5.0928 3.3494 1.4477 0.0000 -10791.2521 1416.5713 0.0000 0.0000 1708.6168 -7656.1741 289.9882 -9364.7909 -7516.9943 300.4193 -194.9364 -96.5566 30034.8736 -261.0760 -198.4036
ENERGY: 600000 1.7944 6.1431 1.4027 0.0000 -10735.9746 1392.2057 0.0000 0.0000 1799.8764 -7534.5522 305.4769 -9334.4287 -7509.8537 300.6385 -623.2653 -529.0555 30686.0408 -388.4723 -316.3029
ENERGY: 900000 2.6448 3.6889 3.9009 0.0000 -10791.0890 1442.5147 0.0000 0.0000 1731.4942 -7606.8455 293.8710 -9338.3397 -7534.0117 299.7795 19.0026 55.9657 30407.2945 -370.5331 -299.4433
ENERGY: 1200000 1.8031 4.5532 6.0000 0.0000 -10739.7230 1326.7606 0.0000 0.0000 1756.1268 -7644.4794 298.0517 -9400.6062 -7543.6056 299.4826 -1375.7077 -1330.4442 30587.2438 -473.6091 -405.9805
ENERGY: 1500000 1.9725 5.6570 3.6626 0.0000 -10760.2658 1465.3704 0.0000 0.0000 1792.2510 -7491.3522 304.1827 -9283.6032 -7535.1819 300.4004 68.5290 193.0974 30647.4443 -354.7247 -283.6802
TCL: Running FEP window   2: Lambda1 0.95   Lambda2 0.8999999999999999 [dLambda -0.050000000000000044]
TCL: Setting parameter firsttimestep to 0
TCL: Setting parameter alchLambda to 0.95
Info: NONBONDED TABLE R-SQUARED SPACING: 0.0625
Info: NONBONDED TABLE SIZE: 705 POINTS
TCL: Setting parameter alchLambda2 to 0.8999999999999999
Info: NONBONDED TABLE R-SQUARED SPACING: 0.0625
Info: NONBONDED TABLE SIZE: 705 POINTS
TCL: Running for 1500000 steps
ETITLE: TS BOND ANGLE DIHED IMPRP ELECT VDW BOUNDARY MISC KINETIC TOTAL TEMP POTENTIAL TOTALAVG TEMPAVG PRESSURE GPRESSURE VOLUME PRESSAVG GPRESSAVG
ENERGY: 0 1.9725 5.6570 3.6626 0.0000 -10757.7974 1464.4189 0.0000 0.0000 1791.3686 -7490.7179 304.0329 -9282.0864 -7490.7179 304.0329 105.8578 174.3621 30647.4443 105.8578 174.3621
ENERGY: 300000 0.5770 1.2429 0.3807 0.0000 -10709.5329 1421.4282 0.0000 0.0000 1757.9648 -7527.9393 298.3636 -9285.9041 -7545.1546 300.4834 -429.0790 -306.7804 30878.2115 -165.4375 -105.8066
ENERGY: 600000 3.9766 4.0461 2.2344 0.0000 -10816.9744 1481.4608 0.0000 0.0000 1786.9854 -7538.2712 303.2890 -9325.2565 -7531.3979 300.8428 512.6065 490.0259 30251.3231 -125.8254 -83.4943
ENERGY: 900000 2.6649 1.0341 2.4133 0.0000 -10670.7632 1467.0428 0.0000 0.0000 1764.6642 -7432.9439 299.5006 -9197.6081 -7519.5832 300.7637 342.4662 445.5081 30456.6335 -125.8897 -74.3996
ENERGY: 1200000 4.5209 4.1144 1.5730 0.0000 -10736.7662 1407.9066 0.0000 0.0000 1746.4400 -7572.2114 296.4076 -9318.6514 -7532.2445 299.4336 -258.7735 -145.9775 30351.3522 -15.4685 28.3596
ENERGY: 1500000 1.2650 3.6299 3.0905 0.0000 -10770.9410 1442.7281 0.0000 0.0000 1750.2512 -7569.9763 297.0545 -9320.2275 -7532.4229 298.9103 7.6354 76.2192 30301.0334 -85.3052 -44.0180
TCL: Running FEP window   3: Lambda1 0.8999999999999999 Lambda2 0.8499999999999999 [dLambda -0.050000000000000044]
TCL: Setting parameter firsttimestep to 0
TCL: Setting parameter alchLambda to 0.8999999999999999
Info: NONBONDED TABLE R-SQUARED SPACING: 0.0625
Info: NONBONDED TABLE SIZE: 705 POINTS
TCL: Setting parameter alchLambda2 to 0.8499999999999999
Info: NONBONDED TABLE R-SQUARED SPACING: 0.0625
Info: NONBONDED TABLE SIZE: 705 POINTS
TCL: Running for 1500000 steps
ETITLE: TS BOND ANGLE DIHED IMPRP ELECT VDW BOUNDARY MISC KINETIC TOTAL TEMP POTENTIAL TOTALAVG TEMPAVG PRESSURE GPRESSURE VOLUME PRESSAVG GPRESSAVG
ENERGY: 0 1.2650 3.6299 3.0905 0.0000 -10769.0165 1442.9936 0.0000 0.0000 1749.3655 -7568.6719 296.9041 -9318.0375 -7568.6719 296.9041 -13.1474 73.4057 30301.0334 -13.1474 73.4057
ENERGY: 300000 2.6202 1.9923 1.2764 0.0000 -10635.0220 1353.2986 0.0000 0.0000 1800.3289 -7475.5057 305.5537 -9275.8347 -7516.8856 300.4816 -627.3336 -555.3954 30704.0733 124.3186 183.8685
ENERGY: 600000 3.2832 2.9359 3.4315 0.0000 -10619.4234 1374.0203 0.0000 0.0000 1778.6377 -7457.1148 301.8723 -9235.7525 -7517.4464 299.3547 -530.7904 -463.1497 30802.5024 31.8561 93.5566
ENERGY: 900000 2.3270 3.6720 1.6418 0.0000 -10747.4083 1430.4256 0.0000 0.0000 1753.5887 -7555.7531 297.6209 -9309.3418 -7524.5561 300.2421 -380.5743 -299.5117 30769.6436 36.8490 97.6516
ENERGY: 1200000 4.2284 3.4435 1.4685 0.0000 -10737.6191 1444.0672 0.0000 0.0000 1809.8008 -7474.6108 307.1613 -9284.4116 -7523.7956 300.6446 -157.6842 -134.6209 30909.6629 -47.4214 2.8714
ENERGY: 1500000 1.4843 2.5209 2.8371 0.0000 -10966.7542 1626.8332 0.0000 0.0000 1753.6745 -7579.4043 297.6355 -9333.0788 -7529.3007 300.9845 1259.6787 1335.4940 30354.4176 34.5432 84.0422
TCL: Running FEP window   4: Lambda1 0.8499999999999999 Lambda2 0.7999999999999998 [dLambda -0.050000000000000044]
TCL: Setting parameter firsttimestep to 0
TCL: Setting parameter alchLambda to 0.8499999999999999
Info: NONBONDED TABLE R-SQUARED SPACING: 0.0625
Info: NONBONDED TABLE SIZE: 705 POINTS
TCL: Setting parameter alchLambda2 to 0.7999999999999998
Info: NONBONDED TABLE R-SQUARED SPACING: 0.0625
Info: NONBONDED TABLE SIZE: 705 POINTS
TCL: Running for 1500000 steps
ETITLE: TS BOND ANGLE DIHED IMPRP ELECT VDW BOUNDARY MISC KINETIC TOTAL TEMP POTENTIAL TOTALAVG TEMPAVG PRESSURE GPRESSURE VOLUME PRESSAVG GPRESSAVG
ENERGY: 0 1.4843 2.5209 2.8371 0.0000 -10964.7358 1626.5706 0.0000 0.0000 1752.7569 -7578.5660 297.4797 -9331.3229 -7578.5660 297.4797 1231.8755 1326.9713 30354.4176 1231.8755 1326.9713
ENERGY: 300000 2.6433 7.1626 2.4264 0.0000 -10786.0622 1513.5987 0.0000 0.0000 1803.8967 -7456.3345 306.1592 -9260.2311 -7529.9885 302.8502 718.2205 781.5237 30344.5898 664.6560 735.4922
ENERGY: 600000 2.7364 5.9818 0.8034 0.0000 -10691.3800 1354.5687 0.0000 0.0000 1783.0178 -7544.2719 302.6156 -9327.2897 -7536.7375 302.7683 -702.9674 -689.3635 30599.8640 258.2234 323.6635
ENERGY: 900000 0.9752 2.7159 3.2370 0.0000 -10788.9955 1447.3869 0.0000 0.0000 1773.4564 -7561.2240 300.9929 -9334.6804 -7531.7780 302.7658 2.9897 54.7094 30354.9909 210.2654 273.5973
ENERGY: 1200000 5.6827 6.9821 0.6070 0.0000 -10686.2605 1402.1980 0.0000 0.0000 1764.9527 -7505.8379 299.5496 -9270.7907 -7534.7079 301.5277 -521.0808 -481.1027 30543.4553 134.2707 199.5677
ENERGY: 1500000 3.3372 3.5193 1.6649 0.0000 -10635.0820 1360.3718 0.0000 0.0000 1720.3509 -7545.8379 291.9798 -9266.1888 -7533.4898 300.4610 -454.9186 -360.9032 30104.1593 80.9199 151.3044
TCL: Running FEP window   5: Lambda1 0.7999999999999998 Lambda2 0.7499999999999998 [dLambda -0.050000000000000044]
TCL: Setting parameter firsttimestep to 0
TCL: Setting parameter alchLambda to 0.7999999999999998
Info: NONBONDED TABLE R-SQUARED SPACING: 0.0625
Info: NONBONDED TABLE SIZE: 705 POINTS
TCL: Setting parameter alchLambda2 to 0.7499999999999998
Info: NONBONDED TABLE R-SQUARED SPACING: 0.0625
Info: NONBONDED TABLE SIZE: 705 POINTS
TCL: Running for 1500000 steps
ETITLE: TS BOND ANGLE DIHED IMPRP ELECT VDW BOUNDARY MISC KINETIC TOTAL TEMP POTENTIAL TOTALAVG TEMPAVG PRESSURE GPRESSURE VOLUME PRESSAVG GPRESSAVG
ENERGY: 0 3.3372 3.5193 1.6649 0.0000 -10633.1856 1360.0888 0.0000 0.0000 1719.4778 -7545.0977 291.8316 -9264.5754 -7545.0977 291.8316 -459.1208 -371.9881 30104.1593 -459.1208 -371.9881
ENERGY: 300000 4.4394 3.4668 1.8139 0.0000 -10552.5309 1293.5640 0.0000 0.0000 1814.8602 -7434.3867 308.0200 -9249.2469 -7494.9926 302.1162 -1315.8022 -1274.3225 31135.5038 -276.2386 -191.5801
ENERGY: 600000 3.0490 2.6701 2.8734 0.0000 -10740.5499 1482.6363 0.0000 0.0000 1753.0664 -7496.2546 297.5322 -9249.3210 -7524.5546 299.0880 281.5091 358.8852 30498.2121 -184.7553 -103.2279
ENERGY: 900000 2.4593 4.5492 4.0067 0.0000 -10697.8048 1438.1965 0.0000 0.0000 1728.8571 -7519.7359 293.4234 -9248.5931 -7510.4508 299.9202 18.3420 89.4731 30686.2269 -180.6010 -113.2742
ENERGY: 1200000 2.0863 3.9792 1.4992 0.0000 -10924.6119 1485.2231 0.0000 0.0000 1781.1034 -7650.7207 302.2907 -9431.8241 -7531.7073 300.1899 54.1342 101.4833 30097.0447 -177.5780 -113.4361
ENERGY: 1500000 2.1518 3.3633 3.6504 0.0000 -10699.0501 1418.1910 0.0000 0.0000 1786.6863 -7485.0073 303.2383 -9271.6936 -7531.2046 299.6812 -289.2233 -229.4576 30626.6330 -194.3521 -132.0019
TCL: Running FEP window   6: Lambda1 0.7499999999999998 Lambda2 0.6999999999999997 [dLambda -0.050000000000000044]
TCL: Setting parameter firsttimestep to 0
TCL: Setting parameter alchLambda to 0.7499999999999998
Info: NONBONDED TABLE R-SQUARED SPACING: 0.0625
Info: NONBONDED TABLE SIZE: 705 POINTS
TCL: Setting parameter alchLambda2 to 0.6999999999999997
Info: NONBONDED TABLE R-SQUARED SPACING: 0.0625
Info: NONBONDED TABLE SIZE: 705 POINTS
TCL: Running for 1500000 steps
ETITLE: TS BOND ANGLE DIHED IMPRP ELECT VDW BOUNDARY MISC KINETIC TOTAL TEMP POTENTIAL TOTALAVG TEMPAVG PRESSURE GPRESSURE VOLUME PRESSAVG GPRESSAVG
ENERGY: 0 2.1518 3.3633 3.6504 0.0000 -10697.7392 1418.2822 0.0000 0.0000 1785.7837 -7484.5078 303.0851 -9270.2915 -7484.5078 303.0851 -316.0617 -232.1269 30626.6330 -316.0617 -232.1269
ENERGY: 300000 3.5564 3.4316 2.9467 0.0000 -10820.0875 1450.3998 0.0000 0.0000 1756.5649 -7603.1881 298.1260 -9359.7530 -7531.0001 299.6124 -34.3220 -2.3715 30323.9003 -92.7549 -35.1015
ENERGY: 600000 3.7589 4.9957 3.5979 0.0000 -10746.6198 1506.2958 0.0000 0.0000 1786.0091 -7441.9625 303.1233 -9227.9716 -7516.1896 301.5915 705.0896 770.3524 30759.4164 180.2722 243.8940
ENERGY: 900000 2.7253 3.4107 3.2661 0.0000 -10733.6682 1427.2978 0.0000 0.0000 1757.9215 -7539.0467 298.3563 -9296.9683 -7518.6836 301.6987 -176.0954 -79.0417 30667.3081 139.0266 208.1163
ENERGY: 1200000 1.2797 3.1491 1.0524 0.0000 -10557.4537 1420.5549 0.0000 0.0000 1787.7169 -7343.7006 303.4132 -9131.4175 -7508.0889 301.4793 69.3541 125.2105 30948.9945 177.2027 243.3895
ENERGY: 1500000 2.7959 3.6545 0.8006 0.0000 -10655.9966 1418.5970 0.0000 0.0000 1836.1163 -7394.0323 311.6276 -9230.1487 -7496.2171 302.1055 79.7938 82.3233 30319.0559 120.5984 177.5835
TCL: Running FEP window   7: Lambda1 0.6999999999999997 Lambda2 0.6499999999999997 [dLambda -0.050000000000000044]
TCL: Setting parameter firsttimestep to 0
TCL: Setting parameter alchLambda to 0.6999999999999997
Info: NONBONDED TABLE R-SQUARED SPACING: 0.0625
Info: NONBONDED TABLE SIZE: 705 POINTS
TCL: Setting parameter alchLambda2 to 0.6499999999999997
Info: NONBONDED TABLE R-SQUARED SPACING: 0.0625
Info: NONBONDED TABLE SIZE: 705 POINTS
TCL: Running for 1500000 steps
ETITLE: TS BOND ANGLE DIHED IMPRP ELECT VDW BOUNDARY MISC KINETIC TOTAL TEMP POTENTIAL TOTALAVG TEMPAVG PRESSURE GPRESSURE VOLUME PRESSAVG GPRESSAVG
ENERGY: 0 2.7959 3.6545 0.8006 0.0000 -10654.0546 1418.2286 0.0000 0.0000 1835.2623 -7393.3127 311.4826 -9228.5750 -7393.3127 311.4826 9.3514 77.0239 30319.0559 9.3514 77.0239
ENERGY: 300000 2.4544 3.0047 1.5288 0.0000 -10599.8672 1362.9247 0.0000 0.0000 1785.7533 -7444.2013 303.0799 -9229.9546 -7443.9695 304.6867 -431.2853 -304.8992 30616.1932 -149.5836 -51.0200
ENERGY: 600000 2.8267 2.3734 3.7008 0.0000 -10638.3241 1405.1465 0.0000 0.0000 1806.7791 -7417.4976 306.6484 -9224.2767 -7472.3428 302.2309 52.3527 80.0012 30451.9151 -60.3551 26.0242
ENERGY: 900000 0.9040 3.7201 2.6932 0.0000 -10861.1922 1499.8348 0.0000 0.0000 1799.0107 -7555.0293 305.3300 -9354.0400 -7503.8579 301.3623 446.4493 522.2524 30212.5953 12.4889 86.4642
ENERGY: 1200000 2.0686 5.2710 0.9951 0.0000 -10846.5618 1522.5030 0.0000 0.0000 1793.4891 -7522.2350 304.3928 -9315.7241 -7517.1016 301.7135 648.6308 723.5768 30324.2964 4.7719 71.5021
ENERGY: 1500000 3.5862 4.0945 3.0561 0.0000 -10605.6027 1339.3553 0.0000 0.0000 1768.6360 -7486.8746 300.1747 -9255.5106 -7520.5865 300.7334 -704.9993 -639.9646 30282.8483 -106.2511 -36.7735
TCL: Running FEP window   8: Lambda1 0.6499999999999997 Lambda2 0.5999999999999996 [dLambda -0.050000000000000044]
TCL: Setting parameter firsttimestep to 0
TCL: Setting parameter alchLambda to 0.6499999999999997
Info: NONBONDED TABLE R-SQUARED SPACING: 0.0625
Info: NONBONDED TABLE SIZE: 705 POINTS
TCL: Setting parameter alchLambda2 to 0.5999999999999996
Info: NONBONDED TABLE R-SQUARED SPACING: 0.0625
Info: NONBONDED TABLE SIZE: 705 POINTS
TCL: Running for 1500000 steps
ETITLE: TS BOND ANGLE DIHED IMPRP ELECT VDW BOUNDARY MISC KINETIC TOTAL TEMP POTENTIAL TOTALAVG TEMPAVG PRESSURE GPRESSURE VOLUME PRESSAVG GPRESSAVG
ENERGY: 0 3.5862 4.0945 3.0561 0.0000 -10603.9637 1338.8680 0.0000 0.0000 1767.7679 -7486.5909 300.0274 -9254.3589 -7486.5909 300.0274 -719.6169 -653.8118 30282.8483 -719.6169 -653.8118
ENERGY: 300000 3.5941 2.0313 2.3041 0.0000 -10733.5147 1498.6489 0.0000 0.0000 1660.0862 -7566.8502 281.7516 -9226.9364 -7559.4773 295.7910 485.6896 563.6530 30731.3177 23.4441 102.3610
ENERGY: 600000 4.1565 2.9494 2.9845 0.0000 -10825.2939 1467.0460 0.0000 0.0000 1779.0050 -7569.1524 301.9346 -9348.1574 -7555.2769 296.3552 213.8441 234.4260 30180.6101 -36.5043 30.8830
ENERGY: 900000 3.0570 2.5298 2.5239 0.0000 -10659.8900 1439.5238 0.0000 0.0000 1781.8335 -7430.4220 302.4146 -9212.2556 -7537.9535 297.4527 15.5824 118.1001 30864.5180 -143.6050 -64.8684
ENERGY: 1200000 4.0545 2.3273 2.0945 0.0000 -10733.4837 1461.3406 0.0000 0.0000 1768.9629 -7494.7039 300.2302 -9263.6668 -7535.0514 297.7972 167.8768 212.2914 30487.3206 -34.5407 39.1292
ENERGY: 1500000 1.4298 2.9975 3.2939 0.0000 -10770.0329 1492.2972 0.0000 0.0000 1723.1434 -7546.8711 292.4537 -9270.0145 -7523.1187 298.3768 753.2270 773.1262 30025.5277 26.0625 89.1747
TCL: Running FEP window   9: Lambda1 0.5999999999999996 Lambda2 0.5499999999999996 [dLambda -0.050000000000000044]
TCL: Setting parameter firsttimestep to 0
TCL: Setting parameter alchLambda to 0.5999999999999996
Info: NONBONDED TABLE R-SQUARED SPACING: 0.0625
Info: NONBONDED TABLE SIZE: 705 POINTS
TCL: Setting parameter alchLambda2 to 0.5499999999999996
Info: NONBONDED TABLE R-SQUARED SPACING: 0.0625
Info: NONBONDED TABLE SIZE: 705 POINTS
TCL: Running for 1500000 steps
ETITLE: TS BOND ANGLE DIHED IMPRP ELECT VDW BOUNDARY MISC KINETIC TOTAL TEMP POTENTIAL TOTALAVG TEMPAVG PRESSURE GPRESSURE VOLUME PRESSAVG GPRESSAVG
ENERGY: 0 1.4298 2.9975 3.2939 0.0000 -10769.4280 1492.6838 0.0000 0.0000 1722.2628 -7546.7603 292.3042 -9269.0231 -7546.7603 292.3042 702.3591 771.7185 30025.5277 702.3591 771.7185
ENERGY: 300000 4.1969 3.2610 2.4679 0.0000 -10655.9231 1419.3487 0.0000 0.0000 1782.1439 -7444.5047 302.4673 -9226.6486 -7519.0044 299.8682 -35.6816 54.1069 30627.9849 217.9136 280.2237
ENERGY: 600000 1.3002 3.0644 0.8534 0.0000 -10903.1401 1536.8030 0.0000 0.0000 1713.6922 -7647.4269 290.8496 -9361.1191 -7521.7192 300.0278 454.3980 530.0824 30437.1120 5.1048 67.7232
ENERGY: 900000 2.0196 3.5040 1.2676 0.0000 -10585.5629 1369.3472 0.0000 0.0000 1729.7050 -7479.7195 293.5673 -9209.4245 -7522.0989 299.2916 -743.8441 -708.1339 31047.0337 63.5485 133.3869
ENERGY: 1200000 1.9438 4.8886 4.0300 0.0000 -10780.0981 1441.1685 0.0000 0.0000 1728.5928 -7599.4744 293.3786 -9328.0672 -7526.8793 298.2897 -315.6098 -189.6898 30496.2036 -61.6256 6.6395
ENERGY: 1500000 0.8404 4.3682 3.6116 0.0000 -10581.9024 1298.3144 0.0000 0.0000 1771.5792 -7503.1887 300.6743 -9274.7679 -7524.6171 298.4776 -1283.2418 -1226.4733 30955.7558 -179.4221 -115.4953
TCL: Running FEP window  10: Lambda1 0.5499999999999996 Lambda2 0.4999999999999996 [dLambda -0.04999999999999999]
TCL: Setting parameter firsttimestep to 0
TCL: Setting parameter alchLambda to 0.5499999999999996
Info: NONBONDED TABLE R-SQUARED SPACING: 0.0625
Info: NONBONDED TABLE SIZE: 705 POINTS
TCL: Setting parameter alchLambda2 to 0.4999999999999996
Info: NONBONDED TABLE R-SQUARED SPACING: 0.0625
Info: NONBONDED TABLE SIZE: 705 POINTS
TCL: Running for 1500000 steps
ETITLE: TS BOND ANGLE DIHED IMPRP ELECT VDW BOUNDARY MISC KINETIC TOTAL TEMP POTENTIAL TOTALAVG TEMPAVG PRESSURE GPRESSURE VOLUME PRESSAVG GPRESSAVG
ENERGY: 0 0.8404 4.3682 3.6116 0.0000 -10580.5280 1298.2424 0.0000 0.0000 1770.6808 -7502.7847 300.5218 -9273.4654 -7502.7847 300.5218 -1321.2055 -1232.9369 30955.7558 -1321.2055 -1232.9369
ENERGY: 300000 1.8487 2.4246 2.4539 0.0000 -10686.2001 1358.9276 0.0000 0.0000 1696.1063 -7624.4391 287.8649 -9320.5454 -7538.8011 295.4361 -519.1325 -457.2124 30121.9114 -751.4295 -673.0657
ENERGY: 600000 3.3391 4.6901 2.0136 0.0000 -10768.0597 1458.8290 0.0000 0.0000 1787.1372 -7512.0507 303.3148 -9299.1878 -7528.1984 298.6801 23.3155 31.1697 30434.1408 -476.4502 -404.8709
ENERGY: 900000 2.1081 3.0728 2.3914 0.0000 -10668.5307 1421.3914 0.0000 0.0000 1771.8340 -7467.7331 300.7175 -9239.5671 -7522.8749 299.8932 -183.0769 -111.2237 30855.6301 -350.8667 -286.0290
ENERGY: 1200000 2.6134 1.4817 2.0989 0.0000 -10740.8822 1466.5626 0.0000 0.0000 1813.5023 -7454.6233 307.7895 -9268.1256 -7519.2086 300.7854 127.5046 202.6304 30599.6576 -285.9138 -224.7706
ENERGY: 1500000 2.3665 3.2088 2.3102 0.0000 -10685.6017 1430.9726 0.0000 0.0000 1780.5235 -7466.2201 302.1923 -9246.7436 -7512.4176 300.5062 159.7928 204.4205 30073.3219 -219.8713 -156.9783
TCL: Running FEP window  11: Lambda1 0.4999999999999996 Lambda2 0.4499999999999996 [dLambda -0.04999999999999999]
TCL: Setting parameter firsttimestep to 0
TCL: Setting parameter alchLambda to 0.4999999999999996
Info: NONBONDED TABLE R-SQUARED SPACING: 0.0625
Info: NONBONDED TABLE SIZE: 705 POINTS
TCL: Setting parameter alchLambda2 to 0.4499999999999996
Info: NONBONDED TABLE R-SQUARED SPACING: 0.0625
Info: NONBONDED TABLE SIZE: 705 POINTS
TCL: Running for 1500000 steps
ETITLE: TS BOND ANGLE DIHED IMPRP ELECT VDW BOUNDARY MISC KINETIC TOTAL TEMP POTENTIAL TOTALAVG TEMPAVG PRESSURE GPRESSURE VOLUME PRESSAVG GPRESSAVG
ENERGY: 0 2.3665 3.2088 2.3102 0.0000 -10685.2420 1431.3534 0.0000 0.0000 1779.6714 -7466.3317 302.0477 -9246.0030 -7466.3317 302.0477 117.4438 203.3614 30073.3219 117.4438 203.3614
ENERGY: 300000 6.0263 3.7474 2.0133 0.0000 -10721.8220 1435.1953 0.0000 0.0000 1786.6507 -7488.1891 303.2322 -9274.8398 -7510.2114 299.7655 -223.0231 -189.0821 30759.1540 -27.1952 23.5211
ENERGY: 600000 3.7087 2.7401 4.8430 0.0000 -10692.8623 1398.0685 0.0000 0.0000 1751.6691 -7531.8328 297.2951 -9283.5019 -7539.7015 299.1065 -586.8047 -544.4808 31106.4770 -191.2722 -137.6264
ENERGY: 900000 2.5645 5.5043 4.0074 0.0000 -10908.7619 1562.5152 0.0000 0.0000 1731.8960 -7602.2745 293.9392 -9334.1705 -7536.8799 299.7241 720.9974 769.0685 30371.6982 -81.3900 -22.1476
ENERGY: 1200000 4.4627 4.9595 3.9584 0.0000 -10822.7920 1485.0736 0.0000 0.0000 1759.4251 -7564.9128 298.6115 -9324.3379 -7534.3624 300.3902 226.8507 218.3918 30245.1301 7.6616 58.7032
ENERGY: 1500000 5.1144 3.5994 1.9646 0.0000 -10685.8171 1425.8247 0.0000 0.0000 1813.9356 -7435.3785 307.8630 -9249.3140 -7515.9425 301.8396 -192.2155 -130.5716 30746.8495 -21.1580 35.0327
TCL: Running FEP window  12: Lambda1 0.4499999999999996 Lambda2 0.39999999999999963 [dLambda -0.04999999999999999]
TCL: Setting parameter firsttimestep to 0
TCL: Setting parameter alchLambda to 0.4499999999999996
Info: NONBONDED TABLE R-SQUARED SPACING: 0.0625
Info: NONBONDED TABLE SIZE: 705 POINTS
TCL: Setting parameter alchLambda2 to 0.39999999999999963
Info: NONBONDED TABLE R-SQUARED SPACING: 0.0625
Info: NONBONDED TABLE SIZE: 705 POINTS
TCL: Running for 1500000 steps
ETITLE: TS BOND ANGLE DIHED IMPRP ELECT VDW BOUNDARY MISC KINETIC TOTAL TEMP POTENTIAL TOTALAVG TEMPAVG PRESSURE GPRESSURE VOLUME PRESSAVG GPRESSAVG
ENERGY: 0 5.1144 3.5994 1.9646 0.0000 -10685.8179 1425.3216 0.0000 0.0000 1813.0093 -7436.8086 307.7058 -9249.8179 -7436.8086 307.7058 -214.2209 -137.1326 30746.8495 -214.2209 -137.1326
ENERGY: 300000 1.0513 3.2928 2.1694 0.0000 -10522.7702 1332.1346 0.0000 0.0000 1828.9202 -7355.2018 310.4062 -9184.1220 -7480.4230 305.9047 -612.6121 -529.8964 30698.5916 -26.9066 35.1044
ENERGY: 600000 2.4358 2.4317 2.0580 0.0000 -10496.1545 1269.9391 0.0000 0.0000 1774.5191 -7444.7708 301.1732 -9219.2899 -7488.5934 303.1567 -1336.6964 -1298.8799 30979.1529 -346.4011 -285.3265
ENERGY: 900000 4.3710 3.8297 2.0573 0.0000 -10701.4505 1431.9474 0.0000 0.0000 1700.2170 -7559.0280 288.5626 -9259.2450 -7509.6826 300.8743 201.1888 272.2865 29991.1582 -153.6467 -96.5658
ENERGY: 1200000 2.5997 5.7747 7.9653 0.0000 -10740.7879 1468.0155 0.0000 0.0000 1759.3048 -7497.1279 298.5911 -9256.4327 -7511.1496 300.5597 44.0396 93.7301 30554.1197 -78.8819 -25.8348
ENERGY: 1500000 1.7012 1.8466 2.7224 0.0000 -10636.2968 1409.2625 0.0000 0.0000 1814.9908 -7405.7732 308.0421 -9220.7641 -7507.1594 300.9370 248.3856 302.3355 30153.3993 -9.9851 42.2162
TCL: Running FEP window  13: Lambda1 0.39999999999999963 Lambda2 0.34999999999999964 [dLambda -0.04999999999999999]
TCL: Setting parameter firsttimestep to 0
TCL: Setting parameter alchLambda to 0.39999999999999963
Info: NONBONDED TABLE R-SQUARED SPACING: 0.0625
Info: NONBONDED TABLE SIZE: 705 POINTS
TCL: Setting parameter alchLambda2 to 0.34999999999999964
Info: NONBONDED TABLE R-SQUARED SPACING: 0.0625
Info: NONBONDED TABLE SIZE: 705 POINTS
TCL: Running for 1500000 steps
ETITLE: TS BOND ANGLE DIHED IMPRP ELECT VDW BOUNDARY MISC KINETIC TOTAL TEMP POTENTIAL TOTALAVG TEMPAVG PRESSURE GPRESSURE VOLUME PRESSAVG GPRESSAVG
ENERGY: 0 1.7012 1.8466 2.7224 0.0000 -10636.2972 1409.4837 0.0000 0.0000 1814.1090 -7406.4343 307.8925 -9220.5433 -7406.4343 307.8925 220.0228 299.5342 30153.3993 220.0228 299.5342
ENERGY: 300000 2.5656 3.1447 2.7565 0.0000 -10808.4409 1434.7847 0.0000 0.0000 1782.9460 -7582.2434 302.6035 -9365.1894 -7518.7968 301.7701 -740.2776 -628.7007 30908.8666 -18.0976 67.4047
ENERGY: 600000 2.2425 1.9295 2.5290 0.0000 -10684.6374 1431.9183 0.0000 0.0000 1773.7644 -7472.2537 301.0451 -9246.0181 -7514.0548 301.1583 83.6178 152.4264 30144.7504 -10.6101 61.8395
ENERGY: 900000 6.0705 2.8130 1.3592 0.0000 -10544.4999 1339.2680 0.0000 0.0000 1744.6390 -7450.3503 296.1019 -9194.9892 -7504.7769 300.1537 -730.1212 -716.4283 30822.8993 -141.9542 -83.0267
ENERGY: 1200000 5.0400 3.3185 1.1695 0.0000 -10853.7653 1504.8926 0.0000 0.0000 1767.3759 -7571.9688 299.9609 -9339.3446 -7512.5552 300.9291 438.6617 479.7292 29846.7823 -38.8139 20.9147
ENERGY: 1500000 4.5221 3.5536 3.6285 0.0000 -10796.1873 1462.4854 0.0000 0.0000 1749.5815 -7572.4161 296.9408 -9321.9977 -7517.5380 300.8073 -228.6423 -182.6724 30672.5352 9.6681 67.8113
TCL: Running FEP window  14: Lambda1 0.34999999999999964 Lambda2 0.29999999999999966 [dLambda -0.04999999999999999]
TCL: Setting parameter firsttimestep to 0
TCL: Setting parameter alchLambda to 0.34999999999999964
Info: NONBONDED TABLE R-SQUARED SPACING: 0.0625
Info: NONBONDED TABLE SIZE: 705 POINTS
TCL: Setting parameter alchLambda2 to 0.29999999999999966
Info: NONBONDED TABLE R-SQUARED SPACING: 0.0625
Info: NONBONDED TABLE SIZE: 705 POINTS
TCL: Running for 1500000 steps
ETITLE: TS BOND ANGLE DIHED IMPRP ELECT VDW BOUNDARY MISC KINETIC TOTAL TEMP POTENTIAL TOTALAVG TEMPAVG PRESSURE GPRESSURE VOLUME PRESSAVG GPRESSAVG
ENERGY: 0 4.5221 3.5536 3.6285 0.0000 -10796.1877 1462.8935 0.0000 0.0000 1748.7231 -7572.8669 296.7951 -9321.5900 -7572.8669 296.7951 -264.2777 -185.9029 30672.5352 -264.2777 -185.9029
ENERGY: 300000 3.7594 3.4471 1.3208 0.0000 -10736.8904 1462.7279 0.0000 0.0000 1757.8999 -7507.7353 298.3526 -9265.6352 -7519.8603 300.8536 286.6035 338.5488 30364.7182 78.3502 138.1820
ENERGY: 600000 3.1485 3.3119 2.2572 0.0000 -10803.8295 1534.5119 0.0000 0.0000 1807.2189 -7453.3810 306.7231 -9260.6000 -7524.5226 301.0844 684.4367 736.4514 30650.6133 152.8431 205.5870
ENERGY: 900000 3.2243 5.4023 2.2317 0.0000 -10585.4794 1360.1575 0.0000 0.0000 1753.4525 -7461.0111 297.5978 -9214.4636 -7525.2595 301.0090 -808.5052 -763.8373 31373.1737 52.8283 106.3886
ENERGY: 1200000 0.7828 2.0454 2.5148 0.0000 -10746.4513 1486.3858 0.0000 0.0000 1761.7923 -7492.9302 299.0132 -9254.7225 -7528.8221 300.9644 511.6853 570.6919 30365.9285 -47.2912 9.1056
ENERGY: 1500000 4.6059 5.6292 2.4730 0.0000 -10591.5532 1266.3453 0.0000 0.0000 1787.9857 -7524.5141 303.4588 -9312.4998 -7531.6291 301.0091 -1801.1644 -1781.1205 31044.7968 -114.4381 -59.9685
TCL: Running FEP window  15: Lambda1 0.29999999999999966 Lambda2 0.24999999999999967 [dLambda -0.04999999999999999]
TCL: Setting parameter firsttimestep to 0
TCL: Setting parameter alchLambda to 0.29999999999999966
Info: NONBONDED TABLE R-SQUARED SPACING: 0.0625
Info: NONBONDED TABLE SIZE: 705 POINTS
TCL: Setting parameter alchLambda2 to 0.24999999999999967
Info: NONBONDED TABLE R-SQUARED SPACING: 0.0625
Info: NONBONDED TABLE SIZE: 705 POINTS
TCL: Running for 1500000 steps
ETITLE: TS BOND ANGLE DIHED IMPRP ELECT VDW BOUNDARY MISC KINETIC TOTAL TEMP POTENTIAL TOTALAVG TEMPAVG PRESSURE GPRESSURE VOLUME PRESSAVG GPRESSAVG
ENERGY: 0 4.6059 5.6292 2.4730 0.0000 -10591.5530 1266.9165 0.0000 0.0000 1787.1070 -7524.8215 303.3097 -9311.9284 -7524.8215 303.3097 -1858.7974 -1776.8253 31044.7968 -1858.7974 -1776.8253
ENERGY: 300000 0.7895 5.8004 2.0601 0.0000 -10613.6218 1408.2726 0.0000 0.0000 1813.0297 -7383.6696 307.7093 -9196.6992 -7469.4390 302.7340 -195.5153 -89.2678 30876.8429 -558.4403 -499.0717
ENERGY: 600000 1.0636 4.6181 1.4148 0.0000 -10898.6285 1497.6840 0.0000 0.0000 1756.5942 -7637.2537 298.1310 -9393.8480 -7506.0950 301.0637 261.1542 339.1147 30013.6780 -286.1837 -239.2620
ENERGY: 900000 1.8040 3.0798 2.5678 0.0000 -10742.8135 1479.6848 0.0000 0.0000 1771.9251 -7483.7521 300.7330 -9255.6772 -7509.2308 300.9622 479.1806 513.6188 30228.2047 -130.9478 -73.2839
ENERGY: 1200000 4.8186 3.9090 3.4952 0.0000 -10734.3474 1520.1370 0.0000 0.0000 1783.5878 -7418.3997 302.7124 -9201.9876 -7494.0818 303.0715 1054.7470 1159.4367 30152.3696 126.2709 186.2028
ENERGY: 1500000 3.7322 3.4848 4.4796 0.0000 -10696.7096 1427.3114 0.0000 0.0000 1768.4868 -7489.2150 300.1494 -9257.7017 -7502.4370 302.0492 -254.7305 -211.5818 30676.8018 110.3610 161.6773
TCL: Running FEP window  16: Lambda1 0.24999999999999967 Lambda2 0.19999999999999968 [dLambda -0.04999999999999999]
TCL: Setting parameter firsttimestep to 0
TCL: Setting parameter alchLambda to 0.24999999999999967
Info: NONBONDED TABLE R-SQUARED SPACING: 0.0625
Info: NONBONDED TABLE SIZE: 705 POINTS
TCL: Setting parameter alchLambda2 to 0.19999999999999968
Info: NONBONDED TABLE R-SQUARED SPACING: 0.0625
Info: NONBONDED TABLE SIZE: 705 POINTS
TCL: Running for 1500000 steps
ETITLE: TS BOND ANGLE DIHED IMPRP ELECT VDW BOUNDARY MISC KINETIC TOTAL TEMP POTENTIAL TOTALAVG TEMPAVG PRESSURE GPRESSURE VOLUME PRESSAVG GPRESSAVG
ENERGY: 0 3.7322 3.4848 4.4796 0.0000 -10696.7099 1426.7119 0.0000 0.0000 1767.6101 -7490.6913 300.0006 -9258.3014 -7490.6913 300.0006 -282.7231 -216.8794 30676.8018 -282.7231 -216.8794
ENERGY: 300000 1.1737 2.6593 1.8283 0.0000 -10755.2066 1473.3608 0.0000 0.0000 1834.2398 -7441.9447 311.3091 -9276.1845 -7473.8453 305.3902 245.7158 239.1504 30387.0934 209.4158 251.2604
ENERGY: 600000 4.9282 2.4873 4.3307 0.0000 -10826.4436 1517.4057 0.0000 0.0000 1737.6904 -7559.6013 294.9226 -9297.2918 -7471.2990 302.9236 520.9770 627.8903 30231.1428 217.5719 274.2149
ENERGY: 900000 1.7641 2.3716 3.0805 0.0000 -10676.8827 1440.7747 0.0000 0.0000 1761.1594 -7467.7325 298.9058 -9228.8919 -7488.4837 300.6748 -62.1280 18.1712 30617.8067 219.5958 285.0847
ENERGY: 1200000 2.5640 2.8968 2.7748 0.0000 -10634.2824 1374.4014 0.0000 0.0000 1783.6192 -7468.0262 302.7177 -9251.6453 -7504.6099 299.9975 -553.4416 -553.7447 30733.3527 154.1398 219.1197
ENERGY: 1500000 1.7143 2.0625 4.2714 0.0000 -10680.4035 1417.9131 0.0000 0.0000 1826.1663 -7428.2758 309.9388 -9254.4421 -7498.5630 301.2368 115.5810 100.5098 30344.0379 162.6821 221.2079
TCL: Running FEP window  17: Lambda1 0.19999999999999968 Lambda2 0.1499999999999997 [dLambda -0.04999999999999999]
TCL: Setting parameter firsttimestep to 0
TCL: Setting parameter alchLambda to 0.19999999999999968
Info: NONBONDED TABLE R-SQUARED SPACING: 0.0625
Info: NONBONDED TABLE SIZE: 705 POINTS
TCL: Setting parameter alchLambda2 to 0.1499999999999997
Info: NONBONDED TABLE R-SQUARED SPACING: 0.0625
Info: NONBONDED TABLE SIZE: 705 POINTS
TCL: Running for 1500000 steps
ETITLE: TS BOND ANGLE DIHED IMPRP ELECT VDW BOUNDARY MISC KINETIC TOTAL TEMP POTENTIAL TOTALAVG TEMPAVG PRESSURE GPRESSURE VOLUME PRESSAVG GPRESSAVG
ENERGY: 0 1.7143 2.0625 4.2714 0.0000 -10680.4046 1418.0461 0.0000 0.0000 1825.2906 -7429.0197 309.7902 -9254.3103 -7429.0197 309.7902 16.1714 100.0597 30344.0379 16.1714 100.0597
ENERGY: 200000 2.9714 2.5286 0.9141 0.0000 -10789.5210 1479.4930 0.0000 0.0000 1759.9418 -7543.6721 298.6992 -9303.6139 -7505.2058 303.7617 139.3892 201.6239 30544.4691 111.0229 183.1317
ENERGY: 400000 1.9783 2.3065 1.7282 0.0000 -10821.1815 1444.2917 0.0000 0.0000 1771.2325 -7599.6443 300.6154 -9370.8768 -7535.3964 300.7080 -520.3981 -408.9615 30617.8442 -169.8345 -92.6612
ENERGY: 500000 0.6163 2.6477 1.8091 0.0000 -10671.2299 1446.4490 0.0000 0.0000 1794.3087 -7425.3991 304.5319 -9219.7078 -7517.0635 301.3453 276.2987 257.7343 30596.0155 -95.4789 -34.2620
ENERGY: 700000 4.5045 4.7479 2.6259 0.0000 -10707.6766 1438.1354 0.0000 0.0000 1726.2071 -7531.4558 292.9737 -9257.6630 -7512.2702 299.9287 -147.5449 -91.3282 30692.1057 -126.6173 -67.3903
ENERGY: 900000 1.6635 3.9523 1.2225 0.0000 -10674.4347 1412.1859 0.0000 0.0000 1767.9301 -7487.4804 300.0549 -9255.4105 -7517.6413 299.8324 -346.4221 -314.1694 30865.9393 -110.9435 -54.8002
