Info: SIMULATION PARAMETERS:
Info: TIMESTEP               2
Info: NUMBER OF STEPS        0
Info: STEPS PER CYCLE        10
Info: PERIODIC CELL BASIS 1  41.123 0 0
Info: PERIODIC CELL BASIS 2  0 41.432 0
Info: PERIODIC CELL BASIS 3  0 0 43.222
Info: PERIODIC CELL CENTER   0 0 0
Info: WRAPPING WATERS AROUND PERIODIC BOUNDARIES ON OUTPUT.
Info: WRAPPING ALL CLUSTERS AROUND PERIODIC BOUNDARIES ON OUTPUT.
Info: FIRST LDB TIMESTEP     50
Info: LAST LDB TIMESTEP     -1
Info: HOM BACKGROUND SCALING 1
Info: PME BACKGROUND SCALING 1
Info: MIN ATOMS PER PATCH    40
Info: EMPTY PATCH LOAD       40 ATOMS
Info: INITIAL TEMPERATURE    300
Info: CENTER OF MASS MOVING INITIALLY? NO
Info: DIELECTRIC             1
Info: EXCLUDE                SCALED ONE-FOUR
Info: 1-4 ELECTROSTATICS SCALED BY 0.833333
Info: MODIFIED 1-4 VDW PARAMETERS WILL BE USED
Info: DCD FILENAME           mobley_3325209_min.dcd
Info: DCD FREQUENCY          5000
Info: DCD FIRST STEP         5000
Info: DCD FILE WILL CONTAIN UNIT CELL DATA
Info: XST FILENAME           mobley_3325209_min.xst
Info: XST FREQUENCY          5000
Info: NO VELOCITY DCD OUTPUT
Info: NO FORCE DCD OUTPUT
Info: OUTPUT FILENAME        mobley_3325209_min
Info: BINARY OUTPUT FILES WILL BE USED
Info: RESTART FILENAME       mobley_3325209_min.restart
Info: RESTART FREQUENCY      5000
Info: BINARY RESTART FILES WILL BE USED
Info: CUTOFF                 9
Info: PAIRLIST DISTANCE      11
Info: PAIRLIST SHRINK RATE   0.01
Info: PAIRLIST GROW RATE     0.01
Info: PAIRLIST TRIGGER       0.3
Info: PAIRLISTS PER CYCLE    2
Info: PAIRLISTS ENABLED
Info: MARGIN                 8
Info: HYDROGEN GROUP CUTOFF  2.5
Info: PATCH DIMENSION        21.5
Info: ENERGY OUTPUT STEPS    5000
Info: ENERGY EVALUATION STEPS    5000
Info: OUTPUT ENERGY PRECISION 4
Info: CROSSTERM ENERGY INCLUDED IN DIHEDRAL
Info: TIMING OUTPUT STEPS    50000
Info: PRESSURE OUTPUT STEPS  5000
Info: LANGEVIN DYNAMICS ACTIVE
Info: LANGEVIN TEMPERATURE   300
Info: LANGEVIN USING BBK INTEGRATOR
Info: LANGEVIN DAMPING COEFFICIENT IS 1 INVERSE PS
Info: LANGEVIN DYNAMICS APPLIED TO HYDROGENS
Info: LANGEVIN PISTON PRESSURE CONTROL ACTIVE
Info:        TARGET PRESSURE IS 1.01325 BAR
Info:     OSCILLATION PERIOD IS 50 FS
Info:             DECAY TIME IS 25 FS
Info:     PISTON TEMPERATURE IS 300 K
Info:       PRESSURE CONTROL IS GROUP-BASED
Info:    INITIAL STRAIN RATE IS 0 0 0
Info:       CELL FLUCTUATION IS ISOTROPIC
Info: PARTICLE MESH EWALD (PME) ACTIVE
Info: PME TOLERANCE               1e-06
Info: PME EWALD COEFFICIENT       0.348832
Info: PME INTERPOLATION ORDER     4
Info: PME GRID DIMENSIONS         44 44 44
Info: PME MAXIMUM GRID SPACING    1
Info: FULL ELECTROSTATIC EVALUATION FREQUENCY      2
Info: USING VERLET I (r-RESPA) MTS SCHEME.
Info: C1 SPLITTING OF LONG RANGE ELECTROSTATICS
Info: PLACING ATOMS IN PATCHES BY HYDROGEN GROUPS
Info: RIGID BONDS TO HYDROGEN : ALL
Info:         ERROR TOLERANCE : 1e-08
Info:          MAX ITERATIONS : 100
Info: RIGID WATER USING SETTLE ALGORITHM
Info: RANDOM NUMBER SEED     1741330078
Info: USE HYDROGEN BONDS?    NO
Info: Using AMBER format force field!
Info: AMBER PARM FILE        mobley_3325209.prmtop
Info: COORDINATE PDB         mobley_3325209.pdb
Info: Exclusions will be read from PARM file!
Info: SCNB (VDW SCALING)     2
Info: USING ARITHMETIC MEAN TO COMBINE L-J SIGMA PARAMETERS
Info: SUMMARY OF PARAMETERS:
Info: 7 BONDS
Info: 8 ANGLES
Info:   8 HARMONIC
Info:   0 COSINE-BASED
Info: 8 DIHEDRAL
Info: 0 IMPROPER
Info: 0 CROSSTERM
Info: 0 VDW
Info: 28 VDW_PAIRS
Info: 0 NBTHOLE_PAIRS
Info: STRUCTURE SUMMARY:
Info: 5328 ATOMS
Info: 5328 BONDS
Info: 45 ANGLES
Info: 66 DIHEDRALS
Info: 0 IMPROPERS
Info: 0 CROSSTERMS
Info: 5418 EXCLUSIONS
Info: 5315 RIGID BONDS
Info: 10669 DEGREES OF FREEDOM
Info: 1780 HYDROGEN GROUPS
Info: 4 ATOMS IN LARGEST HYDROGEN GROUP
Info: 1780 MIGRATION GROUPS
Info: 4 ATOMS IN LARGEST MIGRATION GROUP
Info: TOTAL MASS = 32016.5 amu
Info: TOTAL CHARGE = -0.000800032 e
Info: MASS DENSITY = 0.72195 g/cm^3
Info: ATOM DENSITY = 0.07235 atoms/A^3
Info: ADDED 0 IMPLICIT EXCLUSIONS
Info: NONBONDED TABLE R-SQUARED SPACING: 0.0625
Info: NONBONDED TABLE SIZE: 705 POINTS
Info: REMOVING COM VELOCITY -0.0162881 -0.0421368 0.0772447
TCL: Minimizing for 2000 steps
ETITLE: TS BOND ANGLE DIHED IMPRP ELECT VDW BOUNDARY MISC KINETIC TOTAL TEMP POTENTIAL TOTAL3 TEMPAVG PRESSURE GPRESSURE VOLUME PRESSAVG GPRESSAVG
ENERGY: 0 0.4891 1.5557 7.8967 0.0000 -16598.4571 1857.9962 0.0000 0.0000 0.0000 -14730.5194 0.0000 -14730.5194 -14730.5194 0.0000 11113.4200 -15481.6265 73641.9953 11113.4200 -15481.6265
ENERGY: 400 2.1431 3.2954 7.9995 0.0000 -22433.9568 3396.2086 0.0000 0.0000 0.0000 -19024.3103 0.0000 -19024.3103 -19024.3103 0.0000 16499.2903 12208.2626 73641.9953 16499.2903 12208.2626
ENERGY: 800 1.3594 1.6117 7.9624 0.0000 -23425.2585 3750.7701 0.0000 0.0000 0.0000 -19663.5550 0.0000 -19663.5550 -19663.5550 0.0000 18000.1898 13496.3026 73641.9953 18000.1898 13496.3026
ENERGY: 1200 11.0289 9.1872 8.2650 0.0000 -23895.3260 3971.3249 0.0000 0.0000 0.0000 -19895.5200 0.0000 -19895.5200 -19895.5200 0.0000 18983.3034 14473.3269 73641.9953 18983.3034 14473.3269
ENERGY: 1600 0.8676 1.4085 8.0191 0.0000 -24253.5912 4134.3898 0.0000 0.0000 0.0000 -20108.9062 0.0000 -20108.9062 -20108.9062 0.0000 19728.3664 14952.6004 73641.9953 19728.3664 14952.6004
ENERGY: 2000 1.1207 1.4173 7.9837 0.0000 -24440.5144 4233.0520 0.0000 0.0000 0.0000 -20196.9407 0.0000 -20196.9407 -20196.9407 0.0000 20240.6469 15259.2008 73641.9953 20240.6469 15259.2008
TCL: Exiting due to exit command.
Info: NAMD 3.0.1 for Linux-x86_64-multicore
Info: Please visit http://www.ks.uiuc.edu/Research/namd/
Info: for updates, documentation, and support information.
Info: Please cite Phillips et al., J. Chem. Phys. 153:044130 (2020) doi:10.1063/5.0014475
Info: in all publications reporting results obtained with NAMD.
Info: Based on Charm++/Converse 80000 for multicore-linux-x86_64-gcc
Info: Built Mon Oct 14 11:11:06 CDT 2024 by dhardy on athine.ks.uiuc.edu
Info: 1 NAMD  3.0.1  Linux-x86_64-multicore  16    k116  z5358697
Info: Running on 16 processors, 1 nodes, 1 physical nodes.
Info: CPU topology information available.
Info: Charm++/Converse parallel runtime startup completed at 0.00804081 s
Info: 1043.48 MB of memory in use based on /proc/self/stat
Info: Configuration file is mobley_3325209_equil.namd
Info: Working in the current directory /srv/scratch/z5358697/prod_prep_4/3325209
TCL: Running 25000 steps at 30 kelvin.
TCL: Suspending until startup complete.
Info: SIMULATION PARAMETERS:
Info: TIMESTEP               2
Info: NUMBER OF STEPS        0
Info: STEPS PER CYCLE        10
Info: PERIODIC CELL BASIS 1  41.123 0 0
Info: PERIODIC CELL BASIS 2  0 41.432 0
Info: PERIODIC CELL BASIS 3  0 0 43.222
Info: PERIODIC CELL CENTER   0 0 0
Info: WRAPPING WATERS AROUND PERIODIC BOUNDARIES ON OUTPUT.
Info: WRAPPING ALL CLUSTERS AROUND PERIODIC BOUNDARIES ON OUTPUT.
Info: FIRST LDB TIMESTEP     50
Info: LAST LDB TIMESTEP     -1
Info: HOM BACKGROUND SCALING 1
Info: PME BACKGROUND SCALING 1
Info: MIN ATOMS PER PATCH    40
Info: EMPTY PATCH LOAD       40 ATOMS
Info: INITIAL TEMPERATURE    300
Info: CENTER OF MASS MOVING INITIALLY? NO
Info: DIELECTRIC             1
Info: EXCLUDE                SCALED ONE-FOUR
Info: 1-4 ELECTROSTATICS SCALED BY 0.833333
Info: MODIFIED 1-4 VDW PARAMETERS WILL BE USED
Info: DCD FILENAME           mobley_3325209_equil.dcd
Info: DCD FREQUENCY          5000
Info: DCD FIRST STEP         5000
Info: DCD FILE WILL CONTAIN UNIT CELL DATA
Info: XST FILENAME           mobley_3325209_equil.xst
Info: XST FREQUENCY          5000
Info: NO VELOCITY DCD OUTPUT
Info: NO FORCE DCD OUTPUT
Info: OUTPUT FILENAME        mobley_3325209_equil
Info: BINARY OUTPUT FILES WILL BE USED
Info: RESTART FILENAME       mobley_3325209_equil.restart
Info: RESTART FREQUENCY      5000
Info: BINARY RESTART FILES WILL BE USED
Info: CUTOFF                 9
Info: PAIRLIST DISTANCE      11
Info: PAIRLIST SHRINK RATE   0.01
Info: PAIRLIST GROW RATE     0.01
Info: PAIRLIST TRIGGER       0.3
Info: PAIRLISTS PER CYCLE    2
Info: PAIRLISTS ENABLED
Info: MARGIN                 8
Info: HYDROGEN GROUP CUTOFF  2.5
Info: PATCH DIMENSION        21.5
Info: ENERGY OUTPUT STEPS    5000
Info: ENERGY EVALUATION STEPS    5000
Info: OUTPUT ENERGY PRECISION 4
Info: CROSSTERM ENERGY INCLUDED IN DIHEDRAL
Info: TIMING OUTPUT STEPS    50000
Info: PRESSURE OUTPUT STEPS  5000
Info: LANGEVIN DYNAMICS ACTIVE
Info: LANGEVIN TEMPERATURE   30
Info: LANGEVIN USING BBK INTEGRATOR
Info: LANGEVIN DAMPING COEFFICIENT IS 1 INVERSE PS
Info: LANGEVIN DYNAMICS APPLIED TO HYDROGENS
Info: LANGEVIN PISTON PRESSURE CONTROL ACTIVE
Info:        TARGET PRESSURE IS 1.01325 BAR
Info:     OSCILLATION PERIOD IS 50 FS
Info:             DECAY TIME IS 25 FS
Info:     PISTON TEMPERATURE IS 300 K
Info:       PRESSURE CONTROL IS GROUP-BASED
Info:    INITIAL STRAIN RATE IS 0 0 0
Info:       CELL FLUCTUATION IS ISOTROPIC
Info: PARTICLE MESH EWALD (PME) ACTIVE
Info: PME TOLERANCE               1e-06
Info: PME EWALD COEFFICIENT       0.348832
Info: PME INTERPOLATION ORDER     4
Info: PME GRID DIMENSIONS         44 44 44
Info: PME MAXIMUM GRID SPACING    1
Info: FULL ELECTROSTATIC EVALUATION FREQUENCY      2
Info: USING VERLET I (r-RESPA) MTS SCHEME.
Info: C1 SPLITTING OF LONG RANGE ELECTROSTATICS
Info: PLACING ATOMS IN PATCHES BY HYDROGEN GROUPS
Info: RIGID BONDS TO HYDROGEN : ALL
Info:         ERROR TOLERANCE : 1e-08
Info:          MAX ITERATIONS : 100
Info: RIGID WATER USING SETTLE ALGORITHM
Info: RANDOM NUMBER SEED     1741330093
Info: USE HYDROGEN BONDS?    NO
Info: Using AMBER format force field!
Info: AMBER PARM FILE        mobley_3325209.prmtop
Info: COORDINATE PDB         mobley_3325209.pdb
Info: Exclusions will be read from PARM file!
Info: SCNB (VDW SCALING)     2
Info: USING ARITHMETIC MEAN TO COMBINE L-J SIGMA PARAMETERS
Info: BINARY COORDINATES     mobley_3325209_min.coor
Info: SUMMARY OF PARAMETERS:
Info: 7 BONDS
Info: 8 ANGLES
Info:   8 HARMONIC
Info:   0 COSINE-BASED
Info: 8 DIHEDRAL
Info: 0 IMPROPER
Info: 0 CROSSTERM
Info: 0 VDW
Info: 28 VDW_PAIRS
Info: 0 NBTHOLE_PAIRS
Info: STRUCTURE SUMMARY:
Info: 5328 ATOMS
Info: 5328 BONDS
Info: 45 ANGLES
Info: 66 DIHEDRALS
Info: 0 IMPROPERS
Info: 0 CROSSTERMS
Info: 5418 EXCLUSIONS
Info: 5315 RIGID BONDS
Info: 10669 DEGREES OF FREEDOM
Info: 1780 HYDROGEN GROUPS
Info: 4 ATOMS IN LARGEST HYDROGEN GROUP
Info: 1780 MIGRATION GROUPS
Info: 4 ATOMS IN LARGEST MIGRATION GROUP
Info: TOTAL MASS = 32016.5 amu
Info: TOTAL CHARGE = -0.000800032 e
Info: MASS DENSITY = 0.72195 g/cm^3
Info: ATOM DENSITY = 0.07235 atoms/A^3
Info: ADDED 0 IMPLICIT EXCLUSIONS
Info: NONBONDED TABLE R-SQUARED SPACING: 0.0625
Info: NONBONDED TABLE SIZE: 705 POINTS
Info: REMOVING COM VELOCITY -0.255383 -0.048404 0.0433078
TCL: Running for 25000 steps
ETITLE: TS BOND ANGLE DIHED IMPRP ELECT VDW BOUNDARY MISC KINETIC TOTAL TEMP POTENTIAL TOTAL3 TEMPAVG PRESSURE GPRESSURE VOLUME PRESSAVG GPRESSAVG
ENERGY: 0 1.1207 1.4173 7.9837 0.0000 -24440.5144 4233.0520 0.0000 0.0000 3084.6573 -17112.2834 290.9870 -20196.9407 -17111.6584 290.9870 400.5560 445.8210 73641.9953 400.5560 445.8210
ENERGY: 5000 0.9188 2.5444 8.4060 0.0000 -25465.5304 4424.9442 0.0000 0.0000 320.6581 -20708.0588 30.2489 -21028.7169 -20706.8045 46.9232 250.7896 322.7371 51921.8162 3.0019 2.9473
ENERGY: 10000 0.6144 1.9478 8.3649 0.0000 -25572.3127 4486.2911 0.0000 0.0000 310.7528 -20764.3417 29.3144 -21075.0945 -20764.0228 30.0815 529.5121 594.8721 51541.3923 1.4717 1.3988
ENERGY: 15000 1.1140 2.5479 8.2045 0.0000 -25562.2159 4469.9392 0.0000 0.0000 320.6693 -20759.7411 30.2499 -21080.4104 -20759.2752 29.9515 390.0838 462.5836 51639.6017 0.2982 0.2443
ENERGY: 20000 0.6089 1.9485 8.2747 0.0000 -25416.7723 4300.4511 0.0000 0.0000 320.7226 -20784.7665 30.2549 -21105.4891 -20783.8757 30.0693 -514.2929 -455.5863 52033.6006 5.0862 5.0875
ENERGY: 25000 0.9752 1.8842 8.2181 0.0000 -25462.0237 4326.6969 0.0000 0.0000 321.7979 -20802.4514 30.3564 -21124.2493 -20801.4338 30.1909 -406.2894 -356.1977 51808.2761 6.7070 6.6047
TCL: Running 25000 steps at 60 kelvin.
TCL: Setting parameter langevinTemp to 60
TCL: Running for 25000 steps
ETITLE: TS BOND ANGLE DIHED IMPRP ELECT VDW BOUNDARY MISC KINETIC TOTAL TEMP POTENTIAL TOTAL3 TEMPAVG PRESSURE GPRESSURE VOLUME PRESSAVG GPRESSAVG
ENERGY: 25000 0.9752 1.8842 8.2181 0.0000 -25462.0237 4326.6969 0.0000 0.0000 321.6380 -20802.6113 30.3413 -21124.2493 -20801.8586 30.3413 -417.2214 -356.1375 51808.2761 -417.2214 -356.1375
ENERGY: 30000 2.6607 3.7368 8.6046 0.0000 -25034.7191 4170.5878 0.0000 0.0000 650.4526 -20198.6766 61.3596 -20849.1292 -20197.1093 57.1149 -627.3047 -567.5298 52285.6639 4.4081 4.3503
ENERGY: 35000 1.7473 3.3938 9.0878 0.0000 -25390.9343 4473.8157 0.0000 0.0000 634.5272 -20268.3625 59.8573 -20902.8897 -20266.5170 60.1323 786.7787 841.0905 51697.6764 6.0123 5.9345
ENERGY: 40000 1.9993 2.2470 8.5679 0.0000 -25226.3526 4276.0642 0.0000 0.0000 634.6609 -20302.8132 59.8699 -20937.4742 -20301.4490 60.3389 -265.9707 -213.4119 52009.2816 -0.8623 -0.7310
ENERGY: 45000 1.0603 3.7681 9.0716 0.0000 -25272.4858 4298.1502 0.0000 0.0000 647.4484 -20312.9871 61.0762 -20960.4355 -20311.1592 60.2186 -132.1802 -88.9753 51947.9068 3.0111 3.3501
ENERGY: 50000 1.7587 3.4949 8.7095 0.0000 -25115.9091 4131.3449 0.0000 0.0000 640.4949 -20330.1061 60.4202 -20970.6010 -20328.1799 60.3263 -1061.4718 -1002.5748 52266.9073 -1.6242 -1.7358
TCL: Running 25000 steps at 90 kelvin.
TCL: Setting parameter langevinTemp to 90
TCL: Running for 25000 steps
ETITLE: TS BOND ANGLE DIHED IMPRP ELECT VDW BOUNDARY MISC KINETIC TOTAL TEMP POTENTIAL TOTAL3 TEMPAVG PRESSURE GPRESSURE VOLUME PRESSAVG GPRESSAVG
ENERGY: 50000 1.7587 3.4949 8.7095 0.0000 -25115.9091 4131.3449 0.0000 0.0000 640.1797 -20330.4213 60.3905 -20970.6010 -20328.9277 60.3905 -1070.9665 -1002.7282 52266.9073 -1070.9665 -1002.7282
ENERGY: 55000 2.9931 5.5606 9.3517 0.0000 -24979.0582 4279.7180 0.0000 0.0000 980.3457 -19701.0890 92.4796 -20681.4347 -19699.1635 87.2307 344.1083 405.9715 51685.4764 5.6216 5.5494
ENERGY: 60000 2.1327 2.8611 9.5601 0.0000 -24913.5405 4196.2684 0.0000 0.0000 945.5954 -19757.1229 89.2015 -20702.7183 -19754.9733 90.1101 -11.2453 35.4815 51653.9853 1.1657 1.3927
ENERGY: 65000 1.7730 4.6629 9.5990 0.0000 -25029.7685 4255.8409 0.0000 0.0000 972.7257 -19785.1671 91.7608 -20757.8927 -19782.2910 91.1124 16.0968 85.1754 51857.0864 4.6324 4.4589
ENERGY: 70000 1.9256 3.6244 8.9592 0.0000 -24965.5613 4157.9378 0.0000 0.0000 940.9004 -19852.2140 88.7586 -20793.1144 -19850.2159 90.2391 -446.9921 -382.1574 51761.0987 -0.5207 -0.3987
ENERGY: 75000 0.6822 4.6098 9.1885 0.0000 -25088.9539 4303.8232 0.0000 0.0000 943.1954 -19827.4547 88.9751 -20770.6501 -19825.3352 90.3703 268.0810 326.9846 51720.3902 4.3529 3.9035
TCL: Running 25000 steps at 120 kelvin.
TCL: Setting parameter langevinTemp to 120
TCL: Running for 25000 steps
ETITLE: TS BOND ANGLE DIHED IMPRP ELECT VDW BOUNDARY MISC KINETIC TOTAL TEMP POTENTIAL TOTAL3 TEMPAVG PRESSURE GPRESSURE VOLUME PRESSAVG GPRESSAVG
ENERGY: 75000 0.6822 4.6098 9.1885 0.0000 -25088.9539 4303.8232 0.0000 0.0000 942.7205 -19827.9297 88.9303 -20770.6501 -19826.3505 88.9303 270.7849 326.7524 51720.3902 270.7849 326.7524
ENERGY: 80000 1.7111 6.7218 9.9949 0.0000 -24629.5306 4150.2810 0.0000 0.0000 1241.5756 -19219.2462 117.1224 -20460.8218 -19216.1954 116.7804 92.3897 128.0458 52207.6815 3.9414 3.9873
ENERGY: 85000 1.6093 6.5717 8.4988 0.0000 -24695.6619 4168.2136 0.0000 0.0000 1273.6393 -19237.1291 120.1471 -20510.7684 -19233.0636 118.9621 146.4414 195.0742 51947.1490 2.3903 2.5187
ENERGY: 90000 0.9229 7.2125 11.0502 0.0000 -24486.9196 4022.4862 0.0000 0.0000 1300.4950 -19144.7528 122.6805 -20445.2478 -19142.0518 120.6322 -541.6061 -492.5552 52426.5490 1.5485 1.3936
ENERGY: 95000 1.6071 6.5850 10.3031 0.0000 -24797.2755 4261.3877 0.0000 0.0000 1269.6684 -19247.7242 119.7725 -20517.3926 -19243.7400 121.5989 513.8690 576.2875 51796.8460 2.7361 2.7980
ENERGY: 100000 2.0809 3.2709 9.6675 0.0000 -24707.2877 4168.3159 0.0000 0.0000 1272.2321 -19251.7205 120.0143 -20523.9526 -19249.0657 119.8836 53.0744 106.8030 51801.8013 -1.0459 -0.6097
TCL: Running 25000 steps at 150 kelvin.
TCL: Setting parameter langevinTemp to 150
TCL: Running for 25000 steps
ETITLE: TS BOND ANGLE DIHED IMPRP ELECT VDW BOUNDARY MISC KINETIC TOTAL TEMP POTENTIAL TOTAL3 TEMPAVG PRESSURE GPRESSURE VOLUME PRESSAVG GPRESSAVG
ENERGY: 100000 2.0809 3.2709 9.6675 0.0000 -24707.2877 4168.3159 0.0000 0.0000 1271.6030 -19252.3496 119.9550 -20523.9526 -19249.9902 119.9550 51.6354 106.7387 51801.8013 51.6354 106.7387
ENERGY: 105000 3.2091 5.8486 9.0844 0.0000 -24079.8336 3933.2968 0.0000 0.0000 1609.7598 -18518.6348 151.8545 -20128.3946 -18514.2109 147.4967 -340.5405 -261.1108 52293.3523 4.3029 4.0866
ENERGY: 110000 1.8943 7.4378 11.0553 0.0000 -24297.1349 4132.2062 0.0000 0.0000 1628.9744 -18515.5669 153.6671 -20144.5413 -18512.7195 151.5384 775.2353 852.3956 51818.7773 3.9024 4.2398
ENERGY: 115000 1.9041 8.7025 12.6014 0.0000 -24328.4143 4091.4926 0.0000 0.0000 1582.0819 -18631.6319 149.2436 -20213.7138 -18629.2342 151.5257 408.4135 469.3736 51778.7194 1.0665 0.6291
ENERGY: 120000 2.2332 5.8224 9.7455 0.0000 -24287.9599 4044.9436 0.0000 0.0000 1584.2756 -18640.9396 149.4505 -20225.2152 -18636.9445 150.8256 32.5567 98.9913 52209.7739 4.1924 4.2767
ENERGY: 125000 3.3705 3.9229 9.3477 0.0000 -24112.1802 3871.3791 0.0000 0.0000 1574.0271 -18650.1329 148.4837 -20224.1600 -18647.2674 149.4758 -782.7554 -704.3785 52380.3586 3.0359 2.9040
TCL: Running 50000 steps at 180 kelvin.
TCL: Setting parameter langevinTemp to 180
TCL: Running for 50000 steps
ETITLE: TS BOND ANGLE DIHED IMPRP ELECT VDW BOUNDARY MISC KINETIC TOTAL TEMP POTENTIAL TOTAL3 TEMPAVG PRESSURE GPRESSURE VOLUME PRESSAVG GPRESSAVG
ENERGY: 125000 3.3705 3.9229 9.3477 0.0000 -24112.1802 3871.3791 0.0000 0.0000 1573.2424 -18650.9175 148.4097 -20224.1600 -18647.5285 148.4097 -762.8337 -704.9323 52380.3586 -762.8337 -704.9323
ENERGY: 135000 3.1355 6.7695 9.9008 0.0000 -23815.3973 3939.8223 0.0000 0.0000 1992.8582 -17862.9109 187.9936 -19855.7690 -17860.2580 180.4744 501.8480 582.0012 52021.9462 5.1723 4.9148
ENERGY: 145000 1.6290 7.2903 11.5446 0.0000 -23685.2500 3869.8920 0.0000 0.0000 1904.7581 -17890.1361 179.6828 -19794.8941 -17884.3952 180.6398 328.9150 386.8924 51958.2027 1.3637 1.2373
ENERGY: 155000 1.9598 5.2742 9.3709 0.0000 -23537.3437 3791.0251 0.0000 0.0000 1890.8965 -17838.8171 178.3752 -19729.7136 -17835.1783 180.4157 -134.4890 -50.6368 52387.4836 0.6324 0.8661
ENERGY: 165000 2.7536 5.2232 12.6755 0.0000 -23791.1288 3892.2341 0.0000 0.0000 1912.2062 -17966.0362 180.3854 -19878.2425 -17959.8615 181.2334 209.2047 278.8148 51985.1544 -4.4556 -4.9020
ENERGY: 175000 2.1853 5.2636 9.3021 0.0000 -23573.0827 3788.2546 0.0000 0.0000 1905.1604 -17862.9168 179.7207 -19768.0772 -17859.8895 181.2742 -7.8488 37.5638 52067.0990 3.8116 3.4592
TCL: Running 50000 steps at 210 kelvin.
TCL: Setting parameter langevinTemp to 210
TCL: Running for 50000 steps
ETITLE: TS BOND ANGLE DIHED IMPRP ELECT VDW BOUNDARY MISC KINETIC TOTAL TEMP POTENTIAL TOTAL3 TEMPAVG PRESSURE GPRESSURE VOLUME PRESSAVG GPRESSAVG
ENERGY: 175000 2.1853 5.2636 9.3021 0.0000 -23573.0827 3788.2546 0.0000 0.0000 1904.2026 -17863.8746 179.6304 -19768.0772 -17860.4491 179.6304 -24.8973 36.9692 52067.0990 -24.8973 36.9692
ENERGY: 185000 1.9715 7.5921 10.0501 0.0000 -22515.7988 3465.6622 0.0000 0.0000 2316.7939 -16713.7290 218.5516 -19030.5229 -16708.9276 210.0625 201.0269 238.8249 51894.1916 -0.2607 -0.5402
ENERGY: 195000 3.9805 6.6706 11.0647 0.0000 -22324.9587 3361.9913 0.0000 0.0000 2179.6829 -16761.5687 205.6175 -18941.2516 -16756.7926 209.9736 -333.7810 -263.4042 52204.9732 -1.8683 -2.0087
ENERGY: 205000 4.6366 9.4404 12.0696 0.0000 -22333.4255 3404.0874 0.0000 0.0000 2242.3673 -16660.8241 211.5307 -18903.1914 -16656.7511 209.5377 -71.3473 -32.7824 52376.6020 1.5686 1.6642
ENERGY: 215000 4.2116 10.2710 11.2294 0.0000 -22505.5222 3549.2803 0.0000 0.0000 2239.0909 -16691.4390 211.2216 -18930.5300 -16688.0211 209.9255 561.6103 665.1901 51914.8008 3.1977 3.1071
ENERGY: 225000 3.5514 8.5919 10.6604 0.0000 -22397.1937 3295.8720 0.0000 0.0000 2221.4003 -16857.1177 209.5528 -19078.5180 -16853.9943 209.9409 -837.4894 -740.8481 52053.0053 0.9627 0.6727
TCL: Running 50000 steps at 240 kelvin.
TCL: Setting parameter langevinTemp to 240
TCL: Running for 50000 steps
ETITLE: TS BOND ANGLE DIHED IMPRP ELECT VDW BOUNDARY MISC KINETIC TOTAL TEMP POTENTIAL TOTAL3 TEMPAVG PRESSURE GPRESSURE VOLUME PRESSAVG GPRESSAVG
ENERGY: 225000 3.5514 8.5919 10.6604 0.0000 -22397.1937 3295.8720 0.0000 0.0000 2220.3010 -16858.2169 209.4491 -19078.5180 -16854.0379 209.4491 -821.2540 -741.9969 52053.0053 -821.2540 -741.9969
ENERGY: 235000 7.8144 8.8056 12.4648 0.0000 -21262.5658 3063.3942 0.0000 0.0000 2558.1542 -15611.9326 241.3200 -18170.0868 -15607.4535 241.7278 -203.9436 -128.6253 52264.5876 -0.5551 -0.4122
ENERGY: 245000 4.3393 9.4470 10.8795 0.0000 -21405.1432 3194.5207 0.0000 0.0000 2507.4177 -15678.5391 236.5339 -18185.9568 -15674.2258 240.0258 286.8937 384.6456 52588.8999 -0.6459 -0.7985
ENERGY: 255000 2.7110 4.9488 12.1551 0.0000 -21315.7640 3087.9233 0.0000 0.0000 2555.1523 -15652.8735 241.0369 -18208.0258 -15647.9305 240.4149 -261.7449 -163.4571 52763.5404 -0.8521 -0.6745
ENERGY: 265000 3.9244 11.3401 13.4066 0.0000 -21520.1922 3268.1056 0.0000 0.0000 2580.7661 -15642.6493 243.4531 -18223.4155 -15636.4706 240.7500 733.3202 842.2236 52317.0979 3.7371 3.4739
ENERGY: 275000 2.2092 11.6257 10.6683 0.0000 -21313.9157 3081.6632 0.0000 0.0000 2531.4270 -15676.3222 238.7988 -18207.7492 -15669.0653 239.8236 -147.4861 -43.2773 52322.5946 1.2214 1.4195
TCL: Running 50000 steps at 270 kelvin.
TCL: Setting parameter langevinTemp to 270
TCL: Running for 50000 steps
ETITLE: TS BOND ANGLE DIHED IMPRP ELECT VDW BOUNDARY MISC KINETIC TOTAL TEMP POTENTIAL TOTAL3 TEMPAVG PRESSURE GPRESSURE VOLUME PRESSAVG GPRESSAVG
ENERGY: 275000 2.2092 11.6257 10.6683 0.0000 -21313.9157 3081.6632 0.0000 0.0000 2530.1725 -15677.5768 238.6804 -18207.7492 -15673.6715 238.6804 -128.4064 -43.0928 52322.5946 -128.4064 -43.0928
ENERGY: 285000 7.1533 9.8747 12.9044 0.0000 -20479.6687 2961.3335 0.0000 0.0000 2910.7676 -14577.6352 274.5834 -17488.4029 -14572.9400 270.0118 354.3706 419.8947 53466.7036 2.3107 2.2685
ENERGY: 295000 6.1039 9.5636 10.1764 0.0000 -20241.1594 2849.4512 0.0000 0.0000 2869.1858 -14496.6786 270.6608 -17365.8644 -14490.9594 271.6719 157.9158 256.0911 53862.3221 4.6455 5.1070
ENERGY: 305000 5.5846 9.5098 11.4988 0.0000 -20160.8716 2752.9971 0.0000 0.0000 2830.7159 -14550.5653 267.0318 -17381.2812 -14546.0628 269.5418 -441.1553 -381.3240 53937.1067 5.5529 5.0309
ENERGY: 315000 4.2291 6.3138 10.1549 0.0000 -20433.7249 2897.4230 0.0000 0.0000 2893.3656 -14622.2384 272.9418 -17515.6040 -14617.3291 267.7055 -14.6167 125.5678 53627.6904 2.0410 1.9921
ENERGY: 325000 4.8594 11.9255 10.6089 0.0000 -20146.4707 2662.5790 0.0000 0.0000 2830.5690 -14625.9289 267.0179 -17456.4980 -14618.8173 269.9003 -827.8098 -731.6381 53723.2234 5.2841 5.3127
TCL: Running 1000000 steps at 300 kelvin.
TCL: Setting parameter langevinTemp to 300
TCL: Running for 1000000 steps
ETITLE: TS BOND ANGLE DIHED IMPRP ELECT VDW BOUNDARY MISC KINETIC TOTAL TEMP POTENTIAL TOTAL3 TEMPAVG PRESSURE GPRESSURE VOLUME PRESSAVG GPRESSAVG
ENERGY: 325000 4.8594 11.9255 10.6089 0.0000 -20146.4707 2662.5790 0.0000 0.0000 2829.1474 -14627.3505 266.8838 -17456.4980 -14622.5698 266.8838 -828.9804 -731.5312 53723.2234 -828.9804 -731.5312
ENERGY: 525000 3.0092 11.9291 10.0525 0.0000 -19392.9411 2650.0859 0.0000 0.0000 3176.9238 -13540.9407 299.6908 -16717.8644 -13536.3387 300.3278 377.4676 430.0654 54616.2887 4.4762 4.5839
ENERGY: 725000 5.3685 7.5615 9.2579 0.0000 -19309.4844 2540.3459 0.0000 0.0000 3198.4937 -13548.4570 301.7256 -16746.9506 -13540.2996 300.5106 -342.0863 -265.3201 55088.8400 0.4653 0.4980
ENERGY: 925000 2.8835 11.8122 10.2270 0.0000 -19481.5678 2622.7061 0.0000 0.0000 3137.5587 -13696.3803 295.9774 -16833.9390 -13690.3234 300.0907 -426.6144 -329.4411 55652.9677 4.5854 4.6734
ENERGY: 1125000 2.5982 9.8120 12.6465 0.0000 -19366.2491 2574.8779 0.0000 0.0000 3150.0981 -13616.2165 297.1603 -16766.3146 -13611.7887 298.7654 -147.5127 -72.6963 54732.4425 3.7720 3.7480
ENERGY: 1325000 2.8432 7.4813 11.9294 0.0000 -19354.7383 2629.9809 0.0000 0.0000 3168.7457 -13533.7578 298.9194 -16702.5035 -13529.9518 300.1783 123.3694 149.4555 55048.2751 4.5180 4.1796
TCL: Exiting due to exit command.
