Info: SIMULATION PARAMETERS:
Info: TIMESTEP               2
Info: NUMBER OF STEPS        0
Info: STEPS PER CYCLE        10
Info: PERIODIC CELL BASIS 1  39.806 0 0
Info: PERIODIC CELL BASIS 2  0 37.835 0
Info: PERIODIC CELL BASIS 3  0 0 42.247
Info: PERIODIC CELL CENTER   0 0 0
Info: WRAPPING WATERS AROUND PERIODIC BOUNDARIES ON OUTPUT.
Info: WRAPPING ALL CLUSTERS AROUND PERIODIC BOUNDARIES ON OUTPUT.
Info: FIRST LDB TIMESTEP     50
Info: LAST LDB TIMESTEP     -1
Info: HOM BACKGROUND SCALING 1
Info: PME BACKGROUND SCALING 1
Info: MIN ATOMS PER PATCH    40
Info: EMPTY PATCH LOAD       40 ATOMS
Info: INITIAL TEMPERATURE    300
Info: CENTER OF MASS MOVING INITIALLY? NO
Info: DIELECTRIC             1
Info: EXCLUDE                SCALED ONE-FOUR
Info: 1-4 ELECTROSTATICS SCALED BY 0.833333
Info: MODIFIED 1-4 VDW PARAMETERS WILL BE USED
Info: DCD FILENAME           mobley_7599023_min.dcd
Info: DCD FREQUENCY          5000
Info: DCD FIRST STEP         5000
Info: DCD FILE WILL CONTAIN UNIT CELL DATA
Info: XST FILENAME           mobley_7599023_min.xst
Info: XST FREQUENCY          5000
Info: NO VELOCITY DCD OUTPUT
Info: NO FORCE DCD OUTPUT
Info: OUTPUT FILENAME        mobley_7599023_min
Info: BINARY OUTPUT FILES WILL BE USED
Info: RESTART FILENAME       mobley_7599023_min.restart
Info: RESTART FREQUENCY      5000
Info: BINARY RESTART FILES WILL BE USED
Info: CUTOFF                 9
Info: PAIRLIST DISTANCE      11
Info: PAIRLIST SHRINK RATE   0.01
Info: PAIRLIST GROW RATE     0.01
Info: PAIRLIST TRIGGER       0.3
Info: PAIRLISTS PER CYCLE    2
Info: PAIRLISTS ENABLED
Info: MARGIN                 8
Info: HYDROGEN GROUP CUTOFF  2.5
Info: PATCH DIMENSION        21.5
Info: ENERGY OUTPUT STEPS    5000
Info: ENERGY EVALUATION STEPS    5000
Info: OUTPUT ENERGY PRECISION 4
Info: CROSSTERM ENERGY INCLUDED IN DIHEDRAL
Info: TIMING OUTPUT STEPS    50000
Info: PRESSURE OUTPUT STEPS  5000
Info: LANGEVIN DYNAMICS ACTIVE
Info: LANGEVIN TEMPERATURE   300
Info: LANGEVIN USING BBK INTEGRATOR
Info: LANGEVIN DAMPING COEFFICIENT IS 1 INVERSE PS
Info: LANGEVIN DYNAMICS APPLIED TO HYDROGENS
Info: LANGEVIN PISTON PRESSURE CONTROL ACTIVE
Info:        TARGET PRESSURE IS 1.01325 BAR
Info:     OSCILLATION PERIOD IS 50 FS
Info:             DECAY TIME IS 25 FS
Info:     PISTON TEMPERATURE IS 300 K
Info:       PRESSURE CONTROL IS GROUP-BASED
Info:    INITIAL STRAIN RATE IS 0 0 0
Info:       CELL FLUCTUATION IS ISOTROPIC
Info: PARTICLE MESH EWALD (PME) ACTIVE
Info: PME TOLERANCE               1e-06
Info: PME EWALD COEFFICIENT       0.348832
Info: PME INTERPOLATION ORDER     4
Info: PME GRID DIMENSIONS         40 40 44
Info: PME MAXIMUM GRID SPACING    1
Info: FULL ELECTROSTATIC EVALUATION FREQUENCY      2
Info: USING VERLET I (r-RESPA) MTS SCHEME.
Info: C1 SPLITTING OF LONG RANGE ELECTROSTATICS
Info: PLACING ATOMS IN PATCHES BY HYDROGEN GROUPS
Info: RIGID BONDS TO HYDROGEN : ALL
Info:         ERROR TOLERANCE : 1e-08
Info:          MAX ITERATIONS : 100
Info: RIGID WATER USING SETTLE ALGORITHM
Info: RANDOM NUMBER SEED     1741395364
Info: USE HYDROGEN BONDS?    NO
Info: Using AMBER format force field!
Info: AMBER PARM FILE        mobley_7599023.prmtop
Info: COORDINATE PDB         mobley_7599023.pdb
Info: Exclusions will be read from PARM file!
Info: SCNB (VDW SCALING)     2
Info: USING ARITHMETIC MEAN TO COMBINE L-J SIGMA PARAMETERS
Info: SUMMARY OF PARAMETERS:
Info: 5 BONDS
Info: 3 ANGLES
Info:   3 HARMONIC
Info:   0 COSINE-BASED
Info: 2 DIHEDRAL
Info: 0 IMPROPER
Info: 0 CROSSTERM
Info: 0 VDW
Info: 15 VDW_PAIRS
Info: 0 NBTHOLE_PAIRS
Info: STRUCTURE SUMMARY:
Info: 4614 ATOMS
Info: 4614 BONDS
Info: 18 ANGLES
Info: 30 DIHEDRALS
Info: 0 IMPROPERS
Info: 0 CROSSTERMS
Info: 4653 EXCLUSIONS
Info: 4607 RIGID BONDS
Info: 9235 DEGREES OF FREEDOM
Info: 1541 HYDROGEN GROUPS
Info: 3 ATOMS IN LARGEST HYDROGEN GROUP
Info: 1541 MIGRATION GROUPS
Info: 3 ATOMS IN LARGEST MIGRATION GROUP
Info: TOTAL MASS = 27793.5 amu
Info: TOTAL CHARGE = -5.58794e-09 e
Info: MASS DENSITY = 0.725379 g/cm^3
Info: ATOM DENSITY = 0.0725169 atoms/A^3
Info: ADDED 0 IMPLICIT EXCLUSIONS
Info: NONBONDED TABLE R-SQUARED SPACING: 0.0625
Info: NONBONDED TABLE SIZE: 705 POINTS
Info: REMOVING COM VELOCITY 0.0117354 0.0641747 -0.0925455
TCL: Minimizing for 2000 steps
ETITLE: TS BOND ANGLE DIHED IMPRP ELECT VDW BOUNDARY MISC KINETIC TOTAL TEMP POTENTIAL TOTAL3 TEMPAVG PRESSURE GPRESSURE VOLUME PRESSAVG GPRESSAVG
ENERGY: 0 0.1055 0.0661 0.0000 0.0000 -14379.0612 1659.9045 0.0000 0.0000 0.0000 -12718.9851 0.0000 -12718.9851 -12718.9851 0.0000 11296.9149 -15737.7144 63626.5172 11296.9149 -15737.7144
ENERGY: 400 2.3622 0.7734 0.3517 0.0000 -19420.2291 2900.3006 0.0000 0.0000 0.0000 -16516.4411 0.0000 -16516.4411 -16516.4411 0.0000 16233.8828 16366.3092 63626.5172 16233.8828 16366.3092
ENERGY: 800 1.2167 0.3884 0.0324 0.0000 -20336.2700 3260.2275 0.0000 0.0000 0.0000 -17074.4050 0.0000 -17074.4050 -17074.4050 0.0000 18018.5968 18122.1783 63626.5172 18018.5968 18122.1783
ENERGY: 1200 0.3242 0.1654 0.0709 0.0000 -20805.8664 3476.9794 0.0000 0.0000 0.0000 -17328.3265 0.0000 -17328.3265 -17328.3265 0.0000 19180.3634 19268.8894 63626.5172 19180.3634 19268.8894
ENERGY: 1600 0.2713 0.0978 0.0557 0.0000 -20954.9538 3526.1635 0.0000 0.0000 0.0000 -17428.3655 0.0000 -17428.3655 -17428.3655 0.0000 19462.9747 19552.2226 63626.5172 19462.9747 19552.2226
ENERGY: 2000 0.2499 0.0703 0.0184 0.0000 -21050.5666 3555.8135 0.0000 0.0000 0.0000 -17494.4145 0.0000 -17494.4145 -17494.4145 0.0000 19652.6715 19739.0850 63626.5172 19652.6715 19739.0850
TCL: Exiting due to exit command.
Info: NAMD 3.0.1 for Linux-x86_64-multicore
Info: Please visit http://www.ks.uiuc.edu/Research/namd/
Info: for updates, documentation, and support information.
Info: Please cite Phillips et al., J. Chem. Phys. 153:044130 (2020) doi:10.1063/5.0014475
Info: in all publications reporting results obtained with NAMD.
Info: Based on Charm++/Converse 80000 for multicore-linux-x86_64-gcc
Info: Built Mon Oct 14 11:11:06 CDT 2024 by dhardy on athine.ks.uiuc.edu
Info: 1 NAMD  3.0.1  Linux-x86_64-multicore  16    k005  z5358697
Info: Running on 16 processors, 1 nodes, 1 physical nodes.
Info: CPU topology information available.
Info: Charm++/Converse parallel runtime startup completed at 0.01191 s
Info: 1043.45 MB of memory in use based on /proc/self/stat
Info: Configuration file is mobley_7599023_equil.namd
Info: Working in the current directory /srv/scratch/z5358697/prod_prep_9/7599023
TCL: Running 25000 steps at 30 kelvin.
TCL: Suspending until startup complete.
Info: SIMULATION PARAMETERS:
Info: TIMESTEP               2
Info: NUMBER OF STEPS        0
Info: STEPS PER CYCLE        10
Info: PERIODIC CELL BASIS 1  39.806 0 0
Info: PERIODIC CELL BASIS 2  0 37.835 0
Info: PERIODIC CELL BASIS 3  0 0 42.247
Info: PERIODIC CELL CENTER   0 0 0
Info: WRAPPING WATERS AROUND PERIODIC BOUNDARIES ON OUTPUT.
Info: WRAPPING ALL CLUSTERS AROUND PERIODIC BOUNDARIES ON OUTPUT.
Info: FIRST LDB TIMESTEP     50
Info: LAST LDB TIMESTEP     -1
Info: HOM BACKGROUND SCALING 1
Info: PME BACKGROUND SCALING 1
Info: MIN ATOMS PER PATCH    40
Info: EMPTY PATCH LOAD       40 ATOMS
Info: INITIAL TEMPERATURE    300
Info: CENTER OF MASS MOVING INITIALLY? NO
Info: DIELECTRIC             1
Info: EXCLUDE                SCALED ONE-FOUR
Info: 1-4 ELECTROSTATICS SCALED BY 0.833333
Info: MODIFIED 1-4 VDW PARAMETERS WILL BE USED
Info: DCD FILENAME           mobley_7599023_equil.dcd
Info: DCD FREQUENCY          5000
Info: DCD FIRST STEP         5000
Info: DCD FILE WILL CONTAIN UNIT CELL DATA
Info: XST FILENAME           mobley_7599023_equil.xst
Info: XST FREQUENCY          5000
Info: NO VELOCITY DCD OUTPUT
Info: NO FORCE DCD OUTPUT
Info: OUTPUT FILENAME        mobley_7599023_equil
Info: BINARY OUTPUT FILES WILL BE USED
Info: RESTART FILENAME       mobley_7599023_equil.restart
Info: RESTART FREQUENCY      5000
Info: BINARY RESTART FILES WILL BE USED
Info: CUTOFF                 9
Info: PAIRLIST DISTANCE      11
Info: PAIRLIST SHRINK RATE   0.01
Info: PAIRLIST GROW RATE     0.01
Info: PAIRLIST TRIGGER       0.3
Info: PAIRLISTS PER CYCLE    2
Info: PAIRLISTS ENABLED
Info: MARGIN                 8
Info: HYDROGEN GROUP CUTOFF  2.5
Info: PATCH DIMENSION        21.5
Info: ENERGY OUTPUT STEPS    5000
Info: ENERGY EVALUATION STEPS    5000
Info: OUTPUT ENERGY PRECISION 4
Info: CROSSTERM ENERGY INCLUDED IN DIHEDRAL
Info: TIMING OUTPUT STEPS    50000
Info: PRESSURE OUTPUT STEPS  5000
Info: LANGEVIN DYNAMICS ACTIVE
Info: LANGEVIN TEMPERATURE   30
Info: LANGEVIN USING BBK INTEGRATOR
Info: LANGEVIN DAMPING COEFFICIENT IS 1 INVERSE PS
Info: LANGEVIN DYNAMICS APPLIED TO HYDROGENS
Info: LANGEVIN PISTON PRESSURE CONTROL ACTIVE
Info:        TARGET PRESSURE IS 1.01325 BAR
Info:     OSCILLATION PERIOD IS 50 FS
Info:             DECAY TIME IS 25 FS
Info:     PISTON TEMPERATURE IS 300 K
Info:       PRESSURE CONTROL IS GROUP-BASED
Info:    INITIAL STRAIN RATE IS 0 0 0
Info:       CELL FLUCTUATION IS ISOTROPIC
Info: PARTICLE MESH EWALD (PME) ACTIVE
Info: PME TOLERANCE               1e-06
Info: PME EWALD COEFFICIENT       0.348832
Info: PME INTERPOLATION ORDER     4
Info: PME GRID DIMENSIONS         40 40 44
Info: PME MAXIMUM GRID SPACING    1
Info: FULL ELECTROSTATIC EVALUATION FREQUENCY      2
Info: USING VERLET I (r-RESPA) MTS SCHEME.
Info: C1 SPLITTING OF LONG RANGE ELECTROSTATICS
Info: PLACING ATOMS IN PATCHES BY HYDROGEN GROUPS
Info: RIGID BONDS TO HYDROGEN : ALL
Info:         ERROR TOLERANCE : 1e-08
Info:          MAX ITERATIONS : 100
Info: RIGID WATER USING SETTLE ALGORITHM
Info: RANDOM NUMBER SEED     1741395377
Info: USE HYDROGEN BONDS?    NO
Info: Using AMBER format force field!
Info: AMBER PARM FILE        mobley_7599023.prmtop
Info: COORDINATE PDB         mobley_7599023.pdb
Info: Exclusions will be read from PARM file!
Info: SCNB (VDW SCALING)     2
Info: USING ARITHMETIC MEAN TO COMBINE L-J SIGMA PARAMETERS
Info: BINARY COORDINATES     mobley_7599023_min.coor
Info: SUMMARY OF PARAMETERS:
Info: 5 BONDS
Info: 3 ANGLES
Info:   3 HARMONIC
Info:   0 COSINE-BASED
Info: 2 DIHEDRAL
Info: 0 IMPROPER
Info: 0 CROSSTERM
Info: 0 VDW
Info: 15 VDW_PAIRS
Info: 0 NBTHOLE_PAIRS
Info: STRUCTURE SUMMARY:
Info: 4614 ATOMS
Info: 4614 BONDS
Info: 18 ANGLES
Info: 30 DIHEDRALS
Info: 0 IMPROPERS
Info: 0 CROSSTERMS
Info: 4653 EXCLUSIONS
Info: 4607 RIGID BONDS
Info: 9235 DEGREES OF FREEDOM
Info: 1541 HYDROGEN GROUPS
Info: 3 ATOMS IN LARGEST HYDROGEN GROUP
Info: 1541 MIGRATION GROUPS
Info: 3 ATOMS IN LARGEST MIGRATION GROUP
Info: TOTAL MASS = 27793.5 amu
Info: TOTAL CHARGE = -5.58794e-09 e
Info: MASS DENSITY = 0.725379 g/cm^3
Info: ATOM DENSITY = 0.0725169 atoms/A^3
Info: ADDED 0 IMPLICIT EXCLUSIONS
Info: NONBONDED TABLE R-SQUARED SPACING: 0.0625
Info: NONBONDED TABLE SIZE: 705 POINTS
Info: REMOVING COM VELOCITY -0.0912424 -0.108633 -0.122778
TCL: Running for 25000 steps
ETITLE: TS BOND ANGLE DIHED IMPRP ELECT VDW BOUNDARY MISC KINETIC TOTAL TEMP POTENTIAL TOTAL3 TEMPAVG PRESSURE GPRESSURE VOLUME PRESSAVG GPRESSAVG
ENERGY: 0 0.2499 0.0703 0.0184 0.0000 -21050.5665 3555.8135 0.0000 0.0000 2769.9736 -14724.4409 301.8764 -17494.4145 -14723.8412 301.8764 -113.5457 -82.7196 63626.5172 -113.5457 -82.7196
ENERGY: 5000 0.3147 0.1908 0.2148 0.0000 -22024.5352 3720.9607 0.0000 0.0000 272.4794 -18030.3749 29.6953 -18302.8542 -18030.0075 47.8172 -384.2447 -319.0138 44311.0328 0.5344 0.3426
ENERGY: 10000 0.5776 0.2597 0.5075 0.0000 -22098.7851 3738.9660 0.0000 0.0000 272.2780 -18086.1962 29.6733 -18358.4742 -18085.5110 30.1671 -457.4041 -409.6885 44316.7275 -0.3623 -0.3561
ENERGY: 15000 0.3734 0.2847 0.3921 0.0000 -22221.0924 3842.2148 0.0000 0.0000 278.5995 -18099.2278 30.3622 -18377.8273 -18098.2498 30.1096 134.2674 174.1508 44122.2001 9.2891 9.4328
ENERGY: 20000 1.5125 0.1935 0.2439 0.0000 -22087.7015 3696.1884 0.0000 0.0000 276.6694 -18112.8939 30.1519 -18389.5633 -18112.4715 30.1617 -830.9039 -773.2274 44472.4656 5.6403 5.7563
ENERGY: 25000 0.3729 0.2564 0.1405 0.0000 -22145.3108 3737.7095 0.0000 0.0000 271.3523 -18135.4793 29.5724 -18406.8315 -18134.4328 30.0260 -552.3259 -502.4725 44290.9809 3.2114 2.9443
TCL: Running 25000 steps at 60 kelvin.
TCL: Setting parameter langevinTemp to 60
TCL: Running for 25000 steps
ETITLE: TS BOND ANGLE DIHED IMPRP ELECT VDW BOUNDARY MISC KINETIC TOTAL TEMP POTENTIAL TOTAL3 TEMPAVG PRESSURE GPRESSURE VOLUME PRESSAVG GPRESSAVG
ENERGY: 25000 0.3729 0.2564 0.1405 0.0000 -22145.3108 3737.7095 0.0000 0.0000 271.2120 -18135.6196 29.5571 -18406.8315 -18134.9917 29.5571 -551.0375 -502.4609 44290.9809 -551.0375 -502.4609
ENERGY: 30000 0.2954 0.5395 0.5987 0.0000 -21772.4478 3624.5895 0.0000 0.0000 556.9822 -17589.4425 60.7009 -18146.4247 -17588.0814 57.2372 -469.6969 -434.7460 44441.8340 0.0168 0.4612
ENERGY: 35000 0.5561 0.4966 0.3938 0.0000 -21769.2171 3572.5772 0.0000 0.0000 546.8086 -17648.3849 59.5921 -18195.1935 -17646.7457 60.6392 -779.1477 -749.1186 44405.7736 -1.4451 -1.2585
ENERGY: 40000 0.2158 0.4106 0.9205 0.0000 -22002.4170 3791.1256 0.0000 0.0000 556.1800 -17653.5645 60.6134 -18209.7445 -17652.5712 60.3031 356.5686 406.2204 44096.5237 0.5583 1.0802
ENERGY: 45000 0.4923 0.3561 0.4572 0.0000 -21944.0142 3714.1829 0.0000 0.0000 547.3852 -17681.1405 59.6550 -18228.5258 -17680.1878 60.1854 -99.6480 -89.7363 44175.2368 1.2646 1.0478
ENERGY: 50000 0.3839 0.2229 0.6619 0.0000 -21927.2900 3672.0219 0.0000 0.0000 544.3050 -17709.6944 59.3193 -18253.9994 -17708.7115 60.7049 -486.5940 -447.9233 44271.1095 2.9441 2.8737
TCL: Running 25000 steps at 90 kelvin.
TCL: Setting parameter langevinTemp to 90
TCL: Running for 25000 steps
ETITLE: TS BOND ANGLE DIHED IMPRP ELECT VDW BOUNDARY MISC KINETIC TOTAL TEMP POTENTIAL TOTAL3 TEMPAVG PRESSURE GPRESSURE VOLUME PRESSAVG GPRESSAVG
ENERGY: 50000 0.3839 0.2229 0.6619 0.0000 -21927.2900 3672.0219 0.0000 0.0000 544.0357 -17709.9637 59.2899 -18253.9994 -17708.5345 59.2899 -492.4082 -448.1954 44271.1095 -492.4082 -448.1954
ENERGY: 55000 1.1377 1.1799 1.7388 0.0000 -21522.3688 3556.1814 0.0000 0.0000 843.1699 -17118.9611 91.8901 -17962.1310 -17117.0455 86.7778 -443.4498 -402.0250 44662.9735 1.3591 1.3913
ENERGY: 60000 0.5799 0.9500 1.6796 0.0000 -21442.9294 3464.8132 0.0000 0.0000 839.2600 -17135.6468 91.4640 -17974.9068 -17133.9479 89.8876 -1092.6482 -1014.5631 44849.5295 4.0280 3.9044
ENERGY: 65000 0.3696 0.3794 1.0495 0.0000 -21746.4809 3728.7238 0.0000 0.0000 822.9886 -17192.9699 89.6907 -18015.9585 -17191.1149 89.9852 352.1709 421.6496 44423.7435 -0.5913 -0.4703
ENERGY: 70000 0.5067 1.1546 0.9919 0.0000 -21807.5192 3775.4391 0.0000 0.0000 821.9617 -17207.4653 89.5788 -18029.4270 -17205.2384 90.7536 557.8033 591.3736 44429.5626 3.5792 3.2306
ENERGY: 75000 1.0597 0.5699 0.9858 0.0000 -21611.8707 3562.8823 0.0000 0.0000 818.6632 -17227.7098 89.2193 -18046.3729 -17224.3169 90.1917 -686.3361 -662.5233 44767.5944 4.9810 4.7582
TCL: Running 25000 steps at 120 kelvin.
TCL: Setting parameter langevinTemp to 120
TCL: Running for 25000 steps
ETITLE: TS BOND ANGLE DIHED IMPRP ELECT VDW BOUNDARY MISC KINETIC TOTAL TEMP POTENTIAL TOTAL3 TEMPAVG PRESSURE GPRESSURE VOLUME PRESSAVG GPRESSAVG
ENERGY: 75000 1.0597 0.5699 0.9858 0.0000 -21611.8707 3562.8823 0.0000 0.0000 818.2643 -17228.1087 89.1758 -18046.3729 -17226.4693 89.1758 -720.0278 -662.5031 44767.5944 -720.0278 -662.5031
ENERGY: 80000 0.7512 1.8241 0.7947 0.0000 -21227.1465 3472.3894 0.0000 0.0000 1098.8085 -16652.5785 119.7500 -17751.3871 -16649.2843 117.2450 -547.6632 -434.1980 44787.5426 3.4166 2.4649
ENERGY: 85000 0.2155 0.5750 1.0859 0.0000 -21351.9658 3537.0843 0.0000 0.0000 1091.6039 -16721.4012 118.9648 -17813.0051 -16719.0390 120.2440 -209.7671 -173.0951 44863.7785 0.7702 1.3620
ENERGY: 90000 0.7331 1.0221 1.4000 0.0000 -21349.2471 3580.4111 0.0000 0.0000 1108.4167 -16657.2641 120.7971 -17765.6808 -16655.1314 120.1488 119.4229 167.3351 44482.9353 8.1983 8.0617
ENERGY: 95000 1.1175 1.6233 1.0118 0.0000 -21358.3781 3541.3265 0.0000 0.0000 1065.8259 -16747.4731 116.1555 -17813.2990 -16746.1241 120.3723 -212.2704 -151.4363 44527.5768 -1.2777 -0.8789
ENERGY: 100000 1.2123 0.5690 0.8349 0.0000 -21515.5351 3672.8243 0.0000 0.0000 1083.2774 -16756.8173 118.0574 -17840.0947 -16754.0116 119.0423 558.8121 635.3128 44195.4776 1.2551 1.7627
TCL: Running 25000 steps at 150 kelvin.
TCL: Setting parameter langevinTemp to 150
TCL: Running for 25000 steps
ETITLE: TS BOND ANGLE DIHED IMPRP ELECT VDW BOUNDARY MISC KINETIC TOTAL TEMP POTENTIAL TOTAL3 TEMPAVG PRESSURE GPRESSURE VOLUME PRESSAVG GPRESSAVG
ENERGY: 100000 1.2123 0.5690 0.8349 0.0000 -21515.5351 3672.8243 0.0000 0.0000 1082.7261 -16757.3686 117.9973 -17840.0947 -16755.2261 117.9973 580.1692 635.6123 44195.4776 580.1692 635.6123
ENERGY: 105000 0.8806 0.9430 1.4066 0.0000 -20887.5867 3364.3646 0.0000 0.0000 1352.8673 -16167.1247 147.4377 -17519.9921 -16164.1280 145.8630 -447.9322 -398.6373 44842.4174 4.8435 5.1727
ENERGY: 110000 1.6541 1.1493 0.4884 0.0000 -20822.1137 3320.2625 0.0000 0.0000 1355.2006 -16143.3587 147.6920 -17498.5593 -16138.5589 150.6444 -801.9010 -734.0055 45139.0188 2.6069 2.6905
ENERGY: 115000 0.6498 2.0903 1.9635 0.0000 -20968.6201 3438.6490 0.0000 0.0000 1407.2183 -16118.0493 153.3610 -17525.2676 -16114.7676 149.5761 -67.2299 44.5708 44652.1567 0.6734 0.0698
ENERGY: 120000 0.4337 0.7219 0.8017 0.0000 -21114.7460 3532.4282 0.0000 0.0000 1395.1082 -16185.2523 152.0412 -17580.3605 -16180.5287 149.7607 343.7885 404.3008 44617.9819 0.7271 0.4910
ENERGY: 125000 1.1895 1.1333 1.0722 0.0000 -20965.6476 3417.3762 0.0000 0.0000 1362.5155 -16182.3609 148.4892 -17544.8764 -16178.3738 149.9774 -270.8899 -169.5174 44867.7933 10.5702 10.3003
TCL: Running 50000 steps at 180 kelvin.
TCL: Setting parameter langevinTemp to 180
TCL: Running for 50000 steps
ETITLE: TS BOND ANGLE DIHED IMPRP ELECT VDW BOUNDARY MISC KINETIC TOTAL TEMP POTENTIAL TOTAL3 TEMPAVG PRESSURE GPRESSURE VOLUME PRESSAVG GPRESSAVG
ENERGY: 125000 1.1895 1.1333 1.0722 0.0000 -20965.6476 3417.3762 0.0000 0.0000 1361.8547 -16183.0217 148.4172 -17544.8764 -16180.8509 148.4172 -225.6616 -168.8013 44867.7933 -225.6616 -168.8013
ENERGY: 135000 1.0721 2.6368 1.1232 0.0000 -20527.4752 3352.6514 0.0000 0.0000 1674.4628 -15495.5288 182.4858 -17169.9916 -15491.4085 180.6364 213.9230 301.1504 44993.1773 -0.3263 -0.4897
ENERGY: 145000 0.6297 2.0746 3.6198 0.0000 -20520.0199 3252.5019 0.0000 0.0000 1613.6601 -15647.5336 175.8594 -17261.1938 -15643.4703 178.3958 -391.6096 -350.9354 44967.9964 1.4521 1.0669
ENERGY: 155000 0.6993 0.8100 1.3872 0.0000 -20426.2307 3283.6770 0.0000 0.0000 1650.8874 -15488.7698 179.9165 -17139.6572 -15484.3793 179.2987 0.0607 87.1227 44998.0813 -2.2425 -2.1038
ENERGY: 165000 0.7321 1.1426 2.0450 0.0000 -20408.4661 3284.8425 0.0000 0.0000 1646.1003 -15473.6036 179.3948 -17119.7039 -15468.1367 180.8803 59.1040 134.3392 44957.7121 7.2511 7.0370
ENERGY: 175000 0.4888 1.7128 2.3933 0.0000 -20458.9950 3280.8809 0.0000 0.0000 1642.9135 -15530.6056 179.0475 -17173.5192 -15526.5260 180.2549 -157.5861 -75.8679 45196.5186 9.0689 8.2634
TCL: Running 50000 steps at 210 kelvin.
TCL: Setting parameter langevinTemp to 210
TCL: Running for 50000 steps
ETITLE: TS BOND ANGLE DIHED IMPRP ELECT VDW BOUNDARY MISC KINETIC TOTAL TEMP POTENTIAL TOTAL3 TEMPAVG PRESSURE GPRESSURE VOLUME PRESSAVG GPRESSAVG
ENERGY: 175000 0.4888 1.7128 2.3933 0.0000 -20458.9950 3280.8809 0.0000 0.0000 1642.0930 -15531.4262 178.9580 -17173.5192 -15528.3729 178.9580 -157.2143 -75.4617 45196.5186 -157.2143 -75.4617
ENERGY: 185000 1.4746 2.1563 4.0687 0.0000 -19458.6877 2964.1846 0.0000 0.0000 1948.4523 -14538.3511 212.3456 -16486.8034 -14534.2665 210.7085 -61.4067 3.5725 44876.1065 4.7833 4.8725
ENERGY: 195000 3.8158 3.4893 1.6415 0.0000 -19324.9258 2892.7738 0.0000 0.0000 1935.7130 -14487.4924 210.9572 -16423.2054 -14481.4415 209.8634 -313.0814 -240.2926 44913.3251 1.7181 1.8294
ENERGY: 205000 2.5529 0.7794 2.2994 0.0000 -19546.9294 3067.3758 0.0000 0.0000 1867.6303 -14606.2916 203.5375 -16473.9219 -14603.5986 209.5525 647.5418 681.9325 44450.0356 7.9108 7.7839
ENERGY: 215000 1.0511 0.9450 1.1160 0.0000 -19508.6794 3018.5421 0.0000 0.0000 1932.6204 -14554.4048 210.6202 -16487.0252 -14550.2097 210.6745 125.6144 194.0512 45051.6814 2.3006 2.5792
ENERGY: 225000 1.8658 2.2458 1.1008 0.0000 -19347.2450 2829.6263 0.0000 0.0000 1919.1593 -14593.2469 209.1532 -16512.4062 -14589.7003 210.3565 -963.9931 -872.7512 45257.9232 -2.1157 -2.6762
TCL: Running 50000 steps at 240 kelvin.
TCL: Setting parameter langevinTemp to 240
TCL: Running for 50000 steps
ETITLE: TS BOND ANGLE DIHED IMPRP ELECT VDW BOUNDARY MISC KINETIC TOTAL TEMP POTENTIAL TOTAL3 TEMPAVG PRESSURE GPRESSURE VOLUME PRESSAVG GPRESSAVG
ENERGY: 225000 1.8658 2.2458 1.1008 0.0000 -19347.2450 2829.6263 0.0000 0.0000 1918.2126 -14594.1936 209.0500 -16512.4062 -14590.3236 209.0500 -954.4958 -873.0778 45257.9232 -954.4958 -873.0778
ENERGY: 235000 2.2551 3.0224 2.1751 0.0000 -18438.6943 2646.2010 0.0000 0.0000 2212.4340 -13572.6066 241.1148 -15785.0407 -13570.1937 239.9190 -127.5649 -67.6011 45361.6010 9.1416 9.6441
ENERGY: 245000 1.4841 1.6322 2.4473 0.0000 -18467.8600 2690.7271 0.0000 0.0000 2171.1399 -13600.4294 236.6145 -15771.5693 -13596.6997 240.7191 -31.8591 36.6856 45574.1092 7.3230 6.4408
ENERGY: 255000 2.7019 1.8220 1.9407 0.0000 -18525.2302 2736.6677 0.0000 0.0000 2249.0915 -13533.0064 245.1098 -15782.0979 -13526.9139 240.4661 302.9172 386.1523 45138.6682 3.3391 2.9489
ENERGY: 265000 1.3388 2.0991 2.0589 0.0000 -18552.6740 2780.0935 0.0000 0.0000 2234.7805 -13532.3032 243.5501 -15767.0837 -13527.0086 240.6561 373.6304 452.5100 45628.2806 5.0609 4.9984
ENERGY: 275000 1.6795 4.0502 2.2044 0.0000 -18462.9249 2646.0736 0.0000 0.0000 2182.3994 -13626.5178 237.8415 -15808.9172 -13623.3087 240.6632 -375.6768 -303.9558 45457.5192 1.9767 1.9108
TCL: Running 50000 steps at 270 kelvin.
TCL: Setting parameter langevinTemp to 270
TCL: Running for 50000 steps
ETITLE: TS BOND ANGLE DIHED IMPRP ELECT VDW BOUNDARY MISC KINETIC TOTAL TEMP POTENTIAL TOTAL3 TEMPAVG PRESSURE GPRESSURE VOLUME PRESSAVG GPRESSAVG
ENERGY: 275000 1.6795 4.0502 2.2044 0.0000 -18462.9249 2646.0736 0.0000 0.0000 2181.2954 -13627.6217 237.7212 -15808.9172 -13623.4791 237.7212 -407.1455 -305.6992 45457.5192 -407.1455 -305.6992
ENERGY: 285000 1.6292 1.3172 2.1044 0.0000 -17587.4909 2444.3439 0.0000 0.0000 2422.5761 -12715.5200 264.0164 -15138.0961 -12710.8365 268.5754 -13.9272 85.9706 46483.8211 -3.5943 -3.4965
ENERGY: 295000 1.3794 3.3148 3.4240 0.0000 -17692.6297 2545.0747 0.0000 0.0000 2455.9187 -12683.5181 267.6501 -15139.4368 -12675.8244 269.6452 464.6659 547.6704 45992.8384 0.2070 0.6661
ENERGY: 305000 2.0482 1.8123 3.1461 0.0000 -17652.0191 2506.6529 0.0000 0.0000 2459.4267 -12678.9330 268.0324 -15138.3597 -12676.8543 269.9245 301.0382 351.0985 46249.6937 4.2709 3.7450
ENERGY: 315000 3.1278 4.5476 1.2887 0.0000 -17466.0770 2296.2444 0.0000 0.0000 2457.2033 -12703.6652 267.7901 -15160.8685 -12695.8096 268.7517 -1056.4965 -967.1612 46455.8484 -0.4827 -0.5891
ENERGY: 325000 3.7323 2.7931 2.6371 0.0000 -17834.2145 2595.7734 0.0000 0.0000 2459.6999 -12769.5787 268.0622 -15229.2786 -12764.1307 268.5734 538.2057 559.7947 46180.5439 2.8981 3.0186
TCL: Running 1000000 steps at 300 kelvin.
TCL: Setting parameter langevinTemp to 300
TCL: Running for 1000000 steps
ETITLE: TS BOND ANGLE DIHED IMPRP ELECT VDW BOUNDARY MISC KINETIC TOTAL TEMP POTENTIAL TOTAL3 TEMPAVG PRESSURE GPRESSURE VOLUME PRESSAVG GPRESSAVG
ENERGY: 325000 3.7323 2.7931 2.6371 0.0000 -17834.2145 2595.7734 0.0000 0.0000 2458.4959 -12770.7827 267.9310 -15229.2786 -12768.5293 267.9310 484.3939 560.1825 46180.5439 484.3939 560.1825
ENERGY: 525000 1.7078 4.6828 2.3092 0.0000 -16772.1773 2308.2710 0.0000 0.0000 2751.1082 -11704.0983 299.8204 -14455.2064 -11700.9841 299.9451 194.2580 297.0621 47620.2044 4.9421 5.2230
ENERGY: 725000 1.3497 4.9053 3.7764 0.0000 -16695.7396 2236.1365 0.0000 0.0000 2836.4498 -11613.1220 309.1211 -14449.5718 -11607.2926 301.5676 -3.4324 99.2716 47587.9546 2.8275 2.5480
ENERGY: 925000 2.0363 2.0102 1.0682 0.0000 -16695.7420 2246.0802 0.0000 0.0000 2667.3261 -11777.2210 290.6897 -14444.5470 -11773.7155 299.3280 -129.2706 -23.7863 47747.2213 -0.7228 -0.6017
ENERGY: 1125000 1.5882 4.6585 2.3803 0.0000 -16781.8754 2258.7199 0.0000 0.0000 2762.6392 -11751.8892 301.0771 -14514.5284 -11746.3475 301.4262 221.6340 248.2197 47176.4458 3.7407 3.4924
ENERGY: 1325000 1.3235 5.3371 2.1764 0.0000 -16597.3101 2218.1543 0.0000 0.0000 2795.9653 -11574.3534 304.7090 -14370.3187 -11569.6831 300.4294 -108.8365 -20.9108 48309.1412 0.2979 -0.2143
TCL: Exiting due to exit command.
