Info: SIMULATION PARAMETERS:
Info: TIMESTEP               2
Info: NUMBER OF STEPS        0
Info: STEPS PER CYCLE        10
Info: PERIODIC CELL BASIS 1  39.546 0 0
Info: PERIODIC CELL BASIS 2  0 39.115 0
Info: PERIODIC CELL BASIS 3  0 0 39.271
Info: PERIODIC CELL CENTER   0 0 0
Info: WRAPPING WATERS AROUND PERIODIC BOUNDARIES ON OUTPUT.
Info: WRAPPING ALL CLUSTERS AROUND PERIODIC BOUNDARIES ON OUTPUT.
Info: FIRST LDB TIMESTEP     50
Info: LAST LDB TIMESTEP     -1
Info: HOM BACKGROUND SCALING 1
Info: PME BACKGROUND SCALING 1
Info: MIN ATOMS PER PATCH    40
Info: EMPTY PATCH LOAD       40 ATOMS
Info: INITIAL TEMPERATURE    300
Info: CENTER OF MASS MOVING INITIALLY? NO
Info: DIELECTRIC             1
Info: EXCLUDE                SCALED ONE-FOUR
Info: 1-4 ELECTROSTATICS SCALED BY 0.833333
Info: MODIFIED 1-4 VDW PARAMETERS WILL BE USED
Info: DCD FILENAME           mobley_6632459_min.dcd
Info: DCD FREQUENCY          5000
Info: DCD FIRST STEP         5000
Info: DCD FILE WILL CONTAIN UNIT CELL DATA
Info: XST FILENAME           mobley_6632459_min.xst
Info: XST FREQUENCY          5000
Info: NO VELOCITY DCD OUTPUT
Info: NO FORCE DCD OUTPUT
Info: OUTPUT FILENAME        mobley_6632459_min
Info: BINARY OUTPUT FILES WILL BE USED
Info: RESTART FILENAME       mobley_6632459_min.restart
Info: RESTART FREQUENCY      5000
Info: BINARY RESTART FILES WILL BE USED
Info: CUTOFF                 9
Info: PAIRLIST DISTANCE      11
Info: PAIRLIST SHRINK RATE   0.01
Info: PAIRLIST GROW RATE     0.01
Info: PAIRLIST TRIGGER       0.3
Info: PAIRLISTS PER CYCLE    2
Info: PAIRLISTS ENABLED
Info: MARGIN                 8
Info: HYDROGEN GROUP CUTOFF  2.5
Info: PATCH DIMENSION        21.5
Info: ENERGY OUTPUT STEPS    5000
Info: ENERGY EVALUATION STEPS    5000
Info: OUTPUT ENERGY PRECISION 4
Info: CROSSTERM ENERGY INCLUDED IN DIHEDRAL
Info: TIMING OUTPUT STEPS    50000
Info: PRESSURE OUTPUT STEPS  5000
Info: LANGEVIN DYNAMICS ACTIVE
Info: LANGEVIN TEMPERATURE   300
Info: LANGEVIN USING BBK INTEGRATOR
Info: LANGEVIN DAMPING COEFFICIENT IS 1 INVERSE PS
Info: LANGEVIN DYNAMICS APPLIED TO HYDROGENS
Info: LANGEVIN PISTON PRESSURE CONTROL ACTIVE
Info:        TARGET PRESSURE IS 1.01325 BAR
Info:     OSCILLATION PERIOD IS 50 FS
Info:             DECAY TIME IS 25 FS
Info:     PISTON TEMPERATURE IS 300 K
Info:       PRESSURE CONTROL IS GROUP-BASED
Info:    INITIAL STRAIN RATE IS 0 0 0
Info:       CELL FLUCTUATION IS ISOTROPIC
Info: PARTICLE MESH EWALD (PME) ACTIVE
Info: PME TOLERANCE               1e-06
Info: PME EWALD COEFFICIENT       0.348832
Info: PME INTERPOLATION ORDER     4
Info: PME GRID DIMENSIONS         40 40 40
Info: PME MAXIMUM GRID SPACING    1
Info: FULL ELECTROSTATIC EVALUATION FREQUENCY      2
Info: USING VERLET I (r-RESPA) MTS SCHEME.
Info: C1 SPLITTING OF LONG RANGE ELECTROSTATICS
Info: PLACING ATOMS IN PATCHES BY HYDROGEN GROUPS
Info: RIGID BONDS TO HYDROGEN : ALL
Info:         ERROR TOLERANCE : 1e-08
Info:          MAX ITERATIONS : 100
Info: RIGID WATER USING SETTLE ALGORITHM
Info: RANDOM NUMBER SEED     1741382373
Info: USE HYDROGEN BONDS?    NO
Info: Using AMBER format force field!
Info: AMBER PARM FILE        mobley_6632459.prmtop
Info: COORDINATE PDB         mobley_6632459.pdb
Info: Exclusions will be read from PARM file!
Info: SCNB (VDW SCALING)     2
Info: USING ARITHMETIC MEAN TO COMBINE L-J SIGMA PARAMETERS
Info: SUMMARY OF PARAMETERS:
Info: 7 BONDS
Info: 7 ANGLES
Info:   7 HARMONIC
Info:   0 COSINE-BASED
Info: 9 DIHEDRAL
Info: 0 IMPROPER
Info: 0 CROSSTERM
Info: 0 VDW
Info: 28 VDW_PAIRS
Info: 0 NBTHOLE_PAIRS
Info: STRUCTURE SUMMARY:
Info: 4306 ATOMS
Info: 4305 BONDS
Info: 15 ANGLES
Info: 20 DIHEDRALS
Info: 0 IMPROPERS
Info: 0 CROSSTERMS
Info: 4335 EXCLUSIONS
Info: 4302 RIGID BONDS
Info: 8616 DEGREES OF FREEDOM
Info: 1436 HYDROGEN GROUPS
Info: 4 ATOMS IN LARGEST HYDROGEN GROUP
Info: 1436 MIGRATION GROUPS
Info: 4 ATOMS IN LARGEST MIGRATION GROUP
Info: TOTAL MASS = 25857 amu
Info: TOTAL CHARGE = 9.99989e-05 e
Info: MASS DENSITY = 0.706837 g/cm^3
Info: ATOM DENSITY = 0.0708853 atoms/A^3
Info: ADDED 0 IMPLICIT EXCLUSIONS
Info: NONBONDED TABLE R-SQUARED SPACING: 0.0625
Info: NONBONDED TABLE SIZE: 705 POINTS
Info: REMOVING COM VELOCITY 0.0519862 0.0265197 0.129304
TCL: Minimizing for 2000 steps
ETITLE: TS BOND ANGLE DIHED IMPRP ELECT VDW BOUNDARY MISC KINETIC TOTAL TEMP POTENTIAL TOTAL3 TEMPAVG PRESSURE GPRESSURE VOLUME PRESSAVG GPRESSAVG
ENERGY: 0 0.1938 0.2195 15.7903 0.0000 -13274.7066 1530.5476 0.0000 0.0000 0.0000 -11727.9554 0.0000 -11727.9554 -11727.9554 0.0000 10839.9135 -15264.0185 60746.0239 10839.9135 -15264.0185
ENERGY: 400 0.8990 1.5009 14.1730 0.0000 -17766.2076 2556.9677 0.0000 0.0000 0.0000 -15192.6669 0.0000 -15192.6669 -15192.6669 0.0000 15018.9203 14739.6555 60746.0239 15018.9203 14739.6555
ENERGY: 800 1.1874 0.4308 13.3823 0.0000 -18840.7796 3055.9573 0.0000 0.0000 0.0000 -15769.8219 0.0000 -15769.8219 -15769.8219 0.0000 17615.3811 17361.0839 60746.0239 17615.3811 17361.0839
ENERGY: 1200 14.7822 1.5118 13.2843 0.0000 -19250.2528 3205.1033 0.0000 0.0000 0.0000 -16015.5712 0.0000 -16015.5712 -16015.5712 0.0000 18541.0555 18223.3083 60746.0239 18541.0555 18223.3083
ENERGY: 1600 0.3236 0.6977 12.6770 0.0000 -19520.5965 3341.1633 0.0000 0.0000 0.0000 -16165.7349 0.0000 -16165.7349 -16165.7349 0.0000 19244.9726 18934.7378 60746.0239 19244.9726 18934.7378
ENERGY: 2000 0.1842 0.3848 12.9142 0.0000 -19642.5552 3381.8355 0.0000 0.0000 0.0000 -16247.2364 0.0000 -16247.2364 -16247.2364 0.0000 19483.7319 19168.7222 60746.0239 19483.7319 19168.7222
TCL: Exiting due to exit command.
Info: NAMD 3.0.1 for Linux-x86_64-multicore
Info: Please visit http://www.ks.uiuc.edu/Research/namd/
Info: for updates, documentation, and support information.
Info: Please cite Phillips et al., J. Chem. Phys. 153:044130 (2020) doi:10.1063/5.0014475
Info: in all publications reporting results obtained with NAMD.
Info: Based on Charm++/Converse 80000 for multicore-linux-x86_64-gcc
Info: Built Mon Oct 14 11:11:06 CDT 2024 by dhardy on athine.ks.uiuc.edu
Info: 1 NAMD  3.0.1  Linux-x86_64-multicore  16    k013  z5358697
Info: Running on 16 processors, 1 nodes, 1 physical nodes.
Info: CPU topology information available.
Info: Charm++/Converse parallel runtime startup completed at 0.00947426 s
Info: 1043.45 MB of memory in use based on /proc/self/stat
Info: Configuration file is mobley_6632459_equil.namd
Info: Working in the current directory /srv/scratch/z5358697/prod_prep_8/6632459
TCL: Running 25000 steps at 30 kelvin.
TCL: Suspending until startup complete.
Info: SIMULATION PARAMETERS:
Info: TIMESTEP               2
Info: NUMBER OF STEPS        0
Info: STEPS PER CYCLE        10
Info: PERIODIC CELL BASIS 1  39.546 0 0
Info: PERIODIC CELL BASIS 2  0 39.115 0
Info: PERIODIC CELL BASIS 3  0 0 39.271
Info: PERIODIC CELL CENTER   0 0 0
Info: WRAPPING WATERS AROUND PERIODIC BOUNDARIES ON OUTPUT.
Info: WRAPPING ALL CLUSTERS AROUND PERIODIC BOUNDARIES ON OUTPUT.
Info: FIRST LDB TIMESTEP     50
Info: LAST LDB TIMESTEP     -1
Info: HOM BACKGROUND SCALING 1
Info: PME BACKGROUND SCALING 1
Info: MIN ATOMS PER PATCH    40
Info: EMPTY PATCH LOAD       40 ATOMS
Info: INITIAL TEMPERATURE    300
Info: CENTER OF MASS MOVING INITIALLY? NO
Info: DIELECTRIC             1
Info: EXCLUDE                SCALED ONE-FOUR
Info: 1-4 ELECTROSTATICS SCALED BY 0.833333
Info: MODIFIED 1-4 VDW PARAMETERS WILL BE USED
Info: DCD FILENAME           mobley_6632459_equil.dcd
Info: DCD FREQUENCY          5000
Info: DCD FIRST STEP         5000
Info: DCD FILE WILL CONTAIN UNIT CELL DATA
Info: XST FILENAME           mobley_6632459_equil.xst
Info: XST FREQUENCY          5000
Info: NO VELOCITY DCD OUTPUT
Info: NO FORCE DCD OUTPUT
Info: OUTPUT FILENAME        mobley_6632459_equil
Info: BINARY OUTPUT FILES WILL BE USED
Info: RESTART FILENAME       mobley_6632459_equil.restart
Info: RESTART FREQUENCY      5000
Info: BINARY RESTART FILES WILL BE USED
Info: CUTOFF                 9
Info: PAIRLIST DISTANCE      11
Info: PAIRLIST SHRINK RATE   0.01
Info: PAIRLIST GROW RATE     0.01
Info: PAIRLIST TRIGGER       0.3
Info: PAIRLISTS PER CYCLE    2
Info: PAIRLISTS ENABLED
Info: MARGIN                 8
Info: HYDROGEN GROUP CUTOFF  2.5
Info: PATCH DIMENSION        21.5
Info: ENERGY OUTPUT STEPS    5000
Info: ENERGY EVALUATION STEPS    5000
Info: OUTPUT ENERGY PRECISION 4
Info: CROSSTERM ENERGY INCLUDED IN DIHEDRAL
Info: TIMING OUTPUT STEPS    50000
Info: PRESSURE OUTPUT STEPS  5000
Info: LANGEVIN DYNAMICS ACTIVE
Info: LANGEVIN TEMPERATURE   30
Info: LANGEVIN USING BBK INTEGRATOR
Info: LANGEVIN DAMPING COEFFICIENT IS 1 INVERSE PS
Info: LANGEVIN DYNAMICS APPLIED TO HYDROGENS
Info: LANGEVIN PISTON PRESSURE CONTROL ACTIVE
Info:        TARGET PRESSURE IS 1.01325 BAR
Info:     OSCILLATION PERIOD IS 50 FS
Info:             DECAY TIME IS 25 FS
Info:     PISTON TEMPERATURE IS 300 K
Info:       PRESSURE CONTROL IS GROUP-BASED
Info:    INITIAL STRAIN RATE IS 0 0 0
Info:       CELL FLUCTUATION IS ISOTROPIC
Info: PARTICLE MESH EWALD (PME) ACTIVE
Info: PME TOLERANCE               1e-06
Info: PME EWALD COEFFICIENT       0.348832
Info: PME INTERPOLATION ORDER     4
Info: PME GRID DIMENSIONS         40 40 40
Info: PME MAXIMUM GRID SPACING    1
Info: FULL ELECTROSTATIC EVALUATION FREQUENCY      2
Info: USING VERLET I (r-RESPA) MTS SCHEME.
Info: C1 SPLITTING OF LONG RANGE ELECTROSTATICS
Info: PLACING ATOMS IN PATCHES BY HYDROGEN GROUPS
Info: RIGID BONDS TO HYDROGEN : ALL
Info:         ERROR TOLERANCE : 1e-08
Info:          MAX ITERATIONS : 100
Info: RIGID WATER USING SETTLE ALGORITHM
Info: RANDOM NUMBER SEED     1741382389
Info: USE HYDROGEN BONDS?    NO
Info: Using AMBER format force field!
Info: AMBER PARM FILE        mobley_6632459.prmtop
Info: COORDINATE PDB         mobley_6632459.pdb
Info: Exclusions will be read from PARM file!
Info: SCNB (VDW SCALING)     2
Info: USING ARITHMETIC MEAN TO COMBINE L-J SIGMA PARAMETERS
Info: BINARY COORDINATES     mobley_6632459_min.coor
Info: SUMMARY OF PARAMETERS:
Info: 7 BONDS
Info: 7 ANGLES
Info:   7 HARMONIC
Info:   0 COSINE-BASED
Info: 9 DIHEDRAL
Info: 0 IMPROPER
Info: 0 CROSSTERM
Info: 0 VDW
Info: 28 VDW_PAIRS
Info: 0 NBTHOLE_PAIRS
Info: STRUCTURE SUMMARY:
Info: 4306 ATOMS
Info: 4305 BONDS
Info: 15 ANGLES
Info: 20 DIHEDRALS
Info: 0 IMPROPERS
Info: 0 CROSSTERMS
Info: 4335 EXCLUSIONS
Info: 4302 RIGID BONDS
Info: 8616 DEGREES OF FREEDOM
Info: 1436 HYDROGEN GROUPS
Info: 4 ATOMS IN LARGEST HYDROGEN GROUP
Info: 1436 MIGRATION GROUPS
Info: 4 ATOMS IN LARGEST MIGRATION GROUP
Info: TOTAL MASS = 25857 amu
Info: TOTAL CHARGE = 9.99989e-05 e
Info: MASS DENSITY = 0.706837 g/cm^3
Info: ATOM DENSITY = 0.0708853 atoms/A^3
Info: ADDED 0 IMPLICIT EXCLUSIONS
Info: NONBONDED TABLE R-SQUARED SPACING: 0.0625
Info: NONBONDED TABLE SIZE: 705 POINTS
Info: REMOVING COM VELOCITY 0.111779 -0.0607734 -0.0903035
TCL: Running for 25000 steps
ETITLE: TS BOND ANGLE DIHED IMPRP ELECT VDW BOUNDARY MISC KINETIC TOTAL TEMP POTENTIAL TOTAL3 TEMPAVG PRESSURE GPRESSURE VOLUME PRESSAVG GPRESSAVG
ENERGY: 0 0.1842 0.3848 12.9142 0.0000 -19642.5552 3381.8355 0.0000 0.0000 2499.6895 -13747.5468 291.9919 -16247.2364 -13747.0538 291.9919 114.2749 157.7298 60746.0239 114.2749 157.7298
ENERGY: 5000 0.1220 0.4320 13.1995 0.0000 -20557.7819 3515.3932 0.0000 0.0000 258.7918 -16769.8434 30.2298 -17028.6352 -16769.0434 47.5658 -274.7461 -225.4251 42101.8500 1.7473 1.6551
ENERGY: 10000 0.0340 0.7150 12.8497 0.0000 -20610.9279 3534.0500 0.0000 0.0000 254.5107 -16808.7685 29.7297 -17063.2792 -16808.1234 29.9907 -261.5211 -208.2460 42075.8136 1.6338 1.5413
ENERGY: 15000 0.0208 0.6174 12.9726 0.0000 -20492.2448 3389.5208 0.0000 0.0000 259.6988 -16829.4143 30.3357 -17089.1131 -16828.6160 30.2611 -1124.6552 -1070.8014 42138.1427 6.5722 6.7223
ENERGY: 20000 0.0746 0.7153 13.0394 0.0000 -20664.6546 3548.2340 0.0000 0.0000 258.2030 -16844.3884 30.1610 -17102.5913 -16843.6834 30.0324 -140.2738 -91.2491 41669.4487 -1.6959 -1.5691
ENERGY: 25000 0.0168 0.2823 13.2329 0.0000 -20761.4609 3628.2849 0.0000 0.0000 260.1515 -16859.4925 30.3886 -17119.6440 -16859.0211 30.1858 276.0774 326.4315 41523.2299 7.5981 7.4945
TCL: Running 25000 steps at 60 kelvin.
TCL: Setting parameter langevinTemp to 60
TCL: Running for 25000 steps
ETITLE: TS BOND ANGLE DIHED IMPRP ELECT VDW BOUNDARY MISC KINETIC TOTAL TEMP POTENTIAL TOTAL3 TEMPAVG PRESSURE GPRESSURE VOLUME PRESSAVG GPRESSAVG
ENERGY: 25000 0.0168 0.2823 13.2329 0.0000 -20761.4609 3628.2849 0.0000 0.0000 260.0272 -16859.6168 30.3741 -17119.6440 -16859.1503 30.3741 270.6456 326.3509 41523.2299 270.6456 326.3509
ENERGY: 30000 0.1655 2.1257 12.9072 0.0000 -20423.2129 3528.9977 0.0000 0.0000 520.0851 -16358.9318 60.7518 -16879.0169 -16357.9003 57.4594 282.0554 348.3868 41794.4949 2.5849 2.8673
ENERGY: 35000 0.0757 1.2670 13.2492 0.0000 -20470.9655 3507.1816 0.0000 0.0000 530.0764 -16419.1155 61.9189 -16949.1918 -16417.5473 60.7514 82.2086 129.1873 41615.3404 5.6233 5.9289
ENERGY: 40000 0.5359 1.3874 13.4331 0.0000 -20350.7721 3356.2022 0.0000 0.0000 511.3204 -16467.8932 59.7280 -16979.2136 -16466.0758 60.5939 -944.6862 -866.8832 41967.0632 2.7880 2.8397
ENERGY: 45000 0.8176 1.4022 12.9688 0.0000 -20424.2616 3425.6543 0.0000 0.0000 521.9913 -16461.4274 60.9745 -16983.4187 -16459.9545 59.7756 -555.8055 -509.7494 41792.7835 2.9382 2.8127
ENERGY: 50000 0.1254 0.6541 13.5797 0.0000 -20425.7690 3419.2058 0.0000 0.0000 504.2738 -16487.9302 58.9049 -16992.2039 -16486.6085 59.9630 -645.2519 -582.6057 41888.6482 4.6384 4.4971
TCL: Running 25000 steps at 90 kelvin.
TCL: Setting parameter langevinTemp to 90
TCL: Running for 25000 steps
ETITLE: TS BOND ANGLE DIHED IMPRP ELECT VDW BOUNDARY MISC KINETIC TOTAL TEMP POTENTIAL TOTAL3 TEMPAVG PRESSURE GPRESSURE VOLUME PRESSAVG GPRESSAVG
ENERGY: 50000 0.1254 0.6541 13.5797 0.0000 -20425.7690 3419.2058 0.0000 0.0000 504.0294 -16488.1745 58.8763 -16992.2039 -16487.0403 58.8763 -638.3452 -583.0178 41888.6482 -638.3452 -583.0178
ENERGY: 55000 0.3375 0.6735 13.1360 0.0000 -19958.2884 3255.3278 0.0000 0.0000 774.3156 -15914.4981 90.4488 -16688.8137 -15913.6913 86.7639 -779.3529 -746.8542 42269.2340 1.9332 1.5310
ENERGY: 60000 0.4577 1.3118 12.8209 0.0000 -20084.7236 3314.6895 0.0000 0.0000 775.7644 -15979.6793 90.6180 -16755.4437 -15977.6806 90.6598 -604.1312 -551.7977 42116.8552 5.3839 5.6781
ENERGY: 65000 0.0781 1.2516 13.4869 0.0000 -20104.4791 3346.2038 0.0000 0.0000 768.8904 -15974.5683 89.8150 -16743.4586 -15972.9146 90.1985 -318.9821 -277.8331 41876.4724 3.6601 3.5420
ENERGY: 70000 0.2491 0.6770 14.0213 0.0000 -20328.3560 3486.3898 0.0000 0.0000 789.6813 -16037.3374 92.2437 -16827.0187 -16035.0470 90.8548 334.8120 423.1456 41571.0193 1.4346 1.2444
ENERGY: 75000 0.0285 0.7997 13.8258 0.0000 -20339.2690 3490.2096 0.0000 0.0000 774.1545 -16060.2509 90.4300 -16834.4054 -16058.2923 89.8450 294.6851 348.9554 41601.7517 3.6706 3.6381
TCL: Running 25000 steps at 120 kelvin.
TCL: Setting parameter langevinTemp to 120
TCL: Running for 25000 steps
ETITLE: TS BOND ANGLE DIHED IMPRP ELECT VDW BOUNDARY MISC KINETIC TOTAL TEMP POTENTIAL TOTAL3 TEMPAVG PRESSURE GPRESSURE VOLUME PRESSAVG GPRESSAVG
ENERGY: 75000 0.0285 0.7997 13.8258 0.0000 -20339.2690 3490.2096 0.0000 0.0000 773.7714 -16060.6339 90.3852 -16834.4054 -16058.9532 90.3852 280.5120 348.7148 41601.7517 280.5120 348.7148
ENERGY: 80000 0.3900 0.8700 13.7007 0.0000 -19915.5202 3331.4611 0.0000 0.0000 1035.3222 -15533.7762 120.9373 -16569.0984 -15530.8568 116.9673 23.2194 88.6512 41829.2735 5.4844 5.4909
ENERGY: 85000 0.3246 1.2145 13.3509 0.0000 -19946.1942 3348.1558 0.0000 0.0000 1005.4139 -15577.7345 117.4437 -16583.1484 -15575.2086 119.9205 134.9515 212.1257 41604.5209 2.5992 2.6438
ENERGY: 90000 0.3243 2.0743 12.9614 0.0000 -19916.7599 3283.9059 0.0000 0.0000 1028.2823 -15589.2116 120.1149 -16617.4939 -15587.5051 119.8870 -384.4837 -334.3095 41896.0691 2.4327 2.9106
ENERGY: 95000 0.1229 1.7031 12.6084 0.0000 -20075.0923 3423.1838 0.0000 0.0000 1037.1171 -15600.3570 121.1470 -16637.4741 -15597.6850 120.1051 512.4471 571.9857 41487.7298 2.1474 2.1337
ENERGY: 100000 0.1865 1.0290 13.5838 0.0000 -19935.9021 3267.9273 0.0000 0.0000 1012.3979 -15640.7776 118.2595 -16653.1755 -15637.8552 119.3184 -624.9751 -580.1358 41911.3591 5.4255 5.6110
TCL: Running 25000 steps at 150 kelvin.
TCL: Setting parameter langevinTemp to 150
TCL: Running for 25000 steps
ETITLE: TS BOND ANGLE DIHED IMPRP ELECT VDW BOUNDARY MISC KINETIC TOTAL TEMP POTENTIAL TOTAL3 TEMPAVG PRESSURE GPRESSURE VOLUME PRESSAVG GPRESSAVG
ENERGY: 100000 0.1865 1.0290 13.5838 0.0000 -19935.9021 3267.9273 0.0000 0.0000 1011.8870 -15641.2885 118.1998 -16653.1755 -15639.1668 118.1998 -646.0287 -580.1063 41911.3591 -646.0287 -580.1063
ENERGY: 105000 0.2689 1.8498 12.9393 0.0000 -19573.4795 3239.2547 0.0000 0.0000 1301.9831 -15017.1837 152.0863 -16319.1668 -15014.6820 146.7733 134.4210 215.4719 41996.5219 2.2673 2.1435
ENERGY: 110000 0.2162 2.6154 12.6728 0.0000 -19742.0538 3318.1381 0.0000 0.0000 1270.2098 -15138.2015 148.3748 -16408.4113 -15134.3998 149.6821 422.0024 455.6052 41908.7670 3.6906 3.7063
ENERGY: 115000 0.1763 2.0611 13.0972 0.0000 -19528.5719 3144.2533 0.0000 0.0000 1334.6990 -15034.2851 155.9079 -16368.9841 -15031.2165 149.5472 -619.2380 -534.2267 42335.7796 1.0621 1.0430
ENERGY: 120000 0.7218 2.5911 12.9747 0.0000 -19670.4044 3256.4372 0.0000 0.0000 1289.3265 -15108.3531 150.6078 -16397.6796 -15105.9849 150.7391 23.6773 85.9081 41959.5801 1.9217 2.6707
ENERGY: 125000 0.5833 1.4439 13.9289 0.0000 -19576.3763 3181.1909 0.0000 0.0000 1238.0435 -15141.1858 144.6174 -16379.2292 -15138.6471 150.3698 -486.4892 -402.7122 42202.5833 7.5195 7.6561
TCL: Running 50000 steps at 180 kelvin.
TCL: Setting parameter langevinTemp to 180
TCL: Running for 50000 steps
ETITLE: TS BOND ANGLE DIHED IMPRP ELECT VDW BOUNDARY MISC KINETIC TOTAL TEMP POTENTIAL TOTAL3 TEMPAVG PRESSURE GPRESSURE VOLUME PRESSAVG GPRESSAVG
ENERGY: 125000 0.5833 1.4439 13.9289 0.0000 -19576.3763 3181.1909 0.0000 0.0000 1237.4011 -15141.8281 144.5424 -16379.2292 -15139.1425 144.5424 -464.0704 -402.6490 42202.5833 -464.0704 -402.6490
ENERGY: 135000 0.3769 1.5560 13.4391 0.0000 -18921.7202 2983.3085 0.0000 0.0000 1564.8867 -14358.1531 182.7964 -15923.0398 -14354.5456 180.8975 -516.0043 -518.5317 42776.3770 6.0381 6.0037
ENERGY: 145000 1.3266 1.4348 13.5796 0.0000 -19151.4799 3130.0853 0.0000 0.0000 1552.1263 -14452.9272 181.3058 -16005.0536 -14452.0692 179.8700 241.1779 269.5374 42355.7551 4.5793 4.7003
ENERGY: 155000 0.2999 2.0260 13.0531 0.0000 -19062.9145 3096.4342 0.0000 0.0000 1506.5933 -14444.5080 175.9871 -15951.1012 -14440.0717 179.9971 81.3943 132.4479 42323.1981 4.4973 4.2430
ENERGY: 165000 0.5134 3.7420 12.7787 0.0000 -19049.4643 3006.1160 0.0000 0.0000 1541.7598 -14484.5544 180.0949 -16026.3142 -14480.0946 180.1787 -448.6506 -418.4568 42252.7828 9.0211 8.6031
ENERGY: 175000 0.9573 2.6226 13.5767 0.0000 -19087.2029 3009.9409 0.0000 0.0000 1548.7467 -14511.3587 180.9111 -16060.1054 -14505.3867 179.7294 -430.2336 -379.2747 41968.9111 7.2463 6.6661
TCL: Running 50000 steps at 210 kelvin.
TCL: Setting parameter langevinTemp to 210
TCL: Running for 50000 steps
ETITLE: TS BOND ANGLE DIHED IMPRP ELECT VDW BOUNDARY MISC KINETIC TOTAL TEMP POTENTIAL TOTAL3 TEMPAVG PRESSURE GPRESSURE VOLUME PRESSAVG GPRESSAVG
ENERGY: 175000 0.9573 2.6226 13.5767 0.0000 -19087.2029 3009.9409 0.0000 0.0000 1547.9721 -14512.1333 180.8206 -16060.1054 -14509.4178 180.8206 -437.6581 -377.6305 41968.9111 -437.6581 -377.6305
ENERGY: 185000 1.3549 4.1563 14.9034 0.0000 -18298.4623 2831.7079 0.0000 0.0000 1764.2803 -13682.0594 206.0878 -15446.3398 -13680.2672 208.8789 -121.6917 -50.1783 42254.8380 -2.0774 -2.0739
ENERGY: 195000 0.2064 3.5646 14.5287 0.0000 -17870.8186 2604.9284 0.0000 0.0000 1807.9062 -13439.6843 211.1838 -15247.5905 -13437.1902 210.3874 -957.3985 -830.4207 42628.6723 4.0968 4.1017
ENERGY: 205000 0.7155 1.2308 13.9610 0.0000 -18165.9938 2788.6034 0.0000 0.0000 1760.6787 -13600.8045 205.6671 -15361.4832 -13598.0762 209.4845 143.7421 220.8787 41777.0215 4.2442 4.0670
ENERGY: 215000 0.1964 2.7731 12.7292 0.0000 -18153.5136 2757.0769 0.0000 0.0000 1788.2768 -13592.4613 208.8909 -15380.7381 -13589.0618 209.7394 -457.5825 -325.7996 42340.2280 2.9804 2.8917
ENERGY: 225000 0.7457 3.3046 12.7938 0.0000 -17954.4944 2622.6135 0.0000 0.0000 1778.5001 -13536.5367 207.7488 -15315.0368 -13534.7808 208.7757 -705.8907 -685.9661 41994.2379 0.2527 -0.1498
TCL: Running 50000 steps at 240 kelvin.
TCL: Setting parameter langevinTemp to 240
TCL: Running for 50000 steps
ETITLE: TS BOND ANGLE DIHED IMPRP ELECT VDW BOUNDARY MISC KINETIC TOTAL TEMP POTENTIAL TOTAL3 TEMPAVG PRESSURE GPRESSURE VOLUME PRESSAVG GPRESSAVG
ENERGY: 225000 0.7457 3.3046 12.7938 0.0000 -17954.4944 2622.6135 0.0000 0.0000 1777.5934 -13537.4434 207.6429 -15315.0368 -13534.7416 207.6429 -765.5128 -687.3645 41994.2379 -765.5128 -687.3645
ENERGY: 235000 0.8171 3.0717 14.1513 0.0000 -17216.0045 2477.4454 0.0000 0.0000 2055.6213 -12664.8977 240.1197 -14720.5190 -12660.4169 240.4915 -422.6713 -371.7471 42915.2176 2.9857 3.0716
ENERGY: 245000 0.7165 2.1403 14.0172 0.0000 -17285.7147 2566.9520 0.0000 0.0000 2049.9823 -12651.9065 239.4610 -14701.8888 -12646.4481 239.5865 458.9578 524.4726 42136.7493 3.5065 3.5384
ENERGY: 255000 0.2009 1.5008 13.4841 0.0000 -17049.7934 2467.7358 0.0000 0.0000 2110.4972 -12456.3747 246.5298 -14566.8719 -12450.8002 241.0122 213.9337 315.9011 41981.6754 3.8292 3.6447
ENERGY: 265000 0.1890 2.4281 13.8305 0.0000 -17333.8604 2634.2622 0.0000 0.0000 2084.6934 -12598.4573 243.5156 -14683.1506 -12595.0340 241.0181 786.5922 861.6505 42260.3732 2.1025 1.9076
ENERGY: 275000 0.4314 3.1468 13.1537 0.0000 -17397.6421 2560.9870 0.0000 0.0000 2121.0562 -12698.8670 247.7632 -14819.9232 -12693.3308 240.9238 -91.7933 -55.2545 42766.2817 1.6076 1.6405
TCL: Running 50000 steps at 270 kelvin.
TCL: Setting parameter langevinTemp to 270
TCL: Running for 50000 steps
ETITLE: TS BOND ANGLE DIHED IMPRP ELECT VDW BOUNDARY MISC KINETIC TOTAL TEMP POTENTIAL TOTAL3 TEMPAVG PRESSURE GPRESSURE VOLUME PRESSAVG GPRESSAVG
ENERGY: 275000 0.4314 3.1468 13.1537 0.0000 -17397.6421 2560.9870 0.0000 0.0000 2120.0378 -12699.8854 247.6443 -14819.9232 -12696.7296 247.6443 -144.4236 -55.2807 42766.2817 -144.4236 -55.2807
ENERGY: 285000 0.8863 3.2223 13.9076 0.0000 -16398.2833 2290.1843 0.0000 0.0000 2304.6959 -11785.3868 269.2144 -14090.0827 -11777.9979 269.9483 -181.6258 -50.7354 43708.0254 -4.6477 -4.5366
ENERGY: 295000 0.2527 3.2844 13.9288 0.0000 -16246.3387 2161.7992 0.0000 0.0000 2298.8433 -11768.2303 268.5308 -14067.0736 -11763.1339 271.6240 -589.8403 -487.1372 43403.1285 0.9696 1.1009
ENERGY: 305000 2.3573 2.9369 13.4561 0.0000 -16334.7811 2258.8406 0.0000 0.0000 2292.9019 -11764.2882 267.8368 -14057.1901 -11758.9925 270.4604 -183.6412 -108.6264 43457.2020 4.0413 3.9680
ENERGY: 315000 0.6204 3.2591 13.2959 0.0000 -16376.7907 2195.6028 0.0000 0.0000 2325.2242 -11838.7882 271.6124 -14164.0124 -11833.9360 271.5319 -619.4613 -534.0578 43201.5973 -2.2737 -2.1251
ENERGY: 325000 0.5017 6.6815 15.1702 0.0000 -16269.6774 2261.7380 0.0000 0.0000 2327.9671 -11657.6189 271.9328 -13985.5861 -11651.7362 269.3188 -195.4194 -48.0451 43759.5079 3.7543 4.8150
TCL: Running 1000000 steps at 300 kelvin.
TCL: Setting parameter langevinTemp to 300
TCL: Running for 1000000 steps
ETITLE: TS BOND ANGLE DIHED IMPRP ELECT VDW BOUNDARY MISC KINETIC TOTAL TEMP POTENTIAL TOTAL3 TEMPAVG PRESSURE GPRESSURE VOLUME PRESSAVG GPRESSAVG
ENERGY: 325000 0.5017 6.6815 15.1702 0.0000 -16269.6774 2261.7380 0.0000 0.0000 2326.7758 -11658.8103 271.7936 -13985.5861 -11654.9801 271.7936 -131.2746 -48.1112 43759.5079 -131.2746 -48.1112
ENERGY: 525000 0.8032 3.1279 14.0096 0.0000 -15650.6123 2152.5249 0.0000 0.0000 2574.1854 -10905.9613 300.6938 -13480.1467 -10900.2060 300.0257 260.5782 302.1027 44659.0393 4.4352 4.4529
ENERGY: 725000 1.4217 2.8283 14.3812 0.0000 -15656.1163 2050.5043 0.0000 0.0000 2515.3218 -11071.6589 293.8179 -13586.9807 -11064.5483 298.1996 -341.0982 -259.0443 44223.1853 0.5412 1.1760
ENERGY: 925000 0.4857 6.3566 13.5442 0.0000 -15689.5379 2001.5329 0.0000 0.0000 2638.1068 -11029.5118 308.1606 -13667.6185 -11024.1740 298.3111 -674.2640 -600.7385 43935.5101 3.2486 3.5568
ENERGY: 1125000 2.2461 3.1814 13.5103 0.0000 -15639.2954 2120.7464 0.0000 0.0000 2620.7464 -10878.8649 306.1327 -13499.6113 -10873.4498 300.5919 132.6058 251.9970 44097.0702 1.8014 2.3485
ENERGY: 1325000 0.1717 3.9787 12.6310 0.0000 -15625.3853 2132.2103 0.0000 0.0000 2529.8576 -10946.5360 295.5158 -13476.3936 -10942.5039 300.6519 202.6405 336.9091 44344.5187 1.7866 1.6518
TCL: Exiting due to exit command.
