Info: SIMULATION PARAMETERS:
Info: TIMESTEP               2
Info: NUMBER OF STEPS        0
Info: STEPS PER CYCLE        10
Info: PERIODIC CELL BASIS 1  80.9637 0 0
Info: PERIODIC CELL BASIS 2  0 80.9637 0
Info: PERIODIC CELL BASIS 3  0 0 80.9637
Info: PERIODIC CELL CENTER   35.792 35.792 35.792
Info: WRAPPING ALL CLUSTERS AROUND PERIODIC BOUNDARIES ON OUTPUT.
Info: FIRST LDB TIMESTEP     50
Info: LAST LDB TIMESTEP     -1
Info: HOM BACKGROUND SCALING 1
Info: PME BACKGROUND SCALING 1
Info: MIN ATOMS PER PATCH    40
Info: EMPTY PATCH LOAD       40 ATOMS
Info: VELOCITY FILE          mobley_9557440_equilibrated.vel
Info: CENTER OF MASS MOVING INITIALLY? NO
Info: DIELECTRIC             1
Info: EXCLUDE                SCALED ONE-FOUR
Info: 1-4 ELECTROSTATICS SCALED BY 1
Info: MODIFIED 1-4 VDW PARAMETERS WILL BE USED
Info: DCD FILENAME           mobley_9557440_backwards.dcd
Info: DCD FREQUENCY          500
Info: DCD FIRST STEP         500
Info: DCD FILE WILL CONTAIN UNIT CELL DATA
Info: NO EXTENDED SYSTEM TRAJECTORY OUTPUT
Info: NO VELOCITY DCD OUTPUT
Info: NO FORCE DCD OUTPUT
Info: OUTPUT FILENAME        mobley_9557440_backwards
Info: BINARY OUTPUT FILES WILL BE USED
Info: NO RESTART FILE
Info: SWITCHING ACTIVE
Info: SWITCHING ON           10
Info: SWITCHING OFF          12
Info: PAIRLIST DISTANCE      14
Info: PAIRLIST SHRINK RATE   0.01
Info: PAIRLIST GROW RATE     0.01
Info: PAIRLIST TRIGGER       0.3
Info: PAIRLISTS PER CYCLE    2
Info: PAIRLISTS ENABLED
Info: MARGIN                 8
Info: HYDROGEN GROUP CUTOFF  2.5
Info: PATCH DIMENSION        24.5
Info: ENERGY OUTPUT STEPS    500
Info: ENERGY EVALUATION STEPS    500
Info: OUTPUT ENERGY PRECISION 4
Info: CROSSTERM ENERGY INCLUDED IN DIHEDRAL
Info: TIMING OUTPUT STEPS    500
Info: PRESSURE OUTPUT STEPS  500
Info: ALCHEMICAL FEP ON
Info: FEP CURRENT LAMBDA VALUE     1
Info: FEP COMPARISON LAMBDA VALUE  0.9375
Info: FEP INTRA-ALCHEMICAL NON-BONDED INTERACTIONS WILL BE DECOUPLED
Info: FEP INTRA-ALCHEMICAL BONDED INTERACTIONS WILL BE RETAINED
Info: FEP VDW SHIFTING COEFFICIENT 6
Info: FEP ELEC. ACTIVE FOR ANNIHILATED PARTICLES BETWEEN LAMBDA = 0 AND LAMBDA = 0.5
Info: FEP ELEC. ACTIVE FOR EXNIHILATED PARTICLES BETWEEN LAMBDA = 0.5 AND LAMBDA = 1
Info: FEP VDW ACTIVE FOR ANNIHILATED PARTICLES BETWEEN LAMBDA = 0 AND LAMBDA = 1
Info: FEP VDW ACTIVE FOR EXNIHILATED PARTICLES BETWEEN LAMBDA = 0 AND LAMBDA = 1
Info: FEP BOND ACTIVE FOR ANNIHILATED PARTICLES BETWEEN LAMBDA = 1 AND LAMBDA = 1
Info: FEP BOND ACTIVE FOR EXNIHILATED PARTICLES BETWEEN LAMBDA = 0 AND LAMBDA = 0
Info: LANGEVIN DYNAMICS ACTIVE
Info: LANGEVIN TEMPERATURE   298
Info: LANGEVIN USING BBK INTEGRATOR
Info: LANGEVIN DAMPING COEFFICIENT IS 1 INVERSE PS
Info: LANGEVIN DYNAMICS NOT APPLIED TO HYDROGENS
Info: LANGEVIN PISTON PRESSURE CONTROL ACTIVE
Info:        TARGET PRESSURE IS 1.01325 BAR
Info:     OSCILLATION PERIOD IS 100 FS
Info:             DECAY TIME IS 50 FS
Info:     PISTON TEMPERATURE IS 298 K
Info:       PRESSURE CONTROL IS GROUP-BASED
Info:    INITIAL STRAIN RATE IS -1.71303e-05 -1.71303e-05 -1.71303e-05
Info:       CELL FLUCTUATION IS ISOTROPIC
Info: PARTICLE MESH EWALD (PME) ACTIVE
Info: PME TOLERANCE               1e-05
Info: PME EWALD COEFFICIENT       0.226635
Info: PME INTERPOLATION ORDER     4
Info: PME GRID DIMENSIONS         84 84 84
Info: PME MAXIMUM GRID SPACING    1
Info: FULL ELECTROSTATIC EVALUATION FREQUENCY      1
Info: USING VERLET I (r-RESPA) MTS SCHEME.
Info: C1 SPLITTING OF LONG RANGE ELECTROSTATICS
Info: PLACING ATOMS IN PATCHES BY HYDROGEN GROUPS
Info: RIGID BONDS TO HYDROGEN : ALL
Info:         ERROR TOLERANCE : 1e-08
Info:          MAX ITERATIONS : 100
Info: RIGID WATER USING SETTLE ALGORITHM
Info: RANDOM NUMBER SEED     1740653777
Info: USE HYDROGEN BONDS?    NO
Info: COORDINATE PDB         mobley_9557440.pdb
Info: STRUCTURE FILE         mobley_9557440.psf
Info: PARAMETER file: CHARMM format!
Info: PARAMETERS             ../common/par_all27_prot_lipid.inp
Info: PARAMETERS             mobley_9557440.prm
Info: USING ARITHMETIC MEAN TO COMBINE L-J SIGMA PARAMETERS
Info: BINARY COORDINATES     mobley_9557440_equilibrated.coor
Info: SUMMARY OF PARAMETERS:
Info: 188 BONDS
Info: 461 ANGLES
Info: 587 DIHEDRAL
Info: 52 IMPROPER
Info: 6 CROSSTERM
Info: 127 VDW
Info: 0 VDW_PAIRS
Info: 0 NBTHOLE_PAIRS
Info: To read alchdata from file: mobley_9557440.pdb
Info: To read alchflag data from column: 5
Info: STRUCTURE SUMMARY:
Info: 4413 ATOMS
Info: 2946 BONDS
Info: 1485 ANGLES
Info: 24 DIHEDRALS
Info: 6 IMPROPERS
Info: 0 CROSSTERMS
Info: 0 EXCLUSIONS
Info: 4404 RIGID BONDS
Info: ALCH: 0 ATOMS TO DISAPPEAR IN FINAL STATE
Info: ALCH: 12 ATOMS TO APPEAR IN FINAL STATE
Info: 8835 DEGREES OF FREEDOM
Info: 1476 HYDROGEN GROUPS
Info: 3 ATOMS IN LARGEST HYDROGEN GROUP
Info: 1476 MIGRATION GROUPS
Info: 3 ATOMS IN LARGEST MIGRATION GROUP
Info: TOTAL MASS = 26575.1 amu
Info: TOTAL CHARGE = -9.76026e-07 e
Info: MASS DENSITY = 0.0831503 g/cm^3
Info: ATOM DENSITY = 0.00831501 atoms/A^3
Info: ADDED 4452 IMPLICIT EXCLUSIONS
Info: NONBONDED TABLE R-SQUARED SPACING: 0.0625
Info: NONBONDED TABLE SIZE: 769 POINTS
Info: REMOVING COM VELOCITY -0.135814 -0.187689 -0.112265
TCL: Running for 5000 steps
ETITLE: TS BOND ANGLE DIHED IMPRP ELECT VDW BOUNDARY MISC KINETIC TOTAL TEMP POTENTIAL TOTAL3 TEMPAVG PRESSURE GPRESSURE VOLUME PRESSAVG GPRESSAVG
ENERGY: 0 3.2706 4.0009 14.4734 0.5369 -15454.6483 1672.8882 0.0000 0.0000 2612.7920 -11146.6864 297.6382 -13759.4784 -11141.4907 297.6382 49.5529 49.5529 530726.6534 49.5529 49.5529
ENERGY: 1000 2.7551 3.6475 13.8083 1.3654 -15352.1550 1588.6014 0.0000 0.0000 2610.6118 -11131.3654 297.3898 -13741.9772 -11125.8785 299.9102 -5.8697 -4.9202 522956.9948 1.6822 1.6913
ENERGY: 2000 5.4680 7.5887 14.7387 0.1111 -15369.3971 1573.4888 0.0000 0.0000 2582.2872 -11185.7145 294.1632 -13768.0018 -11182.4846 297.2975 -9.8979 -10.7818 523182.3610 0.1179 0.1310
ENERGY: 3000 3.1179 3.4795 13.3204 0.3728 -15363.9836 1589.3863 0.0000 0.0000 2606.6383 -11147.6684 296.9372 -13754.3067 -11143.7863 298.7959 -8.5044 -8.4926 533234.9160 1.4690 1.4839
ENERGY: 4000 4.8276 5.3927 14.4307 1.1462 -15462.3004 1652.9112 0.0000 0.0000 2636.1758 -11147.4163 300.3020 -13783.5921 -11141.6300 297.8567 37.3325 37.2993 537132.3635 1.3376 1.3187
ENERGY: 5000 2.7268 5.3580 13.1709 0.2410 -15561.5548 1678.9955 0.0000 0.0000 2594.2165 -11266.8460 295.5222 -13861.0625 -11261.7277 295.7384 46.8584 47.2563 521218.3419 -0.5285 -0.5145
TCL: Running FEP window   2: Lambda1 0.9375 Lambda2 0.875  [dLambda -0.0625]
TCL: Setting parameter firsttimestep to 0
TCL: Setting parameter alchLambda to 0.9375
Info: NONBONDED TABLE R-SQUARED SPACING: 0.0625
Info: NONBONDED TABLE SIZE: 769 POINTS
TCL: Setting parameter alchLambda2 to 0.875
Info: NONBONDED TABLE R-SQUARED SPACING: 0.0625
Info: NONBONDED TABLE SIZE: 769 POINTS
TCL: Running for 5000 steps
ETITLE: TS BOND ANGLE DIHED IMPRP ELECT VDW BOUNDARY MISC KINETIC TOTAL TEMP POTENTIAL TOTAL3 TEMPAVG PRESSURE GPRESSURE VOLUME PRESSAVG GPRESSAVG
ENERGY: 0 2.7268 5.3580 13.1709 0.2410 -15531.1890 1674.1069 0.0000 0.0000 2594.1375 -11241.4479 295.5132 -13835.5854 -11236.3813 295.5132 44.2738 44.2738 521218.3419 44.2738 44.2738
ENERGY: 1000 2.9983 2.4971 13.0833 0.9362 -15520.7556 1677.1554 0.0000 0.0000 2582.4944 -11241.5909 294.1868 -13824.0853 -11235.7486 294.5055 37.4111 37.7995 529651.0066 2.3142 2.3040
ENERGY: 2000 2.7721 6.9814 14.7511 0.5937 -15523.8002 1685.0406 0.0000 0.0000 2547.8990 -11265.7623 290.2459 -13813.6614 -11260.5350 293.7059 10.1769 9.6609 542845.7008 2.4876 2.4925
ENERGY: 3000 1.3341 2.1558 13.2660 0.8028 -15502.0307 1653.3911 0.0000 0.0000 2557.6278 -11273.4532 291.3541 -13831.0810 -11267.3484 296.1592 6.3786 7.0403 538455.0337 2.9626 2.9857
ENERGY: 4000 2.8640 3.8700 15.3483 0.6070 -15494.9617 1605.1810 0.0000 0.0000 2599.1220 -11267.9695 296.0810 -13867.0915 -11264.3233 294.9028 1.6391 1.8591 550535.7042 1.7684 1.7562
ENERGY: 5000 2.4286 3.6511 15.2866 1.2158 -15413.3729 1589.7221 0.0000 0.0000 2634.4570 -11166.6118 300.1062 -13801.0688 -11160.6829 296.7522 -21.6676 -22.5709 561642.7008 1.3486 1.3220
TCL: Running FEP window   3: Lambda1 0.875  Lambda2 0.8125 [dLambda -0.0625]
TCL: Setting parameter firsttimestep to 0
TCL: Setting parameter alchLambda to 0.875
Info: NONBONDED TABLE R-SQUARED SPACING: 0.0625
Info: NONBONDED TABLE SIZE: 769 POINTS
TCL: Setting parameter alchLambda2 to 0.8125
Info: NONBONDED TABLE R-SQUARED SPACING: 0.0625
Info: NONBONDED TABLE SIZE: 769 POINTS
TCL: Running for 5000 steps
ETITLE: TS BOND ANGLE DIHED IMPRP ELECT VDW BOUNDARY MISC KINETIC TOTAL TEMP POTENTIAL TOTAL3 TEMPAVG PRESSURE GPRESSURE VOLUME PRESSAVG GPRESSAVG
ENERGY: 0 2.4286 3.6511 15.2866 1.2158 -15382.3204 1585.4691 0.0000 0.0000 2634.3758 -11139.8935 300.0969 -13774.2693 -11134.3425 300.0969 -25.0182 -25.0182 561642.7008 -25.0182 -25.0182
ENERGY: 1000 5.6916 4.1538 13.8842 1.0330 -15353.7845 1578.3457 0.0000 0.0000 2567.4356 -11183.2405 292.4714 -13750.6761 -11180.0065 296.2581 -7.1002 -7.2136 542767.5594 2.4983 2.4682
ENERGY: 2000 4.1339 3.2751 13.4610 0.8839 -15360.1552 1671.9667 0.0000 0.0000 2596.2975 -11070.1371 295.7592 -13666.4347 -11065.2901 299.3778 31.3823 30.9988 557775.6255 3.0413 3.0714
ENERGY: 3000 1.6642 6.5863 13.1592 0.5228 -15293.3366 1547.0417 0.0000 0.0000 2573.1095 -11151.2529 293.1177 -13724.3624 -11147.4834 298.4680 -27.8694 -27.2927 573111.1006 1.9859 1.9696
ENERGY: 4000 3.9395 3.2919 12.5240 0.2769 -15293.3180 1510.1036 0.0000 0.0000 2603.4647 -11159.7174 296.5757 -13763.1821 -11154.5044 297.3757 -41.4250 -41.9459 556307.5281 -0.1253 -0.1366
ENERGY: 5000 2.2870 5.0132 13.6717 0.7211 -15420.7667 1610.7118 0.0000 0.0000 2648.0191 -11140.3429 301.6511 -13788.3620 -11134.2603 297.5514 0.8005 1.1431 529764.2939 2.0661 2.0652
TCL: Running FEP window   4: Lambda1 0.8125 Lambda2 0.75   [dLambda -0.0625]
TCL: Setting parameter firsttimestep to 0
TCL: Setting parameter alchLambda to 0.8125
Info: NONBONDED TABLE R-SQUARED SPACING: 0.0625
Info: NONBONDED TABLE SIZE: 769 POINTS
TCL: Setting parameter alchLambda2 to 0.75
Info: NONBONDED TABLE R-SQUARED SPACING: 0.0625
Info: NONBONDED TABLE SIZE: 769 POINTS
TCL: Running for 5000 steps
ETITLE: TS BOND ANGLE DIHED IMPRP ELECT VDW BOUNDARY MISC KINETIC TOTAL TEMP POTENTIAL TOTAL3 TEMPAVG PRESSURE GPRESSURE VOLUME PRESSAVG GPRESSAVG
ENERGY: 0 2.2870 5.0132 13.6717 0.7211 -15392.4065 1609.4505 0.0000 0.0000 2647.9373 -11113.3257 301.6418 -13761.2630 -11108.5600 301.6418 0.5924 0.5924 529764.2939 0.5924 0.5924
ENERGY: 1000 5.6571 4.0971 15.1670 0.3803 -15178.0869 1532.7369 0.0000 0.0000 2562.9507 -11057.0978 291.9605 -13620.0484 -11051.8652 295.3138 -59.1224 -59.4428 531589.5230 -0.2476 -0.2911
ENERGY: 2000 3.2154 6.5895 16.9140 1.8368 -15289.0255 1548.8481 0.0000 0.0000 2624.3183 -11087.3034 298.9512 -13711.6217 -11080.7689 298.7252 -25.0327 -24.7265 511203.5722 1.0484 1.0277
ENERGY: 3000 5.1974 2.7227 14.5737 0.3371 -15274.5434 1580.1072 0.0000 0.0000 2619.2512 -11052.3542 298.3740 -13671.6054 -11046.2318 298.5618 6.7802 6.5374 533150.7531 -0.2123 -0.2008
ENERGY: 4000 3.4352 5.0773 13.7421 0.3575 -15390.1338 1705.9679 0.0000 0.0000 2659.4438 -11002.1101 302.9526 -13661.5539 -10996.8047 299.6878 45.6904 45.7403 556911.2071 1.4873 1.5009
ENERGY: 5000 11.5768 2.3199 14.6056 0.4887 -15333.8746 1641.1053 0.0000 0.0000 2557.7756 -11106.0026 291.3710 -13663.7783 -11102.3291 296.5265 8.3983 8.6726 565193.4182 1.9160 1.9109
TCL: Running FEP window   5: Lambda1 0.75   Lambda2 0.6875 [dLambda -0.0625]
TCL: Setting parameter firsttimestep to 0
TCL: Setting parameter alchLambda to 0.75
Info: NONBONDED TABLE R-SQUARED SPACING: 0.0625
Info: NONBONDED TABLE SIZE: 769 POINTS
TCL: Setting parameter alchLambda2 to 0.6875
Info: NONBONDED TABLE R-SQUARED SPACING: 0.0625
Info: NONBONDED TABLE SIZE: 769 POINTS
TCL: Running for 5000 steps
ETITLE: TS BOND ANGLE DIHED IMPRP ELECT VDW BOUNDARY MISC KINETIC TOTAL TEMP POTENTIAL TOTAL3 TEMPAVG PRESSURE GPRESSURE VOLUME PRESSAVG GPRESSAVG
ENERGY: 0 11.5768 2.3199 14.6056 0.4887 -15300.1387 1635.3231 0.0000 0.0000 2557.6949 -11078.1297 291.3618 -13635.8246 -11073.5270 291.3618 6.6582 6.6582 565193.4182 6.6582 6.6582
ENERGY: 1000 4.8256 4.5359 16.1000 0.5155 -15281.6268 1591.8308 0.0000 0.0000 2576.5225 -11087.2964 293.5065 -13663.8189 -11083.4502 296.5928 1.5034 1.3757 546486.8512 2.0901 2.1021
ENERGY: 2000 2.1236 3.8520 14.7563 1.4100 -15253.5466 1595.3476 0.0000 0.0000 2614.2825 -11021.7746 297.8080 -13636.0570 -11017.3912 298.0694 -14.6878 -15.2638 562267.6366 -1.5604 -1.5376
ENERGY: 3000 2.4186 2.1146 14.4157 0.5234 -15157.3906 1541.6511 0.0000 0.0000 2627.5360 -10968.7310 299.3178 -13596.2670 -10963.4255 298.8051 -13.4609 -13.1179 574902.0370 -2.2988 -2.2563
ENERGY: 4000 5.5183 3.8273 14.3285 0.4563 -15223.5332 1559.7324 0.0000 0.0000 2635.5544 -11004.1159 300.2312 -13639.6704 -10999.5174 299.4899 -9.9944 -10.0918 582592.4713 3.3154 3.3040
ENERGY: 5000 2.7017 2.2209 14.2805 0.4914 -15308.4508 1610.4330 0.0000 0.0000 2663.6238 -11014.6995 303.4287 -13678.3233 -11009.9190 300.8069 -1.1919 -1.7166 566266.4444 0.3679 0.3618
TCL: Running FEP window   6: Lambda1 0.6875 Lambda2 0.625  [dLambda -0.0625]
TCL: Setting parameter firsttimestep to 0
TCL: Setting parameter alchLambda to 0.6875
Info: NONBONDED TABLE R-SQUARED SPACING: 0.0625
Info: NONBONDED TABLE SIZE: 769 POINTS
TCL: Setting parameter alchLambda2 to 0.625
Info: NONBONDED TABLE R-SQUARED SPACING: 0.0625
Info: NONBONDED TABLE SIZE: 769 POINTS
TCL: Running for 5000 steps
ETITLE: TS BOND ANGLE DIHED IMPRP ELECT VDW BOUNDARY MISC KINETIC TOTAL TEMP POTENTIAL TOTAL3 TEMPAVG PRESSURE GPRESSURE VOLUME PRESSAVG GPRESSAVG
ENERGY: 0 2.7017 2.2209 14.2805 0.4914 -15279.6519 1609.1686 0.0000 0.0000 2663.5434 -10987.2455 303.4196 -13650.7889 -10982.1551 303.4196 -1.8217 -1.8217 566266.4444 -1.8217 -1.8217
ENERGY: 1000 5.9989 3.9911 13.5953 0.2582 -15210.0309 1545.6405 0.0000 0.0000 2583.0758 -11057.4711 294.2531 -13640.5469 -11053.1227 298.2144 -13.8852 -13.0417 553027.2163 1.3833 1.3918
ENERGY: 2000 2.5896 3.7340 13.4203 0.2763 -15106.1446 1498.1403 0.0000 0.0000 2659.2503 -10928.7337 302.9305 -13587.9840 -10921.9088 298.9139 -41.0224 -41.1314 586633.4146 -0.1955 -0.1949
ENERGY: 3000 3.4976 4.5924 13.4958 0.6645 -15312.1881 1689.1067 0.0000 0.0000 2636.0849 -10964.7463 300.2916 -13600.8312 -10957.1863 300.8630 34.2520 33.8266 615590.8651 0.5531 0.5671
ENERGY: 4000 2.4089 5.0688 14.2584 0.8748 -15196.1773 1573.4713 0.0000 0.0000 2644.6154 -10955.4796 301.2634 -13600.0950 -10948.9946 301.4962 -12.2618 -12.3429 643872.5686 2.6884 2.6704
ENERGY: 5000 1.9602 5.7237 14.0704 0.2865 -15265.5073 1580.5554 0.0000 0.0000 2555.3291 -11107.5822 291.0923 -13662.9112 -11102.5047 297.8221 -16.1753 -16.1240 650123.5450 1.6433 1.6664
TCL: Running FEP window   7: Lambda1 0.625  Lambda2 0.5625 [dLambda -0.0625]
TCL: Setting parameter firsttimestep to 0
TCL: Setting parameter alchLambda to 0.625
Info: NONBONDED TABLE R-SQUARED SPACING: 0.0625
Info: NONBONDED TABLE SIZE: 769 POINTS
TCL: Setting parameter alchLambda2 to 0.5625
Info: NONBONDED TABLE R-SQUARED SPACING: 0.0625
Info: NONBONDED TABLE SIZE: 769 POINTS
TCL: Running for 5000 steps
ETITLE: TS BOND ANGLE DIHED IMPRP ELECT VDW BOUNDARY MISC KINETIC TOTAL TEMP POTENTIAL TOTAL3 TEMPAVG PRESSURE GPRESSURE VOLUME PRESSAVG GPRESSAVG
ENERGY: 0 1.9602 5.7237 14.0704 0.2865 -15232.2088 1576.0123 0.0000 0.0000 2555.2476 -11078.9082 291.0830 -13634.1558 -11073.8272 291.0830 -16.7572 -16.7572 650123.5450 -16.7572 -16.7572
ENERGY: 1000 6.7182 2.6380 12.7006 0.4284 -15275.2293 1593.3408 0.0000 0.0000 2604.1248 -11055.2787 296.6509 -13659.4035 -11051.4504 294.1715 6.2574 6.4729 660040.8317 0.8211 0.8014
ENERGY: 2000 3.4098 3.4613 13.1324 0.3385 -15238.0458 1560.4202 0.0000 0.0000 2614.8066 -11042.4769 297.8677 -13657.2835 -11035.1572 298.5164 -16.8321 -16.8649 694175.2124 0.1555 0.1394
ENERGY: 3000 3.8070 3.3911 13.1656 0.6773 -15395.8049 1660.0909 0.0000 0.0000 2643.5112 -11071.1619 301.1376 -13714.6731 -11066.1274 294.9821 25.2256 25.2850 663112.3076 2.0915 2.0852
ENERGY: 4000 1.5399 2.8027 14.7299 0.8934 -15260.9962 1602.1532 0.0000 0.0000 2600.7235 -11038.1536 296.2634 -13638.8771 -11034.9465 296.3321 6.4557 5.8544 636594.1401 1.4095 1.4203
ENERGY: 5000 4.8831 2.4149 13.6322 0.1701 -15442.8891 1675.4407 0.0000 0.0000 2611.4658 -11134.8823 297.4871 -13746.3481 -11129.0433 295.4325 18.5594 18.2144 604497.5953 -0.3827 -0.4130
TCL: Running FEP window   8: Lambda1 0.5625 Lambda2 0.5    [dLambda -0.0625]
TCL: Setting parameter firsttimestep to 0
TCL: Setting parameter alchLambda to 0.5625
Info: NONBONDED TABLE R-SQUARED SPACING: 0.0625
Info: NONBONDED TABLE SIZE: 769 POINTS
TCL: Setting parameter alchLambda2 to 0.5
Info: NONBONDED TABLE R-SQUARED SPACING: 0.0625
Info: NONBONDED TABLE SIZE: 769 POINTS
TCL: Running for 5000 steps
ETITLE: TS BOND ANGLE DIHED IMPRP ELECT VDW BOUNDARY MISC KINETIC TOTAL TEMP POTENTIAL TOTAL3 TEMPAVG PRESSURE GPRESSURE VOLUME PRESSAVG GPRESSAVG
ENERGY: 0 4.8831 2.4149 13.6322 0.1701 -15415.0200 1675.3371 0.0000 0.0000 2611.3828 -11107.1998 297.4777 -13718.5826 -11102.4850 297.4777 18.7374 18.7374 604497.5953 18.7374 18.7374
ENERGY: 1000 1.2912 2.3956 13.8547 0.3221 -15312.3852 1665.4571 0.0000 0.0000 2567.1253 -11061.9392 292.4360 -13629.0645 -11056.5880 292.9817 25.4788 26.0613 616436.2863 -0.4182 -0.4217
ENERGY: 2000 0.6574 1.6379 15.5665 0.5383 -15204.7011 1621.0128 0.0000 0.0000 2557.1063 -11008.1820 291.2947 -13565.2884 -11002.3385 293.6974 4.7686 4.3397 654055.7157 2.9241 2.9166
ENERGY: 3000 1.7264 4.6819 13.9725 0.4506 -15163.4114 1546.6120 0.0000 0.0000 2567.5869 -11028.3811 292.4886 -13595.9680 -11022.5400 294.2566 -28.4094 -29.4416 664668.7775 0.3364 0.3339
ENERGY: 4000 4.8774 2.4356 13.8289 0.4768 -15163.4345 1629.4053 0.0000 0.0000 2585.4439 -10926.9665 294.5228 -13512.4104 -10919.9708 297.6788 10.3307 10.9150 638157.8370 0.3226 0.3040
ENERGY: 5000 2.3190 2.2683 15.2060 0.8479 -15151.2158 1577.2058 0.0000 0.0000 2572.0140 -10981.3547 292.9929 -13553.3687 -10977.0732 297.1086 -25.2170 -24.8011 640417.2542 1.2934 1.3061
TCL: Running FEP window   9: Lambda1 0.5    Lambda2 0.4375 [dLambda -0.0625]
TCL: Setting parameter firsttimestep to 0
TCL: Setting parameter alchLambda to 0.5
Info: NONBONDED TABLE R-SQUARED SPACING: 0.0625
Info: NONBONDED TABLE SIZE: 769 POINTS
TCL: Setting parameter alchLambda2 to 0.4375
Info: NONBONDED TABLE R-SQUARED SPACING: 0.0625
Info: NONBONDED TABLE SIZE: 769 POINTS
TCL: Running for 5000 steps
ETITLE: TS BOND ANGLE DIHED IMPRP ELECT VDW BOUNDARY MISC KINETIC TOTAL TEMP POTENTIAL TOTAL3 TEMPAVG PRESSURE GPRESSURE VOLUME PRESSAVG GPRESSAVG
ENERGY: 0 2.3190 2.2683 15.2060 0.8479 -15122.3818 1576.3324 0.0000 0.0000 2571.9315 -10953.4766 292.9835 -13525.4081 -10947.6975 292.9835 -24.2362 -24.2362 640417.2542 -24.2362 -24.2362
ENERGY: 1000 1.9831 5.3435 16.7826 0.7931 -15133.8471 1611.2661 0.0000 0.0000 2517.3073 -10980.3713 286.7610 -13497.6786 -10974.3252 295.8293 16.0300 16.5621 641409.7050 0.3462 0.3185
ENERGY: 2000 2.8866 6.2608 14.0521 0.2783 -15230.3320 1655.0370 0.0000 0.0000 2607.0933 -10944.7239 296.9890 -13551.8172 -10939.7294 295.2856 27.8337 27.9498 628895.6237 1.3785 1.3916
ENERGY: 3000 2.3043 4.3094 14.5991 0.8925 -15233.6018 1656.1847 0.0000 0.0000 2672.5856 -10882.7263 304.4496 -13555.3118 -10876.6946 300.3198 24.2392 24.2971 646714.5894 -0.3504 -0.3405
ENERGY: 4000 3.0625 2.3217 17.1016 0.6706 -15161.0662 1593.3952 0.0000 0.0000 2664.3860 -10880.1286 303.5156 -13544.5146 -10874.8420 300.6930 2.0754 2.0467 638611.8453 1.1873 1.1749
ENERGY: 5000 3.8969 3.8981 14.0801 0.0944 -15071.1680 1489.7692 0.0000 0.0000 2655.0299 -10904.3995 302.4498 -13559.4294 -10899.5905 299.9164 -40.6020 -41.2842 614167.6515 0.8426 0.7966
TCL: Running FEP window  10: Lambda1 0.4375 Lambda2 0.375  [dLambda -0.0625]
TCL: Setting parameter firsttimestep to 0
TCL: Setting parameter alchLambda to 0.4375
Info: NONBONDED TABLE R-SQUARED SPACING: 0.0625
Info: NONBONDED TABLE SIZE: 769 POINTS
TCL: Setting parameter alchLambda2 to 0.375
Info: NONBONDED TABLE R-SQUARED SPACING: 0.0625
Info: NONBONDED TABLE SIZE: 769 POINTS
TCL: Running for 5000 steps
ETITLE: TS BOND ANGLE DIHED IMPRP ELECT VDW BOUNDARY MISC KINETIC TOTAL TEMP POTENTIAL TOTAL3 TEMPAVG PRESSURE GPRESSURE VOLUME PRESSAVG GPRESSAVG
ENERGY: 0 3.8969 3.8981 14.0801 0.0944 -15071.1680 1490.0774 0.0000 0.0000 2654.9496 -10904.1716 302.4406 -13559.1212 -10898.8657 302.4406 -41.7114 -41.7114 614167.6515 -41.7114 -41.7114
ENERGY: 1000 3.4304 3.2167 12.9444 0.1602 -15287.1959 1649.4022 0.0000 0.0000 2596.2820 -11021.7600 295.7575 -13618.0420 -11016.0699 297.2876 6.3183 6.0267 563978.2241 1.0376 1.0340
ENERGY: 2000 3.7843 5.5136 14.9503 0.5769 -15203.8530 1689.0139 0.0000 0.0000 2618.8911 -10871.1229 298.3330 -13490.0139 -10867.0018 299.8955 55.1282 55.6110 543877.0210 1.7119 1.7320
ENERGY: 3000 3.1481 6.1957 14.0593 1.0130 -15191.5150 1611.0066 0.0000 0.0000 2584.7373 -10971.3549 294.4423 -13556.0922 -10966.1943 296.2508 -0.0802 -0.0621 527579.4560 1.6464 1.6843
ENERGY: 4000 3.6231 4.2497 14.6357 0.1710 -15172.7908 1529.9992 0.0000 0.0000 2633.9598 -10986.1524 300.0495 -13620.1122 -10980.1421 297.3995 -51.5193 -51.3902 520382.8761 0.3432 0.3323
ENERGY: 5000 1.7756 3.0040 14.0661 1.2937 -15209.2400 1647.8812 0.0000 0.0000 2623.3355 -10917.8839 298.8393 -13541.2194 -10913.0210 299.3788 14.9904 14.6954 532222.5783 0.1756 0.1561
TCL: Running FEP window  11: Lambda1 0.375  Lambda2 0.3125 [dLambda -0.0625]
TCL: Setting parameter firsttimestep to 0
TCL: Setting parameter alchLambda to 0.375
Info: NONBONDED TABLE R-SQUARED SPACING: 0.0625
Info: NONBONDED TABLE SIZE: 769 POINTS
TCL: Setting parameter alchLambda2 to 0.3125
Info: NONBONDED TABLE R-SQUARED SPACING: 0.0625
Info: NONBONDED TABLE SIZE: 769 POINTS
TCL: Running for 5000 steps
ETITLE: TS BOND ANGLE DIHED IMPRP ELECT VDW BOUNDARY MISC KINETIC TOTAL TEMP POTENTIAL TOTAL3 TEMPAVG PRESSURE GPRESSURE VOLUME PRESSAVG GPRESSAVG
ENERGY: 0 1.7756 3.0040 14.0661 1.2937 -15209.2400 1646.8896 0.0000 0.0000 2623.2584 -10918.9527 298.8305 -13542.2111 -10913.7624 298.8305 13.7813 13.7813 532222.5783 13.7813 13.7813
ENERGY: 1000 2.4789 5.7791 19.6981 0.4802 -15101.1117 1589.7712 0.0000 0.0000 2600.2879 -10882.6161 296.2138 -13482.9041 -10877.5909 297.5670 -0.2174 -0.6877 538378.2803 0.5088 0.4989
ENERGY: 2000 1.8121 2.0853 12.8019 0.6016 -15235.7102 1641.0860 0.0000 0.0000 2734.0656 -10843.2576 311.4532 -13577.3231 -10837.2778 300.0221 9.5516 9.2115 569602.8720 0.7896 0.7862
ENERGY: 3000 1.8594 1.8160 13.0540 0.1653 -15018.6120 1520.1734 0.0000 0.0000 2661.2230 -10820.3210 303.1553 -13481.5440 -10814.4985 301.6948 -49.2117 -49.1272 600866.8980 -0.4345 -0.4121
ENERGY: 4000 2.7075 2.8704 12.6503 0.1836 -15041.4345 1593.3847 0.0000 0.0000 2536.8806 -10892.7575 288.9907 -13429.6380 -10888.8770 297.9980 -10.4036 -10.3726 584809.8817 1.4429 1.4348
ENERGY: 5000 5.9081 1.7662 14.5039 0.6566 -15186.0485 1641.5076 0.0000 0.0000 2665.0792 -10856.6268 303.5945 -13521.7060 -10851.9030 300.8875 22.7020 21.3372 576906.6097 1.0432 1.0433
TCL: Running FEP window  12: Lambda1 0.3125 Lambda2 0.25   [dLambda -0.0625]
TCL: Setting parameter firsttimestep to 0
TCL: Setting parameter alchLambda to 0.3125
Info: NONBONDED TABLE R-SQUARED SPACING: 0.0625
Info: NONBONDED TABLE SIZE: 769 POINTS
TCL: Setting parameter alchLambda2 to 0.25
Info: NONBONDED TABLE R-SQUARED SPACING: 0.0625
Info: NONBONDED TABLE SIZE: 769 POINTS
TCL: Running for 5000 steps
ETITLE: TS BOND ANGLE DIHED IMPRP ELECT VDW BOUNDARY MISC KINETIC TOTAL TEMP POTENTIAL TOTAL3 TEMPAVG PRESSURE GPRESSURE VOLUME PRESSAVG GPRESSAVG
ENERGY: 0 5.9081 1.7662 14.5039 0.6566 -15186.0485 1641.8305 0.0000 0.0000 2665.0022 -10856.3808 303.5858 -13521.3831 -10851.7973 303.5858 21.0845 21.0845 576906.6097 21.0845 21.0845
ENERGY: 1000 3.1214 4.0927 12.9642 0.4577 -15276.1839 1718.6914 0.0000 0.0000 2569.2652 -10967.5913 292.6798 -13536.8565 -10963.4285 298.3522 70.6299 70.3848 561834.9054 2.8543 2.8414
ENERGY: 2000 3.2469 8.3097 15.2173 0.3914 -15215.4453 1584.0755 0.0000 0.0000 2644.7446 -10959.4599 301.2781 -13604.2045 -10953.2717 296.9051 -6.5042 -7.2965 546835.8002 -0.5398 -0.5394
ENERGY: 3000 3.6506 2.5597 13.2625 0.5129 -15222.7831 1598.4415 0.0000 0.0000 2573.5998 -11030.7559 293.1736 -13604.3557 -11026.7363 294.5406 3.3428 2.1623 512679.2756 2.1203 2.1481
ENERGY: 4000 4.0795 3.4817 13.1558 0.4895 -15160.5343 1588.3780 0.0000 0.0000 2543.7289 -11007.2211 289.7708 -13550.9499 -11002.2640 295.0498 -7.7570 -8.3879 495423.8847 -1.2385 -1.2893
ENERGY: 5000 2.3809 3.0624 12.9705 0.3324 -15119.5702 1571.2244 0.0000 0.0000 2531.1301 -10998.4694 288.3356 -13529.5995 -10993.9626 296.6365 -3.0653 -3.4333 493704.6893 2.0354 2.0016
TCL: Running FEP window  13: Lambda1 0.25   Lambda2 0.1875 [dLambda -0.0625]
TCL: Setting parameter firsttimestep to 0
TCL: Setting parameter alchLambda to 0.25
Info: NONBONDED TABLE R-SQUARED SPACING: 0.0625
Info: NONBONDED TABLE SIZE: 769 POINTS
TCL: Setting parameter alchLambda2 to 0.1875
Info: NONBONDED TABLE R-SQUARED SPACING: 0.0625
Info: NONBONDED TABLE SIZE: 769 POINTS
TCL: Running for 5000 steps
ETITLE: TS BOND ANGLE DIHED IMPRP ELECT VDW BOUNDARY MISC KINETIC TOTAL TEMP POTENTIAL TOTAL3 TEMPAVG PRESSURE GPRESSURE VOLUME PRESSAVG GPRESSAVG
ENERGY: 0 2.3809 3.0624 12.9705 0.3324 -15119.5702 1571.9092 0.0000 0.0000 2531.0485 -10997.8662 288.3263 -13528.9147 -10993.1276 288.3263 -3.5792 -3.5792 493704.6893 -3.5792 -3.5792
ENERGY: 1000 4.7435 2.6881 13.2856 0.2610 -15230.5675 1627.6431 0.0000 0.0000 2646.3503 -10935.5958 301.4610 -13581.9461 -10931.4121 299.5262 23.2530 23.0203 488195.6064 2.6610 2.6322
ENERGY: 2000 3.2439 3.1116 12.8412 0.5963 -15066.1548 1554.5173 0.0000 0.0000 2553.2645 -10938.5800 290.8571 -13491.8445 -10932.3488 298.0528 -26.9271 -26.1840 490134.7125 0.8467 0.8574
ENERGY: 3000 0.9495 2.8143 12.4714 0.1606 -15253.5634 1660.7665 0.0000 0.0000 2613.8150 -10962.5861 297.7547 -13576.4011 -10957.1350 295.7027 26.5917 25.6231 493911.0429 2.7732 2.7520
ENERGY: 4000 1.6414 2.0262 17.9326 0.3598 -15142.7344 1615.6049 0.0000 0.0000 2612.6046 -10892.5650 297.6168 -13505.1696 -10887.8258 299.9664 6.2345 5.7946 502446.3348 2.2632 2.2800
ENERGY: 5000 1.8057 3.1906 12.7544 0.2812 -15084.2403 1567.8251 0.0000 0.0000 2589.1813 -10909.2019 294.9486 -13498.3833 -10902.6666 299.9832 -14.2145 -13.9014 508953.6782 1.3394 1.3480
TCL: Running FEP window  14: Lambda1 0.1875 Lambda2 0.125  [dLambda -0.0625]
TCL: Setting parameter firsttimestep to 0
TCL: Setting parameter alchLambda to 0.1875
Info: NONBONDED TABLE R-SQUARED SPACING: 0.0625
Info: NONBONDED TABLE SIZE: 769 POINTS
TCL: Setting parameter alchLambda2 to 0.125
Info: NONBONDED TABLE R-SQUARED SPACING: 0.0625
Info: NONBONDED TABLE SIZE: 769 POINTS
TCL: Running for 5000 steps
ETITLE: TS BOND ANGLE DIHED IMPRP ELECT VDW BOUNDARY MISC KINETIC TOTAL TEMP POTENTIAL TOTAL3 TEMPAVG PRESSURE GPRESSURE VOLUME PRESSAVG GPRESSAVG
ENERGY: 0 1.8057 3.1906 12.7544 0.2812 -15084.2403 1567.9541 0.0000 0.0000 2589.1041 -10909.1502 294.9398 -13498.2543 -10903.6530 294.9398 -13.9839 -13.9839 508953.6782 -13.9839 -13.9839
ENERGY: 1000 3.1500 1.2285 12.7662 0.2107 -15153.0668 1564.9795 0.0000 0.0000 2648.0909 -10922.6410 301.6593 -13570.7319 -10917.7858 297.2734 -20.1989 -20.0629 492856.6845 -1.1056 -1.1418
ENERGY: 2000 1.4948 2.5210 13.7688 0.5271 -15104.8395 1631.5873 0.0000 0.0000 2605.3402 -10849.6004 296.7893 -13454.9406 -10846.7984 301.8918 28.1339 28.4481 469070.0890 1.6365 1.6531
ENERGY: 3000 3.0207 3.7548 12.8948 0.1681 -15084.2435 1531.1041 0.0000 0.0000 2600.9902 -10932.3106 296.2938 -13533.3008 -10929.2550 298.6821 -41.0831 -41.5648 472458.1850 2.0928 2.0877
ENERGY: 4000 3.3780 2.5713 14.0769 1.2029 -15050.7423 1514.9017 0.0000 0.0000 2583.1845 -10931.4270 294.2654 -13514.6115 -10928.2292 295.6135 -44.1694 -44.6330 476710.7918 1.9765 1.9836
ENERGY: 5000 2.3794 2.3983 14.4755 0.3748 -15264.6983 1621.7517 0.0000 0.0000 2617.8470 -11005.4714 298.2140 -13623.3185 -11000.8571 295.5989 -0.4165 0.9068 480854.6695 1.3752 1.3808
TCL: Running FEP window  15: Lambda1 0.125  Lambda2 0.0625 [dLambda -0.0625]
TCL: Setting parameter firsttimestep to 0
TCL: Setting parameter alchLambda to 0.125
Info: NONBONDED TABLE R-SQUARED SPACING: 0.0625
Info: NONBONDED TABLE SIZE: 769 POINTS
TCL: Setting parameter alchLambda2 to 0.0625
Info: NONBONDED TABLE R-SQUARED SPACING: 0.0625
Info: NONBONDED TABLE SIZE: 769 POINTS
TCL: Running for 5000 steps
ETITLE: TS BOND ANGLE DIHED IMPRP ELECT VDW BOUNDARY MISC KINETIC TOTAL TEMP POTENTIAL TOTAL3 TEMPAVG PRESSURE GPRESSURE VOLUME PRESSAVG GPRESSAVG
ENERGY: 0 2.3794 2.3983 14.4755 0.3748 -15264.6983 1621.4769 0.0000 0.0000 2617.7658 -11005.8275 298.2048 -13623.5933 -11001.4445 298.2048 0.6320 0.6320 480854.6695 0.6320 0.6320
ENERGY: 1000 3.9686 3.1533 14.3697 0.6435 -15147.4501 1547.4275 0.0000 0.0000 2583.3613 -10994.5261 294.2856 -13577.8875 -10988.4587 296.3112 -27.7495 -28.1604 476423.4811 1.5534 1.5930
ENERGY: 2000 5.7126 4.0205 13.6787 0.6517 -15129.6909 1631.8342 0.0000 0.0000 2569.9509 -10903.8422 292.7579 -13473.7931 -10899.3032 295.8681 9.5767 8.9278 453424.9557 1.1977 1.1512
ENERGY: 3000 1.6726 3.4647 13.9094 0.4193 -15045.4536 1532.6522 0.0000 0.0000 2609.5447 -10883.7907 297.2683 -13493.3353 -10878.8260 298.3508 -60.2851 -60.0217 415564.2990 -0.4530 -0.4691
ENERGY: 4000 2.1897 2.1576 13.1850 0.2139 -15246.6940 1643.8263 0.0000 0.0000 2657.9583 -10927.1634 302.7833 -13585.1216 -10921.2403 296.6411 13.8053 13.7202 423791.5112 -0.9913 -0.9384
ENERGY: 5000 2.4888 2.0897 13.7194 0.3944 -15123.4629 1606.3252 0.0000 0.0000 2587.9235 -10910.5219 294.8053 -13498.4454 -10906.2541 296.8385 6.6241 6.3629 420202.3891 -0.1956 -0.2571
TCL: Running FEP window  16: Lambda1 0.0625 Lambda2 0.0    [dLambda -0.0625]
TCL: Setting parameter firsttimestep to 0
TCL: Setting parameter alchLambda to 0.0625
Info: NONBONDED TABLE R-SQUARED SPACING: 0.0625
Info: NONBONDED TABLE SIZE: 769 POINTS
TCL: Setting parameter alchLambda2 to 0.0
Info: NONBONDED TABLE R-SQUARED SPACING: 0.0625
Info: NONBONDED TABLE SIZE: 769 POINTS
TCL: Running for 5000 steps
ETITLE: TS BOND ANGLE DIHED IMPRP ELECT VDW BOUNDARY MISC KINETIC TOTAL TEMP POTENTIAL TOTAL3 TEMPAVG PRESSURE GPRESSURE VOLUME PRESSAVG GPRESSAVG
ENERGY: 0 2.4888 2.0897 13.7194 0.3944 -15123.4629 1606.3083 0.0000 0.0000 2587.8447 -10910.6175 294.7963 -13498.4623 -10906.4071 294.7963 6.1878 6.1878 420202.3891 6.1878 6.1878
ENERGY: 1000 3.7311 4.2244 13.8188 0.1201 -15313.9134 1729.1126 0.0000 0.0000 2564.6286 -10998.2778 292.1516 -13562.9064 -10995.3218 295.8482 70.2023 70.3136 431624.8322 -0.0810 -0.0657
ENERGY: 2000 2.4048 3.8140 15.4367 0.8489 -15146.3263 1556.8636 0.0000 0.0000 2626.3954 -10940.5628 299.1878 -13566.9582 -10935.7809 294.9831 -23.0949 -22.9771 438132.8499 3.0567 3.0690
ENERGY: 3000 1.0475 2.6519 13.9134 0.9807 -15333.6425 1709.9441 0.0000 0.0000 2646.8742 -10958.2306 301.5207 -13605.1048 -10952.5396 295.9610 76.5759 76.6451 416253.8132 1.8618 1.8274
ENERGY: 4000 2.7245 3.6246 12.9823 0.1545 -15043.4580 1465.1160 0.0000 0.0000 2628.8419 -10930.0141 299.4665 -13558.8561 -10924.2909 297.3034 -97.6591 -96.6033 429183.5972 -1.1033 -1.1191
ENERGY: 5000 3.0285 3.5159 12.4779 0.0915 -15242.4235 1596.6896 0.0000 0.0000 2593.3678 -11033.2524 295.4255 -13626.6202 -11027.1782 295.4539 -23.5104 -23.4869 423423.5060 -1.1469 -1.1422
