Info: SIMULATION PARAMETERS:
Info: TIMESTEP               2
Info: NUMBER OF STEPS        0
Info: STEPS PER CYCLE        10
Info: PERIODIC CELL BASIS 1  80.9637 0 0
Info: PERIODIC CELL BASIS 2  0 80.9637 0
Info: PERIODIC CELL BASIS 3  0 0 80.9637
Info: PERIODIC CELL CENTER   35.792 35.792 35.792
Info: WRAPPING ALL CLUSTERS AROUND PERIODIC BOUNDARIES ON OUTPUT.
Info: FIRST LDB TIMESTEP     50
Info: LAST LDB TIMESTEP     -1
Info: HOM BACKGROUND SCALING 1
Info: PME BACKGROUND SCALING 1
Info: MIN ATOMS PER PATCH    40
Info: EMPTY PATCH LOAD       40 ATOMS
Info: VELOCITY FILE          mobley_9557440_equilibrated.vel
Info: CENTER OF MASS MOVING INITIALLY? NO
Info: DIELECTRIC             1
Info: EXCLUDE                SCALED ONE-FOUR
Info: 1-4 ELECTROSTATICS SCALED BY 1
Info: MODIFIED 1-4 VDW PARAMETERS WILL BE USED
Info: DCD FILENAME           mobley_9557440_forwards.dcd
Info: DCD FREQUENCY          500
Info: DCD FIRST STEP         500
Info: DCD FILE WILL CONTAIN UNIT CELL DATA
Info: NO EXTENDED SYSTEM TRAJECTORY OUTPUT
Info: NO VELOCITY DCD OUTPUT
Info: NO FORCE DCD OUTPUT
Info: OUTPUT FILENAME        mobley_9557440_forwards
Info: BINARY OUTPUT FILES WILL BE USED
Info: NO RESTART FILE
Info: SWITCHING ACTIVE
Info: SWITCHING ON           10
Info: SWITCHING OFF          12
Info: PAIRLIST DISTANCE      14
Info: PAIRLIST SHRINK RATE   0.01
Info: PAIRLIST GROW RATE     0.01
Info: PAIRLIST TRIGGER       0.3
Info: PAIRLISTS PER CYCLE    2
Info: PAIRLISTS ENABLED
Info: MARGIN                 8
Info: HYDROGEN GROUP CUTOFF  2.5
Info: PATCH DIMENSION        24.5
Info: ENERGY OUTPUT STEPS    500
Info: ENERGY EVALUATION STEPS    500
Info: OUTPUT ENERGY PRECISION 4
Info: CROSSTERM ENERGY INCLUDED IN DIHEDRAL
Info: TIMING OUTPUT STEPS    500
Info: PRESSURE OUTPUT STEPS  500
Info: ALCHEMICAL FEP ON
Info: FEP CURRENT LAMBDA VALUE     0
Info: FEP COMPARISON LAMBDA VALUE  0.0625
Info: FEP INTRA-ALCHEMICAL NON-BONDED INTERACTIONS WILL BE DECOUPLED
Info: FEP INTRA-ALCHEMICAL BONDED INTERACTIONS WILL BE RETAINED
Info: FEP VDW SHIFTING COEFFICIENT 6
Info: FEP ELEC. ACTIVE FOR ANNIHILATED PARTICLES BETWEEN LAMBDA = 0 AND LAMBDA = 0.5
Info: FEP ELEC. ACTIVE FOR EXNIHILATED PARTICLES BETWEEN LAMBDA = 0.5 AND LAMBDA = 1
Info: FEP VDW ACTIVE FOR ANNIHILATED PARTICLES BETWEEN LAMBDA = 0 AND LAMBDA = 1
Info: FEP VDW ACTIVE FOR EXNIHILATED PARTICLES BETWEEN LAMBDA = 0 AND LAMBDA = 1
Info: FEP BOND ACTIVE FOR ANNIHILATED PARTICLES BETWEEN LAMBDA = 1 AND LAMBDA = 1
Info: FEP BOND ACTIVE FOR EXNIHILATED PARTICLES BETWEEN LAMBDA = 0 AND LAMBDA = 0
Info: LANGEVIN DYNAMICS ACTIVE
Info: LANGEVIN TEMPERATURE   298
Info: LANGEVIN USING BBK INTEGRATOR
Info: LANGEVIN DAMPING COEFFICIENT IS 1 INVERSE PS
Info: LANGEVIN DYNAMICS NOT APPLIED TO HYDROGENS
Info: LANGEVIN PISTON PRESSURE CONTROL ACTIVE
Info:        TARGET PRESSURE IS 1.01325 BAR
Info:     OSCILLATION PERIOD IS 100 FS
Info:             DECAY TIME IS 50 FS
Info:     PISTON TEMPERATURE IS 298 K
Info:       PRESSURE CONTROL IS GROUP-BASED
Info:    INITIAL STRAIN RATE IS -1.71303e-05 -1.71303e-05 -1.71303e-05
Info:       CELL FLUCTUATION IS ISOTROPIC
Info: PARTICLE MESH EWALD (PME) ACTIVE
Info: PME TOLERANCE               1e-05
Info: PME EWALD COEFFICIENT       0.226635
Info: PME INTERPOLATION ORDER     4
Info: PME GRID DIMENSIONS         84 84 84
Info: PME MAXIMUM GRID SPACING    1
Info: FULL ELECTROSTATIC EVALUATION FREQUENCY      1
Info: USING VERLET I (r-RESPA) MTS SCHEME.
Info: C1 SPLITTING OF LONG RANGE ELECTROSTATICS
Info: PLACING ATOMS IN PATCHES BY HYDROGEN GROUPS
Info: RIGID BONDS TO HYDROGEN : ALL
Info:         ERROR TOLERANCE : 1e-08
Info:          MAX ITERATIONS : 100
Info: RIGID WATER USING SETTLE ALGORITHM
Info: RANDOM NUMBER SEED     1740653760
Info: USE HYDROGEN BONDS?    NO
Info: COORDINATE PDB         mobley_9557440.pdb
Info: STRUCTURE FILE         mobley_9557440.psf
Info: PARAMETER file: CHARMM format!
Info: PARAMETERS             ../common/par_all27_prot_lipid.inp
Info: PARAMETERS             mobley_9557440.prm
Info: USING ARITHMETIC MEAN TO COMBINE L-J SIGMA PARAMETERS
Info: BINARY COORDINATES     mobley_9557440_equilibrated.coor
Info: SUMMARY OF PARAMETERS:
Info: 188 BONDS
Info: 461 ANGLES
Info: 587 DIHEDRAL
Info: 52 IMPROPER
Info: 6 CROSSTERM
Info: 127 VDW
Info: 0 VDW_PAIRS
Info: 0 NBTHOLE_PAIRS
Info: To read alchdata from file: mobley_9557440.pdb
Info: To read alchflag data from column: 5
Info: STRUCTURE SUMMARY:
Info: 4413 ATOMS
Info: 2946 BONDS
Info: 1485 ANGLES
Info: 24 DIHEDRALS
Info: 6 IMPROPERS
Info: 0 CROSSTERMS
Info: 0 EXCLUSIONS
Info: 4404 RIGID BONDS
Info: ALCH: 0 ATOMS TO DISAPPEAR IN FINAL STATE
Info: ALCH: 12 ATOMS TO APPEAR IN FINAL STATE
Info: 8835 DEGREES OF FREEDOM
Info: 1476 HYDROGEN GROUPS
Info: 3 ATOMS IN LARGEST HYDROGEN GROUP
Info: 1476 MIGRATION GROUPS
Info: 3 ATOMS IN LARGEST MIGRATION GROUP
Info: TOTAL MASS = 26575.1 amu
Info: TOTAL CHARGE = -9.76026e-07 e
Info: MASS DENSITY = 0.0831503 g/cm^3
Info: ATOM DENSITY = 0.00831501 atoms/A^3
Info: ADDED 4452 IMPLICIT EXCLUSIONS
Info: NONBONDED TABLE R-SQUARED SPACING: 0.0625
Info: NONBONDED TABLE SIZE: 769 POINTS
Info: REMOVING COM VELOCITY -0.135814 -0.187689 -0.112265
TCL: Running for 5000 steps
ETITLE: TS BOND ANGLE DIHED IMPRP ELECT VDW BOUNDARY MISC KINETIC TOTAL TEMP POTENTIAL TOTAL3 TEMPAVG PRESSURE GPRESSURE VOLUME PRESSAVG GPRESSAVG
ENERGY: 0 3.2706 4.0009 14.4734 0.5369 -15220.3034 1681.5298 0.0000 0.0000 2612.7921 -10903.6997 297.6382 -13516.4919 -10898.4704 297.6382 55.7068 55.7068 530726.6534 55.7068 55.7068
ENERGY: 1000 1.3800 4.0450 12.7438 0.6828 -15033.7751 1605.5766 0.0000 0.0000 2634.1600 -10775.1869 300.0723 -13409.3469 -10770.5532 303.2174 0.3444 -0.1349 540273.6615 0.8353 0.8422
ENERGY: 2000 1.8881 4.7017 16.9503 1.0690 -15161.7464 1629.0188 0.0000 0.0000 2643.3281 -10864.7904 301.1167 -13508.1185 -10860.5331 304.1636 16.1282 16.2287 527371.8995 1.4660 1.4489
ENERGY: 3000 1.9764 2.7007 13.6156 0.3957 -15126.5654 1594.5572 0.0000 0.0000 2566.2032 -10947.1166 292.3310 -13513.3198 -10941.9483 298.9395 -23.6373 -23.4206 495328.9587 0.2999 0.3464
ENERGY: 4000 4.9224 4.2958 14.5391 0.3591 -15096.0260 1621.6113 0.0000 0.0000 2573.8721 -10876.4262 293.2046 -13450.2983 -10871.6427 300.2454 17.8640 17.9424 491751.1907 1.2332 1.2342
ENERGY: 5000 1.2790 1.8418 15.4731 1.0421 -15178.4977 1646.7867 0.0000 0.0000 2626.3278 -10885.7472 299.1801 -13512.0750 -10880.3320 299.1240 34.1193 34.1782 500527.0107 1.4872 1.5271
TCL: Running FEP window   2: Lambda1 0.0625 Lambda2 0.125  [dLambda 0.0625]
TCL: Setting parameter firsttimestep to 0
TCL: Setting parameter alchLambda to 0.0625
Info: NONBONDED TABLE R-SQUARED SPACING: 0.0625
Info: NONBONDED TABLE SIZE: 769 POINTS
TCL: Setting parameter alchLambda2 to 0.125
Info: NONBONDED TABLE R-SQUARED SPACING: 0.0625
Info: NONBONDED TABLE SIZE: 769 POINTS
TCL: Running for 5000 steps
ETITLE: TS BOND ANGLE DIHED IMPRP ELECT VDW BOUNDARY MISC KINETIC TOTAL TEMP POTENTIAL TOTAL3 TEMPAVG PRESSURE GPRESSURE VOLUME PRESSAVG GPRESSAVG
ENERGY: 0 1.2790 1.8418 15.4731 1.0421 -15178.4977 1646.4185 0.0000 0.0000 2626.2457 -10886.1975 299.1708 -13512.4432 -10881.6281 299.1708 34.3081 34.3081 500527.0107 34.3081 34.3081
ENERGY: 1000 3.5014 2.6620 14.8873 1.2579 -15150.6130 1590.5808 0.0000 0.0000 2606.9649 -10930.7587 296.9744 -13537.7236 -10926.9379 298.1002 -10.1323 -9.5581 496944.7752 0.2193 0.2125
ENERGY: 2000 2.2751 2.1825 13.5385 1.2813 -15178.3809 1620.5671 0.0000 0.0000 2617.7320 -10920.8044 298.2009 -13538.5364 -10915.0195 297.4775 -3.0525 -4.4231 478313.5375 0.5029 0.5366
ENERGY: 3000 3.8535 3.2832 14.3917 0.2920 -15110.0289 1528.3041 0.0000 0.0000 2672.4929 -10887.4115 304.4391 -13559.9044 -10880.4895 300.4528 -19.3486 -18.1126 450874.1019 1.2836 1.2786
ENERGY: 4000 4.0143 2.6936 12.8699 0.1650 -15236.2473 1638.5169 0.0000 0.0000 2684.7416 -10893.2461 305.8344 -13577.9877 -10889.2083 301.4136 18.5237 18.7973 448573.9058 1.3608 1.3798
ENERGY: 5000 2.5318 4.8990 14.2439 0.4790 -15188.8289 1622.0060 0.0000 0.0000 2599.3813 -10945.2879 296.1105 -13544.6692 -10943.0508 296.4916 -2.8194 -2.7897 449335.4290 0.3771 0.3880
TCL: Running FEP window   3: Lambda1 0.125  Lambda2 0.1875 [dLambda 0.0625]
TCL: Setting parameter firsttimestep to 0
TCL: Setting parameter alchLambda to 0.125
Info: NONBONDED TABLE R-SQUARED SPACING: 0.0625
Info: NONBONDED TABLE SIZE: 769 POINTS
TCL: Setting parameter alchLambda2 to 0.1875
Info: NONBONDED TABLE R-SQUARED SPACING: 0.0625
Info: NONBONDED TABLE SIZE: 769 POINTS
TCL: Running for 5000 steps
ETITLE: TS BOND ANGLE DIHED IMPRP ELECT VDW BOUNDARY MISC KINETIC TOTAL TEMP POTENTIAL TOTAL3 TEMPAVG PRESSURE GPRESSURE VOLUME PRESSAVG GPRESSAVG
ENERGY: 0 2.5318 4.8990 14.2439 0.4790 -15188.8289 1622.8242 0.0000 0.0000 2599.2992 -10944.5518 296.1012 -13543.8510 -10939.9172 296.1012 -2.8221 -2.8221 449335.4290 -2.8221 -2.8221
ENERGY: 1000 1.0854 3.4913 14.3173 1.0739 -15178.7618 1586.4045 0.0000 0.0000 2619.6267 -10952.7628 298.4168 -13572.3895 -10947.3593 297.3786 -25.1417 -24.6216 448595.8626 -0.9565 -0.9152
ENERGY: 2000 2.4658 4.5233 16.1931 0.3113 -15274.5656 1680.6060 0.0000 0.0000 2615.0112 -10955.4549 297.8910 -13570.4661 -10949.5950 296.7021 34.9418 34.5116 444489.6577 -0.2779 -0.2664
ENERGY: 3000 0.4603 4.7819 13.0533 0.2831 -15180.8280 1614.8873 0.0000 0.0000 2546.8566 -11000.5055 290.1271 -13547.3621 -10995.1744 296.0789 2.1183 2.3699 419869.0902 1.5914 1.6143
ENERGY: 4000 1.9573 3.3530 14.9060 0.7236 -15245.2458 1607.6243 0.0000 0.0000 2618.8559 -10997.8256 298.3290 -13616.6815 -10991.8170 296.4553 14.4696 14.6653 401973.4249 1.1748 1.1669
ENERGY: 5000 1.8718 3.9779 14.3450 0.7620 -15243.0860 1633.9619 0.0000 0.0000 2609.9638 -10978.2034 297.3160 -13588.1673 -10970.9310 298.5508 27.9327 29.1481 387681.3714 2.6015 2.5807
TCL: Running FEP window   4: Lambda1 0.1875 Lambda2 0.25   [dLambda 0.0625]
TCL: Setting parameter firsttimestep to 0
TCL: Setting parameter alchLambda to 0.1875
Info: NONBONDED TABLE R-SQUARED SPACING: 0.0625
Info: NONBONDED TABLE SIZE: 769 POINTS
TCL: Setting parameter alchLambda2 to 0.25
Info: NONBONDED TABLE R-SQUARED SPACING: 0.0625
Info: NONBONDED TABLE SIZE: 769 POINTS
TCL: Running for 5000 steps
ETITLE: TS BOND ANGLE DIHED IMPRP ELECT VDW BOUNDARY MISC KINETIC TOTAL TEMP POTENTIAL TOTAL3 TEMPAVG PRESSURE GPRESSURE VOLUME PRESSAVG GPRESSAVG
ENERGY: 0 1.8718 3.9779 14.3450 0.7620 -15243.0860 1634.4476 0.0000 0.0000 2609.8913 -10977.7903 297.3078 -13587.6817 -10973.0269 297.3078 29.8672 29.8672 387681.3714 29.8672 29.8672
ENERGY: 1000 4.9902 2.8687 16.0112 0.2401 -15145.6775 1603.6129 0.0000 0.0000 2620.8560 -10897.0984 298.5568 -13517.9544 -10891.9816 299.3180 24.2283 22.9411 369777.5857 0.1875 0.1991
ENERGY: 2000 4.0766 4.7213 13.8464 0.4251 -15238.7928 1630.9133 0.0000 0.0000 2599.0381 -10985.7720 296.0714 -13584.8101 -10980.6211 297.5220 -9.7027 -10.2107 378797.8500 -2.5824 -2.5941
ENERGY: 3000 3.9539 2.3551 13.4602 0.1948 -15258.3673 1614.6033 0.0000 0.0000 2690.8653 -10932.9347 306.5320 -13623.7999 -10928.3918 298.7554 10.0372 9.0336 362141.7206 5.5229 5.5757
ENERGY: 4000 2.6810 3.4420 13.3145 0.1703 -15268.0363 1702.4987 0.0000 0.0000 2615.2086 -10930.7211 297.9135 -13545.9297 -10924.7700 296.0051 54.8671 55.6268 351641.0046 -1.8162 -1.8284
ENERGY: 5000 4.1599 2.7529 14.0526 0.6198 -15091.2334 1562.6502 0.0000 0.0000 2602.6656 -10904.3324 296.4846 -13506.9980 -10900.5658 300.5059 -14.1941 -15.1789 335389.8479 3.5537 3.5497
TCL: Running FEP window   5: Lambda1 0.25   Lambda2 0.3125 [dLambda 0.0625]
TCL: Setting parameter firsttimestep to 0
TCL: Setting parameter alchLambda to 0.25
Info: NONBONDED TABLE R-SQUARED SPACING: 0.0625
Info: NONBONDED TABLE SIZE: 769 POINTS
TCL: Setting parameter alchLambda2 to 0.3125
Info: NONBONDED TABLE R-SQUARED SPACING: 0.0625
Info: NONBONDED TABLE SIZE: 769 POINTS
TCL: Running for 5000 steps
ETITLE: TS BOND ANGLE DIHED IMPRP ELECT VDW BOUNDARY MISC KINETIC TOTAL TEMP POTENTIAL TOTAL3 TEMPAVG PRESSURE GPRESSURE VOLUME PRESSAVG GPRESSAVG
ENERGY: 0 4.1599 2.7529 14.0526 0.6198 -15091.2334 1565.1289 0.0000 0.0000 2602.5822 -10901.9371 296.4751 -13504.5193 -10897.0091 296.4751 -14.1400 -14.1400 335389.8479 -14.1400 -14.1400
ENERGY: 1000 2.0881 3.0140 15.2254 0.2294 -15159.6813 1621.9185 0.0000 0.0000 2612.1394 -10905.0666 297.5639 -13517.2060 -10903.4599 298.1647 34.3324 34.7396 317174.2361 -0.9807 -0.9510
ENERGY: 2000 3.6597 5.4921 13.5878 0.1560 -15150.5567 1639.4113 0.0000 0.0000 2605.9740 -10882.2758 296.8615 -13488.2498 -10876.8260 300.2974 53.5153 52.9399 310080.9905 0.8229 0.8410
ENERGY: 3000 0.9961 4.2087 14.3659 0.4259 -15175.3739 1618.7398 0.0000 0.0000 2713.6290 -10823.0085 309.1251 -13536.6374 -10818.9980 304.8802 2.1131 1.7587 320763.5066 4.4305 4.3860
ENERGY: 4000 1.9182 3.4856 13.7055 0.8741 -15009.7295 1493.6299 0.0000 0.0000 2683.8486 -10812.2676 305.7327 -13496.1162 -10805.1407 301.1852 -79.5304 -79.8515 319502.4852 0.7229 0.7142
ENERGY: 5000 2.8651 5.0966 15.4959 0.7982 -15145.4894 1618.1398 0.0000 0.0000 2661.4928 -10841.6010 303.1860 -13503.0938 -10837.4371 301.0104 27.0889 26.9947 309065.5103 0.0722 0.0722
TCL: Running FEP window   6: Lambda1 0.3125 Lambda2 0.375  [dLambda 0.0625]
TCL: Setting parameter firsttimestep to 0
TCL: Setting parameter alchLambda to 0.3125
Info: NONBONDED TABLE R-SQUARED SPACING: 0.0625
Info: NONBONDED TABLE SIZE: 769 POINTS
TCL: Setting parameter alchLambda2 to 0.375
Info: NONBONDED TABLE R-SQUARED SPACING: 0.0625
Info: NONBONDED TABLE SIZE: 769 POINTS
TCL: Running for 5000 steps
ETITLE: TS BOND ANGLE DIHED IMPRP ELECT VDW BOUNDARY MISC KINETIC TOTAL TEMP POTENTIAL TOTAL3 TEMPAVG PRESSURE GPRESSURE VOLUME PRESSAVG GPRESSAVG
ENERGY: 0 2.8651 5.0966 15.4959 0.7982 -15145.4894 1617.9255 0.0000 0.0000 2661.4119 -10841.8962 303.1768 -13503.3081 -10837.1490 303.1768 26.9118 26.9118 309065.5103 26.9118 26.9118
ENERGY: 1000 4.9130 4.7510 14.6139 0.4327 -15234.8486 1659.5245 0.0000 0.0000 2606.2961 -10944.3176 296.8982 -13550.6136 -10940.3527 298.3341 29.3354 28.7996 309012.3777 -0.0639 -0.0716
ENERGY: 2000 1.8515 2.3884 13.1576 0.5135 -15111.4624 1453.0771 0.0000 0.0000 2597.0499 -11043.4244 295.8449 -13640.4743 -11037.1613 295.9937 -182.4235 -182.3787 311254.1681 0.3782 0.2631
ENERGY: 3000 3.0413 5.1489 15.5702 0.4460 -15147.6484 1599.4108 0.0000 0.0000 2638.9164 -10885.1149 300.6142 -13524.0312 -10879.4420 297.4515 -5.6565 -5.9078 301033.1599 -0.9693 -0.9697
ENERGY: 4000 1.4120 4.2073 14.1065 0.2319 -15261.6432 1635.0644 0.0000 0.0000 2678.6863 -10927.9349 305.1446 -13606.6211 -10922.1763 297.4514 17.2389 15.3444 286109.9024 -1.3388 -1.3440
ENERGY: 5000 1.7048 5.0922 14.0259 1.1449 -15057.2893 1539.5206 0.0000 0.0000 2580.1357 -10915.6651 293.9181 -13495.8009 -10909.3768 297.6372 -40.0268 -38.3634 284417.5735 0.3510 0.4515
TCL: Running FEP window   7: Lambda1 0.375  Lambda2 0.4375 [dLambda 0.0625]
TCL: Setting parameter firsttimestep to 0
TCL: Setting parameter alchLambda to 0.375
Info: NONBONDED TABLE R-SQUARED SPACING: 0.0625
Info: NONBONDED TABLE SIZE: 769 POINTS
TCL: Setting parameter alchLambda2 to 0.4375
Info: NONBONDED TABLE R-SQUARED SPACING: 0.0625
Info: NONBONDED TABLE SIZE: 769 POINTS
TCL: Running for 5000 steps
ETITLE: TS BOND ANGLE DIHED IMPRP ELECT VDW BOUNDARY MISC KINETIC TOTAL TEMP POTENTIAL TOTAL3 TEMPAVG PRESSURE GPRESSURE VOLUME PRESSAVG GPRESSAVG
ENERGY: 0 1.7048 5.0922 14.0259 1.1449 -15057.2893 1539.3873 0.0000 0.0000 2580.0512 -10915.8830 293.9085 -13495.9342 -10911.3996 293.9085 -38.0651 -38.0651 284417.5735 -38.0651 -38.0651
ENERGY: 1000 3.1436 2.6336 13.0770 0.2285 -15094.7106 1528.1703 0.0000 0.0000 2584.8143 -10962.6433 294.4511 -13547.4576 -10957.5802 296.6664 -97.7079 -97.2427 295927.9493 0.7724 0.7813
ENERGY: 2000 2.8028 2.8265 13.1589 0.2950 -15051.3943 1497.7366 0.0000 0.0000 2614.1179 -10920.4567 297.7892 -13534.5746 -10914.3373 296.8500 -105.4550 -105.4049 294584.7235 -0.4672 -0.4541
ENERGY: 3000 2.2401 3.7516 13.4184 0.2272 -15195.2689 1591.0782 0.0000 0.0000 2604.9959 -10979.5575 296.7501 -13584.5534 -10974.4016 295.2658 -67.7447 -67.0942 296832.8723 0.5949 0.6071
ENERGY: 4000 2.8753 2.2026 14.2424 0.4428 -15275.9999 1612.8492 0.0000 0.0000 2607.4738 -11035.9137 297.0324 -13643.3875 -11031.6167 296.7624 1.9989 2.5254 282741.6212 3.0740 3.0740
ENERGY: 5000 3.7237 3.0444 14.2533 0.6459 -15260.0769 1665.5558 0.0000 0.0000 2669.5113 -10903.3424 304.0994 -13572.8537 -10897.3878 298.1327 55.1050 53.4079 284033.0068 0.5230 0.4515
TCL: Running FEP window   8: Lambda1 0.4375 Lambda2 0.5    [dLambda 0.0625]
TCL: Setting parameter firsttimestep to 0
TCL: Setting parameter alchLambda to 0.4375
Info: NONBONDED TABLE R-SQUARED SPACING: 0.0625
Info: NONBONDED TABLE SIZE: 769 POINTS
TCL: Setting parameter alchLambda2 to 0.5
Info: NONBONDED TABLE R-SQUARED SPACING: 0.0625
Info: NONBONDED TABLE SIZE: 769 POINTS
TCL: Running for 5000 steps
ETITLE: TS BOND ANGLE DIHED IMPRP ELECT VDW BOUNDARY MISC KINETIC TOTAL TEMP POTENTIAL TOTAL3 TEMPAVG PRESSURE GPRESSURE VOLUME PRESSAVG GPRESSAVG
ENERGY: 0 3.7237 3.0444 14.2533 0.6459 -15260.0769 1665.3602 0.0000 0.0000 2669.4330 -10903.6164 304.0905 -13573.0494 -10898.9029 304.0905 53.5604 53.5604 284033.0068 53.5604 53.5604
ENERGY: 1000 2.9838 3.9228 14.9040 0.8604 -15089.8229 1533.9148 0.0000 0.0000 2566.2837 -10966.9534 292.3402 -13533.2371 -10960.1342 298.6444 -80.9520 -78.8164 273696.6376 1.3628 1.3690
ENERGY: 2000 1.3255 4.2687 14.0341 0.2931 -15075.8894 1560.5618 0.0000 0.0000 2540.0276 -10955.3786 289.3492 -13495.4062 -10950.4168 298.3364 -58.1840 -57.9272 268486.1142 -0.2893 -0.3211
ENERGY: 3000 1.9564 1.1499 14.9465 0.4484 -15232.3147 1613.8393 0.0000 0.0000 2608.2850 -10991.6891 297.1248 -13599.9742 -10987.7383 297.6058 15.3174 15.6253 256855.3446 -0.0224 -0.0471
ENERGY: 4000 3.0727 3.1056 13.5541 0.1648 -15282.4631 1704.5395 0.0000 0.0000 2544.5500 -11013.4764 289.8644 -13558.0264 -11007.6800 294.2354 29.8772 30.9447 258203.3053 3.4217 3.4135
ENERGY: 5000 3.7340 2.9889 13.1708 0.2254 -15189.3435 1552.7943 0.0000 0.0000 2621.8340 -10994.5961 298.6682 -13616.4301 -10987.7002 295.4465 -71.2255 -69.9544 259386.7389 0.0387 0.0256
TCL: Running FEP window   9: Lambda1 0.5    Lambda2 0.5625 [dLambda 0.0625]
TCL: Setting parameter firsttimestep to 0
TCL: Setting parameter alchLambda to 0.5
Info: NONBONDED TABLE R-SQUARED SPACING: 0.0625
Info: NONBONDED TABLE SIZE: 769 POINTS
TCL: Setting parameter alchLambda2 to 0.5625
Info: NONBONDED TABLE R-SQUARED SPACING: 0.0625
Info: NONBONDED TABLE SIZE: 769 POINTS
TCL: Running for 5000 steps
ETITLE: TS BOND ANGLE DIHED IMPRP ELECT VDW BOUNDARY MISC KINETIC TOTAL TEMP POTENTIAL TOTAL3 TEMPAVG PRESSURE GPRESSURE VOLUME PRESSAVG GPRESSAVG
ENERGY: 0 3.7340 2.9889 13.1708 0.2254 -15189.3435 1552.8537 0.0000 0.0000 2621.7538 -10994.6169 298.6591 -13616.3707 -10989.4133 298.6591 -69.1629 -69.1629 259386.7389 -69.1629 -69.1629
ENERGY: 1000 5.4427 2.5491 14.3338 1.1430 -15150.4121 1513.7406 0.0000 0.0000 2618.5048 -10994.6981 298.2890 -13613.2029 -10989.3521 293.4821 -121.3679 -119.2500 266241.6188 2.4621 2.5033
ENERGY: 2000 1.9561 3.6865 13.5415 0.9175 -15286.2199 1648.9526 0.0000 0.0000 2623.1987 -10993.9671 298.8237 -13617.1658 -10987.5623 294.8049 26.6247 25.1327 271637.6199 0.8220 0.7948
ENERGY: 3000 4.0759 2.5490 15.6641 0.5919 -15222.4816 1559.0119 0.0000 0.0000 2564.1933 -11076.3955 292.1020 -13640.5888 -11072.2470 295.0987 -45.9627 -44.8537 276169.5265 1.8571 1.8438
ENERGY: 4000 1.5920 3.3477 15.7477 0.8442 -15383.0998 1714.0242 0.0000 0.0000 2638.8207 -11008.7232 300.6033 -13647.5439 -11003.3863 295.6345 66.4754 65.9401 283877.8584 1.7868 1.7436
ENERGY: 5000 3.7992 3.3383 14.4281 0.4233 -15200.2176 1593.6978 0.0000 0.0000 2620.9306 -10963.6002 298.5653 -13584.5308 -10957.9992 295.1900 -33.7962 -33.3231 282901.0205 1.8892 1.8510
TCL: Running FEP window  10: Lambda1 0.5625 Lambda2 0.625  [dLambda 0.0625]
TCL: Setting parameter firsttimestep to 0
TCL: Setting parameter alchLambda to 0.5625
Info: NONBONDED TABLE R-SQUARED SPACING: 0.0625
Info: NONBONDED TABLE SIZE: 769 POINTS
TCL: Setting parameter alchLambda2 to 0.625
Info: NONBONDED TABLE R-SQUARED SPACING: 0.0625
Info: NONBONDED TABLE SIZE: 769 POINTS
TCL: Running for 5000 steps
ETITLE: TS BOND ANGLE DIHED IMPRP ELECT VDW BOUNDARY MISC KINETIC TOTAL TEMP POTENTIAL TOTAL3 TEMPAVG PRESSURE GPRESSURE VOLUME PRESSAVG GPRESSAVG
ENERGY: 0 3.7992 3.3383 14.4281 0.4233 -15225.5815 1593.3347 0.0000 0.0000 2620.8499 -10989.4081 298.5561 -13610.2579 -10984.8856 298.5561 -35.0753 -35.0753 282901.0205 -35.0753 -35.0753
ENERGY: 1000 1.3430 3.0440 13.6557 0.6999 -15287.0227 1619.0802 0.0000 0.0000 2621.5621 -11027.6378 298.6373 -13649.2000 -11023.3616 295.1356 7.2061 7.3884 279936.1128 -0.0886 -0.1613
ENERGY: 2000 1.1948 5.2053 13.8017 0.6066 -15309.3998 1683.3746 0.0000 0.0000 2618.9036 -10986.3132 298.3344 -13605.2168 -10979.3811 299.3850 72.2670 70.5535 274884.3658 1.0330 1.0871
ENERGY: 3000 2.6729 6.5003 17.8530 1.1676 -15146.3224 1565.6108 0.0000 0.0000 2640.9687 -10911.5491 300.8480 -13552.5178 -10905.2368 299.3388 -50.3038 -50.2456 287211.5946 2.0471 2.0928
ENERGY: 4000 1.2053 3.1084 13.6632 0.2270 -15260.2415 1611.9445 0.0000 0.0000 2617.0790 -11013.0142 298.1266 -13630.0932 -11007.1591 297.0974 -2.5703 -2.1657 282911.8476 -1.5207 -1.4518
ENERGY: 5000 2.1148 4.3898 16.2798 0.2409 -15208.1959 1558.0083 0.0000 0.0000 2671.8409 -10955.3213 304.3648 -13627.1622 -10949.3471 299.5646 -48.1198 -50.2663 290324.0824 0.4369 0.3946
TCL: Running FEP window  11: Lambda1 0.625  Lambda2 0.6875 [dLambda 0.0625]
TCL: Setting parameter firsttimestep to 0
TCL: Setting parameter alchLambda to 0.625
Info: NONBONDED TABLE R-SQUARED SPACING: 0.0625
Info: NONBONDED TABLE SIZE: 769 POINTS
TCL: Setting parameter alchLambda2 to 0.6875
Info: NONBONDED TABLE R-SQUARED SPACING: 0.0625
Info: NONBONDED TABLE SIZE: 769 POINTS
TCL: Running for 5000 steps
ETITLE: TS BOND ANGLE DIHED IMPRP ELECT VDW BOUNDARY MISC KINETIC TOTAL TEMP POTENTIAL TOTAL3 TEMPAVG PRESSURE GPRESSURE VOLUME PRESSAVG GPRESSAVG
ENERGY: 0 2.1148 4.3898 16.2798 0.2409 -15233.8098 1557.9998 0.0000 0.0000 2671.7574 -10981.0273 304.3553 -13652.7847 -10976.1383 304.3553 -51.5063 -51.5063 290324.0824 -51.5063 -51.5063
ENERGY: 1000 3.0793 2.9925 13.8100 0.4350 -15221.3633 1618.9554 0.0000 0.0000 2610.5317 -10971.5595 297.3807 -13582.0912 -10966.8729 297.3925 24.2815 25.8301 291305.5464 1.8422 1.9148
ENERGY: 2000 3.8876 4.5716 13.6017 0.0869 -15330.8437 1664.3250 0.0000 0.0000 2572.2310 -11072.1398 293.0177 -13644.3708 -11068.7649 294.8973 -8.7753 -8.7838 298960.4339 1.5949 1.6041
ENERGY: 3000 1.8947 1.4805 13.1187 0.4732 -15172.0255 1557.0652 0.0000 0.0000 2630.6483 -10967.3449 299.6723 -13597.9931 -10961.6766 300.1853 -48.5863 -48.8159 292376.3782 -1.0610 -1.0143
ENERGY: 4000 2.9614 3.3291 14.8500 0.3025 -15288.6226 1539.9469 0.0000 0.0000 2684.8789 -11042.3538 305.8500 -13727.2327 -11037.6018 296.3016 -35.2504 -34.5644 281557.1223 -0.3522 -0.3963
ENERGY: 5000 3.7764 4.9039 14.0437 0.5402 -15297.9807 1561.2034 0.0000 0.0000 2739.8412 -10973.6720 312.1111 -13713.5131 -10967.9381 299.7566 -59.9916 -61.7080 289612.3607 -0.0464 -0.0313
TCL: Running FEP window  12: Lambda1 0.6875 Lambda2 0.75   [dLambda 0.0625]
TCL: Setting parameter firsttimestep to 0
TCL: Setting parameter alchLambda to 0.6875
Info: NONBONDED TABLE R-SQUARED SPACING: 0.0625
Info: NONBONDED TABLE SIZE: 769 POINTS
TCL: Setting parameter alchLambda2 to 0.75
Info: NONBONDED TABLE R-SQUARED SPACING: 0.0625
Info: NONBONDED TABLE SIZE: 769 POINTS
TCL: Running for 5000 steps
ETITLE: TS BOND ANGLE DIHED IMPRP ELECT VDW BOUNDARY MISC KINETIC TOTAL TEMP POTENTIAL TOTAL3 TEMPAVG PRESSURE GPRESSURE VOLUME PRESSAVG GPRESSAVG
ENERGY: 0 3.7764 4.9039 14.0437 0.5402 -15325.9357 1563.3846 0.0000 0.0000 2739.7667 -10999.5203 312.1026 -13739.2870 -10993.9847 312.1026 -61.5261 -61.5261 289612.3607 -61.5261 -61.5261
ENERGY: 1000 5.1436 4.0785 17.0050 1.4626 -15372.7331 1650.6162 0.0000 0.0000 2659.9310 -11034.4962 303.0081 -13694.4272 -11028.4785 298.9011 15.3010 14.3851 292450.8228 1.0806 1.0294
ENERGY: 2000 1.8544 2.6486 13.4856 0.5060 -15277.3909 1585.2693 0.0000 0.0000 2630.7442 -11042.8828 299.6832 -13673.6270 -11034.7287 299.1668 -0.6236 -2.1236 295778.4994 -0.8542 -0.9097
ENERGY: 3000 5.0358 5.6045 15.9299 0.4359 -15324.1995 1612.5373 0.0000 0.0000 2616.0264 -11068.6298 298.0066 -13684.6562 -11061.5691 294.7200 -35.6552 -37.0009 301071.0262 3.3838 3.4016
ENERGY: 4000 1.1640 3.7278 13.5756 0.4158 -15252.5362 1615.9352 0.0000 0.0000 2600.5070 -11017.2108 296.2387 -13617.7178 -11011.4621 297.0261 -14.4694 -13.0745 297401.2822 2.8262 2.7771
ENERGY: 5000 4.5755 3.8858 15.8500 0.4874 -15216.6569 1525.2434 0.0000 0.0000 2584.5152 -11082.0995 294.4170 -13666.6147 -11076.9941 297.5725 -46.3786 -48.4332 296238.3092 2.6678 2.6913
TCL: Running FEP window  13: Lambda1 0.75   Lambda2 0.8125 [dLambda 0.0625]
TCL: Setting parameter firsttimestep to 0
TCL: Setting parameter alchLambda to 0.75
Info: NONBONDED TABLE R-SQUARED SPACING: 0.0625
Info: NONBONDED TABLE SIZE: 769 POINTS
TCL: Setting parameter alchLambda2 to 0.8125
Info: NONBONDED TABLE R-SQUARED SPACING: 0.0625
Info: NONBONDED TABLE SIZE: 769 POINTS
TCL: Running for 5000 steps
ETITLE: TS BOND ANGLE DIHED IMPRP ELECT VDW BOUNDARY MISC KINETIC TOTAL TEMP POTENTIAL TOTAL3 TEMPAVG PRESSURE GPRESSURE VOLUME PRESSAVG GPRESSAVG
ENERGY: 0 4.5755 3.8858 15.8500 0.4874 -15246.7167 1526.2242 0.0000 0.0000 2584.4364 -11111.2573 294.4081 -13695.6937 -11106.3789 294.4081 -49.5753 -49.5753 296238.3092 -49.5753 -49.5753
ENERGY: 1000 4.4400 5.6994 14.6168 0.8704 -15472.5971 1689.3687 0.0000 0.0000 2537.8084 -11219.7934 289.0964 -13757.6018 -11212.9190 292.8683 82.4996 85.5784 296678.9863 -0.7323 -0.6446
ENERGY: 2000 4.1801 2.8329 14.2313 0.6812 -15539.9418 1668.3989 0.0000 0.0000 2578.8518 -11270.7657 293.7719 -13849.6174 -11265.7136 291.4421 -11.5734 -10.6327 301467.4433 -1.7037 -1.6706
ENERGY: 3000 3.4292 6.3028 14.8985 1.0267 -15501.1341 1669.6471 0.0000 0.0000 2595.9750 -11209.8549 295.7225 -13805.8299 -11205.6389 292.2330 15.6651 15.2469 297958.8513 0.8763 0.8336
ENERGY: 4000 2.3322 2.9178 13.0487 0.8015 -15427.9174 1641.9095 0.0000 0.0000 2675.8934 -11091.0144 304.8264 -13766.9078 -11085.5745 295.5944 3.1173 3.0768 290484.9442 -1.1788 -1.1231
ENERGY: 5000 6.7385 2.2876 14.4663 0.9365 -15300.5437 1552.5794 0.0000 0.0000 2590.4629 -11133.0725 295.0946 -13723.5354 -11126.9467 297.1055 -65.9171 -66.9598 276844.5811 1.4986 1.5071
TCL: Running FEP window  14: Lambda1 0.8125 Lambda2 0.875  [dLambda 0.0625]
TCL: Setting parameter firsttimestep to 0
TCL: Setting parameter alchLambda to 0.8125
Info: NONBONDED TABLE R-SQUARED SPACING: 0.0625
Info: NONBONDED TABLE SIZE: 769 POINTS
TCL: Setting parameter alchLambda2 to 0.875
Info: NONBONDED TABLE R-SQUARED SPACING: 0.0625
Info: NONBONDED TABLE SIZE: 769 POINTS
TCL: Running for 5000 steps
ETITLE: TS BOND ANGLE DIHED IMPRP ELECT VDW BOUNDARY MISC KINETIC TOTAL TEMP POTENTIAL TOTAL3 TEMPAVG PRESSURE GPRESSURE VOLUME PRESSAVG GPRESSAVG
ENERGY: 0 6.7385 2.2876 14.4663 0.9365 -15329.9387 1555.1350 0.0000 0.0000 2590.3897 -11159.9851 295.0862 -13750.3748 -11154.5716 295.0862 -65.7507 -65.7507 276844.5811 -65.7507 -65.7507
ENERGY: 1000 2.3317 4.5455 14.4220 0.6279 -15463.1670 1715.8794 0.0000 0.0000 2585.9907 -11139.3698 294.5851 -13725.3604 -11131.3873 297.3393 107.4450 106.0681 272570.1009 1.8321 1.8044
ENERGY: 2000 4.5126 2.2889 15.6204 1.3065 -15356.2054 1649.1252 0.0000 0.0000 2554.6635 -11128.6882 291.0164 -13683.3517 -11125.2311 295.9745 58.8567 60.7322 280999.7217 -1.3385 -1.3312
ENERGY: 3000 5.9339 2.0921 12.5409 0.0661 -15283.1061 1609.7072 0.0000 0.0000 2627.2389 -11025.5270 299.2839 -13652.7659 -11019.2956 298.4614 22.3759 20.0677 276574.5535 2.9741 2.9973
ENERGY: 4000 6.7609 3.5002 14.7078 0.6519 -15495.3785 1736.7342 0.0000 0.0000 2637.1091 -11095.9144 300.4083 -13733.0234 -11091.3377 299.1370 131.3650 130.6782 268588.9839 0.7153 0.7689
ENERGY: 5000 3.0656 5.4296 14.4522 0.7453 -15327.5642 1601.8111 0.0000 0.0000 2625.2312 -11076.8293 299.0552 -13702.0605 -11074.2277 297.6953 -32.8861 -32.4321 271493.9815 -2.5530 -2.5572
TCL: Running FEP window  15: Lambda1 0.875  Lambda2 0.9375 [dLambda 0.0625]
TCL: Setting parameter firsttimestep to 0
TCL: Setting parameter alchLambda to 0.875
Info: NONBONDED TABLE R-SQUARED SPACING: 0.0625
Info: NONBONDED TABLE SIZE: 769 POINTS
TCL: Setting parameter alchLambda2 to 0.9375
Info: NONBONDED TABLE R-SQUARED SPACING: 0.0625
Info: NONBONDED TABLE SIZE: 769 POINTS
TCL: Running for 5000 steps
ETITLE: TS BOND ANGLE DIHED IMPRP ELECT VDW BOUNDARY MISC KINETIC TOTAL TEMP POTENTIAL TOTAL3 TEMPAVG PRESSURE GPRESSURE VOLUME PRESSAVG GPRESSAVG
ENERGY: 0 3.0656 5.4296 14.4522 0.7453 -15357.2633 1605.1526 0.0000 0.0000 2625.1479 -11103.2701 299.0457 -13728.4180 -11098.0730 299.0457 -30.5565 -30.5565 271493.9815 -30.5565 -30.5565
ENERGY: 1000 3.9320 1.6992 13.6515 0.3918 -15415.2476 1604.9959 0.0000 0.0000 2586.1791 -11204.3981 294.6066 -13790.5772 -11199.8556 300.2587 -11.2056 -12.9476 267366.1503 4.3323 4.3856
ENERGY: 2000 1.5888 7.1032 12.9602 0.5834 -15291.6490 1554.7162 0.0000 0.0000 2570.4899 -11144.2073 292.8193 -13714.6972 -11139.2327 296.4134 -53.8504 -52.7696 268578.7177 -0.5434 -0.5188
ENERGY: 3000 3.9550 5.7692 13.8105 1.3966 -15357.5727 1590.8098 0.0000 0.0000 2542.6270 -11199.2047 289.6453 -13741.8316 -11193.5666 296.8434 -44.2457 -43.9077 269961.9223 0.9081 0.9173
ENERGY: 4000 2.7920 4.9409 14.3328 0.2871 -15411.5240 1635.7428 0.0000 0.0000 2568.8671 -11184.5612 292.6345 -13753.4284 -11181.0031 295.1218 17.7379 18.0008 262788.8019 3.9906 4.0403
ENERGY: 5000 2.5063 3.6171 16.7193 0.8468 -15510.3381 1639.6323 0.0000 0.0000 2604.5814 -11242.4348 296.7029 -13847.0162 -11237.3129 294.3650 -28.0256 -27.7720 264927.5178 -0.8717 -0.8839
TCL: Running FEP window  16: Lambda1 0.9375 Lambda2 1.0    [dLambda 0.0625]
TCL: Setting parameter firsttimestep to 0
TCL: Setting parameter alchLambda to 0.9375
Info: NONBONDED TABLE R-SQUARED SPACING: 0.0625
Info: NONBONDED TABLE SIZE: 769 POINTS
TCL: Setting parameter alchLambda2 to 1.0
Info: NONBONDED TABLE R-SQUARED SPACING: 0.0625
Info: NONBONDED TABLE SIZE: 769 POINTS
TCL: Running for 5000 steps
ETITLE: TS BOND ANGLE DIHED IMPRP ELECT VDW BOUNDARY MISC KINETIC TOTAL TEMP POTENTIAL TOTAL3 TEMPAVG PRESSURE GPRESSURE VOLUME PRESSAVG GPRESSAVG
ENERGY: 0 2.5063 3.6171 16.7193 0.8468 -15540.5113 1645.6725 0.0000 0.0000 2604.5020 -11266.6472 296.6938 -13871.1492 -11261.9387 296.6938 -22.1003 -22.1003 264927.5178 -22.1003 -22.1003
ENERGY: 1000 2.1565 2.9693 15.5196 0.6755 -15513.5941 1612.2588 0.0000 0.0000 2637.9109 -11242.1035 300.4996 -13880.0144 -11236.3373 292.4232 -39.9845 -42.7754 256649.1738 -2.7444 -2.7757
ENERGY: 2000 4.4688 2.4277 13.7515 1.2258 -15605.5172 1659.4867 0.0000 0.0000 2580.4407 -11343.7159 293.9529 -13924.1566 -11339.5450 291.0007 19.3386 20.1867 250139.7106 1.3188 1.3091
ENERGY: 3000 4.3707 3.6688 14.2737 1.0113 -15500.7991 1641.7425 0.0000 0.0000 2551.0863 -11284.6458 290.6089 -13835.7321 -11279.5281 293.7585 21.6323 20.9072 256658.2262 -0.2801 -0.3762
ENERGY: 4000 3.0651 3.4348 15.7946 1.4873 -15362.9757 1553.3330 0.0000 0.0000 2547.6282 -11238.2326 290.2150 -13785.8608 -11232.5758 292.7109 -58.4770 -58.5193 249948.8641 1.2077 1.2586
ENERGY: 5000 5.3103 4.9777 12.8181 0.4855 -15550.8694 1674.1431 0.0000 0.0000 2626.3470 -11226.7877 299.1823 -13853.1347 -11221.4697 294.6591 55.0923 56.1727 247355.8060 5.4356 5.4378
