Info: SIMULATION PARAMETERS:
Info: TIMESTEP               2
Info: NUMBER OF STEPS        0
Info: STEPS PER CYCLE        10
Info: PERIODIC CELL BASIS 1  33.943 0 0
Info: PERIODIC CELL BASIS 2  0 34.26 0
Info: PERIODIC CELL BASIS 3  0 0 37.195
Info: PERIODIC CELL CENTER   0 0 0
Info: WRAPPING WATERS AROUND PERIODIC BOUNDARIES ON OUTPUT.
Info: WRAPPING ALL CLUSTERS AROUND PERIODIC BOUNDARIES ON OUTPUT.
Info: FIRST LDB TIMESTEP     50
Info: LAST LDB TIMESTEP     -1
Info: HOM BACKGROUND SCALING 1
Info: PME BACKGROUND SCALING 1
Info: MIN ATOMS PER PATCH    40
Info: EMPTY PATCH LOAD       40 ATOMS
Info: INITIAL TEMPERATURE    300
Info: CENTER OF MASS MOVING INITIALLY? NO
Info: DIELECTRIC             1
Info: EXCLUDE                SCALED ONE-FOUR
Info: 1-4 ELECTROSTATICS SCALED BY 0.833333
Info: MODIFIED 1-4 VDW PARAMETERS WILL BE USED
Info: DCD FILENAME           mobley_1963873_equil.dcd
Info: DCD FREQUENCY          100000
Info: DCD FIRST STEP         100000
Info: DCD FILE WILL CONTAIN UNIT CELL DATA
Info: XST FILENAME           mobley_1963873_equil.xst
Info: XST FREQUENCY          100000
Info: NO VELOCITY DCD OUTPUT
Info: NO FORCE DCD OUTPUT
Info: OUTPUT FILENAME        mobley_1963873_equil
Info: BINARY OUTPUT FILES WILL BE USED
Info: RESTART FILENAME       mobley_1963873_equil.restart
Info: RESTART FREQUENCY      100000
Info: BINARY RESTART FILES WILL BE USED
Info: CUTOFF                 9
Info: PAIRLIST DISTANCE      11
Info: PAIRLIST SHRINK RATE   0.01
Info: PAIRLIST GROW RATE     0.01
Info: PAIRLIST TRIGGER       0.3
Info: PAIRLISTS PER CYCLE    2
Info: PAIRLISTS ENABLED
Info: MARGIN                 8
Info: HYDROGEN GROUP CUTOFF  2.5
Info: PATCH DIMENSION        21.5
Info: ENERGY OUTPUT STEPS    100000
Info: ENERGY EVALUATION STEPS    100000
Info: OUTPUT ENERGY PRECISION 4
Info: CROSSTERM ENERGY INCLUDED IN DIHEDRAL
Info: TIMING OUTPUT STEPS    1000000
Info: PRESSURE OUTPUT STEPS  100000
Info: FIXED ATOMS ACTIVE
Info: LANGEVIN DYNAMICS ACTIVE
Info: LANGEVIN TEMPERATURE   30
Info: LANGEVIN USING BBK INTEGRATOR
Info: LANGEVIN DAMPING COEFFICIENT IS 1 INVERSE PS
Info: LANGEVIN DYNAMICS APPLIED TO HYDROGENS
Info: LANGEVIN PISTON PRESSURE CONTROL ACTIVE
Info:        TARGET PRESSURE IS 1.01325 BAR
Info:     OSCILLATION PERIOD IS 50 FS
Info:             DECAY TIME IS 25 FS
Info:     PISTON TEMPERATURE IS 300 K
Info:       PRESSURE CONTROL IS GROUP-BASED
Info:    INITIAL STRAIN RATE IS 0 0 0
Info:       CELL FLUCTUATION IS ISOTROPIC
Info: PARTICLE MESH EWALD (PME) ACTIVE
Info: PME TOLERANCE               1e-06
Info: PME EWALD COEFFICIENT       0.348832
Info: PME INTERPOLATION ORDER     4
Info: PME GRID DIMENSIONS         36 36 40
Info: PME MAXIMUM GRID SPACING    1
Info: FULL ELECTROSTATIC EVALUATION FREQUENCY      2
Info: USING VERLET I (r-RESPA) MTS SCHEME.
Info: C1 SPLITTING OF LONG RANGE ELECTROSTATICS
Info: PLACING ATOMS IN PATCHES BY HYDROGEN GROUPS
Info: RIGID BONDS TO HYDROGEN : ALL
Info:         ERROR TOLERANCE : 1e-08
Info:          MAX ITERATIONS : 100
Info: RIGID WATER USING SETTLE ALGORITHM
Info: RANDOM NUMBER SEED     1742483686
Info: USE HYDROGEN BONDS?    NO
Info: Using AMBER format force field!
Info: AMBER PARM FILE        mobley_1963873.prmtop
Info: COORDINATE PDB         mobley_1963873.pdb
Info: Exclusions will be read from PARM file!
Info: SCNB (VDW SCALING)     2
Info: USING ARITHMETIC MEAN TO COMBINE L-J SIGMA PARAMETERS
Info: BINARY COORDINATES     mobley_1963873_min.coor
Info: SUMMARY OF PARAMETERS:
Info: 9 BONDS
Info: 10 ANGLES
Info:   10 HARMONIC
Info:   0 COSINE-BASED
Info: 11 DIHEDRAL
Info: 0 IMPROPER
Info: 0 CROSSTERM
Info: 0 VDW
Info: 45 VDW_PAIRS
Info: 0 NBTHOLE_PAIRS
Info: STRUCTURE SUMMARY:
Info: 2946 ATOMS
Info: 2945 BONDS
Info: 18 ANGLES
Info: 24 DIHEDRALS
Info: 0 IMPROPERS
Info: 0 CROSSTERMS
Info: 2979 EXCLUSIONS
Info: 12 FIXED ATOMS
Info: 2941 RIGID BONDS
Info: 7 RIGID BONDS BETWEEN FIXED ATOMS
Info: 5868 DEGREES OF FREEDOM
Info: 983 HYDROGEN GROUPS
Info: 4 ATOMS IN LARGEST HYDROGEN GROUP
Info: 983 MIGRATION GROUPS
Info: 4 ATOMS IN LARGEST MIGRATION GROUP
Info: 5 HYDROGEN GROUPS WITH ALL ATOMS FIXED
Info: TOTAL MASS = 17692.7 amu
Info: TOTAL CHARGE = -0.000199951 e
Info: MASS DENSITY = 0.679254 g/cm^3
Info: ATOM DENSITY = 0.06811 atoms/A^3
Info: ADDED 0 IMPLICIT EXCLUSIONS
Info: NONBONDED TABLE R-SQUARED SPACING: 0.0625
Info: NONBONDED TABLE SIZE: 705 POINTS
Info: REMOVING COM VELOCITY -0.0334999 0.0353653 0.0927356
TCL: Running for 100000 steps
ETITLE: TS BOND ANGLE DIHED IMPRP ELECT VDW BOUNDARY MISC KINETIC TOTAL TEMP POTENTIAL TOTAL3 TEMPAVG PRESSURE GPRESSURE VOLUME PRESSAVG GPRESSAVG
ENERGY: 0 0.0000 0.0000 0.0000 0.0000 -13714.0230 2362.3274 0.0000 0.0000 1771.9530 -9579.7426 303.9152 -11351.6956 -9579.4075 303.9152 394.2085 428.4758 43253.5887 394.2085 428.4758
ENERGY: 100000 0.0000 0.0000 0.0000 0.0000 -14335.9996 2519.9266 0.0000 0.0000 180.1677 -11635.9053 30.9013 -11816.0730 -11635.5627 31.0008 216.5593 267.8718 29075.0887 4.0497 4.0416
TCL: Running 100000 steps at 60 kelvin.
TCL: Setting parameter langevinTemp to 60
TCL: Running for 100000 steps
ETITLE: TS BOND ANGLE DIHED IMPRP ELECT VDW BOUNDARY MISC KINETIC TOTAL TEMP POTENTIAL TOTAL3 TEMPAVG PRESSURE GPRESSURE VOLUME PRESSAVG GPRESSAVG
ENERGY: 100000 0.0000 0.0000 0.0000 0.0000 -14335.9996 2519.9266 0.0000 0.0000 180.0830 -11635.9900 30.8868 -11816.0730 -11635.5383 30.8868 220.2225 267.6968 29075.0887 220.2225 267.6968
ENERGY: 200000 0.0000 0.0000 0.0000 0.0000 -14206.0177 2464.3856 0.0000 0.0000 352.3483 -11389.2837 60.4328 -11741.6320 -11388.8815 59.8984 265.3208 302.3699 28845.6074 4.8844 4.8978
TCL: Running 100000 steps at 90 kelvin.
TCL: Setting parameter langevinTemp to 90
TCL: Running for 100000 steps
ETITLE: TS BOND ANGLE DIHED IMPRP ELECT VDW BOUNDARY MISC KINETIC TOTAL TEMP POTENTIAL TOTAL3 TEMPAVG PRESSURE GPRESSURE VOLUME PRESSAVG GPRESSAVG
ENERGY: 200000 0.0000 0.0000 0.0000 0.0000 -14206.0177 2464.3856 0.0000 0.0000 352.1693 -11389.4627 60.4021 -11741.6320 -11388.7756 60.4021 247.9438 302.4383 28845.6074 247.9438 302.4383
ENERGY: 300000 0.0000 0.0000 0.0000 0.0000 -14110.0316 2449.0746 0.0000 0.0000 517.0837 -11143.8733 88.6872 -11660.9570 -11143.3554 89.8406 358.2548 403.6370 28848.6613 3.3821 3.2478
TCL: Running 100000 steps at 120 kelvin.
TCL: Setting parameter langevinTemp to 120
TCL: Running for 100000 steps
ETITLE: TS BOND ANGLE DIHED IMPRP ELECT VDW BOUNDARY MISC KINETIC TOTAL TEMP POTENTIAL TOTAL3 TEMPAVG PRESSURE GPRESSURE VOLUME PRESSAVG GPRESSAVG
ENERGY: 300000 0.0000 0.0000 0.0000 0.0000 -14110.0316 2449.0746 0.0000 0.0000 516.8266 -11144.1305 88.6431 -11660.9570 -11143.3487 88.6431 345.4553 403.0010 28848.6613 345.4553 403.0010
ENERGY: 400000 0.0000 0.0000 0.0000 0.0000 -13963.5698 2440.0554 0.0000 0.0000 705.5525 -10817.9619 121.0123 -11523.5144 -10816.7431 119.7380 869.8322 905.9707 28741.5121 5.5562 5.5964
TCL: Running 100000 steps at 150 kelvin.
TCL: Setting parameter langevinTemp to 150
TCL: Running for 100000 steps
ETITLE: TS BOND ANGLE DIHED IMPRP ELECT VDW BOUNDARY MISC KINETIC TOTAL TEMP POTENTIAL TOTAL3 TEMPAVG PRESSURE GPRESSURE VOLUME PRESSAVG GPRESSAVG
ENERGY: 400000 0.0000 0.0000 0.0000 0.0000 -13963.5698 2440.0554 0.0000 0.0000 705.2084 -10818.3060 120.9533 -11523.5144 -10817.0240 120.9533 844.8595 905.2253 28741.5121 844.8595 905.2253
ENERGY: 500000 0.0000 0.0000 0.0000 0.0000 -13703.1504 2330.3430 0.0000 0.0000 889.4272 -10483.3802 152.5495 -11372.8074 -10480.7820 149.8575 574.2200 631.4105 28774.7889 4.0531 3.8967
TCL: Running 100000 steps at 180 kelvin.
TCL: Setting parameter langevinTemp to 180
TCL: Running for 100000 steps
ETITLE: TS BOND ANGLE DIHED IMPRP ELECT VDW BOUNDARY MISC KINETIC TOTAL TEMP POTENTIAL TOTAL3 TEMPAVG PRESSURE GPRESSURE VOLUME PRESSAVG GPRESSAVG
ENERGY: 500000 0.0000 0.0000 0.0000 0.0000 -13703.1504 2330.3430 0.0000 0.0000 889.0078 -10483.7996 152.4775 -11372.8074 -10482.1587 152.4775 572.8568 632.0177 28774.7889 572.8568 632.0177
ENERGY: 600000 0.0000 0.0000 0.0000 0.0000 -13182.9260 2087.8847 0.0000 0.0000 1008.3129 -10086.7284 172.9401 -11095.0414 -10084.6946 179.8403 -446.0445 -408.0637 29053.0345 4.1874 4.2624
TCL: Running 100000 steps at 210 kelvin.
TCL: Setting parameter langevinTemp to 210
TCL: Running for 100000 steps
ETITLE: TS BOND ANGLE DIHED IMPRP ELECT VDW BOUNDARY MISC KINETIC TOTAL TEMP POTENTIAL TOTAL3 TEMPAVG PRESSURE GPRESSURE VOLUME PRESSAVG GPRESSAVG
ENERGY: 600000 0.0000 0.0000 0.0000 0.0000 -13182.9260 2087.8847 0.0000 0.0000 1007.7723 -10087.2690 172.8473 -11095.0414 -10085.4963 172.8473 -467.3772 -408.3345 29053.0345 -467.3772 -408.3345
ENERGY: 700000 0.0000 0.0000 0.0000 0.0000 -12431.1614 1810.1596 0.0000 0.0000 1233.8288 -9387.1731 211.6193 -10621.0018 -9385.7291 209.6299 -565.0804 -528.2974 28412.3751 3.7096 3.7011
TCL: Running 100000 steps at 240 kelvin.
TCL: Setting parameter langevinTemp to 240
TCL: Running for 100000 steps
ETITLE: TS BOND ANGLE DIHED IMPRP ELECT VDW BOUNDARY MISC KINETIC TOTAL TEMP POTENTIAL TOTAL3 TEMPAVG PRESSURE GPRESSURE VOLUME PRESSAVG GPRESSAVG
ENERGY: 700000 0.0000 0.0000 0.0000 0.0000 -12431.1614 1810.1596 0.0000 0.0000 1233.2119 -9387.7900 211.5134 -10621.0018 -9385.5800 211.5134 -603.7984 -530.9644 28412.3751 -603.7984 -530.9644
ENERGY: 800000 0.0000 0.0000 0.0000 0.0000 -11855.0481 1699.9588 0.0000 0.0000 1385.2660 -8769.8233 237.5929 -10155.0892 -8769.4983 240.0101 -65.6026 14.0810 28778.3064 4.9346 4.8826
TCL: Running 100000 steps at 270 kelvin.
TCL: Setting parameter langevinTemp to 270
TCL: Running for 100000 steps
ETITLE: TS BOND ANGLE DIHED IMPRP ELECT VDW BOUNDARY MISC KINETIC TOTAL TEMP POTENTIAL TOTAL3 TEMPAVG PRESSURE GPRESSURE VOLUME PRESSAVG GPRESSAVG
ENERGY: 800000 0.0000 0.0000 0.0000 0.0000 -11855.0481 1699.9588 0.0000 0.0000 1384.5725 -8770.5167 237.4740 -10155.0892 -8768.3450 237.4740 -71.9879 11.5334 28778.3064 -71.9879 11.5334
ENERGY: 900000 0.0000 0.0000 0.0000 0.0000 -11230.7469 1537.9143 0.0000 0.0000 1587.5258 -8105.3067 272.2833 -9692.8326 -8102.4174 269.6253 -220.2835 -103.8748 29617.2748 3.5893 3.4762
TCL: Running 1000000 steps at 300 kelvin.
TCL: Setting parameter langevinTemp to 300
TCL: Running for 1000000 steps
ETITLE: TS BOND ANGLE DIHED IMPRP ELECT VDW BOUNDARY MISC KINETIC TOTAL TEMP POTENTIAL TOTAL3 TEMPAVG PRESSURE GPRESSURE VOLUME PRESSAVG GPRESSAVG
ENERGY: 900000 0.0000 0.0000 0.0000 0.0000 -11230.7469 1537.9143 0.0000 0.0000 1586.7573 -8106.0753 272.1515 -9692.8326 -8104.0958 272.1515 -188.6951 -103.9347 29617.2748 -188.6951 -103.9347
ENERGY: 1100000 0.0000 0.0000 0.0000 0.0000 -10915.5770 1545.7428 0.0000 0.0000 1727.0024 -7642.8317 296.2056 -9369.8342 -7639.2652 300.8253 640.9456 689.2675 30407.1725 4.2851 4.0444
ENERGY: 1300000 0.0000 0.0000 0.0000 0.0000 -10817.8742 1457.3410 0.0000 0.0000 1795.9698 -7564.5633 308.0345 -9360.5331 -7560.3892 301.0801 15.9546 157.0761 30395.4901 3.4007 3.3584
ENERGY: 1500000 0.0000 0.0000 0.0000 0.0000 -10801.9874 1488.5985 0.0000 0.0000 1775.7798 -7537.6091 304.5716 -9313.3890 -7533.4225 300.4629 519.3718 588.0207 30176.8488 3.1825 3.1395
ENERGY: 1700000 0.0000 0.0000 0.0000 0.0000 -10799.0589 1492.1535 0.0000 0.0000 1735.4611 -7571.4443 297.6564 -9306.9054 -7570.7638 300.6401 497.0008 644.7806 30348.8032 4.1470 4.0034
ENERGY: 1900000 0.0000 0.0000 0.0000 0.0000 -10766.6480 1399.3084 0.0000 0.0000 1793.5100 -7573.8296 307.6126 -9367.3396 -7569.7089 299.8067 -407.2170 -279.8614 30408.1780 3.7518 3.7118
TCL: Exiting due to exit command.
