Info: SIMULATION PARAMETERS:
Info: TIMESTEP               2
Info: NUMBER OF STEPS        0
Info: STEPS PER CYCLE        10
Info: PERIODIC CELL BASIS 1  39.806 0 0
Info: PERIODIC CELL BASIS 2  0 40.343 0
Info: PERIODIC CELL BASIS 3  0 0 39.527
Info: PERIODIC CELL CENTER   0 0 0
Info: WRAPPING WATERS AROUND PERIODIC BOUNDARIES ON OUTPUT.
Info: WRAPPING ALL CLUSTERS AROUND PERIODIC BOUNDARIES ON OUTPUT.
Info: FIRST LDB TIMESTEP     50
Info: LAST LDB TIMESTEP     -1
Info: HOM BACKGROUND SCALING 1
Info: PME BACKGROUND SCALING 1
Info: MIN ATOMS PER PATCH    40
Info: EMPTY PATCH LOAD       40 ATOMS
Info: INITIAL TEMPERATURE    300
Info: CENTER OF MASS MOVING INITIALLY? NO
Info: DIELECTRIC             1
Info: EXCLUDE                SCALED ONE-FOUR
Info: 1-4 ELECTROSTATICS SCALED BY 0.833333
Info: MODIFIED 1-4 VDW PARAMETERS WILL BE USED
Info: DCD FILENAME           mobley_967099_min.dcd
Info: DCD FREQUENCY          5000
Info: DCD FIRST STEP         5000
Info: DCD FILE WILL CONTAIN UNIT CELL DATA
Info: XST FILENAME           mobley_967099_min.xst
Info: XST FREQUENCY          5000
Info: NO VELOCITY DCD OUTPUT
Info: NO FORCE DCD OUTPUT
Info: OUTPUT FILENAME        mobley_967099_min
Info: BINARY OUTPUT FILES WILL BE USED
Info: RESTART FILENAME       mobley_967099_min.restart
Info: RESTART FREQUENCY      5000
Info: BINARY RESTART FILES WILL BE USED
Info: CUTOFF                 9
Info: PAIRLIST DISTANCE      11
Info: PAIRLIST SHRINK RATE   0.01
Info: PAIRLIST GROW RATE     0.01
Info: PAIRLIST TRIGGER       0.3
Info: PAIRLISTS PER CYCLE    2
Info: PAIRLISTS ENABLED
Info: MARGIN                 8
Info: HYDROGEN GROUP CUTOFF  2.5
Info: PATCH DIMENSION        21.5
Info: ENERGY OUTPUT STEPS    5000
Info: ENERGY EVALUATION STEPS    5000
Info: OUTPUT ENERGY PRECISION 4
Info: CROSSTERM ENERGY INCLUDED IN DIHEDRAL
Info: TIMING OUTPUT STEPS    50000
Info: PRESSURE OUTPUT STEPS  5000
Info: LANGEVIN DYNAMICS ACTIVE
Info: LANGEVIN TEMPERATURE   300
Info: LANGEVIN USING BBK INTEGRATOR
Info: LANGEVIN DAMPING COEFFICIENT IS 1 INVERSE PS
Info: LANGEVIN DYNAMICS APPLIED TO HYDROGENS
Info: LANGEVIN PISTON PRESSURE CONTROL ACTIVE
Info:        TARGET PRESSURE IS 1.01325 BAR
Info:     OSCILLATION PERIOD IS 50 FS
Info:             DECAY TIME IS 25 FS
Info:     PISTON TEMPERATURE IS 300 K
Info:       PRESSURE CONTROL IS GROUP-BASED
Info:    INITIAL STRAIN RATE IS 0 0 0
Info:       CELL FLUCTUATION IS ISOTROPIC
Info: PARTICLE MESH EWALD (PME) ACTIVE
Info: PME TOLERANCE               1e-06
Info: PME EWALD COEFFICIENT       0.348832
Info: PME INTERPOLATION ORDER     4
Info: PME GRID DIMENSIONS         40 44 40
Info: PME MAXIMUM GRID SPACING    1
Info: FULL ELECTROSTATIC EVALUATION FREQUENCY      2
Info: USING VERLET I (r-RESPA) MTS SCHEME.
Info: C1 SPLITTING OF LONG RANGE ELECTROSTATICS
Info: PLACING ATOMS IN PATCHES BY HYDROGEN GROUPS
Info: RIGID BONDS TO HYDROGEN : ALL
Info:         ERROR TOLERANCE : 1e-08
Info:          MAX ITERATIONS : 100
Info: RIGID WATER USING SETTLE ALGORITHM
Info: RANDOM NUMBER SEED     1741405041
Info: USE HYDROGEN BONDS?    NO
Info: Using AMBER format force field!
Info: AMBER PARM FILE        mobley_967099.prmtop
Info: COORDINATE PDB         mobley_967099.pdb
Info: Exclusions will be read from PARM file!
Info: SCNB (VDW SCALING)     2
Info: USING ARITHMETIC MEAN TO COMBINE L-J SIGMA PARAMETERS
Info: SUMMARY OF PARAMETERS:
Info: 7 BONDS
Info: 8 ANGLES
Info:   8 HARMONIC
Info:   0 COSINE-BASED
Info: 4 DIHEDRAL
Info: 0 IMPROPER
Info: 0 CROSSTERM
Info: 0 VDW
Info: 28 VDW_PAIRS
Info: 0 NBTHOLE_PAIRS
Info: STRUCTURE SUMMARY:
Info: 4594 ATOMS
Info: 4593 BONDS
Info: 21 ANGLES
Info: 24 DIHEDRALS
Info: 0 IMPROPERS
Info: 0 CROSSTERMS
Info: 4638 EXCLUSIONS
Info: 4588 RIGID BONDS
Info: 9194 DEGREES OF FREEDOM
Info: 1533 HYDROGEN GROUPS
Info: 4 ATOMS IN LARGEST HYDROGEN GROUP
Info: 1533 MIGRATION GROUPS
Info: 4 ATOMS IN LARGEST MIGRATION GROUP
Info: TOTAL MASS = 27599.5 amu
Info: TOTAL CHARGE = 0.000400003 e
Info: MASS DENSITY = 0.722022 g/cm^3
Info: ATOM DENSITY = 0.0723736 atoms/A^3
Info: ADDED 0 IMPLICIT EXCLUSIONS
Info: NONBONDED TABLE R-SQUARED SPACING: 0.0625
Info: NONBONDED TABLE SIZE: 705 POINTS
Info: REMOVING COM VELOCITY 0.119287 -0.071357 0.241147
TCL: Minimizing for 2000 steps
ETITLE: TS BOND ANGLE DIHED IMPRP ELECT VDW BOUNDARY MISC KINETIC TOTAL TEMP POTENTIAL TOTAL3 TEMPAVG PRESSURE GPRESSURE VOLUME PRESSAVG GPRESSAVG
ENERGY: 0 0.9593 0.3908 0.0130 0.0000 -14337.6183 1631.4995 0.0000 0.0000 0.0000 -12704.7558 0.0000 -12704.7558 -12704.7558 0.0000 11078.2688 -15850.8473 63476.1507 11078.2688 -15850.8473
ENERGY: 400 32.1107 12.0070 0.0252 0.0000 -19495.9642 2956.2027 0.0000 0.0000 0.0000 -16495.6186 0.0000 -16495.6186 -16495.6186 0.0000 16434.1131 15900.6311 63476.1507 16434.1131 15900.6311
ENERGY: 800 0.8772 0.5355 0.0187 0.0000 -20337.2733 3305.8136 0.0000 0.0000 0.0000 -17030.0283 0.0000 -17030.0283 -17030.0283 0.0000 18245.5918 17615.4090 63476.1507 18245.5918 17615.4090
ENERGY: 1200 6.9874 2.3809 0.0035 0.0000 -20830.3161 3541.1889 0.0000 0.0000 0.0000 -17279.7554 0.0000 -17279.7554 -17279.7554 0.0000 19474.2756 18900.5795 63476.1507 19474.2756 18900.5795
ENERGY: 1600 1.2338 0.5444 0.0397 0.0000 -21069.5127 3663.4337 0.0000 0.0000 0.0000 -17404.2612 0.0000 -17404.2612 -17404.2612 0.0000 20123.1294 19510.8623 63476.1507 20123.1294 19510.8623
ENERGY: 2000 0.2129 0.3353 0.0265 0.0000 -21196.4866 3736.6760 0.0000 0.0000 0.0000 -17459.2358 0.0000 -17459.2358 -17459.2358 0.0000 20521.1701 19935.6566 63476.1507 20521.1701 19935.6566
TCL: Exiting due to exit command.
Info: NAMD 3.0.1 for Linux-x86_64-multicore
Info: Please visit http://www.ks.uiuc.edu/Research/namd/
Info: for updates, documentation, and support information.
Info: Please cite Phillips et al., J. Chem. Phys. 153:044130 (2020) doi:10.1063/5.0014475
Info: in all publications reporting results obtained with NAMD.
Info: Based on Charm++/Converse 80000 for multicore-linux-x86_64-gcc
Info: Built Mon Oct 14 11:11:06 CDT 2024 by dhardy on athine.ks.uiuc.edu
Info: 1 NAMD  3.0.1  Linux-x86_64-multicore  16    k064  z5358697
Info: Running on 16 processors, 1 nodes, 1 physical nodes.
Info: CPU topology information available.
Info: Charm++/Converse parallel runtime startup completed at 0.00870558 s
Info: 1043.46 MB of memory in use based on /proc/self/stat
Info: Configuration file is mobley_967099_equil.namd
Info: Working in the current directory /srv/scratch/z5358697/prod_prep_12/967099
TCL: Running 25000 steps at 30 kelvin.
TCL: Suspending until startup complete.
Info: SIMULATION PARAMETERS:
Info: TIMESTEP               2
Info: NUMBER OF STEPS        0
Info: STEPS PER CYCLE        10
Info: PERIODIC CELL BASIS 1  39.806 0 0
Info: PERIODIC CELL BASIS 2  0 40.343 0
Info: PERIODIC CELL BASIS 3  0 0 39.527
Info: PERIODIC CELL CENTER   0 0 0
Info: WRAPPING WATERS AROUND PERIODIC BOUNDARIES ON OUTPUT.
Info: WRAPPING ALL CLUSTERS AROUND PERIODIC BOUNDARIES ON OUTPUT.
Info: FIRST LDB TIMESTEP     50
Info: LAST LDB TIMESTEP     -1
Info: HOM BACKGROUND SCALING 1
Info: PME BACKGROUND SCALING 1
Info: MIN ATOMS PER PATCH    40
Info: EMPTY PATCH LOAD       40 ATOMS
Info: INITIAL TEMPERATURE    300
Info: CENTER OF MASS MOVING INITIALLY? NO
Info: DIELECTRIC             1
Info: EXCLUDE                SCALED ONE-FOUR
Info: 1-4 ELECTROSTATICS SCALED BY 0.833333
Info: MODIFIED 1-4 VDW PARAMETERS WILL BE USED
Info: DCD FILENAME           mobley_967099_equil.dcd
Info: DCD FREQUENCY          5000
Info: DCD FIRST STEP         5000
Info: DCD FILE WILL CONTAIN UNIT CELL DATA
Info: XST FILENAME           mobley_967099_equil.xst
Info: XST FREQUENCY          5000
Info: NO VELOCITY DCD OUTPUT
Info: NO FORCE DCD OUTPUT
Info: OUTPUT FILENAME        mobley_967099_equil
Info: BINARY OUTPUT FILES WILL BE USED
Info: RESTART FILENAME       mobley_967099_equil.restart
Info: RESTART FREQUENCY      5000
Info: BINARY RESTART FILES WILL BE USED
Info: CUTOFF                 9
Info: PAIRLIST DISTANCE      11
Info: PAIRLIST SHRINK RATE   0.01
Info: PAIRLIST GROW RATE     0.01
Info: PAIRLIST TRIGGER       0.3
Info: PAIRLISTS PER CYCLE    2
Info: PAIRLISTS ENABLED
Info: MARGIN                 8
Info: HYDROGEN GROUP CUTOFF  2.5
Info: PATCH DIMENSION        21.5
Info: ENERGY OUTPUT STEPS    5000
Info: ENERGY EVALUATION STEPS    5000
Info: OUTPUT ENERGY PRECISION 4
Info: CROSSTERM ENERGY INCLUDED IN DIHEDRAL
Info: TIMING OUTPUT STEPS    50000
Info: PRESSURE OUTPUT STEPS  5000
Info: LANGEVIN DYNAMICS ACTIVE
Info: LANGEVIN TEMPERATURE   30
Info: LANGEVIN USING BBK INTEGRATOR
Info: LANGEVIN DAMPING COEFFICIENT IS 1 INVERSE PS
Info: LANGEVIN DYNAMICS APPLIED TO HYDROGENS
Info: LANGEVIN PISTON PRESSURE CONTROL ACTIVE
Info:        TARGET PRESSURE IS 1.01325 BAR
Info:     OSCILLATION PERIOD IS 50 FS
Info:             DECAY TIME IS 25 FS
Info:     PISTON TEMPERATURE IS 300 K
Info:       PRESSURE CONTROL IS GROUP-BASED
Info:    INITIAL STRAIN RATE IS 0 0 0
Info:       CELL FLUCTUATION IS ISOTROPIC
Info: PARTICLE MESH EWALD (PME) ACTIVE
Info: PME TOLERANCE               1e-06
Info: PME EWALD COEFFICIENT       0.348832
Info: PME INTERPOLATION ORDER     4
Info: PME GRID DIMENSIONS         40 44 40
Info: PME MAXIMUM GRID SPACING    1
Info: FULL ELECTROSTATIC EVALUATION FREQUENCY      2
Info: USING VERLET I (r-RESPA) MTS SCHEME.
Info: C1 SPLITTING OF LONG RANGE ELECTROSTATICS
Info: PLACING ATOMS IN PATCHES BY HYDROGEN GROUPS
Info: RIGID BONDS TO HYDROGEN : ALL
Info:         ERROR TOLERANCE : 1e-08
Info:          MAX ITERATIONS : 100
Info: RIGID WATER USING SETTLE ALGORITHM
Info: RANDOM NUMBER SEED     1741405061
Info: USE HYDROGEN BONDS?    NO
Info: Using AMBER format force field!
Info: AMBER PARM FILE        mobley_967099.prmtop
Info: COORDINATE PDB         mobley_967099.pdb
Info: Exclusions will be read from PARM file!
Info: SCNB (VDW SCALING)     2
Info: USING ARITHMETIC MEAN TO COMBINE L-J SIGMA PARAMETERS
Info: BINARY COORDINATES     mobley_967099_min.coor
Info: SUMMARY OF PARAMETERS:
Info: 7 BONDS
Info: 8 ANGLES
Info:   8 HARMONIC
Info:   0 COSINE-BASED
Info: 4 DIHEDRAL
Info: 0 IMPROPER
Info: 0 CROSSTERM
Info: 0 VDW
Info: 28 VDW_PAIRS
Info: 0 NBTHOLE_PAIRS
Info: STRUCTURE SUMMARY:
Info: 4594 ATOMS
Info: 4593 BONDS
Info: 21 ANGLES
Info: 24 DIHEDRALS
Info: 0 IMPROPERS
Info: 0 CROSSTERMS
Info: 4638 EXCLUSIONS
Info: 4588 RIGID BONDS
Info: 9194 DEGREES OF FREEDOM
Info: 1533 HYDROGEN GROUPS
Info: 4 ATOMS IN LARGEST HYDROGEN GROUP
Info: 1533 MIGRATION GROUPS
Info: 4 ATOMS IN LARGEST MIGRATION GROUP
Info: TOTAL MASS = 27599.5 amu
Info: TOTAL CHARGE = 0.000400003 e
Info: MASS DENSITY = 0.722022 g/cm^3
Info: ATOM DENSITY = 0.0723736 atoms/A^3
Info: ADDED 0 IMPLICIT EXCLUSIONS
Info: NONBONDED TABLE R-SQUARED SPACING: 0.0625
Info: NONBONDED TABLE SIZE: 705 POINTS
Info: REMOVING COM VELOCITY -0.163845 -0.0546918 0.222438
TCL: Running for 25000 steps
ETITLE: TS BOND ANGLE DIHED IMPRP ELECT VDW BOUNDARY MISC KINETIC TOTAL TEMP POTENTIAL TOTAL3 TEMPAVG PRESSURE GPRESSURE VOLUME PRESSAVG GPRESSAVG
ENERGY: 0 0.2129 0.3353 0.0265 0.0000 -21196.4866 3736.6760 0.0000 0.0000 2783.8868 -14675.3490 304.7456 -17459.2358 -14674.8060 304.7456 517.1435 559.6117 63476.1507 517.1435 559.6117
ENERGY: 5000 0.1988 0.5648 0.0533 0.0000 -22075.9968 3835.9462 0.0000 0.0000 284.6247 -17954.6089 31.1572 -18239.2336 -17953.9120 48.0283 -187.8063 -119.1223 45215.3078 0.0135 0.0088
ENERGY: 10000 0.2525 0.4992 0.0653 0.0000 -22063.5222 3779.9997 0.0000 0.0000 270.8218 -18011.8838 29.6462 -18282.7056 -18011.2730 30.0946 -541.4329 -480.4834 45260.8614 2.4749 2.4020
ENERGY: 15000 0.2270 0.6244 0.0931 0.0000 -22139.3872 3854.0954 0.0000 0.0000 277.7789 -18006.5684 30.4078 -18284.3472 -18005.9152 30.0938 -124.6526 -84.4764 45092.4644 -1.3790 -1.2567
ENERGY: 20000 0.1126 0.6708 0.1010 0.0000 -22080.5596 3791.7092 0.0000 0.0000 282.1447 -18005.8213 30.8857 -18287.9660 -18004.8470 30.2383 -476.1622 -413.4417 45242.9565 -0.7225 -0.6396
ENERGY: 25000 0.5159 0.6133 0.0465 0.0000 -22209.8295 3914.3313 0.0000 0.0000 269.0052 -18025.3173 29.4474 -18294.3225 -18024.5797 29.7341 141.6442 218.3901 45010.3351 4.7771 4.7007
TCL: Running 25000 steps at 60 kelvin.
TCL: Setting parameter langevinTemp to 60
TCL: Running for 25000 steps
ETITLE: TS BOND ANGLE DIHED IMPRP ELECT VDW BOUNDARY MISC KINETIC TOTAL TEMP POTENTIAL TOTAL3 TEMPAVG PRESSURE GPRESSURE VOLUME PRESSAVG GPRESSAVG
ENERGY: 25000 0.5159 0.6133 0.0465 0.0000 -22209.8295 3914.3313 0.0000 0.0000 268.8668 -18025.4557 29.4322 -18294.3225 -18024.8726 29.4322 157.6459 218.2090 45010.3351 157.6459 218.2090
ENERGY: 30000 0.1316 1.3602 0.0768 0.0000 -21927.1008 3852.4512 0.0000 0.0000 559.9480 -17513.1330 61.2962 -18073.0810 -17512.1713 57.4777 362.2635 420.4154 45340.0948 6.7569 6.3785
ENERGY: 35000 1.1362 1.0790 0.1102 0.0000 -21858.5998 3742.0124 0.0000 0.0000 544.3340 -17569.9280 59.5870 -18114.2620 -17568.0590 60.3030 -247.9407 -206.3045 45296.9706 3.0010 3.1224
ENERGY: 40000 0.0988 1.3333 0.0775 0.0000 -22121.8328 3973.7119 0.0000 0.0000 553.7613 -17592.8500 60.6190 -18146.6113 -17592.1684 60.1688 1155.1348 1188.6344 44660.7238 -2.6403 -2.4122
ENERGY: 45000 0.4115 1.3826 0.2818 0.0000 -21890.7928 3715.8930 0.0000 0.0000 550.3062 -17622.5177 60.2407 -18172.8239 -17620.8463 60.5327 -408.9470 -350.6023 45046.7844 -1.9886 -1.9074
ENERGY: 50000 0.4586 1.1766 0.0956 0.0000 -22050.0705 3843.3523 0.0000 0.0000 535.3459 -17669.6415 58.6031 -18204.9874 -17668.0785 60.1568 210.2611 278.2710 44689.8498 4.6440 4.7074
TCL: Running 25000 steps at 90 kelvin.
TCL: Setting parameter langevinTemp to 90
TCL: Running for 25000 steps
ETITLE: TS BOND ANGLE DIHED IMPRP ELECT VDW BOUNDARY MISC KINETIC TOTAL TEMP POTENTIAL TOTAL3 TEMPAVG PRESSURE GPRESSURE VOLUME PRESSAVG GPRESSAVG
ENERGY: 50000 0.4586 1.1766 0.0956 0.0000 -22050.0705 3843.3523 0.0000 0.0000 535.0720 -17669.9154 58.5731 -18204.9874 -17669.0159 58.5731 223.7208 278.5731 44689.8498 223.7208 278.5731
ENERGY: 55000 0.1055 1.5862 0.0880 0.0000 -21685.5993 3787.2397 0.0000 0.0000 815.1317 -17081.4481 89.2306 -17896.5799 -17079.5213 87.5353 676.3360 769.7566 44697.0240 2.5700 2.6300
ENERGY: 60000 0.8635 1.6752 0.5553 0.0000 -21492.2510 3546.6667 0.0000 0.0000 839.5550 -17102.9353 91.9041 -17942.4903 -17101.1827 90.4165 -756.2227 -695.1296 45121.1461 2.5544 2.3046
ENERGY: 65000 0.2858 1.9484 0.0683 0.0000 -21733.9565 3779.2132 0.0000 0.0000 800.1729 -17152.2679 87.5931 -17952.4408 -17150.5129 89.9639 563.0440 651.3594 44528.9669 0.0982 0.0153
ENERGY: 70000 0.0952 3.0145 0.1400 0.0000 -21540.9857 3558.3005 0.0000 0.0000 829.7795 -17149.6559 90.8340 -17979.4355 -17147.7977 90.3501 -749.5735 -705.2495 44995.5911 4.7208 4.8457
ENERGY: 75000 0.8207 2.0713 0.2171 0.0000 -21623.2392 3640.3363 0.0000 0.0000 812.5865 -17167.2073 88.9520 -17979.7939 -17166.1612 89.9450 -287.3893 -267.0777 44773.6762 7.6090 7.4427
TCL: Running 25000 steps at 120 kelvin.
TCL: Setting parameter langevinTemp to 120
TCL: Running for 25000 steps
ETITLE: TS BOND ANGLE DIHED IMPRP ELECT VDW BOUNDARY MISC KINETIC TOTAL TEMP POTENTIAL TOTAL3 TEMPAVG PRESSURE GPRESSURE VOLUME PRESSAVG GPRESSAVG
ENERGY: 75000 0.8207 2.0713 0.2171 0.0000 -21623.2392 3640.3363 0.0000 0.0000 812.1630 -17167.6308 88.9056 -17979.7939 -17165.8472 88.9056 -311.7467 -267.7997 44773.6762 -311.7467 -267.7997
ENERGY: 80000 0.6187 2.5244 0.1543 0.0000 -21196.6316 3500.2445 0.0000 0.0000 1110.2611 -16582.8286 121.5377 -17693.0897 -16578.6989 116.9210 -360.4124 -288.5504 45156.4269 6.1293 6.0799
ENERGY: 85000 0.1760 2.4961 0.2137 0.0000 -21376.3054 3682.6097 0.0000 0.0000 1098.4829 -16592.3269 120.2484 -17690.8098 -16589.4277 120.3431 606.7843 701.3012 44705.1524 0.6907 0.4268
ENERGY: 90000 0.3032 1.6102 0.1105 0.0000 -21226.5097 3515.5542 0.0000 0.0000 1101.7928 -16607.1388 120.6107 -17708.9316 -16605.4384 119.9629 -265.2254 -219.0026 44984.6263 1.8824 1.8070
ENERGY: 95000 0.6431 3.0133 0.4220 0.0000 -21298.2355 3550.9988 0.0000 0.0000 1114.4021 -16628.7561 121.9910 -17743.1582 -16626.6215 120.3179 -196.0670 -114.1362 44948.6778 0.6053 0.6918
ENERGY: 100000 0.4118 2.1200 0.1210 0.0000 -21381.8154 3639.3182 0.0000 0.0000 1096.3129 -16643.5315 120.0108 -17739.8444 -16640.5800 119.9386 267.6113 294.8038 44829.9575 -1.5925 -1.6289
TCL: Running 25000 steps at 150 kelvin.
TCL: Setting parameter langevinTemp to 150
TCL: Running for 25000 steps
ETITLE: TS BOND ANGLE DIHED IMPRP ELECT VDW BOUNDARY MISC KINETIC TOTAL TEMP POTENTIAL TOTAL3 TEMPAVG PRESSURE GPRESSURE VOLUME PRESSAVG GPRESSAVG
ENERGY: 100000 0.4118 2.1200 0.1210 0.0000 -21381.8154 3639.3182 0.0000 0.0000 1095.7581 -16644.0863 119.9501 -17739.8444 -16641.9816 119.9501 231.1315 294.7314 44829.9575 231.1315 294.7314
ENERGY: 105000 0.5957 2.6133 0.6205 0.0000 -20871.3799 3440.1689 0.0000 0.0000 1404.9963 -16022.3853 153.8017 -17427.3815 -16018.4188 146.8510 22.9453 82.9697 45019.9547 9.4790 9.3538
ENERGY: 110000 0.7119 3.3350 1.3024 0.0000 -20993.4758 3613.3351 0.0000 0.0000 1370.6922 -16004.0992 150.0465 -17374.7914 -16001.4230 150.9618 932.9120 1019.0048 44893.6755 1.0451 1.0589
ENERGY: 115000 0.9353 1.9480 0.2404 0.0000 -21049.8210 3585.6177 0.0000 0.0000 1374.1645 -16086.9151 150.4266 -17461.0796 -16084.2412 149.9029 714.1950 759.1874 44810.9670 2.1647 2.3228
ENERGY: 120000 0.8037 2.6311 0.0471 0.0000 -21001.0897 3543.7882 0.0000 0.0000 1400.1773 -16053.6424 153.2741 -17453.8196 -16050.7953 151.3156 511.5964 543.8210 44895.5612 4.9564 4.6255
ENERGY: 125000 0.7719 3.6033 0.1275 0.0000 -20997.9798 3490.5834 0.0000 0.0000 1342.8904 -16160.0033 147.0031 -17502.8937 -16156.3440 149.3056 18.2237 53.0962 45025.7178 6.3467 6.1137
TCL: Running 50000 steps at 180 kelvin.
TCL: Setting parameter langevinTemp to 180
TCL: Running for 50000 steps
ETITLE: TS BOND ANGLE DIHED IMPRP ELECT VDW BOUNDARY MISC KINETIC TOTAL TEMP POTENTIAL TOTAL3 TEMPAVG PRESSURE GPRESSURE VOLUME PRESSAVG GPRESSAVG
ENERGY: 125000 0.7719 3.6033 0.1275 0.0000 -20997.9798 3490.5834 0.0000 0.0000 1342.2448 -16160.6489 146.9324 -17502.8937 -16157.9696 146.9324 -2.9877 52.9796 45025.7178 -2.9877 52.9796
ENERGY: 135000 1.2554 3.9131 0.2203 0.0000 -20372.4708 3323.5822 0.0000 0.0000 1686.8738 -15356.6261 184.6581 -17043.4999 -15351.3661 180.4154 269.2683 349.3058 44946.5468 1.2709 1.0916
ENERGY: 145000 1.9693 2.4156 0.7586 0.0000 -20406.9163 3346.0245 0.0000 0.0000 1618.9726 -15436.7757 177.2252 -17055.7483 -15433.2258 180.2313 215.5534 261.7601 45266.2077 6.6069 6.3642
ENERGY: 155000 1.7735 1.2366 0.3148 0.0000 -20279.3759 3222.0263 0.0000 0.0000 1655.8503 -15398.1744 181.2621 -17054.0247 -15394.3397 180.6546 -514.5392 -449.5422 45458.5445 2.2786 2.3730
ENERGY: 165000 1.7273 2.9403 0.0614 0.0000 -20230.4257 3183.9160 0.0000 0.0000 1713.7897 -15327.9909 187.6046 -17041.7806 -15322.8267 181.4926 -529.0755 -430.8777 44955.1886 1.4809 1.2626
ENERGY: 175000 0.3829 3.6717 0.2164 0.0000 -20455.3117 3292.9486 0.0000 0.0000 1635.3133 -15522.7787 179.0139 -17158.0921 -15517.9811 180.5105 -25.5105 28.1922 44656.8776 -1.7332 -1.9802
TCL: Running 50000 steps at 210 kelvin.
TCL: Setting parameter langevinTemp to 210
TCL: Running for 50000 steps
ETITLE: TS BOND ANGLE DIHED IMPRP ELECT VDW BOUNDARY MISC KINETIC TOTAL TEMP POTENTIAL TOTAL3 TEMPAVG PRESSURE GPRESSURE VOLUME PRESSAVG GPRESSAVG
ENERGY: 175000 0.3829 3.6717 0.2164 0.0000 -20455.3117 3292.9486 0.0000 0.0000 1634.4667 -15523.6254 178.9213 -17158.0921 -15520.8133 178.9213 -36.2545 27.8725 44656.8776 -36.2545 27.8725
ENERGY: 185000 0.3279 3.6328 0.0978 0.0000 -19573.6130 3083.1458 0.0000 0.0000 1890.5587 -14595.8499 206.9551 -16486.4086 -14591.4679 210.8439 363.6545 459.7696 44776.9470 0.1639 0.4110
ENERGY: 195000 0.7307 3.3664 0.9078 0.0000 -19339.1923 3012.9741 0.0000 0.0000 1907.8350 -14413.3783 208.8463 -16321.2133 -14410.0344 209.7413 400.9549 503.3596 44756.0841 0.7471 0.9919
ENERGY: 205000 2.1499 3.5236 0.0991 0.0000 -19430.0341 3032.9145 0.0000 0.0000 1940.9834 -14450.3636 212.4749 -16391.3470 -14447.1787 210.9034 396.7351 537.6609 44193.0251 8.4181 8.2197
ENERGY: 215000 0.7357 3.7163 0.0746 0.0000 -19215.5247 2886.3480 0.0000 0.0000 1923.3274 -14401.3227 210.5422 -16324.6502 -14397.3315 209.3841 -338.5105 -249.5090 45133.5141 1.1443 1.0962
ENERGY: 225000 1.7105 1.8764 0.2145 0.0000 -19249.4623 2883.2460 0.0000 0.0000 1899.1145 -14463.3004 207.8916 -16362.4149 -14459.8951 211.2156 -218.5609 -148.5054 44556.4275 2.4324 2.9822
TCL: Running 50000 steps at 240 kelvin.
TCL: Setting parameter langevinTemp to 240
TCL: Running for 50000 steps
ETITLE: TS BOND ANGLE DIHED IMPRP ELECT VDW BOUNDARY MISC KINETIC TOTAL TEMP POTENTIAL TOTAL3 TEMPAVG PRESSURE GPRESSURE VOLUME PRESSAVG GPRESSAVG
ENERGY: 225000 1.7105 1.8764 0.2145 0.0000 -19249.4623 2883.2460 0.0000 0.0000 1898.1418 -14464.2731 207.7852 -16362.4149 -14460.6131 207.7852 -232.7044 -150.5037 44556.4275 -232.7044 -150.5037
ENERGY: 235000 0.2148 3.6390 0.7930 0.0000 -18364.5899 2647.7881 0.0000 0.0000 2162.0388 -13550.1163 236.6734 -15712.1551 -13545.5641 240.7057 -155.9935 -36.8458 44933.8291 7.8997 8.3158
ENERGY: 245000 1.5918 3.3667 0.1782 0.0000 -18278.3103 2572.7160 0.0000 0.0000 2225.4956 -13474.9619 243.6198 -15700.4575 -13470.3912 241.3774 -556.6933 -449.1232 45080.6455 3.2519 2.4397
ENERGY: 255000 0.8160 3.1371 0.1762 0.0000 -18208.4096 2541.3597 0.0000 0.0000 2197.9010 -13465.0194 240.5991 -15662.9205 -13460.7201 239.8431 -922.1815 -839.6020 45862.3632 2.4110 2.8511
ENERGY: 265000 0.8004 3.9116 0.1965 0.0000 -18358.4625 2647.3257 0.0000 0.0000 2205.2918 -13500.9365 241.4082 -15706.2283 -13497.1782 241.8151 -145.7944 -94.5196 45468.3817 6.1767 5.9823
ENERGY: 275000 1.0141 6.2871 1.5911 0.0000 -18455.1871 2712.2308 0.0000 0.0000 2271.2627 -13462.8013 248.6298 -15734.0640 -13459.4828 241.8008 205.7856 291.6846 45119.3701 -1.7797 -1.8759
TCL: Running 50000 steps at 270 kelvin.
TCL: Setting parameter langevinTemp to 270
TCL: Running for 50000 steps
ETITLE: TS BOND ANGLE DIHED IMPRP ELECT VDW BOUNDARY MISC KINETIC TOTAL TEMP POTENTIAL TOTAL3 TEMPAVG PRESSURE GPRESSURE VOLUME PRESSAVG GPRESSAVG
ENERGY: 275000 1.0141 6.2871 1.5911 0.0000 -18455.1871 2712.2308 0.0000 0.0000 2270.1883 -13463.8757 248.5122 -15734.0640 -13460.1564 248.5122 206.7316 290.2829 45119.3701 206.7316 290.2829
ENERGY: 285000 2.3338 6.9828 0.3513 0.0000 -17489.6730 2493.5752 0.0000 0.0000 2454.5542 -12531.8758 268.6943 -14986.4299 -12529.8014 271.3686 385.5703 494.2897 45760.4708 -2.7841 -1.4748
ENERGY: 295000 1.3009 3.0461 0.5726 0.0000 -17567.1713 2493.1608 0.0000 0.0000 2501.2854 -12567.8055 273.8099 -15069.0909 -12560.3633 270.1125 180.5837 273.5638 45836.5735 0.0186 -0.2150
ENERGY: 305000 0.7463 5.1551 0.4172 0.0000 -17364.1076 2447.1207 0.0000 0.0000 2437.4257 -12473.2427 266.8193 -14910.6684 -12470.3425 272.2515 415.0638 526.4202 45715.0979 5.2400 5.1765
ENERGY: 315000 3.1374 1.7127 0.4691 0.0000 -17526.0323 2484.3313 0.0000 0.0000 2513.2906 -12523.0913 275.1241 -15036.3820 -12516.8794 272.2903 239.2073 333.5407 45785.4678 4.0745 3.8479
ENERGY: 325000 0.2376 5.5409 0.1758 0.0000 -17434.9174 2417.9860 0.0000 0.0000 2415.6190 -12595.3580 264.4322 -15010.9771 -12591.8229 268.9069 -79.3675 -33.2417 46160.2129 2.5970 2.9064
TCL: Running 1000000 steps at 300 kelvin.
TCL: Setting parameter langevinTemp to 300
TCL: Running for 1000000 steps
ETITLE: TS BOND ANGLE DIHED IMPRP ELECT VDW BOUNDARY MISC KINETIC TOTAL TEMP POTENTIAL TOTAL3 TEMPAVG PRESSURE GPRESSURE VOLUME PRESSAVG GPRESSAVG
ENERGY: 325000 0.2376 5.5409 0.1758 0.0000 -17434.9174 2417.9860 0.0000 0.0000 2414.4097 -12596.5674 264.2998 -15010.9771 -12592.6769 264.2998 -118.2768 -33.0581 46160.2129 -118.2768 -33.0581
ENERGY: 525000 0.8860 5.3287 0.2942 0.0000 -16529.5930 2188.9532 0.0000 0.0000 2689.2284 -11644.9025 294.3836 -14334.1309 -11638.8439 300.3363 -153.2053 -99.6288 47464.4394 -2.0605 -2.2540
ENERGY: 725000 0.9621 6.4582 0.1213 0.0000 -16619.9765 2238.7342 0.0000 0.0000 2760.0411 -11613.6597 302.1353 -14373.7007 -11608.9841 299.7146 -42.5563 39.0705 47588.5771 -3.7370 -3.7228
ENERGY: 925000 1.2066 5.6600 0.5292 0.0000 -16737.4417 2317.8995 0.0000 0.0000 2721.4752 -11690.6711 297.9136 -14412.1463 -11686.1244 300.8077 174.6754 283.1046 47746.0507 6.4004 6.5039
ENERGY: 1125000 0.4809 3.5632 0.9676 0.0000 -16681.2898 2245.4109 0.0000 0.0000 2741.2120 -11689.6553 300.0741 -14430.8673 -11683.7541 298.7397 19.1086 94.4559 47182.2191 -1.2151 -1.1448
ENERGY: 1325000 0.8462 4.8466 0.3465 0.0000 -16595.6519 2236.6093 0.0000 0.0000 2821.9213 -11531.0820 308.9092 -14353.0033 -11527.1017 300.6751 310.0545 367.9127 46886.1330 2.4359 1.9977
TCL: Exiting due to exit command.
