Info: SIMULATION PARAMETERS:
Info: TIMESTEP               2
Info: NUMBER OF STEPS        0
Info: STEPS PER CYCLE        10
Info: PERIODIC CELL BASIS 1  80.8323 0 0
Info: PERIODIC CELL BASIS 2  0 80.8323 0
Info: PERIODIC CELL BASIS 3  0 0 80.8323
Info: PERIODIC CELL CENTER   33.237 33.237 33.237
Info: WRAPPING ALL CLUSTERS AROUND PERIODIC BOUNDARIES ON OUTPUT.
Info: FIRST LDB TIMESTEP     50
Info: LAST LDB TIMESTEP     -1
Info: HOM BACKGROUND SCALING 1
Info: PME BACKGROUND SCALING 1
Info: MIN ATOMS PER PATCH    40
Info: EMPTY PATCH LOAD       40 ATOMS
Info: VELOCITY FILE          mobley_9246351_equilibrated.vel
Info: CENTER OF MASS MOVING INITIALLY? NO
Info: DIELECTRIC             1
Info: EXCLUDE                SCALED ONE-FOUR
Info: 1-4 ELECTROSTATICS SCALED BY 1
Info: MODIFIED 1-4 VDW PARAMETERS WILL BE USED
Info: DCD FILENAME           mobley_9246351_backwards.dcd
Info: DCD FREQUENCY          500
Info: DCD FIRST STEP         500
Info: DCD FILE WILL CONTAIN UNIT CELL DATA
Info: NO EXTENDED SYSTEM TRAJECTORY OUTPUT
Info: NO VELOCITY DCD OUTPUT
Info: NO FORCE DCD OUTPUT
Info: OUTPUT FILENAME        mobley_9246351_backwards
Info: BINARY OUTPUT FILES WILL BE USED
Info: NO RESTART FILE
Info: SWITCHING ACTIVE
Info: SWITCHING ON           10
Info: SWITCHING OFF          12
Info: PAIRLIST DISTANCE      14
Info: PAIRLIST SHRINK RATE   0.01
Info: PAIRLIST GROW RATE     0.01
Info: PAIRLIST TRIGGER       0.3
Info: PAIRLISTS PER CYCLE    2
Info: PAIRLISTS ENABLED
Info: MARGIN                 8
Info: HYDROGEN GROUP CUTOFF  2.5
Info: PATCH DIMENSION        24.5
Info: ENERGY OUTPUT STEPS    500
Info: ENERGY EVALUATION STEPS    500
Info: OUTPUT ENERGY PRECISION 4
Info: CROSSTERM ENERGY INCLUDED IN DIHEDRAL
Info: TIMING OUTPUT STEPS    500
Info: PRESSURE OUTPUT STEPS  500
Info: ALCHEMICAL FEP ON
Info: FEP CURRENT LAMBDA VALUE     1
Info: FEP COMPARISON LAMBDA VALUE  0.9375
Info: FEP INTRA-ALCHEMICAL NON-BONDED INTERACTIONS WILL BE DECOUPLED
Info: FEP INTRA-ALCHEMICAL BONDED INTERACTIONS WILL BE RETAINED
Info: FEP VDW SHIFTING COEFFICIENT 6
Info: FEP ELEC. ACTIVE FOR ANNIHILATED PARTICLES BETWEEN LAMBDA = 0 AND LAMBDA = 0.5
Info: FEP ELEC. ACTIVE FOR EXNIHILATED PARTICLES BETWEEN LAMBDA = 0.5 AND LAMBDA = 1
Info: FEP VDW ACTIVE FOR ANNIHILATED PARTICLES BETWEEN LAMBDA = 0 AND LAMBDA = 1
Info: FEP VDW ACTIVE FOR EXNIHILATED PARTICLES BETWEEN LAMBDA = 0 AND LAMBDA = 1
Info: FEP BOND ACTIVE FOR ANNIHILATED PARTICLES BETWEEN LAMBDA = 1 AND LAMBDA = 1
Info: FEP BOND ACTIVE FOR EXNIHILATED PARTICLES BETWEEN LAMBDA = 0 AND LAMBDA = 0
Info: LANGEVIN DYNAMICS ACTIVE
Info: LANGEVIN TEMPERATURE   298
Info: LANGEVIN USING BBK INTEGRATOR
Info: LANGEVIN DAMPING COEFFICIENT IS 1 INVERSE PS
Info: LANGEVIN DYNAMICS NOT APPLIED TO HYDROGENS
Info: LANGEVIN PISTON PRESSURE CONTROL ACTIVE
Info:        TARGET PRESSURE IS 1.01325 BAR
Info:     OSCILLATION PERIOD IS 100 FS
Info:             DECAY TIME IS 50 FS
Info:     PISTON TEMPERATURE IS 298 K
Info:       PRESSURE CONTROL IS GROUP-BASED
Info:    INITIAL STRAIN RATE IS 1.18846e-05 1.18846e-05 1.18846e-05
Info:       CELL FLUCTUATION IS ISOTROPIC
Info: PARTICLE MESH EWALD (PME) ACTIVE
Info: PME TOLERANCE               1e-05
Info: PME EWALD COEFFICIENT       0.226635
Info: PME INTERPOLATION ORDER     4
Info: PME GRID DIMENSIONS         84 84 84
Info: PME MAXIMUM GRID SPACING    1
Info: FULL ELECTROSTATIC EVALUATION FREQUENCY      1
Info: USING VERLET I (r-RESPA) MTS SCHEME.
Info: C1 SPLITTING OF LONG RANGE ELECTROSTATICS
Info: PLACING ATOMS IN PATCHES BY HYDROGEN GROUPS
Info: RIGID BONDS TO HYDROGEN : ALL
Info:         ERROR TOLERANCE : 1e-08
Info:          MAX ITERATIONS : 100
Info: RIGID WATER USING SETTLE ALGORITHM
Info: RANDOM NUMBER SEED     1740653595
Info: USE HYDROGEN BONDS?    NO
Info: COORDINATE PDB         mobley_9246351.pdb
Info: STRUCTURE FILE         mobley_9246351.psf
Info: PARAMETER file: CHARMM format!
Info: PARAMETERS             ../common/par_all27_prot_lipid.inp
Info: PARAMETERS             mobley_9246351.prm
Info: USING ARITHMETIC MEAN TO COMBINE L-J SIGMA PARAMETERS
Info: BINARY COORDINATES     mobley_9246351_equilibrated.coor
Info: SUMMARY OF PARAMETERS:
Info: 182 BONDS
Info: 450 ANGLES
Info: 566 DIHEDRAL
Info: 46 IMPROPER
Info: 6 CROSSTERM
Info: 122 VDW
Info: 0 VDW_PAIRS
Info: 0 NBTHOLE_PAIRS
Info: To read alchdata from file: mobley_9246351.pdb
Info: To read alchflag data from column: 5
Info: STRUCTURE SUMMARY:
Info: 3551 ATOMS
Info: 2368 BONDS
Info: 1188 ANGLES
Info: 0 DIHEDRALS
Info: 0 IMPROPERS
Info: 0 CROSSTERMS
Info: 0 EXCLUSIONS
Info: 3548 RIGID BONDS
Info: ALCH: 0 ATOMS TO DISAPPEAR IN FINAL STATE
Info: ALCH: 5 ATOMS TO APPEAR IN FINAL STATE
Info: 7105 DEGREES OF FREEDOM
Info: 1185 HYDROGEN GROUPS
Info: 3 ATOMS IN LARGEST HYDROGEN GROUP
Info: 1185 MIGRATION GROUPS
Info: 3 ATOMS IN LARGEST MIGRATION GROUP
Info: TOTAL MASS = 21468 amu
Info: TOTAL CHARGE = 9.31323e-10 e
Info: MASS DENSITY = 0.0674988 g/cm^3
Info: ATOM DENSITY = 0.0067235 atoms/A^3
Info: ADDED 3556 IMPLICIT EXCLUSIONS
Info: NONBONDED TABLE R-SQUARED SPACING: 0.0625
Info: NONBONDED TABLE SIZE: 769 POINTS
Info: REMOVING COM VELOCITY -0.0594567 -0.13704 0.0446176
TCL: Running for 5000 steps
ETITLE: TS BOND ANGLE DIHED IMPRP ELECT VDW BOUNDARY MISC KINETIC TOTAL TEMP POTENTIAL TOTAL3 TEMPAVG PRESSURE GPRESSURE VOLUME PRESSAVG GPRESSAVG
ENERGY: 0 1.2335 3.5729 0.0000 0.0000 -12163.4123 1269.3491 0.0000 0.0000 2113.3678 -8775.8889 299.3652 -10889.2567 -8771.9369 299.3652 -6.6408 -6.6711 528147.7431 -6.6408 -6.6711
ENERGY: 1000 0.6513 1.7759 0.0000 0.0000 -12184.7211 1317.1793 0.0000 0.0000 2068.3325 -8796.7822 292.9859 -10865.1146 -8794.5395 296.1844 3.5750 3.7221 556866.1410 -0.6019 -0.5866
ENERGY: 2000 1.9068 0.9971 0.0000 0.0000 -12196.3524 1359.5917 0.0000 0.0000 2083.6895 -8750.1673 295.1612 -10833.8568 -8744.2313 297.2024 31.4764 30.7558 575370.9362 1.6760 1.7391
ENERGY: 3000 0.7911 1.3345 0.0000 0.0000 -12212.0562 1337.6637 0.0000 0.0000 2132.8870 -8739.3799 302.1302 -10872.2669 -8734.7650 301.0865 19.9846 19.2326 568630.9155 1.1002 1.1166
ENERGY: 4000 0.1237 0.9557 0.0000 0.0000 -12094.3929 1245.7785 0.0000 0.0000 2102.3246 -8745.2103 297.8009 -10847.5350 -8739.0131 300.3125 -17.8954 -17.5890 569493.2479 1.4776 1.4716
ENERGY: 5000 0.1385 0.4237 0.0000 0.0000 -12250.4649 1396.6733 0.0000 0.0000 2120.3874 -8732.8421 300.3596 -10853.2294 -8729.1258 298.4750 44.0621 43.6031 538592.0152 0.0115 0.0470
TCL: Running FEP window   2: Lambda1 0.9375 Lambda2 0.875  [dLambda -0.0625]
TCL: Setting parameter firsttimestep to 0
TCL: Setting parameter alchLambda to 0.9375
Info: NONBONDED TABLE R-SQUARED SPACING: 0.0625
Info: NONBONDED TABLE SIZE: 769 POINTS
TCL: Setting parameter alchLambda2 to 0.875
Info: NONBONDED TABLE R-SQUARED SPACING: 0.0625
Info: NONBONDED TABLE SIZE: 769 POINTS
TCL: Running for 5000 steps
ETITLE: TS BOND ANGLE DIHED IMPRP ELECT VDW BOUNDARY MISC KINETIC TOTAL TEMP POTENTIAL TOTAL3 TEMPAVG PRESSURE GPRESSURE VOLUME PRESSAVG GPRESSAVG
ENERGY: 0 0.1385 0.4237 0.0000 0.0000 -12250.1495 1396.2936 0.0000 0.0000 2120.3176 -8732.9761 300.3497 -10853.2937 -8729.4961 300.3497 42.7234 42.7455 538592.0152 42.7234 42.7455
ENERGY: 1000 0.6841 2.1699 0.0000 0.0000 -12131.2074 1291.4036 0.0000 0.0000 2122.2369 -8714.7129 300.6216 -10836.9498 -8710.4721 301.4882 3.6969 3.6815 509253.5315 2.2792 2.2860
ENERGY: 2000 0.2410 2.0769 0.0000 0.0000 -12232.3427 1338.3595 0.0000 0.0000 2086.0326 -8805.6329 295.4931 -10891.6655 -8802.3984 295.6561 28.8332 28.0794 492600.7954 1.9585 1.9651
ENERGY: 3000 0.0034 1.7218 0.0000 0.0000 -12135.3772 1218.0316 0.0000 0.0000 2102.1722 -8813.4482 297.7794 -10915.6204 -8808.7743 298.9128 -37.1308 -36.8538 499546.3004 0.8721 0.8923
ENERGY: 4000 0.3117 0.5019 0.0000 0.0000 -12112.0476 1211.0837 0.0000 0.0000 2136.6502 -8763.5001 302.6633 -10900.1503 -8759.1004 299.1999 -47.5587 -48.2190 491298.8103 2.6194 2.5871
ENERGY: 5000 0.2894 1.3550 0.0000 0.0000 -12257.1475 1287.8363 0.0000 0.0000 2161.8983 -8805.7685 306.2397 -10967.6668 -8803.5210 300.1054 -18.0321 -18.5754 487549.0967 -0.5466 -0.5144
TCL: Running FEP window   3: Lambda1 0.875  Lambda2 0.8125 [dLambda -0.0625]
TCL: Setting parameter firsttimestep to 0
TCL: Setting parameter alchLambda to 0.875
Info: NONBONDED TABLE R-SQUARED SPACING: 0.0625
Info: NONBONDED TABLE SIZE: 769 POINTS
TCL: Setting parameter alchLambda2 to 0.8125
Info: NONBONDED TABLE R-SQUARED SPACING: 0.0625
Info: NONBONDED TABLE SIZE: 769 POINTS
TCL: Running for 5000 steps
ETITLE: TS BOND ANGLE DIHED IMPRP ELECT VDW BOUNDARY MISC KINETIC TOTAL TEMP POTENTIAL TOTAL3 TEMPAVG PRESSURE GPRESSURE VOLUME PRESSAVG GPRESSAVG
ENERGY: 0 0.2894 1.3550 0.0000 0.0000 -12257.0675 1288.4771 0.0000 0.0000 2161.8368 -8805.1092 306.2310 -10966.9459 -8800.2374 306.2310 -19.1129 -19.1028 487549.0967 -19.1129 -19.1028
ENERGY: 1000 0.1850 0.9156 0.0000 0.0000 -12247.2000 1354.1655 0.0000 0.0000 2100.7554 -8791.1786 297.5787 -10891.9340 -8787.9246 296.6947 44.7208 43.9610 475628.1722 1.4499 1.4460
ENERGY: 2000 1.1502 2.8943 0.0000 0.0000 -12149.5612 1321.1189 0.0000 0.0000 2092.8545 -8731.5433 296.4595 -10824.3978 -8725.6084 301.1463 -2.8863 -2.4659 465632.3058 2.2795 2.2501
ENERGY: 3000 0.3745 1.8804 0.0000 0.0000 -12208.6654 1306.4788 0.0000 0.0000 2130.3011 -8769.6306 301.7639 -10899.9317 -8766.4705 300.1367 3.3308 2.1095 434523.5773 0.8362 0.8237
ENERGY: 4000 0.2975 0.6902 0.0000 0.0000 -12279.2697 1343.6655 0.0000 0.0000 2101.9299 -8832.6866 297.7450 -10934.6165 -8831.1527 296.4915 15.3983 15.0928 423823.4827 0.9108 0.9271
ENERGY: 5000 2.3766 1.1805 0.0000 0.0000 -12156.6827 1295.9146 0.0000 0.0000 2071.8968 -8785.3144 293.4907 -10857.2111 -8781.6091 296.7700 -3.1497 -4.5312 435970.4600 3.2972 3.3103
TCL: Running FEP window   4: Lambda1 0.8125 Lambda2 0.75   [dLambda -0.0625]
TCL: Setting parameter firsttimestep to 0
TCL: Setting parameter alchLambda to 0.8125
Info: NONBONDED TABLE R-SQUARED SPACING: 0.0625
Info: NONBONDED TABLE SIZE: 769 POINTS
TCL: Setting parameter alchLambda2 to 0.75
Info: NONBONDED TABLE R-SQUARED SPACING: 0.0625
Info: NONBONDED TABLE SIZE: 769 POINTS
TCL: Running for 5000 steps
ETITLE: TS BOND ANGLE DIHED IMPRP ELECT VDW BOUNDARY MISC KINETIC TOTAL TEMP POTENTIAL TOTAL3 TEMPAVG PRESSURE GPRESSURE VOLUME PRESSAVG GPRESSAVG
ENERGY: 0 2.3766 1.1805 0.0000 0.0000 -12156.5842 1296.7421 0.0000 0.0000 2071.8310 -8784.4540 293.4814 -10856.2851 -8780.8476 293.4814 -4.7300 -4.7184 435970.4600 -4.7300 -4.7184
ENERGY: 1000 1.1197 2.3602 0.0000 0.0000 -12175.2350 1276.0928 0.0000 0.0000 2087.7288 -8807.9335 295.7334 -10895.6623 -8804.3010 297.9259 -11.6979 -11.2519 440185.7992 0.5352 0.5637
ENERGY: 2000 0.3192 1.4522 0.0000 0.0000 -12107.1089 1257.1963 0.0000 0.0000 2020.3658 -8827.7753 286.1912 -10848.1412 -8824.1856 296.3071 -29.5797 -29.1494 439258.5296 2.3043 2.3214
ENERGY: 3000 2.0232 0.6829 0.0000 0.0000 -12249.4709 1367.0698 0.0000 0.0000 2018.7728 -8860.9222 285.9656 -10879.6949 -8857.8197 295.1855 60.3201 59.9168 430487.2952 0.4582 0.5079
ENERGY: 4000 1.0484 1.7080 0.0000 0.0000 -12207.8882 1265.2356 0.0000 0.0000 2084.6254 -8855.2708 295.2938 -10939.8962 -8850.3537 296.4376 -26.4544 -26.9038 438570.3146 1.6956 1.6864
ENERGY: 5000 0.3373 3.2945 0.0000 0.0000 -12279.1928 1278.7515 0.0000 0.0000 2070.3021 -8926.5076 293.2649 -10996.8096 -8923.8160 291.4481 -36.1546 -36.9917 447030.3102 1.0596 1.0524
TCL: Running FEP window   5: Lambda1 0.75   Lambda2 0.6875 [dLambda -0.0625]
TCL: Setting parameter firsttimestep to 0
TCL: Setting parameter alchLambda to 0.75
Info: NONBONDED TABLE R-SQUARED SPACING: 0.0625
Info: NONBONDED TABLE SIZE: 769 POINTS
TCL: Setting parameter alchLambda2 to 0.6875
Info: NONBONDED TABLE R-SQUARED SPACING: 0.0625
Info: NONBONDED TABLE SIZE: 769 POINTS
TCL: Running for 5000 steps
ETITLE: TS BOND ANGLE DIHED IMPRP ELECT VDW BOUNDARY MISC KINETIC TOTAL TEMP POTENTIAL TOTAL3 TEMPAVG PRESSURE GPRESSURE VOLUME PRESSAVG GPRESSAVG
ENERGY: 0 0.3373 3.2945 0.0000 0.0000 -12278.9061 1278.4993 0.0000 0.0000 2070.2351 -8926.5400 293.2554 -10996.7750 -8922.2400 293.2554 -38.2123 -38.0666 447030.3102 -38.2123 -38.0666
ENERGY: 1000 0.6716 1.9744 0.0000 0.0000 -12186.2752 1251.2599 0.0000 0.0000 2077.3832 -8854.9861 294.2679 -10932.3693 -8850.2873 294.8376 -31.2411 -31.4396 446306.5216 0.7258 0.7438
ENERGY: 2000 0.2266 1.1249 0.0000 0.0000 -12169.0177 1316.1889 0.0000 0.0000 2018.9720 -8832.5053 285.9938 -10851.4773 -8828.6752 293.6641 29.6470 29.0618 449527.2999 3.4193 3.4234
ENERGY: 3000 0.6167 0.5082 0.0000 0.0000 -12222.3871 1277.4323 0.0000 0.0000 2066.9844 -8876.8455 292.7949 -10943.8299 -8873.0510 295.5041 -23.7616 -23.8433 463307.2400 2.9914 2.9847
ENERGY: 4000 0.6581 2.1460 0.0000 0.0000 -12197.8219 1304.3791 0.0000 0.0000 2038.7230 -8851.9157 288.7916 -10890.6387 -8849.1668 294.7055 -11.7309 -12.2562 440672.6320 -0.7279 -0.7234
ENERGY: 5000 0.1503 1.1728 0.0000 0.0000 -12279.0752 1324.4081 0.0000 0.0000 2136.3102 -8817.0337 302.6151 -10953.3439 -8811.2621 296.0935 22.7712 22.5329 434458.3418 2.9856 3.0118
TCL: Running FEP window   6: Lambda1 0.6875 Lambda2 0.625  [dLambda -0.0625]
TCL: Setting parameter firsttimestep to 0
TCL: Setting parameter alchLambda to 0.6875
Info: NONBONDED TABLE R-SQUARED SPACING: 0.0625
Info: NONBONDED TABLE SIZE: 769 POINTS
TCL: Setting parameter alchLambda2 to 0.625
Info: NONBONDED TABLE R-SQUARED SPACING: 0.0625
Info: NONBONDED TABLE SIZE: 769 POINTS
TCL: Running for 5000 steps
ETITLE: TS BOND ANGLE DIHED IMPRP ELECT VDW BOUNDARY MISC KINETIC TOTAL TEMP POTENTIAL TOTAL3 TEMPAVG PRESSURE GPRESSURE VOLUME PRESSAVG GPRESSAVG
ENERGY: 0 0.1503 1.1728 0.0000 0.0000 -12278.7020 1325.0339 0.0000 0.0000 2136.2429 -8816.1021 302.6056 -10952.3450 -8812.2949 302.6056 22.5539 22.5641 434458.3418 22.5539 22.5641
ENERGY: 1000 0.0901 1.0325 0.0000 0.0000 -12207.2201 1323.8472 0.0000 0.0000 2087.4277 -8794.8227 295.6907 -10882.2503 -8790.5598 299.1255 17.1804 16.9406 426970.6341 4.1013 4.0889
ENERGY: 2000 1.1194 1.0240 0.0000 0.0000 -12169.0521 1279.9219 0.0000 0.0000 2079.3661 -8807.6207 294.5488 -10886.9869 -8803.1919 298.1973 -11.8359 -11.7986 392698.3174 1.1075 1.1301
ENERGY: 3000 0.0209 1.5605 0.0000 0.0000 -12219.4421 1351.0404 0.0000 0.0000 2081.9987 -8784.8216 294.9217 -10866.8203 -8781.0214 298.2204 23.7296 23.4653 374893.6024 -1.3231 -1.3197
ENERGY: 4000 0.2821 1.3457 0.0000 0.0000 -12255.6136 1318.1643 0.0000 0.0000 2087.7197 -8848.1018 295.7321 -10935.8214 -8844.5577 295.3901 17.5860 18.0758 358672.9663 1.4809 1.4386
ENERGY: 5000 0.3874 1.5461 0.0000 0.0000 -12204.8923 1317.2581 0.0000 0.0000 2055.9456 -8829.7550 291.2312 -10885.7007 -8826.0932 296.0721 -2.4247 -2.0113 346408.7979 0.2513 0.2863
TCL: Running FEP window   7: Lambda1 0.625  Lambda2 0.5625 [dLambda -0.0625]
TCL: Setting parameter firsttimestep to 0
TCL: Setting parameter alchLambda to 0.625
Info: NONBONDED TABLE R-SQUARED SPACING: 0.0625
Info: NONBONDED TABLE SIZE: 769 POINTS
TCL: Setting parameter alchLambda2 to 0.5625
Info: NONBONDED TABLE R-SQUARED SPACING: 0.0625
Info: NONBONDED TABLE SIZE: 769 POINTS
TCL: Running for 5000 steps
ETITLE: TS BOND ANGLE DIHED IMPRP ELECT VDW BOUNDARY MISC KINETIC TOTAL TEMP POTENTIAL TOTAL3 TEMPAVG PRESSURE GPRESSURE VOLUME PRESSAVG GPRESSAVG
ENERGY: 0 0.3874 1.5461 0.0000 0.0000 -12204.6076 1317.6865 0.0000 0.0000 2055.8817 -8829.1059 291.2222 -10884.9876 -8825.3626 291.2222 -2.3725 -2.3350 346408.7979 -2.3725 -2.3350
ENERGY: 1000 0.3344 2.0386 0.0000 0.0000 -12230.2691 1343.8988 0.0000 0.0000 2076.7383 -8807.2589 294.1766 -10883.9972 -8804.2867 296.4772 28.1130 27.3670 326716.1020 1.1237 1.1522
ENERGY: 2000 0.0519 1.6345 0.0000 0.0000 -12234.7053 1323.5840 0.0000 0.0000 2123.1091 -8786.3258 300.7451 -10909.4349 -8781.7047 297.0595 20.1184 19.7557 313513.0148 2.0043 1.9561
ENERGY: 3000 0.4943 0.9341 0.0000 0.0000 -12224.8895 1338.8644 0.0000 0.0000 2135.8669 -8748.7297 302.5523 -10884.5966 -8743.8818 299.7019 39.5921 40.3475 308350.9415 -0.6282 -0.6946
ENERGY: 4000 0.0007 1.5405 0.0000 0.0000 -12161.6280 1341.3429 0.0000 0.0000 2115.4864 -8703.2575 299.6654 -10818.7439 -8698.7677 301.4041 58.3180 57.8944 295546.2893 0.6098 0.5714
ENERGY: 5000 0.5507 2.2943 0.0000 0.0000 -12123.9565 1325.0421 0.0000 0.0000 2145.1377 -8650.9318 303.8656 -10796.0695 -8647.2906 300.9036 49.6012 49.7913 293056.7164 -0.8986 -0.8356
TCL: Running FEP window   8: Lambda1 0.5625 Lambda2 0.5    [dLambda -0.0625]
TCL: Setting parameter firsttimestep to 0
TCL: Setting parameter alchLambda to 0.5625
Info: NONBONDED TABLE R-SQUARED SPACING: 0.0625
Info: NONBONDED TABLE SIZE: 769 POINTS
TCL: Setting parameter alchLambda2 to 0.5
Info: NONBONDED TABLE R-SQUARED SPACING: 0.0625
Info: NONBONDED TABLE SIZE: 769 POINTS
TCL: Running for 5000 steps
ETITLE: TS BOND ANGLE DIHED IMPRP ELECT VDW BOUNDARY MISC KINETIC TOTAL TEMP POTENTIAL TOTAL3 TEMPAVG PRESSURE GPRESSURE VOLUME PRESSAVG GPRESSAVG
ENERGY: 0 0.5507 2.2943 0.0000 0.0000 -12123.7346 1325.5733 0.0000 0.0000 2145.0725 -8650.2437 303.8563 -10795.3163 -8646.9578 303.8563 49.6749 49.7319 293056.7164 49.6749 49.7319
ENERGY: 1000 0.2106 1.2928 0.0000 0.0000 -12163.5872 1348.4473 0.0000 0.0000 2089.4381 -8724.1984 295.9755 -10813.6365 -8721.4796 300.7209 58.3662 58.2350 290341.6219 0.4009 0.4519
ENERGY: 2000 0.5213 1.8169 0.0000 0.0000 -12342.9344 1395.1374 0.0000 0.0000 2097.4675 -8847.9914 297.1129 -10945.4589 -8844.4612 297.3974 40.4203 39.9387 309562.6443 1.8708 1.8622
ENERGY: 3000 0.4407 1.1087 0.0000 0.0000 -12159.7119 1283.2842 0.0000 0.0000 2066.6624 -8808.2159 292.7493 -10874.8783 -8804.4855 295.1936 -24.6176 -24.1917 310666.8377 0.0004 0.0407
ENERGY: 4000 0.5121 1.0674 0.0000 0.0000 -12120.0921 1224.8924 0.0000 0.0000 2064.9920 -8828.6281 292.5127 -10893.6201 -8823.7094 294.5475 -69.6201 -69.7530 312653.5384 -0.6651 -0.6932
ENERGY: 5000 0.6583 1.3888 0.0000 0.0000 -12131.1564 1294.2525 0.0000 0.0000 2054.5121 -8780.3448 291.0282 -10834.8569 -8776.7643 297.8629 4.8937 5.2848 300129.2104 0.3461 0.3467
TCL: Running FEP window   9: Lambda1 0.5    Lambda2 0.4375 [dLambda -0.0625]
TCL: Setting parameter firsttimestep to 0
TCL: Setting parameter alchLambda to 0.5
Info: NONBONDED TABLE R-SQUARED SPACING: 0.0625
Info: NONBONDED TABLE SIZE: 769 POINTS
TCL: Setting parameter alchLambda2 to 0.4375
Info: NONBONDED TABLE R-SQUARED SPACING: 0.0625
Info: NONBONDED TABLE SIZE: 769 POINTS
TCL: Running for 5000 steps
ETITLE: TS BOND ANGLE DIHED IMPRP ELECT VDW BOUNDARY MISC KINETIC TOTAL TEMP POTENTIAL TOTAL3 TEMPAVG PRESSURE GPRESSURE VOLUME PRESSAVG GPRESSAVG
ENERGY: 0 0.6583 1.3888 0.0000 0.0000 -12131.0488 1294.6863 0.0000 0.0000 2054.4452 -8779.8702 291.0187 -10834.3155 -8775.9853 291.0187 5.2139 5.1486 300129.2104 5.2139 5.1486
ENERGY: 1000 0.4059 1.4545 0.0000 0.0000 -12201.7779 1347.2293 0.0000 0.0000 2098.5922 -8754.0960 297.2722 -10852.6882 -8750.7165 299.8617 36.6430 35.5343 296858.2548 1.8139 1.7727
ENERGY: 2000 0.0506 0.8722 0.0000 0.0000 -11999.7687 1216.1643 0.0000 0.0000 2100.5704 -8682.1111 297.5525 -10782.6816 -8678.0935 299.1383 -64.7402 -64.3150 299961.7125 4.0629 4.0209
ENERGY: 3000 0.0537 1.4185 0.0000 0.0000 -12329.4376 1417.8087 0.0000 0.0000 2136.2687 -8773.8881 302.6092 -10910.1568 -8770.4109 299.7167 99.6492 99.6532 299387.9321 0.3742 0.4170
ENERGY: 4000 0.4956 1.7545 0.0000 0.0000 -12200.9199 1356.2555 0.0000 0.0000 2086.6646 -8755.7496 295.5827 -10842.4141 -8752.6324 298.4497 53.6797 53.1222 300448.4890 1.8421 1.8569
ENERGY: 5000 0.1098 0.6307 0.0000 0.0000 -12066.6493 1275.2218 0.0000 0.0000 2101.9247 -8688.7624 297.7443 -10790.6870 -8685.9789 301.9519 -0.8210 -1.3825 303846.8637 3.2113 3.2231
TCL: Running FEP window  10: Lambda1 0.4375 Lambda2 0.375  [dLambda -0.0625]
TCL: Setting parameter firsttimestep to 0
TCL: Setting parameter alchLambda to 0.4375
Info: NONBONDED TABLE R-SQUARED SPACING: 0.0625
Info: NONBONDED TABLE SIZE: 769 POINTS
TCL: Setting parameter alchLambda2 to 0.375
Info: NONBONDED TABLE R-SQUARED SPACING: 0.0625
Info: NONBONDED TABLE SIZE: 769 POINTS
TCL: Running for 5000 steps
ETITLE: TS BOND ANGLE DIHED IMPRP ELECT VDW BOUNDARY MISC KINETIC TOTAL TEMP POTENTIAL TOTAL3 TEMPAVG PRESSURE GPRESSURE VOLUME PRESSAVG GPRESSAVG
ENERGY: 0 0.1098 0.6307 0.0000 0.0000 -12066.6493 1274.8608 0.0000 0.0000 2101.8662 -8689.1818 297.7360 -10791.0480 -8685.0024 297.7360 -2.3896 -2.3877 303846.8637 -2.3896 -2.3877
ENERGY: 1000 1.1500 1.7368 0.0000 0.0000 -12160.9149 1416.2623 0.0000 0.0000 2120.3998 -8621.3660 300.3614 -10741.7658 -8616.5193 303.8535 102.5067 103.3892 316921.8708 2.7078 2.7204
ENERGY: 2000 0.4720 1.6638 0.0000 0.0000 -12025.6862 1253.2112 0.0000 0.0000 2069.9593 -8700.3799 293.2163 -10770.3392 -8699.4841 302.2762 -15.8849 -17.2877 326592.0771 1.8817 1.8857
ENERGY: 3000 0.1486 3.3103 0.0000 0.0000 -12020.9068 1250.6296 0.0000 0.0000 2124.6443 -8642.1740 300.9626 -10766.8183 -8637.8003 300.7008 -33.4402 -33.6620 335566.0048 0.4561 0.4722
ENERGY: 4000 0.0265 2.8551 0.0000 0.0000 -12162.7284 1304.6142 0.0000 0.0000 2159.2485 -8695.9842 305.8644 -10855.2326 -8691.6910 301.7159 20.2813 19.6053 336404.1742 1.6147 1.6668
ENERGY: 5000 0.0453 1.3737 0.0000 0.0000 -12053.1603 1212.4065 0.0000 0.0000 2136.3316 -8703.0032 302.6182 -10839.3348 -8699.2178 301.3642 -45.6649 -45.7985 342891.6714 1.7525 1.7798
TCL: Running FEP window  11: Lambda1 0.375  Lambda2 0.3125 [dLambda -0.0625]
TCL: Setting parameter firsttimestep to 0
TCL: Setting parameter alchLambda to 0.375
Info: NONBONDED TABLE R-SQUARED SPACING: 0.0625
Info: NONBONDED TABLE SIZE: 769 POINTS
TCL: Setting parameter alchLambda2 to 0.3125
Info: NONBONDED TABLE R-SQUARED SPACING: 0.0625
Info: NONBONDED TABLE SIZE: 769 POINTS
TCL: Running for 5000 steps
ETITLE: TS BOND ANGLE DIHED IMPRP ELECT VDW BOUNDARY MISC KINETIC TOTAL TEMP POTENTIAL TOTAL3 TEMPAVG PRESSURE GPRESSURE VOLUME PRESSAVG GPRESSAVG
ENERGY: 0 0.0453 1.3737 0.0000 0.0000 -12053.1603 1213.0155 0.0000 0.0000 2136.2669 -8702.4589 302.6090 -10838.7258 -8697.9990 302.6090 -45.7829 -45.7552 342891.6714 -45.7829 -45.7552
ENERGY: 1000 0.5541 1.2719 0.0000 0.0000 -12140.9902 1312.8124 0.0000 0.0000 2091.5118 -8734.8399 296.2693 -10826.3517 -8731.2543 297.0568 9.2049 8.9204 347779.4394 2.5389 2.5448
ENERGY: 2000 0.4504 1.5831 0.0000 0.0000 -12135.4305 1293.6504 0.0000 0.0000 2053.3831 -8786.3636 290.8682 -10839.7467 -8782.0711 297.5116 0.9006 1.6466 326402.8435 1.7056 1.6931
ENERGY: 3000 0.1976 0.4144 0.0000 0.0000 -12341.3634 1360.7299 0.0000 0.0000 2120.8559 -8859.1656 300.4260 -10980.0216 -8856.2171 296.0235 21.2847 20.9133 327816.6081 -0.7554 -0.7509
ENERGY: 4000 0.3310 1.8682 0.0000 0.0000 -12238.5744 1278.6458 0.0000 0.0000 2055.9518 -8901.7776 291.2321 -10957.7294 -8898.0014 292.0036 -11.8710 -11.8988 329136.7360 3.2451 3.2339
ENERGY: 5000 0.2856 0.6530 0.0000 0.0000 -12246.8755 1278.7130 0.0000 0.0000 2076.9317 -8890.2922 294.2040 -10967.2239 -8888.2240 293.5157 -11.5944 -11.1608 316613.4043 -0.6556 -0.6346
TCL: Running FEP window  12: Lambda1 0.3125 Lambda2 0.25   [dLambda -0.0625]
TCL: Setting parameter firsttimestep to 0
TCL: Setting parameter alchLambda to 0.3125
Info: NONBONDED TABLE R-SQUARED SPACING: 0.0625
Info: NONBONDED TABLE SIZE: 769 POINTS
TCL: Setting parameter alchLambda2 to 0.25
Info: NONBONDED TABLE R-SQUARED SPACING: 0.0625
Info: NONBONDED TABLE SIZE: 769 POINTS
TCL: Running for 5000 steps
ETITLE: TS BOND ANGLE DIHED IMPRP ELECT VDW BOUNDARY MISC KINETIC TOTAL TEMP POTENTIAL TOTAL3 TEMPAVG PRESSURE GPRESSURE VOLUME PRESSAVG GPRESSAVG
ENERGY: 0 0.2856 0.6530 0.0000 0.0000 -12246.8755 1278.8940 0.0000 0.0000 2076.8621 -8890.1808 294.1941 -10967.0429 -8886.3067 294.1941 -11.4391 -11.3777 316613.4043 -11.4391 -11.3777
ENERGY: 1000 0.6418 1.1187 0.0000 0.0000 -12432.8585 1434.0626 0.0000 0.0000 2049.4704 -8947.5650 290.3140 -10997.0354 -8943.4141 292.1946 93.6224 94.8629 307068.3109 2.4255 2.4756
ENERGY: 2000 0.3688 1.5282 0.0000 0.0000 -12315.9218 1296.4060 0.0000 0.0000 2141.6615 -8875.9574 303.3731 -11017.6189 -8873.0136 293.8327 -29.1578 -29.8283 314006.8430 -1.6149 -1.6220
ENERGY: 3000 0.3358 1.1695 0.0000 0.0000 -12211.5781 1277.8644 0.0000 0.0000 2081.6140 -8850.5944 294.8672 -10932.2084 -8847.4671 293.9806 -55.8080 -56.9439 320198.6088 -2.6275 -2.6065
ENERGY: 4000 0.4575 0.5280 0.0000 0.0000 -12259.2683 1307.9334 0.0000 0.0000 2094.1496 -8856.1998 296.6429 -10950.3494 -8852.7393 293.4591 -22.1709 -21.8550 314684.9683 -1.3424 -1.3357
ENERGY: 5000 0.0180 1.3735 0.0000 0.0000 -12296.0478 1320.6289 0.0000 0.0000 2044.3636 -8929.6638 289.5906 -10974.0274 -8926.5218 292.5889 4.2693 3.9000 306803.7774 0.4940 0.4110
TCL: Running FEP window  13: Lambda1 0.25   Lambda2 0.1875 [dLambda -0.0625]
TCL: Setting parameter firsttimestep to 0
TCL: Setting parameter alchLambda to 0.25
Info: NONBONDED TABLE R-SQUARED SPACING: 0.0625
Info: NONBONDED TABLE SIZE: 769 POINTS
TCL: Setting parameter alchLambda2 to 0.1875
Info: NONBONDED TABLE R-SQUARED SPACING: 0.0625
Info: NONBONDED TABLE SIZE: 769 POINTS
TCL: Running for 5000 steps
ETITLE: TS BOND ANGLE DIHED IMPRP ELECT VDW BOUNDARY MISC KINETIC TOTAL TEMP POTENTIAL TOTAL3 TEMPAVG PRESSURE GPRESSURE VOLUME PRESSAVG GPRESSAVG
ENERGY: 0 0.0180 1.3735 0.0000 0.0000 -12296.0478 1320.6936 0.0000 0.0000 2044.3011 -8929.6616 289.5817 -10973.9627 -8926.0100 289.5817 3.8058 3.8038 306803.7774 3.8058 3.8038
ENERGY: 1000 0.1452 1.2234 0.0000 0.0000 -12374.0007 1385.9315 0.0000 0.0000 2085.1076 -8901.5931 295.3621 -10986.7007 -8896.0037 294.7205 64.6251 64.6276 313468.5477 -0.2786 -0.3087
ENERGY: 2000 0.2230 1.1318 0.0000 0.0000 -12146.0090 1272.7176 0.0000 0.0000 2087.8040 -8784.1326 295.7441 -10871.9366 -8780.0174 295.8210 -25.5621 -25.4329 320267.4109 2.2349 2.2568
ENERGY: 3000 0.5580 1.4527 0.0000 0.0000 -12309.0620 1377.0506 0.0000 0.0000 2104.5178 -8825.4829 298.1116 -10930.0008 -8822.2933 296.1225 57.8963 57.7169 320158.2684 1.6427 1.6446
ENERGY: 4000 1.6391 1.5392 0.0000 0.0000 -12185.2392 1263.2289 0.0000 0.0000 2102.9797 -8815.8523 297.8937 -10918.8320 -8810.8651 296.5867 -52.3403 -51.6634 315945.2891 -0.8656 -0.8469
ENERGY: 5000 0.4871 3.8462 0.0000 0.0000 -12240.8415 1298.4844 0.0000 0.0000 2122.6669 -8815.3569 300.6825 -10938.0238 -8811.2047 293.3727 -5.7247 -6.2711 307725.5944 1.3459 1.2876
TCL: Running FEP window  14: Lambda1 0.1875 Lambda2 0.125  [dLambda -0.0625]
TCL: Setting parameter firsttimestep to 0
TCL: Setting parameter alchLambda to 0.1875
Info: NONBONDED TABLE R-SQUARED SPACING: 0.0625
Info: NONBONDED TABLE SIZE: 769 POINTS
TCL: Setting parameter alchLambda2 to 0.125
Info: NONBONDED TABLE R-SQUARED SPACING: 0.0625
Info: NONBONDED TABLE SIZE: 769 POINTS
TCL: Running for 5000 steps
ETITLE: TS BOND ANGLE DIHED IMPRP ELECT VDW BOUNDARY MISC KINETIC TOTAL TEMP POTENTIAL TOTAL3 TEMPAVG PRESSURE GPRESSURE VOLUME PRESSAVG GPRESSAVG
ENERGY: 0 0.4871 3.8462 0.0000 0.0000 -12240.8415 1298.4877 0.0000 0.0000 2122.6036 -8815.4169 300.6735 -10938.0205 -8811.7248 300.6735 -6.2511 -6.1967 307725.5944 -6.2511 -6.1967
ENERGY: 1000 1.4015 1.3959 0.0000 0.0000 -12096.2967 1233.6663 0.0000 0.0000 2062.6345 -8797.1984 292.1787 -10859.8329 -8792.2289 297.3089 -40.9108 -40.5062 297422.9492 0.9992 0.9742
ENERGY: 2000 0.3950 2.5712 0.0000 0.0000 -12212.0525 1310.5603 0.0000 0.0000 2094.0800 -8804.4460 296.6331 -10898.5260 -8799.7748 297.2043 3.1832 2.7132 292913.2455 -0.1089 -0.1565
ENERGY: 3000 0.5526 2.2614 0.0000 0.0000 -12269.8502 1335.4817 0.0000 0.0000 2084.7904 -8846.7641 295.3172 -10931.5545 -8844.3223 295.6933 -0.7285 -0.6032 285689.2847 6.1763 6.1949
ENERGY: 4000 0.9529 1.4594 0.0000 0.0000 -12197.3853 1331.2555 0.0000 0.0000 2063.8399 -8799.8776 292.3495 -10863.7175 -8796.6679 295.3899 -8.9252 -9.0922 288106.0376 -2.4643 -2.4867
ENERGY: 5000 0.7855 3.4781 0.0000 0.0000 -12287.9748 1334.4167 0.0000 0.0000 2163.2490 -8786.0454 306.4311 -10949.2944 -8781.7863 297.0996 48.2091 49.4241 287502.6585 2.7934 2.8057
TCL: Running FEP window  15: Lambda1 0.125  Lambda2 0.0625 [dLambda -0.0625]
TCL: Setting parameter firsttimestep to 0
TCL: Setting parameter alchLambda to 0.125
Info: NONBONDED TABLE R-SQUARED SPACING: 0.0625
Info: NONBONDED TABLE SIZE: 769 POINTS
TCL: Setting parameter alchLambda2 to 0.0625
Info: NONBONDED TABLE R-SQUARED SPACING: 0.0625
Info: NONBONDED TABLE SIZE: 769 POINTS
TCL: Running for 5000 steps
ETITLE: TS BOND ANGLE DIHED IMPRP ELECT VDW BOUNDARY MISC KINETIC TOTAL TEMP POTENTIAL TOTAL3 TEMPAVG PRESSURE GPRESSURE VOLUME PRESSAVG GPRESSAVG
ENERGY: 0 0.7855 3.4781 0.0000 0.0000 -12287.9748 1334.5149 0.0000 0.0000 2163.1874 -8786.0089 306.4223 -10949.1963 -8782.3847 306.4223 49.2892 49.5575 287502.6585 49.2892 49.5575
ENERGY: 1000 0.6186 3.8531 0.0000 0.0000 -12087.9723 1259.0697 0.0000 0.0000 2057.2800 -8767.1509 291.4202 -10824.4309 -8764.0050 298.8073 12.4704 11.1380 280994.1534 1.9255 1.8889
ENERGY: 2000 1.0542 0.7540 0.0000 0.0000 -12212.2610 1255.8683 0.0000 0.0000 2058.3272 -8896.2573 291.5686 -10954.5845 -8890.5826 295.2351 -54.5823 -53.5881 274453.2281 2.0515 2.0375
ENERGY: 3000 0.4189 3.0387 0.0000 0.0000 -12280.4882 1308.9847 0.0000 0.0000 2053.6640 -8914.3818 290.9080 -10968.0458 -8909.0960 293.4356 13.5876 13.0506 267770.3786 -0.6111 -0.6036
ENERGY: 4000 0.1513 1.8923 0.0000 0.0000 -12347.9041 1394.9491 0.0000 0.0000 2122.6302 -8828.2811 300.6773 -10950.9114 -8825.8414 296.6783 114.2995 114.1250 261323.7091 3.0809 3.0967
ENERGY: 5000 1.2281 1.6329 0.0000 0.0000 -12313.3593 1376.5927 0.0000 0.0000 2067.7016 -8866.2041 292.8965 -10933.9056 -8862.3502 291.4457 41.1426 40.7450 257085.6988 -0.0647 -0.0460
TCL: Running FEP window  16: Lambda1 0.0625 Lambda2 0.0    [dLambda -0.0625]
TCL: Setting parameter firsttimestep to 0
TCL: Setting parameter alchLambda to 0.0625
Info: NONBONDED TABLE R-SQUARED SPACING: 0.0625
Info: NONBONDED TABLE SIZE: 769 POINTS
TCL: Setting parameter alchLambda2 to 0.0
Info: NONBONDED TABLE R-SQUARED SPACING: 0.0625
Info: NONBONDED TABLE SIZE: 769 POINTS
TCL: Running for 5000 steps
ETITLE: TS BOND ANGLE DIHED IMPRP ELECT VDW BOUNDARY MISC KINETIC TOTAL TEMP POTENTIAL TOTAL3 TEMPAVG PRESSURE GPRESSURE VOLUME PRESSAVG GPRESSAVG
ENERGY: 0 1.2281 1.6329 0.0000 0.0000 -12313.3593 1376.8599 0.0000 0.0000 2067.6331 -8866.0053 292.8868 -10933.6384 -8862.2152 292.8868 40.4469 40.6136 257085.6988 40.4469 40.6136
ENERGY: 1000 1.1363 2.4581 0.0000 0.0000 -12145.5582 1212.2287 0.0000 0.0000 2127.9005 -8801.8346 301.4239 -10929.7350 -8797.9724 296.9529 -52.7013 -53.0407 255567.0208 2.7881 2.7257
ENERGY: 2000 1.3206 0.6148 0.0000 0.0000 -12095.8440 1232.2399 0.0000 0.0000 2074.1583 -8787.5105 293.8111 -10861.6688 -8786.4219 298.2589 -49.6584 -50.2518 269089.2857 3.4091 3.4809
ENERGY: 3000 0.0189 1.2193 0.0000 0.0000 -12086.8378 1195.9949 0.0000 0.0000 2077.9920 -8811.6127 294.3542 -10889.6047 -8808.5666 296.5555 -108.0140 -106.2769 273577.0828 1.6672 1.6673
ENERGY: 4000 1.2187 0.5194 0.0000 0.0000 -12286.9757 1355.8178 0.0000 0.0000 2029.0483 -8900.3715 287.4211 -10929.4198 -8896.7513 291.8087 36.2309 35.5916 279366.8560 1.8776 1.9097
ENERGY: 5000 0.0276 1.2406 0.0000 0.0000 -12234.6645 1290.0766 0.0000 0.0000 2135.2369 -8808.0829 302.4631 -10943.3197 -8804.0552 297.9594 -23.8219 -24.9835 287508.0901 3.1938 3.1919
