Info: SIMULATION PARAMETERS:
Info: TIMESTEP               2
Info: NUMBER OF STEPS        0
Info: STEPS PER CYCLE        10
Info: PERIODIC CELL BASIS 1  39.546 0 0
Info: PERIODIC CELL BASIS 2  0 39.303 0
Info: PERIODIC CELL BASIS 3  0 0 38.617
Info: PERIODIC CELL CENTER   0 0 0
Info: WRAPPING WATERS AROUND PERIODIC BOUNDARIES ON OUTPUT.
Info: WRAPPING ALL CLUSTERS AROUND PERIODIC BOUNDARIES ON OUTPUT.
Info: FIRST LDB TIMESTEP     50
Info: LAST LDB TIMESTEP     -1
Info: HOM BACKGROUND SCALING 1
Info: PME BACKGROUND SCALING 1
Info: MIN ATOMS PER PATCH    40
Info: EMPTY PATCH LOAD       40 ATOMS
Info: INITIAL TEMPERATURE    300
Info: CENTER OF MASS MOVING INITIALLY? NO
Info: DIELECTRIC             1
Info: EXCLUDE                SCALED ONE-FOUR
Info: 1-4 ELECTROSTATICS SCALED BY 0.833333
Info: MODIFIED 1-4 VDW PARAMETERS WILL BE USED
Info: DCD FILENAME           mobley_4639255_min.dcd
Info: DCD FREQUENCY          5000
Info: DCD FIRST STEP         5000
Info: DCD FILE WILL CONTAIN UNIT CELL DATA
Info: XST FILENAME           mobley_4639255_min.xst
Info: XST FREQUENCY          5000
Info: NO VELOCITY DCD OUTPUT
Info: NO FORCE DCD OUTPUT
Info: OUTPUT FILENAME        mobley_4639255_min
Info: BINARY OUTPUT FILES WILL BE USED
Info: RESTART FILENAME       mobley_4639255_min.restart
Info: RESTART FREQUENCY      5000
Info: BINARY RESTART FILES WILL BE USED
Info: CUTOFF                 9
Info: PAIRLIST DISTANCE      11
Info: PAIRLIST SHRINK RATE   0.01
Info: PAIRLIST GROW RATE     0.01
Info: PAIRLIST TRIGGER       0.3
Info: PAIRLISTS PER CYCLE    2
Info: PAIRLISTS ENABLED
Info: MARGIN                 8
Info: HYDROGEN GROUP CUTOFF  2.5
Info: PATCH DIMENSION        21.5
Info: ENERGY OUTPUT STEPS    5000
Info: ENERGY EVALUATION STEPS    5000
Info: OUTPUT ENERGY PRECISION 4
Info: CROSSTERM ENERGY INCLUDED IN DIHEDRAL
Info: TIMING OUTPUT STEPS    50000
Info: PRESSURE OUTPUT STEPS  5000
Info: LANGEVIN DYNAMICS ACTIVE
Info: LANGEVIN TEMPERATURE   300
Info: LANGEVIN USING BBK INTEGRATOR
Info: LANGEVIN DAMPING COEFFICIENT IS 1 INVERSE PS
Info: LANGEVIN DYNAMICS APPLIED TO HYDROGENS
Info: LANGEVIN PISTON PRESSURE CONTROL ACTIVE
Info:        TARGET PRESSURE IS 1.01325 BAR
Info:     OSCILLATION PERIOD IS 50 FS
Info:             DECAY TIME IS 25 FS
Info:     PISTON TEMPERATURE IS 300 K
Info:       PRESSURE CONTROL IS GROUP-BASED
Info:    INITIAL STRAIN RATE IS 0 0 0
Info:       CELL FLUCTUATION IS ISOTROPIC
Info: PARTICLE MESH EWALD (PME) ACTIVE
Info: PME TOLERANCE               1e-06
Info: PME EWALD COEFFICIENT       0.348832
Info: PME INTERPOLATION ORDER     4
Info: PME GRID DIMENSIONS         40 40 40
Info: PME MAXIMUM GRID SPACING    1
Info: FULL ELECTROSTATIC EVALUATION FREQUENCY      2
Info: USING VERLET I (r-RESPA) MTS SCHEME.
Info: C1 SPLITTING OF LONG RANGE ELECTROSTATICS
Info: PLACING ATOMS IN PATCHES BY HYDROGEN GROUPS
Info: RIGID BONDS TO HYDROGEN : ALL
Info:         ERROR TOLERANCE : 1e-08
Info:          MAX ITERATIONS : 100
Info: RIGID WATER USING SETTLE ALGORITHM
Info: RANDOM NUMBER SEED     1741334976
Info: USE HYDROGEN BONDS?    NO
Info: Using AMBER format force field!
Info: AMBER PARM FILE        mobley_4639255.prmtop
Info: COORDINATE PDB         mobley_4639255.pdb
Info: Exclusions will be read from PARM file!
Info: SCNB (VDW SCALING)     2
Info: USING ARITHMETIC MEAN TO COMBINE L-J SIGMA PARAMETERS
Info: SUMMARY OF PARAMETERS:
Info: 6 BONDS
Info: 5 ANGLES
Info:   5 HARMONIC
Info:   0 COSINE-BASED
Info: 7 DIHEDRAL
Info: 0 IMPROPER
Info: 0 CROSSTERM
Info: 0 VDW
Info: 21 VDW_PAIRS
Info: 0 NBTHOLE_PAIRS
Info: STRUCTURE SUMMARY:
Info: 4312 ATOMS
Info: 4311 BONDS
Info: 14 ANGLES
Info: 20 DIHEDRALS
Info: 0 IMPROPERS
Info: 0 CROSSTERMS
Info: 4340 EXCLUSIONS
Info: 4308 RIGID BONDS
Info: 8628 DEGREES OF FREEDOM
Info: 1438 HYDROGEN GROUPS
Info: 3 ATOMS IN LARGEST HYDROGEN GROUP
Info: 1438 MIGRATION GROUPS
Info: 3 ATOMS IN LARGEST MIGRATION GROUP
Info: TOTAL MASS = 25897 amu
Info: TOTAL CHARGE = -0.000199959 e
Info: MASS DENSITY = 0.716477 g/cm^3
Info: ATOM DENSITY = 0.0718409 atoms/A^3
Info: ADDED 0 IMPLICIT EXCLUSIONS
Info: NONBONDED TABLE R-SQUARED SPACING: 0.0625
Info: NONBONDED TABLE SIZE: 705 POINTS
Info: REMOVING COM VELOCITY -0.104133 0.0147041 -0.0326798
TCL: Minimizing for 2000 steps
ETITLE: TS BOND ANGLE DIHED IMPRP ELECT VDW BOUNDARY MISC KINETIC TOTAL TEMP POTENTIAL TOTAL3 TEMPAVG PRESSURE GPRESSURE VOLUME PRESSAVG GPRESSAVG
ENERGY: 0 0.0842 0.4710 2.2602 0.0000 -13306.6452 1531.3964 0.0000 0.0000 0.0000 -11772.4334 0.0000 -11772.4334 -11772.4334 0.0000 10980.4941 -15526.9073 60021.4932 10980.4941 -15526.9073
ENERGY: 400 1.3848 1.7961 2.8114 0.0000 -18046.3094 2674.7282 0.0000 0.0000 0.0000 -15365.5889 0.0000 -15365.5889 -15365.5889 0.0000 15838.2756 15946.7579 60021.4932 15838.2756 15946.7579
ENERGY: 800 0.9377 0.8048 2.6236 0.0000 -18924.1233 3032.6811 0.0000 0.0000 0.0000 -15887.0761 0.0000 -15887.0761 -15887.0761 0.0000 17726.6840 17828.7943 60021.4932 17726.6840 17828.7943
ENERGY: 1200 5.1100 2.9148 3.0292 0.0000 -19427.5850 3265.3470 0.0000 0.0000 0.0000 -16151.1841 0.0000 -16151.1841 -16151.1841 0.0000 18985.6475 19077.0712 60021.4932 18985.6475 19077.0712
ENERGY: 1600 0.0807 0.2621 2.9938 0.0000 -19715.9220 3395.6646 0.0000 0.0000 0.0000 -16316.9208 0.0000 -16316.9208 -16316.9208 0.0000 19741.7153 19832.7066 60021.4932 19741.7153 19832.7066
ENERGY: 2000 0.1493 0.3207 2.6382 0.0000 -19836.8835 3454.8722 0.0000 0.0000 0.0000 -16378.9031 0.0000 -16378.9031 -16378.9031 0.0000 20099.4569 20185.0265 60021.4932 20099.4569 20185.0265
TCL: Exiting due to exit command.
Info: NAMD 3.0.1 for Linux-x86_64-multicore
Info: Please visit http://www.ks.uiuc.edu/Research/namd/
Info: for updates, documentation, and support information.
Info: Please cite Phillips et al., J. Chem. Phys. 153:044130 (2020) doi:10.1063/5.0014475
Info: in all publications reporting results obtained with NAMD.
Info: Based on Charm++/Converse 80000 for multicore-linux-x86_64-gcc
Info: Built Mon Oct 14 11:11:06 CDT 2024 by dhardy on athine.ks.uiuc.edu
Info: 1 NAMD  3.0.1  Linux-x86_64-multicore  16    k010  z5358697
Info: Running on 16 processors, 1 nodes, 1 physical nodes.
Info: CPU topology information available.
Info: Charm++/Converse parallel runtime startup completed at 0.00964531 s
Info: 1043.45 MB of memory in use based on /proc/self/stat
Info: Configuration file is mobley_4639255_equil.namd
Info: Working in the current directory /srv/scratch/z5358697/prod_prep_5/4639255
TCL: Running 25000 steps at 30 kelvin.
TCL: Suspending until startup complete.
Info: SIMULATION PARAMETERS:
Info: TIMESTEP               2
Info: NUMBER OF STEPS        0
Info: STEPS PER CYCLE        10
Info: PERIODIC CELL BASIS 1  39.546 0 0
Info: PERIODIC CELL BASIS 2  0 39.303 0
Info: PERIODIC CELL BASIS 3  0 0 38.617
Info: PERIODIC CELL CENTER   0 0 0
Info: WRAPPING WATERS AROUND PERIODIC BOUNDARIES ON OUTPUT.
Info: WRAPPING ALL CLUSTERS AROUND PERIODIC BOUNDARIES ON OUTPUT.
Info: FIRST LDB TIMESTEP     50
Info: LAST LDB TIMESTEP     -1
Info: HOM BACKGROUND SCALING 1
Info: PME BACKGROUND SCALING 1
Info: MIN ATOMS PER PATCH    40
Info: EMPTY PATCH LOAD       40 ATOMS
Info: INITIAL TEMPERATURE    300
Info: CENTER OF MASS MOVING INITIALLY? NO
Info: DIELECTRIC             1
Info: EXCLUDE                SCALED ONE-FOUR
Info: 1-4 ELECTROSTATICS SCALED BY 0.833333
Info: MODIFIED 1-4 VDW PARAMETERS WILL BE USED
Info: DCD FILENAME           mobley_4639255_equil.dcd
Info: DCD FREQUENCY          5000
Info: DCD FIRST STEP         5000
Info: DCD FILE WILL CONTAIN UNIT CELL DATA
Info: XST FILENAME           mobley_4639255_equil.xst
Info: XST FREQUENCY          5000
Info: NO VELOCITY DCD OUTPUT
Info: NO FORCE DCD OUTPUT
Info: OUTPUT FILENAME        mobley_4639255_equil
Info: BINARY OUTPUT FILES WILL BE USED
Info: RESTART FILENAME       mobley_4639255_equil.restart
Info: RESTART FREQUENCY      5000
Info: BINARY RESTART FILES WILL BE USED
Info: CUTOFF                 9
Info: PAIRLIST DISTANCE      11
Info: PAIRLIST SHRINK RATE   0.01
Info: PAIRLIST GROW RATE     0.01
Info: PAIRLIST TRIGGER       0.3
Info: PAIRLISTS PER CYCLE    2
Info: PAIRLISTS ENABLED
Info: MARGIN                 8
Info: HYDROGEN GROUP CUTOFF  2.5
Info: PATCH DIMENSION        21.5
Info: ENERGY OUTPUT STEPS    5000
Info: ENERGY EVALUATION STEPS    5000
Info: OUTPUT ENERGY PRECISION 4
Info: CROSSTERM ENERGY INCLUDED IN DIHEDRAL
Info: TIMING OUTPUT STEPS    50000
Info: PRESSURE OUTPUT STEPS  5000
Info: LANGEVIN DYNAMICS ACTIVE
Info: LANGEVIN TEMPERATURE   30
Info: LANGEVIN USING BBK INTEGRATOR
Info: LANGEVIN DAMPING COEFFICIENT IS 1 INVERSE PS
Info: LANGEVIN DYNAMICS APPLIED TO HYDROGENS
Info: LANGEVIN PISTON PRESSURE CONTROL ACTIVE
Info:        TARGET PRESSURE IS 1.01325 BAR
Info:     OSCILLATION PERIOD IS 50 FS
Info:             DECAY TIME IS 25 FS
Info:     PISTON TEMPERATURE IS 300 K
Info:       PRESSURE CONTROL IS GROUP-BASED
Info:    INITIAL STRAIN RATE IS 0 0 0
Info:       CELL FLUCTUATION IS ISOTROPIC
Info: PARTICLE MESH EWALD (PME) ACTIVE
Info: PME TOLERANCE               1e-06
Info: PME EWALD COEFFICIENT       0.348832
Info: PME INTERPOLATION ORDER     4
Info: PME GRID DIMENSIONS         40 40 40
Info: PME MAXIMUM GRID SPACING    1
Info: FULL ELECTROSTATIC EVALUATION FREQUENCY      2
Info: USING VERLET I (r-RESPA) MTS SCHEME.
Info: C1 SPLITTING OF LONG RANGE ELECTROSTATICS
Info: PLACING ATOMS IN PATCHES BY HYDROGEN GROUPS
Info: RIGID BONDS TO HYDROGEN : ALL
Info:         ERROR TOLERANCE : 1e-08
Info:          MAX ITERATIONS : 100
Info: RIGID WATER USING SETTLE ALGORITHM
Info: RANDOM NUMBER SEED     1741334992
Info: USE HYDROGEN BONDS?    NO
Info: Using AMBER format force field!
Info: AMBER PARM FILE        mobley_4639255.prmtop
Info: COORDINATE PDB         mobley_4639255.pdb
Info: Exclusions will be read from PARM file!
Info: SCNB (VDW SCALING)     2
Info: USING ARITHMETIC MEAN TO COMBINE L-J SIGMA PARAMETERS
Info: BINARY COORDINATES     mobley_4639255_min.coor
Info: SUMMARY OF PARAMETERS:
Info: 6 BONDS
Info: 5 ANGLES
Info: 7 DIHEDRAL
Info: 0 IMPROPER
Info: 0 CROSSTERM
Info: 0 VDW
Info: 21 VDW_PAIRS
Info: 0 NBTHOLE_PAIRS
Info: STRUCTURE SUMMARY:
Info: 4312 ATOMS
Info: 4311 BONDS
Info: 14 ANGLES
Info: 20 DIHEDRALS
Info: 0 IMPROPERS
Info: 0 CROSSTERMS
Info: 4340 EXCLUSIONS
Info: 4308 RIGID BONDS
Info: 8628 DEGREES OF FREEDOM
Info: 1438 HYDROGEN GROUPS
Info: 3 ATOMS IN LARGEST HYDROGEN GROUP
Info: 1438 MIGRATION GROUPS
Info: 3 ATOMS IN LARGEST MIGRATION GROUP
Info: TOTAL MASS = 25897 amu
Info: TOTAL CHARGE = -0.000199959 e
Info: MASS DENSITY = 0.716477 g/cm^3
Info: ATOM DENSITY = 0.0718409 atoms/A^3
Info: ADDED 0 IMPLICIT EXCLUSIONS
Info: NONBONDED TABLE R-SQUARED SPACING: 0.0625
Info: NONBONDED TABLE SIZE: 705 POINTS
Info: REMOVING COM VELOCITY -0.0975414 -0.227125 -0.183532
TCL: Running for 25000 steps
ETITLE: TS BOND ANGLE DIHED IMPRP ELECT VDW BOUNDARY MISC KINETIC TOTAL TEMP POTENTIAL TOTAL3 TEMPAVG PRESSURE GPRESSURE VOLUME PRESSAVG GPRESSAVG
ENERGY: 0 0.1493 0.3207 2.6382 0.0000 -19836.8835 3454.8722 0.0000 0.0000 2494.9360 -13883.9672 291.0313 -16378.9031 -13883.4999 291.0313 283.0226 317.0557 60021.4932 283.0226 317.0557
ENERGY: 5000 0.0250 0.3076 2.2909 0.0000 -20631.0233 3573.3802 0.0000 0.0000 266.6312 -16788.3885 31.1022 -17055.0196 -16788.0523 46.7983 -9.3175 37.3375 42298.4774 0.4823 0.5001
ENERGY: 10000 0.1480 0.4326 2.4704 0.0000 -20705.9279 3613.5392 0.0000 0.0000 257.9229 -16831.4147 30.0864 -17089.3377 -16830.8198 30.4085 96.0695 142.5195 42170.7859 3.2897 3.1739
ENERGY: 15000 0.0542 0.5201 2.3618 0.0000 -20637.4006 3542.9402 0.0000 0.0000 256.2656 -16835.2587 29.8931 -17091.5243 -16834.4238 30.0143 -293.8821 -238.0225 42207.1128 3.1646 3.0971
ENERGY: 20000 0.1558 0.7199 2.5242 0.0000 -20664.9893 3562.5640 0.0000 0.0000 253.3694 -16845.6560 29.5552 -17099.0254 -16844.8570 29.9350 -217.6332 -177.5429 42286.6811 5.3527 5.5301
ENERGY: 25000 0.1975 0.2904 2.2750 0.0000 -20615.9025 3510.3828 0.0000 0.0000 261.6305 -16841.1263 30.5189 -17102.7569 -16840.6059 30.0233 -553.9578 -496.2044 42281.1773 0.9479 0.7918
TCL: Running 25000 steps at 60 kelvin.
TCL: Setting parameter langevinTemp to 60
TCL: Running for 25000 steps
ETITLE: TS BOND ANGLE DIHED IMPRP ELECT VDW BOUNDARY MISC KINETIC TOTAL TEMP POTENTIAL TOTAL3 TEMPAVG PRESSURE GPRESSURE VOLUME PRESSAVG GPRESSAVG
ENERGY: 25000 0.1975 0.2904 2.2750 0.0000 -20615.9025 3510.3828 0.0000 0.0000 261.5005 -16841.2564 30.5037 -17102.7569 -16840.6444 30.5037 -546.6662 -496.3348 42281.1773 -546.6662 -496.3348
ENERGY: 30000 0.2358 0.4065 2.4518 0.0000 -20263.2973 3378.2449 0.0000 0.0000 521.6843 -16360.2739 60.8538 -16881.9582 -16358.8829 57.2727 -682.1458 -608.4782 42188.1294 6.6535 6.7529
ENERGY: 35000 0.6145 0.7794 2.3496 0.0000 -20462.7912 3515.6783 0.0000 0.0000 524.4546 -16418.9148 61.1770 -16943.3693 -16417.5459 60.6855 18.5023 76.4981 41817.5773 0.1798 -0.0879
ENERGY: 40000 0.4682 0.6410 2.2637 0.0000 -20461.6336 3473.7449 0.0000 0.0000 502.4069 -16482.1089 58.6052 -16984.5158 -16480.9532 60.0052 -309.7330 -254.4911 41777.7525 -0.9104 -1.0303
ENERGY: 45000 0.1880 0.6193 2.3241 0.0000 -20481.4685 3502.2571 0.0000 0.0000 515.9009 -16460.1791 60.1792 -16976.0800 -16458.9484 60.1880 -148.0101 -98.6518 41879.1148 -0.6848 -0.8317
ENERGY: 50000 0.0457 0.8626 2.4254 0.0000 -20611.8787 3608.3004 0.0000 0.0000 513.6039 -16486.6406 59.9113 -17000.2445 -16485.5572 60.1893 416.3880 457.5958 41788.8699 2.1710 2.1611
TCL: Running 25000 steps at 90 kelvin.
TCL: Setting parameter langevinTemp to 90
TCL: Running for 25000 steps
ETITLE: TS BOND ANGLE DIHED IMPRP ELECT VDW BOUNDARY MISC KINETIC TOTAL TEMP POTENTIAL TOTAL3 TEMPAVG PRESSURE GPRESSURE VOLUME PRESSAVG GPRESSAVG
ENERGY: 50000 0.0457 0.8626 2.4254 0.0000 -20611.8787 3608.3004 0.0000 0.0000 513.3586 -16486.8859 59.8827 -17000.2445 -16485.8074 59.8827 401.8749 457.5957 41788.8699 401.8749 457.5957
ENERGY: 55000 0.2451 0.8627 2.2949 0.0000 -20252.9898 3505.7552 0.0000 0.0000 768.8723 -15974.9596 89.6880 -16743.8319 -15973.3842 86.5276 585.4799 616.9122 41796.2679 0.9844 1.0343
ENERGY: 60000 0.1048 1.5744 2.4444 0.0000 -20267.2114 3468.3236 0.0000 0.0000 775.8907 -16018.8735 90.5067 -16794.7642 -16015.8328 90.0858 164.3860 219.3850 42010.1161 -1.2568 -0.8796
ENERGY: 65000 0.3570 1.4690 3.4945 0.0000 -20204.4062 3406.5676 0.0000 0.0000 776.1347 -16016.3834 90.5352 -16792.5181 -16014.3337 89.8810 -195.4498 -146.1406 42042.6361 1.5910 1.1956
ENERGY: 70000 0.6445 1.0060 3.1036 0.0000 -20145.4853 3334.5538 0.0000 0.0000 760.4635 -16045.7139 88.7071 -16806.1774 -16044.3356 90.4471 -671.8462 -571.0570 42204.6055 5.3508 5.6586
ENERGY: 75000 0.3197 1.5892 2.5623 0.0000 -20279.6115 3434.0555 0.0000 0.0000 769.3575 -16071.7273 89.7446 -16841.0847 -16069.8406 90.4171 -186.8058 -125.0231 42113.1896 2.4872 2.7336
TCL: Running 25000 steps at 120 kelvin.
TCL: Setting parameter langevinTemp to 120
TCL: Running for 25000 steps
ETITLE: TS BOND ANGLE DIHED IMPRP ELECT VDW BOUNDARY MISC KINETIC TOTAL TEMP POTENTIAL TOTAL3 TEMPAVG PRESSURE GPRESSURE VOLUME PRESSAVG GPRESSAVG
ENERGY: 75000 0.3197 1.5892 2.5623 0.0000 -20279.6115 3434.0555 0.0000 0.0000 768.9802 -16072.1045 89.7006 -16841.0847 -16070.5999 89.7006 -190.0940 -125.0855 42113.1896 -190.0940 -125.0855
ENERGY: 80000 0.7547 1.3387 2.4206 0.0000 -19969.8585 3415.8559 0.0000 0.0000 1030.1344 -15519.3541 120.1639 -16549.4886 -15516.2608 117.0619 483.3386 570.6680 42178.6646 1.0588 0.6639
ENERGY: 85000 0.2293 2.6244 3.2093 0.0000 -19985.7001 3431.9023 0.0000 0.0000 1018.9317 -15528.8031 118.8572 -16547.7348 -15525.8079 120.3171 623.8929 689.8960 42037.9447 -2.6716 -2.6331
ENERGY: 90000 0.2542 1.6451 2.6614 0.0000 -19695.1460 3111.6703 0.0000 0.0000 994.8404 -15584.0745 116.0469 -16578.9149 -15579.5804 120.0242 -1315.0120 -1264.4326 42439.1256 4.4165 4.6614
ENERGY: 95000 0.1535 1.1936 2.4972 0.0000 -19922.5102 3315.6108 0.0000 0.0000 1013.8029 -15589.2523 118.2589 -16603.0552 -15586.2441 120.0603 -172.7088 -136.2548 42207.0832 0.7557 0.8144
ENERGY: 100000 0.0396 0.6933 2.6940 0.0000 -20079.2088 3453.1102 0.0000 0.0000 1033.6616 -15589.0101 120.5754 -16622.6717 -15585.7625 120.1808 648.5423 741.7381 41833.3281 2.1239 2.5840
TCL: Running 25000 steps at 150 kelvin.
TCL: Setting parameter langevinTemp to 150
TCL: Running for 25000 steps
ETITLE: TS BOND ANGLE DIHED IMPRP ELECT VDW BOUNDARY MISC KINETIC TOTAL TEMP POTENTIAL TOTAL3 TEMPAVG PRESSURE GPRESSURE VOLUME PRESSAVG GPRESSAVG
ENERGY: 100000 0.0396 0.6933 2.6940 0.0000 -20079.2089 3453.1102 0.0000 0.0000 1033.1476 -15589.5241 120.5154 -16622.6717 -15588.1155 120.5154 676.9103 742.1813 41833.3281 676.9103 742.1813
ENERGY: 105000 0.4597 2.3499 2.8983 0.0000 -19397.3406 3103.5674 0.0000 0.0000 1288.1559 -14999.9094 150.2618 -16288.0653 -14995.5004 147.3707 -650.8572 -597.8362 42446.5179 6.3087 6.2896
ENERGY: 110000 0.3579 1.5090 2.7628 0.0000 -19596.7036 3265.0015 0.0000 0.0000 1277.9033 -15049.1690 149.0659 -16327.0723 -15045.4952 149.9201 207.2473 253.0530 42167.2465 3.2829 3.1858
ENERGY: 115000 0.5630 3.5046 3.0609 0.0000 -19608.8656 3287.4000 0.0000 0.0000 1283.1152 -15031.2218 149.6738 -16314.3370 -15027.6561 149.6436 398.9166 474.3193 41981.6795 0.3686 0.5975
ENERGY: 120000 1.4060 2.0233 2.7050 0.0000 -19554.5318 3194.9474 0.0000 0.0000 1302.8509 -15050.5991 151.9760 -16353.4501 -15045.5137 151.4304 -214.6511 -136.5482 41929.2011 6.3919 5.8981
ENERGY: 125000 1.0179 1.4509 3.4217 0.0000 -19565.2115 3206.3039 0.0000 0.0000 1299.3662 -15053.6507 151.5695 -16353.0169 -15050.8602 151.1137 -168.2553 -120.1242 42231.5131 0.0272 0.1504
TCL: Running 50000 steps at 180 kelvin.
TCL: Setting parameter langevinTemp to 180
TCL: Running for 50000 steps
ETITLE: TS BOND ANGLE DIHED IMPRP ELECT VDW BOUNDARY MISC KINETIC TOTAL TEMP POTENTIAL TOTAL3 TEMPAVG PRESSURE GPRESSURE VOLUME PRESSAVG GPRESSAVG
ENERGY: 125000 1.0179 1.4509 3.4217 0.0000 -19565.2115 3206.3039 0.0000 0.0000 1298.7223 -15054.2946 151.4944 -16353.0169 -15052.0990 151.4944 -182.7246 -119.7805 42231.5131 -182.7246 -119.7805
ENERGY: 135000 0.1770 2.5778 2.6378 0.0000 -19156.5240 3111.9173 0.0000 0.0000 1523.2764 -14515.9376 177.6884 -16039.2141 -14512.4091 179.9047 177.3522 254.9152 41998.1624 1.9368 1.3739
ENERGY: 145000 0.7522 1.9300 3.2395 0.0000 -19128.4077 3104.5206 0.0000 0.0000 1533.6317 -14484.3337 178.8963 -16017.9654 -14480.8458 179.3777 -22.9540 20.5046 42371.9752 10.9345 10.6436
ENERGY: 155000 1.8256 2.0184 2.8400 0.0000 -19310.8023 3243.9272 0.0000 0.0000 1534.6966 -14525.4946 179.0205 -16060.1911 -14521.1838 179.7736 890.5635 976.1560 41604.4390 2.2259 1.9699
ENERGY: 165000 0.8047 1.5318 2.6446 0.0000 -19073.1271 3014.4045 0.0000 0.0000 1580.8341 -14472.9074 184.4024 -16053.7416 -14468.7766 180.2014 -361.0019 -327.5466 42178.4792 0.2612 0.4289
ENERGY: 175000 0.9683 2.6961 3.1508 0.0000 -19133.5730 3055.3728 0.0000 0.0000 1509.2668 -14562.1181 176.0542 -16071.3849 -14559.1005 181.0178 -314.9688 -206.7662 41949.5344 8.3514 8.3728
TCL: Running 50000 steps at 210 kelvin.
TCL: Setting parameter langevinTemp to 210
TCL: Running for 50000 steps
ETITLE: TS BOND ANGLE DIHED IMPRP ELECT VDW BOUNDARY MISC KINETIC TOTAL TEMP POTENTIAL TOTAL3 TEMPAVG PRESSURE GPRESSURE VOLUME PRESSAVG GPRESSAVG
ENERGY: 175000 0.9683 2.6961 3.1508 0.0000 -19133.5730 3055.3728 0.0000 0.0000 1508.4854 -14562.8996 175.9630 -16071.3849 -14559.8722 175.9630 -276.5419 -205.7469 41949.5344 -276.5419 -205.7469
ENERGY: 185000 0.2893 1.9321 2.5747 0.0000 -18117.3494 2741.8668 0.0000 0.0000 1816.7539 -13553.9327 211.9221 -15370.6865 -13547.5577 208.8179 -268.6493 -205.1506 42337.9621 3.1783 2.9800
ENERGY: 195000 0.4148 1.5771 2.8739 0.0000 -18081.9584 2704.2999 0.0000 0.0000 1825.7314 -13547.0613 212.9694 -15372.7927 -13543.3811 209.7717 -554.1892 -470.2221 42375.8743 1.9573 1.6312
ENERGY: 205000 0.2849 2.8276 2.4660 0.0000 -18273.1640 2851.8179 0.0000 0.0000 1783.6931 -13632.0746 208.0656 -15415.7677 -13627.5176 208.5867 677.9923 676.8797 41474.1947 5.2912 5.6550
ENERGY: 215000 1.5614 4.4690 2.8730 0.0000 -18091.7194 2690.9277 0.0000 0.0000 1819.1511 -13572.7371 212.2018 -15391.8882 -13568.3995 210.3983 -650.6602 -573.9204 42229.6200 1.9857 1.6596
ENERGY: 225000 0.3837 3.4488 2.8254 0.0000 -18146.5361 2772.6059 0.0000 0.0000 1800.7808 -13566.4914 210.0589 -15367.2723 -13562.8705 210.6864 0.7343 95.9665 42031.6924 1.3899 2.1057
TCL: Running 50000 steps at 240 kelvin.
TCL: Setting parameter langevinTemp to 240
TCL: Running for 50000 steps
ETITLE: TS BOND ANGLE DIHED IMPRP ELECT VDW BOUNDARY MISC KINETIC TOTAL TEMP POTENTIAL TOTAL3 TEMPAVG PRESSURE GPRESSURE VOLUME PRESSAVG GPRESSAVG
ENERGY: 225000 0.3837 3.4488 2.8254 0.0000 -18146.5361 2772.6059 0.0000 0.0000 1799.8638 -13567.4085 209.9519 -15367.2723 -13564.3400 209.9519 19.9500 96.3347 42031.6924 19.9500 96.3347
ENERGY: 235000 1.5546 6.3600 3.0457 0.0000 -17330.0978 2506.3815 0.0000 0.0000 2069.7441 -12743.0118 241.4332 -14812.7560 -12738.8147 237.7607 -348.7965 -291.7878 42583.0235 4.2662 4.3520
ENERGY: 245000 1.8513 2.6061 3.1869 0.0000 -17106.1231 2424.6372 0.0000 0.0000 2094.6808 -12579.1607 244.3420 -14673.8415 -12573.3538 240.5470 -319.2716 -244.1062 42210.9935 3.8936 4.6457
ENERGY: 255000 0.2848 3.9992 3.1743 0.0000 -17445.7366 2571.1379 0.0000 0.0000 2046.0894 -12821.0508 238.6739 -14867.1402 -12819.7916 239.3482 106.1239 199.6188 42222.2897 1.0471 0.8695
ENERGY: 265000 0.6412 2.4676 2.6691 0.0000 -17164.4954 2438.5715 0.0000 0.0000 2066.2326 -12653.9133 241.0235 -14720.1460 -12649.2281 240.1033 -322.3216 -282.6151 42424.4391 2.9333 2.6040
ENERGY: 275000 0.4060 2.2429 3.0718 0.0000 -17152.3338 2403.3028 0.0000 0.0000 2069.7570 -12673.5533 241.4347 -14743.3103 -12667.3742 241.8261 -769.1697 -676.4249 42708.6145 -0.7431 -0.3005
TCL: Running 50000 steps at 270 kelvin.
TCL: Setting parameter langevinTemp to 270
TCL: Running for 50000 steps
ETITLE: TS BOND ANGLE DIHED IMPRP ELECT VDW BOUNDARY MISC KINETIC TOTAL TEMP POTENTIAL TOTAL3 TEMPAVG PRESSURE GPRESSURE VOLUME PRESSAVG GPRESSAVG
ENERGY: 275000 0.4060 2.2429 3.0718 0.0000 -17152.3338 2403.3028 0.0000 0.0000 2068.7256 -12674.5847 241.3143 -14743.3103 -12670.6315 241.3143 -762.7465 -675.3506 42708.6145 -762.7465 -675.3506
ENERGY: 285000 0.3532 1.5924 2.8925 0.0000 -16389.4850 2226.9352 0.0000 0.0000 2361.4034 -11796.3083 275.4549 -14157.7117 -11790.7074 269.5543 -450.4227 -332.1211 43172.0548 6.7245 6.3033
ENERGY: 295000 0.4805 2.7443 3.4258 0.0000 -16340.0227 2218.5099 0.0000 0.0000 2319.9077 -11794.9545 270.6144 -14114.8622 -11789.3031 271.7018 -428.7719 -319.9047 43254.4369 2.6411 2.0685
ENERGY: 305000 0.6840 3.0357 2.9466 0.0000 -16444.6113 2321.6073 0.0000 0.0000 2338.7468 -11777.5908 272.8120 -14116.3376 -11773.6531 271.4949 88.0711 134.7950 43365.2628 -0.8604 -0.4041
ENERGY: 315000 1.0489 2.8195 2.5531 0.0000 -16344.0079 2166.5407 0.0000 0.0000 2388.0893 -11782.9565 278.5677 -14171.0458 -11776.9775 269.6385 -847.4382 -758.6260 43521.0840 3.3022 3.1646
ENERGY: 325000 1.4850 2.6091 2.4600 0.0000 -16435.7871 2452.1495 0.0000 0.0000 2298.9439 -11678.1395 268.1690 -13977.0834 -11673.1991 271.3050 1038.9592 1121.8822 43314.2877 6.4991 7.0546
TCL: Running 1000000 steps at 300 kelvin.
TCL: Setting parameter langevinTemp to 300
TCL: Running for 1000000 steps
ETITLE: TS BOND ANGLE DIHED IMPRP ELECT VDW BOUNDARY MISC KINETIC TOTAL TEMP POTENTIAL TOTAL3 TEMPAVG PRESSURE GPRESSURE VOLUME PRESSAVG GPRESSAVG
ENERGY: 325000 1.4850 2.6091 2.4600 0.0000 -16435.7871 2452.1495 0.0000 0.0000 2297.7488 -11679.3347 268.0296 -13977.0834 -11676.5914 268.0296 1027.7795 1120.7384 43314.2877 1027.7795 1120.7384
ENERGY: 525000 1.1147 4.5624 2.2551 0.0000 -15634.3970 2079.8106 0.0000 0.0000 2505.6708 -11040.9834 292.2835 -13546.6542 -11034.3574 299.7425 -242.6742 -126.3161 44428.0024 5.0544 4.8032
ENERGY: 725000 0.3153 4.8162 2.8991 0.0000 -15803.4464 2164.4576 0.0000 0.0000 2572.5930 -11058.3653 300.0899 -13630.9583 -11050.9697 298.2829 322.3585 409.1058 43851.0226 4.7042 4.5838
ENERGY: 925000 1.5160 7.8112 3.1913 0.0000 -15669.7619 2097.3847 0.0000 0.0000 2593.8029 -10966.0559 302.5640 -13559.8588 -10961.7486 299.3914 -14.3866 69.7586 44172.5086 4.3117 4.2863
ENERGY: 1125000 2.1270 2.5522 2.4058 0.0000 -15907.7278 2308.1953 0.0000 0.0000 2613.0477 -10979.3999 304.8089 -13592.4475 -10971.7422 296.7032 922.6328 987.4009 44182.4231 7.1946 6.7863
ENERGY: 1325000 0.9507 4.1250 2.1581 0.0000 -15583.4046 2071.6634 0.0000 0.0000 2449.9321 -11054.5752 285.7816 -13504.5073 -11050.3795 300.2849 -270.5731 -234.3792 44877.0194 4.0914 4.2750
TCL: Exiting due to exit command.
