Info: SIMULATION PARAMETERS:
Info: TIMESTEP               2
Info: NUMBER OF STEPS        0
Info: STEPS PER CYCLE        10
Info: PERIODIC CELL BASIS 1  31.634 0 0
Info: PERIODIC CELL BASIS 2  0 31.4354 0
Info: PERIODIC CELL BASIS 3  0 0 30.4699
Info: PERIODIC CELL CENTER   0 0 0
Info: WRAPPING WATERS AROUND PERIODIC BOUNDARIES ON OUTPUT.
Info: WRAPPING ALL CLUSTERS AROUND PERIODIC BOUNDARIES ON OUTPUT.
Info: FIRST LDB TIMESTEP     50
Info: LAST LDB TIMESTEP     -1
Info: HOM BACKGROUND SCALING 1
Info: PME BACKGROUND SCALING 1
Info: MIN ATOMS PER PATCH    40
Info: EMPTY PATCH LOAD       40 ATOMS
Info: VELOCITY FILE          mobley_2492140_equil.vel
Info: CENTER OF MASS MOVING INITIALLY? NO
Info: DIELECTRIC             1
Info: EXCLUDE                SCALED ONE-FOUR
Info: 1-4 ELECTROSTATICS SCALED BY 0.833333
Info: MODIFIED 1-4 VDW PARAMETERS WILL BE USED
Info: DCD FILENAME           mobley_2492140_prod.dcd
Info: DCD FREQUENCY          100000
Info: DCD FIRST STEP         100000
Info: DCD FILE WILL CONTAIN UNIT CELL DATA
Info: XST FILENAME           mobley_2492140_prod.xst
Info: XST FREQUENCY          100000
Info: NO VELOCITY DCD OUTPUT
Info: NO FORCE DCD OUTPUT
Info: OUTPUT FILENAME        mobley_2492140_prod
Info: BINARY OUTPUT FILES WILL BE USED
Info: RESTART FILENAME       mobley_2492140_prod.restart
Info: RESTART FREQUENCY      100000
Info: BINARY RESTART FILES WILL BE USED
Info: CUTOFF                 9
Info: PAIRLIST DISTANCE      11
Info: PAIRLIST SHRINK RATE   0.01
Info: PAIRLIST GROW RATE     0.01
Info: PAIRLIST TRIGGER       0.3
Info: PAIRLISTS PER CYCLE    2
Info: PAIRLISTS ENABLED
Info: MARGIN                 2
Info: HYDROGEN GROUP CUTOFF  2.5
Info: PATCH DIMENSION        15.5
Info: ENERGY OUTPUT STEPS    100000
Info: ENERGY EVALUATION STEPS    100000
Info: OUTPUT ENERGY PRECISION 4
Info: CROSSTERM ENERGY INCLUDED IN DIHEDRAL
Info: TIMING OUTPUT STEPS    1000000
Info: PRESSURE OUTPUT STEPS  100000
Info: ALCHEMICAL FEP ON
Info: FEP CURRENT LAMBDA VALUE     1
Info: FEP COMPARISON LAMBDA VALUE  0.95
Info: FEP INTRA-ALCHEMICAL NON-BONDED INTERACTIONS WILL BE RETAINED
Info: FEP INTRA-ALCHEMICAL BONDED INTERACTIONS WILL BE RETAINED
Info: FEP VDW SHIFTING COEFFICIENT 5
Info: FEP ELEC. ACTIVE FOR ANNIHILATED PARTICLES BETWEEN LAMBDA = 0 AND LAMBDA = 0.5
Info: FEP ELEC. ACTIVE FOR EXNIHILATED PARTICLES BETWEEN LAMBDA = 0.5 AND LAMBDA = 1
Info: FEP VDW ACTIVE FOR ANNIHILATED PARTICLES BETWEEN LAMBDA = 0 AND LAMBDA = 1
Info: FEP VDW ACTIVE FOR EXNIHILATED PARTICLES BETWEEN LAMBDA = 0 AND LAMBDA = 1
Info: FEP BOND ACTIVE FOR ANNIHILATED PARTICLES BETWEEN LAMBDA = 1 AND LAMBDA = 1
Info: FEP BOND ACTIVE FOR EXNIHILATED PARTICLES BETWEEN LAMBDA = 0 AND LAMBDA = 0
Info: LANGEVIN DYNAMICS ACTIVE
Info: LANGEVIN TEMPERATURE   300
Info: LANGEVIN USING BBK INTEGRATOR
Info: LANGEVIN DAMPING COEFFICIENT IS 1 INVERSE PS
Info: LANGEVIN DYNAMICS APPLIED TO HYDROGENS
Info: LANGEVIN PISTON PRESSURE CONTROL ACTIVE
Info:        TARGET PRESSURE IS 1.01325 BAR
Info:     OSCILLATION PERIOD IS 50 FS
Info:             DECAY TIME IS 25 FS
Info:     PISTON TEMPERATURE IS 300 K
Info:       PRESSURE CONTROL IS GROUP-BASED
Info:    INITIAL STRAIN RATE IS -0.000122507 -0.000122507 -0.000122507
Info:       CELL FLUCTUATION IS ISOTROPIC
Info: PARTICLE MESH EWALD (PME) ACTIVE
Info: PME TOLERANCE               1e-06
Info: PME EWALD COEFFICIENT       0.348832
Info: PME INTERPOLATION ORDER     4
Info: PME GRID DIMENSIONS         32 32 32
Info: PME MAXIMUM GRID SPACING    1
Info: PME CALCULATION WILL BE PERFORMED ON GPU
Info: FULL ELECTROSTATIC EVALUATION FREQUENCY      2
Info: USING VERLET I (r-RESPA) MTS SCHEME.
Info: C1 SPLITTING OF LONG RANGE ELECTROSTATICS
Info: PLACING ATOMS IN PATCHES BY HYDROGEN GROUPS
Info: RIGID BONDS TO HYDROGEN : ALL
Info:         ERROR TOLERANCE : 1e-08
Info:          MAX ITERATIONS : 100
Info: RIGID WATER USING SETTLE ALGORITHM
Info: RANDOM NUMBER SEED     1742100166
Info: USE HYDROGEN BONDS?    NO
Info: Using AMBER format force field!
Info: AMBER PARM FILE        mobley_2492140.prmtop
Info: COORDINATE PDB         mobley_2492140.pdb
Info: Exclusions will be read from PARM file!
Info: SCNB (VDW SCALING)     2
Info: USING ARITHMETIC MEAN TO COMBINE L-J SIGMA PARAMETERS
Info: BINARY COORDINATES     mobley_2492140_equil.coor
Info: SUMMARY OF PARAMETERS:
Info: 5 BONDS
Info: 4 ANGLES
Info:   4 HARMONIC
Info:   0 COSINE-BASED
Info: 2 DIHEDRAL
Info: 0 IMPROPER
Info: 0 CROSSTERM
Info: 0 VDW
Info: 15 VDW_PAIRS
Info: 0 NBTHOLE_PAIRS
Info: To read alchdata from file: mobley_2492140.pdb
Info: To read alchflag data from column: 5
Info: STRUCTURE SUMMARY:
Info: 2936 ATOMS
Info: 2935 BONDS
Info: 12 ANGLES
Info: 9 DIHEDRALS
Info: 0 IMPROPERS
Info: 0 CROSSTERMS
Info: 2956 EXCLUSIONS
Info: 2929 RIGID BONDS
Info: ALCH: 0 ATOMS TO DISAPPEAR IN FINAL STATE
Info: ALCH: 8 ATOMS TO APPEAR IN FINAL STATE
Info: 5879 DEGREES OF FREEDOM
Info: 983 HYDROGEN GROUPS
Info: 3 ATOMS IN LARGEST HYDROGEN GROUP
Info: 983 MIGRATION GROUPS
Info: 3 ATOMS IN LARGEST MIGRATION GROUP
Info: TOTAL MASS = 17785.9 amu
Info: TOTAL CHARGE = 0 e
Info: MASS DENSITY = 0.974745 g/cm^3
Info: ATOM DENSITY = 0.0968974 atoms/A^3
Info: ADDED 0 IMPLICIT EXCLUSIONS
Info: NONBONDED TABLE R-SQUARED SPACING: 0.0625
Info: NONBONDED TABLE SIZE: 705 POINTS
Info: REMOVING COM VELOCITY 0.205647 -0.195064 -0.0285836
Info: Use 3D box decompostion in PME FFT.
Info: Updated CUDA force table with 4096 elements.
Info: Updated CUDA LJ table with 5 x 5 elements.
Info: Found 11 unique exclusion lists needing 16 bytes
TCL: Running for 1500000 steps
ETITLE: TS BOND ANGLE DIHED IMPRP ELECT VDW BOUNDARY MISC KINETIC TOTAL TEMP POTENTIAL TOTALAVG TEMPAVG PRESSURE GPRESSURE VOLUME PRESSAVG GPRESSAVG
ENERGY: 0 1.5435 3.4715 0.4632 0.0000 -10675.1810 1399.8918 0.0000 0.0000 1769.1726 -7500.6383 302.8706 -9269.8109 -7500.6383 302.8706 -421.8795 -335.5797 30300.0985 -421.8795 -335.5797
ENERGY: 300000 1.0506 2.4222 0.1951 0.0000 -10751.2038 1486.4856 0.0000 0.0000 1781.1632 -7479.8871 304.9233 -9261.0503 -7482.2328 303.2860 379.9774 409.4835 30245.1177 200.8423 242.7010
ENERGY: 600000 4.8006 3.2442 0.4050 0.0000 -10679.2279 1444.1177 0.0000 0.0000 1804.2378 -7422.4225 308.8735 -9226.6604 -7443.5992 306.3721 -43.9654 57.2186 30189.8444 71.1253 126.4805
ENERGY: 900000 1.8991 2.6283 0.1083 0.0000 -10443.9091 1262.5461 0.0000 0.0000 1751.4754 -7425.2519 299.8410 -9176.7273 -7436.4656 305.2715 -1188.6970 -1209.0676 30817.5647 81.3438 136.6560
ENERGY: 1200000 1.8962 4.2963 0.8305 0.0000 -10687.8072 1463.1167 0.0000 0.0000 1761.4090 -7456.2585 301.5415 -9217.6674 -7435.5163 305.2516 485.6342 526.6444 30211.7717 163.5367 223.4668
ENERGY: 1500000 2.6366 3.1994 0.5154 0.0000 -10637.8809 1460.0895 0.0000 0.0000 1763.8682 -7407.5718 301.9625 -9171.4400 -7435.2992 304.8757 187.4660 305.3580 30553.8524 147.1247 210.7998
TCL: Running FEP window   2: Lambda1 0.95   Lambda2 0.8999999999999999 [dLambda -0.050000000000000044]
TCL: Setting parameter firsttimestep to 0
TCL: Setting parameter alchLambda to 0.95
Info: NONBONDED TABLE R-SQUARED SPACING: 0.0625
Info: NONBONDED TABLE SIZE: 705 POINTS
TCL: Setting parameter alchLambda2 to 0.8999999999999999
Info: NONBONDED TABLE R-SQUARED SPACING: 0.0625
Info: NONBONDED TABLE SIZE: 705 POINTS
TCL: Running for 1500000 steps
ETITLE: TS BOND ANGLE DIHED IMPRP ELECT VDW BOUNDARY MISC KINETIC TOTAL TEMP POTENTIAL TOTALAVG TEMPAVG PRESSURE GPRESSURE VOLUME PRESSAVG GPRESSAVG
ENERGY: 0 2.6366 3.1994 0.5154 0.0000 -10637.5844 1460.4047 0.0000 0.0000 1763.0051 -7407.8233 301.8148 -9170.8284 -7407.8233 301.8148 225.0725 300.0701 30553.8524 225.0725 300.0701
ENERGY: 300000 5.0718 2.2618 0.6644 0.0000 -10543.1802 1346.4345 0.0000 0.0000 1699.6048 -7489.1429 290.9611 -9188.7477 -7463.9034 296.2750 -670.7305 -695.4913 30500.0073 -137.2516 -103.2763
ENERGY: 600000 1.7635 2.6202 0.0302 0.0000 -10707.1898 1472.9899 0.0000 0.0000 1724.5257 -7505.2604 295.2273 -9229.7861 -7458.2473 297.8024 260.3758 314.4390 30285.0455 -256.2833 -207.7189
ENERGY: 900000 2.4749 2.7996 0.4429 0.0000 -10692.7669 1450.7284 0.0000 0.0000 1726.3971 -7509.9239 295.5477 -9236.3211 -7457.3989 298.6027 -88.8876 -3.9260 30415.9523 -208.4397 -155.0094
ENERGY: 1200000 0.5286 3.0649 0.5185 0.0000 -10591.3370 1403.1600 0.0000 0.0000 1756.0294 -7428.0356 300.6206 -9184.0650 -7454.0273 299.7547 95.4815 125.5663 30432.4944 -203.4457 -154.5734
ENERGY: 1500000 0.7084 2.3892 0.2109 0.0000 -10514.2564 1344.8315 0.0000 0.0000 1718.8331 -7447.2834 294.2528 -9166.1165 -7458.2319 299.4443 -594.3324 -579.9257 30751.2282 -248.8561 -200.5894
TCL: Running FEP window   3: Lambda1 0.8999999999999999 Lambda2 0.8499999999999999 [dLambda -0.050000000000000044]
TCL: Setting parameter firsttimestep to 0
TCL: Setting parameter alchLambda to 0.8999999999999999
Info: NONBONDED TABLE R-SQUARED SPACING: 0.0625
Info: NONBONDED TABLE SIZE: 705 POINTS
TCL: Setting parameter alchLambda2 to 0.8499999999999999
Info: NONBONDED TABLE R-SQUARED SPACING: 0.0625
Info: NONBONDED TABLE SIZE: 705 POINTS
TCL: Running for 1500000 steps
ETITLE: TS BOND ANGLE DIHED IMPRP ELECT VDW BOUNDARY MISC KINETIC TOTAL TEMP POTENTIAL TOTALAVG TEMPAVG PRESSURE GPRESSURE VOLUME PRESSAVG GPRESSAVG
ENERGY: 0 0.7084 2.3892 0.2109 0.0000 -10514.0070 1344.5138 0.0000 0.0000 1717.9345 -7448.2503 294.0990 -9166.1848 -7448.2503 294.0990 -655.1608 -594.4290 30751.2282 -655.1608 -594.4290
ENERGY: 300000 1.7329 3.8270 0.1893 0.0000 -10706.0808 1447.3798 0.0000 0.0000 1778.8236 -7474.1282 304.5228 -9252.9518 -7427.0858 301.9672 113.8159 129.4699 30091.0388 37.2368 75.1790
ENERGY: 600000 0.4141 1.5726 0.0815 0.0000 -10768.1644 1470.1286 0.0000 0.0000 1758.4874 -7537.4802 301.0414 -9295.9676 -7456.4279 301.7771 70.5286 88.9571 30486.1255 -146.6840 -113.7636
ENERGY: 900000 0.9749 1.5452 0.2544 0.0000 -10589.2823 1399.6725 0.0000 0.0000 1767.4705 -7419.3648 302.5792 -9186.8353 -7460.7870 301.9904 -339.2409 -248.5223 30638.4485 -199.7914 -150.9024
ENERGY: 1200000 0.7888 3.1095 0.9468 0.0000 -10546.9344 1377.5870 0.0000 0.0000 1755.6523 -7408.8500 300.5560 -9164.5023 -7459.4252 301.4320 -336.9749 -339.9062 30705.1455 -206.1524 -160.3807
ENERGY: 1500000 0.9623 5.9031 0.2452 0.0000 -10826.0022 1581.4148 0.0000 0.0000 1718.1187 -7519.3582 294.1305 -9237.4769 -7469.7977 300.3353 1373.3092 1477.4712 29968.5357 2.6401 55.8876
TCL: Running FEP window   4: Lambda1 0.8499999999999999 Lambda2 0.7999999999999998 [dLambda -0.050000000000000044]
TCL: Setting parameter firsttimestep to 0
TCL: Setting parameter alchLambda to 0.8499999999999999
Info: NONBONDED TABLE R-SQUARED SPACING: 0.0625
Info: NONBONDED TABLE SIZE: 705 POINTS
TCL: Setting parameter alchLambda2 to 0.7999999999999998
Info: NONBONDED TABLE R-SQUARED SPACING: 0.0625
Info: NONBONDED TABLE SIZE: 705 POINTS
TCL: Running for 1500000 steps
ETITLE: TS BOND ANGLE DIHED IMPRP ELECT VDW BOUNDARY MISC KINETIC TOTAL TEMP POTENTIAL TOTALAVG TEMPAVG PRESSURE GPRESSURE VOLUME PRESSAVG GPRESSAVG
ENERGY: 0 0.9623 5.9031 0.2452 0.0000 -10825.5261 1581.4072 0.0000 0.0000 1717.2817 -7519.7266 293.9872 -9237.0083 -7519.7266 293.9872 1368.6106 1464.2835 29968.5357 1368.6106 1464.2835
ENERGY: 300000 4.1893 5.6735 0.3709 0.0000 -10698.6957 1468.6835 0.0000 0.0000 1768.3968 -7451.3817 302.7378 -9219.7785 -7490.3223 296.5558 212.4756 360.2645 30360.1518 180.3359 273.7939
ENERGY: 600000 1.5508 1.6815 0.2339 0.0000 -10759.6370 1491.1111 0.0000 0.0000 1745.3916 -7519.6681 298.7995 -9265.0596 -7492.1333 298.8058 521.1693 555.2948 29957.8607 122.3665 200.1967
ENERGY: 900000 1.3620 3.0617 0.3604 0.0000 -10565.5675 1367.0567 0.0000 0.0000 1714.3408 -7479.3858 293.4838 -9193.7266 -7481.1567 297.8921 -405.9795 -321.6221 30509.9816 33.2865 105.0370
ENERGY: 1200000 1.0605 3.4830 1.3310 0.0000 -10717.3407 1495.1985 0.0000 0.0000 1772.9906 -7443.2770 303.5242 -9216.2677 -7479.0007 297.9413 743.7782 765.6636 29994.1875 54.1206 128.9872
ENERGY: 1500000 2.3768 2.6445 0.0250 0.0000 -10520.0364 1345.9918 0.0000 0.0000 1746.6061 -7422.3921 299.0074 -9168.9983 -7475.4596 298.1616 -632.9616 -574.1283 30571.2223 62.7115 135.1917
TCL: Running FEP window   5: Lambda1 0.7999999999999998 Lambda2 0.7499999999999998 [dLambda -0.050000000000000044]
TCL: Setting parameter firsttimestep to 0
TCL: Setting parameter alchLambda to 0.7999999999999998
Info: NONBONDED TABLE R-SQUARED SPACING: 0.0625
Info: NONBONDED TABLE SIZE: 705 POINTS
TCL: Setting parameter alchLambda2 to 0.7499999999999998
Info: NONBONDED TABLE R-SQUARED SPACING: 0.0625
Info: NONBONDED TABLE SIZE: 705 POINTS
TCL: Running for 1500000 steps
ETITLE: TS BOND ANGLE DIHED IMPRP ELECT VDW BOUNDARY MISC KINETIC TOTAL TEMP POTENTIAL TOTALAVG TEMPAVG PRESSURE GPRESSURE VOLUME PRESSAVG GPRESSAVG
ENERGY: 0 2.3768 2.6445 0.0250 0.0000 -10519.8374 1346.0671 0.0000 0.0000 1745.7103 -7423.0137 298.8540 -9168.7240 -7423.0137 298.8540 -650.3517 -581.7515 30571.2223 -650.3517 -581.7515
ENERGY: 300000 2.3136 1.0828 0.9372 0.0000 -10557.9068 1450.5454 0.0000 0.0000 1771.9951 -7331.0327 303.3538 -9103.0278 -7423.7839 300.4461 421.2990 476.3302 30489.7551 118.9273 171.8591
ENERGY: 600000 2.4299 3.6506 0.2021 0.0000 -10696.9312 1443.7024 0.0000 0.0000 1750.4441 -7496.5021 299.6644 -9246.9462 -7444.2257 300.3494 -3.6287 7.6205 30401.9555 -202.8628 -154.7275
ENERGY: 900000 1.0463 2.1411 0.5446 0.0000 -10642.7785 1420.4804 0.0000 0.0000 1725.2321 -7493.3339 295.3483 -9218.5660 -7438.2195 300.4678 -186.9752 -60.9491 30260.0015 -196.0577 -150.7039
ENERGY: 1200000 1.9907 4.0707 1.0957 0.0000 -10693.1400 1422.1741 0.0000 0.0000 1724.3002 -7539.5086 295.1888 -9263.8088 -7451.4089 299.8365 -215.3178 -158.5922 30711.5416 -187.9061 -132.9841
ENERGY: 1500000 2.0016 6.5068 0.2094 0.0000 -10688.2453 1459.0082 0.0000 0.0000 1750.9640 -7469.5553 299.7534 -9220.5193 -7456.3964 299.1791 28.9901 95.4351 30522.7403 -225.4794 -171.9243
TCL: Running FEP window   6: Lambda1 0.7499999999999998 Lambda2 0.6999999999999997 [dLambda -0.050000000000000044]
TCL: Setting parameter firsttimestep to 0
TCL: Setting parameter alchLambda to 0.7499999999999998
Info: NONBONDED TABLE R-SQUARED SPACING: 0.0625
Info: NONBONDED TABLE SIZE: 705 POINTS
TCL: Setting parameter alchLambda2 to 0.6999999999999997
Info: NONBONDED TABLE R-SQUARED SPACING: 0.0625
Info: NONBONDED TABLE SIZE: 705 POINTS
TCL: Running for 1500000 steps
ETITLE: TS BOND ANGLE DIHED IMPRP ELECT VDW BOUNDARY MISC KINETIC TOTAL TEMP POTENTIAL TOTALAVG TEMPAVG PRESSURE GPRESSURE VOLUME PRESSAVG GPRESSAVG
ENERGY: 0 2.0016 6.5068 0.2094 0.0000 -10687.9656 1459.1480 0.0000 0.0000 1750.1206 -7469.9791 299.6090 -9220.0997 -7469.9791 299.6090 -2.9797 88.0188 30522.7403 -2.9797 88.0188
ENERGY: 300000 1.2273 2.5063 0.4528 0.0000 -10652.6019 1470.1712 0.0000 0.0000 1726.8771 -7451.3672 295.6299 -9178.2443 -7464.7600 298.9735 227.3001 261.1941 30700.8936 364.0394 409.3192
ENERGY: 600000 2.3083 2.7408 0.0837 0.0000 -10752.9152 1523.7476 0.0000 0.0000 1749.6149 -7474.4200 299.5225 -9224.0349 -7481.5373 298.6699 627.0621 663.9303 30425.6788 525.2139 581.0004
ENERGY: 900000 3.0628 2.1366 0.3986 0.0000 -10780.1212 1530.9200 0.0000 0.0000 1761.1051 -7482.4980 301.4895 -9243.6031 -7470.7983 299.8480 765.6662 800.7189 30037.7753 288.0771 344.7807
ENERGY: 1200000 1.5792 1.6268 2.2110 0.0000 -10850.9891 1600.1316 0.0000 0.0000 1759.5998 -7485.8407 301.2318 -9245.4405 -7471.4919 300.2370 1438.4436 1451.2747 29861.6290 275.0342 330.3065
ENERGY: 1500000 0.9952 1.0925 0.0534 0.0000 -10681.2553 1414.2760 0.0000 0.0000 1748.2678 -7516.5704 299.2919 -9264.8382 -7475.9958 300.3103 -243.4999 -192.1922 30564.2142 204.7178 268.1679
TCL: Running FEP window   7: Lambda1 0.6999999999999997 Lambda2 0.6499999999999997 [dLambda -0.050000000000000044]
TCL: Setting parameter firsttimestep to 0
TCL: Setting parameter alchLambda to 0.6999999999999997
Info: NONBONDED TABLE R-SQUARED SPACING: 0.0625
Info: NONBONDED TABLE SIZE: 705 POINTS
TCL: Setting parameter alchLambda2 to 0.6499999999999997
Info: NONBONDED TABLE R-SQUARED SPACING: 0.0625
Info: NONBONDED TABLE SIZE: 705 POINTS
TCL: Running for 1500000 steps
ETITLE: TS BOND ANGLE DIHED IMPRP ELECT VDW BOUNDARY MISC KINETIC TOTAL TEMP POTENTIAL TOTALAVG TEMPAVG PRESSURE GPRESSURE VOLUME PRESSAVG GPRESSAVG
ENERGY: 0 0.9952 1.0925 0.0534 0.0000 -10681.2731 1414.6288 0.0000 0.0000 1747.3499 -7517.1533 299.1347 -9264.5032 -7517.1533 299.1347 -290.2623 -194.1946 30564.2142 -290.2623 -194.1946
ENERGY: 300000 2.5132 5.3155 0.4265 0.0000 -10688.9011 1440.0199 0.0000 0.0000 1781.3062 -7459.3198 304.9478 -9240.6260 -7473.0211 300.6368 -79.2918 -69.2700 30364.9811 169.6899 226.0510
ENERGY: 600000 2.3451 5.7076 0.5525 0.0000 -10666.6565 1418.5367 0.0000 0.0000 1753.0240 -7486.4906 300.1061 -9239.5146 -7472.7605 301.2033 -292.3834 -224.2379 30562.4770 66.1832 130.1894
ENERGY: 900000 1.1896 2.1566 0.3639 0.0000 -10725.8183 1506.7032 0.0000 0.0000 1795.1404 -7420.2646 307.3161 -9215.4050 -7470.1034 301.5682 737.4774 817.5054 30063.6731 119.6829 190.9476
ENERGY: 1200000 2.2677 1.9049 0.0529 0.0000 -10643.1378 1359.9445 0.0000 0.0000 1740.3144 -7538.6533 297.9303 -9278.9678 -7480.0928 300.9643 -647.3752 -629.0882 30255.3807 14.6339 80.2647
ENERGY: 1500000 0.8544 2.0288 0.1226 0.0000 -10639.2014 1402.4462 0.0000 0.0000 1761.2617 -7472.4877 301.5163 -9233.7494 -7479.4865 301.5680 -133.1086 -76.2715 29974.3573 -33.4387 27.3362
TCL: Running FEP window   8: Lambda1 0.6499999999999997 Lambda2 0.5999999999999996 [dLambda -0.050000000000000044]
TCL: Setting parameter firsttimestep to 0
TCL: Setting parameter alchLambda to 0.6499999999999997
Info: NONBONDED TABLE R-SQUARED SPACING: 0.0625
Info: NONBONDED TABLE SIZE: 705 POINTS
TCL: Setting parameter alchLambda2 to 0.5999999999999996
Info: NONBONDED TABLE R-SQUARED SPACING: 0.0625
Info: NONBONDED TABLE SIZE: 705 POINTS
TCL: Running for 1500000 steps
ETITLE: TS BOND ANGLE DIHED IMPRP ELECT VDW BOUNDARY MISC KINETIC TOTAL TEMP POTENTIAL TOTALAVG TEMPAVG PRESSURE GPRESSURE VOLUME PRESSAVG GPRESSAVG
ENERGY: 0 0.8544 2.0288 0.1226 0.0000 -10639.0332 1402.9272 0.0000 0.0000 1760.3998 -7472.7005 301.3688 -9233.1002 -7472.7005 301.3688 -175.5848 -80.4245 29974.3573 -175.5848 -80.4245
ENERGY: 300000 1.3371 2.9048 0.6636 0.0000 -10627.6434 1448.8196 0.0000 0.0000 1678.0417 -7495.8766 287.2696 -9173.9183 -7475.0609 297.0547 279.1719 296.4059 30366.9829 -317.7303 -267.7972
ENERGY: 600000 1.3709 2.8300 0.5154 0.0000 -10713.0256 1445.2240 0.0000 0.0000 1771.9165 -7491.1688 303.3403 -9263.0853 -7496.2732 298.4122 -42.0813 0.5753 30448.6435 -220.7818 -168.7354
ENERGY: 900000 1.1860 4.4771 0.0918 0.0000 -10573.5874 1381.5240 0.0000 0.0000 1754.1703 -7432.1381 300.3023 -9186.3084 -7486.6459 298.3836 -380.9755 -323.8861 30569.6194 -111.2857 -60.0129
ENERGY: 1200000 1.1786 3.9688 0.2145 0.0000 -10719.2533 1449.8121 0.0000 0.0000 1716.9842 -7547.0950 293.9363 -9264.0793 -7487.9877 298.3510 -48.6376 40.1863 30313.3408 -57.2104 -7.2251
ENERGY: 1500000 3.5403 2.6499 0.2008 0.0000 -10660.6860 1425.0619 0.0000 0.0000 1734.8867 -7494.3465 297.0011 -9229.2332 -7484.0758 298.0523 -425.9002 -356.9779 30820.1468 -224.5344 -168.9732
TCL: Running FEP window   9: Lambda1 0.5999999999999996 Lambda2 0.5499999999999996 [dLambda -0.050000000000000044]
TCL: Setting parameter firsttimestep to 0
TCL: Setting parameter alchLambda to 0.5999999999999996
Info: NONBONDED TABLE R-SQUARED SPACING: 0.0625
Info: NONBONDED TABLE SIZE: 705 POINTS
TCL: Setting parameter alchLambda2 to 0.5499999999999996
Info: NONBONDED TABLE R-SQUARED SPACING: 0.0625
Info: NONBONDED TABLE SIZE: 705 POINTS
TCL: Running for 1500000 steps
ETITLE: TS BOND ANGLE DIHED IMPRP ELECT VDW BOUNDARY MISC KINETIC TOTAL TEMP POTENTIAL TOTALAVG TEMPAVG PRESSURE GPRESSURE VOLUME PRESSAVG GPRESSAVG
ENERGY: 0 3.5403 2.6499 0.2008 0.0000 -10660.3651 1425.3694 0.0000 0.0000 1734.0489 -7494.5558 296.8577 -9228.6047 -7494.5558 296.8577 -445.6269 -361.9784 30820.1468 -445.6269 -361.9784
ENERGY: 300000 2.0848 5.9399 0.5565 0.0000 -10594.3596 1328.2848 0.0000 0.0000 1724.6650 -7532.8286 295.2512 -9257.4936 -7485.9294 296.6584 -864.8389 -808.3351 30076.2846 -128.1178 -61.7341
ENERGY: 600000 1.6128 3.0910 0.1281 0.0000 -10634.5235 1390.8484 0.0000 0.0000 1769.9282 -7468.9151 303.0000 -9238.8433 -7464.0987 299.2438 -255.9708 -173.0801 30193.3146 -111.1600 -55.1156
ENERGY: 900000 0.2529 2.1792 0.2899 0.0000 -10673.4318 1419.1104 0.0000 0.0000 1757.1509 -7494.4484 300.8126 -9251.5993 -7473.1309 299.2243 -170.6320 -57.4953 30112.0921 -128.5936 -65.5633
ENERGY: 1200000 0.7328 5.5972 0.1908 0.0000 -10614.0193 1389.0285 0.0000 0.0000 1746.2387 -7472.2312 298.9445 -9218.4699 -7471.9406 299.1058 -321.4158 -244.3030 30449.6827 -184.6908 -122.8789
ENERGY: 1500000 1.5295 1.7840 0.5027 0.0000 -10799.1028 1563.8612 0.0000 0.0000 1732.0333 -7499.3923 296.5126 -9231.4255 -7475.8203 298.3398 1045.7595 1106.5468 30026.3928 -98.2008 -38.2957
TCL: Running FEP window  10: Lambda1 0.5499999999999996 Lambda2 0.4999999999999996 [dLambda -0.04999999999999999]
TCL: Setting parameter firsttimestep to 0
TCL: Setting parameter alchLambda to 0.5499999999999996
Info: NONBONDED TABLE R-SQUARED SPACING: 0.0625
Info: NONBONDED TABLE SIZE: 705 POINTS
TCL: Setting parameter alchLambda2 to 0.4999999999999996
Info: NONBONDED TABLE R-SQUARED SPACING: 0.0625
Info: NONBONDED TABLE SIZE: 705 POINTS
TCL: Running for 1500000 steps
ETITLE: TS BOND ANGLE DIHED IMPRP ELECT VDW BOUNDARY MISC KINETIC TOTAL TEMP POTENTIAL TOTALAVG TEMPAVG PRESSURE GPRESSURE VOLUME PRESSAVG GPRESSAVG
ENERGY: 0 1.5295 1.7840 0.5027 0.0000 -10799.1449 1564.1981 0.0000 0.0000 1731.1509 -7499.9797 296.3615 -9231.1306 -7499.9797 296.3615 1020.2911 1103.4233 30026.3928 1020.2911 1103.4233
ENERGY: 300000 2.1941 3.7931 0.7938 0.0000 -10632.9263 1440.6536 0.0000 0.0000 1790.1855 -7395.3063 306.4679 -9185.4918 -7460.2464 299.4839 -92.7876 37.2666 30450.8574 241.3813 328.3790
ENERGY: 600000 1.0509 2.7766 0.1120 0.0000 -10679.9942 1486.1104 0.0000 0.0000 1758.2219 -7431.7223 300.9959 -9189.9442 -7463.7392 299.3751 231.5221 270.4045 30674.4454 253.3722 326.1680
ENERGY: 900000 0.9310 2.8939 0.1413 0.0000 -10651.4852 1427.7407 0.0000 0.0000 1733.9109 -7485.8674 296.8340 -9219.7783 -7483.2873 299.1556 43.1475 101.1746 30383.2017 136.0900 201.5932
ENERGY: 1200000 1.1021 3.0928 0.7272 0.0000 -10519.8994 1383.1554 0.0000 0.0000 1847.0406 -7284.7812 316.2011 -9131.8218 -7466.5689 300.4287 -294.1770 -232.3900 30564.2230 171.2018 237.3933
ENERGY: 1500000 1.6725 3.6900 1.2390 0.0000 -10799.4820 1520.8006 0.0000 0.0000 1747.0902 -7524.9896 299.0902 -9272.0798 -7482.1030 299.5097 540.0462 657.0492 30270.9542 164.4724 234.1971
TCL: Running FEP window  11: Lambda1 0.4999999999999996 Lambda2 0.4499999999999996 [dLambda -0.04999999999999999]
TCL: Setting parameter firsttimestep to 0
TCL: Setting parameter alchLambda to 0.4999999999999996
Info: NONBONDED TABLE R-SQUARED SPACING: 0.0625
Info: NONBONDED TABLE SIZE: 705 POINTS
TCL: Setting parameter alchLambda2 to 0.4499999999999996
Info: NONBONDED TABLE R-SQUARED SPACING: 0.0625
Info: NONBONDED TABLE SIZE: 705 POINTS
TCL: Running for 1500000 steps
ETITLE: TS BOND ANGLE DIHED IMPRP ELECT VDW BOUNDARY MISC KINETIC TOTAL TEMP POTENTIAL TOTALAVG TEMPAVG PRESSURE GPRESSURE VOLUME PRESSAVG GPRESSAVG
ENERGY: 0 1.6725 3.6900 1.2390 0.0000 -10799.3204 1521.2546 0.0000 0.0000 1746.1961 -7525.2682 298.9372 -9271.4643 -7525.2682 298.9372 574.4074 654.0483 30270.9542 574.4074 654.0483
ENERGY: 300000 1.6206 4.1585 0.8253 0.0000 -10801.3850 1523.8644 0.0000 0.0000 1767.1098 -7503.8064 302.5175 -9270.9162 -7476.6812 298.8850 926.9535 975.1434 29774.8078 326.6035 381.5264
ENERGY: 600000 1.9040 1.6445 0.0504 0.0000 -10669.0545 1484.3664 0.0000 0.0000 1690.0485 -7491.0407 289.3251 -9181.0892 -7463.9078 299.0982 151.3595 246.8087 30839.7651 40.9953 107.0398
ENERGY: 900000 2.5264 2.6682 0.1926 0.0000 -10699.2536 1429.0333 0.0000 0.0000 1716.0504 -7548.7827 293.7764 -9264.8331 -7477.4328 298.7363 -136.3191 -79.7584 30164.9282 -103.4474 -29.1959
ENERGY: 1200000 0.9433 2.8677 0.1174 0.0000 -10630.8548 1373.9614 0.0000 0.0000 1754.5785 -7498.3864 300.3722 -9252.9649 -7478.3567 298.5574 -542.1910 -520.0654 30240.3067 -7.4074 54.7339
ENERGY: 1500000 1.8882 1.9600 0.0574 0.0000 -10811.0404 1498.4943 0.0000 0.0000 1726.9283 -7581.7121 295.6387 -9308.6405 -7480.6461 297.9633 146.2952 170.6094 30309.1074 -51.7798 6.3105
TCL: Running FEP window  12: Lambda1 0.4499999999999996 Lambda2 0.39999999999999963 [dLambda -0.04999999999999999]
TCL: Setting parameter firsttimestep to 0
TCL: Setting parameter alchLambda to 0.4499999999999996
Info: NONBONDED TABLE R-SQUARED SPACING: 0.0625
Info: NONBONDED TABLE SIZE: 705 POINTS
TCL: Setting parameter alchLambda2 to 0.39999999999999963
Info: NONBONDED TABLE R-SQUARED SPACING: 0.0625
Info: NONBONDED TABLE SIZE: 705 POINTS
TCL: Running for 1500000 steps
ETITLE: TS BOND ANGLE DIHED IMPRP ELECT VDW BOUNDARY MISC KINETIC TOTAL TEMP POTENTIAL TOTALAVG TEMPAVG PRESSURE GPRESSURE VOLUME PRESSAVG GPRESSAVG
ENERGY: 0 1.8882 1.9600 0.0574 0.0000 -10811.0407 1498.3405 0.0000 0.0000 1726.0669 -7582.7277 295.4912 -9308.7947 -7582.7277 295.4912 86.1564 163.9099 30309.1074 86.1564 163.9099
ENERGY: 300000 2.4261 2.1344 1.1114 0.0000 -10643.9429 1425.8059 0.0000 0.0000 1744.2591 -7468.2060 298.6056 -9212.4651 -7496.4511 297.6144 76.2964 86.3533 30238.0018 -30.3643 22.9700
ENERGY: 600000 3.8717 1.1741 0.1964 0.0000 -10508.2838 1362.9896 0.0000 0.0000 1773.6091 -7366.4430 303.6301 -9140.0521 -7456.3684 300.4352 -234.3207 -177.6711 30138.1117 -164.2362 -104.5732
ENERGY: 900000 1.1450 3.4965 0.5416 0.0000 -10674.1638 1433.3347 0.0000 0.0000 1717.6931 -7517.9530 294.0577 -9235.6461 -7445.2781 301.9394 0.9047 49.0411 30118.6961 -62.3234 -15.7339
ENERGY: 1200000 1.1056 2.7676 1.2740 0.0000 -10576.8092 1442.7935 0.0000 0.0000 1779.9831 -7348.8853 304.7213 -9128.8684 -7443.3346 301.2628 413.3352 476.5236 30195.1685 -108.4380 -59.4907
ENERGY: 1500000 5.4021 2.4809 0.2023 0.0000 -10612.3184 1423.1484 0.0000 0.0000 1763.2860 -7417.7987 301.8629 -9181.0847 -7441.3985 301.1186 270.1162 291.9770 30122.6529 -48.5969 0.6378
TCL: Running FEP window  13: Lambda1 0.39999999999999963 Lambda2 0.34999999999999964 [dLambda -0.04999999999999999]
TCL: Setting parameter firsttimestep to 0
TCL: Setting parameter alchLambda to 0.39999999999999963
Info: NONBONDED TABLE R-SQUARED SPACING: 0.0625
Info: NONBONDED TABLE SIZE: 705 POINTS
TCL: Setting parameter alchLambda2 to 0.34999999999999964
Info: NONBONDED TABLE R-SQUARED SPACING: 0.0625
Info: NONBONDED TABLE SIZE: 705 POINTS
TCL: Running for 1500000 steps
ETITLE: TS BOND ANGLE DIHED IMPRP ELECT VDW BOUNDARY MISC KINETIC TOTAL TEMP POTENTIAL TOTALAVG TEMPAVG PRESSURE GPRESSURE VOLUME PRESSAVG GPRESSAVG
ENERGY: 0 5.4021 2.4809 0.2023 0.0000 -10612.3176 1423.4235 0.0000 0.0000 1762.3766 -7418.4322 301.7072 -9180.8088 -7418.4322 301.7072 208.3629 288.2813 30122.6529 208.3629 288.2813
ENERGY: 300000 1.1329 2.2205 0.6576 0.0000 -10729.4643 1489.4090 0.0000 0.0000 1777.5891 -7458.4551 304.3115 -9236.0443 -7461.9604 303.1170 351.0767 387.9024 30213.2582 21.5731 83.3195
ENERGY: 600000 3.4496 2.8913 0.7967 0.0000 -10686.4052 1418.7119 0.0000 0.0000 1780.8003 -7479.7554 304.8612 -9260.5557 -7478.9789 302.9455 -194.8593 -108.0752 30093.6651 -94.1880 -23.7098
ENERGY: 900000 2.1259 1.3502 0.1005 0.0000 -10648.7046 1458.6938 0.0000 0.0000 1770.0352 -7416.3989 303.0183 -9186.4341 -7468.3904 303.0024 152.3828 269.1720 30533.4432 -45.5587 26.2567
ENERGY: 1200000 2.2376 1.9409 0.2726 0.0000 -10592.0225 1406.1889 0.0000 0.0000 1732.2900 -7449.0924 296.5566 -9181.3824 -7465.5168 300.9405 -16.8219 58.7093 30097.9904 -131.1322 -60.6121
ENERGY: 1500000 0.8005 4.3674 0.1834 0.0000 -10711.4380 1491.2122 0.0000 0.0000 1732.1420 -7482.7324 296.5312 -9214.8744 -7476.9710 300.3538 583.6424 704.0047 29824.1631 -102.2337 -31.9550
TCL: Running FEP window  14: Lambda1 0.34999999999999964 Lambda2 0.29999999999999966 [dLambda -0.04999999999999999]
TCL: Setting parameter firsttimestep to 0
TCL: Setting parameter alchLambda to 0.34999999999999964
Info: NONBONDED TABLE R-SQUARED SPACING: 0.0625
Info: NONBONDED TABLE SIZE: 705 POINTS
TCL: Setting parameter alchLambda2 to 0.29999999999999966
Info: NONBONDED TABLE R-SQUARED SPACING: 0.0625
Info: NONBONDED TABLE SIZE: 705 POINTS
TCL: Running for 1500000 steps
ETITLE: TS BOND ANGLE DIHED IMPRP ELECT VDW BOUNDARY MISC KINETIC TOTAL TEMP POTENTIAL TOTALAVG TEMPAVG PRESSURE GPRESSURE VOLUME PRESSAVG GPRESSAVG
ENERGY: 0 0.8005 4.3674 0.1834 0.0000 -10711.4372 1491.2384 0.0000 0.0000 1731.2646 -7483.5828 296.3810 -9214.8474 -7483.5828 296.3810 632.8235 697.6727 29824.1631 632.8235 697.6727
ENERGY: 300000 2.4313 0.6924 0.2181 0.0000 -10754.4430 1531.4405 0.0000 0.0000 1722.9074 -7496.7533 294.9503 -9219.6607 -7469.0283 299.6102 582.8460 640.1110 30240.4795 331.9465 400.0764
ENERGY: 600000 1.4044 1.7721 0.8763 0.0000 -10662.7768 1422.6516 0.0000 0.0000 1767.1070 -7468.9654 302.5170 -9236.0724 -7468.5236 300.2581 -158.2364 -134.1794 30268.3498 76.0893 129.0990
ENERGY: 900000 2.2105 1.2714 0.0555 0.0000 -10818.1567 1573.9484 0.0000 0.0000 1723.8014 -7516.8696 295.1034 -9240.6710 -7484.4810 298.4247 992.0166 1045.4507 29963.8105 61.2436 107.3312
ENERGY: 1200000 0.9989 2.1122 0.1469 0.0000 -10631.3097 1364.4953 0.0000 0.0000 1751.0699 -7512.4867 299.7715 -9263.5565 -7493.3668 298.5255 -687.5085 -683.6220 30504.1306 -61.9034 -21.1517
ENERGY: 1500000 1.3685 5.1933 0.3238 0.0000 -10699.7132 1470.0400 0.0000 0.0000 1754.6285 -7468.1590 300.3808 -9222.7875 -7486.3015 298.6752 22.2848 152.4576 30361.5827 -152.0444 -107.1188
TCL: Running FEP window  15: Lambda1 0.29999999999999966 Lambda2 0.24999999999999967 [dLambda -0.04999999999999999]
TCL: Setting parameter firsttimestep to 0
TCL: Setting parameter alchLambda to 0.29999999999999966
Info: NONBONDED TABLE R-SQUARED SPACING: 0.0625
Info: NONBONDED TABLE SIZE: 705 POINTS
TCL: Setting parameter alchLambda2 to 0.24999999999999967
Info: NONBONDED TABLE R-SQUARED SPACING: 0.0625
Info: NONBONDED TABLE SIZE: 705 POINTS
TCL: Running for 1500000 steps
ETITLE: TS BOND ANGLE DIHED IMPRP ELECT VDW BOUNDARY MISC KINETIC TOTAL TEMP POTENTIAL TOTALAVG TEMPAVG PRESSURE GPRESSURE VOLUME PRESSAVG GPRESSAVG
ENERGY: 0 1.3685 5.1933 0.3238 0.0000 -10699.7125 1470.2261 0.0000 0.0000 1753.7422 -7468.8585 300.2290 -9222.6007 -7468.8585 300.2290 57.7349 150.7187 30361.5827 57.7349 150.7187
ENERGY: 300000 1.5946 2.2159 0.2487 0.0000 -10791.9470 1468.7733 0.0000 0.0000 1745.5815 -7573.5330 298.8320 -9319.1145 -7502.3235 298.4677 42.6194 114.1328 29934.2983 126.2132 202.7841
ENERGY: 600000 1.2043 3.2566 0.4187 0.0000 -10758.3270 1486.6412 0.0000 0.0000 1776.6085 -7490.1976 304.1436 -9266.8061 -7499.4640 298.7364 180.9351 262.4832 30297.1748 74.3475 136.1518
ENERGY: 900000 3.3063 4.5493 0.5478 0.0000 -10810.6808 1494.5445 0.0000 0.0000 1756.5296 -7551.2032 300.7062 -9307.7328 -7521.1341 297.2277 359.4214 391.1151 29987.9942 -32.6113 31.3550
ENERGY: 1200000 3.3347 2.0436 1.7177 0.0000 -10694.5233 1460.3330 0.0000 0.0000 1727.4716 -7499.6227 295.7317 -9227.0943 -7522.5633 296.8755 2.6224 100.5205 30235.1383 15.0846 79.8620
ENERGY: 1500000 2.6428 4.3665 0.7875 0.0000 -10750.7723 1476.0313 0.0000 0.0000 1714.2476 -7552.6965 293.4678 -9266.9441 -7529.4482 296.6248 200.4547 252.9443 30149.2304 -19.0897 43.2155
TCL: Running FEP window  16: Lambda1 0.24999999999999967 Lambda2 0.19999999999999968 [dLambda -0.04999999999999999]
TCL: Setting parameter firsttimestep to 0
TCL: Setting parameter alchLambda to 0.24999999999999967
Info: NONBONDED TABLE R-SQUARED SPACING: 0.0625
Info: NONBONDED TABLE SIZE: 705 POINTS
TCL: Setting parameter alchLambda2 to 0.19999999999999968
Info: NONBONDED TABLE R-SQUARED SPACING: 0.0625
Info: NONBONDED TABLE SIZE: 705 POINTS
TCL: Running for 1500000 steps
ETITLE: TS BOND ANGLE DIHED IMPRP ELECT VDW BOUNDARY MISC KINETIC TOTAL TEMP POTENTIAL TOTALAVG TEMPAVG PRESSURE GPRESSURE VOLUME PRESSAVG GPRESSAVG
ENERGY: 0 2.6428 4.3665 0.7875 0.0000 -10750.7711 1476.5964 0.0000 0.0000 1713.3731 -7553.0047 293.3181 -9266.3778 -7553.0047 293.3181 157.0299 251.6983 30149.2304 157.0299 251.6983
ENERGY: 300000 1.3423 3.3887 0.2043 0.0000 -10792.4044 1580.4127 0.0000 0.0000 1718.7279 -7488.3286 294.2348 -9207.0565 -7476.5558 296.8014 1456.9434 1474.2199 29593.9418 718.7319 779.3621
ENERGY: 600000 4.8161 3.2470 0.3305 0.0000 -10765.3421 1518.4535 0.0000 0.0000 1756.1400 -7482.3549 300.6395 -9238.4950 -7464.1343 299.1435 323.0200 396.8852 30476.5213 715.5617 767.5073
ENERGY: 900000 2.3801 1.2793 0.7410 0.0000 -10760.5055 1477.4581 0.0000 0.0000 1745.9369 -7532.7101 298.8928 -9278.6470 -7470.1831 300.4204 234.3251 231.8181 29980.1946 423.0667 462.3637
ENERGY: 1200000 3.3799 2.1369 0.1308 0.0000 -10651.2665 1420.8064 0.0000 0.0000 1771.6663 -7453.1462 303.2975 -9224.8125 -7467.7150 300.5688 -345.1062 -268.5108 30355.5589 302.6049 347.3708
ENERGY: 1500000 1.7339 1.8748 0.3250 0.0000 -10603.9423 1403.3818 0.0000 0.0000 1762.9073 -7433.7195 301.7980 -9196.6267 -7477.3640 300.1975 -442.0774 -372.8330 30511.5495 226.4005 280.5993
TCL: Running FEP window  17: Lambda1 0.19999999999999968 Lambda2 0.1499999999999997 [dLambda -0.04999999999999999]
TCL: Setting parameter firsttimestep to 0
TCL: Setting parameter alchLambda to 0.19999999999999968
Info: NONBONDED TABLE R-SQUARED SPACING: 0.0625
Info: NONBONDED TABLE SIZE: 705 POINTS
TCL: Setting parameter alchLambda2 to 0.1499999999999997
Info: NONBONDED TABLE R-SQUARED SPACING: 0.0625
Info: NONBONDED TABLE SIZE: 705 POINTS
TCL: Running for 1500000 steps
ETITLE: TS BOND ANGLE DIHED IMPRP ELECT VDW BOUNDARY MISC KINETIC TOTAL TEMP POTENTIAL TOTALAVG TEMPAVG PRESSURE GPRESSURE VOLUME PRESSAVG GPRESSAVG
ENERGY: 0 1.7339 1.8748 0.3250 0.0000 -10603.9429 1403.8980 0.0000 0.0000 1762.0382 -7434.0728 301.6493 -9196.1111 -7434.0728 301.6493 -456.9209 -373.5671 30511.5495 -456.9209 -373.5671
ENERGY: 300000 0.9212 3.4762 0.4967 0.0000 -10649.9939 1424.4547 0.0000 0.0000 1761.9201 -7458.7251 301.6290 -9220.6452 -7445.0208 298.8407 -140.1955 -69.0378 30200.8055 -350.7324 -294.8079
ENERGY: 600000 3.0205 3.1297 0.8710 0.0000 -10531.5172 1320.3725 0.0000 0.0000 1765.5745 -7438.5490 302.2546 -9204.1235 -7459.9379 300.8643 -805.7097 -724.9480 30297.2893 -261.8329 -193.3677
ENERGY: 900000 2.1815 4.9731 0.5116 0.0000 -10575.0201 1373.8187 0.0000 0.0000 1746.8008 -7446.7343 299.0407 -9193.5351 -7470.0417 299.2590 -461.9377 -361.3877 29944.4676 -246.4313 -168.7645
ENERGY: 1200000 2.3192 4.5049 0.5767 0.0000 -10635.1577 1397.1448 0.0000 0.0000 1789.4443 -7441.1678 306.3410 -9230.6121 -7465.3927 299.7383 -169.9278 -131.8041 29955.2033 -207.2979 -125.8797
ENERGY: 1500000 2.7012 2.1049 0.2191 0.0000 -10518.1120 1322.8349 0.0000 0.0000 1765.1711 -7425.0809 302.1856 -9190.2520 -7469.6374 299.8037 -761.1264 -722.8878 30305.4783 -150.1626 -75.6496
TCL: Running FEP window  18: Lambda1 0.1499999999999997 Lambda2 0.09999999999999969 [dLambda -0.05 ]
TCL: Setting parameter firsttimestep to 0
TCL: Setting parameter alchLambda to 0.1499999999999997
Info: NONBONDED TABLE R-SQUARED SPACING: 0.0625
Info: NONBONDED TABLE SIZE: 705 POINTS
TCL: Setting parameter alchLambda2 to 0.09999999999999969
Info: NONBONDED TABLE R-SQUARED SPACING: 0.0625
Info: NONBONDED TABLE SIZE: 705 POINTS
TCL: Running for 1500000 steps
ETITLE: TS BOND ANGLE DIHED IMPRP ELECT VDW BOUNDARY MISC KINETIC TOTAL TEMP POTENTIAL TOTALAVG TEMPAVG PRESSURE GPRESSURE VOLUME PRESSAVG GPRESSAVG
ENERGY: 0 2.7012 2.1049 0.2191 0.0000 -10518.1136 1322.9456 0.0000 0.0000 1764.3240 -7425.8188 302.0406 -9190.1428 -7425.8188 302.0406 -807.4449 -724.3483 30305.4783 -807.4449 -724.3483
ENERGY: 300000 3.2611 3.6107 0.0979 0.0000 -10766.5318 1516.7069 0.0000 0.0000 1696.9317 -7545.9235 290.5034 -9242.8552 -7475.4146 298.6720 805.8532 778.3716 29699.7827 -261.0418 -194.3680
ENERGY: 600000 1.2271 2.8618 0.3527 0.0000 -10668.4566 1400.1716 0.0000 0.0000 1785.4106 -7478.4328 305.6504 -9263.8434 -7486.9471 300.4274 -387.8377 -330.6976 30048.4083 -35.6012 19.2788
ENERGY: 900000 1.3549 1.3549 0.3108 0.0000 -10599.8624 1379.5380 0.0000 0.0000 1795.8148 -7421.4890 307.4316 -9217.3038 -7478.4838 301.3729 -472.9962 -426.4344 30137.4320 -269.6335 -212.9785
ENERGY: 1200000 1.1402 4.6093 0.0840 0.0000 -10583.8345 1328.4567 0.0000 0.0000 1756.6520 -7492.8924 300.7272 -9249.5444 -7466.9683 301.6678 -834.0035 -767.2384 30212.5832 -140.2164 -84.5437
ENERGY: 1500000 0.6846 5.6975 1.5803 0.0000 -10748.2584 1517.8925 0.0000 0.0000 1736.6111 -7485.7923 297.2963 -9222.4035 -7458.5538 301.4186 577.7482 637.5197 30370.3911 -126.5899 -66.9102
TCL: Running FEP window  19: Lambda1 0.09999999999999969 Lambda2 0.049999999999999684 [dLambda -0.05 ]
TCL: Setting parameter firsttimestep to 0
TCL: Setting parameter alchLambda to 0.09999999999999969
Info: NONBONDED TABLE R-SQUARED SPACING: 0.0625
Info: NONBONDED TABLE SIZE: 705 POINTS
TCL: Setting parameter alchLambda2 to 0.049999999999999684
Info: NONBONDED TABLE R-SQUARED SPACING: 0.0625
Info: NONBONDED TABLE SIZE: 705 POINTS
TCL: Running for 1500000 steps
ETITLE: TS BOND ANGLE DIHED IMPRP ELECT VDW BOUNDARY MISC KINETIC TOTAL TEMP POTENTIAL TOTALAVG TEMPAVG PRESSURE GPRESSURE VOLUME PRESSAVG GPRESSAVG
ENERGY: 0 0.6846 5.6975 1.5803 0.0000 -10748.2592 1517.5286 0.0000 0.0000 1735.7590 -7487.0092 297.1504 -9222.7682 -7487.0092 297.1504 548.6095 629.8262 30370.3911 548.6095 629.8262
ENERGY: 300000 1.9506 3.6797 0.0653 0.0000 -10540.1683 1394.0044 0.0000 0.0000 1719.9962 -7420.4720 294.4519 -9140.4683 -7488.9431 297.0769 -276.5010 -183.2175 30313.4192 27.5716 110.9852
ENERGY: 600000 1.8245 2.7857 0.7725 0.0000 -10625.2392 1474.0695 0.0000 0.0000 1731.0206 -7414.7665 296.3392 -9145.7871 -7450.9549 299.3055 504.7785 577.6485 30211.3623 -2.8719 85.3849
ENERGY: 900000 2.0537 7.5362 0.4352 0.0000 -10615.5750 1423.6858 0.0000 0.0000 1711.3006 -7470.5633 292.9633 -9181.8639 -7446.7027 299.4047 -311.1091 -219.0685 30373.0199 -34.2639 44.7129
ENERGY: 1200000 2.4910 2.6056 0.7047 0.0000 -10635.6328 1381.4076 0.0000 0.0000 1741.0082 -7507.4158 298.0490 -9248.4240 -7451.3556 299.3172 -366.4638 -329.5265 30029.2664 -36.0320 33.1031
ENERGY: 1500000 1.9073 1.7630 0.6121 0.0000 -10605.7807 1434.8296 0.0000 0.0000 1688.1270 -7478.5417 288.9961 -9166.6687 -7461.5983 297.7646 12.1571 187.4465 30042.1207 -38.4172 39.9587
TCL: Running FEP window  20: Lambda1 0.049999999999999684 Lambda2 0.0    [dLambda -0.049999999999999684]
TCL: Setting parameter firsttimestep to 0
TCL: Setting parameter alchLambda to 0.049999999999999684
Info: NONBONDED TABLE R-SQUARED SPACING: 0.0625
Info: NONBONDED TABLE SIZE: 705 POINTS
TCL: Setting parameter alchLambda2 to 0.0
Info: NONBONDED TABLE R-SQUARED SPACING: 0.0625
Info: NONBONDED TABLE SIZE: 705 POINTS
TCL: Running for 1500000 steps
ETITLE: TS BOND ANGLE DIHED IMPRP ELECT VDW BOUNDARY MISC KINETIC TOTAL TEMP POTENTIAL TOTALAVG TEMPAVG PRESSURE GPRESSURE VOLUME PRESSAVG GPRESSAVG
ENERGY: 0 1.9073 1.7630 0.6121 0.0000 -10605.7807 1434.2673 0.0000 0.0000 1687.2443 -7479.9868 288.8450 -9167.2311 -7479.9868 288.8450 115.4476 184.6541 30042.1207 115.4476 184.6541
ENERGY: 300000 1.0584 7.8109 0.6209 0.0000 -10588.9733 1346.0101 0.0000 0.0000 1751.4044 -7482.0686 299.8288 -9233.4730 -7525.8627 293.3588 -636.9206 -586.3104 29880.1201 -69.5527 -10.6824
ENERGY: 600000 3.4107 3.8644 0.2743 0.0000 -10826.4237 1534.0672 0.0000 0.0000 1781.8627 -7502.9445 305.0431 -9284.8072 -7514.3525 297.1278 167.2434 284.6306 30512.6262 -57.0605 8.4187
ENERGY: 900000 0.5155 4.7298 0.2638 0.0000 -10721.2604 1510.3166 0.0000 0.0000 1769.0912 -7436.3435 302.8567 -9205.4347 -7504.7841 298.3112 180.1851 274.1995 30874.5302 -58.2121 11.2572
ENERGY: 1200000 3.5500 2.3822 0.1639 0.0000 -10721.7590 1459.2715 0.0000 0.0000 1753.1693 -7503.2221 300.1310 -9256.3914 -7483.5242 298.6153 -47.9537 -15.5607 30464.8040 -181.2198 -113.7456
ENERGY: 1500000 3.5690 2.3614 0.0574 0.0000 -10350.6860 1219.8502 0.0000 0.0000 1736.1703 -7388.6776 297.2208 -9124.8479 -7477.9513 299.4840 -1467.4189 -1412.4178 30674.9786 -193.9073 -129.4362
TCL: Exiting due to exit command.
