Info: SIMULATION PARAMETERS:
Info: TIMESTEP               2
Info: NUMBER OF STEPS        0
Info: STEPS PER CYCLE        10
Info: PERIODIC CELL BASIS 1  31.1152 0 0
Info: PERIODIC CELL BASIS 2  0 30.3273 0
Info: PERIODIC CELL BASIS 3  0 0 32.194
Info: PERIODIC CELL CENTER   0 0 0
Info: WRAPPING WATERS AROUND PERIODIC BOUNDARIES ON OUTPUT.
Info: WRAPPING ALL CLUSTERS AROUND PERIODIC BOUNDARIES ON OUTPUT.
Info: FIRST LDB TIMESTEP     50
Info: LAST LDB TIMESTEP     -1
Info: HOM BACKGROUND SCALING 1
Info: PME BACKGROUND SCALING 1
Info: MIN ATOMS PER PATCH    40
Info: EMPTY PATCH LOAD       40 ATOMS
Info: VELOCITY FILE          mobley_2789243_equil.vel
Info: CENTER OF MASS MOVING INITIALLY? NO
Info: DIELECTRIC             1
Info: EXCLUDE                SCALED ONE-FOUR
Info: 1-4 ELECTROSTATICS SCALED BY 0.833333
Info: MODIFIED 1-4 VDW PARAMETERS WILL BE USED
Info: DCD FILENAME           mobley_2789243_prod.dcd
Info: DCD FREQUENCY          100000
Info: DCD FIRST STEP         100000
Info: DCD FILE WILL CONTAIN UNIT CELL DATA
Info: XST FILENAME           mobley_2789243_prod.xst
Info: XST FREQUENCY          100000
Info: NO VELOCITY DCD OUTPUT
Info: NO FORCE DCD OUTPUT
Info: OUTPUT FILENAME        mobley_2789243_prod
Info: BINARY OUTPUT FILES WILL BE USED
Info: RESTART FILENAME       mobley_2789243_prod.restart
Info: RESTART FREQUENCY      100000
Info: BINARY RESTART FILES WILL BE USED
Info: CUTOFF                 9
Info: PAIRLIST DISTANCE      11
Info: PAIRLIST SHRINK RATE   0.01
Info: PAIRLIST GROW RATE     0.01
Info: PAIRLIST TRIGGER       0.3
Info: PAIRLISTS PER CYCLE    2
Info: PAIRLISTS ENABLED
Info: MARGIN                 2
Info: HYDROGEN GROUP CUTOFF  2.5
Info: PATCH DIMENSION        15.5
Info: ENERGY OUTPUT STEPS    100000
Info: ENERGY EVALUATION STEPS    100000
Info: OUTPUT ENERGY PRECISION 4
Info: CROSSTERM ENERGY INCLUDED IN DIHEDRAL
Info: TIMING OUTPUT STEPS    1000000
Info: PRESSURE OUTPUT STEPS  100000
Info: ALCHEMICAL FEP ON
Info: FEP CURRENT LAMBDA VALUE     0
Info: FEP COMPARISON LAMBDA VALUE  0.05
Info: FEP INTRA-ALCHEMICAL NON-BONDED INTERACTIONS WILL BE RETAINED
Info: FEP INTRA-ALCHEMICAL BONDED INTERACTIONS WILL BE RETAINED
Info: FEP VDW SHIFTING COEFFICIENT 5
Info: FEP ELEC. ACTIVE FOR ANNIHILATED PARTICLES BETWEEN LAMBDA = 0 AND LAMBDA = 0.5
Info: FEP ELEC. ACTIVE FOR EXNIHILATED PARTICLES BETWEEN LAMBDA = 0.5 AND LAMBDA = 1
Info: FEP VDW ACTIVE FOR ANNIHILATED PARTICLES BETWEEN LAMBDA = 0 AND LAMBDA = 1
Info: FEP VDW ACTIVE FOR EXNIHILATED PARTICLES BETWEEN LAMBDA = 0 AND LAMBDA = 1
Info: FEP BOND ACTIVE FOR ANNIHILATED PARTICLES BETWEEN LAMBDA = 1 AND LAMBDA = 1
Info: FEP BOND ACTIVE FOR EXNIHILATED PARTICLES BETWEEN LAMBDA = 0 AND LAMBDA = 0
Info: LANGEVIN DYNAMICS ACTIVE
Info: LANGEVIN TEMPERATURE   300
Info: LANGEVIN USING BBK INTEGRATOR
Info: LANGEVIN DAMPING COEFFICIENT IS 1 INVERSE PS
Info: LANGEVIN DYNAMICS APPLIED TO HYDROGENS
Info: LANGEVIN PISTON PRESSURE CONTROL ACTIVE
Info:        TARGET PRESSURE IS 1.01325 BAR
Info:     OSCILLATION PERIOD IS 50 FS
Info:             DECAY TIME IS 25 FS
Info:     PISTON TEMPERATURE IS 300 K
Info:       PRESSURE CONTROL IS GROUP-BASED
Info:    INITIAL STRAIN RATE IS 0.000432418 0.000432418 0.000432418
Info:       CELL FLUCTUATION IS ISOTROPIC
Info: PARTICLE MESH EWALD (PME) ACTIVE
Info: PME TOLERANCE               1e-06
Info: PME EWALD COEFFICIENT       0.348832
Info: PME INTERPOLATION ORDER     4
Info: PME GRID DIMENSIONS         32 32 36
Info: PME MAXIMUM GRID SPACING    1
Info: PME CALCULATION WILL BE PERFORMED ON GPU
Info: FULL ELECTROSTATIC EVALUATION FREQUENCY      2
Info: USING VERLET I (r-RESPA) MTS SCHEME.
Info: C1 SPLITTING OF LONG RANGE ELECTROSTATICS
Info: PLACING ATOMS IN PATCHES BY HYDROGEN GROUPS
Info: RIGID BONDS TO HYDROGEN : ALL
Info:         ERROR TOLERANCE : 1e-08
Info:          MAX ITERATIONS : 100
Info: RIGID WATER USING SETTLE ALGORITHM
Info: RANDOM NUMBER SEED     1742111772
Info: USE HYDROGEN BONDS?    NO
Info: Using AMBER format force field!
Info: AMBER PARM FILE        mobley_2789243.prmtop
Info: COORDINATE PDB         mobley_2789243.pdb
Info: Exclusions will be read from PARM file!
Info: SCNB (VDW SCALING)     2
Info: USING ARITHMETIC MEAN TO COMBINE L-J SIGMA PARAMETERS
Info: BINARY COORDINATES     mobley_2789243_equil.coor
Info: SUMMARY OF PARAMETERS:
Info: 7 BONDS
Info: 7 ANGLES
Info:   7 HARMONIC
Info:   0 COSINE-BASED
Info: 3 DIHEDRAL
Info: 0 IMPROPER
Info: 0 CROSSTERM
Info: 0 VDW
Info: 28 VDW_PAIRS
Info: 0 NBTHOLE_PAIRS
Info: To read alchdata from file: mobley_2789243.pdb
Info: To read alchflag data from column: 5
Info: STRUCTURE SUMMARY:
Info: 2921 ATOMS
Info: 2921 BONDS
Info: 16 ANGLES
Info: 23 DIHEDRALS
Info: 0 IMPROPERS
Info: 0 CROSSTERMS
Info: 2954 EXCLUSIONS
Info: 2914 RIGID BONDS
Info: ALCH: 0 ATOMS TO DISAPPEAR IN FINAL STATE
Info: ALCH: 11 ATOMS TO APPEAR IN FINAL STATE
Info: 5849 DEGREES OF FREEDOM
Info: 977 HYDROGEN GROUPS
Info: 3 ATOMS IN LARGEST HYDROGEN GROUP
Info: 977 MIGRATION GROUPS
Info: 3 ATOMS IN LARGEST MIGRATION GROUP
Info: TOTAL MASS = 17589.1 amu
Info: TOTAL CHARGE = 0.000200003 e
Info: MASS DENSITY = 0.961435 g/cm^3
Info: ATOM DENSITY = 0.0961501 atoms/A^3
Info: ADDED 0 IMPLICIT EXCLUSIONS
Info: NONBONDED TABLE R-SQUARED SPACING: 0.0625
Info: NONBONDED TABLE SIZE: 705 POINTS
Info: REMOVING COM VELOCITY -0.139557 0.0160785 -0.0781008
Info: Use 3D box decompostion in PME FFT.
Info: Updated CUDA force table with 4096 elements.
Info: Updated CUDA LJ table with 7 x 7 elements.
Info: Found 14 unique exclusion lists needing 24 bytes
TCL: Running for 1500000 steps
ETITLE: TS BOND ANGLE DIHED IMPRP ELECT VDW BOUNDARY MISC KINETIC TOTAL TEMP POTENTIAL TOTALAVG TEMPAVG PRESSURE GPRESSURE VOLUME PRESSAVG GPRESSAVG
ENERGY: 0 1.7261 0.6210 2.5285 0.0000 -10431.1217 1326.4904 0.0000 0.0000 1720.8010 -7378.9546 296.1007 -9099.7556 -7378.9546 296.1007 -908.1880 -817.3657 30379.5841 -908.1880 -817.3657
ENERGY: 300000 1.4441 4.7105 1.0823 0.0000 -10587.7816 1462.3802 0.0000 0.0000 1749.0918 -7369.0726 300.9687 -9118.1644 -7375.4773 301.1697 385.1657 437.1981 29937.8934 173.2514 242.1647
ENERGY: 600000 2.0972 1.1205 0.6428 0.0000 -10614.3528 1441.4090 0.0000 0.0000 1729.0250 -7440.0582 297.5158 -9169.0833 -7375.6999 302.4392 143.6855 220.4314 30052.6222 86.6810 153.0992
ENERGY: 900000 3.1566 2.3256 2.9020 0.0000 -10581.0477 1398.2852 0.0000 0.0000 1729.9415 -7444.4368 297.6735 -9174.3783 -7399.6284 301.3761 -367.0260 -273.8814 29960.3375 -111.2246 -49.3623
ENERGY: 1200000 1.7314 3.7227 2.3324 0.0000 -10534.3482 1349.5470 0.0000 0.0000 1736.3780 -7440.6368 298.7810 -9177.0148 -7405.4022 301.1291 -732.1588 -631.0946 29855.2962 -203.0830 -136.6696
ENERGY: 1500000 1.2944 3.2232 3.6691 0.0000 -10681.0319 1461.3817 0.0000 0.0000 1726.3044 -7485.1591 297.0477 -9211.4635 -7408.3180 300.9057 -138.5137 -84.2839 30162.1061 -178.7306 -113.7844
TCL: Running FEP window   2: Lambda1 0.05   Lambda2 0.1    [dLambda 0.05  ]
TCL: Setting parameter firsttimestep to 0
TCL: Setting parameter alchLambda to 0.05
Info: NONBONDED TABLE R-SQUARED SPACING: 0.0625
Info: NONBONDED TABLE SIZE: 705 POINTS
TCL: Setting parameter alchLambda2 to 0.1
Info: NONBONDED TABLE R-SQUARED SPACING: 0.0625
Info: NONBONDED TABLE SIZE: 705 POINTS
TCL: Running for 1500000 steps
ETITLE: TS BOND ANGLE DIHED IMPRP ELECT VDW BOUNDARY MISC KINETIC TOTAL TEMP POTENTIAL TOTALAVG TEMPAVG PRESSURE GPRESSURE VOLUME PRESSAVG GPRESSAVG
ENERGY: 0 1.2944 3.2232 3.6691 0.0000 -10681.0313 1462.2744 0.0000 0.0000 1725.4095 -7485.1608 296.8937 -9210.5702 -7485.1608 296.8937 -165.1495 -81.8754 30162.1061 -165.1495 -81.8754
ENERGY: 300000 1.1009 2.5411 2.6223 0.0000 -10681.5917 1453.5409 0.0000 0.0000 1754.9974 -7466.7891 301.9849 -9221.7865 -7434.5444 300.5057 -35.0150 66.4499 29860.0241 -278.2267 -199.5657
ENERGY: 600000 3.5113 2.9350 1.0561 0.0000 -10653.9404 1461.4774 0.0000 0.0000 1756.7820 -7428.1786 302.2920 -9184.9606 -7411.3822 301.3717 217.9662 268.1730 30070.2633 -179.8876 -97.5536
ENERGY: 900000 2.3335 3.9325 1.6433 0.0000 -10621.9413 1459.7407 0.0000 0.0000 1758.9280 -7395.3634 302.6613 -9154.2914 -7407.2993 302.0856 170.4533 125.0673 30274.2425 -59.3404 16.7999
ENERGY: 1200000 0.4105 2.4739 2.4843 0.0000 -10600.3962 1403.0399 0.0000 0.0000 1680.4840 -7511.5036 289.1633 -9191.9876 -7409.3159 300.2232 -109.2167 -5.9448 29768.6951 -154.9768 -70.8966
ENERGY: 1500000 2.8153 2.6227 1.4847 0.0000 -10646.8789 1436.7867 0.0000 0.0000 1726.5723 -7476.5972 297.0938 -9203.1694 -7412.4604 300.4554 51.5147 107.8945 29753.4861 -150.9161 -67.4716
TCL: Running FEP window   3: Lambda1 0.1    Lambda2 0.15000000000000002 [dLambda 0.05000000000000002]
TCL: Setting parameter firsttimestep to 0
TCL: Setting parameter alchLambda to 0.1
Info: NONBONDED TABLE R-SQUARED SPACING: 0.0625
Info: NONBONDED TABLE SIZE: 705 POINTS
TCL: Setting parameter alchLambda2 to 0.15000000000000002
Info: NONBONDED TABLE R-SQUARED SPACING: 0.0625
Info: NONBONDED TABLE SIZE: 705 POINTS
TCL: Running for 1500000 steps
ETITLE: TS BOND ANGLE DIHED IMPRP ELECT VDW BOUNDARY MISC KINETIC TOTAL TEMP POTENTIAL TOTALAVG TEMPAVG PRESSURE GPRESSURE VOLUME PRESSAVG GPRESSAVG
ENERGY: 0 2.8153 2.6227 1.4847 0.0000 -10646.8795 1438.9244 0.0000 0.0000 1725.7019 -7475.3304 296.9440 -9201.0323 -7475.3304 296.9440 46.1753 117.3484 29753.4861 46.1753 117.3484
ENERGY: 300000 2.4161 1.3759 2.0151 0.0000 -10458.1274 1330.3612 0.0000 0.0000 1745.1385 -7376.8205 300.2885 -9121.9591 -7430.3461 298.9303 -762.3669 -675.0946 30457.2636 -337.5424 -262.4722
ENERGY: 600000 1.3145 2.7350 6.0497 0.0000 -10733.1669 1458.8135 0.0000 0.0000 1727.1490 -7537.1052 297.1930 -9264.2541 -7461.2329 297.7670 -85.0584 25.4268 29708.8540 -31.6731 43.0794
ENERGY: 900000 4.0583 2.7883 1.0771 0.0000 -10583.4479 1417.3883 0.0000 0.0000 1762.5432 -7395.5927 303.2833 -9158.1359 -7440.1506 299.3618 -163.5486 -98.1837 29936.3778 -71.0142 3.0840
ENERGY: 1200000 0.8733 5.0766 4.2033 0.0000 -10646.5310 1465.5543 0.0000 0.0000 1731.2606 -7439.5629 297.9005 -9170.8235 -7436.8244 299.8705 138.5431 169.9762 30096.6471 -19.1116 48.9384
ENERGY: 1500000 1.3380 1.3391 1.9081 0.0000 -10733.9983 1504.9395 0.0000 0.0000 1735.4587 -7489.0150 298.6229 -9224.4737 -7444.2475 299.3134 447.7173 503.2222 29725.8001 -3.8126 59.2383
TCL: Running FEP window   4: Lambda1 0.15000000000000002 Lambda2 0.2    [dLambda 0.04999999999999999]
TCL: Setting parameter firsttimestep to 0
TCL: Setting parameter alchLambda to 0.15000000000000002
Info: NONBONDED TABLE R-SQUARED SPACING: 0.0625
Info: NONBONDED TABLE SIZE: 705 POINTS
TCL: Setting parameter alchLambda2 to 0.2
Info: NONBONDED TABLE R-SQUARED SPACING: 0.0625
Info: NONBONDED TABLE SIZE: 705 POINTS
TCL: Running for 1500000 steps
ETITLE: TS BOND ANGLE DIHED IMPRP ELECT VDW BOUNDARY MISC KINETIC TOTAL TEMP POTENTIAL TOTALAVG TEMPAVG PRESSURE GPRESSURE VOLUME PRESSAVG GPRESSAVG
ENERGY: 0 1.3380 1.3391 1.9081 0.0000 -10733.9985 1505.3826 0.0000 0.0000 1734.6167 -7489.4141 298.4780 -9224.0308 -7489.4141 298.4780 436.3141 507.9907 29725.8001 436.3141 507.9907
ENERGY: 300000 1.7610 1.6231 2.2167 0.0000 -10736.4683 1568.0616 0.0000 0.0000 1793.3911 -7369.4148 308.5914 -9162.8059 -7399.7285 304.6683 1254.3522 1283.0360 29697.3003 763.9909 826.4626
ENERGY: 600000 2.4350 1.9401 1.2257 0.0000 -10683.8309 1486.9111 0.0000 0.0000 1689.7665 -7501.5525 290.7605 -9191.3190 -7425.3249 300.3380 270.9049 241.0691 29970.2335 493.3611 543.6925
ENERGY: 900000 1.4429 5.1842 4.3993 0.0000 -10510.8082 1391.1719 0.0000 0.0000 1769.5208 -7339.0891 304.4840 -9108.6099 -7416.8884 300.1118 -98.9048 -110.2717 30205.2278 292.4717 339.3497
ENERGY: 1200000 1.3836 1.0929 1.2278 0.0000 -10545.6714 1404.1594 0.0000 0.0000 1729.2520 -7408.5557 297.5549 -9137.8077 -7415.1744 300.6755 -120.6971 -105.0503 29925.4711 122.8264 171.5217
ENERGY: 1500000 2.0194 3.2878 1.4320 0.0000 -10482.2076 1350.2524 0.0000 0.0000 1696.5011 -7428.7149 291.9194 -9125.2160 -7419.1306 299.7086 -608.6947 -564.3973 30097.2283 48.0216 93.2909
TCL: Running FEP window   5: Lambda1 0.2    Lambda2 0.25   [dLambda 0.04999999999999999]
TCL: Setting parameter firsttimestep to 0
TCL: Setting parameter alchLambda to 0.2
Info: NONBONDED TABLE R-SQUARED SPACING: 0.0625
Info: NONBONDED TABLE SIZE: 705 POINTS
TCL: Setting parameter alchLambda2 to 0.25
Info: NONBONDED TABLE R-SQUARED SPACING: 0.0625
Info: NONBONDED TABLE SIZE: 705 POINTS
TCL: Running for 1500000 steps
ETITLE: TS BOND ANGLE DIHED IMPRP ELECT VDW BOUNDARY MISC KINETIC TOTAL TEMP POTENTIAL TOTALAVG TEMPAVG PRESSURE GPRESSURE VOLUME PRESSAVG GPRESSAVG
ENERGY: 0 2.0194 3.2878 1.4320 0.0000 -10482.2074 1349.6966 0.0000 0.0000 1695.6333 -7430.1383 291.7700 -9125.7716 -7430.1383 291.7700 -635.0376 -566.1162 30097.2283 -635.0376 -566.1162
ENERGY: 300000 2.1813 2.6922 1.7016 0.0000 -10634.7130 1451.5833 0.0000 0.0000 1758.9931 -7417.5615 302.6724 -9176.5546 -7412.7510 298.4908 28.9726 18.8158 30402.4058 -324.0158 -283.0972
ENERGY: 600000 0.6655 2.7156 3.4533 0.0000 -10604.2123 1431.2271 0.0000 0.0000 1710.7592 -7455.3916 294.3728 -9166.1508 -7394.5349 299.5772 -169.3388 -59.1873 30036.7297 -218.8585 -165.6048
ENERGY: 900000 3.9784 2.0848 3.1339 0.0000 -10563.8820 1427.1794 0.0000 0.0000 1791.5701 -7335.9353 308.2780 -9127.5054 -7389.1273 300.4071 212.0942 194.9019 30149.3114 -168.3009 -120.5399
ENERGY: 1200000 2.2716 2.0150 5.0777 0.0000 -10656.4909 1420.8363 0.0000 0.0000 1737.5191 -7488.7711 298.9774 -9226.2902 -7404.4268 299.8891 -226.9844 -237.8871 29994.7326 -184.5401 -133.9284
ENERGY: 1500000 2.6115 1.0883 1.8870 0.0000 -10356.5069 1268.8950 0.0000 0.0000 1746.7225 -7335.3025 300.5610 -9082.0250 -7407.4659 299.4365 -801.2595 -767.2247 29971.2266 -163.1461 -111.9437
TCL: Running FEP window   6: Lambda1 0.25   Lambda2 0.3    [dLambda 0.04999999999999999]
TCL: Setting parameter firsttimestep to 0
TCL: Setting parameter alchLambda to 0.25
Info: NONBONDED TABLE R-SQUARED SPACING: 0.0625
Info: NONBONDED TABLE SIZE: 705 POINTS
TCL: Setting parameter alchLambda2 to 0.3
Info: NONBONDED TABLE R-SQUARED SPACING: 0.0625
Info: NONBONDED TABLE SIZE: 705 POINTS
TCL: Running for 1500000 steps
ETITLE: TS BOND ANGLE DIHED IMPRP ELECT VDW BOUNDARY MISC KINETIC TOTAL TEMP POTENTIAL TOTALAVG TEMPAVG PRESSURE GPRESSURE VOLUME PRESSAVG GPRESSAVG
ENERGY: 0 2.6115 1.0883 1.8870 0.0000 -10356.5084 1268.9004 0.0000 0.0000 1745.8540 -7336.1672 300.4116 -9082.0212 -7336.1672 300.4116 -842.0082 -764.6282 29971.2266 -842.0082 -764.6282
ENERGY: 300000 2.5218 2.5549 1.0382 0.0000 -10591.8852 1411.1699 0.0000 0.0000 1787.0950 -7387.5055 307.5080 -9174.6004 -7386.1789 302.9496 -117.6060 -117.5443 29968.5261 9.4863 80.7807
ENERGY: 600000 1.0345 2.5281 4.1757 0.0000 -10570.2714 1412.1508 0.0000 0.0000 1718.9471 -7431.4353 295.7817 -9150.3824 -7401.9974 302.2854 -123.0416 -81.6652 29916.0074 72.2359 141.2912
ENERGY: 900000 0.8924 2.8825 2.4541 0.0000 -10723.2647 1480.8730 0.0000 0.0000 1757.1512 -7479.0114 302.3555 -9236.1626 -7409.8152 302.1098 72.2175 140.4728 30122.1029 154.0713 219.6773
ENERGY: 1200000 2.0257 4.0036 4.1722 0.0000 -10546.4316 1384.7613 0.0000 0.0000 1756.0349 -7395.4338 302.1634 -9151.4688 -7407.6069 300.4365 -572.2827 -528.8520 30261.3305 16.6464 82.5561
ENERGY: 1500000 0.8565 1.1260 3.5120 0.0000 -10706.3810 1449.6896 0.0000 0.0000 1759.5170 -7491.6799 302.7626 -9251.1969 -7412.2492 300.7499 -15.9750 -37.4772 30080.5195 -97.7588 -33.0934
TCL: Running FEP window   7: Lambda1 0.3    Lambda2 0.35   [dLambda 0.04999999999999999]
TCL: Setting parameter firsttimestep to 0
TCL: Setting parameter alchLambda to 0.3
Info: NONBONDED TABLE R-SQUARED SPACING: 0.0625
Info: NONBONDED TABLE SIZE: 705 POINTS
TCL: Setting parameter alchLambda2 to 0.35
Info: NONBONDED TABLE R-SQUARED SPACING: 0.0625
Info: NONBONDED TABLE SIZE: 705 POINTS
TCL: Running for 1500000 steps
ETITLE: TS BOND ANGLE DIHED IMPRP ELECT VDW BOUNDARY MISC KINETIC TOTAL TEMP POTENTIAL TOTALAVG TEMPAVG PRESSURE GPRESSURE VOLUME PRESSAVG GPRESSAVG
ENERGY: 0 0.8565 1.1260 3.5120 0.0000 -10706.3810 1449.6717 0.0000 0.0000 1758.6942 -7492.5206 302.6210 -9251.2148 -7492.5206 302.6210 -113.4639 -33.0951 30080.5195 -113.4639 -33.0951
ENERGY: 300000 1.2255 1.2408 2.7955 0.0000 -10526.4740 1354.5547 0.0000 0.0000 1675.2552 -7491.4024 288.2635 -9166.6575 -7431.7523 298.3007 -594.7170 -540.3802 29771.7792 -191.9360 -136.2502
ENERGY: 600000 1.2474 2.1671 3.8394 0.0000 -10507.4042 1336.5937 0.0000 0.0000 1726.3721 -7437.1844 297.0593 -9163.5566 -7414.2099 299.0377 -678.8788 -612.7481 29786.1279 -189.7729 -122.0377
ENERGY: 900000 2.2122 1.9233 1.0685 0.0000 -10663.5358 1452.6472 0.0000 0.0000 1699.1810 -7506.5036 292.3805 -9205.6846 -7423.1145 298.3470 61.4042 69.6763 30161.2477 -266.4686 -210.2479
ENERGY: 1200000 2.0159 2.4693 1.6578 0.0000 -10518.3386 1382.8066 0.0000 0.0000 1756.8603 -7372.5287 302.3055 -9129.3890 -7431.7144 297.8309 -469.9936 -376.6648 30314.5488 -295.2193 -244.3379
ENERGY: 1500000 3.0512 2.7133 2.8416 0.0000 -10635.7240 1428.1572 0.0000 0.0000 1749.8395 -7449.1212 301.0974 -9198.9607 -7431.3569 298.5327 -189.3095 -105.3177 29755.3577 -229.3667 -175.1893
TCL: Running FEP window   8: Lambda1 0.35   Lambda2 0.39999999999999997 [dLambda 0.04999999999999999]
TCL: Setting parameter firsttimestep to 0
TCL: Setting parameter alchLambda to 0.35
Info: NONBONDED TABLE R-SQUARED SPACING: 0.0625
Info: NONBONDED TABLE SIZE: 705 POINTS
TCL: Setting parameter alchLambda2 to 0.39999999999999997
Info: NONBONDED TABLE R-SQUARED SPACING: 0.0625
Info: NONBONDED TABLE SIZE: 705 POINTS
TCL: Running for 1500000 steps
ETITLE: TS BOND ANGLE DIHED IMPRP ELECT VDW BOUNDARY MISC KINETIC TOTAL TEMP POTENTIAL TOTALAVG TEMPAVG PRESSURE GPRESSURE VOLUME PRESSAVG GPRESSAVG
ENERGY: 0 3.0512 2.7133 2.8416 0.0000 -10635.7235 1428.4212 0.0000 0.0000 1748.9975 -7449.6987 300.9525 -9198.6963 -7449.6987 300.9525 -187.3920 -102.5602 29755.3577 -187.3920 -102.5602
ENERGY: 300000 0.8437 1.5254 1.1181 0.0000 -10401.6933 1305.9858 0.0000 0.0000 1710.2551 -7381.9652 294.2860 -9092.2202 -7466.4909 295.7103 -1016.5044 -918.9201 30506.5675 -303.8205 -239.7711
ENERGY: 600000 2.1350 1.4606 1.8633 0.0000 -10593.7443 1416.6773 0.0000 0.0000 1748.8560 -7422.7522 300.9281 -9171.6081 -7428.5698 297.2337 -466.2237 -357.7529 30327.6138 -132.3118 -52.0427
ENERGY: 900000 3.6215 4.8981 2.4231 0.0000 -10587.4620 1436.3696 0.0000 0.0000 1771.8686 -7368.2811 304.8880 -9140.1497 -7421.1702 297.4598 174.8615 225.1386 29910.3897 -86.8908 -11.6556
ENERGY: 1200000 2.0755 1.6221 2.8466 0.0000 -10649.1740 1465.2368 0.0000 0.0000 1764.9527 -7412.4403 303.6979 -9177.3930 -7421.2534 299.5221 322.2973 373.1784 29941.9543 3.3640 78.4275
ENERGY: 1500000 1.0845 3.8687 1.4896 0.0000 -10541.4050 1400.4396 0.0000 0.0000 1744.7631 -7389.7594 300.2239 -9134.5226 -7422.6744 299.2143 10.4535 79.2859 29783.4216 43.5817 113.4274
TCL: Running FEP window   9: Lambda1 0.39999999999999997 Lambda2 0.44999999999999996 [dLambda 0.04999999999999999]
TCL: Setting parameter firsttimestep to 0
TCL: Setting parameter alchLambda to 0.39999999999999997
Info: NONBONDED TABLE R-SQUARED SPACING: 0.0625
Info: NONBONDED TABLE SIZE: 705 POINTS
TCL: Setting parameter alchLambda2 to 0.44999999999999996
Info: NONBONDED TABLE R-SQUARED SPACING: 0.0625
Info: NONBONDED TABLE SIZE: 705 POINTS
TCL: Running for 1500000 steps
ETITLE: TS BOND ANGLE DIHED IMPRP ELECT VDW BOUNDARY MISC KINETIC TOTAL TEMP POTENTIAL TOTALAVG TEMPAVG PRESSURE GPRESSURE VOLUME PRESSAVG GPRESSAVG
ENERGY: 0 1.0845 3.8687 1.4896 0.0000 -10541.4057 1400.3230 0.0000 0.0000 1743.8731 -7390.7668 300.0707 -9134.6399 -7390.7668 300.0707 -12.9454 84.1501 29783.4216 -12.9454 84.1501
ENERGY: 300000 0.9723 1.5427 2.5770 0.0000 -10469.6218 1339.1459 0.0000 0.0000 1707.9551 -7417.4289 293.8903 -9125.3840 -7439.6851 296.4574 -478.1342 -404.5518 29859.5894 -81.1615 -11.1160
ENERGY: 600000 1.6255 2.7280 3.9155 0.0000 -10587.7514 1421.5524 0.0000 0.0000 1713.5502 -7444.3797 294.8530 -9157.9299 -7419.7431 296.3946 -246.4413 -181.3416 30427.0233 -211.2675 -137.9807
ENERGY: 900000 2.4196 2.2544 2.2804 0.0000 -10586.8912 1486.9870 0.0000 0.0000 1727.0173 -7365.9325 297.1703 -9092.9498 -7413.8425 297.6759 681.7902 787.4557 29778.4950 -75.0969 -6.1833
ENERGY: 1200000 1.9623 1.3823 2.5414 0.0000 -10495.0074 1366.2601 0.0000 0.0000 1700.9356 -7421.9257 292.6824 -9122.8613 -7406.1678 297.7909 -496.1902 -394.6421 30177.0464 -53.2100 17.7611
ENERGY: 1500000 3.1009 2.2575 2.7774 0.0000 -10473.6116 1364.1268 0.0000 0.0000 1766.6899 -7334.6591 303.9968 -9101.3490 -7404.6452 298.8361 -451.7468 -378.2915 30089.1111 -99.3688 -27.2523
TCL: Running FEP window  10: Lambda1 0.44999999999999996 Lambda2 0.49999999999999994 [dLambda 0.04999999999999999]
TCL: Setting parameter firsttimestep to 0
TCL: Setting parameter alchLambda to 0.44999999999999996
Info: NONBONDED TABLE R-SQUARED SPACING: 0.0625
Info: NONBONDED TABLE SIZE: 705 POINTS
TCL: Setting parameter alchLambda2 to 0.49999999999999994
Info: NONBONDED TABLE R-SQUARED SPACING: 0.0625
Info: NONBONDED TABLE SIZE: 705 POINTS
TCL: Running for 1500000 steps
ETITLE: TS BOND ANGLE DIHED IMPRP ELECT VDW BOUNDARY MISC KINETIC TOTAL TEMP POTENTIAL TOTALAVG TEMPAVG PRESSURE GPRESSURE VOLUME PRESSAVG GPRESSAVG
ENERGY: 0 3.1009 2.2575 2.7774 0.0000 -10473.6119 1364.0064 0.0000 0.0000 1765.8408 -7335.6289 303.8508 -9101.4697 -7335.6289 303.8508 -449.3520 -374.5084 30089.1111 -449.3520 -374.5084
ENERGY: 300000 2.1272 4.0581 0.7913 0.0000 -10495.6687 1333.0030 0.0000 0.0000 1772.1333 -7383.5559 304.9335 -9155.6891 -7373.8105 301.5842 -984.6173 -916.6163 30429.5138 -199.9639 -148.0450
ENERGY: 600000 1.8794 0.5752 0.4825 0.0000 -10590.9201 1451.2901 0.0000 0.0000 1741.3012 -7395.3916 299.6282 -9136.6928 -7393.3028 299.7772 200.9640 255.5397 30074.2163 -136.5214 -99.9338
ENERGY: 900000 2.2699 3.8189 2.8425 0.0000 -10500.6440 1392.6207 0.0000 0.0000 1745.5705 -7353.5214 300.3628 -9099.0919 -7394.3582 300.2363 -272.7477 -194.5636 30216.7357 -170.3936 -127.1172
ENERGY: 1200000 1.0482 3.1836 1.3224 0.0000 -10559.1267 1403.9288 0.0000 0.0000 1746.3758 -7403.2679 300.5014 -9149.6437 -7392.1464 300.3781 -377.7679 -340.9484 30654.2958 -215.8215 -173.8510
ENERGY: 1500000 2.0041 3.3999 2.7635 0.0000 -10543.3422 1379.5448 0.0000 0.0000 1691.4346 -7464.1953 291.0476 -9155.6299 -7396.4657 299.5370 -586.1469 -473.0331 30359.7981 -234.2029 -180.7914
TCL: Running FEP window  11: Lambda1 0.49999999999999994 Lambda2 0.5499999999999999 [dLambda 0.04999999999999999]
TCL: Setting parameter firsttimestep to 0
TCL: Setting parameter alchLambda to 0.49999999999999994
Info: NONBONDED TABLE R-SQUARED SPACING: 0.0625
Info: NONBONDED TABLE SIZE: 705 POINTS
TCL: Setting parameter alchLambda2 to 0.5499999999999999
Info: NONBONDED TABLE R-SQUARED SPACING: 0.0625
Info: NONBONDED TABLE SIZE: 705 POINTS
TCL: Running for 1500000 steps
ETITLE: TS BOND ANGLE DIHED IMPRP ELECT VDW BOUNDARY MISC KINETIC TOTAL TEMP POTENTIAL TOTALAVG TEMPAVG PRESSURE GPRESSURE VOLUME PRESSAVG GPRESSAVG
ENERGY: 0 2.0041 3.3999 2.7635 0.0000 -10543.3420 1379.2105 0.0000 0.0000 1690.5591 -7465.4048 290.8969 -9155.9639 -7465.4048 290.8969 -568.3672 -475.7847 30359.7981 -568.3672 -475.7847
ENERGY: 300000 2.3674 2.3455 1.3127 0.0000 -10514.6121 1336.1460 0.0000 0.0000 1804.8587 -7367.5819 310.5646 -9172.4406 -7412.3283 302.2335 -800.9256 -717.9753 30188.2212 -527.2349 -460.1223
ENERGY: 600000 0.8199 2.5679 4.9011 0.0000 -10622.4446 1514.1656 0.0000 0.0000 1742.4575 -7357.5326 299.8271 -9099.9901 -7395.8842 302.4270 1148.4057 1145.5947 29652.7327 -133.6281 -83.4585
ENERGY: 900000 3.4859 2.4536 4.1185 0.0000 -10695.3857 1487.0534 0.0000 0.0000 1754.9709 -7443.3035 301.9803 -9198.2743 -7396.9378 302.2486 184.4283 294.2704 30051.1037 53.6128 119.3848
ENERGY: 1200000 3.0217 2.9337 3.1140 0.0000 -10506.3123 1379.1277 0.0000 0.0000 1734.0461 -7384.0690 298.3798 -9118.1151 -7399.2694 302.1156 -280.2037 -196.9314 30206.1447 16.7615 87.7965
ENERGY: 1500000 2.0671 4.1937 0.9168 0.0000 -10569.3313 1442.7482 0.0000 0.0000 1769.5282 -7349.8773 304.4853 -9119.4056 -7409.6932 301.5784 193.5934 180.9788 30189.0659 3.3134 74.8835
TCL: Running FEP window  12: Lambda1 0.5499999999999999 Lambda2 0.6    [dLambda 0.050000000000000044]
TCL: Setting parameter firsttimestep to 0
TCL: Setting parameter alchLambda to 0.5499999999999999
Info: NONBONDED TABLE R-SQUARED SPACING: 0.0625
Info: NONBONDED TABLE SIZE: 705 POINTS
TCL: Setting parameter alchLambda2 to 0.6
Info: NONBONDED TABLE R-SQUARED SPACING: 0.0625
Info: NONBONDED TABLE SIZE: 705 POINTS
TCL: Running for 1500000 steps
ETITLE: TS BOND ANGLE DIHED IMPRP ELECT VDW BOUNDARY MISC KINETIC TOTAL TEMP POTENTIAL TOTALAVG TEMPAVG PRESSURE GPRESSURE VOLUME PRESSAVG GPRESSAVG
ENERGY: 0 2.0671 4.1937 0.9168 0.0000 -10569.1913 1442.8524 0.0000 0.0000 1768.6353 -7350.5260 304.3316 -9119.1613 -7350.5260 304.3316 114.7216 187.9505 30189.0659 114.7216 187.9505
ENERGY: 300000 2.7224 1.6033 2.3370 0.0000 -10552.9631 1380.6248 0.0000 0.0000 1708.1148 -7457.5608 293.9178 -9165.6756 -7394.5536 301.3357 -398.0377 -425.1042 30176.1953 205.5011 245.2185
ENERGY: 600000 5.1322 2.2275 2.4780 0.0000 -10654.9346 1482.0166 0.0000 0.0000 1708.2201 -7454.8602 293.9359 -9163.0803 -7386.4322 300.6911 399.8983 460.5632 30338.2133 162.4811 212.4681
ENERGY: 900000 3.5733 3.9029 2.0335 0.0000 -10573.8841 1420.6287 0.0000 0.0000 1717.3563 -7426.3893 295.5080 -9143.7456 -7401.3035 299.7762 28.1557 72.7149 29882.6787 74.6097 128.0132
ENERGY: 1200000 1.3948 1.4586 3.0556 0.0000 -10725.6869 1507.7632 0.0000 0.0000 1829.9003 -7382.1143 314.8736 -9212.0147 -7408.7657 301.3217 625.8433 661.2682 30024.8723 196.7360 255.1141
ENERGY: 1500000 1.4831 5.4871 3.5794 0.0000 -10510.0158 1397.7220 0.0000 0.0000 1736.4043 -7365.3399 298.7856 -9101.7441 -7406.6549 300.6418 -224.2492 -151.8835 30209.9309 68.0043 130.2976
TCL: Running FEP window  13: Lambda1 0.6    Lambda2 0.65   [dLambda 0.050000000000000044]
TCL: Setting parameter firsttimestep to 0
TCL: Setting parameter alchLambda to 0.6
Info: NONBONDED TABLE R-SQUARED SPACING: 0.0625
Info: NONBONDED TABLE SIZE: 705 POINTS
TCL: Setting parameter alchLambda2 to 0.65
Info: NONBONDED TABLE R-SQUARED SPACING: 0.0625
Info: NONBONDED TABLE SIZE: 705 POINTS
TCL: Running for 1500000 steps
ETITLE: TS BOND ANGLE DIHED IMPRP ELECT VDW BOUNDARY MISC KINETIC TOTAL TEMP POTENTIAL TOTALAVG TEMPAVG PRESSURE GPRESSURE VOLUME PRESSAVG GPRESSAVG
ENERGY: 0 1.4831 5.4871 3.5794 0.0000 -10511.0389 1399.0348 0.0000 0.0000 1735.5654 -7365.8890 298.6412 -9101.4544 -7365.8890 298.6412 -208.0713 -133.8813 30209.9309 -208.0713 -133.8813
ENERGY: 300000 1.7108 4.7869 2.1315 0.0000 -10541.5818 1359.6911 0.0000 0.0000 1737.1484 -7436.1130 298.9136 -9173.2614 -7406.0776 302.2456 -592.9807 -573.7084 30238.2010 -284.5060 -260.9896
ENERGY: 600000 0.8939 3.6930 4.2465 0.0000 -10738.9827 1564.0748 0.0000 0.0000 1758.3773 -7407.6973 302.5665 -9166.0746 -7410.4389 302.9522 1122.5444 1268.7491 29852.3791 17.5832 72.5917
ENERGY: 900000 3.1781 2.8626 1.9227 0.0000 -10580.6052 1462.6822 0.0000 0.0000 1740.3112 -7369.6483 299.4578 -9109.9595 -7404.4299 302.3877 329.3707 415.4728 30174.0868 -154.4282 -99.6071
ENERGY: 1200000 1.5250 2.8730 1.4976 0.0000 -10685.0081 1416.6525 0.0000 0.0000 1768.5152 -7493.9448 304.3109 -9262.4600 -7412.1529 302.5915 -230.3995 -182.1713 30098.8767 -74.2351 -23.5779
ENERGY: 1500000 2.7445 1.5311 2.2794 0.0000 -10517.2305 1310.3784 0.0000 0.0000 1713.5309 -7486.7662 294.8497 -9200.2971 -7411.3326 302.4289 -1494.3487 -1424.2157 30650.8006 -177.3925 -124.0869
TCL: Running FEP window  14: Lambda1 0.65   Lambda2 0.7000000000000001 [dLambda 0.050000000000000044]
TCL: Setting parameter firsttimestep to 0
TCL: Setting parameter alchLambda to 0.65
Info: NONBONDED TABLE R-SQUARED SPACING: 0.0625
Info: NONBONDED TABLE SIZE: 705 POINTS
TCL: Setting parameter alchLambda2 to 0.7000000000000001
Info: NONBONDED TABLE R-SQUARED SPACING: 0.0625
Info: NONBONDED TABLE SIZE: 705 POINTS
TCL: Running for 1500000 steps
ETITLE: TS BOND ANGLE DIHED IMPRP ELECT VDW BOUNDARY MISC KINETIC TOTAL TEMP POTENTIAL TOTALAVG TEMPAVG PRESSURE GPRESSURE VOLUME PRESSAVG GPRESSAVG
ENERGY: 0 2.7445 1.5311 2.2794 0.0000 -10517.6279 1311.0037 0.0000 0.0000 1712.6570 -7487.4122 294.6993 -9200.0692 -7487.4122 294.6993 -1508.9129 -1416.0696 30650.8006 -1508.9129 -1416.0696
ENERGY: 300000 0.7783 3.0987 3.7040 0.0000 -10677.2991 1480.9325 0.0000 0.0000 1703.4833 -7485.3023 293.1208 -9188.7855 -7457.0816 297.9625 374.8823 366.0134 29842.1751 -372.8580 -304.7329
ENERGY: 600000 1.7096 3.9598 5.5144 0.0000 -10713.1235 1441.7179 0.0000 0.0000 1695.4744 -7564.7473 291.7427 -9260.2218 -7451.7127 297.8818 14.9835 116.3067 29596.3740 -229.7389 -155.9879
ENERGY: 900000 1.1344 2.8032 2.2491 0.0000 -10572.1136 1383.2027 0.0000 0.0000 1764.3495 -7418.3747 303.5941 -9182.7242 -7437.1635 299.2205 42.3590 40.0332 29640.0409 -264.7734 -192.9448
ENERGY: 1200000 0.9746 2.4227 3.8059 0.0000 -10586.6958 1418.2173 0.0000 0.0000 1755.2090 -7406.0665 302.0213 -9161.2754 -7421.4217 300.9965 -110.7262 9.2156 30164.7811 -254.4535 -184.2286
ENERGY: 1500000 1.1751 3.4221 2.8825 0.0000 -10588.0531 1433.0544 0.0000 0.0000 1732.0022 -7415.5168 298.0281 -9147.5190 -7418.0836 301.2904 470.9977 471.8976 29455.0794 -148.6983 -86.9253
TCL: Running FEP window  15: Lambda1 0.7000000000000001 Lambda2 0.7500000000000001 [dLambda 0.050000000000000044]
TCL: Setting parameter firsttimestep to 0
TCL: Setting parameter alchLambda to 0.7000000000000001
Info: NONBONDED TABLE R-SQUARED SPACING: 0.0625
Info: NONBONDED TABLE SIZE: 705 POINTS
TCL: Setting parameter alchLambda2 to 0.7500000000000001
Info: NONBONDED TABLE R-SQUARED SPACING: 0.0625
Info: NONBONDED TABLE SIZE: 705 POINTS
TCL: Running for 1500000 steps
ETITLE: TS BOND ANGLE DIHED IMPRP ELECT VDW BOUNDARY MISC KINETIC TOTAL TEMP POTENTIAL TOTALAVG TEMPAVG PRESSURE GPRESSURE VOLUME PRESSAVG GPRESSAVG
ENERGY: 0 1.1751 3.4221 2.8825 0.0000 -10588.6154 1432.7879 0.0000 0.0000 1731.1746 -7417.1731 297.8857 -9148.3477 -7417.1731 297.8857 384.4559 476.9379 29455.0794 384.4559 476.9379
ENERGY: 300000 2.7229 1.4506 4.2285 0.0000 -10653.5875 1473.3141 0.0000 0.0000 1759.3804 -7412.4909 302.7391 -9171.8714 -7450.0450 299.8051 447.7623 539.9142 29804.8345 265.4246 337.3935
ENERGY: 600000 2.6908 2.3692 2.0365 0.0000 -10522.1840 1430.1433 0.0000 0.0000 1757.4509 -7327.4932 302.4071 -9084.9441 -7417.6618 300.7633 166.5959 182.1608 30255.9270 126.0566 187.1185
ENERGY: 900000 2.5419 1.9125 3.7237 0.0000 -10697.7637 1479.8850 0.0000 0.0000 1749.7063 -7459.9943 301.0745 -9209.7006 -7413.9684 300.8488 99.8431 193.5897 30099.8622 151.3475 215.5642
ENERGY: 1200000 2.8717 0.4614 2.1172 0.0000 -10597.3605 1408.2433 0.0000 0.0000 1730.7742 -7452.8928 297.8168 -9183.6669 -7433.5387 299.8598 -286.5578 -163.0992 29966.3293 -2.3907 69.4627
ENERGY: 1500000 1.1940 1.3257 0.5972 0.0000 -10734.2320 1483.5830 0.0000 0.0000 1755.6916 -7491.8404 302.1044 -9247.5320 -7444.5210 299.6687 569.4137 579.0890 29475.9602 -13.4242 56.3547
TCL: Running FEP window  16: Lambda1 0.7500000000000001 Lambda2 0.8000000000000002 [dLambda 0.050000000000000044]
TCL: Setting parameter firsttimestep to 0
TCL: Setting parameter alchLambda to 0.7500000000000001
Info: NONBONDED TABLE R-SQUARED SPACING: 0.0625
Info: NONBONDED TABLE SIZE: 705 POINTS
TCL: Setting parameter alchLambda2 to 0.8000000000000002
Info: NONBONDED TABLE R-SQUARED SPACING: 0.0625
Info: NONBONDED TABLE SIZE: 705 POINTS
TCL: Running for 1500000 steps
ETITLE: TS BOND ANGLE DIHED IMPRP ELECT VDW BOUNDARY MISC KINETIC TOTAL TEMP POTENTIAL TOTALAVG TEMPAVG PRESSURE GPRESSURE VOLUME PRESSAVG GPRESSAVG
ENERGY: 0 1.1940 1.3257 0.5972 0.0000 -10734.3938 1483.4693 0.0000 0.0000 1754.7891 -7493.0184 301.9491 -9247.8075 -7493.0184 301.9491 508.2342 582.3197 29475.9602 508.2342 582.3197
ENERGY: 300000 0.3410 2.6406 0.6465 0.0000 -10582.6490 1474.4448 0.0000 0.0000 1769.7404 -7334.8358 304.5218 -9104.5762 -7416.5502 300.4462 420.5902 539.9219 30236.7483 -126.3563 -48.6358
ENERGY: 600000 4.7717 2.5702 2.3341 0.0000 -10569.8266 1444.1358 0.0000 0.0000 1732.6154 -7383.3994 298.1336 -9116.0148 -7400.6395 299.7690 -16.2245 37.0226 30628.4543 -47.0012 22.1605
ENERGY: 900000 1.9312 1.2283 2.1132 0.0000 -10665.4428 1411.2554 0.0000 0.0000 1719.9108 -7529.0040 295.9475 -9248.9148 -7405.7361 298.9858 -159.0416 13.3218 29723.5663 -18.3610 60.7011
ENERGY: 1200000 3.6651 2.0093 2.3341 0.0000 -10638.1920 1440.7400 0.0000 0.0000 1736.0468 -7453.3967 298.7240 -9189.4434 -7406.9348 298.5282 10.0582 -27.4206 30016.9956 -55.7025 15.4918
ENERGY: 1500000 1.4965 1.7693 4.5806 0.0000 -10618.9130 1427.1255 0.0000 0.0000 1790.1080 -7393.8331 308.0264 -9183.9411 -7406.9166 299.2732 -10.7017 93.5797 30072.9087 -42.3202 28.7236
TCL: Running FEP window  17: Lambda1 0.8000000000000002 Lambda2 0.8500000000000002 [dLambda 0.050000000000000044]
TCL: Setting parameter firsttimestep to 0
TCL: Setting parameter alchLambda to 0.8000000000000002
Info: NONBONDED TABLE R-SQUARED SPACING: 0.0625
Info: NONBONDED TABLE SIZE: 705 POINTS
TCL: Setting parameter alchLambda2 to 0.8500000000000002
Info: NONBONDED TABLE R-SQUARED SPACING: 0.0625
Info: NONBONDED TABLE SIZE: 705 POINTS
TCL: Running for 1500000 steps
ETITLE: TS BOND ANGLE DIHED IMPRP ELECT VDW BOUNDARY MISC KINETIC TOTAL TEMP POTENTIAL TOTALAVG TEMPAVG PRESSURE GPRESSURE VOLUME PRESSAVG GPRESSAVG
ENERGY: 0 1.4965 1.7693 4.5806 0.0000 -10619.8989 1427.6781 0.0000 0.0000 1789.2422 -7395.1322 307.8775 -9184.3744 -7395.1322 307.8775 15.8566 106.5505 30072.9087 15.8566 106.5505
ENERGY: 300000 1.3162 2.0777 3.1557 0.0000 -10661.4573 1482.4611 0.0000 0.0000 1783.9220 -7388.5247 306.9620 -9172.4467 -7397.5237 307.0951 662.2250 685.9349 29973.0744 76.4903 163.9706
ENERGY: 600000 0.5922 3.1351 0.3509 0.0000 -10643.1064 1404.2937 0.0000 0.0000 1753.6798 -7481.0547 301.7582 -9234.7345 -7407.2931 305.2519 -257.2158 -299.5873 30117.8891 -84.2157 -16.1308
ENERGY: 900000 2.5043 5.5270 2.6902 0.0000 -10554.9423 1429.1342 0.0000 0.0000 1847.0946 -7267.9921 317.8322 -9115.0867 -7406.0836 305.0947 428.8674 441.7582 30063.4391 -162.2449 -104.9740
ENERGY: 1200000 4.1273 1.3472 3.5131 0.0000 -10611.5763 1464.1772 0.0000 0.0000 1771.0006 -7367.4109 304.7386 -9138.4115 -7407.7926 303.5583 443.9408 500.2159 30060.7020 -144.1358 -89.4698
ENERGY: 1500000 3.8480 2.8093 3.8421 0.0000 -10618.5061 1420.8393 0.0000 0.0000 1765.5614 -7421.6060 303.8027 -9187.1673 -7412.7860 303.3308 -138.7979 -49.8585 30161.9639 -214.6253 -161.8593
TCL: Running FEP window  18: Lambda1 0.8500000000000002 Lambda2 0.9000000000000002 [dLambda 0.050000000000000044]
TCL: Setting parameter firsttimestep to 0
TCL: Setting parameter alchLambda to 0.8500000000000002
Info: NONBONDED TABLE R-SQUARED SPACING: 0.0625
Info: NONBONDED TABLE SIZE: 705 POINTS
TCL: Setting parameter alchLambda2 to 0.9000000000000002
Info: NONBONDED TABLE R-SQUARED SPACING: 0.0625
Info: NONBONDED TABLE SIZE: 705 POINTS
TCL: Running for 1500000 steps
ETITLE: TS BOND ANGLE DIHED IMPRP ELECT VDW BOUNDARY MISC KINETIC TOTAL TEMP POTENTIAL TOTALAVG TEMPAVG PRESSURE GPRESSURE VOLUME PRESSAVG GPRESSAVG
ENERGY: 0 3.8480 2.8093 3.8421 0.0000 -10619.1877 1421.6090 0.0000 0.0000 1764.6820 -7422.3973 303.6514 -9187.0793 -7422.3973 303.6514 -111.3005 -38.0315 30161.9639 -111.3005 -38.0315
ENERGY: 300000 0.8857 1.9432 1.6248 0.0000 -10644.2177 1478.8746 0.0000 0.0000 1704.7038 -7456.1856 293.3308 -9160.8894 -7408.1180 298.7154 613.8472 650.2511 29734.2882 -184.9591 -111.5354
ENERGY: 600000 3.6628 2.6293 1.7188 0.0000 -10640.6402 1450.6305 0.0000 0.0000 1745.6604 -7436.3384 300.3783 -9181.9988 -7413.6387 298.6035 62.3445 116.1583 30184.6075 77.3947 143.7023
ENERGY: 900000 2.8122 1.9013 1.9488 0.0000 -10632.6085 1432.2261 0.0000 0.0000 1758.1235 -7435.5965 302.5228 -9193.7201 -7412.2510 299.8388 3.8115 57.7489 30016.1072 137.4970 202.4026
ENERGY: 1200000 2.2549 3.0205 3.1077 0.0000 -10631.3973 1406.7156 0.0000 0.0000 1793.5346 -7422.7640 308.6161 -9216.2986 -7428.0789 300.4768 -192.1946 -128.5097 29839.4905 118.6697 177.4516
ENERGY: 1500000 1.3576 1.9882 1.8786 0.0000 -10518.4954 1403.4133 0.0000 0.0000 1710.4518 -7399.4060 294.3199 -9109.8578 -7439.0307 298.7613 -66.1446 -69.5878 30388.3128 86.0126 140.1964
TCL: Running FEP window  19: Lambda1 0.9000000000000002 Lambda2 0.9500000000000003 [dLambda 0.050000000000000044]
TCL: Setting parameter firsttimestep to 0
TCL: Setting parameter alchLambda to 0.9000000000000002
Info: NONBONDED TABLE R-SQUARED SPACING: 0.0625
Info: NONBONDED TABLE SIZE: 705 POINTS
TCL: Setting parameter alchLambda2 to 0.9500000000000003
Info: NONBONDED TABLE R-SQUARED SPACING: 0.0625
Info: NONBONDED TABLE SIZE: 705 POINTS
TCL: Running for 1500000 steps
ETITLE: TS BOND ANGLE DIHED IMPRP ELECT VDW BOUNDARY MISC KINETIC TOTAL TEMP POTENTIAL TOTALAVG TEMPAVG PRESSURE GPRESSURE VOLUME PRESSAVG GPRESSAVG
ENERGY: 0 1.3576 1.9882 1.8786 0.0000 -10519.7732 1404.5686 0.0000 0.0000 1709.5444 -7400.4359 294.1637 -9109.9803 -7400.4359 294.1637 -132.6022 -53.5993 30388.3128 -132.6022 -53.5993
ENERGY: 300000 1.3844 1.4812 1.7993 0.0000 -10660.0009 1520.6174 0.0000 0.0000 1722.4848 -7412.2338 296.3904 -9134.7186 -7437.8889 295.6421 935.9149 974.4242 30008.7659 77.7010 140.1642
ENERGY: 600000 3.5266 4.6971 1.3723 0.0000 -10627.5555 1438.2366 0.0000 0.0000 1742.6207 -7437.1020 299.8552 -9179.7228 -7436.2805 298.2896 102.2562 180.9791 30019.1774 11.3054 77.3626
ENERGY: 900000 5.5238 2.3943 0.9597 0.0000 -10649.1076 1436.1656 0.0000 0.0000 1754.6497 -7449.4145 301.9251 -9204.0642 -7442.0162 299.2517 190.8820 215.5942 29502.7073 75.9577 122.9973
ENERGY: 1200000 0.6713 4.0908 1.7436 0.0000 -10594.8158 1433.6342 0.0000 0.0000 1775.3455 -7379.3305 305.4862 -9154.6760 -7440.1177 299.4721 -80.2947 23.4784 30309.4968 65.8326 123.6735
ENERGY: 1500000 1.3473 4.2707 1.4280 0.0000 -10436.7548 1356.7790 0.0000 0.0000 1722.8443 -7350.0854 296.4523 -9072.9298 -7438.5614 298.4028 -355.6149 -262.5613 30098.9195 -8.5245 54.9083
TCL: Running FEP window  20: Lambda1 0.9500000000000003 Lambda2 1.0    [dLambda 0.04999999999999971]
TCL: Setting parameter firsttimestep to 0
TCL: Setting parameter alchLambda to 0.9500000000000003
Info: NONBONDED TABLE R-SQUARED SPACING: 0.0625
Info: NONBONDED TABLE SIZE: 705 POINTS
TCL: Setting parameter alchLambda2 to 1.0
Info: NONBONDED TABLE R-SQUARED SPACING: 0.0625
Info: NONBONDED TABLE SIZE: 705 POINTS
TCL: Running for 1500000 steps
ETITLE: TS BOND ANGLE DIHED IMPRP ELECT VDW BOUNDARY MISC KINETIC TOTAL TEMP POTENTIAL TOTALAVG TEMPAVG PRESSURE GPRESSURE VOLUME PRESSAVG GPRESSAVG
ENERGY: 0 1.3473 4.2707 1.4280 0.0000 -10437.3487 1356.2243 0.0000 0.0000 1721.9737 -7352.1048 296.3025 -9074.0785 -7352.1048 296.3025 -349.6793 -258.1391 30098.9195 -349.6793 -258.1391
ENERGY: 300000 0.8934 2.8700 2.6940 0.0000 -10668.2298 1498.9782 0.0000 0.0000 1750.3852 -7412.4090 301.1913 -9162.7942 -7441.9515 295.5614 654.6329 733.7525 29962.6858 -130.3328 -55.0056
ENERGY: 600000 3.4045 3.5980 3.5042 0.0000 -10737.0015 1502.5862 0.0000 0.0000 1751.9637 -7471.9450 301.4629 -9223.9087 -7451.4590 297.0767 310.3293 427.6204 30360.3832 13.6556 98.3746
ENERGY: 900000 3.1194 2.5983 1.6809 0.0000 -10499.4990 1311.9060 0.0000 0.0000 1751.9635 -7428.2310 301.4629 -9180.1945 -7458.7105 297.1737 -696.4511 -655.1022 29797.4149 56.2978 139.8353
ENERGY: 1200000 2.3469 2.1217 2.2945 0.0000 -10638.7905 1435.3387 0.0000 0.0000 1772.0608 -7424.6280 304.9210 -9196.6888 -7454.4149 297.5371 -25.7681 -0.5070 30044.1011 27.5552 111.7614
ENERGY: 1500000 1.3717 2.6656 2.1026 0.0000 -10678.7116 1464.9370 0.0000 0.0000 1766.0925 -7441.5422 303.8941 -9207.6347 -7451.7074 298.5985 222.6694 229.2888 30038.9228 6.6473 81.7601
TCL: Exiting due to exit command.
