Info: SIMULATION PARAMETERS:
Info: TIMESTEP               2
Info: NUMBER OF STEPS        0
Info: STEPS PER CYCLE        10
Info: PERIODIC CELL BASIS 1  32.1641 0 0
Info: PERIODIC CELL BASIS 2  0 30.2306 0
Info: PERIODIC CELL BASIS 3  0 0 32.0914
Info: PERIODIC CELL CENTER   0 0 0
Info: WRAPPING WATERS AROUND PERIODIC BOUNDARIES ON OUTPUT.
Info: WRAPPING ALL CLUSTERS AROUND PERIODIC BOUNDARIES ON OUTPUT.
Info: FIRST LDB TIMESTEP     50
Info: LAST LDB TIMESTEP     -1
Info: HOM BACKGROUND SCALING 1
Info: PME BACKGROUND SCALING 1
Info: MIN ATOMS PER PATCH    40
Info: EMPTY PATCH LOAD       40 ATOMS
Info: VELOCITY FILE          mobley_4219614_equil.vel
Info: CENTER OF MASS MOVING INITIALLY? NO
Info: DIELECTRIC             1
Info: EXCLUDE                SCALED ONE-FOUR
Info: 1-4 ELECTROSTATICS SCALED BY 0.833333
Info: MODIFIED 1-4 VDW PARAMETERS WILL BE USED
Info: DCD FILENAME           mobley_4219614_prod.dcd
Info: DCD FREQUENCY          100000
Info: DCD FIRST STEP         100000
Info: DCD FILE WILL CONTAIN UNIT CELL DATA
Info: XST FILENAME           mobley_4219614_prod.xst
Info: XST FREQUENCY          100000
Info: NO VELOCITY DCD OUTPUT
Info: NO FORCE DCD OUTPUT
Info: OUTPUT FILENAME        mobley_4219614_prod
Info: BINARY OUTPUT FILES WILL BE USED
Info: RESTART FILENAME       mobley_4219614_prod.restart
Info: RESTART FREQUENCY      100000
Info: BINARY RESTART FILES WILL BE USED
Info: CUTOFF                 9
Info: PAIRLIST DISTANCE      11
Info: PAIRLIST SHRINK RATE   0.01
Info: PAIRLIST GROW RATE     0.01
Info: PAIRLIST TRIGGER       0.3
Info: PAIRLISTS PER CYCLE    2
Info: PAIRLISTS ENABLED
Info: MARGIN                 2
Info: HYDROGEN GROUP CUTOFF  2.5
Info: PATCH DIMENSION        15.5
Info: ENERGY OUTPUT STEPS    100000
Info: ENERGY EVALUATION STEPS    100000
Info: OUTPUT ENERGY PRECISION 4
Info: CROSSTERM ENERGY INCLUDED IN DIHEDRAL
Info: TIMING OUTPUT STEPS    1000000
Info: PRESSURE OUTPUT STEPS  100000
Info: ALCHEMICAL FEP ON
Info: FEP CURRENT LAMBDA VALUE     1
Info: FEP COMPARISON LAMBDA VALUE  0.95
Info: FEP INTRA-ALCHEMICAL NON-BONDED INTERACTIONS WILL BE RETAINED
Info: FEP INTRA-ALCHEMICAL BONDED INTERACTIONS WILL BE RETAINED
Info: FEP VDW SHIFTING COEFFICIENT 5
Info: FEP ELEC. ACTIVE FOR ANNIHILATED PARTICLES BETWEEN LAMBDA = 0 AND LAMBDA = 0.5
Info: FEP ELEC. ACTIVE FOR EXNIHILATED PARTICLES BETWEEN LAMBDA = 0.5 AND LAMBDA = 1
Info: FEP VDW ACTIVE FOR ANNIHILATED PARTICLES BETWEEN LAMBDA = 0 AND LAMBDA = 1
Info: FEP VDW ACTIVE FOR EXNIHILATED PARTICLES BETWEEN LAMBDA = 0 AND LAMBDA = 1
Info: FEP BOND ACTIVE FOR ANNIHILATED PARTICLES BETWEEN LAMBDA = 1 AND LAMBDA = 1
Info: FEP BOND ACTIVE FOR EXNIHILATED PARTICLES BETWEEN LAMBDA = 0 AND LAMBDA = 0
Info: LANGEVIN DYNAMICS ACTIVE
Info: LANGEVIN TEMPERATURE   300
Info: LANGEVIN USING BBK INTEGRATOR
Info: LANGEVIN DAMPING COEFFICIENT IS 1 INVERSE PS
Info: LANGEVIN DYNAMICS APPLIED TO HYDROGENS
Info: LANGEVIN PISTON PRESSURE CONTROL ACTIVE
Info:        TARGET PRESSURE IS 1.01325 BAR
Info:     OSCILLATION PERIOD IS 50 FS
Info:             DECAY TIME IS 25 FS
Info:     PISTON TEMPERATURE IS 300 K
Info:       PRESSURE CONTROL IS GROUP-BASED
Info:    INITIAL STRAIN RATE IS 0.000231047 0.000231047 0.000231047
Info:       CELL FLUCTUATION IS ISOTROPIC
Info: PARTICLE MESH EWALD (PME) ACTIVE
Info: PME TOLERANCE               1e-06
Info: PME EWALD COEFFICIENT       0.348832
Info: PME INTERPOLATION ORDER     4
Info: PME GRID DIMENSIONS         36 32 36
Info: PME MAXIMUM GRID SPACING    1
Info: PME CALCULATION WILL BE PERFORMED ON GPU
Info: FULL ELECTROSTATIC EVALUATION FREQUENCY      2
Info: USING VERLET I (r-RESPA) MTS SCHEME.
Info: C1 SPLITTING OF LONG RANGE ELECTROSTATICS
Info: PLACING ATOMS IN PATCHES BY HYDROGEN GROUPS
Info: RIGID BONDS TO HYDROGEN : ALL
Info:         ERROR TOLERANCE : 1e-08
Info:          MAX ITERATIONS : 100
Info: RIGID WATER USING SETTLE ALGORITHM
Info: RANDOM NUMBER SEED     1742191424
Info: USE HYDROGEN BONDS?    NO
Info: Using AMBER format force field!
Info: AMBER PARM FILE        mobley_4219614.prmtop
Info: COORDINATE PDB         mobley_4219614.pdb
Info: Exclusions will be read from PARM file!
Info: SCNB (VDW SCALING)     2
Info: USING ARITHMETIC MEAN TO COMBINE L-J SIGMA PARAMETERS
Info: BINARY COORDINATES     mobley_4219614_equil.coor
Info: SUMMARY OF PARAMETERS:
Info: 5 BONDS
Info: 3 ANGLES
Info:   3 HARMONIC
Info:   0 COSINE-BASED
Info: 2 DIHEDRAL
Info: 0 IMPROPER
Info: 0 CROSSTERM
Info: 0 VDW
Info: 15 VDW_PAIRS
Info: 0 NBTHOLE_PAIRS
Info: To read alchdata from file: mobley_4219614.pdb
Info: To read alchflag data from column: 5
Info: STRUCTURE SUMMARY:
Info: 2985 ATOMS
Info: 2985 BONDS
Info: 18 ANGLES
Info: 30 DIHEDRALS
Info: 0 IMPROPERS
Info: 0 CROSSTERMS
Info: 3024 EXCLUSIONS
Info: 2975 RIGID BONDS
Info: ALCH: 0 ATOMS TO DISAPPEAR IN FINAL STATE
Info: ALCH: 12 ATOMS TO APPEAR IN FINAL STATE
Info: 5980 DEGREES OF FREEDOM
Info: 1001 HYDROGEN GROUPS
Info: 3 ATOMS IN LARGEST HYDROGEN GROUP
Info: 1001 MIGRATION GROUPS
Info: 3 ATOMS IN LARGEST MIGRATION GROUP
Info: TOTAL MASS = 18069.7 amu
Info: TOTAL CHARGE = -9.99942e-05 e
Info: MASS DENSITY = 0.961618 g/cm^3
Info: ATOM DENSITY = 0.0956612 atoms/A^3
Info: ADDED 0 IMPLICIT EXCLUSIONS
Info: NONBONDED TABLE R-SQUARED SPACING: 0.0625
Info: NONBONDED TABLE SIZE: 705 POINTS
Info: REMOVING COM VELOCITY -0.153691 -0.0185704 0.109541
Info: Use 3D box decompostion in PME FFT.
Info: Updated CUDA force table with 4096 elements.
Info: Updated CUDA LJ table with 5 x 5 elements.
Info: Found 15 unique exclusion lists needing 28 bytes
TCL: Running for 1500000 steps
ETITLE: TS BOND ANGLE DIHED IMPRP ELECT VDW BOUNDARY MISC KINETIC TOTAL TEMP POTENTIAL TOTALAVG TEMPAVG PRESSURE GPRESSURE VOLUME PRESSAVG GPRESSAVG
ENERGY: 0 2.8574 5.7442 2.1708 0.0000 -10803.3521 1452.1264 0.0000 0.0000 1741.7485 -7598.7048 293.1397 -9340.4534 -7598.7048 293.1397 -68.6232 14.7138 31203.8684 -68.6232 14.7138
ENERGY: 300000 2.8784 4.0480 1.9410 0.0000 -10800.3149 1391.7619 0.0000 0.0000 1796.6818 -7603.0039 302.3851 -9399.6857 -7579.6075 300.2776 -273.8617 -198.2712 30519.8722 -142.2293 -62.2231
ENERGY: 600000 1.4726 1.2973 2.1806 0.0000 -10770.6799 1443.9250 0.0000 0.0000 1770.3400 -7551.4643 297.9517 -9321.8043 -7579.0288 299.6267 55.4797 104.2732 31155.2394 -111.8512 -44.8481
ENERGY: 900000 1.0829 2.1071 4.4896 0.0000 -10749.5545 1352.1352 0.0000 0.0000 1756.1145 -7633.6252 295.5575 -9389.7397 -7572.1983 299.5146 -697.1670 -647.8666 30727.2797 -190.5862 -133.3966
ENERGY: 1200000 2.8282 2.4652 3.7848 0.0000 -10963.0141 1578.9926 0.0000 0.0000 1782.5045 -7592.4388 299.9990 -9374.9433 -7566.0618 300.0274 884.5769 952.3524 30791.5189 -162.6785 -106.9270
ENERGY: 1500000 0.9329 3.7529 3.2111 0.0000 -10913.4140 1489.4296 0.0000 0.0000 1776.9166 -7639.1709 299.0586 -9416.0875 -7571.6871 299.7332 126.7825 216.9283 30734.2515 -148.7003 -84.9803
TCL: Running FEP window   2: Lambda1 0.95   Lambda2 0.8999999999999999 [dLambda -0.050000000000000044]
TCL: Setting parameter firsttimestep to 0
TCL: Setting parameter alchLambda to 0.95
Info: NONBONDED TABLE R-SQUARED SPACING: 0.0625
Info: NONBONDED TABLE SIZE: 705 POINTS
TCL: Setting parameter alchLambda2 to 0.8999999999999999
Info: NONBONDED TABLE R-SQUARED SPACING: 0.0625
Info: NONBONDED TABLE SIZE: 705 POINTS
TCL: Running for 1500000 steps
ETITLE: TS BOND ANGLE DIHED IMPRP ELECT VDW BOUNDARY MISC KINETIC TOTAL TEMP POTENTIAL TOTALAVG TEMPAVG PRESSURE GPRESSURE VOLUME PRESSAVG GPRESSAVG
ENERGY: 0 0.9329 3.7529 3.2111 0.0000 -10913.1238 1490.1546 0.0000 0.0000 1776.0265 -7639.0458 298.9088 -9415.0723 -7639.0458 298.9088 127.3552 207.4402 30734.2515 127.3552 207.4402
ENERGY: 300000 2.8503 2.8313 3.5448 0.0000 -10704.0945 1438.9478 0.0000 0.0000 1755.9199 -7500.0005 295.5248 -9255.9204 -7582.0066 298.5076 179.5601 245.6034 30824.4878 81.1171 174.7722
ENERGY: 600000 2.9366 1.2043 1.6187 0.0000 -10739.0332 1420.0773 0.0000 0.0000 1789.0016 -7524.1946 301.0925 -9313.1962 -7560.8916 298.8847 -180.1331 -137.2454 31135.7539 -35.1273 38.6366
ENERGY: 900000 4.1553 2.0067 5.0800 0.0000 -10894.8644 1473.2005 0.0000 0.0000 1781.4048 -7629.0171 299.8139 -9410.4219 -7574.7069 297.9830 -63.1750 45.3789 30764.9419 -129.9479 -50.5993
ENERGY: 1200000 2.1631 1.9035 1.5281 0.0000 -10675.3776 1338.1824 0.0000 0.0000 1724.1433 -7607.4573 290.1767 -9331.6005 -7585.0819 297.4174 -954.0062 -899.2790 31500.1827 -249.0783 -179.4034
ENERGY: 1500000 2.5588 4.8408 3.1515 0.0000 -10782.8754 1454.4140 0.0000 0.0000 1691.1375 -7626.7726 284.6218 -9317.9102 -7580.3843 297.1525 -142.1757 -102.7894 31239.0206 -276.6519 -212.8024
TCL: Running FEP window   3: Lambda1 0.8999999999999999 Lambda2 0.8499999999999999 [dLambda -0.050000000000000044]
TCL: Setting parameter firsttimestep to 0
TCL: Setting parameter alchLambda to 0.8999999999999999
Info: NONBONDED TABLE R-SQUARED SPACING: 0.0625
Info: NONBONDED TABLE SIZE: 705 POINTS
TCL: Setting parameter alchLambda2 to 0.8499999999999999
Info: NONBONDED TABLE R-SQUARED SPACING: 0.0625
Info: NONBONDED TABLE SIZE: 705 POINTS
TCL: Running for 1500000 steps
ETITLE: TS BOND ANGLE DIHED IMPRP ELECT VDW BOUNDARY MISC KINETIC TOTAL TEMP POTENTIAL TOTALAVG TEMPAVG PRESSURE GPRESSURE VOLUME PRESSAVG GPRESSAVG
ENERGY: 0 2.5588 4.8408 3.1515 0.0000 -10782.6254 1454.9822 0.0000 0.0000 1690.2507 -7626.8412 284.4725 -9317.0920 -7626.8412 284.4725 -176.9979 -109.0091 31239.0206 -176.9979 -109.0091
ENERGY: 300000 2.9434 1.5651 4.5005 0.0000 -10826.0697 1461.6930 0.0000 0.0000 1779.1939 -7576.1739 299.4418 -9355.3678 -7598.6467 296.2853 250.0538 311.8304 30624.0956 -212.5401 -150.6652
ENERGY: 600000 3.0214 2.7476 4.0658 0.0000 -10813.1439 1476.4798 0.0000 0.0000 1764.8760 -7561.9533 297.0321 -9326.8293 -7590.5532 297.1945 382.8662 453.6548 30575.0742 -138.9220 -85.7632
ENERGY: 900000 1.4499 2.3081 3.3433 0.0000 -10677.4602 1367.3252 0.0000 0.0000 1818.9049 -7484.1289 306.1253 -9303.0338 -7594.7936 297.3888 -533.9546 -419.3980 31017.2710 -196.3616 -141.1226
ENERGY: 1200000 3.4170 1.5081 2.5818 0.0000 -10895.9788 1530.7275 0.0000 0.0000 1800.2135 -7557.5309 302.9795 -9357.7444 -7592.7954 298.1356 557.3380 613.4897 30638.3094 -128.8597 -72.5172
ENERGY: 1500000 4.8056 3.3793 3.5711 0.0000 -10817.9434 1394.2948 0.0000 0.0000 1749.7089 -7662.1837 294.4795 -9411.8927 -7600.4462 298.1545 -824.0221 -782.8769 31003.4163 -232.2083 -172.2115
TCL: Running FEP window   4: Lambda1 0.8499999999999999 Lambda2 0.7999999999999998 [dLambda -0.050000000000000044]
TCL: Setting parameter firsttimestep to 0
TCL: Setting parameter alchLambda to 0.8499999999999999
Info: NONBONDED TABLE R-SQUARED SPACING: 0.0625
Info: NONBONDED TABLE SIZE: 705 POINTS
TCL: Setting parameter alchLambda2 to 0.7999999999999998
Info: NONBONDED TABLE R-SQUARED SPACING: 0.0625
Info: NONBONDED TABLE SIZE: 705 POINTS
TCL: Running for 1500000 steps
ETITLE: TS BOND ANGLE DIHED IMPRP ELECT VDW BOUNDARY MISC KINETIC TOTAL TEMP POTENTIAL TOTALAVG TEMPAVG PRESSURE GPRESSURE VOLUME PRESSAVG GPRESSAVG
ENERGY: 0 4.8056 3.3793 3.5711 0.0000 -10817.5912 1395.1500 0.0000 0.0000 1748.8484 -7661.8368 294.3346 -9410.6852 -7661.8368 294.3346 -871.0250 -782.5328 31003.4163 -871.0250 -782.5328
ENERGY: 300000 1.5118 2.5880 4.1266 0.0000 -10797.0040 1424.3971 0.0000 0.0000 1772.4102 -7591.9703 298.3001 -9364.3805 -7566.4313 301.3374 -411.1397 -376.2539 31169.8914 -546.0689 -487.1168
ENERGY: 600000 3.1462 1.7239 1.7747 0.0000 -10852.0104 1465.6648 0.0000 0.0000 1782.2121 -7597.4886 299.9498 -9379.7007 -7542.7677 301.5358 197.7365 263.7387 30591.1934 -210.1917 -143.9853
ENERGY: 900000 1.9283 1.3744 5.6734 0.0000 -10929.9549 1522.7408 0.0000 0.0000 1808.2475 -7589.9905 304.3316 -9398.2380 -7551.4613 302.7154 351.3764 370.9509 31160.3288 -169.6051 -98.6247
ENERGY: 1200000 3.5425 1.8105 1.8524 0.0000 -10713.6543 1365.1931 0.0000 0.0000 1796.9062 -7544.3494 302.4229 -9341.2556 -7562.6984 300.9277 -757.6383 -657.3408 31164.1986 -294.3406 -220.8862
ENERGY: 1500000 1.6486 1.4032 2.4047 0.0000 -10852.0656 1456.3179 0.0000 0.0000 1731.9097 -7658.3815 291.4838 -9390.2912 -7570.4727 300.3012 -153.5850 -55.0822 30621.7485 -251.7515 -181.7272
TCL: Running FEP window   5: Lambda1 0.7999999999999998 Lambda2 0.7499999999999998 [dLambda -0.050000000000000044]
TCL: Setting parameter firsttimestep to 0
TCL: Setting parameter alchLambda to 0.7999999999999998
Info: NONBONDED TABLE R-SQUARED SPACING: 0.0625
Info: NONBONDED TABLE SIZE: 705 POINTS
TCL: Setting parameter alchLambda2 to 0.7499999999999998
Info: NONBONDED TABLE R-SQUARED SPACING: 0.0625
Info: NONBONDED TABLE SIZE: 705 POINTS
TCL: Running for 1500000 steps
ETITLE: TS BOND ANGLE DIHED IMPRP ELECT VDW BOUNDARY MISC KINETIC TOTAL TEMP POTENTIAL TOTALAVG TEMPAVG PRESSURE GPRESSURE VOLUME PRESSAVG GPRESSAVG
ENERGY: 0 1.6486 1.4032 2.4047 0.0000 -10851.6157 1457.0877 0.0000 0.0000 1731.0549 -7658.0167 291.3400 -9389.0716 -7658.0167 291.3400 -153.4497 -59.4677 30621.7485 -153.4497 -59.4677
ENERGY: 300000 2.3677 1.1648 3.5600 0.0000 -10812.3881 1377.2796 0.0000 0.0000 1782.7783 -7645.2378 300.0451 -9428.0161 -7620.4330 297.0542 -625.1555 -615.5099 30707.5911 -138.8596 -77.9184
ENERGY: 600000 4.5351 2.0169 3.6610 0.0000 -10717.7713 1420.3114 0.0000 0.0000 1815.8945 -7471.3524 305.6186 -9287.2469 -7584.4146 297.8071 -6.0668 69.6580 30831.3208 -162.5629 -103.6790
ENERGY: 900000 2.4945 2.7928 1.5088 0.0000 -10840.9148 1458.8785 0.0000 0.0000 1758.8020 -7616.4381 296.0098 -9375.2402 -7571.6272 299.2972 338.5774 396.2391 30416.8282 -112.6512 -60.3660
ENERGY: 1200000 3.7588 1.0311 2.9832 0.0000 -10871.4837 1454.6818 0.0000 0.0000 1752.3441 -7656.6848 294.9230 -9409.0289 -7572.0830 299.0476 -310.2704 -277.8146 31297.1041 -138.0332 -88.1613
ENERGY: 1500000 1.6396 2.8168 2.6774 0.0000 -10853.5208 1457.8210 0.0000 0.0000 1753.1904 -7635.3755 295.0654 -9388.5659 -7582.1739 299.0834 195.2809 248.0257 30783.2659 -91.8939 -43.4237
TCL: Running FEP window   6: Lambda1 0.7499999999999998 Lambda2 0.6999999999999997 [dLambda -0.050000000000000044]
TCL: Setting parameter firsttimestep to 0
TCL: Setting parameter alchLambda to 0.7499999999999998
Info: NONBONDED TABLE R-SQUARED SPACING: 0.0625
Info: NONBONDED TABLE SIZE: 705 POINTS
TCL: Setting parameter alchLambda2 to 0.6999999999999997
Info: NONBONDED TABLE R-SQUARED SPACING: 0.0625
Info: NONBONDED TABLE SIZE: 705 POINTS
TCL: Running for 1500000 steps
ETITLE: TS BOND ANGLE DIHED IMPRP ELECT VDW BOUNDARY MISC KINETIC TOTAL TEMP POTENTIAL TOTALAVG TEMPAVG PRESSURE GPRESSURE VOLUME PRESSAVG GPRESSAVG
ENERGY: 0 1.6397 2.8168 2.6774 0.0000 -10853.2772 1458.0318 0.0000 0.0000 1752.2671 -7635.8445 294.9100 -9388.1115 -7635.8445 294.9100 160.1873 238.1480 30783.2659 160.1873 238.1480
ENERGY: 300000 2.5622 2.4831 2.2425 0.0000 -10828.8444 1533.2432 0.0000 0.0000 1777.1922 -7511.1212 299.1049 -9288.3134 -7564.9328 300.2624 826.1233 918.0398 30811.5571 294.5027 377.6581
ENERGY: 600000 3.5346 2.1990 1.7651 0.0000 -10800.7217 1389.4839 0.0000 0.0000 1781.0691 -7622.6699 299.7574 -9403.7390 -7569.8809 300.6782 -700.9548 -672.2420 30779.9641 -12.4087 52.6255
ENERGY: 900000 3.9463 2.9834 3.9353 0.0000 -10719.7591 1368.4159 0.0000 0.0000 1760.0269 -7580.4513 296.2160 -9340.4782 -7572.7052 299.9772 -760.4550 -673.0071 31206.6979 -75.2714 -14.7508
ENERGY: 1200000 3.7565 3.2875 1.7668 0.0000 -10864.4203 1497.6149 0.0000 0.0000 1744.2652 -7613.7295 293.5633 -9357.9947 -7580.4892 299.4531 219.0694 335.9199 30944.9614 -38.1132 29.2920
ENERGY: 1500000 5.6202 3.0800 2.5795 0.0000 -10743.9916 1412.9070 0.0000 0.0000 1828.1612 -7491.6437 307.6831 -9319.8049 -7566.7234 300.4738 -610.1998 -523.9608 31447.2329 -90.6180 -20.4699
TCL: Running FEP window   7: Lambda1 0.6999999999999997 Lambda2 0.6499999999999997 [dLambda -0.050000000000000044]
TCL: Setting parameter firsttimestep to 0
TCL: Setting parameter alchLambda to 0.6999999999999997
Info: NONBONDED TABLE R-SQUARED SPACING: 0.0625
Info: NONBONDED TABLE SIZE: 705 POINTS
TCL: Setting parameter alchLambda2 to 0.6499999999999997
Info: NONBONDED TABLE R-SQUARED SPACING: 0.0625
Info: NONBONDED TABLE SIZE: 705 POINTS
TCL: Running for 1500000 steps
ETITLE: TS BOND ANGLE DIHED IMPRP ELECT VDW BOUNDARY MISC KINETIC TOTAL TEMP POTENTIAL TOTALAVG TEMPAVG PRESSURE GPRESSURE VOLUME PRESSAVG GPRESSAVG
ENERGY: 0 5.6202 3.0800 2.5795 0.0000 -10743.8457 1412.7839 0.0000 0.0000 1827.2569 -7492.5253 307.5309 -9319.7822 -7492.5253 307.5309 -618.4000 -534.8835 31447.2329 -618.4000 -534.8835
ENERGY: 300000 4.8254 5.7979 3.2895 0.0000 -10794.0315 1384.4399 0.0000 0.0000 1795.6181 -7600.0608 302.2061 -9395.6789 -7530.7444 303.1448 -427.9902 -402.7577 30324.5746 -184.4184 -129.1453
ENERGY: 600000 2.2211 3.4122 1.1377 0.0000 -11015.7984 1580.5857 0.0000 0.0000 1832.6473 -7595.7944 308.4382 -9428.4417 -7549.5402 301.3181 768.6471 826.8646 30904.6329 -12.4043 30.4982
ENERGY: 900000 5.1983 3.1305 3.2276 0.0000 -10740.5388 1337.3378 0.0000 0.0000 1794.3532 -7597.2914 301.9932 -9391.6446 -7554.2892 300.7843 -1092.6026 -1044.8152 31140.7691 -128.9663 -81.1667
ENERGY: 1200000 2.2676 1.9187 1.0661 0.0000 -10844.2939 1451.8091 0.0000 0.0000 1785.7091 -7601.5233 300.5384 -9387.2325 -7561.6179 300.0414 -42.4604 67.3895 30535.3187 -69.4439 -14.9949
ENERGY: 1500000 1.3783 1.7706 1.0562 0.0000 -10733.4637 1407.4279 0.0000 0.0000 1821.4864 -7500.3441 306.5598 -9321.8305 -7558.3628 300.3149 134.1934 178.9402 30526.9029 -149.9789 -94.7203
TCL: Running FEP window   8: Lambda1 0.6499999999999997 Lambda2 0.5999999999999996 [dLambda -0.050000000000000044]
TCL: Setting parameter firsttimestep to 0
TCL: Setting parameter alchLambda to 0.6499999999999997
Info: NONBONDED TABLE R-SQUARED SPACING: 0.0625
Info: NONBONDED TABLE SIZE: 705 POINTS
TCL: Setting parameter alchLambda2 to 0.5999999999999996
Info: NONBONDED TABLE R-SQUARED SPACING: 0.0625
Info: NONBONDED TABLE SIZE: 705 POINTS
TCL: Running for 1500000 steps
ETITLE: TS BOND ANGLE DIHED IMPRP ELECT VDW BOUNDARY MISC KINETIC TOTAL TEMP POTENTIAL TOTALAVG TEMPAVG PRESSURE GPRESSURE VOLUME PRESSAVG GPRESSAVG
ENERGY: 0 1.3783 1.7706 1.0562 0.0000 -10733.1976 1407.7066 0.0000 0.0000 1820.6315 -7500.6543 306.4159 -9321.2858 -7500.6543 306.4159 73.9426 169.2336 30526.9029 73.9426 169.2336
ENERGY: 300000 1.3229 2.3278 2.1807 0.0000 -10816.0501 1466.6424 0.0000 0.0000 1762.5537 -7581.0227 296.6413 -9343.5764 -7559.7257 299.9479 38.8088 92.4839 31049.1576 -179.8235 -110.9441
ENERGY: 600000 2.3323 1.4390 2.7853 0.0000 -10834.2467 1446.2865 0.0000 0.0000 1762.6825 -7618.7213 296.6629 -9381.4037 -7565.2842 298.2104 -307.1849 -252.2647 30904.5114 -253.1495 -190.6215
ENERGY: 900000 3.0794 3.3830 4.0778 0.0000 -10927.7911 1506.5344 0.0000 0.0000 1761.7863 -7648.9303 296.5121 -9410.7165 -7575.1824 298.4706 121.1756 160.5587 30964.4587 -209.2370 -148.0431
ENERGY: 1200000 4.1440 0.9363 1.4158 0.0000 -10858.9416 1495.4347 0.0000 0.0000 1831.5708 -7525.4401 308.2570 -9357.0109 -7578.6409 297.7899 501.3590 573.2150 30383.5587 -134.4731 -72.5954
ENERGY: 1500000 3.9438 1.1096 1.3700 0.0000 -10831.1896 1484.1097 0.0000 0.0000 1859.1476 -7481.5088 312.8982 -9340.6564 -7583.2192 298.3504 286.0691 314.9612 30959.3055 -108.3980 -44.7096
TCL: Running FEP window   9: Lambda1 0.5999999999999996 Lambda2 0.5499999999999996 [dLambda -0.050000000000000044]
TCL: Setting parameter firsttimestep to 0
TCL: Setting parameter alchLambda to 0.5999999999999996
Info: NONBONDED TABLE R-SQUARED SPACING: 0.0625
Info: NONBONDED TABLE SIZE: 705 POINTS
TCL: Setting parameter alchLambda2 to 0.5499999999999996
Info: NONBONDED TABLE R-SQUARED SPACING: 0.0625
Info: NONBONDED TABLE SIZE: 705 POINTS
TCL: Running for 1500000 steps
ETITLE: TS BOND ANGLE DIHED IMPRP ELECT VDW BOUNDARY MISC KINETIC TOTAL TEMP POTENTIAL TOTALAVG TEMPAVG PRESSURE GPRESSURE VOLUME PRESSAVG GPRESSAVG
ENERGY: 0 3.9438 1.1096 1.3700 0.0000 -10831.0287 1484.7441 0.0000 0.0000 1858.2285 -7481.6326 312.7435 -9339.8611 -7481.6326 312.7435 224.3629 314.4895 30959.3055 224.3629 314.4895
ENERGY: 300000 3.1963 2.8836 4.9253 0.0000 -10819.3744 1428.9913 0.0000 0.0000 1761.2057 -7618.1722 296.4144 -9379.3779 -7544.7626 301.4736 -426.3910 -378.3021 30771.4552 -21.2405 43.2225
ENERGY: 600000 3.5851 2.1657 2.4736 0.0000 -10825.0826 1437.0713 0.0000 0.0000 1783.3934 -7596.3935 300.1486 -9379.7869 -7546.0811 301.9738 -130.0602 -32.2632 30541.0599 -113.6129 -37.4510
ENERGY: 900000 3.7771 3.2504 0.9030 0.0000 -10885.1011 1447.1935 0.0000 0.0000 1806.7413 -7623.2359 304.0781 -9429.9772 -7561.4317 301.4609 -264.4004 -215.8675 30783.6412 -196.1005 -124.0142
ENERGY: 1200000 2.4679 3.9791 1.2707 0.0000 -10792.2110 1458.4695 0.0000 0.0000 1806.0010 -7520.0228 303.9535 -9326.0238 -7558.1620 302.2137 -7.5367 72.5302 31084.7196 -209.5341 -138.5602
ENERGY: 1500000 2.9260 2.3637 3.3456 0.0000 -10799.2330 1465.2437 0.0000 0.0000 1737.7621 -7587.5919 292.4688 -9325.3540 -7556.7508 301.1954 9.4430 97.0321 30977.6829 -220.1219 -150.4194
TCL: Running FEP window  10: Lambda1 0.5499999999999996 Lambda2 0.4999999999999996 [dLambda -0.04999999999999999]
TCL: Setting parameter firsttimestep to 0
TCL: Setting parameter alchLambda to 0.5499999999999996
Info: NONBONDED TABLE R-SQUARED SPACING: 0.0625
Info: NONBONDED TABLE SIZE: 705 POINTS
TCL: Setting parameter alchLambda2 to 0.4999999999999996
Info: NONBONDED TABLE R-SQUARED SPACING: 0.0625
Info: NONBONDED TABLE SIZE: 705 POINTS
TCL: Running for 1500000 steps
ETITLE: TS BOND ANGLE DIHED IMPRP ELECT VDW BOUNDARY MISC KINETIC TOTAL TEMP POTENTIAL TOTALAVG TEMPAVG PRESSURE GPRESSURE VOLUME PRESSAVG GPRESSAVG
ENERGY: 0 2.9260 2.3637 3.3456 0.0000 -10799.2057 1465.7752 0.0000 0.0000 1736.8780 -7587.9171 292.3200 -9324.7951 -7587.9171 292.3200 -0.7638 94.4930 30977.6829 -0.7638 94.4930
ENERGY: 300000 2.5825 3.1683 1.5805 0.0000 -10759.3906 1431.4407 0.0000 0.0000 1781.2796 -7539.3389 299.7929 -9320.6185 -7543.8648 297.6135 -77.8936 21.1633 30800.4562 -27.7645 52.2689
ENERGY: 600000 1.8924 2.0714 3.2386 0.0000 -10832.8047 1428.2521 0.0000 0.0000 1797.8856 -7599.4645 302.5877 -9397.3501 -7569.8855 299.9335 -606.3191 -551.1923 31077.1631 -169.6574 -106.5313
ENERGY: 900000 3.9017 1.8439 3.1677 0.0000 -10916.8556 1582.2653 0.0000 0.0000 1813.3484 -7512.3286 305.1901 -9325.6770 -7549.1549 301.4818 1047.1530 1144.2924 31039.8815 53.8599 115.4570
ENERGY: 1200000 1.6561 3.1420 2.7082 0.0000 -10798.0347 1495.4092 0.0000 0.0000 1744.4188 -7550.7005 293.5891 -9295.1193 -7551.9346 300.9112 570.5207 584.3508 30719.1320 91.6489 146.5330
ENERGY: 1500000 4.5216 3.5387 2.6453 0.0000 -10818.1158 1448.0466 0.0000 0.0000 1793.0057 -7566.3580 301.7664 -9359.3636 -7550.3636 301.3589 145.4074 231.8109 30643.5007 92.8394 151.5470
TCL: Running FEP window  11: Lambda1 0.4999999999999996 Lambda2 0.4499999999999996 [dLambda -0.04999999999999999]
TCL: Setting parameter firsttimestep to 0
TCL: Setting parameter alchLambda to 0.4999999999999996
Info: NONBONDED TABLE R-SQUARED SPACING: 0.0625
Info: NONBONDED TABLE SIZE: 705 POINTS
TCL: Setting parameter alchLambda2 to 0.4499999999999996
Info: NONBONDED TABLE R-SQUARED SPACING: 0.0625
Info: NONBONDED TABLE SIZE: 705 POINTS
TCL: Running for 1500000 steps
ETITLE: TS BOND ANGLE DIHED IMPRP ELECT VDW BOUNDARY MISC KINETIC TOTAL TEMP POTENTIAL TOTALAVG TEMPAVG PRESSURE GPRESSURE VOLUME PRESSAVG GPRESSAVG
ENERGY: 0 4.5216 3.5387 2.6453 0.0000 -10818.1178 1448.6285 0.0000 0.0000 1792.1273 -7566.6564 301.6186 -9358.7838 -7566.6564 301.6186 151.7324 230.6251 30643.5007 151.7324 230.6251
ENERGY: 300000 3.9767 1.5152 0.6454 0.0000 -10686.1452 1378.7942 0.0000 0.0000 1802.6300 -7498.5837 303.3862 -9301.2138 -7530.0151 304.2562 -218.2351 -231.4299 30722.7813 -3.9699 33.5856
ENERGY: 600000 5.6564 2.2324 2.9010 0.0000 -10779.8323 1455.1693 0.0000 0.0000 1768.2896 -7545.5836 297.6066 -9313.8732 -7556.4707 302.4027 -205.0115 -212.9107 31420.0584 -10.4076 20.2190
ENERGY: 900000 2.8930 2.6876 3.9338 0.0000 -10849.9069 1441.9682 0.0000 0.0000 1791.9452 -7606.4790 301.5879 -9398.4243 -7548.5413 303.1167 -255.3703 -117.8597 30515.4736 -148.2156 -100.8912
ENERGY: 1200000 3.1636 1.4702 2.3794 0.0000 -10878.6716 1467.3063 0.0000 0.0000 1797.5651 -7606.7870 302.5338 -9404.3521 -7562.6071 302.1195 -300.8908 -246.9548 30860.2852 -246.9947 -194.7017
ENERGY: 1500000 1.7509 2.3751 2.8333 0.0000 -10748.0286 1465.1005 0.0000 0.0000 1756.2025 -7519.7662 295.5723 -9275.9688 -7559.6264 301.1591 184.0795 305.5512 30851.6798 -168.0373 -111.8278
TCL: Running FEP window  12: Lambda1 0.4499999999999996 Lambda2 0.39999999999999963 [dLambda -0.04999999999999999]
TCL: Setting parameter firsttimestep to 0
TCL: Setting parameter alchLambda to 0.4499999999999996
Info: NONBONDED TABLE R-SQUARED SPACING: 0.0625
Info: NONBONDED TABLE SIZE: 705 POINTS
TCL: Setting parameter alchLambda2 to 0.39999999999999963
Info: NONBONDED TABLE R-SQUARED SPACING: 0.0625
Info: NONBONDED TABLE SIZE: 705 POINTS
TCL: Running for 1500000 steps
ETITLE: TS BOND ANGLE DIHED IMPRP ELECT VDW BOUNDARY MISC KINETIC TOTAL TEMP POTENTIAL TOTALAVG TEMPAVG PRESSURE GPRESSURE VOLUME PRESSAVG GPRESSAVG
ENERGY: 0 1.7509 2.3751 2.8333 0.0000 -10748.0274 1465.2680 0.0000 0.0000 1755.2990 -7520.5010 295.4203 -9275.8000 -7520.5010 295.4203 205.9192 301.7696 30851.6798 205.9192 301.7696
ENERGY: 300000 2.1897 2.2552 2.0150 0.0000 -10899.7099 1457.7977 0.0000 0.0000 1778.9413 -7656.5110 299.3993 -9435.4523 -7602.5603 295.2722 -224.6691 -208.0410 30862.8810 -143.6313 -104.8577
ENERGY: 600000 3.3541 2.2675 3.5599 0.0000 -10848.7032 1438.5842 0.0000 0.0000 1785.3660 -7615.5716 300.4806 -9400.9376 -7587.8791 298.4458 -280.2087 -252.6958 30809.8308 -88.8808 -38.6159
ENERGY: 900000 1.5029 2.6840 6.3895 0.0000 -10923.4615 1493.9374 0.0000 0.0000 1728.3610 -7690.5867 290.8866 -9418.9477 -7597.2551 297.3346 8.9038 86.9342 30831.2027 8.3401 62.7168
ENERGY: 1200000 2.4862 1.5818 2.1239 0.0000 -10779.2583 1454.4698 0.0000 0.0000 1793.1804 -7525.4161 301.7958 -9318.5965 -7585.4187 297.9345 -42.8792 15.2919 31146.6602 -62.3959 -3.6780
ENERGY: 1500000 5.0561 2.2331 1.3743 0.0000 -10834.6060 1406.3010 0.0000 0.0000 1765.7703 -7653.8711 297.1826 -9419.6415 -7576.9657 298.7874 -732.7227 -678.9389 30628.6266 -131.8191 -74.9940
TCL: Running FEP window  13: Lambda1 0.39999999999999963 Lambda2 0.34999999999999964 [dLambda -0.04999999999999999]
TCL: Setting parameter firsttimestep to 0
TCL: Setting parameter alchLambda to 0.39999999999999963
Info: NONBONDED TABLE R-SQUARED SPACING: 0.0625
Info: NONBONDED TABLE SIZE: 705 POINTS
TCL: Setting parameter alchLambda2 to 0.34999999999999964
Info: NONBONDED TABLE R-SQUARED SPACING: 0.0625
Info: NONBONDED TABLE SIZE: 705 POINTS
TCL: Running for 1500000 steps
ETITLE: TS BOND ANGLE DIHED IMPRP ELECT VDW BOUNDARY MISC KINETIC TOTAL TEMP POTENTIAL TOTALAVG TEMPAVG PRESSURE GPRESSURE VOLUME PRESSAVG GPRESSAVG
ENERGY: 0 5.0561 2.2331 1.3743 0.0000 -10834.6067 1406.7450 0.0000 0.0000 1764.8809 -7654.3174 297.0329 -9419.1983 -7654.3174 297.0329 -759.1543 -682.5331 30628.6266 -759.1543 -682.5331
ENERGY: 300000 3.8131 2.5873 2.0022 0.0000 -10898.3524 1495.4854 0.0000 0.0000 1749.5349 -7644.9296 294.4502 -9394.4644 -7571.9240 298.6435 367.6259 445.7716 30468.5348 -79.1161 -23.9057
ENERGY: 600000 3.9134 1.8892 2.7416 0.0000 -10749.2013 1439.4637 0.0000 0.0000 1821.6796 -7479.5138 306.5923 -9301.1934 -7570.9595 300.7909 92.1194 168.3586 30916.2739 28.3162 100.2254
ENERGY: 900000 7.5733 4.4606 3.3708 0.0000 -10778.1303 1483.7985 0.0000 0.0000 1815.8888 -7463.0383 305.6177 -9278.9271 -7560.9631 301.3614 145.7388 187.4422 31166.0681 118.5267 181.6917
ENERGY: 1200000 2.3285 2.8574 2.2275 0.0000 -10917.1882 1533.4772 0.0000 0.0000 1808.1860 -7568.1117 304.3213 -9376.2976 -7565.2494 302.0566 936.6455 969.5462 30227.0406 249.8108 309.9981
ENERGY: 1500000 4.8899 4.6707 3.2613 0.0000 -10911.5193 1534.6046 0.0000 0.0000 1818.9986 -7545.0942 306.1410 -9364.0927 -7564.3362 301.4434 724.4857 796.0606 30433.1534 178.7735 238.3512
TCL: Running FEP window  14: Lambda1 0.34999999999999964 Lambda2 0.29999999999999966 [dLambda -0.04999999999999999]
TCL: Setting parameter firsttimestep to 0
TCL: Setting parameter alchLambda to 0.34999999999999964
Info: NONBONDED TABLE R-SQUARED SPACING: 0.0625
Info: NONBONDED TABLE SIZE: 705 POINTS
TCL: Setting parameter alchLambda2 to 0.29999999999999966
Info: NONBONDED TABLE R-SQUARED SPACING: 0.0625
Info: NONBONDED TABLE SIZE: 705 POINTS
TCL: Running for 1500000 steps
ETITLE: TS BOND ANGLE DIHED IMPRP ELECT VDW BOUNDARY MISC KINETIC TOTAL TEMP POTENTIAL TOTALAVG TEMPAVG PRESSURE GPRESSURE VOLUME PRESSAVG GPRESSAVG
ENERGY: 0 4.8899 4.6707 3.2613 0.0000 -10911.5190 1535.0007 0.0000 0.0000 1818.0942 -7545.6022 305.9888 -9363.6964 -7545.6022 305.9888 710.7563 790.0569 30433.1534 710.7563 790.0569
ENERGY: 300000 1.6171 3.5594 2.1365 0.0000 -10615.7819 1317.4605 0.0000 0.0000 1796.4658 -7494.5427 302.3487 -9291.0084 -7571.6847 302.0491 -1044.8545 -930.6972 31230.7676 85.0207 157.5047
ENERGY: 600000 2.0855 1.2995 3.6333 0.0000 -10845.0107 1436.6185 0.0000 0.0000 1794.4631 -7606.9109 302.0117 -9401.3739 -7570.5792 302.6033 -264.6818 -212.1324 30787.5796 17.1347 84.2810
ENERGY: 900000 2.0712 2.2834 0.8742 0.0000 -10739.5122 1415.1344 0.0000 0.0000 1750.2471 -7568.9019 294.5700 -9319.1491 -7589.5795 301.1008 -486.4018 -393.0039 31154.3008 -232.4278 -160.1239
ENERGY: 1200000 1.2378 3.5589 3.3892 0.0000 -10695.5118 1387.8378 0.0000 0.0000 1734.4781 -7565.0099 291.9161 -9299.4880 -7582.8640 300.0299 -497.5905 -367.9689 30908.7934 -308.4435 -232.0934
ENERGY: 1500000 4.4224 4.5576 2.2371 0.0000 -10631.7385 1296.5781 0.0000 0.0000 1702.0317 -7621.9115 286.4553 -9323.9433 -7586.8956 299.3550 -1462.4862 -1393.6603 31130.2608 -417.1112 -344.0626
TCL: Running FEP window  15: Lambda1 0.29999999999999966 Lambda2 0.24999999999999967 [dLambda -0.04999999999999999]
TCL: Setting parameter firsttimestep to 0
TCL: Setting parameter alchLambda to 0.29999999999999966
Info: NONBONDED TABLE R-SQUARED SPACING: 0.0625
Info: NONBONDED TABLE SIZE: 705 POINTS
TCL: Setting parameter alchLambda2 to 0.24999999999999967
Info: NONBONDED TABLE R-SQUARED SPACING: 0.0625
Info: NONBONDED TABLE SIZE: 705 POINTS
TCL: Running for 1500000 steps
ETITLE: TS BOND ANGLE DIHED IMPRP ELECT VDW BOUNDARY MISC KINETIC TOTAL TEMP POTENTIAL TOTALAVG TEMPAVG PRESSURE GPRESSURE VOLUME PRESSAVG GPRESSAVG
ENERGY: 0 4.4224 4.5576 2.2371 0.0000 -10631.7381 1296.3770 0.0000 0.0000 1701.1428 -7623.0011 286.3057 -9324.1439 -7623.0011 286.3057 -1478.0719 -1399.8444 31130.2608 -1478.0719 -1399.8444
ENERGY: 300000 1.5088 2.4366 1.3808 0.0000 -10792.7544 1380.7624 0.0000 0.0000 1772.2107 -7634.4549 298.2666 -9406.6656 -7600.9304 298.1757 -941.8223 -883.5308 31034.3065 -609.6144 -536.8808
ENERGY: 600000 4.0707 2.3648 2.9491 0.0000 -10784.0181 1429.8161 0.0000 0.0000 1751.8340 -7592.9833 294.8371 -9344.8174 -7591.7530 297.6543 -154.8108 -121.4151 30627.4418 -410.3609 -330.0168
ENERGY: 900000 6.0029 2.5936 2.2430 0.0000 -10866.7338 1483.8906 0.0000 0.0000 1793.6715 -7578.3321 301.8785 -9372.0037 -7581.6323 299.5161 64.1223 139.2377 30670.4862 -442.8466 -366.7892
ENERGY: 1200000 2.1600 2.9443 2.0665 0.0000 -10861.7082 1550.9012 0.0000 0.0000 1791.0110 -7512.6252 301.4307 -9303.6362 -7576.4401 299.8753 868.4792 917.2308 30515.1749 -298.3819 -228.7123
ENERGY: 1500000 1.5150 1.5605 1.5522 0.0000 -11006.9148 1596.7593 0.0000 0.0000 1769.4024 -7636.1254 297.7939 -9405.5278 -7577.2374 299.8287 886.1134 957.7362 30361.0212 -190.0228 -124.0395
TCL: Running FEP window  16: Lambda1 0.24999999999999967 Lambda2 0.19999999999999968 [dLambda -0.04999999999999999]
TCL: Setting parameter firsttimestep to 0
TCL: Setting parameter alchLambda to 0.24999999999999967
Info: NONBONDED TABLE R-SQUARED SPACING: 0.0625
Info: NONBONDED TABLE SIZE: 705 POINTS
TCL: Setting parameter alchLambda2 to 0.19999999999999968
Info: NONBONDED TABLE R-SQUARED SPACING: 0.0625
Info: NONBONDED TABLE SIZE: 705 POINTS
TCL: Running for 1500000 steps
ETITLE: TS BOND ANGLE DIHED IMPRP ELECT VDW BOUNDARY MISC KINETIC TOTAL TEMP POTENTIAL TOTALAVG TEMPAVG PRESSURE GPRESSURE VOLUME PRESSAVG GPRESSAVG
ENERGY: 0 1.5150 1.5605 1.5522 0.0000 -11006.9145 1596.8839 0.0000 0.0000 1768.5409 -7636.8620 297.6489 -9405.4029 -7636.8620 297.6489 860.4960 953.2223 30361.0212 860.4960 953.2223
ENERGY: 300000 3.5042 3.3619 3.0193 0.0000 -10760.0767 1456.6424 0.0000 0.0000 1812.3904 -7481.1584 305.0289 -9293.5488 -7592.1156 297.5047 -123.2792 -61.6599 31014.0611 169.2374 242.5968
ENERGY: 600000 4.5320 2.0136 1.7116 0.0000 -10857.2289 1468.6741 0.0000 0.0000 1746.3939 -7633.9037 293.9215 -9380.2976 -7594.6515 296.2518 -56.7355 23.7851 30695.4650 19.6222 102.5520
ENERGY: 900000 2.5401 3.6915 3.0392 0.0000 -10920.8982 1537.0534 0.0000 0.0000 1831.5615 -7543.0125 308.2554 -9374.5740 -7588.3427 297.9154 394.4686 499.6493 30815.0066 274.6330 355.2458
ENERGY: 1200000 3.4469 2.1306 2.2560 0.0000 -10828.9242 1449.9510 0.0000 0.0000 1799.2062 -7571.9335 302.8099 -9371.1397 -7584.6985 299.4808 -184.1271 -153.2451 30656.4517 116.8483 191.4663
ENERGY: 1500000 3.6055 0.7694 3.7426 0.0000 -10798.9004 1407.5780 0.0000 0.0000 1760.1529 -7623.0519 296.2372 -9383.2048 -7587.2815 299.4066 -440.4012 -352.9598 30627.3944 86.1843 164.0160
TCL: Running FEP window  17: Lambda1 0.19999999999999968 Lambda2 0.1499999999999997 [dLambda -0.04999999999999999]
TCL: Setting parameter firsttimestep to 0
TCL: Setting parameter alchLambda to 0.19999999999999968
Info: NONBONDED TABLE R-SQUARED SPACING: 0.0625
Info: NONBONDED TABLE SIZE: 705 POINTS
TCL: Setting parameter alchLambda2 to 0.1499999999999997
Info: NONBONDED TABLE R-SQUARED SPACING: 0.0625
Info: NONBONDED TABLE SIZE: 705 POINTS
TCL: Running for 1500000 steps
ETITLE: TS BOND ANGLE DIHED IMPRP ELECT VDW BOUNDARY MISC KINETIC TOTAL TEMP POTENTIAL TOTALAVG TEMPAVG PRESSURE GPRESSURE VOLUME PRESSAVG GPRESSAVG
ENERGY: 0 3.6055 0.7694 3.7426 0.0000 -10798.9003 1407.9304 0.0000 0.0000 1759.3030 -7623.5494 296.0942 -9382.8524 -7623.5494 296.0942 -461.1031 -356.9919 30627.3944 -461.1031 -356.9919
ENERGY: 300000 2.9159 1.5066 1.1977 0.0000 -10698.6004 1375.0718 0.0000 0.0000 1853.2673 -7464.6412 311.9085 -9317.9085 -7562.3706 302.6857 -597.4767 -503.7316 30899.2084 0.7310 106.2922
ENERGY: 600000 2.6728 0.8968 3.5116 0.0000 -10720.6168 1446.2555 0.0000 0.0000 1768.4576 -7498.8227 297.6349 -9267.2802 -7544.5856 301.4762 124.1278 221.8781 30608.6773 -9.1335 76.3468
ENERGY: 900000 2.9699 2.8134 3.8452 0.0000 -10649.7853 1369.0343 0.0000 0.0000 1785.4543 -7485.6682 300.4955 -9271.1225 -7552.4098 301.1820 -532.3135 -444.5273 30528.3772 -127.3164 -48.8742
ENERGY: 1200000 2.3493 3.1031 2.1664 0.0000 -10897.1252 1529.1753 0.0000 0.0000 1772.0891 -7588.2421 298.2461 -9360.3311 -7546.9305 301.8945 417.2951 439.1443 30897.2831 -45.0510 23.4232
ENERGY: 1500000 3.8251 3.3617 2.5220 0.0000 -10943.6312 1542.5541 0.0000 0.0000 1780.4110 -7610.9572 299.6467 -9391.3682 -7565.3540 300.1379 680.3422 729.1359 30387.9191 13.3784 81.7958
TCL: Running FEP window  18: Lambda1 0.1499999999999997 Lambda2 0.09999999999999969 [dLambda -0.05 ]
TCL: Setting parameter firsttimestep to 0
TCL: Setting parameter alchLambda to 0.1499999999999997
Info: NONBONDED TABLE R-SQUARED SPACING: 0.0625
Info: NONBONDED TABLE SIZE: 705 POINTS
TCL: Setting parameter alchLambda2 to 0.09999999999999969
Info: NONBONDED TABLE R-SQUARED SPACING: 0.0625
Info: NONBONDED TABLE SIZE: 705 POINTS
TCL: Running for 1500000 steps
ETITLE: TS BOND ANGLE DIHED IMPRP ELECT VDW BOUNDARY MISC KINETIC TOTAL TEMP POTENTIAL TOTALAVG TEMPAVG PRESSURE GPRESSURE VOLUME PRESSAVG GPRESSAVG
ENERGY: 0 3.8251 3.3617 2.5220 0.0000 -10943.6320 1542.4888 0.0000 0.0000 1779.5393 -7611.8951 299.5000 -9391.4344 -7611.8951 299.5000 639.0799 725.6226 30387.9191 639.0799 725.6226
ENERGY: 300000 3.0454 2.1663 0.6808 0.0000 -10713.1586 1327.4713 0.0000 0.0000 1738.3966 -7641.3982 292.5756 -9379.7948 -7543.2274 302.4745 -1053.9065 -1073.8344 30659.4369 -117.5342 -92.2021
ENERGY: 600000 2.6229 2.1322 5.3985 0.0000 -10845.4836 1489.0723 0.0000 0.0000 1763.6609 -7582.5969 296.8276 -9346.2578 -7559.0878 299.2118 235.4045 368.3261 30780.3931 -97.5418 -33.5379
ENERGY: 900000 3.8528 2.1874 3.2797 0.0000 -10866.7739 1507.3452 0.0000 0.0000 1785.7288 -7564.3798 300.5417 -9350.1087 -7549.1163 300.0497 252.9022 256.9616 30968.9086 -103.2313 -48.9378
ENERGY: 1200000 2.8067 5.0077 2.0061 0.0000 -10609.2541 1314.0219 0.0000 0.0000 1744.0728 -7541.3389 293.5309 -9285.4118 -7543.2401 300.3225 -1101.3129 -1080.2970 31160.5453 -211.4575 -156.0571
ENERGY: 1500000 2.4980 1.7802 2.0416 0.0000 -10751.5681 1458.6634 0.0000 0.0000 1733.6375 -7552.9475 291.7746 -9286.5850 -7546.3941 300.4367 67.7393 58.5312 30881.5500 -139.4305 -86.0066
TCL: Running FEP window  19: Lambda1 0.09999999999999969 Lambda2 0.049999999999999684 [dLambda -0.05 ]
TCL: Setting parameter firsttimestep to 0
TCL: Setting parameter alchLambda to 0.09999999999999969
Info: NONBONDED TABLE R-SQUARED SPACING: 0.0625
Info: NONBONDED TABLE SIZE: 705 POINTS
TCL: Setting parameter alchLambda2 to 0.049999999999999684
Info: NONBONDED TABLE R-SQUARED SPACING: 0.0625
Info: NONBONDED TABLE SIZE: 705 POINTS
TCL: Running for 1500000 steps
ETITLE: TS BOND ANGLE DIHED IMPRP ELECT VDW BOUNDARY MISC KINETIC TOTAL TEMP POTENTIAL TOTALAVG TEMPAVG PRESSURE GPRESSURE VOLUME PRESSAVG GPRESSAVG
ENERGY: 0 2.4980 1.7802 2.0416 0.0000 -10751.5696 1458.8663 0.0000 0.0000 1732.7295 -7553.6539 291.6218 -9286.3835 -7553.6539 291.6218 -38.8813 54.7143 30881.5500 -38.8813 54.7143
ENERGY: 300000 2.8808 2.8194 5.9520 0.0000 -10726.1455 1323.7077 0.0000 0.0000 1827.6822 -7563.1034 307.6025 -9390.7856 -7579.9880 300.5891 -1280.2369 -1219.5149 30950.7296 -458.5334 -397.7448
ENERGY: 600000 5.7978 1.8115 2.3321 0.0000 -10614.2167 1391.7853 0.0000 0.0000 1741.3068 -7471.1832 293.0654 -9212.4900 -7560.0246 300.5259 -397.7302 -332.3390 30885.0055 -289.6535 -227.6636
ENERGY: 900000 2.6839 2.0490 0.7292 0.0000 -10796.4739 1450.0671 0.0000 0.0000 1855.8119 -7485.1329 312.3368 -9340.9448 -7550.2324 301.7209 174.3598 194.6672 30688.0345 -299.4853 -235.9800
ENERGY: 1200000 3.6631 2.1728 3.4628 0.0000 -10788.3120 1401.3286 0.0000 0.0000 1782.0427 -7595.6420 299.9213 -9377.6847 -7569.6491 301.4289 -487.6129 -351.8488 30546.9665 -272.9478 -206.4469
ENERGY: 1500000 3.3793 2.6225 1.2575 0.0000 -10798.4416 1462.7036 0.0000 0.0000 1819.0113 -7509.4674 306.1432 -9328.4787 -7561.2440 301.7325 -92.0936 16.4924 30896.3266 -210.7451 -144.3876
TCL: Running FEP window  20: Lambda1 0.049999999999999684 Lambda2 0.0    [dLambda -0.049999999999999684]
TCL: Setting parameter firsttimestep to 0
TCL: Setting parameter alchLambda to 0.049999999999999684
Info: NONBONDED TABLE R-SQUARED SPACING: 0.0625
Info: NONBONDED TABLE SIZE: 705 POINTS
TCL: Setting parameter alchLambda2 to 0.0
Info: NONBONDED TABLE R-SQUARED SPACING: 0.0625
Info: NONBONDED TABLE SIZE: 705 POINTS
TCL: Running for 1500000 steps
ETITLE: TS BOND ANGLE DIHED IMPRP ELECT VDW BOUNDARY MISC KINETIC TOTAL TEMP POTENTIAL TOTALAVG TEMPAVG PRESSURE GPRESSURE VOLUME PRESSAVG GPRESSAVG
ENERGY: 0 3.3793 2.6225 1.2575 0.0000 -10798.4417 1462.4658 0.0000 0.0000 1818.1685 -7510.5481 306.0013 -9328.7165 -7510.5481 306.0013 -62.2565 12.3828 30896.3266 -62.2565 12.3828
ENERGY: 300000 2.1823 1.8541 4.2391 0.0000 -10953.3532 1555.1588 0.0000 0.0000 1824.1279 -7565.7909 307.0043 -9389.9189 -7555.6215 302.3073 1091.8930 1112.0668 29892.7282 339.7271 369.9647
ENERGY: 600000 1.2978 1.8633 2.8227 0.0000 -10761.7439 1400.8080 0.0000 0.0000 1850.0847 -7504.8674 311.3729 -9354.9521 -7554.7162 301.8753 -408.7277 -422.0591 30607.0194 48.5874 78.6725
ENERGY: 900000 2.9475 2.9966 1.3500 0.0000 -10850.5990 1522.5563 0.0000 0.0000 1840.6561 -7480.0925 309.7860 -9320.7486 -7544.9679 302.8679 830.7770 857.4897 30520.5610 220.5818 246.6788
ENERGY: 1200000 4.0407 2.2642 1.1899 0.0000 -10797.3491 1441.4302 0.0000 0.0000 1763.4034 -7585.0208 296.7843 -9348.4242 -7547.2453 301.5723 -224.8381 -147.4763 30466.9853 188.7891 228.1847
ENERGY: 1500000 4.4517 3.6161 1.1956 0.0000 -10853.3936 1450.2051 0.0000 0.0000 1754.7994 -7639.1257 295.3362 -9393.9251 -7549.1405 301.6461 -281.4546 -228.7281 30564.4307 141.1544 186.9745
TCL: Exiting due to exit command.
