Info: SIMULATION PARAMETERS:
Info: TIMESTEP               2
Info: NUMBER OF STEPS        0
Info: STEPS PER CYCLE        10
Info: PERIODIC CELL BASIS 1  34.986 0 0
Info: PERIODIC CELL BASIS 2  0 33.399 0
Info: PERIODIC CELL BASIS 3  0 0 37.451
Info: PERIODIC CELL CENTER   0 0 0
Info: WRAPPING WATERS AROUND PERIODIC BOUNDARIES ON OUTPUT.
Info: WRAPPING ALL CLUSTERS AROUND PERIODIC BOUNDARIES ON OUTPUT.
Info: FIRST LDB TIMESTEP     50
Info: LAST LDB TIMESTEP     -1
Info: HOM BACKGROUND SCALING 1
Info: PME BACKGROUND SCALING 1
Info: MIN ATOMS PER PATCH    40
Info: EMPTY PATCH LOAD       40 ATOMS
Info: INITIAL TEMPERATURE    300
Info: CENTER OF MASS MOVING INITIALLY? NO
Info: DIELECTRIC             1
Info: EXCLUDE                SCALED ONE-FOUR
Info: 1-4 ELECTROSTATICS SCALED BY 0.833333
Info: MODIFIED 1-4 VDW PARAMETERS WILL BE USED
Info: DCD FILENAME           mobley_7608462_equil.dcd
Info: DCD FREQUENCY          100000
Info: DCD FIRST STEP         100000
Info: DCD FILE WILL CONTAIN UNIT CELL DATA
Info: XST FILENAME           mobley_7608462_equil.xst
Info: XST FREQUENCY          100000
Info: NO VELOCITY DCD OUTPUT
Info: NO FORCE DCD OUTPUT
Info: OUTPUT FILENAME        mobley_7608462_equil
Info: BINARY OUTPUT FILES WILL BE USED
Info: RESTART FILENAME       mobley_7608462_equil.restart
Info: RESTART FREQUENCY      100000
Info: BINARY RESTART FILES WILL BE USED
Info: CUTOFF                 9
Info: PAIRLIST DISTANCE      11
Info: PAIRLIST SHRINK RATE   0.01
Info: PAIRLIST GROW RATE     0.01
Info: PAIRLIST TRIGGER       0.3
Info: PAIRLISTS PER CYCLE    2
Info: PAIRLISTS ENABLED
Info: MARGIN                 8
Info: HYDROGEN GROUP CUTOFF  2.5
Info: PATCH DIMENSION        21.5
Info: ENERGY OUTPUT STEPS    100000
Info: ENERGY EVALUATION STEPS    100000
Info: OUTPUT ENERGY PRECISION 4
Info: CROSSTERM ENERGY INCLUDED IN DIHEDRAL
Info: TIMING OUTPUT STEPS    1000000
Info: PRESSURE OUTPUT STEPS  100000
Info: FIXED ATOMS ACTIVE
Info: LANGEVIN DYNAMICS ACTIVE
Info: LANGEVIN TEMPERATURE   30
Info: LANGEVIN USING BBK INTEGRATOR
Info: LANGEVIN DAMPING COEFFICIENT IS 1 INVERSE PS
Info: LANGEVIN DYNAMICS APPLIED TO HYDROGENS
Info: LANGEVIN PISTON PRESSURE CONTROL ACTIVE
Info:        TARGET PRESSURE IS 1.01325 BAR
Info:     OSCILLATION PERIOD IS 50 FS
Info:             DECAY TIME IS 25 FS
Info:     PISTON TEMPERATURE IS 300 K
Info:       PRESSURE CONTROL IS GROUP-BASED
Info:    INITIAL STRAIN RATE IS 0 0 0
Info:       CELL FLUCTUATION IS ISOTROPIC
Info: PARTICLE MESH EWALD (PME) ACTIVE
Info: PME TOLERANCE               1e-06
Info: PME EWALD COEFFICIENT       0.348832
Info: PME INTERPOLATION ORDER     4
Info: PME GRID DIMENSIONS         36 36 40
Info: PME MAXIMUM GRID SPACING    1
Info: FULL ELECTROSTATIC EVALUATION FREQUENCY      2
Info: USING VERLET I (r-RESPA) MTS SCHEME.
Info: C1 SPLITTING OF LONG RANGE ELECTROSTATICS
Info: PLACING ATOMS IN PATCHES BY HYDROGEN GROUPS
Info: RIGID BONDS TO HYDROGEN : ALL
Info:         ERROR TOLERANCE : 1e-08
Info:          MAX ITERATIONS : 100
Info: RIGID WATER USING SETTLE ALGORITHM
Info: RANDOM NUMBER SEED     1742146803
Info: USE HYDROGEN BONDS?    NO
Info: Using AMBER format force field!
Info: AMBER PARM FILE        mobley_7608462.prmtop
Info: COORDINATE PDB         mobley_7608462.pdb
Info: Exclusions will be read from PARM file!
Info: SCNB (VDW SCALING)     2
Info: USING ARITHMETIC MEAN TO COMBINE L-J SIGMA PARAMETERS
Info: BINARY COORDINATES     mobley_7608462_min.coor
Info: SUMMARY OF PARAMETERS:
Info: 5 BONDS
Info: 3 ANGLES
Info:   3 HARMONIC
Info:   0 COSINE-BASED
Info: 2 DIHEDRAL
Info: 0 IMPROPER
Info: 0 CROSSTERM
Info: 0 VDW
Info: 15 VDW_PAIRS
Info: 0 NBTHOLE_PAIRS
Info: STRUCTURE SUMMARY:
Info: 2934 ATOMS
Info: 2934 BONDS
Info: 18 ANGLES
Info: 30 DIHEDRALS
Info: 0 IMPROPERS
Info: 0 CROSSTERMS
Info: 2973 EXCLUSIONS
Info: 12 FIXED ATOMS
Info: 2927 RIGID BONDS
Info: 5 RIGID BONDS BETWEEN FIXED ATOMS
Info: 5844 DEGREES OF FREEDOM
Info: 981 HYDROGEN GROUPS
Info: 3 ATOMS IN LARGEST HYDROGEN GROUP
Info: 981 MIGRATION GROUPS
Info: 3 ATOMS IN LARGEST MIGRATION GROUP
Info: 7 HYDROGEN GROUPS WITH ALL ATOMS FIXED
Info: TOTAL MASS = 17660.1 amu
Info: TOTAL CHARGE = 9.99775e-05 e
Info: MASS DENSITY = 0.670135 g/cm^3
Info: ATOM DENSITY = 0.0670454 atoms/A^3
Info: ADDED 0 IMPLICIT EXCLUSIONS
Info: NONBONDED TABLE R-SQUARED SPACING: 0.0625
Info: NONBONDED TABLE SIZE: 705 POINTS
Info: REMOVING COM VELOCITY -0.21332 0.0146649 -0.14008
TCL: Running for 100000 steps
ETITLE: TS BOND ANGLE DIHED IMPRP ELECT VDW BOUNDARY MISC KINETIC TOTAL TEMP POTENTIAL TOTAL3 TEMPAVG PRESSURE GPRESSURE VOLUME PRESSAVG GPRESSAVG
ENERGY: 0 0.0000 0.0000 0.0000 0.0000 -13611.2976 2371.2905 0.0000 0.0000 1750.0438 -9489.9634 301.3902 -11240.0071 -9489.6277 301.3902 313.4341 346.6139 43761.3967 313.4341 346.6139
ENERGY: 100000 0.0000 0.0000 0.0000 0.0000 -14081.4060 2396.1330 0.0000 0.0000 175.4715 -11509.8014 30.2195 -11685.2729 -11509.2925 30.9284 -487.0433 -451.3797 28897.6623 4.2763 4.2905
TCL: Running 100000 steps at 60 kelvin.
TCL: Setting parameter langevinTemp to 60
TCL: Running for 100000 steps
ETITLE: TS BOND ANGLE DIHED IMPRP ELECT VDW BOUNDARY MISC KINETIC TOTAL TEMP POTENTIAL TOTAL3 TEMPAVG PRESSURE GPRESSURE VOLUME PRESSAVG GPRESSAVG
ENERGY: 100000 0.0000 0.0000 0.0000 0.0000 -14081.4060 2396.1330 0.0000 0.0000 175.3823 -11509.8906 30.2041 -11685.2729 -11509.5348 30.2041 -512.1273 -451.1697 28897.6623 -512.1273 -451.1697
ENERGY: 200000 0.0000 0.0000 0.0000 0.0000 -13974.6952 2363.3682 0.0000 0.0000 351.8762 -11259.4508 60.5996 -11611.3270 -11258.6817 59.9970 -370.4023 -306.0521 28501.8478 3.4719 3.4869
TCL: Running 100000 steps at 90 kelvin.
TCL: Setting parameter langevinTemp to 90
TCL: Running for 100000 steps
ETITLE: TS BOND ANGLE DIHED IMPRP ELECT VDW BOUNDARY MISC KINETIC TOTAL TEMP POTENTIAL TOTAL3 TEMPAVG PRESSURE GPRESSURE VOLUME PRESSAVG GPRESSAVG
ENERGY: 200000 0.0000 0.0000 0.0000 0.0000 -13974.6952 2363.3682 0.0000 0.0000 351.7045 -11259.6225 60.5701 -11611.3270 -11258.8646 60.5701 -370.2771 -306.2956 28501.8478 -370.2771 -306.2956
ENERGY: 300000 0.0000 0.0000 0.0000 0.0000 -13948.9248 2403.5510 0.0000 0.0000 516.4005 -11028.9733 88.9338 -11545.3737 -11027.7092 89.8730 155.2615 196.6544 28497.5382 3.3147 3.3693
TCL: Running 100000 steps at 120 kelvin.
TCL: Setting parameter langevinTemp to 120
TCL: Running for 100000 steps
ETITLE: TS BOND ANGLE DIHED IMPRP ELECT VDW BOUNDARY MISC KINETIC TOTAL TEMP POTENTIAL TOTAL3 TEMPAVG PRESSURE GPRESSURE VOLUME PRESSAVG GPRESSAVG
ENERGY: 300000 0.0000 0.0000 0.0000 0.0000 -13948.9248 2403.5510 0.0000 0.0000 516.1306 -11029.2432 88.8873 -11545.3737 -11028.3241 88.8873 135.8776 196.9829 28497.5382 135.8776 196.9829
ENERGY: 400000 0.0000 0.0000 0.0000 0.0000 -13875.4523 2450.9561 0.0000 0.0000 701.2728 -10723.2234 120.7723 -11424.4962 -10721.4256 119.9484 955.0811 1031.7771 28499.1393 4.1723 4.2827
TCL: Running 100000 steps at 150 kelvin.
TCL: Setting parameter langevinTemp to 150
TCL: Running for 100000 steps
ETITLE: TS BOND ANGLE DIHED IMPRP ELECT VDW BOUNDARY MISC KINETIC TOTAL TEMP POTENTIAL TOTAL3 TEMPAVG PRESSURE GPRESSURE VOLUME PRESSAVG GPRESSAVG
ENERGY: 400000 0.0000 0.0000 0.0000 0.0000 -13875.4523 2450.9561 0.0000 0.0000 700.9337 -10723.5625 120.7139 -11424.4962 -10722.2711 120.7139 977.3915 1031.8583 28499.1393 977.3915 1031.8583
ENERGY: 500000 0.0000 0.0000 0.0000 0.0000 -13478.4938 2252.8270 0.0000 0.0000 857.7522 -10367.9146 147.7209 -11225.6669 -10365.5252 149.8662 -7.2088 20.5468 29014.1682 5.2844 5.3076
TCL: Running 100000 steps at 180 kelvin.
TCL: Setting parameter langevinTemp to 180
TCL: Running for 100000 steps
ETITLE: TS BOND ANGLE DIHED IMPRP ELECT VDW BOUNDARY MISC KINETIC TOTAL TEMP POTENTIAL TOTAL3 TEMPAVG PRESSURE GPRESSURE VOLUME PRESSAVG GPRESSAVG
ENERGY: 500000 0.0000 0.0000 0.0000 0.0000 -13478.4938 2252.8270 0.0000 0.0000 857.3348 -10368.3321 147.6490 -11225.6669 -10366.9597 147.6490 -48.7799 20.1041 29014.1682 -48.7799 20.1041
ENERGY: 600000 0.0000 0.0000 0.0000 0.0000 -13056.4556 2118.2292 0.0000 0.0000 1046.3002 -9891.9262 180.1924 -10938.2264 -9889.3793 179.8873 172.2499 251.8849 28523.5883 3.4692 3.4349
TCL: Running 100000 steps at 210 kelvin.
TCL: Setting parameter langevinTemp to 210
TCL: Running for 100000 steps
ETITLE: TS BOND ANGLE DIHED IMPRP ELECT VDW BOUNDARY MISC KINETIC TOTAL TEMP POTENTIAL TOTAL3 TEMPAVG PRESSURE GPRESSURE VOLUME PRESSAVG GPRESSAVG
ENERGY: 600000 0.0000 0.0000 0.0000 0.0000 -13056.4556 2118.2292 0.0000 0.0000 1045.7915 -9892.4350 180.1048 -10938.2264 -9890.6272 180.1048 179.5411 252.5941 28523.5883 179.5411 252.5941
ENERGY: 700000 0.0000 0.0000 0.0000 0.0000 -12259.8836 1797.4853 0.0000 0.0000 1202.1887 -9260.2097 207.0393 -10462.3984 -9257.5832 210.0771 -395.2755 -328.4613 28289.9717 3.0474 3.0748
TCL: Running 100000 steps at 240 kelvin.
TCL: Setting parameter langevinTemp to 240
TCL: Running for 100000 steps
ETITLE: TS BOND ANGLE DIHED IMPRP ELECT VDW BOUNDARY MISC KINETIC TOTAL TEMP POTENTIAL TOTAL3 TEMPAVG PRESSURE GPRESSURE VOLUME PRESSAVG GPRESSAVG
ENERGY: 700000 0.0000 0.0000 0.0000 0.0000 -12259.8837 1797.4853 0.0000 0.0000 1201.5689 -9260.8295 206.9326 -10462.3984 -9258.6945 206.9326 -401.9658 -328.3596 28289.9717 -401.9658 -328.3596
ENERGY: 800000 0.0000 0.0000 0.0000 0.0000 -11741.2963 1692.9463 0.0000 0.0000 1450.7895 -8597.5606 249.8530 -10048.3500 -8595.0616 240.0916 -117.2145 -37.3625 28938.1327 2.9092 2.7748
TCL: Running 100000 steps at 270 kelvin.
TCL: Setting parameter langevinTemp to 270
TCL: Running for 100000 steps
ETITLE: TS BOND ANGLE DIHED IMPRP ELECT VDW BOUNDARY MISC KINETIC TOTAL TEMP POTENTIAL TOTAL3 TEMPAVG PRESSURE GPRESSURE VOLUME PRESSAVG GPRESSAVG
ENERGY: 800000 0.0000 0.0000 0.0000 0.0000 -11741.2963 1692.9463 0.0000 0.0000 1450.1118 -8598.2383 249.7363 -10048.3500 -8595.7137 249.7363 -126.8148 -39.2811 28938.1327 -126.8148 -39.2811
ENERGY: 900000 0.0000 0.0000 0.0000 0.0000 -11209.2114 1576.5312 0.0000 0.0000 1548.1383 -8084.5419 266.6183 -9632.6802 -8080.2946 269.5013 -64.0934 12.2197 29790.0544 4.7508 4.6482
TCL: Running 1000000 steps at 300 kelvin.
TCL: Setting parameter langevinTemp to 300
TCL: Running for 1000000 steps
ETITLE: TS BOND ANGLE DIHED IMPRP ELECT VDW BOUNDARY MISC KINETIC TOTAL TEMP POTENTIAL TOTAL3 TEMPAVG PRESSURE GPRESSURE VOLUME PRESSAVG GPRESSAVG
ENERGY: 900000 0.0000 0.0000 0.0000 0.0000 -11209.2114 1576.5312 0.0000 0.0000 1547.3249 -8085.3553 266.4782 -9632.6802 -8082.0499 266.4782 -87.5635 11.4313 29790.0544 -87.5635 11.4313
ENERGY: 1100000 0.0000 0.0000 0.0000 0.0000 -10541.3878 1360.7823 0.0000 0.0000 1799.4128 -7381.1927 309.8924 -9180.6055 -7378.2302 300.4311 -517.6355 -477.7100 30638.5795 3.4911 3.4490
ENERGY: 1300000 0.0000 0.0000 0.0000 0.0000 -10673.9826 1441.6299 0.0000 0.0000 1767.3523 -7465.0004 304.3710 -9232.3527 -7460.4899 299.4641 -37.5349 61.2694 30430.0653 4.4726 4.3585
ENERGY: 1500000 0.0000 0.0000 0.0000 0.0000 -10494.3156 1282.0365 0.0000 0.0000 1714.6025 -7497.6766 295.2865 -9212.2791 -7492.7669 300.9091 -1098.6640 -1042.6781 30271.3628 3.4533 3.5031
ENERGY: 1700000 0.0000 0.0000 0.0000 0.0000 -10671.6064 1441.1775 0.0000 0.0000 1784.7846 -7445.6442 307.3732 -9230.4288 -7441.0984 300.1059 50.0903 166.6638 30313.0495 3.8563 3.8417
ENERGY: 1900000 0.0000 0.0000 0.0000 0.0000 -10488.8890 1271.2482 0.0000 0.0000 1765.6131 -7452.0277 304.0715 -9217.6408 -7446.9214 300.2429 -1455.7545 -1312.3317 30521.9527 2.7375 2.8463
TCL: Exiting due to exit command.
