Info: SIMULATION PARAMETERS:
Info: TIMESTEP               2
Info: NUMBER OF STEPS        0
Info: STEPS PER CYCLE        10
Info: PERIODIC CELL BASIS 1  41.545 0 0
Info: PERIODIC CELL BASIS 2  0 39.757 0
Info: PERIODIC CELL BASIS 3  0 0 42.04
Info: PERIODIC CELL CENTER   0 0 0
Info: WRAPPING WATERS AROUND PERIODIC BOUNDARIES ON OUTPUT.
Info: WRAPPING ALL CLUSTERS AROUND PERIODIC BOUNDARIES ON OUTPUT.
Info: FIRST LDB TIMESTEP     50
Info: LAST LDB TIMESTEP     -1
Info: HOM BACKGROUND SCALING 1
Info: PME BACKGROUND SCALING 1
Info: MIN ATOMS PER PATCH    40
Info: EMPTY PATCH LOAD       40 ATOMS
Info: INITIAL TEMPERATURE    300
Info: CENTER OF MASS MOVING INITIALLY? NO
Info: DIELECTRIC             1
Info: EXCLUDE                SCALED ONE-FOUR
Info: 1-4 ELECTROSTATICS SCALED BY 0.833333
Info: MODIFIED 1-4 VDW PARAMETERS WILL BE USED
Info: DCD FILENAME           mobley_2681549_min.dcd
Info: DCD FREQUENCY          5000
Info: DCD FIRST STEP         5000
Info: DCD FILE WILL CONTAIN UNIT CELL DATA
Info: XST FILENAME           mobley_2681549_min.xst
Info: XST FREQUENCY          5000
Info: NO VELOCITY DCD OUTPUT
Info: NO FORCE DCD OUTPUT
Info: OUTPUT FILENAME        mobley_2681549_min
Info: BINARY OUTPUT FILES WILL BE USED
Info: RESTART FILENAME       mobley_2681549_min.restart
Info: RESTART FREQUENCY      5000
Info: BINARY RESTART FILES WILL BE USED
Info: CUTOFF                 9
Info: PAIRLIST DISTANCE      11
Info: PAIRLIST SHRINK RATE   0.01
Info: PAIRLIST GROW RATE     0.01
Info: PAIRLIST TRIGGER       0.3
Info: PAIRLISTS PER CYCLE    2
Info: PAIRLISTS ENABLED
Info: MARGIN                 8
Info: HYDROGEN GROUP CUTOFF  2.5
Info: PATCH DIMENSION        21.5
Info: ENERGY OUTPUT STEPS    5000
Info: ENERGY EVALUATION STEPS    5000
Info: OUTPUT ENERGY PRECISION 4
Info: CROSSTERM ENERGY INCLUDED IN DIHEDRAL
Info: TIMING OUTPUT STEPS    50000
Info: PRESSURE OUTPUT STEPS  5000
Info: LANGEVIN DYNAMICS ACTIVE
Info: LANGEVIN TEMPERATURE   300
Info: LANGEVIN USING BBK INTEGRATOR
Info: LANGEVIN DAMPING COEFFICIENT IS 1 INVERSE PS
Info: LANGEVIN DYNAMICS APPLIED TO HYDROGENS
Info: LANGEVIN PISTON PRESSURE CONTROL ACTIVE
Info:        TARGET PRESSURE IS 1.01325 BAR
Info:     OSCILLATION PERIOD IS 50 FS
Info:             DECAY TIME IS 25 FS
Info:     PISTON TEMPERATURE IS 300 K
Info:       PRESSURE CONTROL IS GROUP-BASED
Info:    INITIAL STRAIN RATE IS 0 0 0
Info:       CELL FLUCTUATION IS ISOTROPIC
Info: PARTICLE MESH EWALD (PME) ACTIVE
Info: PME TOLERANCE               1e-06
Info: PME EWALD COEFFICIENT       0.348832
Info: PME INTERPOLATION ORDER     4
Info: PME GRID DIMENSIONS         44 40 44
Info: PME MAXIMUM GRID SPACING    1
Info: FULL ELECTROSTATIC EVALUATION FREQUENCY      2
Info: USING VERLET I (r-RESPA) MTS SCHEME.
Info: C1 SPLITTING OF LONG RANGE ELECTROSTATICS
Info: PLACING ATOMS IN PATCHES BY HYDROGEN GROUPS
Info: RIGID BONDS TO HYDROGEN : ALL
Info:         ERROR TOLERANCE : 1e-08
Info:          MAX ITERATIONS : 100
Info: RIGID WATER USING SETTLE ALGORITHM
Info: RANDOM NUMBER SEED     1741356662
Info: USE HYDROGEN BONDS?    NO
Info: Using AMBER format force field!
Info: AMBER PARM FILE        mobley_2681549.prmtop
Info: COORDINATE PDB         mobley_2681549.pdb
Info: Exclusions will be read from PARM file!
Info: SCNB (VDW SCALING)     2
Info: USING ARITHMETIC MEAN TO COMBINE L-J SIGMA PARAMETERS
Info: SUMMARY OF PARAMETERS:
Info: 5 BONDS
Info: 3 ANGLES
Info:   3 HARMONIC
Info:   0 COSINE-BASED
Info: 2 DIHEDRAL
Info: 0 IMPROPER
Info: 0 CROSSTERM
Info: 0 VDW
Info: 15 VDW_PAIRS
Info: 0 NBTHOLE_PAIRS
Info: STRUCTURE SUMMARY:
Info: 5055 ATOMS
Info: 5055 BONDS
Info: 18 ANGLES
Info: 30 DIHEDRALS
Info: 0 IMPROPERS
Info: 0 CROSSTERMS
Info: 5094 EXCLUSIONS
Info: 5046 RIGID BONDS
Info: 10119 DEGREES OF FREEDOM
Info: 1690 HYDROGEN GROUPS
Info: 3 ATOMS IN LARGEST HYDROGEN GROUP
Info: 1690 MIGRATION GROUPS
Info: 3 ATOMS IN LARGEST MIGRATION GROUP
Info: TOTAL MASS = 30466.3 amu
Info: TOTAL CHARGE = 0.000199992 e
Info: MASS DENSITY = 0.728592 g/cm^3
Info: ATOM DENSITY = 0.0727991 atoms/A^3
Info: ADDED 0 IMPLICIT EXCLUSIONS
Info: NONBONDED TABLE R-SQUARED SPACING: 0.0625
Info: NONBONDED TABLE SIZE: 705 POINTS
Info: REMOVING COM VELOCITY 0.06676 0.0332132 -0.0243246
TCL: Minimizing for 2000 steps
ETITLE: TS BOND ANGLE DIHED IMPRP ELECT VDW BOUNDARY MISC KINETIC TOTAL TEMP POTENTIAL TOTAL3 TEMPAVG PRESSURE GPRESSURE VOLUME PRESSAVG GPRESSAVG
ENERGY: 0 0.7627 0.0471 0.0001 0.0000 -15880.5832 1809.5829 0.0000 0.0000 0.0000 -14070.1904 0.0000 -14070.1904 -14070.1904 0.0000 11330.8533 -16002.3476 69437.6599 11330.8533 -16002.3476
ENERGY: 400 1.3145 0.5260 0.0707 0.0000 -21464.2593 3184.8399 0.0000 0.0000 0.0000 -18277.5082 0.0000 -18277.5082 -18277.5082 0.0000 16398.4394 16541.9817 69437.6599 16398.4394 16541.9817
ENERGY: 800 1.0727 0.2847 0.0514 0.0000 -22254.0918 3505.6801 0.0000 0.0000 0.0000 -18747.0029 0.0000 -18747.0029 -18747.0029 0.0000 17777.9148 17911.9415 69437.6599 17777.9148 17911.9415
ENERGY: 1200 0.4543 0.2171 0.1199 0.0000 -22687.6021 3692.0111 0.0000 0.0000 0.0000 -18994.7996 0.0000 -18994.7996 -18994.7996 0.0000 18668.7083 18786.2704 69437.6599 18668.7083 18786.2704
ENERGY: 1600 1.7411 0.7974 0.0728 0.0000 -22933.2061 3804.9976 0.0000 0.0000 0.0000 -19125.5972 0.0000 -19125.5972 -19125.5972 0.0000 19218.3511 19332.0239 69437.6599 19218.3511 19332.0239
ENERGY: 2000 0.3595 0.2108 0.0535 0.0000 -23134.9559 3926.5330 0.0000 0.0000 0.0000 -19207.7991 0.0000 -19207.7991 -19207.7991 0.0000 19811.4774 19919.9514 69437.6599 19811.4774 19919.9514
TCL: Exiting due to exit command.
Info: NAMD 3.0.1 for Linux-x86_64-multicore
Info: Please visit http://www.ks.uiuc.edu/Research/namd/
Info: for updates, documentation, and support information.
Info: Please cite Phillips et al., J. Chem. Phys. 153:044130 (2020) doi:10.1063/5.0014475
Info: in all publications reporting results obtained with NAMD.
Info: Based on Charm++/Converse 80000 for multicore-linux-x86_64-gcc
Info: Built Mon Oct 14 11:11:06 CDT 2024 by dhardy on athine.ks.uiuc.edu
Info: 1 NAMD  3.0.1  Linux-x86_64-multicore  16    k026  z5358697
Info: Running on 16 processors, 1 nodes, 1 physical nodes.
Info: CPU topology information available.
Info: Charm++/Converse parallel runtime startup completed at 0.0334812 s
Info: 1043.46 MB of memory in use based on /proc/self/stat
Info: Configuration file is mobley_2681549_equil.namd
Info: Working in the current directory /srv/scratch/z5358697/prod_prep_2/2681549
TCL: Running 25000 steps at 30 kelvin.
TCL: Suspending until startup complete.
Info: SIMULATION PARAMETERS:
Info: TIMESTEP               2
Info: NUMBER OF STEPS        0
Info: STEPS PER CYCLE        10
Info: PERIODIC CELL BASIS 1  41.545 0 0
Info: PERIODIC CELL BASIS 2  0 39.757 0
Info: PERIODIC CELL BASIS 3  0 0 42.04
Info: PERIODIC CELL CENTER   0 0 0
Info: WRAPPING WATERS AROUND PERIODIC BOUNDARIES ON OUTPUT.
Info: WRAPPING ALL CLUSTERS AROUND PERIODIC BOUNDARIES ON OUTPUT.
Info: FIRST LDB TIMESTEP     50
Info: LAST LDB TIMESTEP     -1
Info: HOM BACKGROUND SCALING 1
Info: PME BACKGROUND SCALING 1
Info: MIN ATOMS PER PATCH    40
Info: EMPTY PATCH LOAD       40 ATOMS
Info: INITIAL TEMPERATURE    300
Info: CENTER OF MASS MOVING INITIALLY? NO
Info: DIELECTRIC             1
Info: EXCLUDE                SCALED ONE-FOUR
Info: 1-4 ELECTROSTATICS SCALED BY 0.833333
Info: MODIFIED 1-4 VDW PARAMETERS WILL BE USED
Info: DCD FILENAME           mobley_2681549_equil.dcd
Info: DCD FREQUENCY          5000
Info: DCD FIRST STEP         5000
Info: DCD FILE WILL CONTAIN UNIT CELL DATA
Info: XST FILENAME           mobley_2681549_equil.xst
Info: XST FREQUENCY          5000
Info: NO VELOCITY DCD OUTPUT
Info: NO FORCE DCD OUTPUT
Info: OUTPUT FILENAME        mobley_2681549_equil
Info: BINARY OUTPUT FILES WILL BE USED
Info: RESTART FILENAME       mobley_2681549_equil.restart
Info: RESTART FREQUENCY      5000
Info: BINARY RESTART FILES WILL BE USED
Info: CUTOFF                 9
Info: PAIRLIST DISTANCE      11
Info: PAIRLIST SHRINK RATE   0.01
Info: PAIRLIST GROW RATE     0.01
Info: PAIRLIST TRIGGER       0.3
Info: PAIRLISTS PER CYCLE    2
Info: PAIRLISTS ENABLED
Info: MARGIN                 8
Info: HYDROGEN GROUP CUTOFF  2.5
Info: PATCH DIMENSION        21.5
Info: ENERGY OUTPUT STEPS    5000
Info: ENERGY EVALUATION STEPS    5000
Info: OUTPUT ENERGY PRECISION 4
Info: CROSSTERM ENERGY INCLUDED IN DIHEDRAL
Info: TIMING OUTPUT STEPS    50000
Info: PRESSURE OUTPUT STEPS  5000
Info: LANGEVIN DYNAMICS ACTIVE
Info: LANGEVIN TEMPERATURE   30
Info: LANGEVIN USING BBK INTEGRATOR
Info: LANGEVIN DAMPING COEFFICIENT IS 1 INVERSE PS
Info: LANGEVIN DYNAMICS APPLIED TO HYDROGENS
Info: LANGEVIN PISTON PRESSURE CONTROL ACTIVE
Info:        TARGET PRESSURE IS 1.01325 BAR
Info:     OSCILLATION PERIOD IS 50 FS
Info:             DECAY TIME IS 25 FS
Info:     PISTON TEMPERATURE IS 300 K
Info:       PRESSURE CONTROL IS GROUP-BASED
Info:    INITIAL STRAIN RATE IS 0 0 0
Info:       CELL FLUCTUATION IS ISOTROPIC
Info: PARTICLE MESH EWALD (PME) ACTIVE
Info: PME TOLERANCE               1e-06
Info: PME EWALD COEFFICIENT       0.348832
Info: PME INTERPOLATION ORDER     4
Info: PME GRID DIMENSIONS         44 40 44
Info: PME MAXIMUM GRID SPACING    1
Info: FULL ELECTROSTATIC EVALUATION FREQUENCY      2
Info: USING VERLET I (r-RESPA) MTS SCHEME.
Info: C1 SPLITTING OF LONG RANGE ELECTROSTATICS
Info: PLACING ATOMS IN PATCHES BY HYDROGEN GROUPS
Info: RIGID BONDS TO HYDROGEN : ALL
Info:         ERROR TOLERANCE : 1e-08
Info:          MAX ITERATIONS : 100
Info: RIGID WATER USING SETTLE ALGORITHM
Info: RANDOM NUMBER SEED     1741356678
Info: USE HYDROGEN BONDS?    NO
Info: Using AMBER format force field!
Info: AMBER PARM FILE        mobley_2681549.prmtop
Info: COORDINATE PDB         mobley_2681549.pdb
Info: Exclusions will be read from PARM file!
Info: SCNB (VDW SCALING)     2
Info: USING ARITHMETIC MEAN TO COMBINE L-J SIGMA PARAMETERS
Info: BINARY COORDINATES     mobley_2681549_min.coor
Info: SUMMARY OF PARAMETERS:
Info: 5 BONDS
Info: 3 ANGLES
Info:   3 HARMONIC
Info:   0 COSINE-BASED
Info: 2 DIHEDRAL
Info: 0 IMPROPER
Info: 0 CROSSTERM
Info: 0 VDW
Info: 15 VDW_PAIRS
Info: 0 NBTHOLE_PAIRS
Info: STRUCTURE SUMMARY:
Info: 5055 ATOMS
Info: 5055 BONDS
Info: 18 ANGLES
Info: 30 DIHEDRALS
Info: 0 IMPROPERS
Info: 0 CROSSTERMS
Info: 5094 EXCLUSIONS
Info: 5046 RIGID BONDS
Info: 10119 DEGREES OF FREEDOM
Info: 1690 HYDROGEN GROUPS
Info: 3 ATOMS IN LARGEST HYDROGEN GROUP
Info: 1690 MIGRATION GROUPS
Info: 3 ATOMS IN LARGEST MIGRATION GROUP
Info: TOTAL MASS = 30466.3 amu
Info: TOTAL CHARGE = 0.000199992 e
Info: MASS DENSITY = 0.728592 g/cm^3
Info: ATOM DENSITY = 0.0727991 atoms/A^3
Info: ADDED 0 IMPLICIT EXCLUSIONS
Info: NONBONDED TABLE R-SQUARED SPACING: 0.0625
Info: NONBONDED TABLE SIZE: 705 POINTS
Info: REMOVING COM VELOCITY 0.00199704 -0.0769665 0.00504018
TCL: Running for 25000 steps
ETITLE: TS BOND ANGLE DIHED IMPRP ELECT VDW BOUNDARY MISC KINETIC TOTAL TEMP POTENTIAL TOTAL3 TEMPAVG PRESSURE GPRESSURE VOLUME PRESSAVG GPRESSAVG
ENERGY: 0 0.3595 0.2108 0.0535 0.0000 -23134.9559 3926.5330 0.0000 0.0000 3030.1180 -16177.6811 301.3785 -19207.7991 -16177.0802 301.3785 -73.8269 -35.4521 69437.6599 -73.8269 -35.4521
ENERGY: 5000 0.3790 0.1638 0.3020 0.0000 -24206.9518 4145.8604 0.0000 0.0000 308.0954 -19752.1511 30.6435 -20060.2464 -19751.3525 47.9440 -398.0562 -334.9547 50122.0416 5.8062 5.5916
ENERGY: 10000 0.2340 0.1067 0.1761 0.0000 -24497.1379 4390.6270 0.0000 0.0000 307.9982 -19797.9958 30.6338 -20105.9940 -19797.1030 30.3265 818.2273 870.6762 49435.9506 -0.0808 -0.1044
ENERGY: 15000 0.2818 0.1928 0.1873 0.0000 -24312.0397 4196.1742 0.0000 0.0000 306.1503 -19809.0532 30.4500 -20115.2034 -19808.0330 29.9007 -205.5874 -146.7435 49661.2437 -1.1862 -1.2950
ENERGY: 20000 0.3703 0.1776 0.2452 0.0000 -24255.0501 4123.9656 0.0000 0.0000 308.4925 -19821.7988 30.6830 -20130.2913 -19820.8283 30.2030 -524.1275 -471.3243 49674.4894 2.1771 2.2817
ENERGY: 25000 0.2010 0.4030 0.2579 0.0000 -24300.1320 4146.1676 0.0000 0.0000 301.9442 -19851.1583 30.0317 -20153.1025 -19850.4567 30.0951 -484.9297 -438.1005 49529.0086 4.2744 4.3907
TCL: Running 25000 steps at 60 kelvin.
TCL: Setting parameter langevinTemp to 60
TCL: Running for 25000 steps
ETITLE: TS BOND ANGLE DIHED IMPRP ELECT VDW BOUNDARY MISC KINETIC TOTAL TEMP POTENTIAL TOTAL3 TEMPAVG PRESSURE GPRESSURE VOLUME PRESSAVG GPRESSAVG
ENERGY: 25000 0.2010 0.4030 0.2579 0.0000 -24300.1320 4146.1676 0.0000 0.0000 301.7916 -19851.3109 30.0165 -20153.1025 -19850.6227 30.0165 -490.1662 -438.1285 49529.0086 -490.1662 -438.1285
ENERGY: 30000 0.4728 0.7516 0.5898 0.0000 -23957.5044 4061.9025 0.0000 0.0000 617.7046 -19276.0831 61.4375 -19893.7877 -19274.5690 57.2113 -354.0162 -290.7267 49859.9519 0.6064 0.6219
ENERGY: 35000 0.5909 0.3595 0.8082 0.0000 -24346.1652 4396.9271 0.0000 0.0000 597.6626 -19349.8168 59.4441 -19947.4794 -19348.2649 60.4233 1296.7971 1355.6795 49039.9974 1.1441 0.9975
ENERGY: 40000 0.5016 0.2720 1.0290 0.0000 -24101.1029 4130.8510 0.0000 0.0000 596.8103 -19371.6390 59.3593 -19968.4493 -19370.0769 60.2663 -51.2079 -8.5159 49329.0632 3.9771 3.8277
ENERGY: 45000 0.5904 0.8194 0.5752 0.0000 -23962.2539 3965.2543 0.0000 0.0000 597.8835 -19397.1311 59.4661 -19995.0146 -19395.9696 60.4510 -1022.7035 -961.7834 49753.5844 3.8287 3.6924
ENERGY: 50000 0.3004 0.4421 0.6821 0.0000 -24084.7721 4084.8698 0.0000 0.0000 603.7121 -19394.7656 60.0458 -19998.4777 -19392.8459 60.3608 -469.0268 -405.5822 49670.9731 -0.8473 -0.8355
TCL: Running 25000 steps at 90 kelvin.
TCL: Setting parameter langevinTemp to 90
TCL: Running for 25000 steps
ETITLE: TS BOND ANGLE DIHED IMPRP ELECT VDW BOUNDARY MISC KINETIC TOTAL TEMP POTENTIAL TOTAL3 TEMPAVG PRESSURE GPRESSURE VOLUME PRESSAVG GPRESSAVG
ENERGY: 50000 0.3004 0.4421 0.6821 0.0000 -24084.7721 4084.8698 0.0000 0.0000 603.4060 -19395.0717 60.0154 -19998.4777 -19393.7251 60.0154 -471.3401 -405.2705 49670.9731 -471.3401 -405.2705
ENERGY: 55000 0.4556 0.7950 1.3798 0.0000 -23677.2048 3962.7415 0.0000 0.0000 909.3506 -18802.4823 90.4449 -19711.8329 -18800.5185 86.8674 -344.3921 -274.7172 49781.6710 3.7477 4.2180
ENERGY: 60000 0.5829 1.3153 0.2316 0.0000 -23707.0828 3991.5745 0.0000 0.0000 900.0616 -18813.3170 89.5210 -19713.3786 -18810.3644 90.2727 -256.1811 -200.5610 49692.3443 4.7828 4.9442
ENERGY: 65000 0.8495 0.8818 0.8545 0.0000 -23785.4173 4039.2353 0.0000 0.0000 930.5722 -18813.0240 92.5556 -19743.5962 -18810.4421 90.1174 -11.6054 59.2892 49679.5771 0.8776 1.0658
ENERGY: 70000 1.9606 0.3977 0.6216 0.0000 -23888.4674 4115.4326 0.0000 0.0000 890.4761 -18879.5788 88.5676 -19770.0549 -18877.7191 90.4633 178.0111 234.7612 49584.0477 0.3676 0.3064
ENERGY: 75000 0.4744 1.1430 0.8772 0.0000 -23979.8659 4157.9520 0.0000 0.0000 901.9674 -18917.4518 89.7106 -19819.4193 -18915.2302 90.5909 292.9812 354.5743 49598.2331 1.1140 0.8943
TCL: Running 25000 steps at 120 kelvin.
TCL: Setting parameter langevinTemp to 120
TCL: Running for 25000 steps
ETITLE: TS BOND ANGLE DIHED IMPRP ELECT VDW BOUNDARY MISC KINETIC TOTAL TEMP POTENTIAL TOTAL3 TEMPAVG PRESSURE GPRESSURE VOLUME PRESSAVG GPRESSAVG
ENERGY: 75000 0.4744 1.1430 0.8772 0.0000 -23979.8659 4157.9520 0.0000 0.0000 901.5140 -18917.9053 89.6655 -19819.4193 -18916.0209 89.6655 306.4869 354.5124 49598.2331 306.4869 354.5124
ENERGY: 80000 0.9756 1.6513 0.6984 0.0000 -23332.4130 3894.7460 0.0000 0.0000 1232.2982 -18202.0436 122.5656 -19434.3418 -18199.2978 117.3016 -158.6486 -89.9067 50022.3605 4.5491 4.2769
ENERGY: 85000 0.9203 1.4448 1.2069 0.0000 -23458.5990 3988.9620 0.0000 0.0000 1203.0801 -18262.9849 119.6595 -19466.0650 -18260.3665 121.2101 356.0945 413.5186 49592.3325 -3.1209 -2.9794
ENERGY: 90000 1.0390 1.0836 2.0537 0.0000 -23310.2272 3802.6376 0.0000 0.0000 1206.5519 -18296.8614 120.0048 -19503.4133 -18294.0426 120.0660 -763.4418 -668.8162 49945.9933 6.8010 6.6653
ENERGY: 95000 1.0117 0.8827 0.9114 0.0000 -23449.6316 3949.9031 0.0000 0.0000 1170.8325 -18326.0902 116.4522 -19496.9227 -18323.5500 120.0389 -41.6818 47.3297 49816.6694 0.8235 0.8118
ENERGY: 100000 0.9152 2.5633 1.3631 0.0000 -23428.8622 3887.5707 0.0000 0.0000 1193.0811 -18343.3688 118.6650 -19536.4499 -18340.8288 119.8553 -361.6397 -304.3554 49662.6209 3.0073 2.9946
TCL: Running 25000 steps at 150 kelvin.
TCL: Setting parameter langevinTemp to 150
TCL: Running for 25000 steps
ETITLE: TS BOND ANGLE DIHED IMPRP ELECT VDW BOUNDARY MISC KINETIC TOTAL TEMP POTENTIAL TOTAL3 TEMPAVG PRESSURE GPRESSURE VOLUME PRESSAVG GPRESSAVG
ENERGY: 100000 0.9152 2.5633 1.3631 0.0000 -23428.8622 3887.5707 0.0000 0.0000 1192.4820 -18343.9678 118.6054 -19536.4499 -18341.3196 118.6054 -360.0793 -304.9226 49662.6209 -360.0793 -304.9226
ENERGY: 105000 1.5638 1.5130 0.9268 0.0000 -22969.0576 3833.7774 0.0000 0.0000 1561.6846 -17569.5922 155.3267 -19131.2767 -17565.6984 147.1897 293.8192 319.6347 49774.3377 2.9634 2.7469
ENERGY: 110000 1.0023 2.1581 1.2658 0.0000 -22943.0285 3742.4144 0.0000 0.0000 1482.9970 -17713.1908 147.5004 -19196.1878 -17709.0479 150.5210 -382.0803 -291.2298 49803.1432 1.4413 1.5851
ENERGY: 115000 0.5198 0.9154 2.1136 0.0000 -22948.6738 3763.4064 0.0000 0.0000 1509.2326 -17672.4860 150.1098 -19181.7186 -17667.7464 149.9788 -274.8164 -221.2833 50032.9902 -1.1461 -0.9873
ENERGY: 120000 3.2378 0.8060 1.0181 0.0000 -23066.6865 3816.6027 0.0000 0.0000 1470.1198 -17774.9021 146.2196 -19245.0219 -17771.5588 150.7885 -301.8270 -267.5173 50115.2817 -3.2472 -2.7293
ENERGY: 125000 1.7392 1.8976 1.6189 0.0000 -23165.2171 3876.6005 0.0000 0.0000 1542.2641 -17741.0968 153.3951 -19283.3609 -17738.2205 150.2135 117.3242 129.6972 49667.1730 4.4253 4.2410
TCL: Running 50000 steps at 180 kelvin.
TCL: Setting parameter langevinTemp to 180
TCL: Running for 50000 steps
ETITLE: TS BOND ANGLE DIHED IMPRP ELECT VDW BOUNDARY MISC KINETIC TOTAL TEMP POTENTIAL TOTAL3 TEMPAVG PRESSURE GPRESSURE VOLUME PRESSAVG GPRESSAVG
ENERGY: 125000 1.7392 1.8976 1.6189 0.0000 -23165.2171 3876.6005 0.0000 0.0000 1541.4818 -17741.8791 153.3173 -19283.3609 -17738.7585 153.3173 82.0665 128.9278 49667.1730 82.0665 128.9278
ENERGY: 135000 2.2025 2.6888 1.9589 0.0000 -22516.6972 3706.1328 0.0000 0.0000 1793.4776 -17010.2366 178.3811 -18803.7142 -17005.7948 179.8190 271.9936 334.7361 49941.6082 3.3737 3.3666
ENERGY: 145000 1.1095 1.2148 1.6493 0.0000 -22450.8919 3670.4343 0.0000 0.0000 1862.0429 -16914.4410 185.2006 -18776.4839 -16910.4600 180.3378 307.1713 349.1075 49599.7787 1.0706 0.9059
ENERGY: 155000 2.7983 4.6830 0.9963 0.0000 -22440.5275 3590.5598 0.0000 0.0000 1845.9091 -16995.5811 183.5960 -18841.4902 -16992.1495 180.8015 -102.9547 -68.1899 49419.8835 2.0051 2.3618
ENERGY: 165000 2.8947 0.8123 1.9001 0.0000 -22432.9729 3594.9154 0.0000 0.0000 1813.0805 -17019.3699 180.3308 -18832.4504 -17015.9371 180.0646 -236.1677 -178.7282 49758.1598 3.4809 3.2144
ENERGY: 175000 4.4399 1.3801 0.6839 0.0000 -22636.0010 3756.6124 0.0000 0.0000 1799.8483 -17073.0364 179.0147 -18872.8847 -17068.5871 179.1844 591.7668 671.1679 49198.5953 4.7289 5.0136
TCL: Running 50000 steps at 210 kelvin.
TCL: Setting parameter langevinTemp to 210
TCL: Running for 50000 steps
ETITLE: TS BOND ANGLE DIHED IMPRP ELECT VDW BOUNDARY MISC KINETIC TOTAL TEMP POTENTIAL TOTAL3 TEMPAVG PRESSURE GPRESSURE VOLUME PRESSAVG GPRESSAVG
ENERGY: 175000 4.4399 1.3801 0.6839 0.0000 -22636.0010 3756.6124 0.0000 0.0000 1798.9436 -17073.9411 178.9247 -18872.8847 -17070.6570 178.9247 618.6842 671.7734 49198.5953 618.6842 671.7734
ENERGY: 185000 3.9957 1.3389 2.3327 0.0000 -21359.4694 3272.0888 0.0000 0.0000 2086.2756 -15993.4375 207.5030 -18079.7132 -15988.0023 208.4831 -94.6311 31.8889 49276.6064 6.0506 6.7721
ENERGY: 195000 1.4550 3.2149 1.8586 0.0000 -21397.4979 3251.3997 0.0000 0.0000 2043.1893 -16096.3805 203.2176 -18139.5697 -16092.8053 210.2797 -250.2344 -160.1842 49357.5131 -1.5057 -1.7069
ENERGY: 205000 1.1236 2.3345 1.4941 0.0000 -21437.1179 3292.0182 0.0000 0.0000 2144.0752 -15996.0724 213.2518 -18140.1476 -15991.4998 210.5932 -35.7943 35.9350 49320.9577 7.5346 7.4746
ENERGY: 215000 1.3696 0.6482 3.5185 0.0000 -21365.5413 3339.3039 0.0000 0.0000 2165.1750 -15855.5261 215.3505 -18020.7011 -15852.2469 210.5229 477.4678 541.5601 49294.4715 0.8922 0.2301
ENERGY: 225000 3.1861 0.9252 0.7871 0.0000 -21305.0694 3282.4529 0.0000 0.0000 2114.5848 -15903.1333 210.3187 -18017.7181 -15896.7385 209.5544 41.0043 123.3967 49376.3007 -0.7613 -0.7323
TCL: Running 50000 steps at 240 kelvin.
TCL: Setting parameter langevinTemp to 240
TCL: Running for 50000 steps
ETITLE: TS BOND ANGLE DIHED IMPRP ELECT VDW BOUNDARY MISC KINETIC TOTAL TEMP POTENTIAL TOTAL3 TEMPAVG PRESSURE GPRESSURE VOLUME PRESSAVG GPRESSAVG
ENERGY: 225000 3.1861 0.9252 0.7871 0.0000 -21305.0694 3282.4529 0.0000 0.0000 2113.5412 -15904.1768 210.2149 -18017.7181 -15900.4664 210.2149 57.2221 125.3347 49376.3007 57.2221 125.3347
ENERGY: 235000 1.3144 1.2215 1.0517 0.0000 -20318.0957 2945.3546 0.0000 0.0000 2445.3845 -14923.7689 243.2204 -17369.1534 -14918.5524 238.3123 -382.2978 -319.6410 50380.3495 4.2371 4.0545
ENERGY: 245000 3.9306 1.9998 2.4335 0.0000 -20349.6896 3031.8427 0.0000 0.0000 2412.9176 -14896.5655 239.9912 -17309.4831 -14891.9464 239.0639 269.5908 391.9106 49730.8597 -0.9019 -1.0495
ENERGY: 255000 2.0112 1.2746 0.8352 0.0000 -20221.4896 2875.1262 0.0000 0.0000 2481.5605 -14860.6820 246.8185 -17342.2425 -14856.0079 238.5812 -305.8725 -234.9365 49471.7631 7.3546 7.4900
ENERGY: 265000 2.7421 2.3415 4.0674 0.0000 -20193.6017 2909.0896 0.0000 0.0000 2430.5607 -14844.8004 241.7460 -17275.3611 -14842.5647 241.3746 -61.3628 22.8268 49706.1296 5.1521 4.6561
ENERGY: 275000 1.4681 1.8372 2.7096 0.0000 -20294.7270 2964.3839 0.0000 0.0000 2416.5865 -14907.7417 240.3561 -17324.3282 -14902.6262 238.7305 -56.7964 58.4745 50308.7999 2.9115 2.9596
TCL: Running 50000 steps at 270 kelvin.
TCL: Setting parameter langevinTemp to 270
TCL: Running for 50000 steps
ETITLE: TS BOND ANGLE DIHED IMPRP ELECT VDW BOUNDARY MISC KINETIC TOTAL TEMP POTENTIAL TOTAL3 TEMPAVG PRESSURE GPRESSURE VOLUME PRESSAVG GPRESSAVG
ENERGY: 275000 1.4681 1.8372 2.7096 0.0000 -20294.7270 2964.3839 0.0000 0.0000 2415.3741 -14908.9541 240.2355 -17324.3282 -14905.5290 240.2355 -36.6335 58.7942 50308.7999 -36.6335 58.7942
ENERGY: 285000 1.8369 5.1526 0.7583 0.0000 -19407.1921 2776.3547 0.0000 0.0000 2637.8216 -13985.2681 262.3604 -16623.0897 -13978.4809 270.4770 413.2418 486.2477 50421.5107 4.2590 4.0133
ENERGY: 295000 3.4017 2.7827 1.6116 0.0000 -19269.9069 2727.1511 0.0000 0.0000 2694.5313 -13840.4286 268.0008 -16534.9599 -13836.3358 269.1609 105.4978 172.6308 51152.9786 -1.5958 -1.4464
ENERGY: 305000 2.1045 2.1706 2.7732 0.0000 -19313.0216 2719.6612 0.0000 0.0000 2685.9583 -13900.3538 267.1481 -16586.3121 -13893.6368 270.4723 99.8059 214.0980 50565.5523 5.1057 5.0220
ENERGY: 315000 1.4469 5.0175 1.9168 0.0000 -19119.1593 2634.2716 0.0000 0.0000 2735.3546 -13741.1519 272.0611 -16476.5065 -13735.5105 270.8219 66.1824 84.1429 50446.4775 4.7808 5.2049
ENERGY: 325000 3.0301 0.8649 2.4414 0.0000 -19290.5359 2767.5933 0.0000 0.0000 2749.4408 -13767.1654 273.4621 -16516.6061 -13759.9711 271.0505 707.4040 759.6330 50458.3641 2.7932 2.5507
TCL: Running 1000000 steps at 300 kelvin.
TCL: Setting parameter langevinTemp to 300
TCL: Running for 1000000 steps
ETITLE: TS BOND ANGLE DIHED IMPRP ELECT VDW BOUNDARY MISC KINETIC TOTAL TEMP POTENTIAL TOTAL3 TEMPAVG PRESSURE GPRESSURE VOLUME PRESSAVG GPRESSAVG
ENERGY: 325000 3.0301 0.8649 2.4414 0.0000 -19290.5359 2767.5933 0.0000 0.0000 2748.0591 -13768.5471 273.3247 -16516.6061 -13764.1843 273.3247 679.6007 761.2308 50458.3641 679.6007 761.2308
ENERGY: 525000 1.4843 1.5700 2.3819 0.0000 -18584.0159 2659.0639 0.0000 0.0000 2949.2618 -12970.2539 293.3365 -15919.5157 -12965.4870 300.1058 838.9722 919.8242 51786.2089 1.9397 1.9205
ENERGY: 725000 5.0497 1.2166 2.5766 0.0000 -18348.2690 2474.9232 0.0000 0.0000 3034.8265 -12829.6763 301.8469 -15864.5029 -12821.1646 302.6348 -82.1600 19.6581 52318.9079 6.5104 6.6401
ENERGY: 925000 3.2601 2.8508 1.6060 0.0000 -18186.3963 2306.5611 0.0000 0.0000 2989.8759 -12882.2424 297.3760 -15872.1183 -12877.7675 299.5547 -673.1025 -584.9481 52512.7811 3.6690 4.4367
ENERGY: 1125000 3.0973 1.5652 3.4037 0.0000 -18360.9901 2492.5214 0.0000 0.0000 3026.3817 -12834.0208 301.0069 -15860.4025 -12828.9204 300.4101 166.4628 256.5493 51843.5424 1.3152 0.8818
ENERGY: 1325000 1.8200 1.7428 2.8913 0.0000 -18361.7761 2468.7047 0.0000 0.0000 3019.3803 -12867.2369 300.3106 -15886.6172 -12861.6415 301.0603 -87.3501 -19.6534 52630.7105 0.6304 0.9007
TCL: Exiting due to exit command.
