Info: SIMULATION PARAMETERS:
Info: TIMESTEP               2
Info: NUMBER OF STEPS        0
Info: STEPS PER CYCLE        10
Info: PERIODIC CELL BASIS 1  39.806 0 0
Info: PERIODIC CELL BASIS 2  0 41.432 0
Info: PERIODIC CELL BASIS 3  0 0 42.247
Info: PERIODIC CELL CENTER   0 0 0
Info: WRAPPING WATERS AROUND PERIODIC BOUNDARIES ON OUTPUT.
Info: WRAPPING ALL CLUSTERS AROUND PERIODIC BOUNDARIES ON OUTPUT.
Info: FIRST LDB TIMESTEP     50
Info: LAST LDB TIMESTEP     -1
Info: HOM BACKGROUND SCALING 1
Info: PME BACKGROUND SCALING 1
Info: MIN ATOMS PER PATCH    40
Info: EMPTY PATCH LOAD       40 ATOMS
Info: INITIAL TEMPERATURE    300
Info: CENTER OF MASS MOVING INITIALLY? NO
Info: DIELECTRIC             1
Info: EXCLUDE                SCALED ONE-FOUR
Info: 1-4 ELECTROSTATICS SCALED BY 0.833333
Info: MODIFIED 1-4 VDW PARAMETERS WILL BE USED
Info: DCD FILENAME           mobley_2881590_min.dcd
Info: DCD FREQUENCY          5000
Info: DCD FIRST STEP         5000
Info: DCD FILE WILL CONTAIN UNIT CELL DATA
Info: XST FILENAME           mobley_2881590_min.xst
Info: XST FREQUENCY          5000
Info: NO VELOCITY DCD OUTPUT
Info: NO FORCE DCD OUTPUT
Info: OUTPUT FILENAME        mobley_2881590_min
Info: BINARY OUTPUT FILES WILL BE USED
Info: RESTART FILENAME       mobley_2881590_min.restart
Info: RESTART FREQUENCY      5000
Info: BINARY RESTART FILES WILL BE USED
Info: CUTOFF                 9
Info: PAIRLIST DISTANCE      11
Info: PAIRLIST SHRINK RATE   0.01
Info: PAIRLIST GROW RATE     0.01
Info: PAIRLIST TRIGGER       0.3
Info: PAIRLISTS PER CYCLE    2
Info: PAIRLISTS ENABLED
Info: MARGIN                 8
Info: HYDROGEN GROUP CUTOFF  2.5
Info: PATCH DIMENSION        21.5
Info: ENERGY OUTPUT STEPS    5000
Info: ENERGY EVALUATION STEPS    5000
Info: OUTPUT ENERGY PRECISION 4
Info: CROSSTERM ENERGY INCLUDED IN DIHEDRAL
Info: TIMING OUTPUT STEPS    50000
Info: PRESSURE OUTPUT STEPS  5000
Info: LANGEVIN DYNAMICS ACTIVE
Info: LANGEVIN TEMPERATURE   300
Info: LANGEVIN USING BBK INTEGRATOR
Info: LANGEVIN DAMPING COEFFICIENT IS 1 INVERSE PS
Info: LANGEVIN DYNAMICS APPLIED TO HYDROGENS
Info: LANGEVIN PISTON PRESSURE CONTROL ACTIVE
Info:        TARGET PRESSURE IS 1.01325 BAR
Info:     OSCILLATION PERIOD IS 50 FS
Info:             DECAY TIME IS 25 FS
Info:     PISTON TEMPERATURE IS 300 K
Info:       PRESSURE CONTROL IS GROUP-BASED
Info:    INITIAL STRAIN RATE IS 0 0 0
Info:       CELL FLUCTUATION IS ISOTROPIC
Info: PARTICLE MESH EWALD (PME) ACTIVE
Info: PME TOLERANCE               1e-06
Info: PME EWALD COEFFICIENT       0.348832
Info: PME INTERPOLATION ORDER     4
Info: PME GRID DIMENSIONS         40 44 44
Info: PME MAXIMUM GRID SPACING    1
Info: FULL ELECTROSTATIC EVALUATION FREQUENCY      2
Info: USING VERLET I (r-RESPA) MTS SCHEME.
Info: C1 SPLITTING OF LONG RANGE ELECTROSTATICS
Info: PLACING ATOMS IN PATCHES BY HYDROGEN GROUPS
Info: RIGID BONDS TO HYDROGEN : ALL
Info:         ERROR TOLERANCE : 1e-08
Info:          MAX ITERATIONS : 100
Info: RIGID WATER USING SETTLE ALGORITHM
Info: RANDOM NUMBER SEED     1741323241
Info: USE HYDROGEN BONDS?    NO
Info: Using AMBER format force field!
Info: AMBER PARM FILE        mobley_2881590.prmtop
Info: COORDINATE PDB         mobley_2881590.pdb
Info: Exclusions will be read from PARM file!
Info: SCNB (VDW SCALING)     2
Info: USING ARITHMETIC MEAN TO COMBINE L-J SIGMA PARAMETERS
Info: SUMMARY OF PARAMETERS:
Info: 8 BONDS
Info: 10 ANGLES
Info:   10 HARMONIC
Info:   0 COSINE-BASED
Info: 7 DIHEDRAL
Info: 0 IMPROPER
Info: 0 CROSSTERM
Info: 0 VDW
Info: 36 VDW_PAIRS
Info: 0 NBTHOLE_PAIRS
Info: STRUCTURE SUMMARY:
Info: 5003 ATOMS
Info: 5002 BONDS
Info: 28 ANGLES
Info: 33 DIHEDRALS
Info: 0 IMPROPERS
Info: 0 CROSSTERMS
Info: 5062 EXCLUSIONS
Info: 4995 RIGID BONDS
Info: 10014 DEGREES OF FREEDOM
Info: 1670 HYDROGEN GROUPS
Info: 4 ATOMS IN LARGEST HYDROGEN GROUP
Info: 1670 MIGRATION GROUPS
Info: 4 ATOMS IN LARGEST MIGRATION GROUP
Info: TOTAL MASS = 30061.7 amu
Info: TOTAL CHARGE = -0.000200003 e
Info: MASS DENSITY = 0.716461 g/cm^3
Info: ATOM DENSITY = 0.0718043 atoms/A^3
Info: ADDED 0 IMPLICIT EXCLUSIONS
Info: NONBONDED TABLE R-SQUARED SPACING: 0.0625
Info: NONBONDED TABLE SIZE: 705 POINTS
Info: REMOVING COM VELOCITY 0.0282385 0.0705481 -0.103387
TCL: Minimizing for 2000 steps
ETITLE: TS BOND ANGLE DIHED IMPRP ELECT VDW BOUNDARY MISC KINETIC TOTAL TEMP POTENTIAL TOTAL3 TEMPAVG PRESSURE GPRESSURE VOLUME PRESSAVG GPRESSAVG
ENERGY: 0 0.0399 2.0401 0.4037 0.0000 -15562.8442 1763.2038 0.0000 0.0000 0.0000 -13797.1568 0.0000 -13797.1568 -13797.1568 0.0000 11085.5238 -15641.1193 69675.5349 11085.5238 -15641.1193
ENERGY: 400 3.6046 4.3830 0.4917 0.0000 -20611.1551 2888.2579 0.0000 0.0000 0.0000 -17714.4178 0.0000 -17714.4178 -17714.4178 0.0000 14983.5736 15129.8230 69675.5349 14983.5736 15129.8230
ENERGY: 800 1.1727 1.5342 0.7778 0.0000 -21948.4460 3558.9286 0.0000 0.0000 0.0000 -18386.0326 0.0000 -18386.0326 -18386.0326 0.0000 18018.3134 18132.1073 69675.5349 18018.3134 18132.1073
ENERGY: 1200 0.9105 1.2445 0.8333 0.0000 -22387.1140 3702.9895 0.0000 0.0000 0.0000 -18681.1362 0.0000 -18681.1362 -18681.1362 0.0000 18675.7462 18793.9431 69675.5349 18675.7462 18793.9431
ENERGY: 1600 0.2810 1.4836 0.8065 0.0000 -22713.1545 3842.4864 0.0000 0.0000 0.0000 -18868.0968 0.0000 -18868.0968 -18868.0968 0.0000 19342.9730 19441.5477 69675.5349 19342.9730 19441.5477
ENERGY: 2000 0.3843 1.1515 0.9063 0.0000 -22876.8207 3917.3857 0.0000 0.0000 0.0000 -18956.9929 0.0000 -18956.9929 -18956.9929 0.0000 19683.5072 19784.0944 69675.5349 19683.5072 19784.0944
TCL: Exiting due to exit command.
Info: NAMD 3.0.1 for Linux-x86_64-multicore
Info: Please visit http://www.ks.uiuc.edu/Research/namd/
Info: for updates, documentation, and support information.
Info: Please cite Phillips et al., J. Chem. Phys. 153:044130 (2020) doi:10.1063/5.0014475
Info: in all publications reporting results obtained with NAMD.
Info: Based on Charm++/Converse 80000 for multicore-linux-x86_64-gcc
Info: Built Mon Oct 14 11:11:06 CDT 2024 by dhardy on athine.ks.uiuc.edu
Info: 1 NAMD  3.0.1  Linux-x86_64-multicore  16    k118  z5358697
Info: Running on 16 processors, 1 nodes, 1 physical nodes.
Info: CPU topology information available.
Info: Charm++/Converse parallel runtime startup completed at 0.006654 s
Info: 1043.48 MB of memory in use based on /proc/self/stat
Info: Configuration file is mobley_2881590_equil.namd
Info: Working in the current directory /srv/scratch/z5358697/prod_prep_3/2881590
TCL: Running 25000 steps at 30 kelvin.
TCL: Suspending until startup complete.
Info: SIMULATION PARAMETERS:
Info: TIMESTEP               2
Info: NUMBER OF STEPS        0
Info: STEPS PER CYCLE        10
Info: PERIODIC CELL BASIS 1  39.806 0 0
Info: PERIODIC CELL BASIS 2  0 41.432 0
Info: PERIODIC CELL BASIS 3  0 0 42.247
Info: PERIODIC CELL CENTER   0 0 0
Info: WRAPPING WATERS AROUND PERIODIC BOUNDARIES ON OUTPUT.
Info: WRAPPING ALL CLUSTERS AROUND PERIODIC BOUNDARIES ON OUTPUT.
Info: FIRST LDB TIMESTEP     50
Info: LAST LDB TIMESTEP     -1
Info: HOM BACKGROUND SCALING 1
Info: PME BACKGROUND SCALING 1
Info: MIN ATOMS PER PATCH    40
Info: EMPTY PATCH LOAD       40 ATOMS
Info: INITIAL TEMPERATURE    300
Info: CENTER OF MASS MOVING INITIALLY? NO
Info: DIELECTRIC             1
Info: EXCLUDE                SCALED ONE-FOUR
Info: 1-4 ELECTROSTATICS SCALED BY 0.833333
Info: MODIFIED 1-4 VDW PARAMETERS WILL BE USED
Info: DCD FILENAME           mobley_2881590_equil.dcd
Info: DCD FREQUENCY          5000
Info: DCD FIRST STEP         5000
Info: DCD FILE WILL CONTAIN UNIT CELL DATA
Info: XST FILENAME           mobley_2881590_equil.xst
Info: XST FREQUENCY          5000
Info: NO VELOCITY DCD OUTPUT
Info: NO FORCE DCD OUTPUT
Info: OUTPUT FILENAME        mobley_2881590_equil
Info: BINARY OUTPUT FILES WILL BE USED
Info: RESTART FILENAME       mobley_2881590_equil.restart
Info: RESTART FREQUENCY      5000
Info: BINARY RESTART FILES WILL BE USED
Info: CUTOFF                 9
Info: PAIRLIST DISTANCE      11
Info: PAIRLIST SHRINK RATE   0.01
Info: PAIRLIST GROW RATE     0.01
Info: PAIRLIST TRIGGER       0.3
Info: PAIRLISTS PER CYCLE    2
Info: PAIRLISTS ENABLED
Info: MARGIN                 8
Info: HYDROGEN GROUP CUTOFF  2.5
Info: PATCH DIMENSION        21.5
Info: ENERGY OUTPUT STEPS    5000
Info: ENERGY EVALUATION STEPS    5000
Info: OUTPUT ENERGY PRECISION 4
Info: CROSSTERM ENERGY INCLUDED IN DIHEDRAL
Info: TIMING OUTPUT STEPS    50000
Info: PRESSURE OUTPUT STEPS  5000
Info: LANGEVIN DYNAMICS ACTIVE
Info: LANGEVIN TEMPERATURE   30
Info: LANGEVIN USING BBK INTEGRATOR
Info: LANGEVIN DAMPING COEFFICIENT IS 1 INVERSE PS
Info: LANGEVIN DYNAMICS APPLIED TO HYDROGENS
Info: LANGEVIN PISTON PRESSURE CONTROL ACTIVE
Info:        TARGET PRESSURE IS 1.01325 BAR
Info:     OSCILLATION PERIOD IS 50 FS
Info:             DECAY TIME IS 25 FS
Info:     PISTON TEMPERATURE IS 300 K
Info:       PRESSURE CONTROL IS GROUP-BASED
Info:    INITIAL STRAIN RATE IS 0 0 0
Info:       CELL FLUCTUATION IS ISOTROPIC
Info: PARTICLE MESH EWALD (PME) ACTIVE
Info: PME TOLERANCE               1e-06
Info: PME EWALD COEFFICIENT       0.348832
Info: PME INTERPOLATION ORDER     4
Info: PME GRID DIMENSIONS         40 44 44
Info: PME MAXIMUM GRID SPACING    1
Info: FULL ELECTROSTATIC EVALUATION FREQUENCY      2
Info: USING VERLET I (r-RESPA) MTS SCHEME.
Info: C1 SPLITTING OF LONG RANGE ELECTROSTATICS
Info: PLACING ATOMS IN PATCHES BY HYDROGEN GROUPS
Info: RIGID BONDS TO HYDROGEN : ALL
Info:         ERROR TOLERANCE : 1e-08
Info:          MAX ITERATIONS : 100
Info: RIGID WATER USING SETTLE ALGORITHM
Info: RANDOM NUMBER SEED     1741323257
Info: USE HYDROGEN BONDS?    NO
Info: Using AMBER format force field!
Info: AMBER PARM FILE        mobley_2881590.prmtop
Info: COORDINATE PDB         mobley_2881590.pdb
Info: Exclusions will be read from PARM file!
Info: SCNB (VDW SCALING)     2
Info: USING ARITHMETIC MEAN TO COMBINE L-J SIGMA PARAMETERS
Info: BINARY COORDINATES     mobley_2881590_min.coor
Info: SUMMARY OF PARAMETERS:
Info: 8 BONDS
Info: 10 ANGLES
Info:   10 HARMONIC
Info:   0 COSINE-BASED
Info: 7 DIHEDRAL
Info: 0 IMPROPER
Info: 0 CROSSTERM
Info: 0 VDW
Info: 36 VDW_PAIRS
Info: 0 NBTHOLE_PAIRS
Info: STRUCTURE SUMMARY:
Info: 5003 ATOMS
Info: 5002 BONDS
Info: 28 ANGLES
Info: 33 DIHEDRALS
Info: 0 IMPROPERS
Info: 0 CROSSTERMS
Info: 5062 EXCLUSIONS
Info: 4995 RIGID BONDS
Info: 10014 DEGREES OF FREEDOM
Info: 1670 HYDROGEN GROUPS
Info: 4 ATOMS IN LARGEST HYDROGEN GROUP
Info: 1670 MIGRATION GROUPS
Info: 4 ATOMS IN LARGEST MIGRATION GROUP
Info: TOTAL MASS = 30061.7 amu
Info: TOTAL CHARGE = -0.000200003 e
Info: MASS DENSITY = 0.716461 g/cm^3
Info: ATOM DENSITY = 0.0718043 atoms/A^3
Info: ADDED 0 IMPLICIT EXCLUSIONS
Info: NONBONDED TABLE R-SQUARED SPACING: 0.0625
Info: NONBONDED TABLE SIZE: 705 POINTS
Info: REMOVING COM VELOCITY 0.00055249 0.0176669 0.0213539
TCL: Running for 25000 steps
ETITLE: TS BOND ANGLE DIHED IMPRP ELECT VDW BOUNDARY MISC KINETIC TOTAL TEMP POTENTIAL TOTAL3 TEMPAVG PRESSURE GPRESSURE VOLUME PRESSAVG GPRESSAVG
ENERGY: 0 0.3843 1.1515 0.9063 0.0000 -22876.8207 3917.3857 0.0000 0.0000 3041.8556 -15915.1373 305.7183 -18956.9929 -15914.5018 305.7183 113.6208 159.3869 69675.5349 113.6208 159.3869
ENERGY: 5000 0.4437 1.7884 0.9429 0.0000 -24028.0242 4162.8643 0.0000 0.0000 302.9866 -19558.9982 30.4513 -19861.9848 -19558.3474 48.1384 -59.1070 -16.6312 48783.6299 0.6977 0.8076
ENERGY: 10000 0.3193 1.4329 0.8292 0.0000 -24057.8117 4148.1513 0.0000 0.0000 297.6561 -19609.4229 29.9156 -19907.0790 -19608.7483 30.2096 -139.1139 -86.8638 48408.9292 2.6238 2.7251
ENERGY: 15000 0.8368 1.5947 0.9159 0.0000 -24022.8192 4101.1343 0.0000 0.0000 297.4776 -19620.8599 29.8977 -19918.3375 -19620.0512 30.2208 -430.6149 -387.1914 48506.1144 10.5073 10.2057
ENERGY: 20000 0.6874 1.2170 0.5882 0.0000 -24105.3569 4166.0829 0.0000 0.0000 302.9263 -19633.8550 30.4453 -19936.7813 -19632.7577 30.1018 -169.6757 -116.9200 48417.2070 9.8952 9.6255
ENERGY: 25000 0.8520 1.8700 0.5619 0.0000 -24202.8622 4239.1814 0.0000 0.0000 303.1625 -19657.2344 30.4690 -19960.3969 -19656.3698 30.3129 136.7536 191.5121 48389.9269 -2.6527 -2.7172
TCL: Running 25000 steps at 60 kelvin.
TCL: Setting parameter langevinTemp to 60
TCL: Running for 25000 steps
ETITLE: TS BOND ANGLE DIHED IMPRP ELECT VDW BOUNDARY MISC KINETIC TOTAL TEMP POTENTIAL TOTAL3 TEMPAVG PRESSURE GPRESSURE VOLUME PRESSAVG GPRESSAVG
ENERGY: 25000 0.8520 1.8700 0.5619 0.0000 -24202.8622 4239.1814 0.0000 0.0000 303.0145 -19657.3824 30.4541 -19960.3969 -19656.6691 30.4541 132.4233 191.5869 48389.9269 132.4233 191.5869
ENERGY: 30000 2.2141 2.3234 0.9465 0.0000 -23872.9902 4184.4581 0.0000 0.0000 597.3066 -19085.7414 60.0316 -19683.0480 -19084.4066 57.1470 439.0088 496.6785 48604.5206 1.8220 2.0045
ENERGY: 35000 0.4122 1.9777 1.0228 0.0000 -23926.1796 4234.2287 0.0000 0.0000 605.2352 -19083.3029 60.8285 -19688.5381 -19081.7388 60.0655 725.8965 752.7708 48633.3619 4.9761 4.9733
ENERGY: 40000 1.6716 2.8185 0.6323 0.0000 -23881.3089 4138.0726 0.0000 0.0000 579.7895 -19158.3246 58.2711 -19738.1140 -19156.2875 60.1880 189.3006 253.6102 48405.9528 2.2821 2.6223
ENERGY: 45000 0.4262 2.5430 0.5342 0.0000 -24080.7284 4326.0893 0.0000 0.0000 601.4880 -19149.6478 60.4519 -19751.1357 -19147.6703 60.0330 1215.3128 1258.5798 47980.9341 -0.2194 0.2511
ENERGY: 50000 0.8069 2.4409 0.6364 0.0000 -23920.5709 4161.6240 0.0000 0.0000 604.2328 -19150.8299 60.7277 -19755.0627 -19149.3694 60.0829 318.9181 364.2971 48337.9943 -0.9834 -0.9640
TCL: Running 25000 steps at 90 kelvin.
TCL: Setting parameter langevinTemp to 90
TCL: Running for 25000 steps
ETITLE: TS BOND ANGLE DIHED IMPRP ELECT VDW BOUNDARY MISC KINETIC TOTAL TEMP POTENTIAL TOTAL3 TEMPAVG PRESSURE GPRESSURE VOLUME PRESSAVG GPRESSAVG
ENERGY: 50000 0.8069 2.4409 0.6364 0.0000 -23920.5709 4161.6240 0.0000 0.0000 603.9363 -19151.1264 60.6979 -19755.0627 -19150.0508 60.6979 304.5133 364.1286 48337.9943 304.5133 364.1286
ENERGY: 55000 0.6026 2.7823 1.1140 0.0000 -23459.0558 3991.7778 0.0000 0.0000 917.2403 -18545.5388 92.1862 -19462.7790 -18544.5134 87.3278 143.9191 188.4150 48603.5334 0.9271 1.1135
ENERGY: 60000 0.4222 2.1262 1.1331 0.0000 -23550.1727 4045.9437 0.0000 0.0000 902.7465 -18597.8011 90.7295 -19500.5476 -18595.8419 90.1114 370.7311 403.1882 48583.3980 2.1955 2.1727
ENERGY: 65000 0.9525 3.0045 2.1828 0.0000 -23487.9814 3988.8204 0.0000 0.0000 924.0653 -18568.9558 92.8721 -19493.0211 -18566.3505 90.4796 -5.8907 55.3836 48570.4031 2.6786 2.7718
ENERGY: 70000 1.2026 2.5207 1.0038 0.0000 -23445.2029 3928.0894 0.0000 0.0000 896.2220 -18616.1645 90.0738 -19512.3865 -18613.2887 90.4712 -370.9366 -313.5729 48695.6238 -0.7712 -0.6733
ENERGY: 75000 0.8550 3.7598 2.0156 0.0000 -23564.7791 4018.6981 0.0000 0.0000 900.7857 -18638.6649 90.5324 -19539.4506 -18636.8424 90.5414 61.4693 131.7520 48387.1726 -1.7165 -1.7376
TCL: Running 25000 steps at 120 kelvin.
TCL: Setting parameter langevinTemp to 120
TCL: Running for 25000 steps
ETITLE: TS BOND ANGLE DIHED IMPRP ELECT VDW BOUNDARY MISC KINETIC TOTAL TEMP POTENTIAL TOTAL3 TEMPAVG PRESSURE GPRESSURE VOLUME PRESSAVG GPRESSAVG
ENERGY: 75000 0.8550 3.7598 2.0156 0.0000 -23564.7791 4018.6981 0.0000 0.0000 900.3412 -18639.1094 90.4878 -19539.4506 -18636.8930 90.4878 81.3378 130.8219 48387.1726 81.3378 130.8219
ENERGY: 80000 1.6209 4.7433 1.5710 0.0000 -22965.4788 3767.1072 0.0000 0.0000 1185.9200 -18004.5164 119.1896 -19190.4364 -18001.0478 117.3492 -483.5324 -418.6728 48900.0158 5.1920 5.0104
ENERGY: 85000 1.3721 4.5322 0.6615 0.0000 -23210.1232 3908.4795 0.0000 0.0000 1174.0774 -18121.0005 117.9993 -19295.0779 -18118.5259 119.8353 116.2211 195.6983 48506.2187 5.8098 6.0048
ENERGY: 90000 0.6035 2.8423 0.5477 0.0000 -23195.0041 3892.2261 0.0000 0.0000 1213.5512 -18085.2333 121.9666 -19298.7845 -18083.4587 120.2921 36.3738 88.0707 48477.3796 0.0315 0.1714
ENERGY: 95000 0.9596 4.4606 1.3216 0.0000 -23322.2548 4020.6191 0.0000 0.0000 1158.9906 -18135.9033 116.4830 -19294.8939 -18134.0066 119.7333 707.8598 754.9437 48242.0413 8.9595 8.7494
ENERGY: 100000 0.9410 4.6883 1.6791 0.0000 -23161.3422 3807.5321 0.0000 0.0000 1194.1747 -18152.3271 120.0192 -19346.5018 -18148.8392 119.9459 -501.7044 -439.7396 48547.2422 0.0900 0.2475
TCL: Running 25000 steps at 150 kelvin.
TCL: Setting parameter langevinTemp to 150
TCL: Running for 25000 steps
ETITLE: TS BOND ANGLE DIHED IMPRP ELECT VDW BOUNDARY MISC KINETIC TOTAL TEMP POTENTIAL TOTAL3 TEMPAVG PRESSURE GPRESSURE VOLUME PRESSAVG GPRESSAVG
ENERGY: 100000 0.9410 4.6883 1.6791 0.0000 -23161.3422 3807.5321 0.0000 0.0000 1193.5898 -18152.9120 119.9604 -19346.5018 -18150.2842 119.9604 -496.5455 -439.4353 48547.2422 -496.5455 -439.4353
ENERGY: 105000 2.4614 5.8303 0.8980 0.0000 -22811.1806 3803.4314 0.0000 0.0000 1462.2888 -17536.2708 146.9657 -18998.5596 -17533.1085 145.8912 252.1074 273.1715 48814.2961 -2.9088 -3.1003
ENERGY: 110000 1.0346 5.2569 1.2594 0.0000 -22718.5157 3716.2600 0.0000 0.0000 1472.4147 -17522.2901 147.9834 -18994.7048 -17518.2564 149.8721 -370.1349 -310.6163 49191.8278 0.9681 1.2175
ENERGY: 115000 0.3937 4.1930 1.2260 0.0000 -22869.1752 3816.7905 0.0000 0.0000 1490.3274 -17556.2445 149.7837 -19046.5719 -17553.1163 149.5654 4.7072 66.6995 49201.2212 -3.3097 -2.5891
ENERGY: 120000 1.0308 5.3717 1.5122 0.0000 -22786.6642 3763.0484 0.0000 0.0000 1442.1224 -17573.5787 144.9389 -19015.7011 -17571.1529 149.5589 -122.7690 -83.2559 49187.9431 9.5435 9.3917
ENERGY: 125000 1.7188 4.1688 1.1949 0.0000 -23044.9617 3976.5484 0.0000 0.0000 1496.5861 -17564.7447 150.4127 -19061.3307 -17560.7651 150.5669 920.4068 988.1688 48778.7101 5.0444 5.0010
TCL: Running 50000 steps at 180 kelvin.
TCL: Setting parameter langevinTemp to 180
TCL: Running for 50000 steps
ETITLE: TS BOND ANGLE DIHED IMPRP ELECT VDW BOUNDARY MISC KINETIC TOTAL TEMP POTENTIAL TOTAL3 TEMPAVG PRESSURE GPRESSURE VOLUME PRESSAVG GPRESSAVG
ENERGY: 125000 1.7188 4.1688 1.1949 0.0000 -23044.9617 3976.5484 0.0000 0.0000 1495.8539 -17565.4768 150.3391 -19061.3307 -17562.6021 150.3391 930.0439 987.3999 48778.7101 930.0439 987.3999
ENERGY: 135000 0.6878 4.9454 1.0945 0.0000 -22084.9921 3530.4156 0.0000 0.0000 1774.8836 -16772.9653 178.3827 -18547.8489 -16768.6460 180.7446 -252.4460 -172.5139 49325.3228 3.8033 3.5873
ENERGY: 145000 1.7757 4.0681 0.7565 0.0000 -22133.5545 3587.9000 0.0000 0.0000 1746.5059 -16792.5484 175.5306 -18539.0543 -16787.6907 180.9311 -33.0529 -3.3385 49401.0622 4.1788 3.8403
ENERGY: 155000 2.6672 4.4439 1.8024 0.0000 -22060.9768 3459.2579 0.0000 0.0000 1761.0734 -16831.7321 176.9947 -18592.8055 -16827.6777 179.1543 -832.0432 -769.8223 49619.6448 5.3548 4.9812
ENERGY: 165000 1.3443 4.4378 2.2999 0.0000 -22347.7451 3678.7037 0.0000 0.0000 1824.2914 -16836.6680 183.3484 -18660.9594 -16831.4157 179.6566 409.6638 465.6823 48802.8459 -1.1982 -1.6635
ENERGY: 175000 1.5828 4.2258 1.8294 0.0000 -22219.4110 3564.7968 0.0000 0.0000 1782.1887 -16864.7876 179.1169 -18646.9762 -16859.6235 180.0009 -249.7856 -188.4062 49216.3919 1.6905 1.6589
TCL: Running 50000 steps at 210 kelvin.
TCL: Setting parameter langevinTemp to 210
TCL: Running for 50000 steps
ETITLE: TS BOND ANGLE DIHED IMPRP ELECT VDW BOUNDARY MISC KINETIC TOTAL TEMP POTENTIAL TOTAL3 TEMPAVG PRESSURE GPRESSURE VOLUME PRESSAVG GPRESSAVG
ENERGY: 175000 1.5828 4.2258 1.8294 0.0000 -22219.4110 3564.7968 0.0000 0.0000 1781.2808 -16865.6954 179.0256 -18646.9763 -16861.8755 179.0256 -246.5174 -188.6316 49216.3919 -246.5174 -188.6316
ENERGY: 185000 0.6546 4.4011 1.1209 0.0000 -21029.3316 3170.2799 0.0000 0.0000 2087.1545 -15765.7205 209.7671 -17852.8750 -15760.5250 209.5968 -401.1398 -343.4490 49148.0298 3.9496 3.3957
ENERGY: 195000 2.5231 5.3759 0.7667 0.0000 -21109.2904 3248.0738 0.0000 0.0000 2055.6770 -15796.8739 206.6035 -17852.5509 -15792.3633 209.6576 -77.9082 19.3826 48878.6694 0.2756 0.4433
ENERGY: 205000 0.9293 5.6999 1.8439 0.0000 -20874.5302 3126.9538 0.0000 0.0000 2143.7497 -15595.3536 215.4552 -17739.1033 -15591.8256 210.4738 -411.4060 -332.8073 49342.2132 0.6905 0.8598
ENERGY: 215000 2.6940 6.6564 2.1537 0.0000 -21113.9427 3213.4768 0.0000 0.0000 2134.0170 -15754.9449 214.4770 -17888.9619 -15751.1100 210.3120 16.5515 129.2515 48273.4103 1.5501 1.6290
ENERGY: 225000 2.4984 5.2931 1.7106 0.0000 -21084.3757 3239.0745 0.0000 0.0000 2068.2354 -15767.5637 207.8657 -17835.7991 -15760.2861 209.9722 173.2577 276.2435 48528.3481 3.0302 2.7309
TCL: Running 50000 steps at 240 kelvin.
TCL: Setting parameter langevinTemp to 240
TCL: Running for 50000 steps
ETITLE: TS BOND ANGLE DIHED IMPRP ELECT VDW BOUNDARY MISC KINETIC TOTAL TEMP POTENTIAL TOTAL3 TEMPAVG PRESSURE GPRESSURE VOLUME PRESSAVG GPRESSAVG
ENERGY: 225000 2.4984 5.2931 1.7106 0.0000 -21084.3757 3239.0745 0.0000 0.0000 2067.2059 -15768.5932 207.7622 -17835.7991 -15765.2956 207.7622 198.6676 278.0282 48528.3481 198.6676 278.0282
ENERGY: 235000 3.1852 6.3341 1.7828 0.0000 -20006.2302 2859.9261 0.0000 0.0000 2327.0568 -14807.9452 233.8782 -17135.0020 -14800.7263 239.2567 -477.8746 -384.6697 49335.8368 3.1952 3.6009
ENERGY: 245000 2.7615 4.3911 2.1151 0.0000 -19990.4205 2884.2501 0.0000 0.0000 2382.9799 -14713.9228 239.4987 -17096.9027 -14709.4972 241.4016 -231.1653 -136.9018 49305.4447 2.7308 3.4987
ENERGY: 255000 4.1532 8.2734 1.1037 0.0000 -20073.2750 2923.7058 0.0000 0.0000 2413.4023 -14722.6366 242.5563 -17136.0389 -14717.7191 239.5169 21.0563 79.9761 49006.2969 3.9025 3.1862
ENERGY: 265000 1.0419 5.9080 3.1733 0.0000 -19996.0462 2912.6004 0.0000 0.0000 2385.8701 -14687.4525 239.7892 -17073.3225 -14680.7710 240.5927 -204.9765 -98.4142 49659.6576 -0.9969 -0.9403
ENERGY: 275000 3.6920 7.1681 1.4055 0.0000 -20010.4469 2908.6816 0.0000 0.0000 2428.8592 -14660.6406 244.1098 -17089.4997 -14654.1974 239.7758 -317.7415 -195.8227 49687.2566 3.5475 4.1990
TCL: Running 50000 steps at 270 kelvin.
TCL: Setting parameter langevinTemp to 270
TCL: Running for 50000 steps
ETITLE: TS BOND ANGLE DIHED IMPRP ELECT VDW BOUNDARY MISC KINETIC TOTAL TEMP POTENTIAL TOTAL3 TEMPAVG PRESSURE GPRESSURE VOLUME PRESSAVG GPRESSAVG
ENERGY: 275000 3.6920 7.1681 1.4055 0.0000 -20010.4469 2908.6816 0.0000 0.0000 2427.6823 -14661.8175 243.9915 -17089.4997 -14657.8729 243.9915 -278.9952 -194.9283 49687.2566 -278.9952 -194.9283
ENERGY: 285000 2.3995 9.0727 1.4785 0.0000 -19049.8884 2610.6290 0.0000 0.0000 2681.1479 -13745.1609 269.4658 -16426.3089 -13736.7636 269.7778 -251.4119 -172.5687 50042.3097 3.0768 3.0510
ENERGY: 295000 0.4217 7.1493 2.7239 0.0000 -19061.0610 2671.2539 0.0000 0.0000 2704.9727 -13674.5394 271.8602 -16379.5121 -13667.0226 270.4034 149.7054 227.9278 49810.5278 3.3903 2.6778
ENERGY: 305000 2.4882 8.2858 2.5729 0.0000 -19008.1129 2594.7398 0.0000 0.0000 2660.2495 -13739.7767 267.3654 -16400.0262 -13735.9220 270.2598 -260.9610 -174.0435 50055.3350 2.7757 2.2635
ENERGY: 315000 1.8892 5.7834 2.0781 0.0000 -19124.2561 2726.1100 0.0000 0.0000 2642.1271 -13746.2682 265.5440 -16388.3953 -13741.3087 271.2976 408.3411 488.5607 49898.6445 2.7085 3.2397
ENERGY: 325000 1.8638 7.6080 4.0976 0.0000 -19106.1471 2645.5248 0.0000 0.0000 2687.9177 -13759.1352 270.1461 -16447.0529 -13751.8195 271.0673 -274.2809 -193.3091 50174.1184 3.7740 3.7846
TCL: Running 1000000 steps at 300 kelvin.
TCL: Setting parameter langevinTemp to 300
TCL: Running for 1000000 steps
ETITLE: TS BOND ANGLE DIHED IMPRP ELECT VDW BOUNDARY MISC KINETIC TOTAL TEMP POTENTIAL TOTAL3 TEMPAVG PRESSURE GPRESSURE VOLUME PRESSAVG GPRESSAVG
ENERGY: 325000 1.8638 7.6080 4.0976 0.0000 -19106.1471 2645.5248 0.0000 0.0000 2686.5940 -13760.4588 270.0131 -16447.0529 -13755.8589 270.0131 -274.7588 -192.6587 50174.1184 -274.7588 -192.6587
ENERGY: 525000 1.7882 6.2568 0.9105 0.0000 -18081.9374 2319.6284 0.0000 0.0000 3000.0465 -12753.3071 301.5163 -15753.3535 -12748.9260 298.5192 -474.5601 -432.9373 51418.3637 1.2273 0.2468
ENERGY: 725000 2.7083 6.4817 1.5995 0.0000 -18134.9422 2367.9972 0.0000 0.0000 2942.3767 -12813.7788 295.7203 -15756.1555 -12809.9079 300.1943 -594.5144 -448.5128 51466.9740 -0.3958 -0.0103
ENERGY: 925000 3.1599 8.4246 1.7213 0.0000 -18140.7160 2422.2116 0.0000 0.0000 3017.9072 -12687.2915 303.3114 -15705.1987 -12680.2053 299.1380 -102.8052 -2.7652 51219.9082 2.0425 1.8653
ENERGY: 1125000 0.6214 7.7316 1.8468 0.0000 -18135.8649 2418.4240 0.0000 0.0000 2948.7804 -12758.4606 296.3639 -15707.2410 -12752.4407 300.2515 -160.5351 -102.0505 51348.8386 2.6690 3.0664
ENERGY: 1325000 2.8353 5.5437 2.3530 0.0000 -18326.8171 2613.8828 0.0000 0.0000 3080.1662 -12622.0361 309.5686 -15702.2023 -12617.0490 302.8333 829.3392 865.9771 51460.6132 4.8752 4.7617
TCL: Exiting due to exit command.
