Info: SIMULATION PARAMETERS:
Info: TIMESTEP               2
Info: NUMBER OF STEPS        0
Info: STEPS PER CYCLE        10
Info: PERIODIC CELL BASIS 1  36.592 0 0
Info: PERIODIC CELL BASIS 2  0 35.411 0
Info: PERIODIC CELL BASIS 3  0 0 34.229
Info: PERIODIC CELL CENTER   0 0 0
Info: WRAPPING WATERS AROUND PERIODIC BOUNDARIES ON OUTPUT.
Info: WRAPPING ALL CLUSTERS AROUND PERIODIC BOUNDARIES ON OUTPUT.
Info: FIRST LDB TIMESTEP     50
Info: LAST LDB TIMESTEP     -1
Info: HOM BACKGROUND SCALING 1
Info: PME BACKGROUND SCALING 1
Info: MIN ATOMS PER PATCH    40
Info: EMPTY PATCH LOAD       40 ATOMS
Info: INITIAL TEMPERATURE    300
Info: CENTER OF MASS MOVING INITIALLY? NO
Info: DIELECTRIC             1
Info: EXCLUDE                SCALED ONE-FOUR
Info: 1-4 ELECTROSTATICS SCALED BY 0.833333
Info: MODIFIED 1-4 VDW PARAMETERS WILL BE USED
Info: DCD FILENAME           mobley_3727287_equil.dcd
Info: DCD FREQUENCY          100000
Info: DCD FIRST STEP         100000
Info: DCD FILE WILL CONTAIN UNIT CELL DATA
Info: XST FILENAME           mobley_3727287_equil.xst
Info: XST FREQUENCY          100000
Info: NO VELOCITY DCD OUTPUT
Info: NO FORCE DCD OUTPUT
Info: OUTPUT FILENAME        mobley_3727287_equil
Info: BINARY OUTPUT FILES WILL BE USED
Info: RESTART FILENAME       mobley_3727287_equil.restart
Info: RESTART FREQUENCY      100000
Info: BINARY RESTART FILES WILL BE USED
Info: CUTOFF                 9
Info: PAIRLIST DISTANCE      11
Info: PAIRLIST SHRINK RATE   0.01
Info: PAIRLIST GROW RATE     0.01
Info: PAIRLIST TRIGGER       0.3
Info: PAIRLISTS PER CYCLE    2
Info: PAIRLISTS ENABLED
Info: MARGIN                 8
Info: HYDROGEN GROUP CUTOFF  2.5
Info: PATCH DIMENSION        21.5
Info: ENERGY OUTPUT STEPS    100000
Info: ENERGY EVALUATION STEPS    100000
Info: OUTPUT ENERGY PRECISION 4
Info: CROSSTERM ENERGY INCLUDED IN DIHEDRAL
Info: TIMING OUTPUT STEPS    1000000
Info: PRESSURE OUTPUT STEPS  100000
Info: LANGEVIN DYNAMICS ACTIVE
Info: LANGEVIN TEMPERATURE   30
Info: LANGEVIN USING BBK INTEGRATOR
Info: LANGEVIN DAMPING COEFFICIENT IS 1 INVERSE PS
Info: LANGEVIN DYNAMICS APPLIED TO HYDROGENS
Info: LANGEVIN PISTON PRESSURE CONTROL ACTIVE
Info:        TARGET PRESSURE IS 1.01325 BAR
Info:     OSCILLATION PERIOD IS 50 FS
Info:             DECAY TIME IS 25 FS
Info:     PISTON TEMPERATURE IS 300 K
Info:       PRESSURE CONTROL IS GROUP-BASED
Info:    INITIAL STRAIN RATE IS 0 0 0
Info:       CELL FLUCTUATION IS ISOTROPIC
Info: PARTICLE MESH EWALD (PME) ACTIVE
Info: PME TOLERANCE               1e-06
Info: PME EWALD COEFFICIENT       0.348832
Info: PME INTERPOLATION ORDER     4
Info: PME GRID DIMENSIONS         40 36 36
Info: PME MAXIMUM GRID SPACING    1
Info: FULL ELECTROSTATIC EVALUATION FREQUENCY      2
Info: USING VERLET I (r-RESPA) MTS SCHEME.
Info: C1 SPLITTING OF LONG RANGE ELECTROSTATICS
Info: PLACING ATOMS IN PATCHES BY HYDROGEN GROUPS
Info: RIGID BONDS TO HYDROGEN : ALL
Info:         ERROR TOLERANCE : 1e-08
Info:          MAX ITERATIONS : 100
Info: RIGID WATER USING SETTLE ALGORITHM
Info: RANDOM NUMBER SEED     1742139612
Info: USE HYDROGEN BONDS?    NO
Info: Using AMBER format force field!
Info: AMBER PARM FILE        mobley_3727287.prmtop
Info: COORDINATE PDB         mobley_3727287.pdb
Info: Exclusions will be read from PARM file!
Info: SCNB (VDW SCALING)     2
Info: USING ARITHMETIC MEAN TO COMBINE L-J SIGMA PARAMETERS
Info: BINARY COORDINATES     mobley_3727287_min.coor
Info: SUMMARY OF PARAMETERS:
Info: 8 BONDS
Info: 9 ANGLES
Info:   9 HARMONIC
Info:   0 COSINE-BASED
Info: 3 DIHEDRAL
Info: 0 IMPROPER
Info: 0 CROSSTERM
Info: 0 VDW
Info: 15 VDW_PAIRS
Info: 0 NBTHOLE_PAIRS
Info: STRUCTURE SUMMARY:
Info: 2961 ATOMS
Info: 2961 BONDS
Info: 18 ANGLES
Info: 26 DIHEDRALS
Info: 0 IMPROPERS
Info: 0 CROSSTERMS
Info: 3000 EXCLUSIONS
Info: 2953 RIGID BONDS
Info: 5930 DEGREES OF FREEDOM
Info: 991 HYDROGEN GROUPS
Info: 3 ATOMS IN LARGEST HYDROGEN GROUP
Info: 991 MIGRATION GROUPS
Info: 3 ATOMS IN LARGEST MIGRATION GROUP
Info: TOTAL MASS = 17817.8 amu
Info: TOTAL CHARGE = 0 e
Info: MASS DENSITY = 0.667107 g/cm^3
Info: ATOM DENSITY = 0.0667605 atoms/A^3
Info: ADDED 0 IMPLICIT EXCLUSIONS
Info: NONBONDED TABLE R-SQUARED SPACING: 0.0625
Info: NONBONDED TABLE SIZE: 705 POINTS
Info: REMOVING COM VELOCITY 0.00513808 0.151392 0.0814059
TCL: Running for 100000 steps
ETITLE: TS BOND ANGLE DIHED IMPRP ELECT VDW BOUNDARY MISC KINETIC TOTAL TEMP POTENTIAL TOTAL3 TEMPAVG PRESSURE GPRESSURE VOLUME PRESSAVG GPRESSAVG
ENERGY: 0 0.1568 0.5278 0.0244 0.0000 -13712.0143 2423.4915 0.0000 0.0000 1799.9044 -9487.9093 305.4816 -11287.8137 -9487.5545 305.4816 475.5091 509.3413 44352.5455 475.5091 509.3413
ENERGY: 100000 0.3613 1.0113 0.0715 0.0000 -14276.8884 2477.5326 0.0000 0.0000 180.6010 -11617.3107 30.6518 -11797.9117 -11616.8057 30.9958 -237.4260 -188.5349 29296.0863 3.2079 3.2000
TCL: Running 100000 steps at 60 kelvin.
TCL: Setting parameter langevinTemp to 60
TCL: Running for 100000 steps
ETITLE: TS BOND ANGLE DIHED IMPRP ELECT VDW BOUNDARY MISC KINETIC TOTAL TEMP POTENTIAL TOTAL3 TEMPAVG PRESSURE GPRESSURE VOLUME PRESSAVG GPRESSAVG
ENERGY: 100000 0.3613 1.0113 0.0715 0.0000 -14276.8884 2477.5326 0.0000 0.0000 180.5139 -11617.3978 30.6370 -11797.9117 -11616.9559 30.6370 -235.1470 -188.7422 29296.0863 -235.1470 -188.7422
ENERGY: 200000 0.5835 1.3334 0.8016 0.0000 -14151.9127 2455.6028 0.0000 0.0000 348.8424 -11344.7490 59.2059 -11693.5914 -11343.7283 59.9683 -83.5776 -37.7488 29131.7059 3.3432 3.3089
TCL: Running 100000 steps at 90 kelvin.
TCL: Setting parameter langevinTemp to 90
TCL: Running for 100000 steps
ETITLE: TS BOND ANGLE DIHED IMPRP ELECT VDW BOUNDARY MISC KINETIC TOTAL TEMP POTENTIAL TOTAL3 TEMPAVG PRESSURE GPRESSURE VOLUME PRESSAVG GPRESSAVG
ENERGY: 200000 0.5835 1.3334 0.8016 0.0000 -14151.9127 2455.6028 0.0000 0.0000 348.6665 -11344.9250 59.1760 -11693.5914 -11344.1959 59.1760 -81.6024 -37.6983 29131.7059 -81.6024 -37.6983
ENERGY: 300000 0.5908 1.8019 0.3028 0.0000 -14054.4010 2391.3036 0.0000 0.0000 526.7855 -11133.6165 89.4066 -11660.4020 -11132.3328 89.9781 -261.0458 -186.3666 28963.3813 3.5233 3.6626
TCL: Running 100000 steps at 120 kelvin.
TCL: Setting parameter langevinTemp to 120
TCL: Running for 100000 steps
ETITLE: TS BOND ANGLE DIHED IMPRP ELECT VDW BOUNDARY MISC KINETIC TOTAL TEMP POTENTIAL TOTAL3 TEMPAVG PRESSURE GPRESSURE VOLUME PRESSAVG GPRESSAVG
ENERGY: 300000 0.5908 1.8019 0.3028 0.0000 -14054.4010 2391.3036 0.0000 0.0000 526.5204 -11133.8816 89.3616 -11660.4020 -11132.8147 89.3616 -263.9969 -186.9822 28963.3813 -263.9969 -186.9822
ENERGY: 400000 1.1010 2.5067 1.3355 0.0000 -13895.7772 2390.5290 0.0000 0.0000 692.2427 -10808.0623 117.4882 -11500.3051 -10806.4484 119.8517 421.3881 468.4675 28668.9322 5.0690 5.0637
TCL: Running 100000 steps at 150 kelvin.
TCL: Setting parameter langevinTemp to 150
TCL: Running for 100000 steps
ETITLE: TS BOND ANGLE DIHED IMPRP ELECT VDW BOUNDARY MISC KINETIC TOTAL TEMP POTENTIAL TOTAL3 TEMPAVG PRESSURE GPRESSURE VOLUME PRESSAVG GPRESSAVG
ENERGY: 400000 1.1010 2.5067 1.3355 0.0000 -13895.7772 2390.5290 0.0000 0.0000 691.8798 -10808.4252 117.4266 -11500.3051 -10807.1898 117.4266 413.1602 468.5592 28668.9322 413.1602 468.5592
ENERGY: 500000 1.2300 2.1924 0.5321 0.0000 -13742.5837 2369.3627 0.0000 0.0000 911.3855 -10457.8811 154.6813 -11369.2666 -10456.2753 149.6476 796.5276 857.4810 28796.6482 4.4572 4.3140
TCL: Running 100000 steps at 180 kelvin.
TCL: Setting parameter langevinTemp to 180
TCL: Running for 100000 steps
ETITLE: TS BOND ANGLE DIHED IMPRP ELECT VDW BOUNDARY MISC KINETIC TOTAL TEMP POTENTIAL TOTAL3 TEMPAVG PRESSURE GPRESSURE VOLUME PRESSAVG GPRESSAVG
ENERGY: 500000 1.2300 2.1924 0.5321 0.0000 -13742.5837 2369.3627 0.0000 0.0000 910.9534 -10458.3133 154.6080 -11369.2666 -10456.9774 154.6080 795.3698 858.2647 28796.6482 795.3698 858.2647
ENERGY: 600000 1.7116 2.2409 0.8992 0.0000 -13241.4964 2225.3917 0.0000 0.0000 1068.7984 -9942.4546 181.3976 -11011.2530 -9942.0679 180.0447 1064.9247 1149.8139 28556.3043 3.8106 3.9107
TCL: Running 100000 steps at 210 kelvin.
TCL: Setting parameter langevinTemp to 210
TCL: Running for 100000 steps
ETITLE: TS BOND ANGLE DIHED IMPRP ELECT VDW BOUNDARY MISC KINETIC TOTAL TEMP POTENTIAL TOTAL3 TEMPAVG PRESSURE GPRESSURE VOLUME PRESSAVG GPRESSAVG
ENERGY: 600000 1.7116 2.2409 0.8992 0.0000 -13241.4964 2225.3917 0.0000 0.0000 1068.2727 -9942.9803 181.3084 -11011.2530 -9941.8007 181.3084 1095.4422 1147.7845 28556.3043 1095.4422 1147.7845
ENERGY: 700000 2.8887 4.3488 0.8870 0.0000 -12436.9476 1845.9304 0.0000 0.0000 1225.1046 -9357.7882 207.9260 -10582.8928 -9352.7800 210.0286 -548.4056 -460.2242 28735.2814 2.4742 2.3883
TCL: Running 100000 steps at 240 kelvin.
TCL: Setting parameter langevinTemp to 240
TCL: Running for 100000 steps
ETITLE: TS BOND ANGLE DIHED IMPRP ELECT VDW BOUNDARY MISC KINETIC TOTAL TEMP POTENTIAL TOTAL3 TEMPAVG PRESSURE GPRESSURE VOLUME PRESSAVG GPRESSAVG
ENERGY: 700000 2.8887 4.3488 0.8870 0.0000 -12436.9476 1845.9304 0.0000 0.0000 1224.4908 -9358.4019 207.8219 -10582.8928 -9356.5468 207.8219 -537.8064 -458.7481 28735.2814 -537.8064 -458.7481
ENERGY: 800000 3.7433 1.7094 2.5678 0.0000 -11790.4263 1711.8409 0.0000 0.0000 1378.0386 -8692.5263 233.8822 -10070.5650 -8690.4795 239.9147 -172.3642 -92.7711 29584.1661 3.8223 3.6666
TCL: Running 100000 steps at 270 kelvin.
TCL: Setting parameter langevinTemp to 270
TCL: Running for 100000 steps
ETITLE: TS BOND ANGLE DIHED IMPRP ELECT VDW BOUNDARY MISC KINETIC TOTAL TEMP POTENTIAL TOTAL3 TEMPAVG PRESSURE GPRESSURE VOLUME PRESSAVG GPRESSAVG
ENERGY: 800000 3.7433 1.7094 2.5678 0.0000 -11790.4263 1711.8409 0.0000 0.0000 1377.3043 -8693.2607 233.7575 -10070.5650 -8691.1555 233.7575 -179.3988 -93.6440 29584.1661 -179.3988 -93.6440
ENERGY: 900000 4.6408 3.9336 4.1069 0.0000 -11321.4501 1612.2658 0.0000 0.0000 1613.0015 -8083.5015 273.7603 -9696.5030 -8082.9324 270.0653 387.4456 496.2150 29645.5943 1.8316 1.9049
TCL: Running 1000000 steps at 300 kelvin.
TCL: Setting parameter langevinTemp to 300
TCL: Running for 1000000 steps
ETITLE: TS BOND ANGLE DIHED IMPRP ELECT VDW BOUNDARY MISC KINETIC TOTAL TEMP POTENTIAL TOTAL3 TEMPAVG PRESSURE GPRESSURE VOLUME PRESSAVG GPRESSAVG
ENERGY: 900000 4.6408 3.9336 4.1069 0.0000 -11321.4501 1612.2658 0.0000 0.0000 1612.1905 -8084.3125 273.6227 -9696.5030 -8082.0268 273.6227 387.9910 495.7188 29645.5943 387.9910 495.7188
ENERGY: 1100000 2.1986 2.6861 3.0822 0.0000 -10800.3252 1479.6718 0.0000 0.0000 1794.2845 -7518.4020 304.5278 -9312.6865 -7514.4958 299.9693 442.3395 472.1680 30005.2683 3.0579 3.0983
ENERGY: 1300000 1.9421 3.2883 2.2123 0.0000 -10644.2895 1328.4483 0.0000 0.0000 1764.1175 -7544.2809 299.4079 -9308.3984 -7541.6427 300.5126 -922.0641 -878.9014 30769.7408 3.6817 3.7070
ENERGY: 1500000 1.4480 1.3062 0.8090 0.0000 -10739.1678 1406.4268 0.0000 0.0000 1696.8261 -7632.3517 287.9871 -9329.1778 -7627.2916 300.2258 -540.2903 -482.2466 30398.5374 3.4249 3.5835
ENERGY: 1700000 2.5613 2.6765 3.0755 0.0000 -10633.5441 1372.2120 0.0000 0.0000 1742.9783 -7510.0405 295.8201 -9253.0188 -7506.6554 300.1097 -609.8721 -516.6120 30845.1990 1.3474 1.3493
ENERGY: 1900000 2.4926 4.3743 2.3526 0.0000 -10609.3674 1432.2501 0.0000 0.0000 1815.4960 -7352.4017 308.1279 -9167.8977 -7348.5374 300.3111 352.2408 383.2381 30755.5728 3.1074 3.0303
TCL: Exiting due to exit command.
