Info: SIMULATION PARAMETERS:
Info: TIMESTEP               2
Info: NUMBER OF STEPS        0
Info: STEPS PER CYCLE        10
Info: PERIODIC CELL BASIS 1  31.5208 0 0
Info: PERIODIC CELL BASIS 2  0 31.1001 0
Info: PERIODIC CELL BASIS 3  0 0 30.6987
Info: PERIODIC CELL CENTER   0 0 0
Info: WRAPPING WATERS AROUND PERIODIC BOUNDARIES ON OUTPUT.
Info: WRAPPING ALL CLUSTERS AROUND PERIODIC BOUNDARIES ON OUTPUT.
Info: FIRST LDB TIMESTEP     50
Info: LAST LDB TIMESTEP     -1
Info: HOM BACKGROUND SCALING 1
Info: PME BACKGROUND SCALING 1
Info: MIN ATOMS PER PATCH    40
Info: EMPTY PATCH LOAD       40 ATOMS
Info: VELOCITY FILE          mobley_7769613_equil.vel
Info: CENTER OF MASS MOVING INITIALLY? NO
Info: DIELECTRIC             1
Info: EXCLUDE                SCALED ONE-FOUR
Info: 1-4 ELECTROSTATICS SCALED BY 0.833333
Info: MODIFIED 1-4 VDW PARAMETERS WILL BE USED
Info: DCD FILENAME           mobley_7769613_prod.dcd
Info: DCD FREQUENCY          100000
Info: DCD FIRST STEP         100000
Info: DCD FILE WILL CONTAIN UNIT CELL DATA
Info: XST FILENAME           mobley_7769613_prod.xst
Info: XST FREQUENCY          100000
Info: NO VELOCITY DCD OUTPUT
Info: NO FORCE DCD OUTPUT
Info: OUTPUT FILENAME        mobley_7769613_prod
Info: BINARY OUTPUT FILES WILL BE USED
Info: RESTART FILENAME       mobley_7769613_prod.restart
Info: RESTART FREQUENCY      100000
Info: BINARY RESTART FILES WILL BE USED
Info: CUTOFF                 9
Info: PAIRLIST DISTANCE      11
Info: PAIRLIST SHRINK RATE   0.01
Info: PAIRLIST GROW RATE     0.01
Info: PAIRLIST TRIGGER       0.3
Info: PAIRLISTS PER CYCLE    2
Info: PAIRLISTS ENABLED
Info: MARGIN                 2
Info: HYDROGEN GROUP CUTOFF  2.5
Info: PATCH DIMENSION        15.5
Info: ENERGY OUTPUT STEPS    100000
Info: ENERGY EVALUATION STEPS    100000
Info: OUTPUT ENERGY PRECISION 4
Info: CROSSTERM ENERGY INCLUDED IN DIHEDRAL
Info: TIMING OUTPUT STEPS    1000000
Info: PRESSURE OUTPUT STEPS  100000
Info: ALCHEMICAL FEP ON
Info: FEP CURRENT LAMBDA VALUE     1
Info: FEP COMPARISON LAMBDA VALUE  0.95
Info: FEP INTRA-ALCHEMICAL NON-BONDED INTERACTIONS WILL BE RETAINED
Info: FEP INTRA-ALCHEMICAL BONDED INTERACTIONS WILL BE RETAINED
Info: FEP VDW SHIFTING COEFFICIENT 5
Info: FEP ELEC. ACTIVE FOR ANNIHILATED PARTICLES BETWEEN LAMBDA = 0 AND LAMBDA = 0.5
Info: FEP ELEC. ACTIVE FOR EXNIHILATED PARTICLES BETWEEN LAMBDA = 0.5 AND LAMBDA = 1
Info: FEP VDW ACTIVE FOR ANNIHILATED PARTICLES BETWEEN LAMBDA = 0 AND LAMBDA = 1
Info: FEP VDW ACTIVE FOR EXNIHILATED PARTICLES BETWEEN LAMBDA = 0 AND LAMBDA = 1
Info: FEP BOND ACTIVE FOR ANNIHILATED PARTICLES BETWEEN LAMBDA = 1 AND LAMBDA = 1
Info: FEP BOND ACTIVE FOR EXNIHILATED PARTICLES BETWEEN LAMBDA = 0 AND LAMBDA = 0
Info: LANGEVIN DYNAMICS ACTIVE
Info: LANGEVIN TEMPERATURE   300
Info: LANGEVIN USING BBK INTEGRATOR
Info: LANGEVIN DAMPING COEFFICIENT IS 1 INVERSE PS
Info: LANGEVIN DYNAMICS APPLIED TO HYDROGENS
Info: LANGEVIN PISTON PRESSURE CONTROL ACTIVE
Info:        TARGET PRESSURE IS 1.01325 BAR
Info:     OSCILLATION PERIOD IS 50 FS
Info:             DECAY TIME IS 25 FS
Info:     PISTON TEMPERATURE IS 300 K
Info:       PRESSURE CONTROL IS GROUP-BASED
Info:    INITIAL STRAIN RATE IS 7.55933e-05 7.55933e-05 7.55933e-05
Info:       CELL FLUCTUATION IS ISOTROPIC
Info: PARTICLE MESH EWALD (PME) ACTIVE
Info: PME TOLERANCE               1e-06
Info: PME EWALD COEFFICIENT       0.348832
Info: PME INTERPOLATION ORDER     4
Info: PME GRID DIMENSIONS         32 32 32
Info: PME MAXIMUM GRID SPACING    1
Info: PME CALCULATION WILL BE PERFORMED ON GPU
Info: FULL ELECTROSTATIC EVALUATION FREQUENCY      2
Info: USING VERLET I (r-RESPA) MTS SCHEME.
Info: C1 SPLITTING OF LONG RANGE ELECTROSTATICS
Info: PLACING ATOMS IN PATCHES BY HYDROGEN GROUPS
Info: RIGID BONDS TO HYDROGEN : ALL
Info:         ERROR TOLERANCE : 1e-08
Info:          MAX ITERATIONS : 100
Info: RIGID WATER USING SETTLE ALGORITHM
Info: RANDOM NUMBER SEED     1742268472
Info: USE HYDROGEN BONDS?    NO
Info: Using AMBER format force field!
Info: AMBER PARM FILE        mobley_7769613.prmtop
Info: COORDINATE PDB         mobley_7769613.pdb
Info: Exclusions will be read from PARM file!
Info: SCNB (VDW SCALING)     2
Info: USING ARITHMETIC MEAN TO COMBINE L-J SIGMA PARAMETERS
Info: BINARY COORDINATES     mobley_7769613_equil.coor
Info: SUMMARY OF PARAMETERS:
Info: 5 BONDS
Info: 4 ANGLES
Info:   4 HARMONIC
Info:   0 COSINE-BASED
Info: 2 DIHEDRAL
Info: 0 IMPROPER
Info: 0 CROSSTERM
Info: 0 VDW
Info: 15 VDW_PAIRS
Info: 0 NBTHOLE_PAIRS
Info: To read alchdata from file: mobley_7769613.pdb
Info: To read alchflag data from column: 5
Info: STRUCTURE SUMMARY:
Info: 2915 ATOMS
Info: 2914 BONDS
Info: 24 ANGLES
Info: 27 DIHEDRALS
Info: 0 IMPROPERS
Info: 0 CROSSTERMS
Info: 2965 EXCLUSIONS
Info: 2910 RIGID BONDS
Info: ALCH: 0 ATOMS TO DISAPPEAR IN FINAL STATE
Info: ALCH: 14 ATOMS TO APPEAR IN FINAL STATE
Info: 5835 DEGREES OF FREEDOM
Info: 972 HYDROGEN GROUPS
Info: 4 ATOMS IN LARGEST HYDROGEN GROUP
Info: 972 MIGRATION GROUPS
Info: 4 ATOMS IN LARGEST MIGRATION GROUP
Info: TOTAL MASS = 17558.5 amu
Info: TOTAL CHARGE = 0.00040001 e
Info: MASS DENSITY = 0.968875 g/cm^3
Info: ATOM DENSITY = 0.0968635 atoms/A^3
Info: ADDED 0 IMPLICIT EXCLUSIONS
Info: NONBONDED TABLE R-SQUARED SPACING: 0.0625
Info: NONBONDED TABLE SIZE: 705 POINTS
Info: REMOVING COM VELOCITY -0.00197171 0.112736 -0.0130346
Info: Use 3D box decompostion in PME FFT.
Info: Updated CUDA force table with 4096 elements.
Info: Updated CUDA LJ table with 5 x 5 elements.
Info: Found 17 unique exclusion lists needing 36 bytes
TCL: Running for 1500000 steps
ETITLE: TS BOND ANGLE DIHED IMPRP ELECT VDW BOUNDARY MISC KINETIC TOTAL TEMP POTENTIAL TOTALAVG TEMPAVG PRESSURE GPRESSURE VOLUME PRESSAVG GPRESSAVG
ENERGY: 0 1.4663 4.8220 0.8750 0.0000 -10556.5755 1313.5357 0.0000 0.0000 1776.5371 -7459.3395 306.4247 -9235.8765 -7459.3395 306.4247 -1010.3500 -925.0876 30093.9014 -1010.3500 -925.0876
ENERGY: 300000 0.0963 3.4439 0.2864 0.0000 -10597.7919 1454.5774 0.0000 0.0000 1730.8996 -7408.4882 298.5530 -9139.3878 -7447.1992 300.5796 385.1337 437.4172 30037.2646 -189.4777 -115.6096
ENERGY: 600000 0.8797 6.5512 0.3510 0.0000 -10744.2744 1485.1398 0.0000 0.0000 1756.3414 -7495.0112 302.9413 -9251.3527 -7432.6426 302.5119 414.6285 479.9209 29709.9930 -10.1118 64.2486
ENERGY: 900000 1.4678 3.9221 0.3110 0.0000 -10535.8490 1453.4764 0.0000 0.0000 1743.5710 -7333.1007 300.7386 -9076.6717 -7413.4323 302.4851 612.3657 652.1378 29945.5526 54.1367 127.3560
ENERGY: 1200000 0.8620 6.4916 0.5791 0.0000 -10633.8641 1433.3032 0.0000 0.0000 1758.2550 -7434.3731 303.2713 -9192.6281 -7412.8014 302.1513 43.6488 85.1212 29791.4192 -33.4243 39.3527
ENERGY: 1500000 0.3399 4.7687 0.2038 0.0000 -10376.2433 1300.6240 0.0000 0.0000 1701.0657 -7369.2412 293.4071 -9070.3069 -7404.9771 301.1155 -935.3019 -850.9502 30659.2966 -132.9107 -60.8394
TCL: Running FEP window   2: Lambda1 0.95   Lambda2 0.8999999999999999 [dLambda -0.050000000000000044]
TCL: Setting parameter firsttimestep to 0
TCL: Setting parameter alchLambda to 0.95
Info: NONBONDED TABLE R-SQUARED SPACING: 0.0625
Info: NONBONDED TABLE SIZE: 705 POINTS
TCL: Setting parameter alchLambda2 to 0.8999999999999999
Info: NONBONDED TABLE R-SQUARED SPACING: 0.0625
Info: NONBONDED TABLE SIZE: 705 POINTS
TCL: Running for 1500000 steps
ETITLE: TS BOND ANGLE DIHED IMPRP ELECT VDW BOUNDARY MISC KINETIC TOTAL TEMP POTENTIAL TOTALAVG TEMPAVG PRESSURE GPRESSURE VOLUME PRESSAVG GPRESSAVG
ENERGY: 0 0.3399 4.7687 0.2038 0.0000 -10375.8262 1300.6154 0.0000 0.0000 1700.1961 -7369.7023 293.2571 -9069.8984 -7369.7023 293.2571 -954.6825 -859.4638 30659.2966 -954.6825 -859.4638
ENERGY: 300000 0.4182 4.8173 0.2406 0.0000 -10755.5574 1463.0233 0.0000 0.0000 1772.5687 -7514.4894 305.7402 -9287.0581 -7413.6298 298.7866 121.8186 236.7176 29790.4900 -233.7600 -141.8644
ENERGY: 600000 1.7267 6.1469 3.1477 0.0000 -10462.7466 1354.7698 0.0000 0.0000 1750.1636 -7346.7918 301.8757 -9096.9555 -7405.1807 297.3050 -232.8466 -152.9633 29982.8999 -80.0346 0.1888
ENERGY: 900000 1.3133 5.4234 0.5364 0.0000 -10648.4905 1486.7296 0.0000 0.0000 1731.6220 -7422.8658 298.6776 -9154.4878 -7402.1570 298.6568 530.3895 521.8240 30006.0695 -54.1143 10.7543
ENERGY: 1200000 1.8081 4.6786 1.9863 0.0000 -10450.2809 1359.5370 0.0000 0.0000 1713.3702 -7368.9008 295.5294 -9082.2709 -7392.0133 298.4332 -308.5497 -297.6532 30351.0877 -77.0008 -14.5915
ENERGY: 1500000 1.4370 6.6043 0.4426 0.0000 -10550.0177 1409.0808 0.0000 0.0000 1730.8630 -7401.5900 298.5467 -9132.4530 -7385.4952 298.5731 -169.6145 -120.9182 30225.2027 14.7708 79.0261
TCL: Running FEP window   3: Lambda1 0.8999999999999999 Lambda2 0.8499999999999999 [dLambda -0.050000000000000044]
TCL: Setting parameter firsttimestep to 0
TCL: Setting parameter alchLambda to 0.8999999999999999
Info: NONBONDED TABLE R-SQUARED SPACING: 0.0625
Info: NONBONDED TABLE SIZE: 705 POINTS
TCL: Setting parameter alchLambda2 to 0.8499999999999999
Info: NONBONDED TABLE R-SQUARED SPACING: 0.0625
Info: NONBONDED TABLE SIZE: 705 POINTS
TCL: Running for 1500000 steps
ETITLE: TS BOND ANGLE DIHED IMPRP ELECT VDW BOUNDARY MISC KINETIC TOTAL TEMP POTENTIAL TOTALAVG TEMPAVG PRESSURE GPRESSURE VOLUME PRESSAVG GPRESSAVG
ENERGY: 0 1.4370 6.6043 0.4426 0.0000 -10549.4393 1408.8400 0.0000 0.0000 1729.9946 -7402.1209 298.3969 -9132.1154 -7402.1209 298.3969 -215.5246 -130.9467 30225.2027 -215.5246 -130.9467
ENERGY: 300000 1.0223 9.6496 1.1217 0.0000 -10569.6279 1358.5076 0.0000 0.0000 1741.2586 -7458.0680 300.3397 -9199.3266 -7389.0622 300.4100 -768.3674 -691.8418 30424.4554 -608.3932 -539.5714
ENERGY: 600000 0.8331 7.0745 0.7622 0.0000 -10563.5655 1410.3953 0.0000 0.0000 1809.3110 -7335.1894 312.0777 -9144.5004 -7376.5983 302.0396 -58.4051 -10.2245 29883.9387 -508.0229 -449.1739
ENERGY: 900000 2.6852 5.0101 0.3315 0.0000 -10496.3686 1405.0673 0.0000 0.0000 1743.7252 -7339.5493 300.7652 -9083.2745 -7389.9663 300.5747 6.7624 117.3548 29876.3854 -286.8534 -225.0562
ENERGY: 1200000 2.7472 4.3859 0.3143 0.0000 -10513.9842 1349.4331 0.0000 0.0000 1784.0956 -7373.0081 307.7285 -9157.1037 -7398.2251 300.3244 -539.1353 -487.2573 29881.4330 -237.7829 -177.0178
ENERGY: 1500000 1.6509 5.1329 0.6932 0.0000 -10596.0102 1336.7058 0.0000 0.0000 1785.3047 -7466.5227 307.9370 -9251.8274 -7401.9714 300.9642 -897.2270 -799.4128 30069.0253 -260.4695 -197.2574
TCL: Running FEP window   4: Lambda1 0.8499999999999999 Lambda2 0.7999999999999998 [dLambda -0.050000000000000044]
TCL: Setting parameter firsttimestep to 0
TCL: Setting parameter alchLambda to 0.8499999999999999
Info: NONBONDED TABLE R-SQUARED SPACING: 0.0625
Info: NONBONDED TABLE SIZE: 705 POINTS
TCL: Setting parameter alchLambda2 to 0.7999999999999998
Info: NONBONDED TABLE R-SQUARED SPACING: 0.0625
Info: NONBONDED TABLE SIZE: 705 POINTS
TCL: Running for 1500000 steps
ETITLE: TS BOND ANGLE DIHED IMPRP ELECT VDW BOUNDARY MISC KINETIC TOTAL TEMP POTENTIAL TOTALAVG TEMPAVG PRESSURE GPRESSURE VOLUME PRESSAVG GPRESSAVG
ENERGY: 0 1.6509 5.1329 0.6932 0.0000 -10595.9320 1337.3740 0.0000 0.0000 1784.4123 -7466.6688 307.7831 -9251.0811 -7466.6688 307.7831 -875.8114 -801.4635 30069.0253 -875.8114 -801.4635
ENERGY: 300000 1.2911 4.7519 0.5599 0.0000 -10455.3872 1325.6622 0.0000 0.0000 1805.7635 -7317.3586 311.4658 -9123.1221 -7378.2606 301.2696 -711.7171 -709.7797 30090.4756 -226.1214 -195.3632
ENERGY: 600000 1.9107 7.2215 1.0234 0.0000 -10504.3540 1381.2961 0.0000 0.0000 1701.8861 -7411.0163 293.5486 -9112.9023 -7393.4340 301.0818 -216.1028 -106.1355 29773.3051 -196.1070 -146.4618
ENERGY: 900000 0.9242 7.0787 0.3664 0.0000 -10561.4655 1370.4624 0.0000 0.0000 1775.4173 -7407.2165 306.2316 -9182.6338 -7398.1277 301.1648 -456.6194 -345.8820 29832.5098 -274.9673 -219.9165
ENERGY: 1200000 0.5332 7.5447 0.8763 0.0000 -10521.3213 1441.7172 0.0000 0.0000 1730.2111 -7340.4388 298.4342 -9070.6499 -7400.8470 300.5103 351.9683 432.7958 29963.6050 -233.6513 -176.1674
ENERGY: 1500000 1.1964 9.0003 0.2582 0.0000 -10499.4148 1364.9512 0.0000 0.0000 1755.7135 -7368.2951 302.8330 -9124.0086 -7408.2135 300.3938 -253.0571 -180.7781 29866.9401 -208.2052 -147.7093
TCL: Running FEP window   5: Lambda1 0.7999999999999998 Lambda2 0.7499999999999998 [dLambda -0.050000000000000044]
TCL: Setting parameter firsttimestep to 0
TCL: Setting parameter alchLambda to 0.7999999999999998
Info: NONBONDED TABLE R-SQUARED SPACING: 0.0625
Info: NONBONDED TABLE SIZE: 705 POINTS
TCL: Setting parameter alchLambda2 to 0.7499999999999998
Info: NONBONDED TABLE R-SQUARED SPACING: 0.0625
Info: NONBONDED TABLE SIZE: 705 POINTS
TCL: Running for 1500000 steps
ETITLE: TS BOND ANGLE DIHED IMPRP ELECT VDW BOUNDARY MISC KINETIC TOTAL TEMP POTENTIAL TOTALAVG TEMPAVG PRESSURE GPRESSURE VOLUME PRESSAVG GPRESSAVG
ENERGY: 0 1.1964 9.0003 0.2582 0.0000 -10499.3008 1365.4732 0.0000 0.0000 1754.8221 -7368.5506 302.6792 -9123.3727 -7368.5506 302.6792 -266.5489 -182.4407 29866.9401 -266.5489 -182.4407
ENERGY: 300000 0.9600 6.2313 0.2005 0.0000 -10498.5670 1351.1860 0.0000 0.0000 1789.9554 -7350.0338 308.7392 -9139.9892 -7327.9487 306.0217 -405.3670 -394.0784 30009.4204 114.9783 156.4596
ENERGY: 600000 0.8427 4.5413 0.2983 0.0000 -10476.9073 1410.3679 0.0000 0.0000 1726.0797 -7334.7773 297.7216 -9060.8570 -7354.1394 302.5815 297.8590 299.3874 30132.9535 105.9797 145.4031
ENERGY: 900000 3.7402 5.5658 1.9047 0.0000 -10786.6976 1513.9123 0.0000 0.0000 1686.2020 -7575.3726 290.8433 -9261.5745 -7374.3955 302.0800 153.4455 280.7504 30286.5432 126.0200 181.1765
ENERGY: 1200000 0.8521 4.8361 0.7213 0.0000 -10564.8677 1460.2667 0.0000 0.0000 1728.2205 -7369.9710 298.0909 -9098.1915 -7383.0853 300.9864 547.3741 563.2363 29985.8452 127.6322 183.7906
ENERGY: 1500000 1.7030 7.1613 0.5081 0.0000 -10497.3428 1391.6849 0.0000 0.0000 1783.4990 -7312.7864 307.6256 -9096.2855 -7385.3508 300.7640 -224.8049 -165.4436 30318.0219 86.8006 143.6466
TCL: Running FEP window   6: Lambda1 0.7499999999999998 Lambda2 0.6999999999999997 [dLambda -0.050000000000000044]
TCL: Setting parameter firsttimestep to 0
TCL: Setting parameter alchLambda to 0.7499999999999998
Info: NONBONDED TABLE R-SQUARED SPACING: 0.0625
Info: NONBONDED TABLE SIZE: 705 POINTS
TCL: Setting parameter alchLambda2 to 0.6999999999999997
Info: NONBONDED TABLE R-SQUARED SPACING: 0.0625
Info: NONBONDED TABLE SIZE: 705 POINTS
TCL: Running for 1500000 steps
ETITLE: TS BOND ANGLE DIHED IMPRP ELECT VDW BOUNDARY MISC KINETIC TOTAL TEMP POTENTIAL TOTALAVG TEMPAVG PRESSURE GPRESSURE VOLUME PRESSAVG GPRESSAVG
ENERGY: 0 1.7030 7.1613 0.5081 0.0000 -10497.3991 1392.0202 0.0000 0.0000 1782.6648 -7313.3416 307.4816 -9096.0064 -7313.3416 307.4816 -256.0577 -168.2819 30318.0219 -256.0577 -168.2819
ENERGY: 300000 0.1225 5.5825 0.6494 0.0000 -10512.9211 1396.1856 0.0000 0.0000 1769.2154 -7341.1657 305.1619 -9110.3812 -7333.1699 305.5586 -208.7762 -181.3664 30542.0739 -509.5797 -464.4743
ENERGY: 600000 3.1186 9.9365 0.7552 0.0000 -10502.3907 1370.7868 0.0000 0.0000 1768.3442 -7349.4493 305.0116 -9117.7935 -7359.2665 304.2477 -461.7127 -391.6849 30518.6437 -399.9395 -344.9081
ENERGY: 900000 0.4530 7.3617 0.1936 0.0000 -10594.5509 1427.1158 0.0000 0.0000 1781.7267 -7377.7000 307.3199 -9159.4268 -7381.9329 304.0075 32.2608 31.9486 30223.0096 -254.8999 -210.6847
ENERGY: 1200000 0.0568 9.6492 1.0768 0.0000 -10449.1039 1326.9575 0.0000 0.0000 1794.6585 -7316.7050 309.5504 -9111.3636 -7386.8739 302.7211 -721.3885 -654.9166 30196.5224 -265.2582 -221.1795
ENERGY: 1500000 1.5915 6.6808 1.2185 0.0000 -10583.5241 1436.0698 0.0000 0.0000 1787.0005 -7350.9630 308.2295 -9137.9635 -7386.6611 303.4994 265.0238 284.8793 29821.8061 -264.1817 -218.9020
TCL: Running FEP window   7: Lambda1 0.6999999999999997 Lambda2 0.6499999999999997 [dLambda -0.050000000000000044]
TCL: Setting parameter firsttimestep to 0
TCL: Setting parameter alchLambda to 0.6999999999999997
Info: NONBONDED TABLE R-SQUARED SPACING: 0.0625
Info: NONBONDED TABLE SIZE: 705 POINTS
TCL: Setting parameter alchLambda2 to 0.6499999999999997
Info: NONBONDED TABLE R-SQUARED SPACING: 0.0625
Info: NONBONDED TABLE SIZE: 705 POINTS
TCL: Running for 1500000 steps
ETITLE: TS BOND ANGLE DIHED IMPRP ELECT VDW BOUNDARY MISC KINETIC TOTAL TEMP POTENTIAL TOTALAVG TEMPAVG PRESSURE GPRESSURE VOLUME PRESSAVG GPRESSAVG
ENERGY: 0 1.5915 6.6808 1.2185 0.0000 -10583.3883 1436.1251 0.0000 0.0000 1786.1128 -7351.6597 308.0764 -9137.7725 -7351.6597 308.0764 189.8959 278.7165 29821.8061 189.8959 278.7165
ENERGY: 300000 1.8253 8.4267 0.7865 0.0000 -10618.6136 1483.0450 0.0000 0.0000 1770.5631 -7353.9670 305.3943 -9124.5302 -7337.9771 306.5370 577.1470 641.8307 29886.8494 242.0749 300.2012
ENERGY: 600000 1.9440 5.1964 0.3647 0.0000 -10606.7981 1428.9108 0.0000 0.0000 1790.9869 -7379.3952 308.9171 -9170.3821 -7349.8697 305.8559 143.6360 210.1395 30016.9260 148.4718 203.8393
ENERGY: 900000 0.6830 6.5129 1.0402 0.0000 -10704.2131 1473.6414 0.0000 0.0000 1714.3389 -7507.9967 295.6965 -9222.3356 -7369.5093 303.5680 224.3037 298.5314 29921.3595 116.3216 165.1255
ENERGY: 1200000 0.7170 6.3462 0.6986 0.0000 -10551.0193 1371.2341 0.0000 0.0000 1734.6293 -7437.3940 299.1963 -9172.0233 -7381.5040 303.0221 -678.3137 -570.0129 30162.3805 42.1612 104.0515
ENERGY: 1500000 2.3205 5.9012 0.5254 0.0000 -10516.4147 1373.8790 0.0000 0.0000 1787.9343 -7345.8544 308.3906 -9133.7887 -7383.9998 302.6294 -36.6592 38.5764 29731.6586 10.7675 73.2243
TCL: Running FEP window   8: Lambda1 0.6499999999999997 Lambda2 0.5999999999999996 [dLambda -0.050000000000000044]
TCL: Setting parameter firsttimestep to 0
TCL: Setting parameter alchLambda to 0.6499999999999997
Info: NONBONDED TABLE R-SQUARED SPACING: 0.0625
Info: NONBONDED TABLE SIZE: 705 POINTS
TCL: Setting parameter alchLambda2 to 0.5999999999999996
Info: NONBONDED TABLE R-SQUARED SPACING: 0.0625
Info: NONBONDED TABLE SIZE: 705 POINTS
TCL: Running for 1500000 steps
ETITLE: TS BOND ANGLE DIHED IMPRP ELECT VDW BOUNDARY MISC KINETIC TOTAL TEMP POTENTIAL TOTALAVG TEMPAVG PRESSURE GPRESSURE VOLUME PRESSAVG GPRESSAVG
ENERGY: 0 2.3205 5.9012 0.5254 0.0000 -10516.2954 1374.2286 0.0000 0.0000 1787.0987 -7346.2210 308.2464 -9133.3197 -7346.2210 308.2464 -55.0950 37.7222 29731.6586 -55.0950 37.7222
ENERGY: 300000 0.1067 11.4538 0.6027 0.0000 -10709.4260 1458.0884 0.0000 0.0000 1729.5019 -7509.6725 298.3119 -9239.1744 -7437.7643 299.5725 223.6159 295.4358 29466.1543 -115.1414 -44.2271
ENERGY: 600000 0.2527 5.8782 1.2174 0.0000 -10599.0529 1428.9741 0.0000 0.0000 1742.0597 -7420.6709 300.4779 -9162.7306 -7431.9009 299.5392 -143.8665 -78.4289 30299.4136 -189.9357 -118.0240
ENERGY: 900000 0.0893 7.1579 1.4091 0.0000 -10605.6155 1482.4363 0.0000 0.0000 1761.4468 -7353.0761 303.8219 -9114.5229 -7411.2797 300.3059 589.7791 637.8082 29870.8517 -86.2266 -10.0911
ENERGY: 1200000 1.4111 8.8392 0.5036 0.0000 -10658.3225 1434.4041 0.0000 0.0000 1746.8426 -7466.3219 301.3029 -9213.1645 -7424.4187 300.2500 -257.5019 -188.7187 30416.0236 14.5374 93.3013
ENERGY: 1500000 3.9007 5.1646 0.2795 0.0000 -10645.3061 1500.9663 0.0000 0.0000 1723.9495 -7411.0456 297.3542 -9134.9951 -7417.8838 300.4649 565.1243 610.0750 30000.7573 44.8863 120.7199
TCL: Running FEP window   9: Lambda1 0.5999999999999996 Lambda2 0.5499999999999996 [dLambda -0.050000000000000044]
TCL: Setting parameter firsttimestep to 0
TCL: Setting parameter alchLambda to 0.5999999999999996
Info: NONBONDED TABLE R-SQUARED SPACING: 0.0625
Info: NONBONDED TABLE SIZE: 705 POINTS
TCL: Setting parameter alchLambda2 to 0.5499999999999996
Info: NONBONDED TABLE R-SQUARED SPACING: 0.0625
Info: NONBONDED TABLE SIZE: 705 POINTS
TCL: Running for 1500000 steps
ETITLE: TS BOND ANGLE DIHED IMPRP ELECT VDW BOUNDARY MISC KINETIC TOTAL TEMP POTENTIAL TOTALAVG TEMPAVG PRESSURE GPRESSURE VOLUME PRESSAVG GPRESSAVG
ENERGY: 0 3.9007 5.1646 0.2795 0.0000 -10645.4176 1501.3782 0.0000 0.0000 1723.0673 -7411.6274 297.2020 -9134.6947 -7411.6274 297.2020 525.6630 605.4353 30000.7573 525.6630 605.4353
ENERGY: 300000 0.7957 6.7461 0.8040 0.0000 -10496.9644 1411.3528 0.0000 0.0000 1771.4455 -7305.8204 305.5465 -9077.2658 -7364.4779 301.1341 -1.9441 155.0267 29998.0094 118.1994 189.3408
ENERGY: 600000 2.7349 3.0534 0.6622 0.0000 -10678.4890 1493.7826 0.0000 0.0000 1710.6747 -7467.5812 295.0645 -9178.2559 -7385.3439 299.8799 139.5817 281.9069 30427.1117 -35.6551 39.2864
ENERGY: 900000 2.4429 6.0030 1.1101 0.0000 -10585.2018 1419.9670 0.0000 0.0000 1762.6722 -7393.0066 304.0332 -9155.6788 -7403.2649 300.5875 -90.0702 -0.8370 29909.2011 19.0599 95.0237
ENERGY: 1200000 0.4278 8.7163 2.8916 0.0000 -10606.5542 1390.9478 0.0000 0.0000 1696.7556 -7506.8151 292.6637 -9203.5707 -7414.7080 299.3516 -363.4040 -273.3781 29853.1692 9.3777 83.1120
ENERGY: 1500000 2.3535 6.6385 2.1172 0.0000 -10615.4498 1419.4057 0.0000 0.0000 1768.5324 -7416.4024 305.0440 -9184.9347 -7417.1270 299.2817 -145.2563 -15.1573 29737.6540 35.3152 109.2901
TCL: Running FEP window  10: Lambda1 0.5499999999999996 Lambda2 0.4999999999999996 [dLambda -0.04999999999999999]
TCL: Setting parameter firsttimestep to 0
TCL: Setting parameter alchLambda to 0.5499999999999996
Info: NONBONDED TABLE R-SQUARED SPACING: 0.0625
Info: NONBONDED TABLE SIZE: 705 POINTS
TCL: Setting parameter alchLambda2 to 0.4999999999999996
Info: NONBONDED TABLE R-SQUARED SPACING: 0.0625
Info: NONBONDED TABLE SIZE: 705 POINTS
TCL: Running for 1500000 steps
ETITLE: TS BOND ANGLE DIHED IMPRP ELECT VDW BOUNDARY MISC KINETIC TOTAL TEMP POTENTIAL TOTALAVG TEMPAVG PRESSURE GPRESSURE VOLUME PRESSAVG GPRESSAVG
ENERGY: 0 2.3535 6.6385 2.1172 0.0000 -10615.3805 1419.7493 0.0000 0.0000 1767.6973 -7416.8246 304.9000 -9184.5219 -7416.8246 304.9000 -109.1401 -18.4586 29737.6540 -109.1401 -18.4586
ENERGY: 300000 0.9929 4.0313 0.3476 0.0000 -10534.0106 1376.9214 0.0000 0.0000 1789.8590 -7361.8584 308.7226 -9151.7175 -7389.1579 304.9544 -394.3101 -332.7958 30201.2688 -199.7965 -118.5910
ENERGY: 600000 2.4747 8.4456 0.2388 0.0000 -10562.8337 1387.5322 0.0000 0.0000 1706.7197 -7457.4227 294.3823 -9164.1424 -7399.1739 299.8206 -371.2222 -316.6650 29936.2796 -270.1505 -199.2657
ENERGY: 900000 0.3747 6.5627 0.7330 0.0000 -10529.4439 1340.5734 0.0000 0.0000 1740.0061 -7441.1941 300.1237 -9181.2001 -7417.1289 299.1437 -757.4490 -697.9106 29990.0222 -392.1268 -331.5962
ENERGY: 1200000 1.8931 3.7006 0.9278 0.0000 -10562.2847 1422.2226 0.0000 0.0000 1723.2136 -7410.3270 297.2273 -9133.5406 -7416.2032 299.1726 -163.6756 -44.0967 29993.7415 -251.0574 -196.0249
ENERGY: 1500000 0.1883 7.0059 0.6073 0.0000 -10532.1744 1368.2367 0.0000 0.0000 1749.6673 -7406.4689 301.7901 -9156.1362 -7414.0087 299.2707 -548.9666 -502.3976 30287.1690 -247.1250 -191.9446
TCL: Running FEP window  11: Lambda1 0.4999999999999996 Lambda2 0.4499999999999996 [dLambda -0.04999999999999999]
TCL: Setting parameter firsttimestep to 0
TCL: Setting parameter alchLambda to 0.4999999999999996
Info: NONBONDED TABLE R-SQUARED SPACING: 0.0625
Info: NONBONDED TABLE SIZE: 705 POINTS
TCL: Setting parameter alchLambda2 to 0.4499999999999996
Info: NONBONDED TABLE R-SQUARED SPACING: 0.0625
Info: NONBONDED TABLE SIZE: 705 POINTS
TCL: Running for 1500000 steps
ETITLE: TS BOND ANGLE DIHED IMPRP ELECT VDW BOUNDARY MISC KINETIC TOTAL TEMP POTENTIAL TOTALAVG TEMPAVG PRESSURE GPRESSURE VOLUME PRESSAVG GPRESSAVG
ENERGY: 0 0.1884 7.0059 0.6073 0.0000 -10531.9719 1368.5510 0.0000 0.0000 1748.8088 -7406.8106 301.6420 -9155.6194 -7406.8106 301.6420 -579.6992 -503.3817 30287.1690 -579.6992 -503.3817
ENERGY: 300000 1.0831 3.2579 0.6132 0.0000 -10558.0569 1469.9551 0.0000 0.0000 1788.5467 -7294.6010 308.4962 -9083.1477 -7387.9341 302.9810 613.0203 662.9850 29980.6749 -81.4546 -14.7895
ENERGY: 600000 3.7429 5.1275 0.2448 0.0000 -10649.1039 1354.4197 0.0000 0.0000 1786.0104 -7499.5585 308.0587 -9285.5689 -7422.4786 300.9917 -661.0066 -592.7493 29576.2189 -149.1880 -81.7650
ENERGY: 900000 0.8578 8.0305 1.1983 0.0000 -10461.8446 1371.0459 0.0000 0.0000 1718.3862 -7362.3260 296.3946 -9080.7121 -7397.1694 301.6853 -269.4876 -238.3391 30126.4959 -199.6639 -140.8761
ENERGY: 1200000 4.0405 6.8613 0.1560 0.0000 -10332.4996 1346.6310 0.0000 0.0000 1722.0739 -7252.7369 297.0307 -8974.8108 -7384.8273 301.5706 -418.0783 -349.6976 30361.7957 -220.4037 -161.2935
ENERGY: 1500000 0.9155 5.6549 1.6450 0.0000 -10464.5930 1415.4838 0.0000 0.0000 1757.1657 -7283.7281 303.0835 -9040.8938 -7382.5743 302.6193 102.2144 165.9881 30460.3316 -183.1889 -122.3021
TCL: Running FEP window  12: Lambda1 0.4499999999999996 Lambda2 0.39999999999999963 [dLambda -0.04999999999999999]
TCL: Setting parameter firsttimestep to 0
TCL: Setting parameter alchLambda to 0.4499999999999996
Info: NONBONDED TABLE R-SQUARED SPACING: 0.0625
Info: NONBONDED TABLE SIZE: 705 POINTS
TCL: Setting parameter alchLambda2 to 0.39999999999999963
Info: NONBONDED TABLE R-SQUARED SPACING: 0.0625
Info: NONBONDED TABLE SIZE: 705 POINTS
TCL: Running for 1500000 steps
ETITLE: TS BOND ANGLE DIHED IMPRP ELECT VDW BOUNDARY MISC KINETIC TOTAL TEMP POTENTIAL TOTALAVG TEMPAVG PRESSURE GPRESSURE VOLUME PRESSAVG GPRESSAVG
ENERGY: 0 0.9155 5.6549 1.6450 0.0000 -10464.5930 1415.4610 0.0000 0.0000 1756.3031 -7284.6134 302.9347 -9040.9166 -7284.6134 302.9347 76.2396 158.6663 30460.3316 76.2396 158.6663
ENERGY: 300000 0.5047 8.4473 0.4244 0.0000 -10380.9645 1289.1663 0.0000 0.0000 1781.0340 -7301.3879 307.2004 -9082.4218 -7337.4204 305.8940 -834.3841 -726.3028 29878.4865 52.3687 131.7168
ENERGY: 600000 3.7832 5.9512 0.4318 0.0000 -10681.3350 1486.8284 0.0000 0.0000 1704.6459 -7479.6945 294.0246 -9184.3403 -7388.4458 302.8277 531.8683 464.9087 30040.9813 126.6581 180.4316
ENERGY: 900000 1.3188 6.1343 0.8135 0.0000 -10624.0352 1380.6417 0.0000 0.0000 1764.2779 -7470.8490 304.3102 -9235.1268 -7384.3091 302.8044 -536.4426 -444.3328 29894.4501 7.7881 61.6204
ENERGY: 1200000 0.0965 5.8628 0.4036 0.0000 -10592.6199 1480.0176 0.0000 0.0000 1721.3917 -7384.8478 296.9130 -9106.2395 -7384.4518 301.7553 392.6337 425.1262 30251.3655 11.4044 65.5638
ENERGY: 1500000 1.0899 9.0057 0.2580 0.0000 -10668.2922 1487.6748 0.0000 0.0000 1722.9035 -7447.3603 297.1738 -9170.2639 -7397.4270 301.0091 352.8734 501.6390 29675.5408 38.2469 96.7470
TCL: Running FEP window  13: Lambda1 0.39999999999999963 Lambda2 0.34999999999999964 [dLambda -0.04999999999999999]
TCL: Setting parameter firsttimestep to 0
TCL: Setting parameter alchLambda to 0.39999999999999963
Info: NONBONDED TABLE R-SQUARED SPACING: 0.0625
Info: NONBONDED TABLE SIZE: 705 POINTS
TCL: Setting parameter alchLambda2 to 0.34999999999999964
Info: NONBONDED TABLE R-SQUARED SPACING: 0.0625
Info: NONBONDED TABLE SIZE: 705 POINTS
TCL: Running for 1500000 steps
ETITLE: TS BOND ANGLE DIHED IMPRP ELECT VDW BOUNDARY MISC KINETIC TOTAL TEMP POTENTIAL TOTALAVG TEMPAVG PRESSURE GPRESSURE VOLUME PRESSAVG GPRESSAVG
ENERGY: 0 1.0899 9.0057 0.2580 0.0000 -10668.2919 1487.6776 0.0000 0.0000 1722.0372 -7448.2234 297.0244 -9170.2607 -7448.2234 297.0244 405.6692 493.6897 29675.5408 405.6692 493.6897
ENERGY: 300000 0.8003 7.2339 0.6143 0.0000 -10644.5306 1453.7493 0.0000 0.0000 1744.9642 -7437.1686 300.9789 -9182.1328 -7467.4295 297.8713 330.3797 363.0937 29745.9507 165.4132 218.4314
ENERGY: 600000 0.8677 9.1639 0.3864 0.0000 -10633.8418 1474.3814 0.0000 0.0000 1766.4668 -7382.5757 304.6878 -9149.0425 -7426.4806 299.2677 667.4251 729.6462 29724.1345 216.2038 278.5558
ENERGY: 900000 2.1709 6.8046 0.5649 0.0000 -10525.9819 1378.4721 0.0000 0.0000 1720.9495 -7417.0198 296.8367 -9137.9693 -7418.4948 299.5181 -161.9072 -172.7534 29675.0056 169.3660 223.9981
ENERGY: 1200000 1.5968 5.3917 0.2790 0.0000 -10533.0405 1401.5722 0.0000 0.0000 1682.4466 -7441.7543 290.1956 -9124.2009 -7413.3602 299.4459 117.3437 131.7456 29462.7013 135.9805 183.0550
ENERGY: 1500000 1.0469 7.9448 0.3868 0.0000 -10541.7879 1433.3348 0.0000 0.0000 1734.0322 -7365.0424 299.0933 -9099.0746 -7424.1309 299.2598 285.7765 346.9666 30095.5770 122.7505 175.7989
TCL: Running FEP window  14: Lambda1 0.34999999999999964 Lambda2 0.29999999999999966 [dLambda -0.04999999999999999]
TCL: Setting parameter firsttimestep to 0
TCL: Setting parameter alchLambda to 0.34999999999999964
Info: NONBONDED TABLE R-SQUARED SPACING: 0.0625
Info: NONBONDED TABLE SIZE: 705 POINTS
TCL: Setting parameter alchLambda2 to 0.29999999999999966
Info: NONBONDED TABLE R-SQUARED SPACING: 0.0625
Info: NONBONDED TABLE SIZE: 705 POINTS
TCL: Running for 1500000 steps
ETITLE: TS BOND ANGLE DIHED IMPRP ELECT VDW BOUNDARY MISC KINETIC TOTAL TEMP POTENTIAL TOTALAVG TEMPAVG PRESSURE GPRESSURE VOLUME PRESSAVG GPRESSAVG
ENERGY: 0 1.0469 7.9448 0.3868 0.0000 -10541.7880 1433.3571 0.0000 0.0000 1733.1819 -7365.8705 298.9466 -9099.0524 -7365.8705 298.9466 257.1720 341.4449 30095.5770 257.1720 341.4449
ENERGY: 300000 1.2577 3.9877 1.0780 0.0000 -10474.5869 1343.1884 0.0000 0.0000 1706.3095 -7418.7657 294.3116 -9125.0752 -7367.9763 301.7091 -262.3746 -223.2871 29422.2144 61.1912 148.3097
ENERGY: 600000 1.1050 4.0712 0.3821 0.0000 -10436.0882 1355.3498 0.0000 0.0000 1779.8294 -7295.3507 306.9926 -9075.1801 -7340.2286 301.8965 -133.2075 -141.4813 29799.1897 -44.7168 22.9259
ENERGY: 900000 0.8076 6.9449 0.3820 0.0000 -10582.4799 1451.2909 0.0000 0.0000 1768.6469 -7354.4076 305.0638 -9123.0545 -7356.4462 302.5356 259.0114 348.3007 29904.7901 -27.6736 39.3855
ENERGY: 1200000 0.7715 10.5490 1.0706 0.0000 -10549.1338 1411.9529 0.0000 0.0000 1740.9117 -7383.8780 300.2799 -9124.7897 -7369.0416 301.9485 -133.1930 15.4662 29677.6454 -14.7200 58.3641
ENERGY: 1500000 1.0230 7.6197 0.8252 0.0000 -10500.3695 1355.9855 0.0000 0.0000 1750.7553 -7384.1607 301.9778 -9134.9161 -7374.2993 301.2635 -652.8733 -489.3342 30043.1065 -13.1821 62.8304
TCL: Running FEP window  15: Lambda1 0.29999999999999966 Lambda2 0.24999999999999967 [dLambda -0.04999999999999999]
TCL: Setting parameter firsttimestep to 0
TCL: Setting parameter alchLambda to 0.29999999999999966
Info: NONBONDED TABLE R-SQUARED SPACING: 0.0625
Info: NONBONDED TABLE SIZE: 705 POINTS
TCL: Setting parameter alchLambda2 to 0.24999999999999967
Info: NONBONDED TABLE R-SQUARED SPACING: 0.0625
Info: NONBONDED TABLE SIZE: 705 POINTS
TCL: Running for 1500000 steps
ETITLE: TS BOND ANGLE DIHED IMPRP ELECT VDW BOUNDARY MISC KINETIC TOTAL TEMP POTENTIAL TOTALAVG TEMPAVG PRESSURE GPRESSURE VOLUME PRESSAVG GPRESSAVG
ENERGY: 0 1.0230 7.6197 0.8252 0.0000 -10500.3699 1356.1916 0.0000 0.0000 1749.9069 -7384.8035 301.8314 -9134.7104 -7384.8035 301.8314 -577.0920 -489.6187 30043.1065 -577.0920 -489.6187
ENERGY: 300000 1.9945 4.9561 0.0596 0.0000 -10575.8378 1485.0480 0.0000 0.0000 1776.7673 -7307.0124 306.4644 -9083.7797 -7391.8552 303.7137 462.2686 519.6729 30205.6576 26.7503 60.9260
ENERGY: 600000 1.7582 5.4114 0.4769 0.0000 -10630.9593 1443.7026 0.0000 0.0000 1717.0635 -7462.5466 296.1665 -9179.6101 -7403.1232 302.9227 19.0939 93.2494 29588.4806 29.6183 83.9178
ENERGY: 900000 0.7107 9.6520 0.4845 0.0000 -10681.4121 1470.0205 0.0000 0.0000 1694.4462 -7506.0982 292.2653 -9200.5444 -7417.7303 300.2930 150.4145 139.4332 29843.1914 -10.1137 38.5061
ENERGY: 1200000 0.5923 5.5636 0.5056 0.0000 -10651.9553 1456.0925 0.0000 0.0000 1747.2569 -7441.9443 301.3744 -9189.2013 -7407.6961 301.1850 -16.4354 35.0821 30282.6015 97.7963 149.9874
ENERGY: 1500000 0.5397 6.1863 0.3348 0.0000 -10501.7973 1382.7981 0.0000 0.0000 1798.3898 -7313.5487 310.1940 -9111.9385 -7396.4305 301.4408 -92.6911 -40.5680 29746.8525 -16.9141 42.3530
TCL: Running FEP window  16: Lambda1 0.24999999999999967 Lambda2 0.19999999999999968 [dLambda -0.04999999999999999]
TCL: Setting parameter firsttimestep to 0
TCL: Setting parameter alchLambda to 0.24999999999999967
Info: NONBONDED TABLE R-SQUARED SPACING: 0.0625
Info: NONBONDED TABLE SIZE: 705 POINTS
TCL: Setting parameter alchLambda2 to 0.19999999999999968
Info: NONBONDED TABLE R-SQUARED SPACING: 0.0625
Info: NONBONDED TABLE SIZE: 705 POINTS
TCL: Running for 1500000 steps
ETITLE: TS BOND ANGLE DIHED IMPRP ELECT VDW BOUNDARY MISC KINETIC TOTAL TEMP POTENTIAL TOTALAVG TEMPAVG PRESSURE GPRESSURE VOLUME PRESSAVG GPRESSAVG
ENERGY: 0 0.5397 6.1863 0.3348 0.0000 -10501.7985 1382.4160 0.0000 0.0000 1797.5418 -7314.7799 310.0477 -9112.3217 -7314.7799 310.0477 -123.1829 -44.9774 29746.8525 -123.1829 -44.9774
ENERGY: 300000 0.7438 4.5652 0.5066 0.0000 -10467.4162 1317.4220 0.0000 0.0000 1783.6241 -7360.5546 307.6471 -9144.1786 -7341.8509 304.5757 -732.8551 -675.4513 30017.8356 -283.9082 -199.0773
ENERGY: 600000 0.6206 4.2979 0.2046 0.0000 -10523.9915 1392.2046 0.0000 0.0000 1727.0723 -7399.5913 297.8928 -9126.6636 -7368.1133 301.4209 -1.7233 71.1520 29614.2799 -390.6123 -305.7362
ENERGY: 900000 1.3059 3.9201 1.1261 0.0000 -10636.3229 1480.3406 0.0000 0.0000 1734.1573 -7415.4729 299.1149 -9149.6302 -7377.9123 301.5883 158.0281 188.8624 30087.6674 -210.8557 -137.4555
ENERGY: 1200000 1.2868 6.9278 0.2922 0.0000 -10511.2599 1379.4784 0.0000 0.0000 1730.6565 -7392.6181 298.5110 -9123.2746 -7374.6448 302.2618 -194.4019 -135.7368 29593.1100 -204.4941 -135.0323
ENERGY: 1500000 1.6240 5.1112 1.3091 0.0000 -10670.4027 1475.0671 0.0000 0.0000 1686.3646 -7500.9266 290.8714 -9187.2913 -7384.7481 301.9040 262.4308 295.6568 29934.0368 -189.5221 -119.1648
TCL: Running FEP window  17: Lambda1 0.19999999999999968 Lambda2 0.1499999999999997 [dLambda -0.04999999999999999]
TCL: Setting parameter firsttimestep to 0
TCL: Setting parameter alchLambda to 0.19999999999999968
Info: NONBONDED TABLE R-SQUARED SPACING: 0.0625
Info: NONBONDED TABLE SIZE: 705 POINTS
TCL: Setting parameter alchLambda2 to 0.1499999999999997
Info: NONBONDED TABLE R-SQUARED SPACING: 0.0625
Info: NONBONDED TABLE SIZE: 705 POINTS
TCL: Running for 1500000 steps
ETITLE: TS BOND ANGLE DIHED IMPRP ELECT VDW BOUNDARY MISC KINETIC TOTAL TEMP POTENTIAL TOTALAVG TEMPAVG PRESSURE GPRESSURE VOLUME PRESSAVG GPRESSAVG
ENERGY: 0 1.6240 5.1112 1.3091 0.0000 -10670.4028 1475.1340 0.0000 0.0000 1685.4510 -7501.7734 290.7138 -9187.2245 -7501.7734 290.7138 220.8326 293.8347 29934.0368 220.8326 293.8347
ENERGY: 300000 3.3063 11.1066 1.1744 0.0000 -10600.1860 1467.0224 0.0000 0.0000 1709.2589 -7408.3174 294.8203 -9117.5763 -7411.9216 296.1492 216.6656 295.6079 30101.4347 105.3170 152.5582
ENERGY: 600000 0.3173 6.6916 0.9947 0.0000 -10749.9415 1567.4449 0.0000 0.0000 1751.5476 -7422.9456 302.1144 -9174.4931 -7405.4136 298.9006 1229.2488 1322.9380 29619.2578 285.1804 335.5016
ENERGY: 900000 1.9253 7.2810 1.3237 0.0000 -10710.1513 1488.6099 0.0000 0.0000 1750.5595 -7460.4519 301.9440 -9211.0114 -7408.1588 299.6190 97.2450 76.2631 30207.8245 172.3367 216.8621
ENERGY: 1200000 1.4754 4.1171 0.7447 0.0000 -10631.7815 1428.4230 0.0000 0.0000 1767.2270 -7429.7944 304.8189 -9197.0213 -7401.9301 299.9581 176.4429 240.1456 29659.5289 134.7805 182.8027
ENERGY: 1500000 0.6825 5.5563 0.4329 0.0000 -10572.3058 1429.6874 0.0000 0.0000 1767.9642 -7367.9824 304.9460 -9135.9466 -7403.0980 299.7080 34.5474 63.7752 30201.0380 69.6576 113.2344
TCL: Running FEP window  18: Lambda1 0.1499999999999997 Lambda2 0.09999999999999969 [dLambda -0.05 ]
TCL: Setting parameter firsttimestep to 0
TCL: Setting parameter alchLambda to 0.1499999999999997
Info: NONBONDED TABLE R-SQUARED SPACING: 0.0625
Info: NONBONDED TABLE SIZE: 705 POINTS
TCL: Setting parameter alchLambda2 to 0.09999999999999969
Info: NONBONDED TABLE R-SQUARED SPACING: 0.0625
Info: NONBONDED TABLE SIZE: 705 POINTS
TCL: Running for 1500000 steps
ETITLE: TS BOND ANGLE DIHED IMPRP ELECT VDW BOUNDARY MISC KINETIC TOTAL TEMP POTENTIAL TOTALAVG TEMPAVG PRESSURE GPRESSURE VOLUME PRESSAVG GPRESSAVG
ENERGY: 0 0.6825 5.5563 0.4329 0.0000 -10572.3062 1429.9603 0.0000 0.0000 1767.1464 -7368.5278 304.8050 -9135.6742 -7368.5278 304.8050 -9.6981 65.2727 30201.0380 -9.6981 65.2727
ENERGY: 300000 1.7194 6.1834 0.5967 0.0000 -10491.3472 1344.2500 0.0000 0.0000 1786.9779 -7351.6196 308.2256 -9138.5976 -7387.5475 301.6990 -569.6641 -521.5956 29910.1293 -97.3272 -32.5381
ENERGY: 600000 0.3887 8.9004 1.2989 0.0000 -10681.4653 1473.7174 0.0000 0.0000 1706.4874 -7490.6726 294.3423 -9197.1600 -7429.1428 299.9883 362.7133 411.9645 29730.5895 45.7860 113.3803
ENERGY: 900000 0.7728 7.8443 0.6475 0.0000 -10620.6835 1413.4702 0.0000 0.0000 1762.8524 -7435.0964 304.0643 -9197.9488 -7411.1150 302.1762 -447.2511 -367.2356 30213.0357 -29.8932 42.0813
ENERGY: 1200000 1.6747 6.0836 0.9164 0.0000 -10696.3719 1537.2097 0.0000 0.0000 1716.5293 -7433.9581 296.0743 -9150.4874 -7406.7598 302.4210 947.8187 1008.7653 29689.2837 85.7311 148.4473
ENERGY: 1500000 0.3456 3.4729 0.5124 0.0000 -10520.4311 1391.2414 0.0000 0.0000 1695.2317 -7429.6270 292.4008 -9124.8587 -7406.8419 302.1811 -61.0535 -2.9929 29587.4426 87.3627 142.1359
TCL: Running FEP window  19: Lambda1 0.09999999999999969 Lambda2 0.049999999999999684 [dLambda -0.05 ]
TCL: Setting parameter firsttimestep to 0
TCL: Setting parameter alchLambda to 0.09999999999999969
Info: NONBONDED TABLE R-SQUARED SPACING: 0.0625
Info: NONBONDED TABLE SIZE: 705 POINTS
TCL: Setting parameter alchLambda2 to 0.049999999999999684
Info: NONBONDED TABLE R-SQUARED SPACING: 0.0625
Info: NONBONDED TABLE SIZE: 705 POINTS
TCL: Running for 1500000 steps
ETITLE: TS BOND ANGLE DIHED IMPRP ELECT VDW BOUNDARY MISC KINETIC TOTAL TEMP POTENTIAL TOTALAVG TEMPAVG PRESSURE GPRESSURE VOLUME PRESSAVG GPRESSAVG
ENERGY: 0 0.3456 3.4729 0.5124 0.0000 -10520.4306 1390.6005 0.0000 0.0000 1694.3999 -7431.0992 292.2574 -9125.4991 -7431.0992 292.2574 -117.6138 -11.7282 29587.4426 -117.6138 -11.7282
ENERGY: 300000 2.0663 6.7815 0.2292 0.0000 -10553.8685 1418.8777 0.0000 0.0000 1774.2323 -7351.6816 306.0272 -9125.9139 -7382.3686 302.7251 -29.8140 -85.5713 29986.0755 -120.0370 -64.1650
ENERGY: 600000 0.3494 9.5136 0.9170 0.0000 -10424.1741 1261.0341 0.0000 0.0000 1739.8147 -7412.5453 300.0907 -9152.3600 -7393.2075 302.7912 -1571.3021 -1447.6485 30073.5505 -400.2984 -326.7882
ENERGY: 900000 0.7613 6.1643 0.1157 0.0000 -10469.8261 1390.8176 0.0000 0.0000 1738.8950 -7333.0723 299.9320 -9071.9672 -7391.0185 301.1786 -326.5044 -293.1927 30324.4105 -275.2076 -194.5822
ENERGY: 1200000 0.2151 5.2456 1.1434 0.0000 -10494.5276 1387.6620 0.0000 0.0000 1706.4253 -7393.8363 294.3315 -9100.2616 -7385.7588 301.5536 -376.3259 -290.3636 30160.5045 -224.0382 -146.9846
ENERGY: 1500000 0.9115 6.9124 0.3707 0.0000 -10626.9789 1425.7095 0.0000 0.0000 1673.1939 -7519.8809 288.5996 -9193.0748 -7398.2551 300.4003 -158.9063 -174.0386 30087.4854 -262.1621 -192.8629
TCL: Running FEP window  20: Lambda1 0.049999999999999684 Lambda2 0.0    [dLambda -0.049999999999999684]
TCL: Setting parameter firsttimestep to 0
TCL: Setting parameter alchLambda to 0.049999999999999684
Info: NONBONDED TABLE R-SQUARED SPACING: 0.0625
Info: NONBONDED TABLE SIZE: 705 POINTS
TCL: Setting parameter alchLambda2 to 0.0
Info: NONBONDED TABLE R-SQUARED SPACING: 0.0625
Info: NONBONDED TABLE SIZE: 705 POINTS
TCL: Running for 1500000 steps
ETITLE: TS BOND ANGLE DIHED IMPRP ELECT VDW BOUNDARY MISC KINETIC TOTAL TEMP POTENTIAL TOTALAVG TEMPAVG PRESSURE GPRESSURE VOLUME PRESSAVG GPRESSAVG
ENERGY: 0 0.9115 6.9124 0.3707 0.0000 -10626.9801 1425.9384 0.0000 0.0000 1672.3040 -7520.5431 288.4462 -9192.8471 -7520.5431 288.4462 -242.4298 -175.1640 30087.4854 -242.4298 -175.1640
ENERGY: 300000 0.8992 8.6157 0.4271 0.0000 -10629.5370 1461.0129 0.0000 0.0000 1723.0747 -7435.5074 297.2033 -9158.5822 -7430.8000 293.8039 -102.6442 -47.2014 30232.5997 -295.9930 -234.9303
ENERGY: 600000 3.1245 10.2402 0.7949 0.0000 -10588.7703 1414.5059 0.0000 0.0000 1750.0847 -7410.0202 301.8621 -9160.1049 -7401.2260 297.1325 -172.4949 -85.2035 29950.3524 -250.8674 -195.9271
ENERGY: 900000 1.0911 4.7045 2.2950 0.0000 -10409.8193 1298.6846 0.0000 0.0000 1711.9887 -7391.0554 295.2911 -9103.0440 -7403.5379 296.4608 -1079.6985 -985.4484 30149.5601 -223.0345 -163.6391
ENERGY: 1200000 1.0819 7.0139 0.1291 0.0000 -10526.1079 1430.9000 0.0000 0.0000 1752.8802 -7334.1027 302.3443 -9086.9830 -7390.0086 297.8823 437.0892 479.3263 29462.5558 -178.5201 -117.5441
ENERGY: 1500000 0.5952 5.2239 2.3982 0.0000 -10614.9530 1441.9172 0.0000 0.0000 1725.6881 -7439.1304 297.6541 -9164.8186 -7395.4336 298.6771 78.7109 203.3871 29521.1573 -110.6084 -40.9386
TCL: Exiting due to exit command.
